0
                    3D
 Structure written by MMmdl.
162170  0  0  1  0            999 V2000
  -30.5992  -14.7308   20.4729 C   0  0  0  0  0  0
  -30.4413  -12.4495   19.4603 C   0  0  0  0  0  0
  -29.5102  -12.5219   18.2283 C   0  0  0  0  0  0
  -28.0353  -12.3437   18.6421 C   0  0  0  0  0  0
  -27.6446  -13.2273   19.8551 C   0  0  2  0  0  0
  -28.6940  -13.1356   20.9862 C   0  0  0  0  0  0
  -25.2523  -13.8179   20.5712 C   0  0  0  0  0  0
  -24.1804  -13.0440   20.9224 C   0  0  0  0  0  0
  -24.6387  -11.6918   20.8767 C   0  0  0  0  0  0
  -23.9056  -10.4303   21.0427 C   0  0  0  0  0  0
  -24.3600   -9.4208   21.9196 C   0  0  0  0  0  0
  -23.6280   -8.2243   22.0759 C   0  0  0  0  0  0
  -22.4262   -8.0281   21.3546 C   0  0  0  0  0  0
  -21.9900   -9.0266   20.4655 C   0  0  0  0  0  0
  -22.7228  -10.2147   20.3075 C   0  0  0  0  0  0
  -21.6852   -6.0740   22.5289 C   0  0  0  0  0  0
  -21.4015   -6.5644   23.8218 C   0  0  0  0  0  0
  -21.3657   -5.6790   24.9176 C   0  0  0  0  0  0
  -21.6044   -4.3056   24.7222 C   0  0  0  0  0  0
  -21.8809   -3.8150   23.4342 C   0  0  0  0  0  0
  -21.9190   -4.6974   22.3401 C   0  0  0  0  0  0
  -22.7824  -13.5247   21.1860 C   0  0  0  0  0  0
  -22.1658   -4.2157   21.0980 F   0  0  0  0  0  0
  -21.5623   -3.4537   25.7737 F   0  0  0  0  0  0
  -29.9964  -13.4949   20.4089 N   0  0  0  0  0  0
  -26.2945  -12.9377   20.3296 N   0  0  0  0  0  0
  -25.9308  -11.6525   20.5746 N   0  0  0  0  0  0
  -22.0431  -12.8274   22.0410 N   0  0  0  0  0  0
  -25.4204  -15.1902   20.4116 N   0  0  0  0  0  0
  -31.7920  -14.8511   20.1746 O   0  0  0  0  0  0
  -21.6627   -6.8878   21.4243 O   0  0  0  0  0  0
  -22.3532  -14.5551   20.6688 O   0  0  0  0  0  0
  -24.6326  -31.8578   23.1998 C   0  0  0  0  0  0
  -25.9167  -32.4763   23.8327 C   0  0  1  0  0  0
  -27.2044  -27.2626   20.1215 C   0  0  0  0  0  0
  -25.5969  -33.8566   24.2255 N   0  0  0  0  0  0
  -23.4265  -30.4835   21.5443 C   0  0  2  0  0  0
  -24.8683  -28.9330   20.1123 C   0  0  0  0  0  0
  -22.7498  -29.4621   22.4906 C   0  0  0  0  0  0
  -18.0299  -28.1397   22.8460 C   0  0  0  0  0  0
  -24.1488  -36.7285   23.2630 C   0  0  0  0  0  0
  -25.9742  -30.7676   21.3826 C   0  0  0  0  0  0
  -26.0427  -29.3920   20.7223 C   0  0  0  0  0  0
  -27.2151  -28.5689   20.7181 C   0  0  0  0  0  0
  -26.0101  -26.8806   19.4713 C   0  0  0  0  0  0
  -24.8562  -27.6839   19.4788 C   0  0  0  0  0  0
  -23.6440  -29.8245   20.1585 C   0  0  0  0  0  0
  -25.4118  -36.3069   24.0315 C   0  0  1  0  0  0
  -20.5897  -28.3708   23.1256 C   0  0  2  0  0  0
  -20.6795  -26.9430   22.5400 C   0  0  0  0  0  0
  -19.5773  -26.6388   21.5202 C   0  0  0  0  0  0
  -18.1947  -26.7938   22.1604 C   0  0  0  0  0  0
  -19.1552  -28.8871   23.2847 C   0  0  0  0  0  0
  -18.9478  -30.1470   23.8867 C   0  0  0  0  0  0
  -17.6479  -30.6591   24.0569 C   0  0  0  0  0  0
  -25.9060  -34.9444   23.5083 C   0  0  0  0  0  0
  -16.5368  -29.9087   23.6338 C   0  0  0  0  0  0
  -16.7287  -28.6517   23.0330 C   0  0  0  0  0  0
  -26.4518  -31.6602   25.0736 C   0  0  0  0  0  0
  -25.3725  -31.3802   26.1450 C   0  0  0  0  0  0
  -27.0374  -30.3003   24.6275 C   0  0  0  0  0  0
  -27.6052  -32.4353   25.7529 C   0  0  0  0  0  0
  -27.5579  -37.1803   24.8456 C   0  0  0  0  0  0
  -21.4208  -29.3060   22.3649 N   0  0  0  0  0  0
  -26.4290  -37.3772   23.9399 N   0  0  0  0  0  0
  -24.6966  -31.0537   22.0978 N   0  0  0  0  0  0
  -23.4206  -28.8149   23.2993 O   0  0  0  0  0  0
  -28.2949  -26.3639   20.1519 O   0  0  0  0  0  0
  -26.5607  -34.8925   22.4634 O   0  0  0  0  0  0
  -23.5481  -32.1408   23.7301 O   0  0  0  0  0  0
  -30.9402  -19.3116   21.2740 C   0  0  0  0  0  0
  -29.8848  -19.8922   20.5623 C   0  0  0  0  0  0
  -29.9683  -17.2817   20.6298 C   0  0  0  0  0  0
  -28.8452  -22.2370   20.5229 C   0  0  0  0  0  0
  -31.4798  -21.1460   22.9373 C   0  0  0  0  0  0
  -33.0582  -20.6525   21.0360 C   0  0  0  0  0  0
  -32.8235  -19.0844   22.9725 C   0  0  0  0  0  0
  -30.4447  -24.2256   20.8195 C   0  0  0  0  0  0
  -28.0201  -24.8934   20.3602 C   0  0  0  0  0  0
  -32.0557  -20.0394   22.0271 C   0  0  0  0  0  0
  -29.1559  -23.7686   20.1198 C   0  0  2  0  0  0
  -31.0015  -17.8861   21.2250 N   0  0  0  0  0  0
  -29.7549  -21.2461   20.2073 N   0  0  0  0  0  0
  -29.7571  -15.8201   20.6185 N   0  0  0  0  0  0
  -27.7970  -21.9634   21.1124 O   0  0  0  0  0  0
  -29.4156  -23.7706   18.8095 F   0  0  0  0  0  0
  -28.8327  -18.5464   20.0213 S   0  0  0  0  0  0
  -31.4813  -12.5871   19.1585 H   0  0  0  0  0  0
  -30.3915  -11.4639   19.9247 H   0  0  0  0  0  0
  -29.7856  -11.7643   17.4930 H   0  0  0  0  0  0
  -29.6349  -13.4855   17.7312 H   0  0  0  0  0  0
  -27.8834  -11.2917   18.8845 H   0  0  0  0  0  0
  -27.3808  -12.5591   17.7966 H   0  0  0  0  0  0
  -27.6400  -14.2519   19.4851 H   0  0  0  0  0  0
  -28.7289  -12.1275   21.4022 H   0  0  0  0  0  0
  -28.4339  -13.7951   21.8158 H   0  0  0  0  0  0
  -25.2735   -9.5681   22.4777 H   0  0  0  0  0  0
  -23.9992   -7.4626   22.7469 H   0  0  0  0  0  0
  -21.0830   -8.8787   19.8961 H   0  0  0  0  0  0
  -22.3680  -10.9692   19.6198 H   0  0  0  0  0  0
  -21.2009   -7.6151   23.9722 H   0  0  0  0  0  0
  -21.1492   -6.0521   25.9076 H   0  0  0  0  0  0
  -22.0589   -2.7613   23.2838 H   0  0  0  0  0  0
  -22.4019  -11.9959   22.4864 H   0  0  0  0  0  0
  -21.1060  -13.1353   22.2584 H   0  0  0  0  0  0
  -24.6427  -15.8343   20.5070 H   0  0  0  0  0  0
  -26.2475  -15.6300   20.0313 H   0  0  0  0  0  0
  -26.7227  -32.5401   23.1054 H   0  0  0  0  0  0
  -25.0162  -33.9701   25.0432 H   0  0  0  0  0  0
  -22.7241  -31.3072   21.4013 H   0  0  0  0  0  0
  -23.3757  -35.9610   23.3296 H   0  0  0  0  0  0
  -24.3563  -36.8916   22.2044 H   0  0  0  0  0  0
  -23.7251  -37.6491   23.6656 H   0  0  0  0  0  0
  -26.1216  -31.5323   20.6186 H   0  0  0  0  0  0
  -26.8480  -30.8073   22.0212 H   0  0  0  0  0  0
  -28.1126  -28.9141   21.2123 H   0  0  0  0  0  0
  -25.9344  -25.9485   18.9345 H   0  0  0  0  0  0
  -23.9594  -27.3336   18.9862 H   0  0  0  0  0  0
  -23.7791  -30.6046   19.4080 H   0  0  0  0  0  0
  -22.7597  -29.2667   19.8439 H   0  0  0  0  0  0
  -25.1305  -36.1907   25.0808 H   0  0  0  0  0  0
  -20.9979  -28.3305   24.1381 H   0  0  0  0  0  0
  -20.5711  -26.2322   23.3602 H   0  0  0  0  0  0
  -21.6665  -26.7465   22.1197 H   0  0  0  0  0  0
  -19.6939  -25.6292   21.1250 H   0  0  0  0  0  0
  -19.6723  -27.3180   20.6720 H   0  0  0  0  0  0
  -17.4221  -26.6677   21.4007 H   0  0  0  0  0  0
  -18.0347  -26.0089   22.9013 H   0  0  0  0  0  0
  -19.7957  -30.7294   24.2216 H   0  0  0  0  0  0
  -17.5038  -31.6264   24.5184 H   0  0  0  0  0  0
  -15.5368  -30.2980   23.7689 H   0  0  0  0  0  0
  -15.8684  -28.0843   22.7029 H   0  0  0  0  0  0
  -24.5870  -30.7178   25.7797 H   0  0  0  0  0  0
  -24.8953  -32.3004   26.4833 H   0  0  0  0  0  0
  -25.8019  -30.9010   27.0255 H   0  0  0  0  0  0
  -26.2986  -29.6741   24.1259 H   0  0  0  0  0  0
  -27.3986  -29.7286   25.4837 H   0  0  0  0  0  0
  -27.8887  -30.4259   23.9579 H   0  0  0  0  0  0
  -27.2627  -33.3639   26.2103 H   0  0  0  0  0  0
  -28.3873  -32.6946   25.0383 H   0  0  0  0  0  0
  -28.0701  -31.8491   26.5466 H   0  0  0  0  0  0
  -28.2596  -38.0099   24.7499 H   0  0  0  0  0  0
  -28.1078  -36.2637   24.6279 H   0  0  0  0  0  0
  -27.2291  -37.1447   25.8856 H   0  0  0  0  0  0
  -20.9387  -29.8798   21.6865 H   0  0  0  0  0  0
  -26.0172  -38.2847   24.1402 H   0  0  0  0  0  0
  -31.0027  -21.9432   22.3774 H   0  0  0  0  0  0
  -32.2597  -21.6194   23.5340 H   0  0  0  0  0  0
  -30.7347  -20.7451   23.6262 H   0  0  0  0  0  0
  -32.5866  -21.3987   20.3995 H   0  0  0  0  0  0
  -33.4881  -19.8900   20.3849 H   0  0  0  0  0  0
  -33.8795  -21.1444   21.5581 H   0  0  0  0  0  0
  -32.1546  -18.6224   23.6997 H   0  0  0  0  0  0
  -33.5951  -19.6119   23.5354 H   0  0  0  0  0  0
  -33.3224  -18.2832   22.4257 H   0  0  0  0  0  0
  -30.3192  -24.2422   21.9020 H   0  0  0  0  0  0
  -30.7197  -25.2322   20.5045 H   0  0  0  0  0  0
  -31.2894  -23.5808   20.5837 H   0  0  0  0  0  0
  -27.6777  -24.8015   21.3914 H   0  0  0  0  0  0
  -27.1748  -24.5615   19.7649 H   0  0  0  0  0  0
  -30.5662  -21.6284   19.7400 H   0  0  0  0  0  0
  -28.7876  -15.5547   20.6628 H   0  0  0  0  0  0
  1 25  1  0  0  0
  1 30  2  0  0  0
  1 84  1  0  0  0
  2  3  1  0  0  0
  2 25  1  0  0  0
  2 88  1  0  0  0
  2 89  1  0  0  0
  3  4  1  0  0  0
  3 90  1  0  0  0
  3 91  1  0  0  0
  4  5  1  0  0  0
  4 92  1  0  0  0
  4 93  1  0  0  0
  5  6  1  0  0  0
  5 26  1  0  0  0
  5 94  1  0  0  0
  6 25  1  0  0  0
  6 95  1  0  0  0
  6 96  1  0  0  0
  7  8  2  0  0  0
  7 26  1  0  0  0
  7 29  1  0  0  0
  8  9  1  0  0  0
  8 22  1  0  0  0
  9 10  1  0  0  0
  9 27  2  0  0  0
 10 11  2  0  0  0
 10 15  1  0  0  0
 11 12  1  0  0  0
 11 97  1  0  0  0
 12 13  2  0  0  0
 12 98  1  0  0  0
 13 14  1  0  0  0
 13 31  1  0  0  0
 14 15  2  0  0  0
 14 99  1  0  0  0
 15100  1  0  0  0
 16 17  2  0  0  0
 16 21  1  0  0  0
 16 31  1  0  0  0
 17 18  1  0  0  0
 17101  1  0  0  0
 18 19  2  0  0  0
 18102  1  0  0  0
 19 20  1  0  0  0
 19 24  1  0  0  0
 20 21  2  0  0  0
 20103  1  0  0  0
 21 23  1  0  0  0
 22 28  1  0  0  0
 22 32  2  0  0  0
 26 27  1  0  0  0
 28104  1  0  0  0
 28105  1  0  0  0
 29106  1  0  0  0
 29107  1  0  0  0
 33 34  1  0  0  0
 33 66  1  0  0  0
 33 70  2  0  0  0
 34 36  1  0  0  0
 34 59  1  0  0  0
 34108  1  0  0  0
 35 44  2  0  0  0
 35 45  1  0  0  0
 35 68  1  0  0  0
 36 56  1  0  0  0
 36109  1  0  0  0
 37 39  1  0  0  0
 37 47  1  0  0  0
 37 66  1  0  0  0
 37110  1  0  0  0
 38 43  2  0  0  0
 38 46  1  0  0  0
 38 47  1  0  0  0
 39 64  1  0  0  0
 39 67  2  0  0  0
 40 52  1  0  0  0
 40 53  2  0  0  0
 40 58  1  0  0  0
 41111  1  0  0  0
 41112  1  0  0  0
 41113  1  0  0  0
 41 48  1  0  0  0
 42 43  1  0  0  0
 42 66  1  0  0  0
 42114  1  0  0  0
 42115  1  0  0  0
 43 44  1  0  0  0
 44116  1  0  0  0
 45 46  2  0  0  0
 45117  1  0  0  0
 46118  1  0  0  0
 47119  1  0  0  0
 47120  1  0  0  0
 48 56  1  0  0  0
 48 65  1  0  0  0
 48121  1  0  0  0
 49 50  1  0  0  0
 49 53  1  0  0  0
 49 64  1  0  0  0
 49122  1  0  0  0
 50 51  1  0  0  0
 50123  1  0  0  0
 50124  1  0  0  0
 51 52  1  0  0  0
 51125  1  0  0  0
 51126  1  0  0  0
 52127  1  0  0  0
 52128  1  0  0  0
 53 54  1  0  0  0
 54 55  2  0  0  0
 54129  1  0  0  0
 55 57  1  0  0  0
 55130  1  0  0  0
 56 69  2  0  0  0
 57 58  2  0  0  0
 57131  1  0  0  0
 58132  1  0  0  0
 59 60  1  0  0  0
 59 61  1  0  0  0
 59 62  1  0  0  0
 60133  1  0  0  0
 60134  1  0  0  0
 60135  1  0  0  0
 61136  1  0  0  0
 61137  1  0  0  0
 61138  1  0  0  0
 62139  1  0  0  0
 62140  1  0  0  0
 62141  1  0  0  0
 63 65  1  0  0  0
 63142  1  0  0  0
 63143  1  0  0  0
 63144  1  0  0  0
 64145  1  0  0  0
 65146  1  0  0  0
 68 79  1  0  0  0
 71 72  2  0  0  0
 71 80  1  0  0  0
 71 82  1  0  0  0
 72 83  1  0  0  0
 72 87  1  0  0  0
 73 82  2  0  0  0
 73 84  1  0  0  0
 73 87  1  0  0  0
 74 81  1  0  0  0
 74 83  1  0  0  0
 74 85  2  0  0  0
 75147  1  0  0  0
 75148  1  0  0  0
 75149  1  0  0  0
 75 80  1  0  0  0
 76 80  1  0  0  0
 76150  1  0  0  0
 76151  1  0  0  0
 76152  1  0  0  0
 77 80  1  0  0  0
 77153  1  0  0  0
 77154  1  0  0  0
 77155  1  0  0  0
 78156  1  0  0  0
 78157  1  0  0  0
 78158  1  0  0  0
 78 81  1  0  0  0
 79 81  1  0  0  0
 79159  1  0  0  0
 79160  1  0  0  0
 81 86  1  0  0  0
 83161  1  0  0  0
 84162  1  0  0  0
M  ISO  4   1 100  68 101  79 101  84 100
M  END
> <chiral flag>
0

> <version>
0

> <s_m_source_file>
/data/baiqing/PycharmProjects/Reinvent-master-3.2/result/LINK_invent/BTK/process_docking_weight1_custom_product_contain_oxygen_bond_distance_aromatic_linkinvent_7_9_3/rearranged_h_0179.sdf

> <i_m_source_file_index>
1

> <r_mmod_Potential_Energy-OPLS-2005>
111.329277038574

> <r_mmod_Stretch_Energy-OPLS-2005>
110.496185302734

> <r_mmod_Bend_Energy-OPLS-2005>
169.431625366211

> <r_mmod_Torsional_Energy-OPLS-2005>
266.775390625

> <r_mmod_Improper_Torsional_Energy-OPLS-2005>
7.60515117645264

> <r_mmod_Van_der_Waal_Energy-OPLS-2005>
120.155570983887

> <r_mmod_Electrostatic_Energy-OPLS-2005>
-415.711883544922

> <r_mmod_Solvation_Energy-OPLS-2005>
-229.002716064453

> <b_mmod_Minimization_Converged-OPLS-2005>
0

> <r_mmod_RMS_Derivative-OPLS-2005>
2.27058124542236

$$$$
1
                    3D
 Structure written by MMmdl.
149157  0  0  1  0            999 V2000
  -30.5380  -14.8641   20.3572 C   0  0  0  0  0  0
  -30.4375  -12.5143   19.4711 C   0  0  0  0  0  0
  -29.5107  -12.5247   18.2352 C   0  0  0  0  0  0
  -28.0434  -12.3193   18.6557 C   0  0  0  0  0  0
  -27.6335  -13.2362   19.8399 C   0  0  2  0  0  0
  -28.6837  -13.2005   20.9711 C   0  0  0  0  0  0
  -25.2488  -13.8208   20.5833 C   0  0  0  0  0  0
  -24.1751  -13.0432   20.9239 C   0  0  0  0  0  0
  -24.6356  -11.6918   20.8717 C   0  0  0  0  0  0
  -23.9028  -10.4305   21.0368 C   0  0  0  0  0  0
  -24.3592   -9.4220   21.9149 C   0  0  0  0  0  0
  -23.6252   -8.2260   22.0717 C   0  0  0  0  0  0
  -22.4230   -8.0290   21.3529 C   0  0  0  0  0  0
  -21.9877   -9.0269   20.4609 C   0  0  0  0  0  0
  -22.7198  -10.2158   20.3016 C   0  0  0  0  0  0
  -21.6860   -6.0708   22.5281 C   0  0  0  0  0  0
  -21.3994   -6.5596   23.8207 C   0  0  0  0  0  0
  -21.3672   -5.6745   24.9162 C   0  0  0  0  0  0
  -21.6055   -4.3005   24.7216 C   0  0  0  0  0  0
  -21.8820   -3.8113   23.4330 C   0  0  0  0  0  0
  -21.9186   -4.6925   22.3389 C   0  0  0  0  0  0
  -22.7777  -13.5213   21.1917 C   0  0  0  0  0  0
  -22.1659   -4.2124   21.0960 F   0  0  0  0  0  0
  -21.5623   -3.4486   25.7725 F   0  0  0  0  0  0
  -29.9683  -13.5958   20.3777 N   0  0  0  0  0  0
  -26.2880  -12.9416   20.3264 N   0  0  0  0  0  0
  -25.9281  -11.6542   20.5685 N   0  0  0  0  0  0
  -22.0411  -12.8211   22.0443 N   0  0  0  0  0  0
  -25.4205  -15.1954   20.4551 N   0  0  0  0  0  0
  -31.7291  -14.9592   20.0427 O   0  0  0  0  0  0
  -21.6604   -6.8874   21.4257 O   0  0  0  0  0  0
  -22.3476  -14.5571   20.6808 O   0  0  0  0  0  0
  -24.6376  -31.8509   23.1898 C   0  0  0  0  0  0
  -25.9204  -32.4704   23.8241 C   0  0  1  0  0  0
  -27.2070  -27.1961   20.1131 C   0  0  0  0  0  0
  -25.6002  -33.8509   24.2207 N   0  0  0  0  0  0
  -23.4369  -30.4733   21.5357 C   0  0  2  0  0  0
  -24.8815  -28.9165   20.0916 C   0  0  0  0  0  0
  -22.7536  -29.4571   22.4858 C   0  0  0  0  0  0
  -18.0281  -28.1395   22.8426 C   0  0  0  0  0  0
  -24.1504  -36.7238   23.2639 C   0  0  0  0  0  0
  -25.9862  -30.7368   21.3808 C   0  0  0  0  0  0
  -26.0596  -29.3561   20.7185 C   0  0  0  0  0  0
  -27.2281  -28.5095   20.7211 C   0  0  0  0  0  0
  -26.0104  -26.8498   19.4533 C   0  0  0  0  0  0
  -24.8680  -27.6747   19.4449 C   0  0  0  0  0  0
  -23.6541  -29.8110   20.1492 C   0  0  0  0  0  0
  -25.4132  -36.3008   24.0300 C   0  0  1  0  0  0
  -20.5891  -28.3723   23.1217 C   0  0  2  0  0  0
  -20.6764  -26.9425   22.5398 C   0  0  0  0  0  0
  -19.5766  -26.6368   21.5177 C   0  0  0  0  0  0
  -18.1946  -26.7913   22.1598 C   0  0  0  0  0  0
  -19.1539  -28.8871   23.2788 C   0  0  0  0  0  0
  -18.9481  -30.1469   23.8823 C   0  0  0  0  0  0
  -17.6486  -30.6582   24.0550 C   0  0  0  0  0  0
  -25.9078  -34.9412   23.5046 C   0  0  0  0  0  0
  -16.5376  -29.9084   23.6308 C   0  0  0  0  0  0
  -16.7260  -28.6493   23.0317 C   0  0  0  0  0  0
  -26.4517  -31.6529   25.0648 C   0  0  0  0  0  0
  -25.3692  -31.3767   26.1334 C   0  0  0  0  0  0
  -27.0417  -30.2935   24.6242 C   0  0  0  0  0  0
  -27.6075  -32.4257   25.7422 C   0  0  0  0  0  0
  -27.5550  -37.1789   24.8475 C   0  0  0  0  0  0
  -21.4231  -29.3059   22.3596 N   0  0  0  0  0  0
  -26.4284  -37.3721   23.9376 N   0  0  0  0  0  0
  -24.7056  -31.0404   22.0909 N   0  0  0  0  0  0
  -23.4200  -28.8106   23.2974 O   0  0  0  0  0  0
  -28.2146  -26.1750   20.1377 O   0  0  0  0  0  0
  -26.5676  -34.8893   22.4632 O   0  0  0  0  0  0
  -23.5512  -32.1393   23.7198 O   0  0  0  0  0  0
  -30.1690  -19.5929   18.7065 C   0  0  0  0  0  0
  -29.3883  -19.8452   19.8340 C   0  0  0  0  0  0
  -29.8466  -17.4376   20.0616 C   0  0  0  0  0  0
  -27.8449  -24.9298   20.7695 C   0  0  0  0  0  0
  -28.0893  -23.5259   20.7371 C   0  0  0  0  0  0
  -28.9563  -22.5641   19.9222 C   0  0  0  0  0  0
  -30.5636  -20.4971   17.5741 C   0  0  0  0  0  0
  -29.1825  -18.5664   20.5359 N   0  0  0  0  0  0
  -28.7810  -21.1860   20.2203 N   0  0  0  0  0  0
  -29.7293  -16.0060   20.5440 N   0  0  0  0  0  0
  -29.7707  -22.9525   19.0861 O   0  0  0  0  0  0
  -27.3936  -22.8675   21.6811 O   0  0  0  0  0  0
  -30.7567  -17.9130   18.6294 S   0  0  0  0  0  0
  -31.4745  -12.6555   19.1595 H   0  0  0  0  0  0
  -30.4065  -11.5408   19.9664 H   0  0  0  0  0  0
  -29.8127  -11.7548   17.5229 H   0  0  0  0  0  0
  -29.6038  -13.4833   17.7220 H   0  0  0  0  0  0
  -27.9385  -11.2752   18.9548 H   0  0  0  0  0  0
  -27.3767  -12.4679   17.8041 H   0  0  0  0  0  0
  -27.6107  -14.2489   19.4355 H   0  0  0  0  0  0
  -28.7472  -12.1985   21.4018 H   0  0  0  0  0  0
  -28.4096  -13.8668   21.7890 H   0  0  0  0  0  0
  -25.2755   -9.5686   22.4706 H   0  0  0  0  0  0
  -23.9943   -7.4653   22.7447 H   0  0  0  0  0  0
  -21.0801   -8.8773   19.8938 H   0  0  0  0  0  0
  -22.3627  -10.9670   19.6097 H   0  0  0  0  0  0
  -21.1958   -7.6101   23.9740 H   0  0  0  0  0  0
  -21.1498   -6.0434   25.9080 H   0  0  0  0  0  0
  -22.0590   -2.7574   23.2807 H   0  0  0  0  0  0
  -22.4011  -11.9825   22.4761 H   0  0  0  0  0  0
  -21.1054  -13.1273   22.2736 H   0  0  0  0  0  0
  -24.6749  -15.8491   20.6713 H   0  0  0  0  0  0
  -26.3032  -15.6519   20.2682 H   0  0  0  0  0  0
  -26.7271  -32.5355   23.0958 H   0  0  0  0  0  0
  -25.0136  -33.9604   25.0351 H   0  0  0  0  0  0
  -22.7365  -31.2979   21.3916 H   0  0  0  0  0  0
  -23.3712  -35.9618   23.3358 H   0  0  0  0  0  0
  -24.3582  -36.8828   22.2036 H   0  0  0  0  0  0
  -23.7322  -37.6481   23.6649 H   0  0  0  0  0  0
  -26.1406  -31.4965   20.6127 H   0  0  0  0  0  0
  -26.8567  -30.7809   22.0231 H   0  0  0  0  0  0
  -28.1223  -28.8390   21.2330 H   0  0  0  0  0  0
  -25.9434  -25.8895   18.9596 H   0  0  0  0  0  0
  -23.9749  -27.3442   18.9275 H   0  0  0  0  0  0
  -23.7705  -30.5916   19.3947 H   0  0  0  0  0  0
  -22.7666  -29.2448   19.8510 H   0  0  0  0  0  0
  -25.1310  -36.1808   25.0780 H   0  0  0  0  0  0
  -20.9961  -28.3360   24.1348 H   0  0  0  0  0  0
  -20.5647  -26.2319   23.3601 H   0  0  0  0  0  0
  -21.6632  -26.7415   22.1241 H   0  0  0  0  0  0
  -19.6931  -25.6255   21.1254 H   0  0  0  0  0  0
  -19.6739  -27.3142   20.6674 H   0  0  0  0  0  0
  -17.4220  -26.6578   21.4004 H   0  0  0  0  0  0
  -18.0412  -26.0112   22.9065 H   0  0  0  0  0  0
  -19.7982  -30.7256   24.2175 H   0  0  0  0  0  0
  -17.5039  -31.6223   24.5224 H   0  0  0  0  0  0
  -15.5369  -30.2978   23.7621 H   0  0  0  0  0  0
  -15.8643  -28.0784   22.7084 H   0  0  0  0  0  0
  -24.5833  -30.7156   25.7625 H   0  0  0  0  0  0
  -24.8902  -32.2990   26.4647 H   0  0  0  0  0  0
  -25.7909  -30.8975   27.0180 H   0  0  0  0  0  0
  -26.3073  -29.6595   24.1250 H   0  0  0  0  0  0
  -27.4058  -29.7248   25.4809 H   0  0  0  0  0  0
  -27.8935  -30.4151   23.9549 H   0  0  0  0  0  0
  -27.2706  -33.3570   26.1970 H   0  0  0  0  0  0
  -28.3899  -32.6799   25.0258 H   0  0  0  0  0  0
  -28.0721  -31.8396   26.5363 H   0  0  0  0  0  0
  -28.2617  -38.0029   24.7395 H   0  0  0  0  0  0
  -28.1001  -36.2555   24.6445 H   0  0  0  0  0  0
  -27.2278  -37.1598   25.8892 H   0  0  0  0  0  0
  -20.9434  -29.8794   21.6800 H   0  0  0  0  0  0
  -26.0143  -38.2797   24.1319 H   0  0  0  0  0  0
  -27.1405  -25.2176   21.5376 H   0  0  0  0  0  0
  -29.7320  -21.1181   17.2430 H   0  0  0  0  0  0
  -30.8804  -19.9249   16.6974 H   0  0  0  0  0  0
  -31.4022  -21.1368   17.8487 H   0  0  0  0  0  0
  -28.0581  -21.1185   20.9241 H   0  0  0  0  0  0
  -28.8379  -15.7858   20.9556 H   0  0  0  0  0  0
  -26.9327  -23.5045   22.2079 H   0  0  0  0  0  0
  1 25  1  0  0  0
  1 30  2  0  0  0
  1 80  1  0  0  0
  2  3  1  0  0  0
  2 25  1  0  0  0
  2 84  1  0  0  0
  2 85  1  0  0  0
  3  4  1  0  0  0
  3 86  1  0  0  0
  3 87  1  0  0  0
  4  5  1  0  0  0
  4 88  1  0  0  0
  4 89  1  0  0  0
  5  6  1  0  0  0
  5 26  1  0  0  0
  5 90  1  0  0  0
  6 25  1  0  0  0
  6 91  1  0  0  0
  6 92  1  0  0  0
  7  8  2  0  0  0
  7 26  1  0  0  0
  7 29  1  0  0  0
  8  9  1  0  0  0
  8 22  1  0  0  0
  9 10  1  0  0  0
  9 27  2  0  0  0
 10 11  2  0  0  0
 10 15  1  0  0  0
 11 12  1  0  0  0
 11 93  1  0  0  0
 12 13  2  0  0  0
 12 94  1  0  0  0
 13 14  1  0  0  0
 13 31  1  0  0  0
 14 15  2  0  0  0
 14 95  1  0  0  0
 15 96  1  0  0  0
 16 17  2  0  0  0
 16 21  1  0  0  0
 16 31  1  0  0  0
 17 18  1  0  0  0
 17 97  1  0  0  0
 18 19  2  0  0  0
 18 98  1  0  0  0
 19 20  1  0  0  0
 19 24  1  0  0  0
 20 21  2  0  0  0
 20 99  1  0  0  0
 21 23  1  0  0  0
 22 28  1  0  0  0
 22 32  2  0  0  0
 26 27  1  0  0  0
 28100  1  0  0  0
 28101  1  0  0  0
 29102  1  0  0  0
 29103  1  0  0  0
 33 34  1  0  0  0
 33 66  1  0  0  0
 33 70  2  0  0  0
 34 36  1  0  0  0
 34 59  1  0  0  0
 34104  1  0  0  0
 35 44  2  0  0  0
 35 45  1  0  0  0
 35 68  1  0  0  0
 36 56  1  0  0  0
 36105  1  0  0  0
 37 39  1  0  0  0
 37 47  1  0  0  0
 37 66  1  0  0  0
 37106  1  0  0  0
 38 43  2  0  0  0
 38 46  1  0  0  0
 38 47  1  0  0  0
 39 64  1  0  0  0
 39 67  2  0  0  0
 40 52  1  0  0  0
 40 53  2  0  0  0
 40 58  1  0  0  0
 41107  1  0  0  0
 41108  1  0  0  0
 41109  1  0  0  0
 41 48  1  0  0  0
 42 43  1  0  0  0
 42 66  1  0  0  0
 42110  1  0  0  0
 42111  1  0  0  0
 43 44  1  0  0  0
 44112  1  0  0  0
 45 46  2  0  0  0
 45113  1  0  0  0
 46114  1  0  0  0
 47115  1  0  0  0
 47116  1  0  0  0
 48 56  1  0  0  0
 48 65  1  0  0  0
 48117  1  0  0  0
 49 50  1  0  0  0
 49 53  1  0  0  0
 49 64  1  0  0  0
 49118  1  0  0  0
 50 51  1  0  0  0
 50119  1  0  0  0
 50120  1  0  0  0
 51 52  1  0  0  0
 51121  1  0  0  0
 51122  1  0  0  0
 52123  1  0  0  0
 52124  1  0  0  0
 53 54  1  0  0  0
 54 55  2  0  0  0
 54125  1  0  0  0
 55 57  1  0  0  0
 55126  1  0  0  0
 56 69  2  0  0  0
 57 58  2  0  0  0
 57127  1  0  0  0
 58128  1  0  0  0
 59 60  1  0  0  0
 59 61  1  0  0  0
 59 62  1  0  0  0
 60129  1  0  0  0
 60130  1  0  0  0
 60131  1  0  0  0
 61132  1  0  0  0
 61133  1  0  0  0
 61134  1  0  0  0
 62135  1  0  0  0
 62136  1  0  0  0
 62137  1  0  0  0
 63 65  1  0  0  0
 63138  1  0  0  0
 63139  1  0  0  0
 63140  1  0  0  0
 64141  1  0  0  0
 65142  1  0  0  0
 68 74  1  0  0  0
 71 72  2  0  0  0
 71 77  1  0  0  0
 71 83  1  0  0  0
 72 78  1  0  0  0
 72 79  1  0  0  0
 73 78  2  0  0  0
 73 80  1  0  0  0
 73 83  1  0  0  0
 74 75  2  0  0  0
 74143  1  0  0  0
 75 76  1  0  0  0
 75 82  1  0  0  0
 76 79  1  0  0  0
 76 81  2  0  0  0
 77144  1  0  0  0
 77145  1  0  0  0
 77146  1  0  0  0
 79147  1  0  0  0
 80148  1  0  0  0
 82149  1  0  0  0
M  ISO  4   1 100  68 101  74 101  80 100
M  END
> <chiral flag>
0

> <version>
0

> <s_m_source_file>
/data/baiqing/PycharmProjects/Reinvent-master-3.2/result/LINK_invent/BTK/process_docking_weight1_custom_product_contain_oxygen_bond_distance_aromatic_linkinvent_7_9_3/rearranged_h_0179.sdf

> <i_m_source_file_index>
2

> <r_mmod_Potential_Energy-OPLS-2005>
271.281097412109

> <r_mmod_Stretch_Energy-OPLS-2005>
185.117279052734

> <r_mmod_Bend_Energy-OPLS-2005>
282.452087402344

> <r_mmod_Torsional_Energy-OPLS-2005>
223.095001220703

> <r_mmod_Improper_Torsional_Energy-OPLS-2005>
4.48778676986694

> <r_mmod_Van_der_Waal_Energy-OPLS-2005>
121.173538208008

> <r_mmod_Electrostatic_Energy-OPLS-2005>
-460.046905517578

> <r_mmod_Solvation_Energy-OPLS-2005>
-235.469924926758

> <b_mmod_Minimization_Converged-OPLS-2005>
0

> <r_mmod_RMS_Derivative-OPLS-2005>
6.2218451499939

$$$$
2
                    3D
 Structure written by MMmdl.
154162  0  0  1  0            999 V2000
  -30.6521  -14.5909   20.5044 C   0  0  0  0  0  0
  -30.4314  -12.3651   19.4386 C   0  0  0  0  0  0
  -29.5035  -12.5016   18.2127 C   0  0  0  0  0  0
  -28.0222  -12.3573   18.6191 C   0  0  0  0  0  0
  -27.6511  -13.2175   19.8583 C   0  0  2  0  0  0
  -28.6985  -13.0632   20.9844 C   0  0  0  0  0  0
  -25.2553  -13.8166   20.5686 C   0  0  0  0  0  0
  -24.1833  -13.0431   20.9199 C   0  0  0  0  0  0
  -24.6410  -11.6908   20.8732 C   0  0  0  0  0  0
  -23.9093  -10.4285   21.0409 C   0  0  0  0  0  0
  -24.3639   -9.4203   21.9186 C   0  0  0  0  0  0
  -23.6310   -8.2247   22.0750 C   0  0  0  0  0  0
  -22.4298   -8.0287   21.3540 C   0  0  0  0  0  0
  -21.9935   -9.0262   20.4643 C   0  0  0  0  0  0
  -22.7270  -10.2134   20.3055 C   0  0  0  0  0  0
  -21.6851   -6.0743   22.5282 C   0  0  0  0  0  0
  -21.4016   -6.5652   23.8221 C   0  0  0  0  0  0
  -21.3653   -5.6800   24.9179 C   0  0  0  0  0  0
  -21.6041   -4.3063   24.7226 C   0  0  0  0  0  0
  -21.8817   -3.8159   23.4352 C   0  0  0  0  0  0
  -21.9199   -4.6973   22.3409 C   0  0  0  0  0  0
  -22.7857  -13.5217   21.1872 C   0  0  0  0  0  0
  -22.1659   -4.2173   21.0978 F   0  0  0  0  0  0
  -21.5630   -3.4543   25.7726 F   0  0  0  0  0  0
  -30.0131  -13.3866   20.4115 N   0  0  0  0  0  0
  -26.2984  -12.9353   20.3300 N   0  0  0  0  0  0
  -25.9339  -11.6510   20.5753 N   0  0  0  0  0  0
  -22.0496  -12.8186   22.0409 N   0  0  0  0  0  0
  -25.4239  -15.1896   20.4103 N   0  0  0  0  0  0
  -31.8364  -14.7183   20.1733 O   0  0  0  0  0  0
  -21.6639   -6.8892   21.4253 O   0  0  0  0  0  0
  -22.3539  -14.5526   20.6726 O   0  0  0  0  0  0
  -24.6189  -31.8654   23.2082 C   0  0  0  0  0  0
  -25.9071  -32.4814   23.8380 C   0  0  1  0  0  0
  -27.2357  -27.3905   20.1192 C   0  0  0  0  0  0
  -25.5942  -33.8609   24.2318 N   0  0  0  0  0  0
  -23.4096  -30.4851   21.5508 C   0  0  2  0  0  0
  -24.8579  -28.9386   20.1254 C   0  0  0  0  0  0
  -22.7427  -29.4656   22.5026 C   0  0  0  0  0  0
  -18.0261  -28.1384   22.8496 C   0  0  0  0  0  0
  -24.1486  -36.7283   23.2643 C   0  0  0  0  0  0
  -25.9380  -30.8212   21.3631 C   0  0  0  0  0  0
  -26.0192  -29.4436   20.7254 C   0  0  0  0  0  0
  -27.2120  -28.6754   20.7226 C   0  0  0  0  0  0
  -26.0601  -26.9114   19.5103 C   0  0  0  0  0  0
  -24.8742  -27.6726   19.5154 C   0  0  0  0  0  0
  -23.6198  -29.8082   20.1688 C   0  0  0  0  0  0
  -25.4106  -36.3083   24.0338 C   0  0  1  0  0  0
  -20.5861  -28.3671   23.1313 C   0  0  2  0  0  0
  -20.6768  -26.9414   22.5408 C   0  0  0  0  0  0
  -19.5744  -26.6378   21.5215 C   0  0  0  0  0  0
  -18.1910  -26.7921   22.1620 C   0  0  0  0  0  0
  -19.1515  -28.8839   23.2905 C   0  0  0  0  0  0
  -18.9445  -30.1438   23.8925 C   0  0  0  0  0  0
  -17.6451  -30.6595   24.0556 C   0  0  0  0  0  0
  -25.9040  -34.9458   23.5106 C   0  0  0  0  0  0
  -16.5343  -29.9094   23.6334 C   0  0  0  0  0  0
  -16.7257  -28.6501   23.0376 C   0  0  0  0  0  0
  -26.4491  -31.6595   25.0718 C   0  0  0  0  0  0
  -25.3741  -31.3714   26.1459 C   0  0  0  0  0  0
  -27.0330  -30.3043   24.6081 C   0  0  0  0  0  0
  -27.6064  -32.4306   25.7478 C   0  0  0  0  0  0
  -27.5560  -37.1797   24.8457 C   0  0  0  0  0  0
  -21.4157  -29.3043   22.3734 N   0  0  0  0  0  0
  -26.4274  -37.3773   23.9410 N   0  0  0  0  0  0
  -24.6743  -31.0722   22.1003 N   0  0  0  0  0  0
  -23.4161  -28.8196   23.3091 O   0  0  0  0  0  0
  -28.3873  -26.6289   20.0240 O   0  0  0  0  0  0
  -26.5559  -34.8896   22.4648 O   0  0  0  0  0  0
  -23.5376  -32.1440   23.7456 O   0  0  0  0  0  0
  -30.4459  -19.5818   20.8477 C   0  0  0  0  0  0
  -31.4052  -18.8723   21.5578 C   0  0  0  0  0  0
  -30.1933  -17.0664   20.8375 C   0  0  0  0  0  0
  -30.4223  -21.0451   20.4499 C   0  0  0  0  0  0
  -28.2542  -24.1822   20.7279 C   0  0  0  0  0  0
  -28.6497  -25.6576   21.0666 C   0  0  0  0  0  0
  -29.2805  -23.2491   19.9994 C   0  0  2  0  0  0
  -29.1281  -23.3142   18.4609 C   0  0  0  0  0  0
  -31.2435  -17.4797   21.5539 N   0  0  0  0  0  0
  -32.5052  -19.3899   22.2487 N   0  0  0  0  0  0
  -29.8467  -15.6689   20.7157 N   0  0  0  0  0  0
  -29.3058  -21.8169   20.4660 N   0  0  0  0  0  0
  -31.4992  -21.5573   20.1396 O   0  0  0  0  0  0
  -27.1469  -23.7670   21.0885 O   0  0  0  0  0  0
  -30.1375  -22.6993   17.8429 F   0  0  0  0  0  0
  -29.1051  -24.5792   18.0381 F   0  0  0  0  0  0
  -27.9867  -22.7329   18.0862 F   0  0  0  0  0  0
  -29.2670  -18.4459   20.1758 S   0  0  0  0  0  0
  -31.4761  -12.4743   19.1414 H   0  0  0  0  0  0
  -30.3493  -11.3694   19.8763 H   0  0  0  0  0  0
  -29.7626  -11.7551   17.4602 H   0  0  0  0  0  0
  -29.6600  -13.4728   17.7428 H   0  0  0  0  0  0
  -27.8378  -11.3024   18.8296 H   0  0  0  0  0  0
  -27.3767  -12.6149   17.7789 H   0  0  0  0  0  0
  -27.6676  -14.2541   19.5229 H   0  0  0  0  0  0
  -28.7006  -12.0431   21.3684 H   0  0  0  0  0  0
  -28.4611  -13.7051   21.8346 H   0  0  0  0  0  0
  -25.2783   -9.5670   22.4761 H   0  0  0  0  0  0
  -24.0018   -7.4631   22.7465 H   0  0  0  0  0  0
  -21.0867   -8.8779   19.8941 H   0  0  0  0  0  0
  -22.3739  -10.9671   19.6156 H   0  0  0  0  0  0
  -21.2000   -7.6164   23.9734 H   0  0  0  0  0  0
  -21.1475   -6.0524   25.9077 H   0  0  0  0  0  0
  -22.0603   -2.7634   23.2838 H   0  0  0  0  0  0
  -22.4115  -11.9831   22.4755 H   0  0  0  0  0  0
  -21.1108  -13.1190   22.2614 H   0  0  0  0  0  0
  -24.6515  -15.8368   20.5262 H   0  0  0  0  0  0
  -26.2579  -15.6349   20.0521 H   0  0  0  0  0  0
  -26.7154  -32.5513   23.1152 H   0  0  0  0  0  0
  -25.0146  -33.9782   25.0505 H   0  0  0  0  0  0
  -22.7007  -31.3023   21.4029 H   0  0  0  0  0  0
  -23.3756  -35.9612   23.3284 H   0  0  0  0  0  0
  -24.3575  -36.8927   22.2063 H   0  0  0  0  0  0
  -23.7217  -37.6476   23.6661 H   0  0  0  0  0  0
  -26.0341  -31.5762   20.5826 H   0  0  0  0  0  0
  -26.8328  -30.8950   21.9704 H   0  0  0  0  0  0
  -28.1115  -29.0669   21.1757 H   0  0  0  0  0  0
  -26.0645  -25.9461   19.0229 H   0  0  0  0  0  0
  -23.9814  -27.2817   19.0453 H   0  0  0  0  0  0
  -23.7214  -30.5762   19.4013 H   0  0  0  0  0  0
  -22.7484  -29.2204   19.8780 H   0  0  0  0  0  0
  -25.1291  -36.1929   25.0831 H   0  0  0  0  0  0
  -20.9932  -28.3219   24.1442 H   0  0  0  0  0  0
  -20.5670  -26.2291   23.3612 H   0  0  0  0  0  0
  -21.6633  -26.7462   22.1188 H   0  0  0  0  0  0
  -19.6910  -25.6278   21.1260 H   0  0  0  0  0  0
  -19.6682  -27.3189   20.6740 H   0  0  0  0  0  0
  -17.4189  -26.6694   21.4004 H   0  0  0  0  0  0
  -18.0302  -26.0055   22.8999 H   0  0  0  0  0  0
  -19.7924  -30.7239   24.2326 H   0  0  0  0  0  0
  -17.5009  -31.6289   24.5129 H   0  0  0  0  0  0
  -15.5344  -30.3013   23.7635 H   0  0  0  0  0  0
  -15.8650  -28.0811   22.7130 H   0  0  0  0  0  0
  -24.5877  -30.7123   25.7750 H   0  0  0  0  0  0
  -24.8991  -32.2902   26.4912 H   0  0  0  0  0  0
  -25.8068  -30.8825   27.0199 H   0  0  0  0  0  0
  -26.2881  -29.6804   24.1121 H   0  0  0  0  0  0
  -27.4128  -29.7260   25.4509 H   0  0  0  0  0  0
  -27.8688  -30.4386   23.9205 H   0  0  0  0  0  0
  -27.2710  -33.3633   26.2010 H   0  0  0  0  0  0
  -28.3897  -32.6823   25.0313 H   0  0  0  0  0  0
  -28.0699  -31.8454   26.5434 H   0  0  0  0  0  0
  -28.2560  -38.0104   24.7509 H   0  0  0  0  0  0
  -28.1076  -36.2635   24.6281 H   0  0  0  0  0  0
  -27.2278  -37.1435   25.8859 H   0  0  0  0  0  0
  -20.9329  -29.8766   21.6945 H   0  0  0  0  0  0
  -26.0157  -38.2847   24.1436 H   0  0  0  0  0  0
  -29.7156  -25.6895   21.2924 H   0  0  0  0  0  0
  -28.1427  -25.9621   21.9827 H   0  0  0  0  0  0
  -30.2549  -23.6846   20.2203 H   0  0  0  0  0  0
  -32.8070  -20.3401   22.0535 H   0  0  0  0  0  0
  -33.2496  -18.7639   22.5392 H   0  0  0  0  0  0
  -28.8605  -15.4672   20.7141 H   0  0  0  0  0  0
  -28.4227  -21.4095   20.7404 H   0  0  0  0  0  0
  1 25  1  0  0  0
  1 30  2  0  0  0
  1 81  1  0  0  0
  2  3  1  0  0  0
  2 25  1  0  0  0
  2 89  1  0  0  0
  2 90  1  0  0  0
  3  4  1  0  0  0
  3 91  1  0  0  0
  3 92  1  0  0  0
  4  5  1  0  0  0
  4 93  1  0  0  0
  4 94  1  0  0  0
  5  6  1  0  0  0
  5 26  1  0  0  0
  5 95  1  0  0  0
  6 25  1  0  0  0
  6 96  1  0  0  0
  6 97  1  0  0  0
  7  8  2  0  0  0
  7 26  1  0  0  0
  7 29  1  0  0  0
  8  9  1  0  0  0
  8 22  1  0  0  0
  9 10  1  0  0  0
  9 27  2  0  0  0
 10 11  2  0  0  0
 10 15  1  0  0  0
 11 12  1  0  0  0
 11 98  1  0  0  0
 12 13  2  0  0  0
 12 99  1  0  0  0
 13 14  1  0  0  0
 13 31  1  0  0  0
 14 15  2  0  0  0
 14100  1  0  0  0
 15101  1  0  0  0
 16 17  2  0  0  0
 16 21  1  0  0  0
 16 31  1  0  0  0
 17 18  1  0  0  0
 17102  1  0  0  0
 18 19  2  0  0  0
 18103  1  0  0  0
 19 20  1  0  0  0
 19 24  1  0  0  0
 20 21  2  0  0  0
 20104  1  0  0  0
 21 23  1  0  0  0
 22 28  1  0  0  0
 22 32  2  0  0  0
 26 27  1  0  0  0
 28105  1  0  0  0
 28106  1  0  0  0
 29107  1  0  0  0
 29108  1  0  0  0
 33 34  1  0  0  0
 33 66  1  0  0  0
 33 70  2  0  0  0
 34 36  1  0  0  0
 34 59  1  0  0  0
 34109  1  0  0  0
 35 44  2  0  0  0
 35 45  1  0  0  0
 35 68  1  0  0  0
 36 56  1  0  0  0
 36110  1  0  0  0
 37 39  1  0  0  0
 37 47  1  0  0  0
 37 66  1  0  0  0
 37111  1  0  0  0
 38 43  2  0  0  0
 38 46  1  0  0  0
 38 47  1  0  0  0
 39 64  1  0  0  0
 39 67  2  0  0  0
 40 52  1  0  0  0
 40 53  2  0  0  0
 40 58  1  0  0  0
 41112  1  0  0  0
 41113  1  0  0  0
 41114  1  0  0  0
 41 48  1  0  0  0
 42 43  1  0  0  0
 42 66  1  0  0  0
 42115  1  0  0  0
 42116  1  0  0  0
 43 44  1  0  0  0
 44117  1  0  0  0
 45 46  2  0  0  0
 45118  1  0  0  0
 46119  1  0  0  0
 47120  1  0  0  0
 47121  1  0  0  0
 48 56  1  0  0  0
 48 65  1  0  0  0
 48122  1  0  0  0
 49 50  1  0  0  0
 49 53  1  0  0  0
 49 64  1  0  0  0
 49123  1  0  0  0
 50 51  1  0  0  0
 50124  1  0  0  0
 50125  1  0  0  0
 51 52  1  0  0  0
 51126  1  0  0  0
 51127  1  0  0  0
 52128  1  0  0  0
 52129  1  0  0  0
 53 54  1  0  0  0
 54 55  2  0  0  0
 54130  1  0  0  0
 55 57  1  0  0  0
 55131  1  0  0  0
 56 69  2  0  0  0
 57 58  2  0  0  0
 57132  1  0  0  0
 58133  1  0  0  0
 59 60  1  0  0  0
 59 61  1  0  0  0
 59 62  1  0  0  0
 60134  1  0  0  0
 60135  1  0  0  0
 60136  1  0  0  0
 61137  1  0  0  0
 61138  1  0  0  0
 61139  1  0  0  0
 62140  1  0  0  0
 62141  1  0  0  0
 62142  1  0  0  0
 63 65  1  0  0  0
 63143  1  0  0  0
 63144  1  0  0  0
 63145  1  0  0  0
 64146  1  0  0  0
 65147  1  0  0  0
 68 76  1  0  0  0
 71 72  2  0  0  0
 71 74  1  0  0  0
 71 88  1  0  0  0
 72 79  1  0  0  0
 72 80  1  0  0  0
 73 79  2  0  0  0
 73 81  1  0  0  0
 73 88  1  0  0  0
 74 82  1  0  0  0
 74 83  2  0  0  0
 75 76  1  0  0  0
 75 77  1  0  0  0
 75 84  2  0  0  0
 76148  1  0  0  0
 76149  1  0  0  0
 77 78  1  0  0  0
 77 82  1  0  0  0
 77150  1  0  0  0
 78 85  1  0  0  0
 78 86  1  0  0  0
 78 87  1  0  0  0
 80151  1  0  0  0
 80152  1  0  0  0
 81153  1  0  0  0
 82154  1  0  0  0
M  ISO  4   1 100  68 101  76 101  81 100
M  END
> <chiral flag>
0

> <version>
0

> <s_m_source_file>
/data/baiqing/PycharmProjects/Reinvent-master-3.2/result/LINK_invent/BTK/process_docking_weight1_custom_product_contain_oxygen_bond_distance_aromatic_linkinvent_7_9_3/rearranged_h_0179.sdf

> <i_m_source_file_index>
3

> <r_mmod_Potential_Energy-OPLS-2005>
-176.446136474609

> <r_mmod_Stretch_Energy-OPLS-2005>
53.8226127624512

> <r_mmod_Bend_Energy-OPLS-2005>
127.393798828125

> <r_mmod_Torsional_Energy-OPLS-2005>
277.12109375

> <r_mmod_Improper_Torsional_Energy-OPLS-2005>
10.0776195526123

> <r_mmod_Van_der_Waal_Energy-OPLS-2005>
119.554473876953

> <r_mmod_Electrostatic_Energy-OPLS-2005>
-536.341125488281

> <r_mmod_Solvation_Energy-OPLS-2005>
-256.054595947266

> <b_mmod_Minimization_Converged-OPLS-2005>
0

> <r_mmod_RMS_Derivative-OPLS-2005>
2.93704843521118

$$$$
3
                    3D
 Structure written by MMmdl.
154162  0  0  1  0            999 V2000
  -30.5428  -14.7507   20.5116 C   0  0  0  0  0  0
  -30.4461  -12.4674   19.4640 C   0  0  0  0  0  0
  -29.5120  -12.5380   18.2343 C   0  0  0  0  0  0
  -28.0399  -12.3465   18.6421 C   0  0  0  0  0  0
  -27.6486  -13.2182   19.8635 C   0  0  2  0  0  0
  -28.6913  -13.0920   20.9964 C   0  0  0  0  0  0
  -25.2555  -13.8170   20.5672 C   0  0  0  0  0  0
  -24.1821  -13.0436   20.9187 C   0  0  0  0  0  0
  -24.6387  -11.6909   20.8731 C   0  0  0  0  0  0
  -23.9071  -10.4299   21.0397 C   0  0  0  0  0  0
  -24.3618   -9.4228   21.9177 C   0  0  0  0  0  0
  -23.6298   -8.2255   22.0752 C   0  0  0  0  0  0
  -22.4278   -8.0284   21.3538 C   0  0  0  0  0  0
  -21.9916   -9.0269   20.4645 C   0  0  0  0  0  0
  -22.7241  -10.2156   20.3064 C   0  0  0  0  0  0
  -21.6872   -6.0758   22.5277 C   0  0  0  0  0  0
  -21.4017   -6.5662   23.8207 C   0  0  0  0  0  0
  -21.3657   -5.6812   24.9168 C   0  0  0  0  0  0
  -21.6034   -4.3068   24.7224 C   0  0  0  0  0  0
  -21.8821   -3.8168   23.4339 C   0  0  0  0  0  0
  -21.9191   -4.6984   22.3395 C   0  0  0  0  0  0
  -22.7857  -13.5242   21.1863 C   0  0  0  0  0  0
  -22.1656   -4.2174   21.0972 F   0  0  0  0  0  0
  -21.5610   -3.4544   25.7730 F   0  0  0  0  0  0
  -29.9945  -13.4860   20.4389 N   0  0  0  0  0  0
  -26.2972  -12.9339   20.3308 N   0  0  0  0  0  0
  -25.9319  -11.6503   20.5752 N   0  0  0  0  0  0
  -22.0510  -12.8213   22.0403 N   0  0  0  0  0  0
  -25.4290  -15.1896   20.4064 N   0  0  0  0  0  0
  -31.6948  -14.9527   20.1089 O   0  0  0  0  0  0
  -21.6635   -6.8896   21.4235 O   0  0  0  0  0  0
  -22.3531  -14.5565   20.6756 O   0  0  0  0  0  0
  -24.6328  -31.8514   23.1939 C   0  0  0  0  0  0
  -25.9136  -32.4754   23.8278 C   0  0  1  0  0  0
  -27.2203  -27.2446   20.1322 C   0  0  0  0  0  0
  -25.5903  -33.8560   24.2196 N   0  0  0  0  0  0
  -23.4283  -30.4731   21.5366 C   0  0  2  0  0  0
  -24.8707  -28.9092   20.1061 C   0  0  0  0  0  0
  -22.7533  -29.4583   22.4915 C   0  0  0  0  0  0
  -18.0329  -28.1409   22.8491 C   0  0  0  0  0  0
  -24.1489  -36.7286   23.2638 C   0  0  0  0  0  0
  -25.9732  -30.7601   21.3700 C   0  0  0  0  0  0
  -26.0401  -29.3790   20.7147 C   0  0  0  0  0  0
  -27.2101  -28.5584   20.7158 C   0  0  0  0  0  0
  -26.0321  -26.8432   19.4851 C   0  0  0  0  0  0
  -24.8707  -27.6493   19.4849 C   0  0  0  0  0  0
  -23.6460  -29.8024   20.1548 C   0  0  0  0  0  0
  -25.4116  -36.3061   24.0318 C   0  0  1  0  0  0
  -20.5931  -28.3682   23.1304 C   0  0  2  0  0  0
  -20.6803  -26.9427   22.5368 C   0  0  0  0  0  0
  -19.5795  -26.6451   21.5154 C   0  0  0  0  0  0
  -18.1978  -26.7996   22.1571 C   0  0  0  0  0  0
  -19.1578  -28.8863   23.2904 C   0  0  0  0  0  0
  -18.9480  -30.1475   23.8914 C   0  0  0  0  0  0
  -17.6457  -30.6569   24.0600 C   0  0  0  0  0  0
  -25.9069  -34.9437   23.5072 C   0  0  0  0  0  0
  -16.5359  -29.9055   23.6356 C   0  0  0  0  0  0
  -16.7310  -28.6505   23.0338 C   0  0  0  0  0  0
  -26.4485  -31.6605   25.0687 C   0  0  0  0  0  0
  -25.3711  -31.3696   26.1396 C   0  0  0  0  0  0
  -27.0301  -30.3032   24.6173 C   0  0  0  0  0  0
  -27.6070  -32.4313   25.7456 C   0  0  0  0  0  0
  -27.5578  -37.1799   24.8470 C   0  0  0  0  0  0
  -21.4233  -29.3030   22.3689 N   0  0  0  0  0  0
  -26.4292  -37.3753   23.9405 N   0  0  0  0  0  0
  -24.6980  -31.0477   22.0906 N   0  0  0  0  0  0
  -23.4237  -28.8156   23.3030 O   0  0  0  0  0  0
  -28.3404  -26.3864   20.2344 O   0  0  0  0  0  0
  -26.5662  -34.8932   22.4659 O   0  0  0  0  0  0
  -23.5478  -32.1292   23.7267 O   0  0  0  0  0  0
  -29.2914  -17.8618   22.1559 C   0  0  0  0  0  0
  -28.9641  -19.2729   22.0126 C   0  0  0  0  0  0
  -29.1040  -19.7738   20.7289 C   0  0  0  0  0  0
  -29.6437  -17.1586   21.0187 C   0  0  0  0  0  0
  -28.6664  -21.1327   20.0867 C   0  0  0  0  0  0
  -28.4110  -20.0628   23.1702 C   0  0  0  0  0  0
  -26.4675  -23.3707   20.4508 C   0  0  0  0  0  0
  -28.4218  -24.9438   19.7884 C   0  0  0  0  0  0
  -27.9586  -23.6680   20.6817 C   0  0  2  0  0  0
  -29.6855  -15.7500   20.9448 N   0  0  0  0  0  0
  -28.7647  -22.3486   20.7484 N   0  0  0  0  0  0
  -28.1574  -21.1001   18.9660 O   0  0  0  0  0  0
  -29.6236  -18.3782   19.7002 S   0  0  0  0  0  0
  -31.4809  -12.6298   19.1575 H   0  0  0  0  0  0
  -30.4133  -11.4714   19.9107 H   0  0  0  0  0  0
  -29.7977  -11.7856   17.4985 H   0  0  0  0  0  0
  -29.6269  -13.5069   17.7455 H   0  0  0  0  0  0
  -27.8882  -11.2920   18.8738 H   0  0  0  0  0  0
  -27.3826  -12.5660   17.7995 H   0  0  0  0  0  0
  -27.6583  -14.2524   19.5186 H   0  0  0  0  0  0
  -28.7330  -12.0671   21.3680 H   0  0  0  0  0  0
  -28.4171  -13.7068   21.8544 H   0  0  0  0  0  0
  -25.2763   -9.5719   22.4744 H   0  0  0  0  0  0
  -24.0028   -7.4667   22.7483 H   0  0  0  0  0  0
  -21.0847   -8.8792   19.8953 H   0  0  0  0  0  0
  -22.3685  -10.9699   19.6185 H   0  0  0  0  0  0
  -21.2002   -7.6174   23.9720 H   0  0  0  0  0  0
  -21.1473   -6.0532   25.9073 H   0  0  0  0  0  0
  -22.0596   -2.7634   23.2825 H   0  0  0  0  0  0
  -22.4117  -11.9856   22.4759 H   0  0  0  0  0  0
  -21.1161  -13.1265   22.2683 H   0  0  0  0  0  0
  -24.6623  -15.8466   20.5104 H   0  0  0  0  0  0
  -26.2803  -15.6242   20.0724 H   0  0  0  0  0  0
  -26.7240  -32.5400   23.1045 H   0  0  0  0  0  0
  -24.9990  -33.9710   25.0299 H   0  0  0  0  0  0
  -22.7214  -31.2925   21.3924 H   0  0  0  0  0  0
  -23.3758  -35.9620   23.3313 H   0  0  0  0  0  0
  -24.3563  -36.8902   22.2050 H   0  0  0  0  0  0
  -23.7257  -37.6501   23.6664 H   0  0  0  0  0  0
  -26.1143  -31.5147   20.5947 H   0  0  0  0  0  0
  -26.8562  -30.8070   21.9964 H   0  0  0  0  0  0
  -28.1034  -28.9138   21.2073 H   0  0  0  0  0  0
  -25.9742  -25.8818   19.0009 H   0  0  0  0  0  0
  -23.9724  -27.2838   19.0045 H   0  0  0  0  0  0
  -23.7788  -30.5780   19.3966 H   0  0  0  0  0  0
  -22.7589  -29.2410   19.8562 H   0  0  0  0  0  0
  -25.1314  -36.1883   25.0810 H   0  0  0  0  0  0
  -21.0039  -28.3211   24.1408 H   0  0  0  0  0  0
  -20.5737  -26.2225   23.3473 H   0  0  0  0  0  0
  -21.6656  -26.7491   22.1110 H   0  0  0  0  0  0
  -19.6911  -25.6379   21.1104 H   0  0  0  0  0  0
  -19.6751  -27.3303   20.6720 H   0  0  0  0  0  0
  -17.4269  -26.6819   21.3952 H   0  0  0  0  0  0
  -18.0363  -26.0096   22.8904 H   0  0  0  0  0  0
  -19.7922  -30.7328   24.2303 H   0  0  0  0  0  0
  -17.4989  -31.6250   24.5206 H   0  0  0  0  0  0
  -15.5354  -30.2949   23.7660 H   0  0  0  0  0  0
  -15.8746  -28.0852   22.6917 H   0  0  0  0  0  0
  -24.5961  -30.6974   25.7690 H   0  0  0  0  0  0
  -24.8800  -32.2811   26.4811 H   0  0  0  0  0  0
  -25.8018  -30.8883   27.0179 H   0  0  0  0  0  0
  -26.2827  -29.6816   24.1233 H   0  0  0  0  0  0
  -27.4001  -29.7289   25.4672 H   0  0  0  0  0  0
  -27.8712  -30.4328   23.9363 H   0  0  0  0  0  0
  -27.2758  -33.3652   26.2008 H   0  0  0  0  0  0
  -28.3893  -32.6801   25.0272 H   0  0  0  0  0  0
  -28.0739  -31.8433   26.5374 H   0  0  0  0  0  0
  -28.2608  -38.0080   24.7496 H   0  0  0  0  0  0
  -28.1057  -36.2617   24.6321 H   0  0  0  0  0  0
  -27.2302  -37.1481   25.8872 H   0  0  0  0  0  0
  -20.9413  -29.8700   21.6862 H   0  0  0  0  0  0
  -26.0174  -38.2832   24.1376 H   0  0  0  0  0  0
  -29.1621  -17.3799   23.1157 H   0  0  0  0  0  0
  -27.8421  -19.4273   23.8494 H   0  0  0  0  0  0
  -27.7193  -20.8398   22.8416 H   0  0  0  0  0  0
  -29.2014  -20.5313   23.7579 H   0  0  0  0  0  0
  -25.8510  -24.2479   20.6432 H   0  0  0  0  0  0
  -26.1103  -22.5794   21.1100 H   0  0  0  0  0  0
  -26.2816  -23.0618   19.4223 H   0  0  0  0  0  0
  -27.9932  -24.8576   18.7906 H   0  0  0  0  0  0
  -29.4864  -24.7889   19.6183 H   0  0  0  0  0  0
  -28.0256  -24.0238   21.7117 H   0  0  0  0  0  0
  -28.8629  -15.3241   21.3416 H   0  0  0  0  0  0
  -29.3524  -22.2962   21.5704 H   0  0  0  0  0  0
  1 25  1  0  0  0
  1 30  2  0  0  0
  1 80  1  0  0  0
  2  3  1  0  0  0
  2 25  1  0  0  0
  2 84  1  0  0  0
  2 85  1  0  0  0
  3  4  1  0  0  0
  3 86  1  0  0  0
  3 87  1  0  0  0
  4  5  1  0  0  0
  4 88  1  0  0  0
  4 89  1  0  0  0
  5  6  1  0  0  0
  5 26  1  0  0  0
  5 90  1  0  0  0
  6 25  1  0  0  0
  6 91  1  0  0  0
  6 92  1  0  0  0
  7  8  2  0  0  0
  7 26  1  0  0  0
  7 29  1  0  0  0
  8  9  1  0  0  0
  8 22  1  0  0  0
  9 10  1  0  0  0
  9 27  2  0  0  0
 10 11  2  0  0  0
 10 15  1  0  0  0
 11 12  1  0  0  0
 11 93  1  0  0  0
 12 13  2  0  0  0
 12 94  1  0  0  0
 13 14  1  0  0  0
 13 31  1  0  0  0
 14 15  2  0  0  0
 14 95  1  0  0  0
 15 96  1  0  0  0
 16 17  2  0  0  0
 16 21  1  0  0  0
 16 31  1  0  0  0
 17 18  1  0  0  0
 17 97  1  0  0  0
 18 19  2  0  0  0
 18 98  1  0  0  0
 19 20  1  0  0  0
 19 24  1  0  0  0
 20 21  2  0  0  0
 20 99  1  0  0  0
 21 23  1  0  0  0
 22 28  1  0  0  0
 22 32  2  0  0  0
 26 27  1  0  0  0
 28100  1  0  0  0
 28101  1  0  0  0
 29102  1  0  0  0
 29103  1  0  0  0
 33 34  1  0  0  0
 33 66  1  0  0  0
 33 70  2  0  0  0
 34 36  1  0  0  0
 34 59  1  0  0  0
 34104  1  0  0  0
 35 44  2  0  0  0
 35 45  1  0  0  0
 35 68  1  0  0  0
 36 56  1  0  0  0
 36105  1  0  0  0
 37 39  1  0  0  0
 37 47  1  0  0  0
 37 66  1  0  0  0
 37106  1  0  0  0
 38 43  2  0  0  0
 38 46  1  0  0  0
 38 47  1  0  0  0
 39 64  1  0  0  0
 39 67  2  0  0  0
 40 52  1  0  0  0
 40 53  2  0  0  0
 40 58  1  0  0  0
 41107  1  0  0  0
 41108  1  0  0  0
 41109  1  0  0  0
 41 48  1  0  0  0
 42 43  1  0  0  0
 42 66  1  0  0  0
 42110  1  0  0  0
 42111  1  0  0  0
 43 44  1  0  0  0
 44112  1  0  0  0
 45 46  2  0  0  0
 45113  1  0  0  0
 46114  1  0  0  0
 47115  1  0  0  0
 47116  1  0  0  0
 48 56  1  0  0  0
 48 65  1  0  0  0
 48117  1  0  0  0
 49 50  1  0  0  0
 49 53  1  0  0  0
 49 64  1  0  0  0
 49118  1  0  0  0
 50 51  1  0  0  0
 50119  1  0  0  0
 50120  1  0  0  0
 51 52  1  0  0  0
 51121  1  0  0  0
 51122  1  0  0  0
 52123  1  0  0  0
 52124  1  0  0  0
 53 54  1  0  0  0
 54 55  2  0  0  0
 54125  1  0  0  0
 55 57  1  0  0  0
 55126  1  0  0  0
 56 69  2  0  0  0
 57 58  2  0  0  0
 57127  1  0  0  0
 58128  1  0  0  0
 59 60  1  0  0  0
 59 61  1  0  0  0
 59 62  1  0  0  0
 60129  1  0  0  0
 60130  1  0  0  0
 60131  1  0  0  0
 61132  1  0  0  0
 61133  1  0  0  0
 61134  1  0  0  0
 62135  1  0  0  0
 62136  1  0  0  0
 62137  1  0  0  0
 63 65  1  0  0  0
 63138  1  0  0  0
 63139  1  0  0  0
 63140  1  0  0  0
 64141  1  0  0  0
 65142  1  0  0  0
 68 78  1  0  0  0
 71 72  1  0  0  0
 71 74  2  0  0  0
 71143  1  0  0  0
 72 73  2  0  0  0
 72 76  1  0  0  0
 73 75  1  0  0  0
 73 83  1  0  0  0
 74 80  1  0  0  0
 74 83  1  0  0  0
 75 81  1  0  0  0
 75 82  2  0  0  0
 76144  1  0  0  0
 76145  1  0  0  0
 76146  1  0  0  0
 77147  1  0  0  0
 77148  1  0  0  0
 77149  1  0  0  0
 77 79  1  0  0  0
 78 79  1  0  0  0
 78150  1  0  0  0
 78151  1  0  0  0
 79 81  1  0  0  0
 79152  1  0  0  0
 80153  1  0  0  0
 81154  1  0  0  0
M  ISO  4   1 100  68 101  78 101  80 100
M  END
> <chiral flag>
0

> <version>
0

> <s_m_source_file>
/data/baiqing/PycharmProjects/Reinvent-master-3.2/result/LINK_invent/BTK/process_docking_weight1_custom_product_contain_oxygen_bond_distance_aromatic_linkinvent_7_9_3/rearranged_h_0179.sdf

> <i_m_source_file_index>
4

> <r_mmod_Potential_Energy-OPLS-2005>
168.808029174805

> <r_mmod_Stretch_Energy-OPLS-2005>
125.082977294922

> <r_mmod_Bend_Energy-OPLS-2005>
227.494140625

> <r_mmod_Torsional_Energy-OPLS-2005>
246.309295654297

> <r_mmod_Improper_Torsional_Energy-OPLS-2005>
7.24283456802368

> <r_mmod_Van_der_Waal_Energy-OPLS-2005>
108.648941040039

> <r_mmod_Electrostatic_Energy-OPLS-2005>
-395.647003173828

> <r_mmod_Solvation_Energy-OPLS-2005>
-240.217590332031

> <b_mmod_Minimization_Converged-OPLS-2005>
0

> <r_mmod_RMS_Derivative-OPLS-2005>
4.35142850875854

$$$$
4
                    3D
 Structure written by MMmdl.
156164  0  0  1  0            999 V2000
  -30.6934  -14.4785   20.5743 C   0  0  0  0  0  0
  -30.4259  -12.3101   19.4171 C   0  0  0  0  0  0
  -29.4925  -12.5089   18.2049 C   0  0  0  0  0  0
  -28.0138  -12.3711   18.6201 C   0  0  0  0  0  0
  -27.6622  -13.2073   19.8806 C   0  0  2  0  0  0
  -28.7070  -12.9752   20.9954 C   0  0  0  0  0  0
  -25.2542  -13.8132   20.5637 C   0  0  0  0  0  0
  -24.1796  -13.0402   20.9096 C   0  0  0  0  0  0
  -24.6383  -11.6883   20.8702 C   0  0  0  0  0  0
  -23.9053  -10.4276   21.0386 C   0  0  0  0  0  0
  -24.3606   -9.4199   21.9171 C   0  0  0  0  0  0
  -23.6282   -8.2239   22.0756 C   0  0  0  0  0  0
  -22.4265   -8.0281   21.3547 C   0  0  0  0  0  0
  -21.9893   -9.0243   20.4645 C   0  0  0  0  0  0
  -22.7226  -10.2116   20.3039 C   0  0  0  0  0  0
  -21.6848   -6.0732   22.5276 C   0  0  0  0  0  0
  -21.4016   -6.5637   23.8209 C   0  0  0  0  0  0
  -21.3670   -5.6793   24.9174 C   0  0  0  0  0  0
  -21.6045   -4.3054   24.7224 C   0  0  0  0  0  0
  -21.8812   -3.8146   23.4342 C   0  0  0  0  0  0
  -21.9188   -4.6961   22.3396 C   0  0  0  0  0  0
  -22.7827  -13.5206   21.1795 C   0  0  0  0  0  0
  -22.1657   -4.2147   21.0975 F   0  0  0  0  0  0
  -21.5636   -3.4539   25.7736 F   0  0  0  0  0  0
  -30.0379  -13.2900   20.4438 N   0  0  0  0  0  0
  -26.3031  -12.9330   20.3426 N   0  0  0  0  0  0
  -25.9327  -11.6485   20.5799 N   0  0  0  0  0  0
  -22.0495  -12.8196   22.0378 N   0  0  0  0  0  0
  -25.4158  -15.1845   20.4096 N   0  0  0  0  0  0
  -31.8256  -14.6600   20.1123 O   0  0  0  0  0  0
  -21.6629   -6.8877   21.4244 O   0  0  0  0  0  0
  -22.3505  -14.5529   20.6681 O   0  0  0  0  0  0
  -24.6168  -31.8673   23.2116 C   0  0  0  0  0  0
  -25.9057  -32.4818   23.8408 C   0  0  1  0  0  0
  -27.2307  -27.4149   20.0873 C   0  0  0  0  0  0
  -25.5918  -33.8619   24.2337 N   0  0  0  0  0  0
  -23.4041  -30.4939   21.5526 C   0  0  2  0  0  0
  -24.8479  -28.9608   20.1168 C   0  0  0  0  0  0
  -22.7415  -29.4660   22.4985 C   0  0  0  0  0  0
  -18.0268  -28.1381   22.8494 C   0  0  0  0  0  0
  -24.1490  -36.7316   23.2634 C   0  0  0  0  0  0
  -25.9374  -30.8250   21.3697 C   0  0  0  0  0  0
  -26.0118  -29.4594   20.7143 C   0  0  0  0  0  0
  -27.2033  -28.6935   20.6991 C   0  0  0  0  0  0
  -26.0381  -26.9384   19.4881 C   0  0  0  0  0  0
  -24.8569  -27.6993   19.5038 C   0  0  0  0  0  0
  -23.6130  -29.8316   20.1662 C   0  0  0  0  0  0
  -25.4108  -36.3110   24.0338 C   0  0  1  0  0  0
  -20.5860  -28.3669   23.1316 C   0  0  2  0  0  0
  -20.6759  -26.9405   22.5410 C   0  0  0  0  0  0
  -19.5736  -26.6380   21.5214 C   0  0  0  0  0  0
  -18.1913  -26.7927   22.1622 C   0  0  0  0  0  0
  -19.1518  -28.8841   23.2901 C   0  0  0  0  0  0
  -18.9449  -30.1449   23.8904 C   0  0  0  0  0  0
  -17.6452  -30.6590   24.0561 C   0  0  0  0  0  0
  -25.9041  -34.9476   23.5131 C   0  0  0  0  0  0
  -16.5342  -29.9091   23.6326 C   0  0  0  0  0  0
  -16.7258  -28.6508   23.0349 C   0  0  0  0  0  0
  -26.4483  -31.6595   25.0735 C   0  0  0  0  0  0
  -25.3756  -31.3694   26.1487 C   0  0  0  0  0  0
  -27.0311  -30.3035   24.6114 C   0  0  0  0  0  0
  -27.6058  -32.4313   25.7499 C   0  0  0  0  0  0
  -27.5594  -37.1801   24.8453 C   0  0  0  0  0  0
  -21.4140  -29.3047   22.3736 N   0  0  0  0  0  0
  -26.4289  -37.3802   23.9425 N   0  0  0  0  0  0
  -24.6713  -31.0762   22.1025 N   0  0  0  0  0  0
  -23.4184  -28.8180   23.3012 O   0  0  0  0  0  0
  -28.4029  -26.6707   20.1001 O   0  0  0  0  0  0
  -26.5591  -34.8930   22.4686 O   0  0  0  0  0  0
  -23.5358  -32.1440   23.7501 O   0  0  0  0  0  0
  -28.8543  -18.9891   21.1284 C   0  0  0  0  0  0
  -28.8629  -17.5758   21.2151 C   0  0  0  0  0  0
  -30.0744  -19.6783   20.9561 C   0  0  0  0  0  0
  -30.0866  -16.8734   21.0678 C   0  0  0  0  0  0
  -31.2375  -18.8912   20.8537 C   0  0  0  0  0  0
  -29.7297  -23.4949   20.8609 C   0  0  0  0  0  0
  -29.3040  -22.0261   20.5342 C   0  0  0  0  0  0
  -29.6715  -24.5313   19.7244 C   0  0  0  0  0  0
  -28.3428  -25.3160   19.6076 C   0  0  0  0  0  0
  -31.2527  -17.5450   20.8987 N   0  0  0  0  0  0
  -27.6701  -16.8878   21.4742 N   0  0  0  0  0  0
  -32.4789  -19.4908   20.7066 N   0  0  0  0  0  0
  -30.1816  -21.1093   20.9880 N   0  0  0  0  0  0
  -29.9585  -15.4556   21.1356 N   0  0  0  0  0  0
  -30.1364  -23.8173   21.9838 O   0  0  0  0  0  0
  -28.2732  -21.7562   19.9099 O   0  0  0  0  0  0
  -31.4695  -12.4107   19.1132 H   0  0  0  0  0  0
  -30.3291  -11.2974   19.8112 H   0  0  0  0  0  0
  -29.7295  -11.7840   17.4251 H   0  0  0  0  0  0
  -29.6606  -13.4942   17.7667 H   0  0  0  0  0  0
  -27.8243  -11.3148   18.8147 H   0  0  0  0  0  0
  -27.3612  -12.6484   17.7912 H   0  0  0  0  0  0
  -27.7053  -14.2573   19.5906 H   0  0  0  0  0  0
  -28.6854  -11.9336   21.3200 H   0  0  0  0  0  0
  -28.4675  -13.5555   21.8872 H   0  0  0  0  0  0
  -25.2757   -9.5678   22.4734 H   0  0  0  0  0  0
  -23.9988   -7.4636   22.7483 H   0  0  0  0  0  0
  -21.0821   -8.8762   19.8954 H   0  0  0  0  0  0
  -22.3691  -10.9647   19.6133 H   0  0  0  0  0  0
  -21.2011   -7.6145   23.9709 H   0  0  0  0  0  0
  -21.1509   -6.0528   25.9078 H   0  0  0  0  0  0
  -22.0582   -2.7607   23.2841 H   0  0  0  0  0  0
  -22.4143  -11.9862   22.4741 H   0  0  0  0  0  0
  -21.1118  -13.1215   22.2617 H   0  0  0  0  0  0
  -24.6523  -15.8249   20.5920 H   0  0  0  0  0  0
  -26.3210  -15.6543   20.3997 H   0  0  0  0  0  0
  -26.7121  -32.5521   23.1164 H   0  0  0  0  0  0
  -25.0088  -33.9785   25.0497 H   0  0  0  0  0  0
  -22.6933  -31.3117   21.4155 H   0  0  0  0  0  0
  -23.3769  -35.9629   23.3253 H   0  0  0  0  0  0
  -24.3597  -36.8978   22.2058 H   0  0  0  0  0  0
  -23.7220  -37.6498   23.6678 H   0  0  0  0  0  0
  -26.0552  -31.5909   20.6022 H   0  0  0  0  0  0
  -26.8238  -30.8744   21.9901 H   0  0  0  0  0  0
  -28.1003  -29.0751   21.1671 H   0  0  0  0  0  0
  -25.9838  -25.9765   19.0011 H   0  0  0  0  0  0
  -23.9608  -27.3081   19.0416 H   0  0  0  0  0  0
  -23.7288  -30.6096   19.4111 H   0  0  0  0  0  0
  -22.7349  -29.2575   19.8644 H   0  0  0  0  0  0
  -25.1275  -36.1970   25.0828 H   0  0  0  0  0  0
  -20.9947  -28.3232   24.1440 H   0  0  0  0  0  0
  -20.5676  -26.2272   23.3597 H   0  0  0  0  0  0
  -21.6631  -26.7451   22.1203 H   0  0  0  0  0  0
  -19.6895  -25.6293   21.1241 H   0  0  0  0  0  0
  -19.6675  -27.3193   20.6750 H   0  0  0  0  0  0
  -17.4183  -26.6690   21.4019 H   0  0  0  0  0  0
  -18.0300  -26.0062   22.9010 H   0  0  0  0  0  0
  -19.7923  -30.7265   24.2276 H   0  0  0  0  0  0
  -17.5008  -31.6276   24.5156 H   0  0  0  0  0  0
  -15.5344  -30.3001   23.7645 H   0  0  0  0  0  0
  -15.8658  -28.0838   22.7056 H   0  0  0  0  0  0
  -24.5919  -30.7049   25.7829 H   0  0  0  0  0  0
  -24.8961  -32.2843   26.4974 H   0  0  0  0  0  0
  -25.8123  -30.8836   27.0222 H   0  0  0  0  0  0
  -26.2849  -29.6792   24.1180 H   0  0  0  0  0  0
  -27.4089  -29.7274   25.4571 H   0  0  0  0  0  0
  -27.8688  -30.4347   23.9258 H   0  0  0  0  0  0
  -27.2686  -33.3621   26.2076 H   0  0  0  0  0  0
  -28.3879  -32.6855   25.0332 H   0  0  0  0  0  0
  -28.0710  -31.8428   26.5419 H   0  0  0  0  0  0
  -28.2559  -38.0151   24.7584 H   0  0  0  0  0  0
  -28.1145  -36.2686   24.6172 H   0  0  0  0  0  0
  -27.2321  -37.1325   25.8855 H   0  0  0  0  0  0
  -20.9291  -29.8818   21.7009 H   0  0  0  0  0  0
  -26.0173  -38.2869   24.1467 H   0  0  0  0  0  0
  -27.9282  -19.5310   21.2490 H   0  0  0  0  0  0
  -29.8311  -23.9836   18.7956 H   0  0  0  0  0  0
  -30.5130  -25.2170   19.8136 H   0  0  0  0  0  0
  -27.5484  -24.7674   20.1177 H   0  0  0  0  0  0
  -28.0791  -25.3456   18.5492 H   0  0  0  0  0  0
  -26.8665  -17.4867   21.6420 H   0  0  0  0  0  0
  -27.7175  -16.2042   22.2227 H   0  0  0  0  0  0
  -32.4946  -20.3996   20.2631 H   0  0  0  0  0  0
  -33.2307  -18.8883   20.3971 H   0  0  0  0  0  0
  -31.0296  -21.4854   21.3931 H   0  0  0  0  0  0
  -29.0301  -15.1713   21.3993 H   0  0  0  0  0  0
  1 25  1  0  0  0
  1 30  2  0  0  0
  1 84  1  0  0  0
  2  3  1  0  0  0
  2 25  1  0  0  0
  2 87  1  0  0  0
  2 88  1  0  0  0
  3  4  1  0  0  0
  3 89  1  0  0  0
  3 90  1  0  0  0
  4  5  1  0  0  0
  4 91  1  0  0  0
  4 92  1  0  0  0
  5  6  1  0  0  0
  5 26  1  0  0  0
  5 93  1  0  0  0
  6 25  1  0  0  0
  6 94  1  0  0  0
  6 95  1  0  0  0
  7  8  2  0  0  0
  7 26  1  0  0  0
  7 29  1  0  0  0
  8  9  1  0  0  0
  8 22  1  0  0  0
  9 10  1  0  0  0
  9 27  2  0  0  0
 10 11  2  0  0  0
 10 15  1  0  0  0
 11 12  1  0  0  0
 11 96  1  0  0  0
 12 13  2  0  0  0
 12 97  1  0  0  0
 13 14  1  0  0  0
 13 31  1  0  0  0
 14 15  2  0  0  0
 14 98  1  0  0  0
 15 99  1  0  0  0
 16 17  2  0  0  0
 16 21  1  0  0  0
 16 31  1  0  0  0
 17 18  1  0  0  0
 17100  1  0  0  0
 18 19  2  0  0  0
 18101  1  0  0  0
 19 20  1  0  0  0
 19 24  1  0  0  0
 20 21  2  0  0  0
 20102  1  0  0  0
 21 23  1  0  0  0
 22 28  1  0  0  0
 22 32  2  0  0  0
 26 27  1  0  0  0
 28103  1  0  0  0
 28104  1  0  0  0
 29105  1  0  0  0
 29106  1  0  0  0
 33 34  1  0  0  0
 33 66  1  0  0  0
 33 70  2  0  0  0
 34 36  1  0  0  0
 34 59  1  0  0  0
 34107  1  0  0  0
 35 44  2  0  0  0
 35 45  1  0  0  0
 35 68  1  0  0  0
 36 56  1  0  0  0
 36108  1  0  0  0
 37 39  1  0  0  0
 37 47  1  0  0  0
 37 66  1  0  0  0
 37109  1  0  0  0
 38 43  2  0  0  0
 38 46  1  0  0  0
 38 47  1  0  0  0
 39 64  1  0  0  0
 39 67  2  0  0  0
 40 52  1  0  0  0
 40 53  2  0  0  0
 40 58  1  0  0  0
 41110  1  0  0  0
 41111  1  0  0  0
 41112  1  0  0  0
 41 48  1  0  0  0
 42 43  1  0  0  0
 42 66  1  0  0  0
 42113  1  0  0  0
 42114  1  0  0  0
 43 44  1  0  0  0
 44115  1  0  0  0
 45 46  2  0  0  0
 45116  1  0  0  0
 46117  1  0  0  0
 47118  1  0  0  0
 47119  1  0  0  0
 48 56  1  0  0  0
 48 65  1  0  0  0
 48120  1  0  0  0
 49 50  1  0  0  0
 49 53  1  0  0  0
 49 64  1  0  0  0
 49121  1  0  0  0
 50 51  1  0  0  0
 50122  1  0  0  0
 50123  1  0  0  0
 51 52  1  0  0  0
 51124  1  0  0  0
 51125  1  0  0  0
 52126  1  0  0  0
 52127  1  0  0  0
 53 54  1  0  0  0
 54 55  2  0  0  0
 54128  1  0  0  0
 55 57  1  0  0  0
 55129  1  0  0  0
 56 69  2  0  0  0
 57 58  2  0  0  0
 57130  1  0  0  0
 58131  1  0  0  0
 59 60  1  0  0  0
 59 61  1  0  0  0
 59 62  1  0  0  0
 60132  1  0  0  0
 60133  1  0  0  0
 60134  1  0  0  0
 61135  1  0  0  0
 61136  1  0  0  0
 61137  1  0  0  0
 62138  1  0  0  0
 62139  1  0  0  0
 62140  1  0  0  0
 63 65  1  0  0  0
 63141  1  0  0  0
 63142  1  0  0  0
 63143  1  0  0  0
 64144  1  0  0  0
 65145  1  0  0  0
 68 79  1  0  0  0
 71 72  2  0  0  0
 71 73  1  0  0  0
 71146  1  0  0  0
 72 74  1  0  0  0
 72 81  1  0  0  0
 73 75  2  0  0  0
 73 83  1  0  0  0
 74 80  2  0  0  0
 74 84  1  0  0  0
 75 80  1  0  0  0
 75 82  1  0  0  0
 76 77  1  0  0  0
 76 78  1  0  0  0
 76 85  2  0  0  0
 77 83  1  0  0  0
 77 86  2  0  0  0
 78 79  1  0  0  0
 78147  1  0  0  0
 78148  1  0  0  0
 79149  1  0  0  0
 79150  1  0  0  0
 81151  1  0  0  0
 81152  1  0  0  0
 82153  1  0  0  0
 82154  1  0  0  0
 83155  1  0  0  0
 84156  1  0  0  0
M  ISO  4   1 100  68 101  79 101  84 100
M  END
> <chiral flag>
0

> <version>
0

> <s_m_source_file>
/data/baiqing/PycharmProjects/Reinvent-master-3.2/result/LINK_invent/BTK/process_docking_weight1_custom_product_contain_oxygen_bond_distance_aromatic_linkinvent_7_9_3/rearranged_h_0179.sdf

> <i_m_source_file_index>
5

> <r_mmod_Potential_Energy-OPLS-2005>
-373.902679443359

> <r_mmod_Stretch_Energy-OPLS-2005>
40.9987602233887

> <r_mmod_Bend_Energy-OPLS-2005>
110.656295776367

> <r_mmod_Torsional_Energy-OPLS-2005>
240.398742675781

> <r_mmod_Improper_Torsional_Energy-OPLS-2005>
14.4851169586182

> <r_mmod_Van_der_Waal_Energy-OPLS-2005>
167.80403137207

> <r_mmod_Electrostatic_Energy-OPLS-2005>
-694.492919921875

> <r_mmod_Solvation_Energy-OPLS-2005>
-267.799102783203

> <b_mmod_Minimization_Converged-OPLS-2005>
0

> <r_mmod_RMS_Derivative-OPLS-2005>
0.934937477111816

$$$$
5
                    3D
 Structure written by MMmdl.
150158  0  0  1  0            999 V2000
  -30.7015  -14.4552   20.5993 C   0  0  0  0  0  0
  -30.4262  -12.3017   19.4234 C   0  0  0  0  0  0
  -29.4994  -12.5213   18.2094 C   0  0  0  0  0  0
  -28.0221  -12.3626   18.6194 C   0  0  0  0  0  0
  -27.6669  -13.1985   19.8779 C   0  0  2  0  0  0
  -28.7052  -12.9652   21.0009 C   0  0  0  0  0  0
  -25.2623  -13.8128   20.5648 C   0  0  0  0  0  0
  -24.1859  -13.0429   20.9151 C   0  0  0  0  0  0
  -24.6397  -11.6893   20.8722 C   0  0  0  0  0  0
  -23.9056  -10.4296   21.0401 C   0  0  0  0  0  0
  -24.3609   -9.4224   21.9190 C   0  0  0  0  0  0
  -23.6298   -8.2253   22.0758 C   0  0  0  0  0  0
  -22.4284   -8.0286   21.3538 C   0  0  0  0  0  0
  -21.9915   -9.0243   20.4633 C   0  0  0  0  0  0
  -22.7233  -10.2128   20.3042 C   0  0  0  0  0  0
  -21.6852   -6.0747   22.5283 C   0  0  0  0  0  0
  -21.3999   -6.5647   23.8215 C   0  0  0  0  0  0
  -21.3650   -5.6797   24.9178 C   0  0  0  0  0  0
  -21.6048   -4.3062   24.7228 C   0  0  0  0  0  0
  -21.8823   -3.8154   23.4352 C   0  0  0  0  0  0
  -21.9197   -4.6974   22.3410 C   0  0  0  0  0  0
  -22.7891  -13.5251   21.1836 C   0  0  0  0  0  0
  -22.1670   -4.2167   21.0987 F   0  0  0  0  0  0
  -21.5634   -3.4546   25.7741 F   0  0  0  0  0  0
  -30.0439  -13.2701   20.4621 N   0  0  0  0  0  0
  -26.3048  -12.9280   20.3345 N   0  0  0  0  0  0
  -25.9327  -11.6454   20.5753 N   0  0  0  0  0  0
  -22.0515  -12.8230   22.0367 N   0  0  0  0  0  0
  -25.4348  -15.1839   20.4031 N   0  0  0  0  0  0
  -31.8022  -14.6749   20.0815 O   0  0  0  0  0  0
  -21.6639   -6.8887   21.4244 O   0  0  0  0  0  0
  -22.3593  -14.5580   20.6724 O   0  0  0  0  0  0
  -24.6142  -31.8675   23.2150 C   0  0  0  0  0  0
  -25.9044  -32.4812   23.8442 C   0  0  1  0  0  0
  -27.2298  -27.4456   20.0906 C   0  0  0  0  0  0
  -25.5920  -33.8616   24.2355 N   0  0  0  0  0  0
  -23.4009  -30.4898   21.5552 C   0  0  2  0  0  0
  -24.8471  -28.9611   20.1124 C   0  0  0  0  0  0
  -22.7408  -29.4648   22.5033 C   0  0  0  0  0  0
  -18.0261  -28.1360   22.8508 C   0  0  0  0  0  0
  -24.1488  -36.7292   23.2657 C   0  0  0  0  0  0
  -25.9295  -30.8336   21.3676 C   0  0  0  0  0  0
  -26.0068  -29.4719   20.7124 C   0  0  0  0  0  0
  -27.2034  -28.7192   20.7024 C   0  0  0  0  0  0
  -26.0608  -26.9489   19.4815 C   0  0  0  0  0  0
  -24.8682  -27.6983   19.4945 C   0  0  0  0  0  0
  -23.6060  -29.8241   20.1689 C   0  0  0  0  0  0
  -25.4123  -36.3107   24.0349 C   0  0  1  0  0  0
  -20.5857  -28.3644   23.1325 C   0  0  2  0  0  0
  -20.6750  -26.9378   22.5420 C   0  0  0  0  0  0
  -19.5726  -26.6373   21.5211 C   0  0  0  0  0  0
  -18.1896  -26.7918   22.1607 C   0  0  0  0  0  0
  -19.1509  -28.8823   23.2912 C   0  0  0  0  0  0
  -18.9441  -30.1427   23.8925 C   0  0  0  0  0  0
  -17.6446  -30.6583   24.0564 C   0  0  0  0  0  0
  -25.9037  -34.9465   23.5142 C   0  0  0  0  0  0
  -16.5342  -29.9081   23.6345 C   0  0  0  0  0  0
  -16.7247  -28.6489   23.0388 C   0  0  0  0  0  0
  -26.4486  -31.6594   25.0759 C   0  0  0  0  0  0
  -25.3741  -31.3569   26.1471 C   0  0  0  0  0  0
  -27.0387  -30.3088   24.6098 C   0  0  0  0  0  0
  -27.6068  -32.4327   25.7506 C   0  0  0  0  0  0
  -27.5566  -37.1798   24.8481 C   0  0  0  0  0  0
  -21.4139  -29.3018   22.3755 N   0  0  0  0  0  0
  -26.4293  -37.3794   23.9411 N   0  0  0  0  0  0
  -24.6656  -31.0769   22.1045 N   0  0  0  0  0  0
  -23.4186  -28.8224   23.3093 O   0  0  0  0  0  0
  -28.3511  -26.6514   20.1126 O   0  0  0  0  0  0
  -26.5604  -34.8922   22.4707 O   0  0  0  0  0  0
  -23.5346  -32.1431   23.7553 O   0  0  0  0  0  0
  -30.4355  -18.9161   20.5035 C   0  0  0  0  0  0
  -29.0987  -18.9716   20.1683 C   0  0  0  0  0  0
  -29.8813  -16.7414   20.8998 C   0  0  0  0  0  0
  -28.4845  -25.9097   21.2609 C   0  0  0  0  0  0
  -28.8430  -21.5085   19.5529 C   0  0  0  0  0  0
  -28.7369  -24.5829   21.3437 C   0  0  0  0  0  0
  -28.9487  -23.7313   20.1666 C   0  0  0  0  0  0
  -28.2536  -20.1019   19.6248 C   0  0  0  0  0  0
  -30.8705  -17.6445   20.9216 N   0  0  0  0  0  0
  -28.6099  -22.4020   20.4376 N   0  0  0  0  0  0
  -30.0297  -15.3878   21.2928 N   0  0  0  0  0  0
  -29.3610  -24.1717   19.0883 O   0  0  0  0  0  0
  -28.7863  -24.0192   22.5641 O   0  0  0  0  0  0
  -28.3335  -17.4164   20.4155 S   0  0  0  0  0  0
  -31.4735  -12.3977   19.1315 H   0  0  0  0  0  0
  -30.3180  -11.2850   19.8040 H   0  0  0  0  0  0
  -29.7471  -11.8227   17.4096 H   0  0  0  0  0  0
  -29.6599  -13.5201   17.8007 H   0  0  0  0  0  0
  -27.8440  -11.3048   18.8168 H   0  0  0  0  0  0
  -27.3689  -12.6299   17.7874 H   0  0  0  0  0  0
  -27.7167  -14.2469   19.5824 H   0  0  0  0  0  0
  -28.6773  -11.9258   21.3312 H   0  0  0  0  0  0
  -28.4515  -13.5460   21.8881 H   0  0  0  0  0  0
  -25.2746   -9.5721   22.4775 H   0  0  0  0  0  0
  -24.0009   -7.4656   22.7489 H   0  0  0  0  0  0
  -21.0850   -8.8746   19.8944 H   0  0  0  0  0  0
  -22.3688  -10.9658   19.6150 H   0  0  0  0  0  0
  -21.1960   -7.6149   23.9723 H   0  0  0  0  0  0
  -21.1470   -6.0526   25.9082 H   0  0  0  0  0  0
  -22.0606   -2.7620   23.2844 H   0  0  0  0  0  0
  -22.4094  -11.9847   22.4700 H   0  0  0  0  0  0
  -21.1141  -13.1274   22.2590 H   0  0  0  0  0  0
  -24.6601  -15.8330   20.4827 H   0  0  0  0  0  0
  -26.2812  -15.6194   20.0613 H   0  0  0  0  0  0
  -26.7118  -32.5517   23.1210 H   0  0  0  0  0  0
  -25.0129  -33.9808   25.0539 H   0  0  0  0  0  0
  -22.6907  -31.3084   21.4204 H   0  0  0  0  0  0
  -23.3767  -35.9601   23.3339 H   0  0  0  0  0  0
  -24.3571  -36.8902   22.2063 H   0  0  0  0  0  0
  -23.7230  -37.6492   23.6678 H   0  0  0  0  0  0
  -26.0475  -31.6025   20.6025 H   0  0  0  0  0  0
  -26.8153  -30.8795   21.9889 H   0  0  0  0  0  0
  -28.0968  -29.1008   21.1757 H   0  0  0  0  0  0
  -26.0722  -25.9754   19.0121 H   0  0  0  0  0  0
  -23.9755  -27.3006   19.0312 H   0  0  0  0  0  0
  -23.7076  -30.6016   19.4101 H   0  0  0  0  0  0
  -22.7276  -29.2416   19.8802 H   0  0  0  0  0  0
  -25.1297  -36.1959   25.0842 H   0  0  0  0  0  0
  -20.9924  -28.3173   24.1451 H   0  0  0  0  0  0
  -20.5636  -26.2246   23.3601 H   0  0  0  0  0  0
  -21.6620  -26.7413   22.1198 H   0  0  0  0  0  0
  -19.6896  -25.6289   21.1214 H   0  0  0  0  0  0
  -19.6672  -27.3208   20.6756 H   0  0  0  0  0  0
  -17.4176  -26.6724   21.3984 H   0  0  0  0  0  0
  -18.0270  -26.0018   22.8949 H   0  0  0  0  0  0
  -19.7922  -30.7238   24.2305 H   0  0  0  0  0  0
  -17.5003  -31.6264   24.5151 H   0  0  0  0  0  0
  -15.5352  -30.2991   23.7662 H   0  0  0  0  0  0
  -15.8637  -28.0798   22.7139 H   0  0  0  0  0  0
  -24.6064  -30.6763   25.7759 H   0  0  0  0  0  0
  -24.8747  -32.2630   26.4908 H   0  0  0  0  0  0
  -25.8120  -30.8778   27.0237 H   0  0  0  0  0  0
  -26.2925  -29.6745   24.1298 H   0  0  0  0  0  0
  -27.4386  -29.7411   25.4509 H   0  0  0  0  0  0
  -27.8639  -30.4504   23.9118 H   0  0  0  0  0  0
  -27.2738  -33.3663   26.2055 H   0  0  0  0  0  0
  -28.3881  -32.6819   25.0306 H   0  0  0  0  0  0
  -28.0737  -31.8458   26.5424 H   0  0  0  0  0  0
  -28.2588  -38.0086   24.7551 H   0  0  0  0  0  0
  -28.1061  -36.2623   24.6306 H   0  0  0  0  0  0
  -27.2272  -37.1435   25.8880 H   0  0  0  0  0  0
  -20.9320  -29.8686   21.6913 H   0  0  0  0  0  0
  -26.0171  -38.2861   24.1441 H   0  0  0  0  0  0
  -31.1564  -19.7218   20.4634 H   0  0  0  0  0  0
  -28.3354  -26.5219   22.1404 H   0  0  0  0  0  0
  -29.4287  -21.6940   18.6471 H   0  0  0  0  0  0
  -27.3237  -20.1541   20.1922 H   0  0  0  0  0  0
  -27.9477  -19.8395   18.6121 H   0  0  0  0  0  0
  -29.2076  -15.0003   21.7264 H   0  0  0  0  0  0
  -28.6220  -24.6990   23.2045 H   0  0  0  0  0  0
  1 25  1  0  0  0
  1 30  2  0  0  0
  1 81  1  0  0  0
  2  3  1  0  0  0
  2 25  1  0  0  0
  2 85  1  0  0  0
  2 86  1  0  0  0
  3  4  1  0  0  0
  3 87  1  0  0  0
  3 88  1  0  0  0
  4  5  1  0  0  0
  4 89  1  0  0  0
  4 90  1  0  0  0
  5  6  1  0  0  0
  5 26  1  0  0  0
  5 91  1  0  0  0
  6 25  1  0  0  0
  6 92  1  0  0  0
  6 93  1  0  0  0
  7  8  2  0  0  0
  7 26  1  0  0  0
  7 29  1  0  0  0
  8  9  1  0  0  0
  8 22  1  0  0  0
  9 10  1  0  0  0
  9 27  2  0  0  0
 10 11  2  0  0  0
 10 15  1  0  0  0
 11 12  1  0  0  0
 11 94  1  0  0  0
 12 13  2  0  0  0
 12 95  1  0  0  0
 13 14  1  0  0  0
 13 31  1  0  0  0
 14 15  2  0  0  0
 14 96  1  0  0  0
 15 97  1  0  0  0
 16 17  2  0  0  0
 16 21  1  0  0  0
 16 31  1  0  0  0
 17 18  1  0  0  0
 17 98  1  0  0  0
 18 19  2  0  0  0
 18 99  1  0  0  0
 19 20  1  0  0  0
 19 24  1  0  0  0
 20 21  2  0  0  0
 20100  1  0  0  0
 21 23  1  0  0  0
 22 28  1  0  0  0
 22 32  2  0  0  0
 26 27  1  0  0  0
 28101  1  0  0  0
 28102  1  0  0  0
 29103  1  0  0  0
 29104  1  0  0  0
 33 34  1  0  0  0
 33 66  1  0  0  0
 33 70  2  0  0  0
 34 36  1  0  0  0
 34 59  1  0  0  0
 34105  1  0  0  0
 35 44  2  0  0  0
 35 45  1  0  0  0
 35 68  1  0  0  0
 36 56  1  0  0  0
 36106  1  0  0  0
 37 39  1  0  0  0
 37 47  1  0  0  0
 37 66  1  0  0  0
 37107  1  0  0  0
 38 43  2  0  0  0
 38 46  1  0  0  0
 38 47  1  0  0  0
 39 64  1  0  0  0
 39 67  2  0  0  0
 40 52  1  0  0  0
 40 53  2  0  0  0
 40 58  1  0  0  0
 41108  1  0  0  0
 41109  1  0  0  0
 41110  1  0  0  0
 41 48  1  0  0  0
 42 43  1  0  0  0
 42 66  1  0  0  0
 42111  1  0  0  0
 42112  1  0  0  0
 43 44  1  0  0  0
 44113  1  0  0  0
 45 46  2  0  0  0
 45114  1  0  0  0
 46115  1  0  0  0
 47116  1  0  0  0
 47117  1  0  0  0
 48 56  1  0  0  0
 48 65  1  0  0  0
 48118  1  0  0  0
 49 50  1  0  0  0
 49 53  1  0  0  0
 49 64  1  0  0  0
 49119  1  0  0  0
 50 51  1  0  0  0
 50120  1  0  0  0
 50121  1  0  0  0
 51 52  1  0  0  0
 51122  1  0  0  0
 51123  1  0  0  0
 52124  1  0  0  0
 52125  1  0  0  0
 53 54  1  0  0  0
 54 55  2  0  0  0
 54126  1  0  0  0
 55 57  1  0  0  0
 55127  1  0  0  0
 56 69  2  0  0  0
 57 58  2  0  0  0
 57128  1  0  0  0
 58129  1  0  0  0
 59 60  1  0  0  0
 59 61  1  0  0  0
 59 62  1  0  0  0
 60130  1  0  0  0
 60131  1  0  0  0
 60132  1  0  0  0
 61133  1  0  0  0
 61134  1  0  0  0
 61135  1  0  0  0
 62136  1  0  0  0
 62137  1  0  0  0
 62138  1  0  0  0
 63 65  1  0  0  0
 63139  1  0  0  0
 63140  1  0  0  0
 63141  1  0  0  0
 64142  1  0  0  0
 65143  1  0  0  0
 68 74  1  0  0  0
 71 72  2  0  0  0
 71 79  1  0  0  0
 71144  1  0  0  0
 72 78  1  0  0  0
 72 84  1  0  0  0
 73 79  2  0  0  0
 73 81  1  0  0  0
 73 84  1  0  0  0
 74 76  2  0  0  0
 74145  1  0  0  0
 75 78  1  0  0  0
 75 80  2  0  0  0
 75146  1  0  0  0
 76 77  1  0  0  0
 76 83  1  0  0  0
 77 80  1  0  0  0
 77 82  2  0  0  0
 78147  1  0  0  0
 78148  1  0  0  0
 81149  1  0  0  0
 83150  1  0  0  0
M  ISO  4   1 100  68 101  74 101  81 100
M  END
> <chiral flag>
0

> <version>
0

> <s_m_source_file>
/data/baiqing/PycharmProjects/Reinvent-master-3.2/result/LINK_invent/BTK/process_docking_weight1_custom_product_contain_oxygen_bond_distance_aromatic_linkinvent_7_9_3/rearranged_h_0179.sdf

> <i_m_source_file_index>
6

> <r_mmod_Potential_Energy-OPLS-2005>
-114.387748718262

> <r_mmod_Stretch_Energy-OPLS-2005>
35.7773933410645

> <r_mmod_Bend_Energy-OPLS-2005>
108.692199707031

> <r_mmod_Torsional_Energy-OPLS-2005>
237.310852050781

> <r_mmod_Improper_Torsional_Energy-OPLS-2005>
5.99931907653809

> <r_mmod_Van_der_Waal_Energy-OPLS-2005>
133.904724121094

> <r_mmod_Electrostatic_Energy-OPLS-2005>
-403.432586669922

> <r_mmod_Solvation_Energy-OPLS-2005>
-243.99577331543

> <b_mmod_Minimization_Converged-OPLS-2005>
0

> <r_mmod_RMS_Derivative-OPLS-2005>
2.80135059356689

$$$$
6
                    3D
 Structure written by MMmdl.
162170  0  0  1  0            999 V2000
  -30.6700  -14.6030   20.4771 C   0  0  0  0  0  0
  -30.4168  -12.3648   19.4530 C   0  0  0  0  0  0
  -29.4990  -12.5008   18.2201 C   0  0  0  0  0  0
  -28.0194  -12.3564   18.6296 C   0  0  0  0  0  0
  -27.6473  -13.2247   19.8620 C   0  0  2  0  0  0
  -28.6943  -13.0947   20.9911 C   0  0  0  0  0  0
  -25.2532  -13.8189   20.5737 C   0  0  0  0  0  0
  -24.1812  -13.0442   20.9219 C   0  0  0  0  0  0
  -24.6389  -11.6914   20.8738 C   0  0  0  0  0  0
  -23.9077  -10.4295   21.0391 C   0  0  0  0  0  0
  -24.3619   -9.4206   21.9170 C   0  0  0  0  0  0
  -23.6299   -8.2234   22.0740 C   0  0  0  0  0  0
  -22.4282   -8.0269   21.3537 C   0  0  0  0  0  0
  -21.9912   -9.0243   20.4635 C   0  0  0  0  0  0
  -22.7238  -10.2134   20.3049 C   0  0  0  0  0  0
  -21.6850   -6.0736   22.5278 C   0  0  0  0  0  0
  -21.4016   -6.5640   23.8209 C   0  0  0  0  0  0
  -21.3662   -5.6795   24.9169 C   0  0  0  0  0  0
  -21.6036   -4.3055   24.7224 C   0  0  0  0  0  0
  -21.8820   -3.8145   23.4344 C   0  0  0  0  0  0
  -21.9199   -4.6965   22.3401 C   0  0  0  0  0  0
  -22.7834  -13.5221   21.1890 C   0  0  0  0  0  0
  -22.1658   -4.2155   21.0977 F   0  0  0  0  0  0
  -21.5634   -3.4542   25.7737 F   0  0  0  0  0  0
  -30.0086  -13.4072   20.4155 N   0  0  0  0  0  0
  -26.2956  -12.9382   20.3347 N   0  0  0  0  0  0
  -25.9323  -11.6537   20.5764 N   0  0  0  0  0  0
  -22.0491  -12.8196   22.0423 N   0  0  0  0  0  0
  -25.4251  -15.1914   20.4175 N   0  0  0  0  0  0
  -31.8561  -14.6650   20.1431 O   0  0  0  0  0  0
  -21.6641   -6.8875   21.4238 O   0  0  0  0  0  0
  -22.3509  -14.5524   20.6732 O   0  0  0  0  0  0
  -24.6190  -31.8635   23.2083 C   0  0  0  0  0  0
  -25.9062  -32.4807   23.8405 C   0  0  1  0  0  0
  -27.2382  -27.3781   20.1292 C   0  0  0  0  0  0
  -25.5918  -33.8606   24.2337 N   0  0  0  0  0  0
  -23.4124  -30.4830   21.5496 C   0  0  2  0  0  0
  -24.8657  -28.9373   20.1228 C   0  0  0  0  0  0
  -22.7429  -29.4644   22.5003 C   0  0  0  0  0  0
  -18.0261  -28.1388   22.8482 C   0  0  0  0  0  0
  -24.1478  -36.7280   23.2642 C   0  0  0  0  0  0
  -25.9449  -30.8097   21.3744 C   0  0  0  0  0  0
  -26.0243  -29.4352   20.7325 C   0  0  0  0  0  0
  -27.2152  -28.6606   20.7380 C   0  0  0  0  0  0
  -26.0657  -26.9077   19.5064 C   0  0  0  0  0  0
  -24.8822  -27.6726   19.5077 C   0  0  0  0  0  0
  -23.6277  -29.8080   20.1674 C   0  0  0  0  0  0
  -25.4100  -36.3096   24.0349 C   0  0  1  0  0  0
  -20.5861  -28.3681   23.1295 C   0  0  2  0  0  0
  -20.6768  -26.9411   22.5418 C   0  0  0  0  0  0
  -19.5757  -26.6383   21.5208 C   0  0  0  0  0  0
  -18.1924  -26.7936   22.1600 C   0  0  0  0  0  0
  -19.1514  -28.8847   23.2892 C   0  0  0  0  0  0
  -18.9450  -30.1446   23.8913 C   0  0  0  0  0  0
  -17.6460  -30.6602   24.0549 C   0  0  0  0  0  0
  -25.9028  -34.9463   23.5133 C   0  0  0  0  0  0
  -16.5346  -29.9101   23.6339 C   0  0  0  0  0  0
  -16.7249  -28.6511   23.0370 C   0  0  0  0  0  0
  -26.4477  -31.6601   25.0749 C   0  0  0  0  0  0
  -25.3733  -31.3733   26.1497 C   0  0  0  0  0  0
  -27.0316  -30.3041   24.6160 C   0  0  0  0  0  0
  -27.6075  -32.4312   25.7480 C   0  0  0  0  0  0
  -27.5581  -37.1776   24.8456 C   0  0  0  0  0  0
  -21.4158  -29.3034   22.3698 N   0  0  0  0  0  0
  -26.4273  -37.3796   23.9435 N   0  0  0  0  0  0
  -24.6779  -31.0678   22.1026 N   0  0  0  0  0  0
  -23.4154  -28.8194   23.3096 O   0  0  0  0  0  0
  -28.3688  -26.5792   20.0643 O   0  0  0  0  0  0
  -26.5580  -34.8908   22.4684 O   0  0  0  0  0  0
  -23.5361  -32.1409   23.7430 O   0  0  0  0  0  0
  -30.5270  -19.6455   20.1202 C   0  0  0  0  0  0
  -31.6753  -18.8804   19.9715 C   0  0  0  0  0  0
  -30.2831  -17.1296   20.5228 C   0  0  0  0  0  0
  -30.3270  -21.1210   19.7965 C   0  0  0  0  0  0
  -28.5104  -24.2223   21.1079 C   0  0  0  0  0  0
  -34.0805  -18.8389   19.3151 C   0  0  0  0  0  0
  -36.0101  -18.5336   17.6862 C   0  0  0  0  0  0
  -28.6769  -25.7812   21.2319 C   0  0  0  0  0  0
  -35.0735  -19.5378   18.3807 C   0  0  0  0  0  0
  -29.1901  -23.3733   19.9760 C   0  0  2  0  0  0
  -28.4994  -23.5600   18.5983 C   0  0  0  0  0  0
  -31.5283  -17.5059   20.2269 N   0  0  0  0  0  0
  -32.8881  -19.4360   19.4758 N   0  0  0  0  0  0
  -29.9230  -15.7288   20.7139 N   0  0  0  0  0  0
  -29.3502  -21.9068   20.3158 N   0  0  0  0  0  0
  -31.1573  -21.6365   19.0455 O   0  0  0  0  0  0
  -27.8628  -23.6524   21.9952 O   0  0  0  0  0  0
  -34.4213  -17.8041   19.8962 O   0  0  0  0  0  0
  -28.9716  -22.7324   17.6655 F   0  0  0  0  0  0
  -28.6759  -24.7979   18.1439 F   0  0  0  0  0  0
  -27.1883  -23.3456   18.7131 F   0  0  0  0  0  0
  -29.1935  -18.5619   20.5836 S   0  0  0  0  0  0
  -31.4638  -12.4502   19.1563 H   0  0  0  0  0  0
  -30.3168  -11.3737   19.8995 H   0  0  0  0  0  0
  -29.7569  -11.7478   17.4740 H   0  0  0  0  0  0
  -29.6572  -13.4686   17.7432 H   0  0  0  0  0  0
  -27.8431  -11.3036   18.8509 H   0  0  0  0  0  0
  -27.3682  -12.6007   17.7895 H   0  0  0  0  0  0
  -27.6581  -14.2595   19.5181 H   0  0  0  0  0  0
  -28.6960  -12.0831   21.3986 H   0  0  0  0  0  0
  -28.4557  -13.7564   21.8257 H   0  0  0  0  0  0
  -25.2765   -9.5686   22.4745 H   0  0  0  0  0  0
  -24.0015   -7.4624   22.7446 H   0  0  0  0  0  0
  -21.0849   -8.8743   19.8938 H   0  0  0  0  0  0
  -22.3674  -10.9668   19.6154 H   0  0  0  0  0  0
  -21.1998   -7.6151   23.9716 H   0  0  0  0  0  0
  -21.1486   -6.0524   25.9076 H   0  0  0  0  0  0
  -22.0604   -2.7612   23.2839 H   0  0  0  0  0  0
  -22.4131  -11.9852   22.4801 H   0  0  0  0  0  0
  -21.1090  -13.1176   22.2633 H   0  0  0  0  0  0
  -24.6604  -15.8483   20.5346 H   0  0  0  0  0  0
  -26.2701  -15.6301   20.0748 H   0  0  0  0  0  0
  -26.7141  -32.5502   23.1166 H   0  0  0  0  0  0
  -25.0125  -33.9786   25.0526 H   0  0  0  0  0  0
  -22.7044  -31.3013   21.4016 H   0  0  0  0  0  0
  -23.3772  -35.9579   23.3271 H   0  0  0  0  0  0
  -24.3590  -36.8929   22.2067 H   0  0  0  0  0  0
  -23.7175  -37.6455   23.6656 H   0  0  0  0  0  0
  -26.0578  -31.5656   20.5964 H   0  0  0  0  0  0
  -26.8320  -30.8713   21.9936 H   0  0  0  0  0  0
  -28.1092  -29.0452   21.2093 H   0  0  0  0  0  0
  -26.0669  -25.9408   19.0246 H   0  0  0  0  0  0
  -23.9933  -27.2841   19.0315 H   0  0  0  0  0  0
  -23.7353  -30.5779   19.4026 H   0  0  0  0  0  0
  -22.7549  -29.2241   19.8711 H   0  0  0  0  0  0
  -25.1276  -36.1948   25.0843 H   0  0  0  0  0  0
  -20.9927  -28.3243   24.1426 H   0  0  0  0  0  0
  -20.5668  -26.2302   23.3631 H   0  0  0  0  0  0
  -21.6641  -26.7461   22.1202 H   0  0  0  0  0  0
  -19.6936  -25.6286   21.1262 H   0  0  0  0  0  0
  -19.6713  -27.3182   20.6734 H   0  0  0  0  0  0
  -17.4206  -26.6682   21.3987 H   0  0  0  0  0  0
  -18.0309  -26.0072   22.8987 H   0  0  0  0  0  0
  -19.7934  -30.7238   24.2314 H   0  0  0  0  0  0
  -17.5023  -31.6295   24.5132 H   0  0  0  0  0  0
  -15.5353  -30.3016   23.7679 H   0  0  0  0  0  0
  -15.8638  -28.0824   22.7130 H   0  0  0  0  0  0
  -24.5897  -30.7094   25.7820 H   0  0  0  0  0  0
  -24.8938  -32.2908   26.4927 H   0  0  0  0  0  0
  -25.8071  -30.8893   27.0261 H   0  0  0  0  0  0
  -26.2881  -29.6803   24.1189 H   0  0  0  0  0  0
  -27.4065  -29.7274   25.4628 H   0  0  0  0  0  0
  -27.8718  -30.4375   23.9343 H   0  0  0  0  0  0
  -27.2741  -33.3638   26.2036 H   0  0  0  0  0  0
  -28.3874  -32.6831   25.0278 H   0  0  0  0  0  0
  -28.0746  -31.8446   26.5403 H   0  0  0  0  0  0
  -28.2556  -38.0114   24.7567 H   0  0  0  0  0  0
  -28.1121  -36.2655   24.6180 H   0  0  0  0  0  0
  -27.2313  -37.1289   25.8860 H   0  0  0  0  0  0
  -20.9354  -29.8714   21.6863 H   0  0  0  0  0  0
  -26.0159  -38.2859   24.1506 H   0  0  0  0  0  0
  -36.6420  -19.0232   16.9454 H   0  0  0  0  0  0
  -35.4411  -17.7572   17.1718 H   0  0  0  0  0  0
  -36.6629  -18.0416   18.4088 H   0  0  0  0  0  0
  -29.7122  -25.9769   21.5069 H   0  0  0  0  0  0
  -28.0758  -26.1322   22.0709 H   0  0  0  0  0  0
  -35.6533  -20.2692   18.9446 H   0  0  0  0  0  0
  -34.5247  -20.0935   17.6180 H   0  0  0  0  0  0
  -30.1956  -23.7827   19.8756 H   0  0  0  0  0  0
  -32.7934  -20.3644   19.0829 H   0  0  0  0  0  0
  -28.9572  -15.5613   20.9432 H   0  0  0  0  0  0
  -28.6869  -21.5135   20.9686 H   0  0  0  0  0  0
  1 25  1  0  0  0
  1 30  2  0  0  0
  1 84  1  0  0  0
  2  3  1  0  0  0
  2 25  1  0  0  0
  2 93  1  0  0  0
  2 94  1  0  0  0
  3  4  1  0  0  0
  3 95  1  0  0  0
  3 96  1  0  0  0
  4  5  1  0  0  0
  4 97  1  0  0  0
  4 98  1  0  0  0
  5  6  1  0  0  0
  5 26  1  0  0  0
  5 99  1  0  0  0
  6 25  1  0  0  0
  6100  1  0  0  0
  6101  1  0  0  0
  7  8  2  0  0  0
  7 26  1  0  0  0
  7 29  1  0  0  0
  8  9  1  0  0  0
  8 22  1  0  0  0
  9 10  1  0  0  0
  9 27  2  0  0  0
 10 11  2  0  0  0
 10 15  1  0  0  0
 11 12  1  0  0  0
 11102  1  0  0  0
 12 13  2  0  0  0
 12103  1  0  0  0
 13 14  1  0  0  0
 13 31  1  0  0  0
 14 15  2  0  0  0
 14104  1  0  0  0
 15105  1  0  0  0
 16 17  2  0  0  0
 16 21  1  0  0  0
 16 31  1  0  0  0
 17 18  1  0  0  0
 17106  1  0  0  0
 18 19  2  0  0  0
 18107  1  0  0  0
 19 20  1  0  0  0
 19 24  1  0  0  0
 20 21  2  0  0  0
 20108  1  0  0  0
 21 23  1  0  0  0
 22 28  1  0  0  0
 22 32  2  0  0  0
 26 27  1  0  0  0
 28109  1  0  0  0
 28110  1  0  0  0
 29111  1  0  0  0
 29112  1  0  0  0
 33 34  1  0  0  0
 33 66  1  0  0  0
 33 70  2  0  0  0
 34 36  1  0  0  0
 34 59  1  0  0  0
 34113  1  0  0  0
 35 44  2  0  0  0
 35 45  1  0  0  0
 35 68  1  0  0  0
 36 56  1  0  0  0
 36114  1  0  0  0
 37 39  1  0  0  0
 37 47  1  0  0  0
 37 66  1  0  0  0
 37115  1  0  0  0
 38 43  2  0  0  0
 38 46  1  0  0  0
 38 47  1  0  0  0
 39 64  1  0  0  0
 39 67  2  0  0  0
 40 52  1  0  0  0
 40 53  2  0  0  0
 40 58  1  0  0  0
 41116  1  0  0  0
 41117  1  0  0  0
 41118  1  0  0  0
 41 48  1  0  0  0
 42 43  1  0  0  0
 42 66  1  0  0  0
 42119  1  0  0  0
 42120  1  0  0  0
 43 44  1  0  0  0
 44121  1  0  0  0
 45 46  2  0  0  0
 45122  1  0  0  0
 46123  1  0  0  0
 47124  1  0  0  0
 47125  1  0  0  0
 48 56  1  0  0  0
 48 65  1  0  0  0
 48126  1  0  0  0
 49 50  1  0  0  0
 49 53  1  0  0  0
 49 64  1  0  0  0
 49127  1  0  0  0
 50 51  1  0  0  0
 50128  1  0  0  0
 50129  1  0  0  0
 51 52  1  0  0  0
 51130  1  0  0  0
 51131  1  0  0  0
 52132  1  0  0  0
 52133  1  0  0  0
 53 54  1  0  0  0
 54 55  2  0  0  0
 54134  1  0  0  0
 55 57  1  0  0  0
 55135  1  0  0  0
 56 69  2  0  0  0
 57 58  2  0  0  0
 57136  1  0  0  0
 58137  1  0  0  0
 59 60  1  0  0  0
 59 61  1  0  0  0
 59 62  1  0  0  0
 60138  1  0  0  0
 60139  1  0  0  0
 60140  1  0  0  0
 61141  1  0  0  0
 61142  1  0  0  0
 61143  1  0  0  0
 62144  1  0  0  0
 62145  1  0  0  0
 62146  1  0  0  0
 63 65  1  0  0  0
 63147  1  0  0  0
 63148  1  0  0  0
 63149  1  0  0  0
 64150  1  0  0  0
 65151  1  0  0  0
 68 78  1  0  0  0
 71 72  2  0  0  0
 71 74  1  0  0  0
 71 92  1  0  0  0
 72 82  1  0  0  0
 72 83  1  0  0  0
 73 82  2  0  0  0
 73 84  1  0  0  0
 73 92  1  0  0  0
 74 85  1  0  0  0
 74 86  2  0  0  0
 75 78  1  0  0  0
 75 80  1  0  0  0
 75 87  2  0  0  0
 76 79  1  0  0  0
 76 83  1  0  0  0
 76 88  2  0  0  0
 77 79  1  0  0  0
 77152  1  0  0  0
 77153  1  0  0  0
 77154  1  0  0  0
 78155  1  0  0  0
 78156  1  0  0  0
 79157  1  0  0  0
 79158  1  0  0  0
 80 81  1  0  0  0
 80 85  1  0  0  0
 80159  1  0  0  0
 81 89  1  0  0  0
 81 90  1  0  0  0
 81 91  1  0  0  0
 83160  1  0  0  0
 84161  1  0  0  0
 85162  1  0  0  0
M  ISO  4   1 100  68 101  78 101  84 100
M  END
> <chiral flag>
0

> <version>
0

> <s_m_source_file>
/data/baiqing/PycharmProjects/Reinvent-master-3.2/result/LINK_invent/BTK/process_docking_weight1_custom_product_contain_oxygen_bond_distance_aromatic_linkinvent_7_9_3/rearranged_h_0179.sdf

> <i_m_source_file_index>
7

> <r_mmod_Potential_Energy-OPLS-2005>
-191.419998168945

> <r_mmod_Stretch_Energy-OPLS-2005>
64.2071990966797

> <r_mmod_Bend_Energy-OPLS-2005>
146.016540527344

> <r_mmod_Torsional_Energy-OPLS-2005>
259.055480957031

> <r_mmod_Improper_Torsional_Energy-OPLS-2005>
6.54245853424072

> <r_mmod_Van_der_Waal_Energy-OPLS-2005>
137.178741455078

> <r_mmod_Electrostatic_Energy-OPLS-2005>
-556.503112792969

> <r_mmod_Solvation_Energy-OPLS-2005>
-281.252258300781

> <b_mmod_Minimization_Converged-OPLS-2005>
0

> <r_mmod_RMS_Derivative-OPLS-2005>
2.87423253059387

$$$$
7
                    3D
 Structure written by MMmdl.
149157  0  0  1  0            999 V2000
  -30.6812  -14.5201   20.5387 C   0  0  0  0  0  0
  -30.4248  -12.3245   19.4391 C   0  0  0  0  0  0
  -29.5010  -12.5094   18.2154 C   0  0  0  0  0  0
  -28.0188  -12.3719   18.6193 C   0  0  0  0  0  0
  -27.6601  -13.2122   19.8747 C   0  0  2  0  0  0
  -28.7006  -12.9943   20.9945 C   0  0  0  0  0  0
  -25.2586  -13.8175   20.5696 C   0  0  0  0  0  0
  -24.1837  -13.0441   20.9176 C   0  0  0  0  0  0
  -24.6399  -11.6909   20.8734 C   0  0  0  0  0  0
  -23.9070  -10.4291   21.0403 C   0  0  0  0  0  0
  -24.3622   -9.4207   21.9182 C   0  0  0  0  0  0
  -23.6295   -8.2243   22.0754 C   0  0  0  0  0  0
  -22.4278   -8.0281   21.3545 C   0  0  0  0  0  0
  -21.9912   -9.0256   20.4649 C   0  0  0  0  0  0
  -22.7244  -10.2132   20.3055 C   0  0  0  0  0  0
  -21.6853   -6.0741   22.5284 C   0  0  0  0  0  0
  -21.4014   -6.5644   23.8220 C   0  0  0  0  0  0
  -21.3659   -5.6795   24.9181 C   0  0  0  0  0  0
  -21.6042   -4.3059   24.7230 C   0  0  0  0  0  0
  -21.8820   -3.8151   23.4352 C   0  0  0  0  0  0
  -21.9190   -4.6967   22.3407 C   0  0  0  0  0  0
  -22.7858  -13.5235   21.1845 C   0  0  0  0  0  0
  -22.1658   -4.2152   21.0983 F   0  0  0  0  0  0
  -21.5629   -3.4542   25.7743 F   0  0  0  0  0  0
  -30.0284  -13.3221   20.4505 N   0  0  0  0  0  0
  -26.3022  -12.9352   20.3370 N   0  0  0  0  0  0
  -25.9328  -11.6504   20.5761 N   0  0  0  0  0  0
  -22.0498  -12.8228   22.0405 N   0  0  0  0  0  0
  -25.4317  -15.1896   20.4138 N   0  0  0  0  0  0
  -31.8254  -14.6557   20.0943 O   0  0  0  0  0  0
  -21.6639   -6.8881   21.4244 O   0  0  0  0  0  0
  -22.3537  -14.5540   20.6698 O   0  0  0  0  0  0
  -24.6173  -31.8665   23.2088 C   0  0  0  0  0  0
  -25.9058  -32.4813   23.8395 C   0  0  1  0  0  0
  -27.2323  -27.4162   20.1039 C   0  0  0  0  0  0
  -25.5909  -33.8612   24.2321 N   0  0  0  0  0  0
  -23.4068  -30.4898   21.5490 C   0  0  2  0  0  0
  -24.8556  -28.9552   20.1127 C   0  0  0  0  0  0
  -22.7430  -29.4653   22.4977 C   0  0  0  0  0  0
  -18.0275  -28.1377   22.8492 C   0  0  0  0  0  0
  -24.1485  -36.7311   23.2629 C   0  0  0  0  0  0
  -25.9384  -30.8268   21.3658 C   0  0  0  0  0  0
  -26.0176  -29.4606   20.7115 C   0  0  0  0  0  0
  -27.2129  -28.6993   20.7027 C   0  0  0  0  0  0
  -26.0560  -26.9334   19.4920 C   0  0  0  0  0  0
  -24.8705  -27.6915   19.4979 C   0  0  0  0  0  0
  -23.6173  -29.8229   20.1635 C   0  0  0  0  0  0
  -25.4100  -36.3103   24.0336 C   0  0  1  0  0  0
  -20.5868  -28.3670   23.1307 C   0  0  2  0  0  0
  -20.6764  -26.9403   22.5414 C   0  0  0  0  0  0
  -19.5741  -26.6383   21.5212 C   0  0  0  0  0  0
  -18.1921  -26.7922   22.1627 C   0  0  0  0  0  0
  -19.1525  -28.8839   23.2896 C   0  0  0  0  0  0
  -18.9452  -30.1446   23.8907 C   0  0  0  0  0  0
  -17.6453  -30.6582   24.0564 C   0  0  0  0  0  0
  -25.9039  -34.9472   23.5124 C   0  0  0  0  0  0
  -16.5345  -29.9084   23.6324 C   0  0  0  0  0  0
  -16.7265  -28.6501   23.0348 C   0  0  0  0  0  0
  -26.4471  -31.6593   25.0731 C   0  0  0  0  0  0
  -25.3733  -31.3715   26.1479 C   0  0  0  0  0  0
  -27.0290  -30.3025   24.6123 C   0  0  0  0  0  0
  -27.6057  -32.4302   25.7489 C   0  0  0  0  0  0
  -27.5597  -37.1779   24.8440 C   0  0  0  0  0  0
  -21.4153  -29.3038   22.3717 N   0  0  0  0  0  0
  -26.4272  -37.3805   23.9442 N   0  0  0  0  0  0
  -24.6723  -31.0755   22.0995 N   0  0  0  0  0  0
  -23.4190  -28.8198   23.3028 O   0  0  0  0  0  0
  -28.3560  -26.6122   20.1238 O   0  0  0  0  0  0
  -26.5602  -34.8928   22.4687 O   0  0  0  0  0  0
  -23.5359  -32.1424   23.7471 O   0  0  0  0  0  0
  -28.1013  -20.0162   21.9522 C   0  0  0  0  0  0
  -29.0013  -20.5073   21.0349 C   0  0  0  0  0  0
  -29.8233  -19.4661   20.4852 C   0  0  0  0  0  0
  -29.5618  -18.2013   20.9778 C   0  0  0  0  0  0
  -30.1873  -16.9405   20.6324 C   0  0  0  0  0  0
  -29.9046  -15.6710   21.0341 C   0  0  0  0  0  0
  -28.1917  -25.3848   20.7448 C   0  0  0  0  0  0
  -28.8044  -24.2289   20.3847 C   0  0  0  0  0  0
  -28.5119  -22.9878   21.1268 C   0  0  0  0  0  0
  -29.1166  -21.8846   20.6237 N   0  0  0  0  0  0
  -27.7856  -22.9482   22.1239 O   0  0  0  0  0  0
  -29.6621  -24.2142   19.3521 O   0  0  0  0  0  0
  -30.7438  -19.7174   19.5820 F   0  0  0  0  0  0
  -28.2571  -18.2807   22.1421 S   0  0  0  0  0  0
  -31.4702  -12.4165   19.1405 H   0  0  0  0  0  0
  -30.3246  -11.3163   19.8439 H   0  0  0  0  0  0
  -29.7466  -11.7793   17.4432 H   0  0  0  0  0  0
  -29.6712  -13.4919   17.7723 H   0  0  0  0  0  0
  -27.8280  -11.3160   18.8141 H   0  0  0  0  0  0
  -27.3736  -12.6480   17.7844 H   0  0  0  0  0  0
  -27.7024  -14.2609   19.5793 H   0  0  0  0  0  0
  -28.6881  -11.9522   21.3169 H   0  0  0  0  0  0
  -28.4508  -13.5612   21.8896 H   0  0  0  0  0  0
  -25.2766   -9.5682   22.4758 H   0  0  0  0  0  0
  -24.0004   -7.4636   22.7476 H   0  0  0  0  0  0
  -21.0842   -8.8779   19.8959 H   0  0  0  0  0  0
  -22.3706  -10.9672   19.6166 H   0  0  0  0  0  0
  -21.2009   -7.6151   23.9727 H   0  0  0  0  0  0
  -21.1480   -6.0525   25.9085 H   0  0  0  0  0  0
  -22.0598   -2.7613   23.2855 H   0  0  0  0  0  0
  -22.4100  -11.9881   22.4790 H   0  0  0  0  0  0
  -21.1122  -13.1268   22.2620 H   0  0  0  0  0  0
  -24.6708  -15.8494   20.5339 H   0  0  0  0  0  0
  -26.2968  -15.6308   20.1274 H   0  0  0  0  0  0
  -26.7138  -32.5521   23.1168 H   0  0  0  0  0  0
  -25.0074  -33.9772   25.0476 H   0  0  0  0  0  0
  -22.6966  -31.3074   21.4090 H   0  0  0  0  0  0
  -23.3765  -35.9619   23.3227 H   0  0  0  0  0  0
  -24.3610  -36.8991   22.2060 H   0  0  0  0  0  0
  -23.7197  -37.6480   23.6683 H   0  0  0  0  0  0
  -26.0545  -31.5932   20.5982 H   0  0  0  0  0  0
  -26.8246  -30.8789   21.9867 H   0  0  0  0  0  0
  -28.1093  -29.0787   21.1731 H   0  0  0  0  0  0
  -26.0557  -25.9599   19.0219 H   0  0  0  0  0  0
  -23.9787  -27.2967   19.0313 H   0  0  0  0  0  0
  -23.7269  -30.5986   19.4048 H   0  0  0  0  0  0
  -22.7412  -29.2441   19.8655 H   0  0  0  0  0  0
  -25.1261  -36.1954   25.0824 H   0  0  0  0  0  0
  -20.9958  -28.3237   24.1427 H   0  0  0  0  0  0
  -20.5662  -26.2282   23.3605 H   0  0  0  0  0  0
  -21.6635  -26.7441   22.1208 H   0  0  0  0  0  0
  -19.6901  -25.6296   21.1235 H   0  0  0  0  0  0
  -19.6674  -27.3200   20.6747 H   0  0  0  0  0  0
  -17.4188  -26.6669   21.4032 H   0  0  0  0  0  0
  -18.0328  -26.0058   22.9019 H   0  0  0  0  0  0
  -19.7928  -30.7260   24.2281 H   0  0  0  0  0  0
  -17.5007  -31.6262   24.5166 H   0  0  0  0  0  0
  -15.5346  -30.2990   23.7638 H   0  0  0  0  0  0
  -15.8666  -28.0824   22.7054 H   0  0  0  0  0  0
  -24.5911  -30.7049   25.7828 H   0  0  0  0  0  0
  -24.8917  -32.2873   26.4919 H   0  0  0  0  0  0
  -25.8084  -30.8901   27.0247 H   0  0  0  0  0  0
  -26.2838  -29.6801   24.1158 H   0  0  0  0  0  0
  -27.4020  -29.7252   25.4595 H   0  0  0  0  0  0
  -27.8695  -30.4324   23.9301 H   0  0  0  0  0  0
  -27.2700  -33.3615   26.2063 H   0  0  0  0  0  0
  -28.3874  -32.6832   25.0312 H   0  0  0  0  0  0
  -28.0711  -31.8416   26.5405 H   0  0  0  0  0  0
  -28.2519  -38.0173   24.7642 H   0  0  0  0  0  0
  -28.1190  -36.2719   24.6054 H   0  0  0  0  0  0
  -27.2352  -37.1170   25.8843 H   0  0  0  0  0  0
  -20.9320  -29.8775   21.6948 H   0  0  0  0  0  0
  -26.0151  -38.2857   24.1540 H   0  0  0  0  0  0
  -27.3501  -20.5443   22.5250 H   0  0  0  0  0  0
  -31.0074  -17.0595   19.9362 H   0  0  0  0  0  0
  -29.0943  -15.5315   21.7295 H   0  0  0  0  0  0
  -27.4943  -25.4423   21.5726 H   0  0  0  0  0  0
  -29.7277  -22.0692   19.8383 H   0  0  0  0  0  0
  -29.7071  -25.1036   19.0237 H   0  0  0  0  0  0
  1 25  1  0  0  0
  1 30  2  0  0  0
  1 76  1  0  0  0
  2  3  1  0  0  0
  2 25  1  0  0  0
  2 85  1  0  0  0
  2 86  1  0  0  0
  3  4  1  0  0  0
  3 87  1  0  0  0
  3 88  1  0  0  0
  4  5  1  0  0  0
  4 89  1  0  0  0
  4 90  1  0  0  0
  5  6  1  0  0  0
  5 26  1  0  0  0
  5 91  1  0  0  0
  6 25  1  0  0  0
  6 92  1  0  0  0
  6 93  1  0  0  0
  7  8  2  0  0  0
  7 26  1  0  0  0
  7 29  1  0  0  0
  8  9  1  0  0  0
  8 22  1  0  0  0
  9 10  1  0  0  0
  9 27  2  0  0  0
 10 11  2  0  0  0
 10 15  1  0  0  0
 11 12  1  0  0  0
 11 94  1  0  0  0
 12 13  2  0  0  0
 12 95  1  0  0  0
 13 14  1  0  0  0
 13 31  1  0  0  0
 14 15  2  0  0  0
 14 96  1  0  0  0
 15 97  1  0  0  0
 16 17  2  0  0  0
 16 21  1  0  0  0
 16 31  1  0  0  0
 17 18  1  0  0  0
 17 98  1  0  0  0
 18 19  2  0  0  0
 18 99  1  0  0  0
 19 20  1  0  0  0
 19 24  1  0  0  0
 20 21  2  0  0  0
 20100  1  0  0  0
 21 23  1  0  0  0
 22 28  1  0  0  0
 22 32  2  0  0  0
 26 27  1  0  0  0
 28101  1  0  0  0
 28102  1  0  0  0
 29103  1  0  0  0
 29104  1  0  0  0
 33 34  1  0  0  0
 33 66  1  0  0  0
 33 70  2  0  0  0
 34 36  1  0  0  0
 34 59  1  0  0  0
 34105  1  0  0  0
 35 44  2  0  0  0
 35 45  1  0  0  0
 35 68  1  0  0  0
 36 56  1  0  0  0
 36106  1  0  0  0
 37 39  1  0  0  0
 37 47  1  0  0  0
 37 66  1  0  0  0
 37107  1  0  0  0
 38 43  2  0  0  0
 38 46  1  0  0  0
 38 47  1  0  0  0
 39 64  1  0  0  0
 39 67  2  0  0  0
 40 52  1  0  0  0
 40 53  2  0  0  0
 40 58  1  0  0  0
 41108  1  0  0  0
 41109  1  0  0  0
 41110  1  0  0  0
 41 48  1  0  0  0
 42 43  1  0  0  0
 42 66  1  0  0  0
 42111  1  0  0  0
 42112  1  0  0  0
 43 44  1  0  0  0
 44113  1  0  0  0
 45 46  2  0  0  0
 45114  1  0  0  0
 46115  1  0  0  0
 47116  1  0  0  0
 47117  1  0  0  0
 48 56  1  0  0  0
 48 65  1  0  0  0
 48118  1  0  0  0
 49 50  1  0  0  0
 49 53  1  0  0  0
 49 64  1  0  0  0
 49119  1  0  0  0
 50 51  1  0  0  0
 50120  1  0  0  0
 50121  1  0  0  0
 51 52  1  0  0  0
 51122  1  0  0  0
 51123  1  0  0  0
 52124  1  0  0  0
 52125  1  0  0  0
 53 54  1  0  0  0
 54 55  2  0  0  0
 54126  1  0  0  0
 55 57  1  0  0  0
 55127  1  0  0  0
 56 69  2  0  0  0
 57 58  2  0  0  0
 57128  1  0  0  0
 58129  1  0  0  0
 59 60  1  0  0  0
 59 61  1  0  0  0
 59 62  1  0  0  0
 60130  1  0  0  0
 60131  1  0  0  0
 60132  1  0  0  0
 61133  1  0  0  0
 61134  1  0  0  0
 61135  1  0  0  0
 62136  1  0  0  0
 62137  1  0  0  0
 62138  1  0  0  0
 63 65  1  0  0  0
 63139  1  0  0  0
 63140  1  0  0  0
 63141  1  0  0  0
 64142  1  0  0  0
 65143  1  0  0  0
 68 77  1  0  0  0
 71 72  2  0  0  0
 71 84  1  0  0  0
 71144  1  0  0  0
 72 73  1  0  0  0
 72 80  1  0  0  0
 73 74  2  0  0  0
 73 83  1  0  0  0
 74 75  1  0  0  0
 74 84  1  0  0  0
 75 76  2  0  0  0
 75145  1  0  0  0
 76146  1  0  0  0
 77 78  2  0  0  0
 77147  1  0  0  0
 78 79  1  0  0  0
 78 82  1  0  0  0
 79 80  1  0  0  0
 79 81  2  0  0  0
 80148  1  0  0  0
 82149  1  0  0  0
M  ISO  4   1 100  68 101  76 100  77 101
M  END
> <chiral flag>
0

> <version>
0

> <s_m_source_file>
/data/baiqing/PycharmProjects/Reinvent-master-3.2/result/LINK_invent/BTK/process_docking_weight1_custom_product_contain_oxygen_bond_distance_aromatic_linkinvent_7_9_3/rearranged_h_0179.sdf

> <i_m_source_file_index>
8

> <r_mmod_Potential_Energy-OPLS-2005>
-102.202217102051

> <r_mmod_Stretch_Energy-OPLS-2005>
42.3468856811523

> <r_mmod_Bend_Energy-OPLS-2005>
104.423782348633

> <r_mmod_Torsional_Energy-OPLS-2005>
182.095428466797

> <r_mmod_Improper_Torsional_Energy-OPLS-2005>
3.41305017471313

> <r_mmod_Van_der_Waal_Energy-OPLS-2005>
141.808227539062

> <r_mmod_Electrostatic_Energy-OPLS-2005>
-393.302124023438

> <r_mmod_Solvation_Energy-OPLS-2005>
-201.679580688477

> <b_mmod_Minimization_Converged-OPLS-2005>
0

> <r_mmod_RMS_Derivative-OPLS-2005>
0.591926634311676

$$$$
8
                    3D
 Structure written by MMmdl.
152160  0  0  1  0            999 V2000
  -30.6429  -14.6079   20.4475 C   0  0  0  0  0  0
  -30.4285  -12.3559   19.4476 C   0  0  0  0  0  0
  -29.5016  -12.4822   18.2187 C   0  0  0  0  0  0
  -28.0234  -12.3300   18.6314 C   0  0  0  0  0  0
  -27.6494  -13.2106   19.8533 C   0  0  2  0  0  0
  -28.6959  -13.0764   20.9837 C   0  0  0  0  0  0
  -25.2571  -13.8149   20.5682 C   0  0  0  0  0  0
  -24.1834  -13.0433   20.9198 C   0  0  0  0  0  0
  -24.6393  -11.6899   20.8745 C   0  0  0  0  0  0
  -23.9066  -10.4282   21.0425 C   0  0  0  0  0  0
  -24.3619   -9.4193   21.9185 C   0  0  0  0  0  0
  -23.6291   -8.2225   22.0753 C   0  0  0  0  0  0
  -22.4271   -8.0276   21.3547 C   0  0  0  0  0  0
  -21.9902   -9.0252   20.4652 C   0  0  0  0  0  0
  -22.7231  -10.2132   20.3068 C   0  0  0  0  0  0
  -21.6852   -6.0734   22.5280 C   0  0  0  0  0  0
  -21.4006   -6.5641   23.8215 C   0  0  0  0  0  0
  -21.3661   -5.6790   24.9170 C   0  0  0  0  0  0
  -21.6040   -4.3053   24.7227 C   0  0  0  0  0  0
  -21.8818   -3.8139   23.4346 C   0  0  0  0  0  0
  -21.9188   -4.6959   22.3408 C   0  0  0  0  0  0
  -22.7858  -13.5251   21.1858 C   0  0  0  0  0  0
  -22.1657   -4.2144   21.0985 F   0  0  0  0  0  0
  -21.5629   -3.4544   25.7741 F   0  0  0  0  0  0
  -30.0149  -13.3929   20.4127 N   0  0  0  0  0  0
  -26.2975  -12.9325   20.3275 N   0  0  0  0  0  0
  -25.9301  -11.6483   20.5737 N   0  0  0  0  0  0
  -22.0495  -12.8244   22.0435 N   0  0  0  0  0  0
  -25.4298  -15.1884   20.4118 N   0  0  0  0  0  0
  -31.8278  -14.7190   20.1233 O   0  0  0  0  0  0
  -21.6640   -6.8869   21.4245 O   0  0  0  0  0  0
  -22.3541  -14.5548   20.6709 O   0  0  0  0  0  0
  -24.6252  -31.8600   23.2035 C   0  0  0  0  0  0
  -25.9106  -32.4786   23.8364 C   0  0  1  0  0  0
  -27.2358  -27.3567   20.1002 C   0  0  0  0  0  0
  -25.5945  -33.8588   24.2286 N   0  0  0  0  0  0
  -23.4195  -30.4811   21.5458 C   0  0  2  0  0  0
  -24.8689  -28.9316   20.1198 C   0  0  0  0  0  0
  -22.7450  -29.4623   22.4942 C   0  0  0  0  0  0
  -18.0263  -28.1380   22.8473 C   0  0  0  0  0  0
  -24.1468  -36.7276   23.2569 C   0  0  0  0  0  0
  -25.9591  -30.7951   21.3745 C   0  0  0  0  0  0
  -26.0352  -29.4239   20.7213 C   0  0  0  0  0  0
  -27.2273  -28.6449   20.7081 C   0  0  0  0  0  0
  -26.0516  -26.8987   19.4924 C   0  0  0  0  0  0
  -24.8748  -27.6706   19.5020 C   0  0  0  0  0  0
  -23.6359  -29.8090   20.1650 C   0  0  0  0  0  0
  -25.4038  -36.3064   24.0336 C   0  0  1  0  0  0
  -20.5852  -28.3676   23.1271 C   0  0  2  0  0  0
  -20.6758  -26.9403   22.5392 C   0  0  0  0  0  0
  -19.5756  -26.6366   21.5191 C   0  0  0  0  0  0
  -18.1935  -26.7927   22.1606 C   0  0  0  0  0  0
  -19.1517  -28.8845   23.2870 C   0  0  0  0  0  0
  -18.9449  -30.1451   23.8888 C   0  0  0  0  0  0
  -17.6461  -30.6597   24.0549 C   0  0  0  0  0  0
  -25.9075  -34.9472   23.5112 C   0  0  0  0  0  0
  -16.5348  -29.9094   23.6340 C   0  0  0  0  0  0
  -16.7253  -28.6508   23.0359 C   0  0  0  0  0  0
  -26.4487  -31.6587   25.0732 C   0  0  0  0  0  0
  -25.3750  -31.3785   26.1502 C   0  0  0  0  0  0
  -27.0259  -30.2972   24.6194 C   0  0  0  0  0  0
  -27.6107  -32.4282   25.7457 C   0  0  0  0  0  0
  -27.5713  -37.1532   24.8258 C   0  0  0  0  0  0
  -21.4162  -29.3047   22.3685 N   0  0  0  0  0  0
  -26.4106  -37.3893   23.9724 N   0  0  0  0  0  0
  -24.6865  -31.0626   22.0976 N   0  0  0  0  0  0
  -23.4177  -28.8166   23.3025 O   0  0  0  0  0  0
  -28.3416  -26.5169   20.0369 O   0  0  0  0  0  0
  -26.5657  -34.8961   22.4690 O   0  0  0  0  0  0
  -23.5417  -32.1407   23.7355 O   0  0  0  0  0  0
  -29.8015  -19.5551   19.6710 C   0  0  0  0  0  0
  -31.0276  -18.9602   19.4100 C   0  0  0  0  0  0
  -30.0108  -17.0931   20.3031 C   0  0  0  0  0  0
  -28.5152  -25.6031   21.0681 C   0  0  0  0  0  0
  -29.3321  -20.9117   19.2780 C   0  0  0  0  0  0
  -28.7632  -24.2500   21.0456 C   0  0  0  0  0  0
  -28.8436  -23.3700   19.8553 C   0  0  0  0  0  0
  -31.1386  -17.6116   19.7987 N   0  0  0  0  0  0
  -32.1274  -19.5543   18.7889 N   0  0  0  0  0  0
  -29.8388  -15.6919   20.6670 N   0  0  0  0  0  0
  -29.1910  -21.9649   20.1537 N   0  0  0  0  0  0
  -29.0794  -21.0930   17.9664 N   0  3  0  0  0  0
  -28.6341  -23.7247   18.6864 O   0  0  0  0  0  0
  -28.9442  -23.6477   22.2339 O   0  0  0  0  0  0
  -28.7399  -18.3499   20.4211 S   0  0  0  0  0  0
  -31.4729  -12.4577   19.1495 H   0  0  0  0  0  0
  -30.3405  -11.3628   19.8943 H   0  0  0  0  0  0
  -29.7587  -11.7256   17.4767 H   0  0  0  0  0  0
  -29.6500  -13.4466   17.7320 H   0  0  0  0  0  0
  -27.8587  -11.2800   18.8737 H   0  0  0  0  0  0
  -27.3670  -12.5464   17.7888 H   0  0  0  0  0  0
  -27.6637  -14.2411   19.5002 H   0  0  0  0  0  0
  -28.6922  -12.0603   21.3828 H   0  0  0  0  0  0
  -28.4536  -13.7273   21.8240 H   0  0  0  0  0  0
  -25.2774   -9.5671   22.4756 H   0  0  0  0  0  0
  -24.0000   -7.4628   22.7479 H   0  0  0  0  0  0
  -21.0806   -8.8773   19.8982 H   0  0  0  0  0  0
  -22.3678  -10.9670   19.6183 H   0  0  0  0  0  0
  -21.1990   -7.6152   23.9717 H   0  0  0  0  0  0
  -21.1483   -6.0525   25.9081 H   0  0  0  0  0  0
  -22.0590   -2.7602   23.2854 H   0  0  0  0  0  0
  -22.4092  -11.9908   22.4810 H   0  0  0  0  0  0
  -21.1136  -13.1303   22.2650 H   0  0  0  0  0  0
  -24.6646  -15.8430   20.5345 H   0  0  0  0  0  0
  -26.2703  -15.6278   20.0606 H   0  0  0  0  0  0
  -26.7169  -32.5468   23.1120 H   0  0  0  0  0  0
  -25.0114  -33.9752   25.0446 H   0  0  0  0  0  0
  -22.7143  -31.2992   21.3939 H   0  0  0  0  0  0
  -23.3983  -35.9336   23.2590 H   0  0  0  0  0  0
  -24.3756  -36.9550   22.2143 H   0  0  0  0  0  0
  -23.6816  -37.6097   23.6975 H   0  0  0  0  0  0
  -26.0918  -31.5595   20.6063 H   0  0  0  0  0  0
  -26.8376  -30.8434   22.0056 H   0  0  0  0  0  0
  -28.1323  -29.0190   21.1664 H   0  0  0  0  0  0
  -26.0430  -25.9299   19.0104 H   0  0  0  0  0  0
  -23.9806  -27.2857   19.0327 H   0  0  0  0  0  0
  -23.7536  -30.5827   19.4053 H   0  0  0  0  0  0
  -22.7600  -29.2305   19.8640 H   0  0  0  0  0  0
  -25.1095  -36.1769   25.0783 H   0  0  0  0  0  0
  -20.9933  -28.3254   24.1398 H   0  0  0  0  0  0
  -20.5647  -26.2306   23.3612 H   0  0  0  0  0  0
  -21.6635  -26.7465   22.1172 H   0  0  0  0  0  0
  -19.6948  -25.6276   21.1237 H   0  0  0  0  0  0
  -19.6715  -27.3158   20.6703 H   0  0  0  0  0  0
  -17.4198  -26.6646   21.4013 H   0  0  0  0  0  0
  -18.0369  -26.0059   22.9009 H   0  0  0  0  0  0
  -19.7932  -30.7244   24.2283 H   0  0  0  0  0  0
  -17.5027  -31.6295   24.5120 H   0  0  0  0  0  0
  -15.5349  -30.3005   23.7677 H   0  0  0  0  0  0
  -15.8641  -28.0823   22.7108 H   0  0  0  0  0  0
  -24.5810  -30.7264   25.7849 H   0  0  0  0  0  0
  -24.9116  -32.2994   26.5041 H   0  0  0  0  0  0
  -25.8070  -30.8846   27.0214 H   0  0  0  0  0  0
  -26.2796  -29.6757   24.1227 H   0  0  0  0  0  0
  -27.3901  -29.7194   25.4707 H   0  0  0  0  0  0
  -27.8712  -30.4176   23.9417 H   0  0  0  0  0  0
  -27.2769  -33.3570   26.2090 H   0  0  0  0  0  0
  -28.3877  -32.6850   25.0240 H   0  0  0  0  0  0
  -28.0825  -31.8373   26.5323 H   0  0  0  0  0  0
  -28.1799  -38.0567   24.8810 H   0  0  0  0  0  0
  -28.2043  -36.3584   24.4289 H   0  0  0  0  0  0
  -27.2823  -36.8836   25.8433 H   0  0  0  0  0  0
  -20.9351  -29.8788   21.6896 H   0  0  0  0  0  0
  -25.9934  -38.2710   24.2575 H   0  0  0  0  0  0
  -28.4528  -26.1264   22.0113 H   0  0  0  0  0  0
  -33.0446  -19.1293   18.8551 H   0  0  0  0  0  0
  -32.1324  -20.5306   18.5172 H   0  0  0  0  0  0
  -28.9090  -15.4546   20.9748 H   0  0  0  0  0  0
  -29.3794  -21.7125   21.1103 H   0  0  0  0  0  0
  -29.2051  -20.3541   17.2910 H   0  0  0  0  0  0
  -28.7966  -22.0105   17.6373 H   0  0  0  0  0  0
  -28.8912  -24.3163   22.9043 H   0  0  0  0  0  0
  1 25  1  0  0  0
  1 30  2  0  0  0
  1 80  1  0  0  0
  2  3  1  0  0  0
  2 25  1  0  0  0
  2 86  1  0  0  0
  2 87  1  0  0  0
  3  4  1  0  0  0
  3 88  1  0  0  0
  3 89  1  0  0  0
  4  5  1  0  0  0
  4 90  1  0  0  0
  4 91  1  0  0  0
  5  6  1  0  0  0
  5 26  1  0  0  0
  5 92  1  0  0  0
  6 25  1  0  0  0
  6 93  1  0  0  0
  6 94  1  0  0  0
  7  8  2  0  0  0
  7 26  1  0  0  0
  7 29  1  0  0  0
  8  9  1  0  0  0
  8 22  1  0  0  0
  9 10  1  0  0  0
  9 27  2  0  0  0
 10 11  2  0  0  0
 10 15  1  0  0  0
 11 12  1  0  0  0
 11 95  1  0  0  0
 12 13  2  0  0  0
 12 96  1  0  0  0
 13 14  1  0  0  0
 13 31  1  0  0  0
 14 15  2  0  0  0
 14 97  1  0  0  0
 15 98  1  0  0  0
 16 17  2  0  0  0
 16 21  1  0  0  0
 16 31  1  0  0  0
 17 18  1  0  0  0
 17 99  1  0  0  0
 18 19  2  0  0  0
 18100  1  0  0  0
 19 20  1  0  0  0
 19 24  1  0  0  0
 20 21  2  0  0  0
 20101  1  0  0  0
 21 23  1  0  0  0
 22 28  1  0  0  0
 22 32  2  0  0  0
 26 27  1  0  0  0
 28102  1  0  0  0
 28103  1  0  0  0
 29104  1  0  0  0
 29105  1  0  0  0
 33 34  1  0  0  0
 33 66  1  0  0  0
 33 70  2  0  0  0
 34 36  1  0  0  0
 34 59  1  0  0  0
 34106  1  0  0  0
 35 44  2  0  0  0
 35 45  1  0  0  0
 35 68  1  0  0  0
 36 56  1  0  0  0
 36107  1  0  0  0
 37 39  1  0  0  0
 37 47  1  0  0  0
 37 66  1  0  0  0
 37108  1  0  0  0
 38 43  2  0  0  0
 38 46  1  0  0  0
 38 47  1  0  0  0
 39 64  1  0  0  0
 39 67  2  0  0  0
 40 52  1  0  0  0
 40 53  2  0  0  0
 40 58  1  0  0  0
 41109  1  0  0  0
 41110  1  0  0  0
 41111  1  0  0  0
 41 48  1  0  0  0
 42 43  1  0  0  0
 42 66  1  0  0  0
 42112  1  0  0  0
 42113  1  0  0  0
 43 44  1  0  0  0
 44114  1  0  0  0
 45 46  2  0  0  0
 45115  1  0  0  0
 46116  1  0  0  0
 47117  1  0  0  0
 47118  1  0  0  0
 48 56  1  0  0  0
 48 65  1  0  0  0
 48119  1  0  0  0
 49 50  1  0  0  0
 49 53  1  0  0  0
 49 64  1  0  0  0
 49120  1  0  0  0
 50 51  1  0  0  0
 50121  1  0  0  0
 50122  1  0  0  0
 51 52  1  0  0  0
 51123  1  0  0  0
 51124  1  0  0  0
 52125  1  0  0  0
 52126  1  0  0  0
 53 54  1  0  0  0
 54 55  2  0  0  0
 54127  1  0  0  0
 55 57  1  0  0  0
 55128  1  0  0  0
 56 69  2  0  0  0
 57 58  2  0  0  0
 57129  1  0  0  0
 58130  1  0  0  0
 59 60  1  0  0  0
 59 61  1  0  0  0
 59 62  1  0  0  0
 60131  1  0  0  0
 60132  1  0  0  0
 60133  1  0  0  0
 61134  1  0  0  0
 61135  1  0  0  0
 61136  1  0  0  0
 62137  1  0  0  0
 62138  1  0  0  0
 62139  1  0  0  0
 63 65  1  0  0  0
 63140  1  0  0  0
 63141  1  0  0  0
 63142  1  0  0  0
 64143  1  0  0  0
 65144  1  0  0  0
 68 74  1  0  0  0
 71 72  2  0  0  0
 71 75  1  0  0  0
 71 85  1  0  0  0
 72 78  1  0  0  0
 72 79  1  0  0  0
 73 78  2  0  0  0
 73 80  1  0  0  0
 73 85  1  0  0  0
 74 76  2  0  0  0
 74145  1  0  0  0
 75 81  1  0  0  0
 75 82  2  0  0  0
 76 77  1  0  0  0
 76 84  1  0  0  0
 77 81  1  0  0  0
 77 83  2  0  0  0
 79146  1  0  0  0
 79147  1  0  0  0
 80148  1  0  0  0
 81149  1  0  0  0
 82150  1  0  0  0
 82151  1  0  0  0
 84152  1  0  0  0
M  CHG  1  82   1
M  ISO  4   1 100  68 101  74 101  80 100
M  END
> <chiral flag>
0

> <version>
0

> <s_m_source_file>
/data/baiqing/PycharmProjects/Reinvent-master-3.2/result/LINK_invent/BTK/process_docking_weight1_custom_product_contain_oxygen_bond_distance_aromatic_linkinvent_7_9_3/rearranged_h_0179.sdf

> <i_m_source_file_index>
9

> <r_mmod_Potential_Energy-OPLS-2005>
-177.250778198242

> <r_mmod_Stretch_Energy-OPLS-2005>
62.3424606323242

> <r_mmod_Bend_Energy-OPLS-2005>
148.06608581543

> <r_mmod_Torsional_Energy-OPLS-2005>
234.457305908203

> <r_mmod_Improper_Torsional_Energy-OPLS-2005>
6.43915224075317

> <r_mmod_Van_der_Waal_Energy-OPLS-2005>
126.454772949219

> <r_mmod_Electrostatic_Energy-OPLS-2005>
-301.766448974609

> <r_mmod_Solvation_Energy-OPLS-2005>
-493.182495117188

> <b_mmod_Minimization_Converged-OPLS-2005>
0

> <r_mmod_RMS_Derivative-OPLS-2005>
3.59420490264893

$$$$
9
                    3D
 Structure written by MMmdl.
150158  0  0  1  0            999 V2000
  -30.6153  -14.4926   20.6225 C   0  0  0  0  0  0
  -30.4465  -12.3416   19.4022 C   0  0  0  0  0  0
  -29.4978  -12.5367   18.1957 C   0  0  0  0  0  0
  -28.0163  -12.3815   18.6052 C   0  0  0  0  0  0
  -27.6668  -13.1919   19.8813 C   0  0  2  0  0  0
  -28.7042  -12.8989   20.9873 C   0  0  0  0  0  0
  -25.2623  -13.8096   20.5648 C   0  0  0  0  0  0
  -24.1856  -13.0416   20.9175 C   0  0  0  0  0  0
  -24.6378  -11.6883   20.8705 C   0  0  0  0  0  0
  -23.9026  -10.4280   21.0385 C   0  0  0  0  0  0
  -24.3595   -9.4205   21.9174 C   0  0  0  0  0  0
  -23.6284   -8.2240   22.0752 C   0  0  0  0  0  0
  -22.4261   -8.0277   21.3543 C   0  0  0  0  0  0
  -21.9881   -9.0242   20.4644 C   0  0  0  0  0  0
  -22.7197  -10.2122   20.3048 C   0  0  0  0  0  0
  -21.6847   -6.0726   22.5281 C   0  0  0  0  0  0
  -21.4016   -6.5633   23.8212 C   0  0  0  0  0  0
  -21.3657   -5.6789   24.9179 C   0  0  0  0  0  0
  -21.6038   -4.3051   24.7227 C   0  0  0  0  0  0
  -21.8819   -3.8136   23.4352 C   0  0  0  0  0  0
  -21.9198   -4.6954   22.3407 C   0  0  0  0  0  0
  -22.7877  -13.5247   21.1821 C   0  0  0  0  0  0
  -22.1661   -4.2140   21.0984 F   0  0  0  0  0  0
  -21.5631   -3.4539   25.7742 F   0  0  0  0  0  0
  -30.0356  -13.2692   20.4667 N   0  0  0  0  0  0
  -26.3033  -12.9248   20.3347 N   0  0  0  0  0  0
  -25.9300  -11.6425   20.5721 N   0  0  0  0  0  0
  -22.0525  -12.8262   22.0395 N   0  0  0  0  0  0
  -25.4366  -15.1815   20.4054 N   0  0  0  0  0  0
  -31.6895  -14.7996   20.0898 O   0  0  0  0  0  0
  -21.6635   -6.8868   21.4240 O   0  0  0  0  0  0
  -22.3582  -14.5556   20.6655 O   0  0  0  0  0  0
  -24.6155  -31.8654   23.2056 C   0  0  0  0  0  0
  -25.9034  -32.4812   23.8347 C   0  0  1  0  0  0
  -27.2318  -27.4019   20.0852 C   0  0  0  0  0  0
  -25.5877  -33.8608   24.2280 N   0  0  0  0  0  0
  -23.4038  -30.4897   21.5462 C   0  0  2  0  0  0
  -24.8485  -28.9504   20.1150 C   0  0  0  0  0  0
  -22.7404  -29.4655   22.4951 C   0  0  0  0  0  0
  -18.0272  -28.1371   22.8497 C   0  0  0  0  0  0
  -24.1483  -36.7298   23.2637 C   0  0  0  0  0  0
  -25.9343  -30.8203   21.3646 C   0  0  0  0  0  0
  -26.0096  -29.4504   20.7136 C   0  0  0  0  0  0
  -27.1988  -28.6799   20.7008 C   0  0  0  0  0  0
  -26.0392  -26.9157   19.4988 C   0  0  0  0  0  0
  -24.8597  -27.6835   19.5083 C   0  0  0  0  0  0
  -23.6115  -29.8196   20.1624 C   0  0  0  0  0  0
  -25.4110  -36.3106   24.0330 C   0  0  1  0  0  0
  -20.5862  -28.3651   23.1307 C   0  0  2  0  0  0
  -20.6756  -26.9378   22.5429 C   0  0  0  0  0  0
  -19.5745  -26.6366   21.5222 C   0  0  0  0  0  0
  -18.1922  -26.7919   22.1635 C   0  0  0  0  0  0
  -19.1519  -28.8832   23.2905 C   0  0  0  0  0  0
  -18.9459  -30.1445   23.8903 C   0  0  0  0  0  0
  -17.6462  -30.6590   24.0562 C   0  0  0  0  0  0
  -25.9043  -34.9475   23.5118 C   0  0  0  0  0  0
  -16.5351  -29.9086   23.6329 C   0  0  0  0  0  0
  -16.7266  -28.6501   23.0356 C   0  0  0  0  0  0
  -26.4472  -31.6603   25.0690 C   0  0  0  0  0  0
  -25.3718  -31.3725   26.1422 C   0  0  0  0  0  0
  -27.0303  -30.3038   24.6095 C   0  0  0  0  0  0
  -27.6048  -32.4314   25.7448 C   0  0  0  0  0  0
  -27.5580  -37.1800   24.8467 C   0  0  0  0  0  0
  -21.4125  -29.3016   22.3698 N   0  0  0  0  0  0
  -26.4294  -37.3796   23.9414 N   0  0  0  0  0  0
  -24.6691  -31.0734   22.0971 N   0  0  0  0  0  0
  -23.4177  -28.8208   23.3008 O   0  0  0  0  0  0
  -28.4260  -26.6957   20.0847 O   0  0  0  0  0  0
  -26.5624  -34.8939   22.4691 O   0  0  0  0  0  0
  -23.5336  -32.1415   23.7429 O   0  0  0  0  0  0
  -28.2066  -18.5673   21.5087 C   0  0  0  0  0  0
  -28.4001  -17.1818   21.7874 C   0  0  0  0  0  0
  -29.1948  -19.1375   20.7451 C   0  0  0  0  0  0
  -29.5336  -16.6336   21.2404 C   0  0  0  0  0  0
  -28.9573  -22.8286   19.8531 C   0  0  0  0  0  0
  -28.5854  -21.5290   20.6601 C   0  0  0  0  0  0
  -28.4612  -24.1943   20.4067 C   0  0  0  0  0  0
  -28.5665  -25.4085   19.4352 C   0  0  0  0  0  0
  -29.3086  -20.4336   20.3057 N   0  0  0  0  0  0
  -29.8954  -15.3233   21.4065 N   0  0  0  0  0  0
  -29.6330  -22.7680   18.8172 O   0  0  0  0  0  0
  -27.7166  -21.5411   21.5396 O   0  0  0  0  0  0
  -30.3741  -17.8852   20.3255 S   0  0  0  0  0  0
  -31.4823  -12.5015   19.0968 H   0  0  0  0  0  0
  -30.4045  -11.3137   19.7645 H   0  0  0  0  0  0
  -29.7462  -11.8281   17.4042 H   0  0  0  0  0  0
  -29.6547  -13.5305   17.7726 H   0  0  0  0  0  0
  -27.8278  -11.3183   18.7732 H   0  0  0  0  0  0
  -27.3606  -12.6731   17.7833 H   0  0  0  0  0  0
  -27.7283  -14.2514   19.6331 H   0  0  0  0  0  0
  -28.6926  -11.8323   21.2211 H   0  0  0  0  0  0
  -28.4359  -13.3925   21.9220 H   0  0  0  0  0  0
  -25.2747   -9.5691   22.4736 H   0  0  0  0  0  0
  -23.9995   -7.4632   22.7487 H   0  0  0  0  0  0
  -21.0791   -8.8743   19.8971 H   0  0  0  0  0  0
  -22.3636  -10.9655   19.6156 H   0  0  0  0  0  0
  -21.2002   -7.6141   23.9709 H   0  0  0  0  0  0
  -21.1480   -6.0523   25.9078 H   0  0  0  0  0  0
  -22.0601   -2.7602   23.2851 H   0  0  0  0  0  0
  -22.4137  -11.9926   22.4800 H   0  0  0  0  0  0
  -21.1157  -13.1321   22.2594 H   0  0  0  0  0  0
  -24.6636  -15.8312   20.4913 H   0  0  0  0  0  0
  -26.2776  -15.6149   20.0483 H   0  0  0  0  0  0
  -26.7081  -32.5537   23.1078 H   0  0  0  0  0  0
  -24.9993  -33.9745   25.0400 H   0  0  0  0  0  0
  -22.6935  -31.3068   21.4054 H   0  0  0  0  0  0
  -23.3760  -35.9621   23.3321 H   0  0  0  0  0  0
  -24.3564  -36.8901   22.2049 H   0  0  0  0  0  0
  -23.7227  -37.6499   23.6646 H   0  0  0  0  0  0
  -26.0458  -31.5845   20.5940 H   0  0  0  0  0  0
  -26.8210  -30.8752   21.9836 H   0  0  0  0  0  0
  -28.0966  -29.0631   21.1661 H   0  0  0  0  0  0
  -25.9813  -25.9467   19.0279 H   0  0  0  0  0  0
  -23.9618  -27.2939   19.0477 H   0  0  0  0  0  0
  -23.7084  -30.5878   19.3949 H   0  0  0  0  0  0
  -22.7373  -29.2317   19.8798 H   0  0  0  0  0  0
  -25.1292  -36.1958   25.0822 H   0  0  0  0  0  0
  -20.9970  -28.3230   24.1423 H   0  0  0  0  0  0
  -20.5641  -26.2266   23.3628 H   0  0  0  0  0  0
  -21.6632  -26.7401   22.1241 H   0  0  0  0  0  0
  -19.6911  -25.6275   21.1261 H   0  0  0  0  0  0
  -19.6703  -27.3173   20.6755 H   0  0  0  0  0  0
  -17.4194  -26.6661   21.4039 H   0  0  0  0  0  0
  -18.0324  -26.0049   22.9021 H   0  0  0  0  0  0
  -19.7937  -30.7263   24.2268 H   0  0  0  0  0  0
  -17.5023  -31.6278   24.5149 H   0  0  0  0  0  0
  -15.5356  -30.3006   23.7646 H   0  0  0  0  0  0
  -15.8658  -28.0838   22.7059 H   0  0  0  0  0  0
  -24.5892  -30.7085   25.7743 H   0  0  0  0  0  0
  -24.8916  -32.2895   26.4843 H   0  0  0  0  0  0
  -25.8038  -30.8897   27.0195 H   0  0  0  0  0  0
  -26.2861  -29.6793   24.1148 H   0  0  0  0  0  0
  -27.4056  -29.7287   25.4567 H   0  0  0  0  0  0
  -27.8698  -30.4345   23.9263 H   0  0  0  0  0  0
  -27.2681  -33.3611   26.2037 H   0  0  0  0  0  0
  -28.3848  -32.6870   25.0266 H   0  0  0  0  0  0
  -28.0731  -31.8433   26.5348 H   0  0  0  0  0  0
  -28.2607  -38.0085   24.7514 H   0  0  0  0  0  0
  -28.1062  -36.2623   24.6297 H   0  0  0  0  0  0
  -27.2297  -37.1455   25.8866 H   0  0  0  0  0  0
  -20.9270  -29.8714   21.6899 H   0  0  0  0  0  0
  -26.0186  -38.2873   24.1429 H   0  0  0  0  0  0
  -27.3359  -19.0813   21.8880 H   0  0  0  0  0  0
  -27.6750  -16.6418   22.3817 H   0  0  0  0  0  0
  -29.0530  -24.4088   21.2965 H   0  0  0  0  0  0
  -27.4323  -24.0810   20.7462 H   0  0  0  0  0  0
  -27.9054  -25.2901   18.5801 H   0  0  0  0  0  0
  -29.5602  -25.4169   18.9877 H   0  0  0  0  0  0
  -30.0223  -20.6114   19.6100 H   0  0  0  0  0  0
  -29.2334  -14.7997   21.9619 H   0  0  0  0  0  0
  1 25  1  0  0  0
  1 30  2  0  0  0
  1 80  1  0  0  0
  2  3  1  0  0  0
  2 25  1  0  0  0
  2 84  1  0  0  0
  2 85  1  0  0  0
  3  4  1  0  0  0
  3 86  1  0  0  0
  3 87  1  0  0  0
  4  5  1  0  0  0
  4 88  1  0  0  0
  4 89  1  0  0  0
  5  6  1  0  0  0
  5 26  1  0  0  0
  5 90  1  0  0  0
  6 25  1  0  0  0
  6 91  1  0  0  0
  6 92  1  0  0  0
  7  8  2  0  0  0
  7 26  1  0  0  0
  7 29  1  0  0  0
  8  9  1  0  0  0
  8 22  1  0  0  0
  9 10  1  0  0  0
  9 27  2  0  0  0
 10 11  2  0  0  0
 10 15  1  0  0  0
 11 12  1  0  0  0
 11 93  1  0  0  0
 12 13  2  0  0  0
 12 94  1  0  0  0
 13 14  1  0  0  0
 13 31  1  0  0  0
 14 15  2  0  0  0
 14 95  1  0  0  0
 15 96  1  0  0  0
 16 17  2  0  0  0
 16 21  1  0  0  0
 16 31  1  0  0  0
 17 18  1  0  0  0
 17 97  1  0  0  0
 18 19  2  0  0  0
 18 98  1  0  0  0
 19 20  1  0  0  0
 19 24  1  0  0  0
 20 21  2  0  0  0
 20 99  1  0  0  0
 21 23  1  0  0  0
 22 28  1  0  0  0
 22 32  2  0  0  0
 26 27  1  0  0  0
 28100  1  0  0  0
 28101  1  0  0  0
 29102  1  0  0  0
 29103  1  0  0  0
 33 34  1  0  0  0
 33 66  1  0  0  0
 33 70  2  0  0  0
 34 36  1  0  0  0
 34 59  1  0  0  0
 34104  1  0  0  0
 35 44  2  0  0  0
 35 45  1  0  0  0
 35 68  1  0  0  0
 36 56  1  0  0  0
 36105  1  0  0  0
 37 39  1  0  0  0
 37 47  1  0  0  0
 37 66  1  0  0  0
 37106  1  0  0  0
 38 43  2  0  0  0
 38 46  1  0  0  0
 38 47  1  0  0  0
 39 64  1  0  0  0
 39 67  2  0  0  0
 40 52  1  0  0  0
 40 53  2  0  0  0
 40 58  1  0  0  0
 41107  1  0  0  0
 41108  1  0  0  0
 41109  1  0  0  0
 41 48  1  0  0  0
 42 43  1  0  0  0
 42 66  1  0  0  0
 42110  1  0  0  0
 42111  1  0  0  0
 43 44  1  0  0  0
 44112  1  0  0  0
 45 46  2  0  0  0
 45113  1  0  0  0
 46114  1  0  0  0
 47115  1  0  0  0
 47116  1  0  0  0
 48 56  1  0  0  0
 48 65  1  0  0  0
 48117  1  0  0  0
 49 50  1  0  0  0
 49 53  1  0  0  0
 49 64  1  0  0  0
 49118  1  0  0  0
 50 51  1  0  0  0
 50119  1  0  0  0
 50120  1  0  0  0
 51 52  1  0  0  0
 51121  1  0  0  0
 51122  1  0  0  0
 52123  1  0  0  0
 52124  1  0  0  0
 53 54  1  0  0  0
 54 55  2  0  0  0
 54125  1  0  0  0
 55 57  1  0  0  0
 55126  1  0  0  0
 56 69  2  0  0  0
 57 58  2  0  0  0
 57127  1  0  0  0
 58128  1  0  0  0
 59 60  1  0  0  0
 59 61  1  0  0  0
 59 62  1  0  0  0
 60129  1  0  0  0
 60130  1  0  0  0
 60131  1  0  0  0
 61132  1  0  0  0
 61133  1  0  0  0
 61134  1  0  0  0
 62135  1  0  0  0
 62136  1  0  0  0
 62137  1  0  0  0
 63 65  1  0  0  0
 63138  1  0  0  0
 63139  1  0  0  0
 63140  1  0  0  0
 64141  1  0  0  0
 65142  1  0  0  0
 68 78  1  0  0  0
 71 72  1  0  0  0
 71 73  2  0  0  0
 71143  1  0  0  0
 72 74  2  0  0  0
 72144  1  0  0  0
 73 79  1  0  0  0
 73 83  1  0  0  0
 74 80  1  0  0  0
 74 83  1  0  0  0
 75 76  1  0  0  0
 75 77  1  0  0  0
 75 81  2  0  0  0
 76 79  1  0  0  0
 76 82  2  0  0  0
 77 78  1  0  0  0
 77145  1  0  0  0
 77146  1  0  0  0
 78147  1  0  0  0
 78148  1  0  0  0
 79149  1  0  0  0
 80150  1  0  0  0
M  ISO  4   1 100  68 101  78 101  80 100
M  END
> <chiral flag>
0

> <version>
0

> <s_m_source_file>
/data/baiqing/PycharmProjects/Reinvent-master-3.2/result/LINK_invent/BTK/process_docking_weight1_custom_product_contain_oxygen_bond_distance_aromatic_linkinvent_7_9_3/rearranged_h_0179.sdf

> <i_m_source_file_index>
10

> <r_mmod_Potential_Energy-OPLS-2005>
-69.4186935424805

> <r_mmod_Stretch_Energy-OPLS-2005>
44.5730972290039

> <r_mmod_Bend_Energy-OPLS-2005>
129.91291809082

> <r_mmod_Torsional_Energy-OPLS-2005>
211.327163696289

> <r_mmod_Improper_Torsional_Energy-OPLS-2005>
4.44251775741577

> <r_mmod_Van_der_Waal_Energy-OPLS-2005>
133.10383605957

> <r_mmod_Electrostatic_Energy-OPLS-2005>
-378.461853027344

> <r_mmod_Solvation_Energy-OPLS-2005>
-232.669250488281

> <b_mmod_Minimization_Converged-OPLS-2005>
0

> <r_mmod_RMS_Derivative-OPLS-2005>
3.60701823234558

$$$$
10
                    3D
 Structure written by MMmdl.
152160  0  0  1  0            999 V2000
  -30.7005  -14.5378   20.5259 C   0  0  0  0  0  0
  -30.4198  -12.3360   19.4441 C   0  0  0  0  0  0
  -29.5031  -12.5192   18.2176 C   0  0  0  0  0  0
  -28.0231  -12.3772   18.6188 C   0  0  0  0  0  0
  -27.6589  -13.2200   19.8697 C   0  0  2  0  0  0
  -28.7017  -13.0491   20.9995 C   0  0  0  0  0  0
  -25.2558  -13.8151   20.5701 C   0  0  0  0  0  0
  -24.1828  -13.0412   20.9190 C   0  0  0  0  0  0
  -24.6389  -11.6882   20.8709 C   0  0  0  0  0  0
  -23.9046  -10.4260   21.0366 C   0  0  0  0  0  0
  -24.3573   -9.4182   21.9167 C   0  0  0  0  0  0
  -23.6261   -8.2217   22.0748 C   0  0  0  0  0  0
  -22.4250   -8.0253   21.3554 C   0  0  0  0  0  0
  -21.9869   -9.0214   20.4648 C   0  0  0  0  0  0
  -22.7190  -10.2099   20.3042 C   0  0  0  0  0  0
  -21.6852   -6.0727   22.5287 C   0  0  0  0  0  0
  -21.4017   -6.5636   23.8213 C   0  0  0  0  0  0
  -21.3669   -5.6792   24.9180 C   0  0  0  0  0  0
  -21.6041   -4.3049   24.7228 C   0  0  0  0  0  0
  -21.8812   -3.8137   23.4350 C   0  0  0  0  0  0
  -21.9200   -4.6953   22.3410 C   0  0  0  0  0  0
  -22.7852  -13.5221   21.1844 C   0  0  0  0  0  0
  -22.1676   -4.2134   21.0996 F   0  0  0  0  0  0
  -21.5607   -3.4534   25.7746 F   0  0  0  0  0  0
  -30.0333  -13.3489   20.4424 N   0  0  0  0  0  0
  -26.3019  -12.9343   20.3342 N   0  0  0  0  0  0
  -25.9331  -11.6479   20.5696 N   0  0  0  0  0  0
  -22.0469  -12.8243   22.0396 N   0  0  0  0  0  0
  -25.4255  -15.1870   20.4144 N   0  0  0  0  0  0
  -31.8466  -14.6732   20.0847 O   0  0  0  0  0  0
  -21.6614   -6.8850   21.4245 O   0  0  0  0  0  0
  -22.3554  -14.5549   20.6714 O   0  0  0  0  0  0
  -24.6178  -31.8670   23.2087 C   0  0  0  0  0  0
  -25.9056  -32.4814   23.8408 C   0  0  1  0  0  0
  -27.2410  -27.4081   20.1115 C   0  0  0  0  0  0
  -25.5898  -33.8619   24.2340 N   0  0  0  0  0  0
  -23.4079  -30.4871   21.5501 C   0  0  2  0  0  0
  -24.8582  -28.9482   20.1194 C   0  0  0  0  0  0
  -22.7450  -29.4622   22.4988 C   0  0  0  0  0  0
  -18.0276  -28.1350   22.8495 C   0  0  0  0  0  0
  -24.1480  -36.7308   23.2639 C   0  0  0  0  0  0
  -25.9408  -30.8248   21.3642 C   0  0  0  0  0  0
  -26.0209  -29.4561   20.7145 C   0  0  0  0  0  0
  -27.2173  -28.6956   20.7031 C   0  0  0  0  0  0
  -26.0612  -26.9208   19.5100 C   0  0  0  0  0  0
  -24.8760  -27.6800   19.5127 C   0  0  0  0  0  0
  -23.6200  -29.8166   20.1670 C   0  0  0  0  0  0
  -25.4101  -36.3115   24.0344 C   0  0  1  0  0  0
  -20.5880  -28.3632   23.1322 C   0  0  2  0  0  0
  -20.6766  -26.9361   22.5425 C   0  0  0  0  0  0
  -19.5742  -26.6359   21.5210 C   0  0  0  0  0  0
  -18.1916  -26.7905   22.1614 C   0  0  0  0  0  0
  -19.1538  -28.8813   23.2901 C   0  0  0  0  0  0
  -18.9457  -30.1428   23.8898 C   0  0  0  0  0  0
  -17.6453  -30.6566   24.0551 C   0  0  0  0  0  0
  -25.9032  -34.9479   23.5140 C   0  0  0  0  0  0
  -16.5337  -29.9060   23.6321 C   0  0  0  0  0  0
  -16.7264  -28.6472   23.0349 C   0  0  0  0  0  0
  -26.4484  -31.6586   25.0729 C   0  0  0  0  0  0
  -25.3728  -31.3708   26.1462 C   0  0  0  0  0  0
  -27.0312  -30.3024   24.6105 C   0  0  0  0  0  0
  -27.6093  -32.4277   25.7481 C   0  0  0  0  0  0
  -27.5589  -37.1816   24.8464 C   0  0  0  0  0  0
  -21.4168  -29.3003   22.3743 N   0  0  0  0  0  0
  -26.4287  -37.3796   23.9413 N   0  0  0  0  0  0
  -24.6738  -31.0742   22.0990 N   0  0  0  0  0  0
  -23.4226  -28.8158   23.3018 O   0  0  0  0  0  0
  -28.3894  -26.6356   20.0935 O   0  0  0  0  0  0
  -26.5602  -34.8936   22.4711 O   0  0  0  0  0  0
  -23.5361  -32.1431   23.7463 O   0  0  0  0  0  0
  -29.6438  -18.0254   21.3829 C   0  0  0  0  0  0
  -30.0166  -19.3233   20.8455 C   0  0  0  0  0  0
  -30.1883  -16.9320   20.7423 C   0  0  0  0  0  0
  -29.6137  -20.6612   21.4587 C   0  0  0  0  0  0
  -29.1322  -24.2272   20.2475 C   0  0  0  0  0  0
  -28.2952  -25.3964   20.8411 C   0  0  0  0  0  0
  -29.6881  -23.1762   21.2570 C   0  0  2  0  0  0
  -31.0222  -23.6372   21.8920 C   0  0  0  0  0  0
  -30.8027  -19.2349   19.7841 N   0  0  0  0  0  0
  -30.0008  -15.5936   21.0079 N   0  0  0  0  0  0
  -29.8162  -21.7854   20.7284 N   0  0  0  0  0  0
  -29.1332  -20.7345   22.5919 O   0  0  0  0  0  0
  -29.3236  -24.1535   19.0276 O   0  0  0  0  0  0
  -28.8512  -17.8874   22.4207 F   0  0  0  0  0  0
  -31.4437  -22.7716   22.8143 F   0  0  0  0  0  0
  -30.8853  -24.8259   22.4791 F   0  0  0  0  0  0
  -31.9653  -23.7464   20.9555 F   0  0  0  0  0  0
  -31.1360  -17.6117   19.4441 S   0  0  0  0  0  0
  -31.4662  -12.4140   19.1474 H   0  0  0  0  0  0
  -30.3016  -11.3331   19.8563 H   0  0  0  0  0  0
  -29.7558  -11.7968   17.4404 H   0  0  0  0  0  0
  -29.6708  -13.5041   17.7775 H   0  0  0  0  0  0
  -27.8285  -11.3222   18.8090 H   0  0  0  0  0  0
  -27.3821  -12.6604   17.7839 H   0  0  0  0  0  0
  -27.6925  -14.2631   19.5571 H   0  0  0  0  0  0
  -28.6828  -12.0271   21.3838 H   0  0  0  0  0  0
  -28.4597  -13.6880   21.8500 H   0  0  0  0  0  0
  -25.2699   -9.5671   22.4758 H   0  0  0  0  0  0
  -23.9959   -7.4595   22.7463 H   0  0  0  0  0  0
  -21.0805   -8.8707   19.8963 H   0  0  0  0  0  0
  -22.3610  -10.9617   19.6143 H   0  0  0  0  0  0
  -21.2018   -7.6136   23.9717 H   0  0  0  0  0  0
  -21.1514   -6.0520   25.9084 H   0  0  0  0  0  0
  -22.0599   -2.7599   23.2848 H   0  0  0  0  0  0
  -22.4011  -11.9900   22.4845 H   0  0  0  0  0  0
  -21.1104  -13.1308   22.2587 H   0  0  0  0  0  0
  -24.6564  -15.8389   20.5220 H   0  0  0  0  0  0
  -26.2793  -15.6325   20.1053 H   0  0  0  0  0  0
  -26.7137  -32.5526   23.1183 H   0  0  0  0  0  0
  -25.0078  -33.9773   25.0505 H   0  0  0  0  0  0
  -22.6944  -31.3029   21.4099 H   0  0  0  0  0  0
  -23.3751  -35.9628   23.3295 H   0  0  0  0  0  0
  -24.3583  -36.8914   22.2055 H   0  0  0  0  0  0
  -23.7226  -37.6512   23.6652 H   0  0  0  0  0  0
  -26.0549  -31.5831   20.5912 H   0  0  0  0  0  0
  -26.8304  -30.8836   21.9805 H   0  0  0  0  0  0
  -28.1152  -29.0890   21.1598 H   0  0  0  0  0  0
  -26.0580  -25.9486   19.0381 H   0  0  0  0  0  0
  -23.9810  -27.2784   19.0570 H   0  0  0  0  0  0
  -23.7351  -30.5903   19.4067 H   0  0  0  0  0  0
  -22.7420  -29.2378   19.8688 H   0  0  0  0  0  0
  -25.1276  -36.1998   25.0841 H   0  0  0  0  0  0
  -20.9986  -28.3178   24.1430 H   0  0  0  0  0  0
  -20.5661  -26.2219   23.3602 H   0  0  0  0  0  0
  -21.6641  -26.7383   22.1218 H   0  0  0  0  0  0
  -19.6897  -25.6274   21.1224 H   0  0  0  0  0  0
  -19.6694  -27.3195   20.6771 H   0  0  0  0  0  0
  -17.4206  -26.6669   21.4000 H   0  0  0  0  0  0
  -18.0295  -26.0035   22.9012 H   0  0  0  0  0  0
  -19.7934  -30.7255   24.2262 H   0  0  0  0  0  0
  -17.5001  -31.6255   24.5139 H   0  0  0  0  0  0
  -15.5339  -30.2957   23.7637 H   0  0  0  0  0  0
  -15.8661  -28.0781   22.7064 H   0  0  0  0  0  0
  -24.5880  -30.7092   25.7784 H   0  0  0  0  0  0
  -24.8929  -32.2858   26.4945 H   0  0  0  0  0  0
  -25.8038  -30.8834   27.0208 H   0  0  0  0  0  0
  -26.2858  -29.6791   24.1148 H   0  0  0  0  0  0
  -27.4073  -29.7273   25.4581 H   0  0  0  0  0  0
  -27.8707  -30.4355   23.9271 H   0  0  0  0  0  0
  -27.2784  -33.3594   26.2088 H   0  0  0  0  0  0
  -28.3896  -32.6792   25.0285 H   0  0  0  0  0  0
  -28.0773  -31.8358   26.5350 H   0  0  0  0  0  0
  -28.2614  -38.0118   24.7532 H   0  0  0  0  0  0
  -28.1077  -36.2646   24.6254 H   0  0  0  0  0  0
  -27.2309  -37.1449   25.8871 H   0  0  0  0  0  0
  -20.9339  -29.8723   21.6960 H   0  0  0  0  0  0
  -26.0174  -38.2875   24.1413 H   0  0  0  0  0  0
  -28.6267  -25.5895   21.8610 H   0  0  0  0  0  0
  -27.2620  -25.0590   20.9143 H   0  0  0  0  0  0
  -28.9622  -23.1475   22.0704 H   0  0  0  0  0  0
  -29.1618  -15.3669   21.5183 H   0  0  0  0  0  0
  -30.2376  -21.6746   19.8157 H   0  0  0  0  0  0
  1 25  1  0  0  0
  1 30  2  0  0  0
  1 80  1  0  0  0
  2  3  1  0  0  0
  2 25  1  0  0  0
  2 89  1  0  0  0
  2 90  1  0  0  0
  3  4  1  0  0  0
  3 91  1  0  0  0
  3 92  1  0  0  0
  4  5  1  0  0  0
  4 93  1  0  0  0
  4 94  1  0  0  0
  5  6  1  0  0  0
  5 26  1  0  0  0
  5 95  1  0  0  0
  6 25  1  0  0  0
  6 96  1  0  0  0
  6 97  1  0  0  0
  7  8  2  0  0  0
  7 26  1  0  0  0
  7 29  1  0  0  0
  8  9  1  0  0  0
  8 22  1  0  0  0
  9 10  1  0  0  0
  9 27  2  0  0  0
 10 11  2  0  0  0
 10 15  1  0  0  0
 11 12  1  0  0  0
 11 98  1  0  0  0
 12 13  2  0  0  0
 12 99  1  0  0  0
 13 14  1  0  0  0
 13 31  1  0  0  0
 14 15  2  0  0  0
 14100  1  0  0  0
 15101  1  0  0  0
 16 17  2  0  0  0
 16 21  1  0  0  0
 16 31  1  0  0  0
 17 18  1  0  0  0
 17102  1  0  0  0
 18 19  2  0  0  0
 18103  1  0  0  0
 19 20  1  0  0  0
 19 24  1  0  0  0
 20 21  2  0  0  0
 20104  1  0  0  0
 21 23  1  0  0  0
 22 28  1  0  0  0
 22 32  2  0  0  0
 26 27  1  0  0  0
 28105  1  0  0  0
 28106  1  0  0  0
 29107  1  0  0  0
 29108  1  0  0  0
 33 34  1  0  0  0
 33 66  1  0  0  0
 33 70  2  0  0  0
 34 36  1  0  0  0
 34 59  1  0  0  0
 34109  1  0  0  0
 35 44  2  0  0  0
 35 45  1  0  0  0
 35 68  1  0  0  0
 36 56  1  0  0  0
 36110  1  0  0  0
 37 39  1  0  0  0
 37 47  1  0  0  0
 37 66  1  0  0  0
 37111  1  0  0  0
 38 43  2  0  0  0
 38 46  1  0  0  0
 38 47  1  0  0  0
 39 64  1  0  0  0
 39 67  2  0  0  0
 40 52  1  0  0  0
 40 53  2  0  0  0
 40 58  1  0  0  0
 41112  1  0  0  0
 41113  1  0  0  0
 41114  1  0  0  0
 41 48  1  0  0  0
 42 43  1  0  0  0
 42 66  1  0  0  0
 42115  1  0  0  0
 42116  1  0  0  0
 43 44  1  0  0  0
 44117  1  0  0  0
 45 46  2  0  0  0
 45118  1  0  0  0
 46119  1  0  0  0
 47120  1  0  0  0
 47121  1  0  0  0
 48 56  1  0  0  0
 48 65  1  0  0  0
 48122  1  0  0  0
 49 50  1  0  0  0
 49 53  1  0  0  0
 49 64  1  0  0  0
 49123  1  0  0  0
 50 51  1  0  0  0
 50124  1  0  0  0
 50125  1  0  0  0
 51 52  1  0  0  0
 51126  1  0  0  0
 51127  1  0  0  0
 52128  1  0  0  0
 52129  1  0  0  0
 53 54  1  0  0  0
 54 55  2  0  0  0
 54130  1  0  0  0
 55 57  1  0  0  0
 55131  1  0  0  0
 56 69  2  0  0  0
 57 58  2  0  0  0
 57132  1  0  0  0
 58133  1  0  0  0
 59 60  1  0  0  0
 59 61  1  0  0  0
 59 62  1  0  0  0
 60134  1  0  0  0
 60135  1  0  0  0
 60136  1  0  0  0
 61137  1  0  0  0
 61138  1  0  0  0
 61139  1  0  0  0
 62140  1  0  0  0
 62141  1  0  0  0
 62142  1  0  0  0
 63 65  1  0  0  0
 63143  1  0  0  0
 63144  1  0  0  0
 63145  1  0  0  0
 64146  1  0  0  0
 65147  1  0  0  0
 68 76  1  0  0  0
 71 72  1  0  0  0
 71 73  2  0  0  0
 71 84  1  0  0  0
 72 74  1  0  0  0
 72 79  2  0  0  0
 73 80  1  0  0  0
 73 88  1  0  0  0
 74 81  1  0  0  0
 74 82  2  0  0  0
 75 76  1  0  0  0
 75 77  1  0  0  0
 75 83  2  0  0  0
 76148  1  0  0  0
 76149  1  0  0  0
 77 78  1  0  0  0
 77 81  1  0  0  0
 77150  1  0  0  0
 78 85  1  0  0  0
 78 86  1  0  0  0
 78 87  1  0  0  0
 79 88  1  0  0  0
 80151  1  0  0  0
 81152  1  0  0  0
M  ISO  4   1 100  68 101  76 101  80 100
M  END
> <chiral flag>
0

> <version>
0

> <s_m_source_file>
/data/baiqing/PycharmProjects/Reinvent-master-3.2/result/LINK_invent/BTK/process_docking_weight1_custom_product_contain_oxygen_bond_distance_aromatic_linkinvent_7_9_3/rearranged_h_0179.sdf

> <i_m_source_file_index>
11

> <r_mmod_Potential_Energy-OPLS-2005>
-194.857040405273

> <r_mmod_Stretch_Energy-OPLS-2005>
49.688720703125

> <r_mmod_Bend_Energy-OPLS-2005>
107.786773681641

> <r_mmod_Torsional_Energy-OPLS-2005>
236.373336791992

> <r_mmod_Improper_Torsional_Energy-OPLS-2005>
3.58627390861511

> <r_mmod_Van_der_Waal_Energy-OPLS-2005>
131.391754150391

> <r_mmod_Electrostatic_Energy-OPLS-2005>
-511.296508789062

> <r_mmod_Solvation_Energy-OPLS-2005>
-232.441040039062

> <b_mmod_Minimization_Converged-OPLS-2005>
0

> <r_mmod_RMS_Derivative-OPLS-2005>
3.83815407752991

$$$$
11
                    3D
 Structure written by MMmdl.
157165  0  0  1  0            999 V2000
  -30.6472  -14.6232   20.4889 C   0  0  0  0  0  0
  -30.4311  -12.3745   19.4605 C   0  0  0  0  0  0
  -29.5109  -12.4511   18.2216 C   0  0  0  0  0  0
  -28.0206  -12.3530   18.6118 C   0  0  0  0  0  0
  -27.6425  -13.2170   19.8454 C   0  0  2  0  0  0
  -28.6843  -13.0847   20.9807 C   0  0  0  0  0  0
  -25.2484  -13.8129   20.5647 C   0  0  0  0  0  0
  -24.1773  -13.0381   20.9177 C   0  0  0  0  0  0
  -24.6355  -11.6859   20.8687 C   0  0  0  0  0  0
  -23.9004  -10.4253   21.0367 C   0  0  0  0  0  0
  -24.3562   -9.4169   21.9155 C   0  0  0  0  0  0
  -23.6254   -8.2189   22.0706 C   0  0  0  0  0  0
  -22.4230   -8.0226   21.3517 C   0  0  0  0  0  0
  -21.9853   -9.0185   20.4600 C   0  0  0  0  0  0
  -22.7159  -10.2081   20.3015 C   0  0  0  0  0  0
  -21.6829   -6.0677   22.5269 C   0  0  0  0  0  0
  -21.4002   -6.5586   23.8197 C   0  0  0  0  0  0
  -21.3680   -5.6760   24.9177 C   0  0  0  0  0  0
  -21.6074   -4.3024   24.7234 C   0  0  0  0  0  0
  -21.8817   -3.8094   23.4357 C   0  0  0  0  0  0
  -21.9168   -4.6905   22.3407 C   0  0  0  0  0  0
  -22.7793  -13.5131   21.1879 C   0  0  0  0  0  0
  -22.1621   -4.2080   21.0983 F   0  0  0  0  0  0
  -21.5665   -3.4514   25.7754 F   0  0  0  0  0  0
  -30.0070  -13.4102   20.4252 N   0  0  0  0  0  0
  -26.2898  -12.9331   20.3186 N   0  0  0  0  0  0
  -25.9283  -11.6479   20.5674 N   0  0  0  0  0  0
  -22.0505  -12.8094   22.0451 N   0  0  0  0  0  0
  -25.4188  -15.1882   20.4125 N   0  0  0  0  0  0
  -31.8102  -14.7469   20.0799 O   0  0  0  0  0  0
  -21.6602   -6.8826   21.4218 O   0  0  0  0  0  0
  -22.3445  -14.5434   20.6744 O   0  0  0  0  0  0
  -24.6179  -31.8633   23.2045 C   0  0  0  0  0  0
  -25.9047  -32.4797   23.8366 C   0  0  1  0  0  0
  -27.2361  -27.3882   20.1029 C   0  0  0  0  0  0
  -25.5888  -33.8601   24.2300 N   0  0  0  0  0  0
  -23.4084  -30.4838   21.5466 C   0  0  2  0  0  0
  -24.8546  -28.9431   20.1090 C   0  0  0  0  0  0
  -22.7434  -29.4617   22.4971 C   0  0  0  0  0  0
  -18.0269  -28.1384   22.8493 C   0  0  0  0  0  0
  -24.1493  -36.7320   23.2634 C   0  0  0  0  0  0
  -25.9368  -30.8161   21.3594 C   0  0  0  0  0  0
  -26.0136  -29.4435   20.7126 C   0  0  0  0  0  0
  -27.2004  -28.6700   20.7131 C   0  0  0  0  0  0
  -26.0543  -26.9101   19.4919 C   0  0  0  0  0  0
  -24.8719  -27.6777   19.4956 C   0  0  0  0  0  0
  -23.6171  -29.8130   20.1614 C   0  0  0  0  0  0
  -25.4108  -36.3099   24.0332 C   0  0  1  0  0  0
  -20.5863  -28.3659   23.1320 C   0  0  2  0  0  0
  -20.6749  -26.9395   22.5415 C   0  0  0  0  0  0
  -19.5729  -26.6387   21.5212 C   0  0  0  0  0  0
  -18.1913  -26.7932   22.1625 C   0  0  0  0  0  0
  -19.1520  -28.8840   23.2904 C   0  0  0  0  0  0
  -18.9447  -30.1446   23.8914 C   0  0  0  0  0  0
  -17.6446  -30.6585   24.0572 C   0  0  0  0  0  0
  -25.9037  -34.9463   23.5121 C   0  0  0  0  0  0
  -16.5338  -29.9087   23.6327 C   0  0  0  0  0  0
  -16.7255  -28.6505   23.0344 C   0  0  0  0  0  0
  -26.4474  -31.6583   25.0707 C   0  0  0  0  0  0
  -25.3737  -31.3682   26.1455 C   0  0  0  0  0  0
  -27.0294  -30.3029   24.6059 C   0  0  0  0  0  0
  -27.6051  -32.4294   25.7480 C   0  0  0  0  0  0
  -27.5584  -37.1811   24.8455 C   0  0  0  0  0  0
  -21.4151  -29.3029   22.3732 N   0  0  0  0  0  0
  -26.4289  -37.3785   23.9404 N   0  0  0  0  0  0
  -24.6733  -31.0710   22.0955 N   0  0  0  0  0  0
  -23.4184  -28.8156   23.3031 O   0  0  0  0  0  0
  -28.4044  -26.6396   20.1662 O   0  0  0  0  0  0
  -26.5607  -34.8918   22.4687 O   0  0  0  0  0  0
  -23.5362  -32.1403   23.7415 O   0  0  0  0  0  0
  -29.0579  -19.2014   18.5530 C   0  0  0  0  0  0
  -29.0819  -17.9349   17.9482 C   0  0  0  0  0  0
  -29.3986  -16.8041   18.7244 C   0  0  0  0  0  0
  -29.3541  -19.3459   19.9270 C   0  0  0  0  0  0
  -29.7023  -16.9287   20.1042 C   0  0  0  0  0  0
  -28.3066  -24.1025   19.8111 C   0  0  0  0  0  0
  -29.1199  -23.0005   19.8785 C   0  0  0  0  0  0
  -28.5382  -21.6857   20.2586 C   0  0  0  0  0  0
  -30.6061  -23.0395   19.5106 C   0  0  0  0  0  0
  -28.6398  -25.5209   19.2796 C   0  0  0  0  0  0
  -29.6655  -18.2096   20.6442 N   0  3  0  0  0  0
  -28.7925  -17.7882   16.5859 N   0  0  0  0  0  0
  -29.4438  -20.6847   20.4576 N   0  0  0  0  0  0
  -29.9097  -15.7118   20.8790 N   0  0  0  0  0  0
  -27.3264  -21.4733   20.3701 O   0  0  0  0  0  0
  -29.3637  -15.5910   18.1283 F   0  0  0  0  0  0
  -31.4722  -12.4965   19.1540 H   0  0  0  0  0  0
  -30.3710  -11.3881   19.9195 H   0  0  0  0  0  0
  -29.7576  -11.6429   17.5332 H   0  0  0  0  0  0
  -29.6981  -13.3658   17.6633 H   0  0  0  0  0  0
  -27.8032  -11.3029   18.8085 H   0  0  0  0  0  0
  -27.3953  -12.6325   17.7621 H   0  0  0  0  0  0
  -27.6498  -14.2485   19.4958 H   0  0  0  0  0  0
  -28.6875  -12.0665   21.3739 H   0  0  0  0  0  0
  -28.4177  -13.7235   21.8239 H   0  0  0  0  0  0
  -25.2712   -9.5623   22.4728 H   0  0  0  0  0  0
  -23.9964   -7.4534   22.7378 H   0  0  0  0  0  0
  -21.0793   -8.8640   19.8896 H   0  0  0  0  0  0
  -22.3578  -10.9591   19.6099 H   0  0  0  0  0  0
  -21.1986   -7.6093   23.9686 H   0  0  0  0  0  0
  -21.1529   -6.0492   25.9086 H   0  0  0  0  0  0
  -22.0600   -2.7543   23.2864 H   0  0  0  0  0  0
  -22.4171  -11.9729   22.4755 H   0  0  0  0  0  0
  -21.1104  -13.1026   22.2706 H   0  0  0  0  0  0
  -24.6490  -15.8375   20.5363 H   0  0  0  0  0  0
  -26.2527  -15.6348   20.0579 H   0  0  0  0  0  0
  -26.7120  -32.5510   23.1130 H   0  0  0  0  0  0
  -25.0038  -33.9758   25.0450 H   0  0  0  0  0  0
  -22.6997  -31.3024   21.4063 H   0  0  0  0  0  0
  -23.3745  -35.9661   23.3271 H   0  0  0  0  0  0
  -24.3612  -36.8965   22.2057 H   0  0  0  0  0  0
  -23.7245  -37.6518   23.6672 H   0  0  0  0  0  0
  -26.0442  -31.5751   20.5832 H   0  0  0  0  0  0
  -26.8263  -30.8827   21.9718 H   0  0  0  0  0  0
  -28.0914  -29.0510   21.1918 H   0  0  0  0  0  0
  -26.0196  -25.9346   19.0286 H   0  0  0  0  0  0
  -23.9802  -27.2840   19.0279 H   0  0  0  0  0  0
  -23.7230  -30.5867   19.4005 H   0  0  0  0  0  0
  -22.7411  -29.2319   19.8677 H   0  0  0  0  0  0
  -25.1288  -36.1962   25.0826 H   0  0  0  0  0  0
  -20.9961  -28.3210   24.1438 H   0  0  0  0  0  0
  -20.5647  -26.2267   23.3600 H   0  0  0  0  0  0
  -21.6625  -26.7432   22.1214 H   0  0  0  0  0  0
  -19.6885  -25.6302   21.1224 H   0  0  0  0  0  0
  -19.6673  -27.3214   20.6757 H   0  0  0  0  0  0
  -17.4189  -26.6687   21.4021 H   0  0  0  0  0  0
  -18.0305  -26.0070   22.9015 H   0  0  0  0  0  0
  -19.7922  -30.7256   24.2290 H   0  0  0  0  0  0
  -17.5000  -31.6268   24.5172 H   0  0  0  0  0  0
  -15.5340  -30.2991   23.7641 H   0  0  0  0  0  0
  -15.8656  -28.0828   22.7044 H   0  0  0  0  0  0
  -24.5920  -30.7019   25.7785 H   0  0  0  0  0  0
  -24.8919  -32.2833   26.4909 H   0  0  0  0  0  0
  -25.8095  -30.8852   27.0207 H   0  0  0  0  0  0
  -26.2817  -29.6800   24.1127 H   0  0  0  0  0  0
  -27.4092  -29.7256   25.4494 H   0  0  0  0  0  0
  -27.8644  -30.4355   23.9172 H   0  0  0  0  0  0
  -27.2677  -33.3592   26.2064 H   0  0  0  0  0  0
  -28.3868  -32.6838   25.0314 H   0  0  0  0  0  0
  -28.0699  -31.8402   26.5391 H   0  0  0  0  0  0
  -28.2576  -38.0136   24.7541 H   0  0  0  0  0  0
  -28.1115  -36.2671   24.6240 H   0  0  0  0  0  0
  -27.2322  -37.1404   25.8864 H   0  0  0  0  0  0
  -20.9298  -29.8794   21.6997 H   0  0  0  0  0  0
  -26.0179  -38.2859   24.1419 H   0  0  0  0  0  0
  -28.8397  -20.0695   17.9476 H   0  0  0  0  0  0
  -27.2702  -23.9958   20.0998 H   0  0  0  0  0  0
  -30.8913  -23.9094   18.9255 H   0  0  0  0  0  0
  -30.8833  -22.1834   18.8919 H   0  0  0  0  0  0
  -31.2239  -23.0255   20.4100 H   0  0  0  0  0  0
  -28.1313  -25.6663   18.3264 H   0  0  0  0  0  0
  -29.6933  -25.5915   19.0280 H   0  0  0  0  0  0
  -29.8837  -18.3230   21.6391 H   0  0  0  0  0  0
  -28.1894  -18.4834   16.1660 H   0  0  0  0  0  0
  -28.5502  -16.8440   16.3077 H   0  0  0  0  0  0
  -30.3869  -21.0302   20.5624 H   0  0  0  0  0  0
  -29.1225  -15.4676   21.4528 H   0  0  0  0  0  0
  1 25  1  0  0  0
  1 30  2  0  0  0
  1 84  1  0  0  0
  2  3  1  0  0  0
  2 25  1  0  0  0
  2 87  1  0  0  0
  2 88  1  0  0  0
  3  4  1  0  0  0
  3 89  1  0  0  0
  3 90  1  0  0  0
  4  5  1  0  0  0
  4 91  1  0  0  0
  4 92  1  0  0  0
  5  6  1  0  0  0
  5 26  1  0  0  0
  5 93  1  0  0  0
  6 25  1  0  0  0
  6 94  1  0  0  0
  6 95  1  0  0  0
  7  8  2  0  0  0
  7 26  1  0  0  0
  7 29  1  0  0  0
  8  9  1  0  0  0
  8 22  1  0  0  0
  9 10  1  0  0  0
  9 27  2  0  0  0
 10 11  2  0  0  0
 10 15  1  0  0  0
 11 12  1  0  0  0
 11 96  1  0  0  0
 12 13  2  0  0  0
 12 97  1  0  0  0
 13 14  1  0  0  0
 13 31  1  0  0  0
 14 15  2  0  0  0
 14 98  1  0  0  0
 15 99  1  0  0  0
 16 17  2  0  0  0
 16 21  1  0  0  0
 16 31  1  0  0  0
 17 18  1  0  0  0
 17100  1  0  0  0
 18 19  2  0  0  0
 18101  1  0  0  0
 19 20  1  0  0  0
 19 24  1  0  0  0
 20 21  2  0  0  0
 20102  1  0  0  0
 21 23  1  0  0  0
 22 28  1  0  0  0
 22 32  2  0  0  0
 26 27  1  0  0  0
 28103  1  0  0  0
 28104  1  0  0  0
 29105  1  0  0  0
 29106  1  0  0  0
 33 34  1  0  0  0
 33 66  1  0  0  0
 33 70  2  0  0  0
 34 36  1  0  0  0
 34 59  1  0  0  0
 34107  1  0  0  0
 35 44  2  0  0  0
 35 45  1  0  0  0
 35 68  1  0  0  0
 36 56  1  0  0  0
 36108  1  0  0  0
 37 39  1  0  0  0
 37 47  1  0  0  0
 37 66  1  0  0  0
 37109  1  0  0  0
 38 43  2  0  0  0
 38 46  1  0  0  0
 38 47  1  0  0  0
 39 64  1  0  0  0
 39 67  2  0  0  0
 40 52  1  0  0  0
 40 53  2  0  0  0
 40 58  1  0  0  0
 41110  1  0  0  0
 41111  1  0  0  0
 41112  1  0  0  0
 41 48  1  0  0  0
 42 43  1  0  0  0
 42 66  1  0  0  0
 42113  1  0  0  0
 42114  1  0  0  0
 43 44  1  0  0  0
 44115  1  0  0  0
 45 46  2  0  0  0
 45116  1  0  0  0
 46117  1  0  0  0
 47118  1  0  0  0
 47119  1  0  0  0
 48 56  1  0  0  0
 48 65  1  0  0  0
 48120  1  0  0  0
 49 50  1  0  0  0
 49 53  1  0  0  0
 49 64  1  0  0  0
 49121  1  0  0  0
 50 51  1  0  0  0
 50122  1  0  0  0
 50123  1  0  0  0
 51 52  1  0  0  0
 51124  1  0  0  0
 51125  1  0  0  0
 52126  1  0  0  0
 52127  1  0  0  0
 53 54  1  0  0  0
 54 55  2  0  0  0
 54128  1  0  0  0
 55 57  1  0  0  0
 55129  1  0  0  0
 56 69  2  0  0  0
 57 58  2  0  0  0
 57130  1  0  0  0
 58131  1  0  0  0
 59 60  1  0  0  0
 59 61  1  0  0  0
 59 62  1  0  0  0
 60132  1  0  0  0
 60133  1  0  0  0
 60134  1  0  0  0
 61135  1  0  0  0
 61136  1  0  0  0
 61137  1  0  0  0
 62138  1  0  0  0
 62139  1  0  0  0
 62140  1  0  0  0
 63 65  1  0  0  0
 63141  1  0  0  0
 63142  1  0  0  0
 63143  1  0  0  0
 64144  1  0  0  0
 65145  1  0  0  0
 68 80  1  0  0  0
 71 72  2  0  0  0
 71 74  1  0  0  0
 71146  1  0  0  0
 72 73  1  0  0  0
 72 82  1  0  0  0
 73 75  2  0  0  0
 73 86  1  0  0  0
 74 81  2  0  0  0
 74 83  1  0  0  0
 75 81  1  0  0  0
 75 84  1  0  0  0
 76 77  2  0  0  0
 76 80  1  0  0  0
 76147  1  0  0  0
 77 78  1  0  0  0
 77 79  1  0  0  0
 78 83  1  0  0  0
 78 85  2  0  0  0
 79148  1  0  0  0
 79149  1  0  0  0
 79150  1  0  0  0
 80151  1  0  0  0
 80152  1  0  0  0
 81153  1  0  0  0
 82154  1  0  0  0
 82155  1  0  0  0
 83156  1  0  0  0
 84157  1  0  0  0
M  CHG  1  81   1
M  ISO  4   1 100  68 101  80 101  84 100
M  END
> <chiral flag>
0

> <version>
0

> <s_m_source_file>
/data/baiqing/PycharmProjects/Reinvent-master-3.2/result/LINK_invent/BTK/process_docking_weight1_custom_product_contain_oxygen_bond_distance_aromatic_linkinvent_7_9_3/rearranged_h_0179.sdf

> <i_m_source_file_index>
12

> <r_mmod_Potential_Energy-OPLS-2005>
-1.04041421413422

> <r_mmod_Stretch_Energy-OPLS-2005>
64.3903045654297

> <r_mmod_Bend_Energy-OPLS-2005>
124.840850830078

> <r_mmod_Torsional_Energy-OPLS-2005>
307.442199707031

> <r_mmod_Improper_Torsional_Energy-OPLS-2005>
14.0644311904907

> <r_mmod_Van_der_Waal_Energy-OPLS-2005>
158.660415649414

> <r_mmod_Electrostatic_Energy-OPLS-2005>
-236.140533447266

> <r_mmod_Solvation_Energy-OPLS-2005>
-468.961120605469

> <b_mmod_Minimization_Converged-OPLS-2005>
0

> <r_mmod_RMS_Derivative-OPLS-2005>
3.26034259796143

$$$$
12
                    3D
 Structure written by MMmdl.
149157  0  0  1  0            999 V2000
  -30.6422  -14.5358   20.5698 C   0  0  0  0  0  0
  -30.4422  -12.3473   19.4309 C   0  0  0  0  0  0
  -29.5075  -12.5264   18.2142 C   0  0  0  0  0  0
  -28.0278  -12.3669   18.6213 C   0  0  0  0  0  0
  -27.6634  -13.2038   19.8767 C   0  0  2  0  0  0
  -28.7037  -12.9796   20.9976 C   0  0  0  0  0  0
  -25.2600  -13.8149   20.5663 C   0  0  0  0  0  0
  -24.1845  -13.0436   20.9156 C   0  0  0  0  0  0
  -24.6395  -11.6904   20.8727 C   0  0  0  0  0  0
  -23.9057  -10.4295   21.0397 C   0  0  0  0  0  0
  -24.3621   -9.4225   21.9190 C   0  0  0  0  0  0
  -23.6312   -8.2256   22.0762 C   0  0  0  0  0  0
  -22.4287   -8.0289   21.3541 C   0  0  0  0  0  0
  -21.9917   -9.0249   20.4636 C   0  0  0  0  0  0
  -22.7235  -10.2139   20.3048 C   0  0  0  0  0  0
  -21.6844   -6.0742   22.5276 C   0  0  0  0  0  0
  -21.3998   -6.5637   23.8217 C   0  0  0  0  0  0
  -21.3677   -5.6785   24.9176 C   0  0  0  0  0  0
  -21.6059   -4.3049   24.7211 C   0  0  0  0  0  0
  -21.8822   -3.8148   23.4329 C   0  0  0  0  0  0
  -21.9191   -4.6975   22.3388 C   0  0  0  0  0  0
  -22.7870  -13.5247   21.1828 C   0  0  0  0  0  0
  -22.1660   -4.2168   21.0964 F   0  0  0  0  0  0
  -21.5658   -3.4530   25.7722 F   0  0  0  0  0  0
  -30.0323  -13.3205   20.4567 N   0  0  0  0  0  0
  -26.3029  -12.9305   20.3331 N   0  0  0  0  0  0
  -25.9317  -11.6474   20.5737 N   0  0  0  0  0  0
  -22.0474  -12.8254   22.0373 N   0  0  0  0  0  0
  -25.4314  -15.1869   20.4087 N   0  0  0  0  0  0
  -31.7614  -14.7659   20.0989 O   0  0  0  0  0  0
  -21.6632   -6.8891   21.4243 O   0  0  0  0  0  0
  -22.3567  -14.5560   20.6681 O   0  0  0  0  0  0
  -24.6199  -31.8657   23.2096 C   0  0  0  0  0  0
  -25.9091  -32.4792   23.8389 C   0  0  1  0  0  0
  -27.2287  -27.3785   20.0848 C   0  0  0  0  0  0
  -25.5940  -33.8596   24.2318 N   0  0  0  0  0  0
  -23.4078  -30.4921   21.5532 C   0  0  2  0  0  0
  -24.8530  -28.9573   20.1142 C   0  0  0  0  0  0
  -22.7415  -29.4661   22.4984 C   0  0  0  0  0  0
  -18.0262  -28.1379   22.8486 C   0  0  0  0  0  0
  -24.1499  -36.7313   23.2623 C   0  0  0  0  0  0
  -25.9455  -30.8108   21.3739 C   0  0  0  0  0  0
  -26.0188  -29.4434   20.7160 C   0  0  0  0  0  0
  -27.2051  -28.6624   20.7006 C   0  0  0  0  0  0
  -26.0339  -26.9337   19.4644 C   0  0  0  0  0  0
  -24.8595  -27.7048   19.4861 C   0  0  0  0  0  0
  -23.6174  -29.8289   20.1678 C   0  0  0  0  0  0
  -25.4120  -36.3097   24.0321 C   0  0  1  0  0  0
  -20.5850  -28.3675   23.1305 C   0  0  2  0  0  0
  -20.6760  -26.9417   22.5400 C   0  0  0  0  0  0
  -19.5745  -26.6397   21.5198 C   0  0  0  0  0  0
  -18.1921  -26.7931   22.1607 C   0  0  0  0  0  0
  -19.1510  -28.8848   23.2890 C   0  0  0  0  0  0
  -18.9440  -30.1451   23.8891 C   0  0  0  0  0  0
  -17.6433  -30.6581   24.0571 C   0  0  0  0  0  0
  -25.9055  -34.9462   23.5117 C   0  0  0  0  0  0
  -16.5330  -29.9083   23.6341 C   0  0  0  0  0  0
  -16.7249  -28.6502   23.0347 C   0  0  0  0  0  0
  -26.4501  -31.6556   25.0725 C   0  0  0  0  0  0
  -25.3746  -31.3664   26.1452 C   0  0  0  0  0  0
  -27.0316  -30.2967   24.6148 C   0  0  0  0  0  0
  -27.6070  -32.4264   25.7514 C   0  0  0  0  0  0
  -27.5603  -37.1801   24.8445 C   0  0  0  0  0  0
  -21.4136  -29.3044   22.3722 N   0  0  0  0  0  0
  -26.4296  -37.3797   23.9418 N   0  0  0  0  0  0
  -24.6763  -31.0707   22.1024 N   0  0  0  0  0  0
  -23.4170  -28.8192   23.3037 O   0  0  0  0  0  0
  -28.3917  -26.6090   20.1399 O   0  0  0  0  0  0
  -26.5618  -34.8917   22.4677 O   0  0  0  0  0  0
  -23.5384  -32.1451   23.7460 O   0  0  0  0  0  0
  -30.8075  -17.7241   20.4406 C   0  0  0  0  0  0
  -29.8867  -16.8591   21.0046 C   0  0  0  0  0  0
  -29.2422  -19.3063   21.0349 C   0  0  0  0  0  0
  -28.4718  -20.6022   21.2503 C   0  0  0  0  0  0
  -28.5149  -23.0168   20.8432 C   0  0  0  0  0  0
  -29.3237  -24.2013   20.2375 C   0  0  0  0  0  0
  -28.4842  -25.3021   19.4924 C   0  0  0  0  0  0
  -30.4367  -19.0898   20.4600 N   0  0  0  0  0  0
  -29.8756  -15.4934   21.1451 N   0  0  0  0  0  0
  -29.0258  -21.7520   20.7787 N   0  0  0  0  0  0
  -27.3827  -20.5442   21.8384 O   0  0  0  0  0  0
  -27.4298  -23.2889   21.3701 O   0  0  0  0  0  0
  -28.5220  -17.7877   21.6032 S   0  0  0  0  0  0
  -31.4851  -12.4767   19.1341 H   0  0  0  0  0  0
  -30.3712  -11.3325   19.8257 H   0  0  0  0  0  0
  -29.7649  -11.8086   17.4340 H   0  0  0  0  0  0
  -29.6588  -13.5172   17.7808 H   0  0  0  0  0  0
  -27.8510  -11.3087   18.8185 H   0  0  0  0  0  0
  -27.3758  -12.6339   17.7882 H   0  0  0  0  0  0
  -27.7056  -14.2520   19.5814 H   0  0  0  0  0  0
  -28.6944  -11.9362   21.3156 H   0  0  0  0  0  0
  -28.4475  -13.5508   21.8912 H   0  0  0  0  0  0
  -25.2773   -9.5718   22.4750 H   0  0  0  0  0  0
  -24.0029   -7.4648   22.7483 H   0  0  0  0  0  0
  -21.0849   -8.8757   19.8925 H   0  0  0  0  0  0
  -22.3700  -10.9672   19.6152 H   0  0  0  0  0  0
  -21.1962   -7.6143   23.9728 H   0  0  0  0  0  0
  -21.1509   -6.0498   25.9080 H   0  0  0  0  0  0
  -22.0586   -2.7610   23.2792 H   0  0  0  0  0  0
  -22.4039  -11.9897   22.4775 H   0  0  0  0  0  0
  -21.1094  -13.1299   22.2537 H   0  0  0  0  0  0
  -24.6614  -15.8385   20.5123 H   0  0  0  0  0  0
  -26.2838  -15.6275   20.0866 H   0  0  0  0  0  0
  -26.7154  -32.5483   23.1140 H   0  0  0  0  0  0
  -25.0067  -33.9766   25.0447 H   0  0  0  0  0  0
  -22.6990  -31.3119   21.4150 H   0  0  0  0  0  0
  -23.3773  -35.9629   23.3241 H   0  0  0  0  0  0
  -24.3605  -36.8985   22.2047 H   0  0  0  0  0  0
  -23.7232  -37.6492   23.6675 H   0  0  0  0  0  0
  -26.0700  -31.5760   20.6059 H   0  0  0  0  0  0
  -26.8286  -30.8573   21.9987 H   0  0  0  0  0  0
  -28.1026  -29.0370   21.1738 H   0  0  0  0  0  0
  -25.9466  -25.9918   18.9502 H   0  0  0  0  0  0
  -23.9651  -27.3269   19.0097 H   0  0  0  0  0  0
  -23.7255  -30.6051   19.4092 H   0  0  0  0  0  0
  -22.7400  -29.2509   19.8725 H   0  0  0  0  0  0
  -25.1289  -36.1948   25.0809 H   0  0  0  0  0  0
  -20.9932  -28.3236   24.1429 H   0  0  0  0  0  0
  -20.5668  -26.2274   23.3576 H   0  0  0  0  0  0
  -21.6631  -26.7479   22.1181 H   0  0  0  0  0  0
  -19.6910  -25.6316   21.1211 H   0  0  0  0  0  0
  -19.6682  -27.3218   20.6739 H   0  0  0  0  0  0
  -17.4189  -26.6680   21.4007 H   0  0  0  0  0  0
  -18.0327  -26.0055   22.8983 H   0  0  0  0  0  0
  -19.7915  -30.7284   24.2232 H   0  0  0  0  0  0
  -17.4994  -31.6260   24.5184 H   0  0  0  0  0  0
  -15.5328  -30.2985   23.7675 H   0  0  0  0  0  0
  -15.8640  -28.0835   22.7051 H   0  0  0  0  0  0
  -24.5941  -30.6997   25.7776 H   0  0  0  0  0  0
  -24.8912  -32.2804   26.4902 H   0  0  0  0  0  0
  -25.8075  -30.8825   27.0214 H   0  0  0  0  0  0
  -26.2863  -29.6734   24.1184 H   0  0  0  0  0  0
  -27.4013  -29.7205   25.4645 H   0  0  0  0  0  0
  -27.8748  -30.4230   23.9352 H   0  0  0  0  0  0
  -27.2689  -33.3557   26.2115 H   0  0  0  0  0  0
  -28.3890  -32.6821   25.0351 H   0  0  0  0  0  0
  -28.0724  -31.8356   26.5418 H   0  0  0  0  0  0
  -28.2542  -38.0179   24.7600 H   0  0  0  0  0  0
  -28.1178  -36.2711   24.6127 H   0  0  0  0  0  0
  -27.2334  -37.1269   25.8847 H   0  0  0  0  0  0
  -20.9288  -29.8759   21.6939 H   0  0  0  0  0  0
  -26.0172  -38.2857   24.1469 H   0  0  0  0  0  0
  -31.7555  -17.4584   19.9929 H   0  0  0  0  0  0
  -30.0402  -23.7815   19.5314 H   0  0  0  0  0  0
  -29.9194  -24.6568   21.0283 H   0  0  0  0  0  0
  -27.5308  -24.8462   19.2489 H   0  0  0  0  0  0
  -28.9520  -25.4871   18.5234 H   0  0  0  0  0  0
  -29.0360  -15.1232   21.5644 H   0  0  0  0  0  0
  -29.9209  -21.6205   20.3347 H   0  0  0  0  0  0
  1 25  1  0  0  0
  1 30  2  0  0  0
  1 79  1  0  0  0
  2  3  1  0  0  0
  2 25  1  0  0  0
  2 84  1  0  0  0
  2 85  1  0  0  0
  3  4  1  0  0  0
  3 86  1  0  0  0
  3 87  1  0  0  0
  4  5  1  0  0  0
  4 88  1  0  0  0
  4 89  1  0  0  0
  5  6  1  0  0  0
  5 26  1  0  0  0
  5 90  1  0  0  0
  6 25  1  0  0  0
  6 91  1  0  0  0
  6 92  1  0  0  0
  7  8  2  0  0  0
  7 26  1  0  0  0
  7 29  1  0  0  0
  8  9  1  0  0  0
  8 22  1  0  0  0
  9 10  1  0  0  0
  9 27  2  0  0  0
 10 11  2  0  0  0
 10 15  1  0  0  0
 11 12  1  0  0  0
 11 93  1  0  0  0
 12 13  2  0  0  0
 12 94  1  0  0  0
 13 14  1  0  0  0
 13 31  1  0  0  0
 14 15  2  0  0  0
 14 95  1  0  0  0
 15 96  1  0  0  0
 16 17  2  0  0  0
 16 21  1  0  0  0
 16 31  1  0  0  0
 17 18  1  0  0  0
 17 97  1  0  0  0
 18 19  2  0  0  0
 18 98  1  0  0  0
 19 20  1  0  0  0
 19 24  1  0  0  0
 20 21  2  0  0  0
 20 99  1  0  0  0
 21 23  1  0  0  0
 22 28  1  0  0  0
 22 32  2  0  0  0
 26 27  1  0  0  0
 28100  1  0  0  0
 28101  1  0  0  0
 29102  1  0  0  0
 29103  1  0  0  0
 33 34  1  0  0  0
 33 66  1  0  0  0
 33 70  2  0  0  0
 34 36  1  0  0  0
 34 59  1  0  0  0
 34104  1  0  0  0
 35 44  2  0  0  0
 35 45  1  0  0  0
 35 68  1  0  0  0
 36 56  1  0  0  0
 36105  1  0  0  0
 37 39  1  0  0  0
 37 47  1  0  0  0
 37 66  1  0  0  0
 37106  1  0  0  0
 38 43  2  0  0  0
 38 46  1  0  0  0
 38 47  1  0  0  0
 39 64  1  0  0  0
 39 67  2  0  0  0
 40 52  1  0  0  0
 40 53  2  0  0  0
 40 58  1  0  0  0
 41107  1  0  0  0
 41108  1  0  0  0
 41109  1  0  0  0
 41 48  1  0  0  0
 42 43  1  0  0  0
 42 66  1  0  0  0
 42110  1  0  0  0
 42111  1  0  0  0
 43 44  1  0  0  0
 44112  1  0  0  0
 45 46  2  0  0  0
 45113  1  0  0  0
 46114  1  0  0  0
 47115  1  0  0  0
 47116  1  0  0  0
 48 56  1  0  0  0
 48 65  1  0  0  0
 48117  1  0  0  0
 49 50  1  0  0  0
 49 53  1  0  0  0
 49 64  1  0  0  0
 49118  1  0  0  0
 50 51  1  0  0  0
 50119  1  0  0  0
 50120  1  0  0  0
 51 52  1  0  0  0
 51121  1  0  0  0
 51122  1  0  0  0
 52123  1  0  0  0
 52124  1  0  0  0
 53 54  1  0  0  0
 54 55  2  0  0  0
 54125  1  0  0  0
 55 57  1  0  0  0
 55126  1  0  0  0
 56 69  2  0  0  0
 57 58  2  0  0  0
 57127  1  0  0  0
 58128  1  0  0  0
 59 60  1  0  0  0
 59 61  1  0  0  0
 59 62  1  0  0  0
 60129  1  0  0  0
 60130  1  0  0  0
 60131  1  0  0  0
 61132  1  0  0  0
 61133  1  0  0  0
 61134  1  0  0  0
 62135  1  0  0  0
 62136  1  0  0  0
 62137  1  0  0  0
 63 65  1  0  0  0
 63138  1  0  0  0
 63139  1  0  0  0
 63140  1  0  0  0
 64141  1  0  0  0
 65142  1  0  0  0
 68 77  1  0  0  0
 71 72  2  0  0  0
 71 78  1  0  0  0
 71143  1  0  0  0
 72 79  1  0  0  0
 72 83  1  0  0  0
 73 74  1  0  0  0
 73 78  2  0  0  0
 73 83  1  0  0  0
 74 80  1  0  0  0
 74 81  2  0  0  0
 75 76  1  0  0  0
 75 80  1  0  0  0
 75 82  2  0  0  0
 76 77  1  0  0  0
 76144  1  0  0  0
 76145  1  0  0  0
 77146  1  0  0  0
 77147  1  0  0  0
 79148  1  0  0  0
 80149  1  0  0  0
M  ISO  4   1 100  68 101  77 101  79 100
M  END
> <chiral flag>
0

> <version>
0

> <s_m_source_file>
/data/baiqing/PycharmProjects/Reinvent-master-3.2/result/LINK_invent/BTK/process_docking_weight1_custom_product_contain_oxygen_bond_distance_aromatic_linkinvent_7_9_3/rearranged_h_0179.sdf

> <i_m_source_file_index>
13

> <r_mmod_Potential_Energy-OPLS-2005>
-179.270324707031

> <r_mmod_Stretch_Energy-OPLS-2005>
51.2669410705566

> <r_mmod_Bend_Energy-OPLS-2005>
129.067581176758

> <r_mmod_Torsional_Energy-OPLS-2005>
217.166809082031

> <r_mmod_Improper_Torsional_Energy-OPLS-2005>
3.4728786945343

> <r_mmod_Van_der_Waal_Energy-OPLS-2005>
140.540298461914

> <r_mmod_Electrostatic_Energy-OPLS-2005>
-475.285247802734

> <r_mmod_Solvation_Energy-OPLS-2005>
-268.751159667969

> <b_mmod_Minimization_Converged-OPLS-2005>
0

> <r_mmod_RMS_Derivative-OPLS-2005>
2.11086821556091

$$$$
13
                    3D
 Structure written by MMmdl.
157165  0  0  1  0            999 V2000
  -30.6816  -14.4896   20.5588 C   0  0  0  0  0  0
  -30.4260  -12.3155   19.4213 C   0  0  0  0  0  0
  -29.4976  -12.5206   18.2054 C   0  0  0  0  0  0
  -28.0175  -12.3735   18.6141 C   0  0  0  0  0  0
  -27.6605  -13.2076   19.8737 C   0  0  2  0  0  0
  -28.7014  -12.9855   20.9951 C   0  0  0  0  0  0
  -25.2586  -13.8161   20.5677 C   0  0  0  0  0  0
  -24.1836  -13.0439   20.9178 C   0  0  0  0  0  0
  -24.6377  -11.6904   20.8721 C   0  0  0  0  0  0
  -23.9041  -10.4295   21.0400 C   0  0  0  0  0  0
  -24.3603   -9.4213   21.9176 C   0  0  0  0  0  0
  -23.6295   -8.2240   22.0752 C   0  0  0  0  0  0
  -22.4276   -8.0272   21.3546 C   0  0  0  0  0  0
  -21.9899   -9.0238   20.4643 C   0  0  0  0  0  0
  -22.7216  -10.2127   20.3047 C   0  0  0  0  0  0
  -21.6846   -6.0732   22.5278 C   0  0  0  0  0  0
  -21.4005   -6.5640   23.8211 C   0  0  0  0  0  0
  -21.3662   -5.6793   24.9175 C   0  0  0  0  0  0
  -21.6056   -4.3055   24.7222 C   0  0  0  0  0  0
  -21.8820   -3.8141   23.4341 C   0  0  0  0  0  0
  -21.9193   -4.6960   22.3401 C   0  0  0  0  0  0
  -22.7862  -13.5238   21.1849 C   0  0  0  0  0  0
  -22.1668   -4.2146   21.0978 F   0  0  0  0  0  0
  -21.5635   -3.4537   25.7735 F   0  0  0  0  0  0
  -30.0331  -13.2966   20.4464 N   0  0  0  0  0  0
  -26.3011  -12.9323   20.3335 N   0  0  0  0  0  0
  -25.9302  -11.6481   20.5732 N   0  0  0  0  0  0
  -22.0488  -12.8243   22.0397 N   0  0  0  0  0  0
  -25.4330  -15.1881   20.4104 N   0  0  0  0  0  0
  -31.8201  -14.6562   20.1070 O   0  0  0  0  0  0
  -21.6642   -6.8870   21.4238 O   0  0  0  0  0  0
  -22.3558  -14.5549   20.6702 O   0  0  0  0  0  0
  -24.6137  -31.8695   23.2111 C   0  0  0  0  0  0
  -25.9022  -32.4837   23.8413 C   0  0  1  0  0  0
  -27.2326  -27.4404   20.1058 C   0  0  0  0  0  0
  -25.5880  -33.8632   24.2346 N   0  0  0  0  0  0
  -23.4019  -30.4926   21.5505 C   0  0  2  0  0  0
  -24.8504  -28.9538   20.1198 C   0  0  0  0  0  0
  -22.7406  -29.4667   22.4987 C   0  0  0  0  0  0
  -18.0268  -28.1369   22.8488 C   0  0  0  0  0  0
  -24.1485  -36.7330   23.2642 C   0  0  0  0  0  0
  -25.9287  -30.8360   21.3636 C   0  0  0  0  0  0
  -26.0083  -29.4669   20.7197 C   0  0  0  0  0  0
  -27.2052  -28.7159   20.7141 C   0  0  0  0  0  0
  -26.0650  -26.9373   19.5012 C   0  0  0  0  0  0
  -24.8723  -27.6864   19.5083 C   0  0  0  0  0  0
  -23.6133  -29.8234   20.1656 C   0  0  0  0  0  0
  -25.4105  -36.3131   24.0346 C   0  0  1  0  0  0
  -20.5859  -28.3658   23.1320 C   0  0  2  0  0  0
  -20.6755  -26.9392   22.5415 C   0  0  0  0  0  0
  -19.5730  -26.6374   21.5212 C   0  0  0  0  0  0
  -18.1912  -26.7914   22.1623 C   0  0  0  0  0  0
  -19.1518  -28.8828   23.2907 C   0  0  0  0  0  0
  -18.9446  -30.1434   23.8914 C   0  0  0  0  0  0
  -17.6452  -30.6576   24.0564 C   0  0  0  0  0  0
  -25.9023  -34.9491   23.5145 C   0  0  0  0  0  0
  -16.5342  -29.9078   23.6320 C   0  0  0  0  0  0
  -16.7263  -28.6494   23.0343 C   0  0  0  0  0  0
  -26.4450  -31.6599   25.0728 C   0  0  0  0  0  0
  -25.3729  -31.3690   26.1490 C   0  0  0  0  0  0
  -27.0273  -30.3046   24.6079 C   0  0  0  0  0  0
  -27.6037  -32.4304   25.7488 C   0  0  0  0  0  0
  -27.5580  -37.1830   24.8468 C   0  0  0  0  0  0
  -21.4135  -29.3037   22.3727 N   0  0  0  0  0  0
  -26.4295  -37.3813   23.9413 N   0  0  0  0  0  0
  -24.6663  -31.0797   22.1010 N   0  0  0  0  0  0
  -23.4178  -28.8205   23.3025 O   0  0  0  0  0  0
  -28.3860  -26.6969   20.0501 O   0  0  0  0  0  0
  -26.5590  -34.8935   22.4709 O   0  0  0  0  0  0
  -23.5331  -32.1444   23.7509 O   0  0  0  0  0  0
  -29.1712  -19.1099   21.5480 C   0  0  0  0  0  0
  -29.0613  -17.6993   21.5344 C   0  0  0  0  0  0
  -30.3425  -19.7296   21.0585 C   0  0  0  0  0  0
  -30.1157  -16.9078   21.0272 C   0  0  0  0  0  0
  -31.3396  -18.8579   20.5474 C   0  0  0  0  0  0
  -30.5463  -21.2254   21.1977 C   0  0  0  0  0  0
  -28.4912  -24.3445   20.7762 C   0  0  0  0  0  0
  -28.6090  -25.8334   21.1730 C   0  0  0  0  0  0
  -29.8026  -23.5353   20.6462 C   0  0  2  0  0  0
  -30.5769  -23.8944   19.3541 C   0  0  0  0  0  0
  -31.2193  -17.5149   20.5247 N   0  0  0  0  0  0
  -32.5386  -19.2963   19.9962 N   0  0  0  0  0  0
  -29.9351  -15.4891   21.0840 N   0  0  0  0  0  0
  -29.5970  -22.0691   20.7518 N   0  0  0  0  0  0
  -31.5963  -21.6455   21.6867 O   0  0  0  0  0  0
  -27.3758  -23.8407   20.5941 O   0  0  0  0  0  0
  -31.7335  -23.2374   19.2642 F   0  0  0  0  0  0
  -30.8513  -25.1986   19.3181 F   0  0  0  0  0  0
  -29.8391  -23.5976   18.2829 F   0  0  0  0  0  0
  -31.4694  -12.4207   19.1194 H   0  0  0  0  0  0
  -30.3321  -11.3010   19.8120 H   0  0  0  0  0  0
  -29.7419  -11.8065   17.4177 H   0  0  0  0  0  0
  -29.6601  -13.5111   17.7780 H   0  0  0  0  0  0
  -27.8273  -11.3166   18.8019 H   0  0  0  0  0  0
  -27.3684  -12.6555   17.7843 H   0  0  0  0  0  0
  -27.7034  -14.2563   19.5782 H   0  0  0  0  0  0
  -28.6786  -11.9484   21.3326 H   0  0  0  0  0  0
  -28.4595  -13.5806   21.8764 H   0  0  0  0  0  0
  -25.2752   -9.5704   22.4740 H   0  0  0  0  0  0
  -24.0017   -7.4634   22.7469 H   0  0  0  0  0  0
  -21.0832   -8.8750   19.8949 H   0  0  0  0  0  0
  -22.3673  -10.9661   19.6153 H   0  0  0  0  0  0
  -21.1986   -7.6147   23.9715 H   0  0  0  0  0  0
  -21.1492   -6.0519   25.9083 H   0  0  0  0  0  0
  -22.0596   -2.7598   23.2836 H   0  0  0  0  0  0
  -22.4104  -11.9908   22.4793 H   0  0  0  0  0  0
  -21.1097  -13.1270   22.2574 H   0  0  0  0  0  0
  -24.6663  -15.8431   20.5207 H   0  0  0  0  0  0
  -26.2771  -15.6228   20.0591 H   0  0  0  0  0  0
  -26.7096  -32.5560   23.1184 H   0  0  0  0  0  0
  -25.0026  -33.9796   25.0487 H   0  0  0  0  0  0
  -22.6897  -31.3086   21.4115 H   0  0  0  0  0  0
  -23.3728  -35.9680   23.3336 H   0  0  0  0  0  0
  -24.3578  -36.8915   22.2051 H   0  0  0  0  0  0
  -23.7245  -37.6548   23.6630 H   0  0  0  0  0  0
  -26.0356  -31.5968   20.5891 H   0  0  0  0  0  0
  -26.8186  -30.8966   21.9776 H   0  0  0  0  0  0
  -28.1034  -29.1114   21.1676 H   0  0  0  0  0  0
  -26.0814  -25.9677   19.0230 H   0  0  0  0  0  0
  -23.9837  -27.2874   19.0381 H   0  0  0  0  0  0
  -23.7266  -30.5988   19.4067 H   0  0  0  0  0  0
  -22.7360  -29.2472   19.8665 H   0  0  0  0  0  0
  -25.1282  -36.2013   25.0840 H   0  0  0  0  0  0
  -20.9965  -28.3220   24.1439 H   0  0  0  0  0  0
  -20.5644  -26.2272   23.3605 H   0  0  0  0  0  0
  -21.6628  -26.7428   22.1212 H   0  0  0  0  0  0
  -19.6889  -25.6290   21.1227 H   0  0  0  0  0  0
  -19.6666  -27.3198   20.6752 H   0  0  0  0  0  0
  -17.4188  -26.6672   21.4021 H   0  0  0  0  0  0
  -18.0310  -26.0046   22.9008 H   0  0  0  0  0  0
  -19.7931  -30.7236   24.2294 H   0  0  0  0  0  0
  -17.5015  -31.6257   24.5160 H   0  0  0  0  0  0
  -15.5345  -30.2992   23.7629 H   0  0  0  0  0  0
  -15.8661  -28.0823   22.7045 H   0  0  0  0  0  0
  -24.5890  -30.7051   25.7825 H   0  0  0  0  0  0
  -24.8928  -32.2839   26.4979 H   0  0  0  0  0  0
  -25.8096  -30.8824   27.0226 H   0  0  0  0  0  0
  -26.2810  -29.6814   24.1134 H   0  0  0  0  0  0
  -27.4053  -29.7272   25.4525 H   0  0  0  0  0  0
  -27.8650  -30.4368   23.9224 H   0  0  0  0  0  0
  -27.2664  -33.3593   26.2105 H   0  0  0  0  0  0
  -28.3830  -32.6882   25.0300 H   0  0  0  0  0  0
  -28.0723  -31.8398   26.5373 H   0  0  0  0  0  0
  -28.2623  -38.0104   24.7494 H   0  0  0  0  0  0
  -28.1052  -36.2639   24.6321 H   0  0  0  0  0  0
  -27.2303  -37.1517   25.8873 H   0  0  0  0  0  0
  -20.9287  -29.8774   21.6967 H   0  0  0  0  0  0
  -26.0192  -38.2903   24.1377 H   0  0  0  0  0  0
  -28.3733  -19.7061   21.9670 H   0  0  0  0  0  0
  -28.1663  -17.2381   21.9319 H   0  0  0  0  0  0
  -29.6057  -26.0262   21.5683 H   0  0  0  0  0  0
  -27.9064  -26.0447   21.9810 H   0  0  0  0  0  0
  -30.4304  -23.8452   21.4838 H   0  0  0  0  0  0
  -32.8764  -20.2165   20.2547 H   0  0  0  0  0  0
  -33.2671  -18.6153   19.8247 H   0  0  0  0  0  0
  -29.0540  -15.1838   21.4646 H   0  0  0  0  0  0
  -28.7399  -21.7079   20.3574 H   0  0  0  0  0  0
  1 25  1  0  0  0
  1 30  2  0  0  0
  1 83  1  0  0  0
  2  3  1  0  0  0
  2 25  1  0  0  0
  2 90  1  0  0  0
  2 91  1  0  0  0
  3  4  1  0  0  0
  3 92  1  0  0  0
  3 93  1  0  0  0
  4  5  1  0  0  0
  4 94  1  0  0  0
  4 95  1  0  0  0
  5  6  1  0  0  0
  5 26  1  0  0  0
  5 96  1  0  0  0
  6 25  1  0  0  0
  6 97  1  0  0  0
  6 98  1  0  0  0
  7  8  2  0  0  0
  7 26  1  0  0  0
  7 29  1  0  0  0
  8  9  1  0  0  0
  8 22  1  0  0  0
  9 10  1  0  0  0
  9 27  2  0  0  0
 10 11  2  0  0  0
 10 15  1  0  0  0
 11 12  1  0  0  0
 11 99  1  0  0  0
 12 13  2  0  0  0
 12100  1  0  0  0
 13 14  1  0  0  0
 13 31  1  0  0  0
 14 15  2  0  0  0
 14101  1  0  0  0
 15102  1  0  0  0
 16 17  2  0  0  0
 16 21  1  0  0  0
 16 31  1  0  0  0
 17 18  1  0  0  0
 17103  1  0  0  0
 18 19  2  0  0  0
 18104  1  0  0  0
 19 20  1  0  0  0
 19 24  1  0  0  0
 20 21  2  0  0  0
 20105  1  0  0  0
 21 23  1  0  0  0
 22 28  1  0  0  0
 22 32  2  0  0  0
 26 27  1  0  0  0
 28106  1  0  0  0
 28107  1  0  0  0
 29108  1  0  0  0
 29109  1  0  0  0
 33 34  1  0  0  0
 33 66  1  0  0  0
 33 70  2  0  0  0
 34 36  1  0  0  0
 34 59  1  0  0  0
 34110  1  0  0  0
 35 44  2  0  0  0
 35 45  1  0  0  0
 35 68  1  0  0  0
 36 56  1  0  0  0
 36111  1  0  0  0
 37 39  1  0  0  0
 37 47  1  0  0  0
 37 66  1  0  0  0
 37112  1  0  0  0
 38 43  2  0  0  0
 38 46  1  0  0  0
 38 47  1  0  0  0
 39 64  1  0  0  0
 39 67  2  0  0  0
 40 52  1  0  0  0
 40 53  2  0  0  0
 40 58  1  0  0  0
 41113  1  0  0  0
 41114  1  0  0  0
 41115  1  0  0  0
 41 48  1  0  0  0
 42 43  1  0  0  0
 42 66  1  0  0  0
 42116  1  0  0  0
 42117  1  0  0  0
 43 44  1  0  0  0
 44118  1  0  0  0
 45 46  2  0  0  0
 45119  1  0  0  0
 46120  1  0  0  0
 47121  1  0  0  0
 47122  1  0  0  0
 48 56  1  0  0  0
 48 65  1  0  0  0
 48123  1  0  0  0
 49 50  1  0  0  0
 49 53  1  0  0  0
 49 64  1  0  0  0
 49124  1  0  0  0
 50 51  1  0  0  0
 50125  1  0  0  0
 50126  1  0  0  0
 51 52  1  0  0  0
 51127  1  0  0  0
 51128  1  0  0  0
 52129  1  0  0  0
 52130  1  0  0  0
 53 54  1  0  0  0
 54 55  2  0  0  0
 54131  1  0  0  0
 55 57  1  0  0  0
 55132  1  0  0  0
 56 69  2  0  0  0
 57 58  2  0  0  0
 57133  1  0  0  0
 58134  1  0  0  0
 59 60  1  0  0  0
 59 61  1  0  0  0
 59 62  1  0  0  0
 60135  1  0  0  0
 60136  1  0  0  0
 60137  1  0  0  0
 61138  1  0  0  0
 61139  1  0  0  0
 61140  1  0  0  0
 62141  1  0  0  0
 62142  1  0  0  0
 62143  1  0  0  0
 63 65  1  0  0  0
 63144  1  0  0  0
 63145  1  0  0  0
 63146  1  0  0  0
 64147  1  0  0  0
 65148  1  0  0  0
 68 78  1  0  0  0
 71 72  2  0  0  0
 71 73  1  0  0  0
 71149  1  0  0  0
 72 74  1  0  0  0
 72150  1  0  0  0
 73 75  2  0  0  0
 73 76  1  0  0  0
 74 81  2  0  0  0
 74 83  1  0  0  0
 75 81  1  0  0  0
 75 82  1  0  0  0
 76 84  1  0  0  0
 76 85  2  0  0  0
 77 78  1  0  0  0
 77 79  1  0  0  0
 77 86  2  0  0  0
 78151  1  0  0  0
 78152  1  0  0  0
 79 80  1  0  0  0
 79 84  1  0  0  0
 79153  1  0  0  0
 80 87  1  0  0  0
 80 88  1  0  0  0
 80 89  1  0  0  0
 82154  1  0  0  0
 82155  1  0  0  0
 83156  1  0  0  0
 84157  1  0  0  0
M  ISO  4   1 100  68 101  78 101  83 100
M  END
> <chiral flag>
0

> <version>
0

> <s_m_source_file>
/data/baiqing/PycharmProjects/Reinvent-master-3.2/result/LINK_invent/BTK/process_docking_weight1_custom_product_contain_oxygen_bond_distance_aromatic_linkinvent_7_9_3/rearranged_h_0179.sdf

> <i_m_source_file_index>
14

> <r_mmod_Potential_Energy-OPLS-2005>
-303.737640380859

> <r_mmod_Stretch_Energy-OPLS-2005>
39.8587951660156

> <r_mmod_Bend_Energy-OPLS-2005>
107.308578491211

> <r_mmod_Torsional_Energy-OPLS-2005>
250.28727722168

> <r_mmod_Improper_Torsional_Energy-OPLS-2005>
6.64710569381714

> <r_mmod_Van_der_Waal_Energy-OPLS-2005>
155.785202026367

> <r_mmod_Electrostatic_Energy-OPLS-2005>
-614.19091796875

> <r_mmod_Solvation_Energy-OPLS-2005>
-261.821685791016

> <b_mmod_Minimization_Converged-OPLS-2005>
0

> <r_mmod_RMS_Derivative-OPLS-2005>
1.68292367458344

$$$$
14
                    3D
 Structure written by MMmdl.
157165  0  0  1  0            999 V2000
  -30.6631  -14.5652   20.5156 C   0  0  0  0  0  0
  -30.4280  -12.3492   19.4498 C   0  0  0  0  0  0
  -29.5058  -12.5096   18.2227 C   0  0  0  0  0  0
  -28.0268  -12.3565   18.6292 C   0  0  0  0  0  0
  -27.6580  -13.2132   19.8709 C   0  0  2  0  0  0
  -28.7002  -13.0438   21.0008 C   0  0  0  0  0  0
  -25.2586  -13.8168   20.5678 C   0  0  0  0  0  0
  -24.1848  -13.0435   20.9179 C   0  0  0  0  0  0
  -24.6413  -11.6905   20.8736 C   0  0  0  0  0  0
  -23.9080  -10.4296   21.0399 C   0  0  0  0  0  0
  -24.3632   -9.4219   21.9182 C   0  0  0  0  0  0
  -23.6318   -8.2245   22.0751 C   0  0  0  0  0  0
  -22.4298   -8.0282   21.3535 C   0  0  0  0  0  0
  -21.9930   -9.0257   20.4645 C   0  0  0  0  0  0
  -22.7245  -10.2142   20.3062 C   0  0  0  0  0  0
  -21.6855   -6.0751   22.5284 C   0  0  0  0  0  0
  -21.4008   -6.5650   23.8217 C   0  0  0  0  0  0
  -21.3659   -5.6798   24.9175 C   0  0  0  0  0  0
  -21.6052   -4.3065   24.7218 C   0  0  0  0  0  0
  -21.8818   -3.8157   23.4335 C   0  0  0  0  0  0
  -21.9188   -4.6979   22.3395 C   0  0  0  0  0  0
  -22.7872  -13.5231   21.1834 C   0  0  0  0  0  0
  -22.1658   -4.2171   21.0972 F   0  0  0  0  0  0
  -21.5640   -3.4543   25.7725 F   0  0  0  0  0  0
  -30.0258  -13.3585   20.4467 N   0  0  0  0  0  0
  -26.3022  -12.9343   20.3350 N   0  0  0  0  0  0
  -25.9351  -11.6502   20.5774 N   0  0  0  0  0  0
  -22.0503  -12.8245   22.0398 N   0  0  0  0  0  0
  -25.4304  -15.1887   20.4075 N   0  0  0  0  0  0
  -31.8027  -14.7275   20.0687 O   0  0  0  0  0  0
  -21.6641   -6.8893   21.4245 O   0  0  0  0  0  0
  -22.3565  -14.5535   20.6676 O   0  0  0  0  0  0
  -24.6217  -31.8602   23.2054 C   0  0  0  0  0  0
  -25.9083  -32.4781   23.8359 C   0  0  1  0  0  0
  -27.2344  -27.3611   20.0968 C   0  0  0  0  0  0
  -25.5904  -33.8584   24.2283 N   0  0  0  0  0  0
  -23.4129  -30.4845   21.5456 C   0  0  2  0  0  0
  -24.8582  -28.9397   20.1132 C   0  0  0  0  0  0
  -22.7444  -29.4630   22.4949 C   0  0  0  0  0  0
  -18.0275  -28.1389   22.8489 C   0  0  0  0  0  0
  -24.1484  -36.7308   23.2640 C   0  0  0  0  0  0
  -25.9490  -30.8015   21.3704 C   0  0  0  0  0  0
  -26.0226  -29.4315   20.7149 C   0  0  0  0  0  0
  -27.2075  -28.6480   20.7051 C   0  0  0  0  0  0
  -26.0410  -26.8985   19.4947 C   0  0  0  0  0  0
  -24.8662  -27.6755   19.5018 C   0  0  0  0  0  0
  -23.6245  -29.8153   20.1619 C   0  0  0  0  0  0
  -25.4111  -36.3094   24.0328 C   0  0  1  0  0  0
  -20.5871  -28.3682   23.1296 C   0  0  2  0  0  0
  -20.6760  -26.9407   22.5416 C   0  0  0  0  0  0
  -19.5737  -26.6388   21.5214 C   0  0  0  0  0  0
  -18.1918  -26.7931   22.1630 C   0  0  0  0  0  0
  -19.1527  -28.8846   23.2885 C   0  0  0  0  0  0
  -18.9454  -30.1455   23.8895 C   0  0  0  0  0  0
  -17.6457  -30.6586   24.0570 C   0  0  0  0  0  0
  -25.9041  -34.9457   23.5105 C   0  0  0  0  0  0
  -16.5345  -29.9092   23.6339 C   0  0  0  0  0  0
  -16.7263  -28.6513   23.0343 C   0  0  0  0  0  0
  -26.4482  -31.6592   25.0722 C   0  0  0  0  0  0
  -25.3727  -31.3727   26.1458 C   0  0  0  0  0  0
  -27.0318  -30.3016   24.6167 C   0  0  0  0  0  0
  -27.6040  -32.4328   25.7487 C   0  0  0  0  0  0
  -27.5584  -37.1804   24.8458 C   0  0  0  0  0  0
  -21.4156  -29.3044   22.3693 N   0  0  0  0  0  0
  -26.4292  -37.3785   23.9404 N   0  0  0  0  0  0
  -24.6793  -31.0646   22.0984 N   0  0  0  0  0  0
  -23.4178  -28.8178   23.3021 O   0  0  0  0  0  0
  -28.4020  -26.5972   20.1433 O   0  0  0  0  0  0
  -26.5623  -34.8923   22.4682 O   0  0  0  0  0  0
  -23.5392  -32.1389   23.7412 O   0  0  0  0  0  0
  -29.9303  -19.1443   19.8667 C   0  0  0  0  0  0
  -29.2831  -18.7069   18.7247 C   0  0  0  0  0  0
  -29.7952  -16.8599   20.2878 C   0  0  0  0  0  0
  -28.6671  -24.0436   20.2748 C   0  0  0  0  0  0
  -29.2691  -22.7444   19.5813 C   0  0  0  0  0  0
  -28.5502  -25.3409   19.4006 C   0  0  0  0  0  0
  -30.4931  -20.5732   20.0822 C   0  0  2  0  0  0
  -31.7678  -20.6090   20.9770 C   0  0  0  0  0  0
  -32.6521  -21.8680   20.8143 C   0  0  0  0  0  0
  -30.1295  -18.0715   20.7872 N   0  0  0  0  0  0
  -28.8850  -19.4391   17.6091 N   0  0  0  0  0  0
  -29.9447  -15.6140   20.9888 N   0  0  0  0  0  0
  -29.5361  -21.6826   20.3933 N   0  0  0  0  0  0
  -28.3133  -24.0330   21.4599 O   0  0  0  0  0  0
  -29.5347  -22.7330   18.3762 O   0  0  0  0  0  0
  -31.4169  -20.4859   22.2604 F   0  0  0  0  0  0
  -32.5565  -19.5785   20.6552 F   0  0  0  0  0  0
  -32.0026  -22.9670   21.1990 F   0  0  0  0  0  0
  -33.7556  -21.7573   21.5572 F   0  0  0  0  0  0
  -33.0161  -22.0257   19.5407 F   0  0  0  0  0  0
  -29.0274  -16.9747   18.7124 S   0  0  0  0  0  0
  -31.4732  -12.4480   19.1524 H   0  0  0  0  0  0
  -30.3333  -11.3470   19.8703 H   0  0  0  0  0  0
  -29.7653  -11.7731   17.4605 H   0  0  0  0  0  0
  -29.6627  -13.4880   17.7654 H   0  0  0  0  0  0
  -27.8540  -11.3006   18.8438 H   0  0  0  0  0  0
  -27.3748  -12.6053   17.7899 H   0  0  0  0  0  0
  -27.6855  -14.2536   19.5494 H   0  0  0  0  0  0
  -28.6936  -12.0196   21.3786 H   0  0  0  0  0  0
  -28.4532  -13.6757   21.8547 H   0  0  0  0  0  0
  -25.2779   -9.5701   22.4751 H   0  0  0  0  0  0
  -24.0035   -7.4647   22.7477 H   0  0  0  0  0  0
  -21.0852   -8.8776   19.8959 H   0  0  0  0  0  0
  -22.3701  -10.9685   19.6176 H   0  0  0  0  0  0
  -21.1987   -7.6160   23.9726 H   0  0  0  0  0  0
  -21.1493   -6.0522   25.9081 H   0  0  0  0  0  0
  -22.0594   -2.7624   23.2814 H   0  0  0  0  0  0
  -22.4105  -11.9912   22.4810 H   0  0  0  0  0  0
  -21.1121  -13.1289   22.2578 H   0  0  0  0  0  0
  -24.6600  -15.8399   20.5154 H   0  0  0  0  0  0
  -26.2761  -15.6312   20.0725 H   0  0  0  0  0  0
  -26.7152  -32.5450   23.1109 H   0  0  0  0  0  0
  -25.0012  -33.9727   25.0400 H   0  0  0  0  0  0
  -22.7060  -31.3041   21.4028 H   0  0  0  0  0  0
  -23.3742  -35.9647   23.3301 H   0  0  0  0  0  0
  -24.3578  -36.8935   22.2059 H   0  0  0  0  0  0
  -23.7250  -37.6513   23.6662 H   0  0  0  0  0  0
  -26.0764  -31.5661   20.6033 H   0  0  0  0  0  0
  -26.8323  -30.8495   21.9957 H   0  0  0  0  0  0
  -28.1031  -29.0235   21.1800 H   0  0  0  0  0  0
  -25.9724  -25.9257   19.0352 H   0  0  0  0  0  0
  -23.9687  -27.2864   19.0404 H   0  0  0  0  0  0
  -23.7406  -30.5894   19.4024 H   0  0  0  0  0  0
  -22.7456  -29.2407   19.8628 H   0  0  0  0  0  0
  -25.1297  -36.1944   25.0823 H   0  0  0  0  0  0
  -20.9963  -28.3255   24.1414 H   0  0  0  0  0  0
  -20.5661  -26.2284   23.3605 H   0  0  0  0  0  0
  -21.6626  -26.7435   22.1203 H   0  0  0  0  0  0
  -19.6898  -25.6302   21.1234 H   0  0  0  0  0  0
  -19.6688  -27.3199   20.6747 H   0  0  0  0  0  0
  -17.4188  -26.6676   21.4035 H   0  0  0  0  0  0
  -18.0327  -26.0068   22.9024 H   0  0  0  0  0  0
  -19.7930  -30.7271   24.2253 H   0  0  0  0  0  0
  -17.5013  -31.6264   24.5176 H   0  0  0  0  0  0
  -15.5350  -30.2994   23.7658 H   0  0  0  0  0  0
  -15.8661  -28.0842   22.7047 H   0  0  0  0  0  0
  -24.5868  -30.7116   25.7791 H   0  0  0  0  0  0
  -24.8957  -32.2895   26.4930 H   0  0  0  0  0  0
  -25.8054  -30.8860   27.0206 H   0  0  0  0  0  0
  -26.2887  -29.6769   24.1195 H   0  0  0  0  0  0
  -27.4019  -29.7272   25.4673 H   0  0  0  0  0  0
  -27.8755  -30.4308   23.9385 H   0  0  0  0  0  0
  -27.2635  -33.3601   26.2108 H   0  0  0  0  0  0
  -28.3821  -32.6938   25.0302 H   0  0  0  0  0  0
  -28.0738  -31.8429   26.5368 H   0  0  0  0  0  0
  -28.2593  -38.0109   24.7510 H   0  0  0  0  0  0
  -28.1082  -36.2640   24.6266 H   0  0  0  0  0  0
  -27.2293  -37.1438   25.8857 H   0  0  0  0  0  0
  -20.9320  -29.8762   21.6910 H   0  0  0  0  0  0
  -26.0173  -38.2855   24.1419 H   0  0  0  0  0  0
  -27.7890  -25.1947   18.6382 H   0  0  0  0  0  0
  -29.4844  -25.4259   18.8453 H   0  0  0  0  0  0
  -30.9041  -20.8161   19.1014 H   0  0  0  0  0  0
  -28.9867  -20.4474   17.5119 H   0  0  0  0  0  0
  -28.3693  -19.0315   16.8331 H   0  0  0  0  0  0
  -29.1147  -15.3299   21.4834 H   0  0  0  0  0  0
  -29.2412  -21.7730   21.3557 H   0  0  0  0  0  0
  1 25  1  0  0  0
  1 30  2  0  0  0
  1 82  1  0  0  0
  2  3  1  0  0  0
  2 25  1  0  0  0
  2 92  1  0  0  0
  2 93  1  0  0  0
  3  4  1  0  0  0
  3 94  1  0  0  0
  3 95  1  0  0  0
  4  5  1  0  0  0
  4 96  1  0  0  0
  4 97  1  0  0  0
  5  6  1  0  0  0
  5 26  1  0  0  0
  5 98  1  0  0  0
  6 25  1  0  0  0
  6 99  1  0  0  0
  6100  1  0  0  0
  7  8  2  0  0  0
  7 26  1  0  0  0
  7 29  1  0  0  0
  8  9  1  0  0  0
  8 22  1  0  0  0
  9 10  1  0  0  0
  9 27  2  0  0  0
 10 11  2  0  0  0
 10 15  1  0  0  0
 11 12  1  0  0  0
 11101  1  0  0  0
 12 13  2  0  0  0
 12102  1  0  0  0
 13 14  1  0  0  0
 13 31  1  0  0  0
 14 15  2  0  0  0
 14103  1  0  0  0
 15104  1  0  0  0
 16 17  2  0  0  0
 16 21  1  0  0  0
 16 31  1  0  0  0
 17 18  1  0  0  0
 17105  1  0  0  0
 18 19  2  0  0  0
 18106  1  0  0  0
 19 20  1  0  0  0
 19 24  1  0  0  0
 20 21  2  0  0  0
 20107  1  0  0  0
 21 23  1  0  0  0
 22 28  1  0  0  0
 22 32  2  0  0  0
 26 27  1  0  0  0
 28108  1  0  0  0
 28109  1  0  0  0
 29110  1  0  0  0
 29111  1  0  0  0
 33 34  1  0  0  0
 33 66  1  0  0  0
 33 70  2  0  0  0
 34 36  1  0  0  0
 34 59  1  0  0  0
 34112  1  0  0  0
 35 44  2  0  0  0
 35 45  1  0  0  0
 35 68  1  0  0  0
 36 56  1  0  0  0
 36113  1  0  0  0
 37 39  1  0  0  0
 37 47  1  0  0  0
 37 66  1  0  0  0
 37114  1  0  0  0
 38 43  2  0  0  0
 38 46  1  0  0  0
 38 47  1  0  0  0
 39 64  1  0  0  0
 39 67  2  0  0  0
 40 52  1  0  0  0
 40 53  2  0  0  0
 40 58  1  0  0  0
 41115  1  0  0  0
 41116  1  0  0  0
 41117  1  0  0  0
 41 48  1  0  0  0
 42 43  1  0  0  0
 42 66  1  0  0  0
 42118  1  0  0  0
 42119  1  0  0  0
 43 44  1  0  0  0
 44120  1  0  0  0
 45 46  2  0  0  0
 45121  1  0  0  0
 46122  1  0  0  0
 47123  1  0  0  0
 47124  1  0  0  0
 48 56  1  0  0  0
 48 65  1  0  0  0
 48125  1  0  0  0
 49 50  1  0  0  0
 49 53  1  0  0  0
 49 64  1  0  0  0
 49126  1  0  0  0
 50 51  1  0  0  0
 50127  1  0  0  0
 50128  1  0  0  0
 51 52  1  0  0  0
 51129  1  0  0  0
 51130  1  0  0  0
 52131  1  0  0  0
 52132  1  0  0  0
 53 54  1  0  0  0
 54 55  2  0  0  0
 54133  1  0  0  0
 55 57  1  0  0  0
 55134  1  0  0  0
 56 69  2  0  0  0
 57 58  2  0  0  0
 57135  1  0  0  0
 58136  1  0  0  0
 59 60  1  0  0  0
 59 61  1  0  0  0
 59 62  1  0  0  0
 60137  1  0  0  0
 60138  1  0  0  0
 60139  1  0  0  0
 61140  1  0  0  0
 61141  1  0  0  0
 61142  1  0  0  0
 62143  1  0  0  0
 62144  1  0  0  0
 62145  1  0  0  0
 63 65  1  0  0  0
 63146  1  0  0  0
 63147  1  0  0  0
 63148  1  0  0  0
 64149  1  0  0  0
 65150  1  0  0  0
 68 76  1  0  0  0
 71 72  2  0  0  0
 71 77  1  0  0  0
 71 80  1  0  0  0
 72 81  1  0  0  0
 72 91  1  0  0  0
 73 80  2  0  0  0
 73 82  1  0  0  0
 73 91  1  0  0  0
 74 75  1  0  0  0
 74 76  1  0  0  0
 74 84  2  0  0  0
 75 83  1  0  0  0
 75 85  2  0  0  0
 76151  1  0  0  0
 76152  1  0  0  0
 77 78  1  0  0  0
 77 83  1  0  0  0
 77153  1  0  0  0
 78 79  1  0  0  0
 78 86  1  0  0  0
 78 87  1  0  0  0
 79 88  1  0  0  0
 79 89  1  0  0  0
 79 90  1  0  0  0
 81154  1  0  0  0
 81155  1  0  0  0
 82156  1  0  0  0
 83157  1  0  0  0
M  ISO  4   1 100  68 101  76 101  82 100
M  END
> <chiral flag>
0

> <version>
0

> <s_m_source_file>
/data/baiqing/PycharmProjects/Reinvent-master-3.2/result/LINK_invent/BTK/process_docking_weight1_custom_product_contain_oxygen_bond_distance_aromatic_linkinvent_7_9_3/rearranged_h_0179.sdf

> <i_m_source_file_index>
15

> <r_mmod_Potential_Energy-OPLS-2005>
24.5503101348877

> <r_mmod_Stretch_Energy-OPLS-2005>
62.390266418457

> <r_mmod_Bend_Energy-OPLS-2005>
138.640121459961

> <r_mmod_Torsional_Energy-OPLS-2005>
234.084533691406

> <r_mmod_Improper_Torsional_Energy-OPLS-2005>
7.58652639389038

> <r_mmod_Van_der_Waal_Energy-OPLS-2005>
119.000045776367

> <r_mmod_Electrostatic_Energy-OPLS-2005>
-324.831268310547

> <r_mmod_Solvation_Energy-OPLS-2005>
-240.518569946289

> <b_mmod_Minimization_Converged-OPLS-2005>
0

> <r_mmod_RMS_Derivative-OPLS-2005>
1.77928042411804

$$$$
15
                    3D
 Structure written by MMmdl.
153161  0  0  1  0            999 V2000
  -30.6715  -14.4711   20.6063 C   0  0  0  0  0  0
  -30.4301  -12.3160   19.4049 C   0  0  0  0  0  0
  -29.4927  -12.5243   18.1954 C   0  0  0  0  0  0
  -28.0135  -12.3843   18.6086 C   0  0  0  0  0  0
  -27.6682  -13.1997   19.8834 C   0  0  2  0  0  0
  -28.7080  -12.9341   20.9939 C   0  0  0  0  0  0
  -25.2613  -13.8159   20.5628 C   0  0  0  0  0  0
  -24.1849  -13.0449   20.9140 C   0  0  0  0  0  0
  -24.6406  -11.6918   20.8749 C   0  0  0  0  0  0
  -23.9080  -10.4288   21.0433 C   0  0  0  0  0  0
  -24.3641   -9.4186   21.9190 C   0  0  0  0  0  0
  -23.6301   -8.2234   22.0768 C   0  0  0  0  0  0
  -22.4275   -8.0293   21.3563 C   0  0  0  0  0  0
  -21.9919   -9.0265   20.4661 C   0  0  0  0  0  0
  -22.7263  -10.2133   20.3066 C   0  0  0  0  0  0
  -21.6838   -6.0739   22.5283 C   0  0  0  0  0  0
  -21.3998   -6.5640   23.8214 C   0  0  0  0  0  0
  -21.3664   -5.6793   24.9173 C   0  0  0  0  0  0
  -21.6043   -4.3056   24.7216 C   0  0  0  0  0  0
  -21.8815   -3.8155   23.4332 C   0  0  0  0  0  0
  -21.9184   -4.6974   22.3395 C   0  0  0  0  0  0
  -22.7871  -13.5268   21.1798 C   0  0  0  0  0  0
  -22.1652   -4.2168   21.0970 F   0  0  0  0  0  0
  -21.5635   -3.4532   25.7725 F   0  0  0  0  0  0
  -30.0454  -13.2680   20.4603 N   0  0  0  0  0  0
  -26.3059  -12.9308   20.3387 N   0  0  0  0  0  0
  -25.9338  -11.6480   20.5805 N   0  0  0  0  0  0
  -22.0520  -12.8268   22.0375 N   0  0  0  0  0  0
  -25.4389  -15.1868   20.3991 N   0  0  0  0  0  0
  -31.7441  -14.7461   20.0549 O   0  0  0  0  0  0
  -21.6637   -6.8892   21.4249 O   0  0  0  0  0  0
  -22.3570  -14.5577   20.6657 O   0  0  0  0  0  0
  -24.6181  -31.8700   23.2046 C   0  0  0  0  0  0
  -25.9071  -32.4821   23.8368 C   0  0  1  0  0  0
  -27.2192  -27.3920   20.1041 C   0  0  0  0  0  0
  -25.5921  -33.8616   24.2318 N   0  0  0  0  0  0
  -23.4055  -30.4973   21.5465 C   0  0  2  0  0  0
  -24.8424  -28.9545   20.1160 C   0  0  0  0  0  0
  -22.7412  -29.4729   22.4950 C   0  0  0  0  0  0
  -18.0305  -28.1394   22.8503 C   0  0  0  0  0  0
  -24.1490  -36.7275   23.2641 C   0  0  0  0  0  0
  -25.9387  -30.8159   21.3671 C   0  0  0  0  0  0
  -26.0065  -29.4464   20.7186 C   0  0  0  0  0  0
  -27.1925  -28.6702   20.7187 C   0  0  0  0  0  0
  -26.0313  -26.9357   19.4801 C   0  0  0  0  0  0
  -24.8489  -27.6946   19.5004 C   0  0  0  0  0  0
  -23.6094  -29.8267   20.1629 C   0  0  0  0  0  0
  -25.4110  -36.3101   24.0366 C   0  0  1  0  0  0
  -20.5900  -28.3727   23.1261 C   0  0  2  0  0  0
  -20.6792  -26.9456   22.5392 C   0  0  0  0  0  0
  -19.5755  -26.6407   21.5206 C   0  0  0  0  0  0
  -18.1946  -26.7944   22.1632 C   0  0  0  0  0  0
  -19.1557  -28.8869   23.2889 C   0  0  0  0  0  0
  -18.9493  -30.1462   23.8918 C   0  0  0  0  0  0
  -17.6502  -30.6610   24.0571 C   0  0  0  0  0  0
  -25.9042  -34.9479   23.5135 C   0  0  0  0  0  0
  -16.5390  -29.9122   23.6319 C   0  0  0  0  0  0
  -16.7298  -28.6519   23.0377 C   0  0  0  0  0  0
  -26.4456  -31.6599   25.0714 C   0  0  0  0  0  0
  -25.3687  -31.3790   26.1440 C   0  0  0  0  0  0
  -27.0309  -30.3030   24.6164 C   0  0  0  0  0  0
  -27.6027  -32.4325   25.7481 C   0  0  0  0  0  0
  -27.5587  -37.1794   24.8485 C   0  0  0  0  0  0
  -21.4147  -29.3087   22.3644 N   0  0  0  0  0  0
  -26.4292  -37.3784   23.9425 N   0  0  0  0  0  0
  -24.6723  -31.0794   22.0953 N   0  0  0  0  0  0
  -23.4162  -28.8270   23.3015 O   0  0  0  0  0  0
  -28.3756  -26.6185   20.1426 O   0  0  0  0  0  0
  -26.5605  -34.8948   22.4698 O   0  0  0  0  0  0
  -23.5368  -32.1478   23.7427 O   0  0  0  0  0  0
  -29.0240  -17.3816   22.2116 C   0  0  0  0  0  0
  -28.8709  -18.7594   21.8602 C   0  0  0  0  0  0
  -29.8185  -16.6818   21.3339 C   0  0  0  0  0  0
  -29.5799  -19.1894   20.7623 C   0  0  0  0  0  0
  -29.3394  -22.8444   19.7588 C   0  0  0  0  0  0
  -29.4446  -21.6462   20.7730 C   0  0  0  0  0  0
  -28.3430  -16.7748   23.4042 C   0  0  0  0  0  0
  -29.4036  -24.2986   20.3056 C   0  0  0  0  0  0
  -28.2623  -25.2169   19.7859 C   0  0  0  0  0  0
  -29.6184  -20.4345   20.1844 N   0  0  0  0  0  0
  -30.0222  -15.3296   21.4153 N   0  0  0  0  0  0
  -29.2148  -22.6459   18.5432 O   0  0  0  0  0  0
  -29.4058  -21.8301   21.9932 O   0  0  0  0  0  0
  -28.0583  -19.5294   22.5472 F   0  0  0  0  0  0
  -30.4266  -17.7879   20.0941 S   0  0  0  0  0  0
  -31.4727  -12.4308   19.1017 H   0  0  0  0  0  0
  -30.3426  -11.2927   19.7728 H   0  0  0  0  0  0
  -29.7275  -11.8058   17.4075 H   0  0  0  0  0  0
  -29.6599  -13.5126   17.7643 H   0  0  0  0  0  0
  -27.8127  -11.3252   18.7764 H   0  0  0  0  0  0
  -27.3648  -12.6830   17.7843 H   0  0  0  0  0  0
  -27.7256  -14.2566   19.6231 H   0  0  0  0  0  0
  -28.6819  -11.8829   21.2890 H   0  0  0  0  0  0
  -28.4497  -13.4795   21.9013 H   0  0  0  0  0  0
  -25.2813   -9.5622   22.4728 H   0  0  0  0  0  0
  -24.0016   -7.4601   22.7461 H   0  0  0  0  0  0
  -21.0867   -8.8785   19.8949 H   0  0  0  0  0  0
  -22.3774  -10.9664   19.6146 H   0  0  0  0  0  0
  -21.1980   -7.6151   23.9718 H   0  0  0  0  0  0
  -21.1503   -6.0523   25.9077 H   0  0  0  0  0  0
  -22.0601   -2.7623   23.2821 H   0  0  0  0  0  0
  -22.4177  -11.9965   22.4787 H   0  0  0  0  0  0
  -21.1124  -13.1272   22.2596 H   0  0  0  0  0  0
  -24.6795  -15.8536   20.4908 H   0  0  0  0  0  0
  -26.2986  -15.6112   20.0751 H   0  0  0  0  0  0
  -26.7148  -32.5503   23.1134 H   0  0  0  0  0  0
  -25.0139  -33.9758   25.0514 H   0  0  0  0  0  0
  -22.7030  -31.3214   21.4056 H   0  0  0  0  0  0
  -23.3768  -35.9586   23.3319 H   0  0  0  0  0  0
  -24.3576  -36.8856   22.2044 H   0  0  0  0  0  0
  -23.7231  -37.6499   23.6611 H   0  0  0  0  0  0
  -26.0757  -31.5751   20.5954 H   0  0  0  0  0  0
  -26.8166  -30.8589   21.9985 H   0  0  0  0  0  0
  -28.0779  -29.0397   21.2145 H   0  0  0  0  0  0
  -25.9783  -25.9866   18.9709 H   0  0  0  0  0  0
  -23.9520  -27.3021   19.0389 H   0  0  0  0  0  0
  -23.7199  -30.5947   19.3972 H   0  0  0  0  0  0
  -22.7307  -29.2485   19.8688 H   0  0  0  0  0  0
  -25.1278  -36.1975   25.0863 H   0  0  0  0  0  0
  -21.0044  -28.3327   24.1361 H   0  0  0  0  0  0
  -20.5705  -26.2369   23.3605 H   0  0  0  0  0  0
  -21.6664  -26.7491   22.1182 H   0  0  0  0  0  0
  -19.6917  -25.6314   21.1247 H   0  0  0  0  0  0
  -19.6664  -27.3207   20.6716 H   0  0  0  0  0  0
  -17.4211  -26.6707   21.4040 H   0  0  0  0  0  0
  -18.0348  -26.0084   22.9020 H   0  0  0  0  0  0
  -19.7982  -30.7255   24.2304 H   0  0  0  0  0  0
  -17.5077  -31.6291   24.5182 H   0  0  0  0  0  0
  -15.5399  -30.3046   23.7618 H   0  0  0  0  0  0
  -15.8691  -28.0817   22.7124 H   0  0  0  0  0  0
  -24.5847  -30.7155   25.7763 H   0  0  0  0  0  0
  -24.8883  -32.2989   26.4780 H   0  0  0  0  0  0
  -25.7964  -30.9017   27.0266 H   0  0  0  0  0  0
  -26.2923  -29.6812   24.1091 H   0  0  0  0  0  0
  -27.3942  -29.7240   25.4669 H   0  0  0  0  0  0
  -27.8796  -30.4342   23.9449 H   0  0  0  0  0  0
  -27.2651  -33.3640   26.2046 H   0  0  0  0  0  0
  -28.3818  -32.6871   25.0279 H   0  0  0  0  0  0
  -28.0708  -31.8463   26.5406 H   0  0  0  0  0  0
  -28.2626  -38.0070   24.7516 H   0  0  0  0  0  0
  -28.1072  -36.2610   24.6322 H   0  0  0  0  0  0
  -27.2310  -37.1459   25.8893 H   0  0  0  0  0  0
  -20.9316  -29.8775   21.6825 H   0  0  0  0  0  0
  -26.0200  -38.2885   24.1370 H   0  0  0  0  0  0
  -28.8367  -15.8688   23.7553 H   0  0  0  0  0  0
  -28.3431  -17.4738   24.2402 H   0  0  0  0  0  0
  -27.3079  -16.5219   23.1742 H   0  0  0  0  0  0
  -30.3696  -24.7118   20.0177 H   0  0  0  0  0  0
  -29.3773  -24.2794   21.3952 H   0  0  0  0  0  0
  -27.3365  -24.8002   20.1851 H   0  0  0  0  0  0
  -28.2024  -25.1558   18.6992 H   0  0  0  0  0  0
  -29.7810  -20.4729   19.1866 H   0  0  0  0  0  0
  -29.3593  -14.8553   22.0094 H   0  0  0  0  0  0
  1 25  1  0  0  0
  1 30  2  0  0  0
  1 81  1  0  0  0
  2  3  1  0  0  0
  2 25  1  0  0  0
  2 86  1  0  0  0
  2 87  1  0  0  0
  3  4  1  0  0  0
  3 88  1  0  0  0
  3 89  1  0  0  0
  4  5  1  0  0  0
  4 90  1  0  0  0
  4 91  1  0  0  0
  5  6  1  0  0  0
  5 26  1  0  0  0
  5 92  1  0  0  0
  6 25  1  0  0  0
  6 93  1  0  0  0
  6 94  1  0  0  0
  7  8  2  0  0  0
  7 26  1  0  0  0
  7 29  1  0  0  0
  8  9  1  0  0  0
  8 22  1  0  0  0
  9 10  1  0  0  0
  9 27  2  0  0  0
 10 11  2  0  0  0
 10 15  1  0  0  0
 11 12  1  0  0  0
 11 95  1  0  0  0
 12 13  2  0  0  0
 12 96  1  0  0  0
 13 14  1  0  0  0
 13 31  1  0  0  0
 14 15  2  0  0  0
 14 97  1  0  0  0
 15 98  1  0  0  0
 16 17  2  0  0  0
 16 21  1  0  0  0
 16 31  1  0  0  0
 17 18  1  0  0  0
 17 99  1  0  0  0
 18 19  2  0  0  0
 18100  1  0  0  0
 19 20  1  0  0  0
 19 24  1  0  0  0
 20 21  2  0  0  0
 20101  1  0  0  0
 21 23  1  0  0  0
 22 28  1  0  0  0
 22 32  2  0  0  0
 26 27  1  0  0  0
 28102  1  0  0  0
 28103  1  0  0  0
 29104  1  0  0  0
 29105  1  0  0  0
 33 34  1  0  0  0
 33 66  1  0  0  0
 33 70  2  0  0  0
 34 36  1  0  0  0
 34 59  1  0  0  0
 34106  1  0  0  0
 35 44  2  0  0  0
 35 45  1  0  0  0
 35 68  1  0  0  0
 36 56  1  0  0  0
 36107  1  0  0  0
 37 39  1  0  0  0
 37 47  1  0  0  0
 37 66  1  0  0  0
 37108  1  0  0  0
 38 43  2  0  0  0
 38 46  1  0  0  0
 38 47  1  0  0  0
 39 64  1  0  0  0
 39 67  2  0  0  0
 40 52  1  0  0  0
 40 53  2  0  0  0
 40 58  1  0  0  0
 41109  1  0  0  0
 41110  1  0  0  0
 41111  1  0  0  0
 41 48  1  0  0  0
 42 43  1  0  0  0
 42 66  1  0  0  0
 42112  1  0  0  0
 42113  1  0  0  0
 43 44  1  0  0  0
 44114  1  0  0  0
 45 46  2  0  0  0
 45115  1  0  0  0
 46116  1  0  0  0
 47117  1  0  0  0
 47118  1  0  0  0
 48 56  1  0  0  0
 48 65  1  0  0  0
 48119  1  0  0  0
 49 50  1  0  0  0
 49 53  1  0  0  0
 49 64  1  0  0  0
 49120  1  0  0  0
 50 51  1  0  0  0
 50121  1  0  0  0
 50122  1  0  0  0
 51 52  1  0  0  0
 51123  1  0  0  0
 51124  1  0  0  0
 52125  1  0  0  0
 52126  1  0  0  0
 53 54  1  0  0  0
 54 55  2  0  0  0
 54127  1  0  0  0
 55 57  1  0  0  0
 55128  1  0  0  0
 56 69  2  0  0  0
 57 58  2  0  0  0
 57129  1  0  0  0
 58130  1  0  0  0
 59 60  1  0  0  0
 59 61  1  0  0  0
 59 62  1  0  0  0
 60131  1  0  0  0
 60132  1  0  0  0
 60133  1  0  0  0
 61134  1  0  0  0
 61135  1  0  0  0
 61136  1  0  0  0
 62137  1  0  0  0
 62138  1  0  0  0
 62139  1  0  0  0
 63 65  1  0  0  0
 63140  1  0  0  0
 63141  1  0  0  0
 63142  1  0  0  0
 64143  1  0  0  0
 65144  1  0  0  0
 68 79  1  0  0  0
 71 72  1  0  0  0
 71 73  2  0  0  0
 71 77  1  0  0  0
 72 74  2  0  0  0
 72 84  1  0  0  0
 73 81  1  0  0  0
 73 85  1  0  0  0
 74 80  1  0  0  0
 74 85  1  0  0  0
 75 76  1  0  0  0
 75 78  1  0  0  0
 75 82  2  0  0  0
 76 80  1  0  0  0
 76 83  2  0  0  0
 77145  1  0  0  0
 77146  1  0  0  0
 77147  1  0  0  0
 78 79  1  0  0  0
 78148  1  0  0  0
 78149  1  0  0  0
 79150  1  0  0  0
 79151  1  0  0  0
 80152  1  0  0  0
 81153  1  0  0  0
M  ISO  4   1 100  68 101  79 101  81 100
M  END
> <chiral flag>
0

> <version>
0

> <s_m_source_file>
/data/baiqing/PycharmProjects/Reinvent-master-3.2/result/LINK_invent/BTK/process_docking_weight1_custom_product_contain_oxygen_bond_distance_aromatic_linkinvent_7_9_3/rearranged_h_0179.sdf

> <i_m_source_file_index>
16

> <r_mmod_Potential_Energy-OPLS-2005>
-79.2824172973633

> <r_mmod_Stretch_Energy-OPLS-2005>
45.0450782775879

> <r_mmod_Bend_Energy-OPLS-2005>
119.261878967285

> <r_mmod_Torsional_Energy-OPLS-2005>
222.392028808594

> <r_mmod_Improper_Torsional_Energy-OPLS-2005>
3.63711404800415

> <r_mmod_Van_der_Waal_Energy-OPLS-2005>
137.416030883789

> <r_mmod_Electrostatic_Energy-OPLS-2005>
-389.545288085938

> <r_mmod_Solvation_Energy-OPLS-2005>
-234.517990112305

> <b_mmod_Minimization_Converged-OPLS-2005>
0

> <r_mmod_RMS_Derivative-OPLS-2005>
3.47883939743042

$$$$
16
                    3D
 Structure written by MMmdl.
157165  0  0  1  0            999 V2000
  -30.5618  -14.7210   20.4788 C   0  0  0  0  0  0
  -30.4392  -12.4366   19.4730 C   0  0  0  0  0  0
  -29.5159  -12.4976   18.2356 C   0  0  0  0  0  0
  -28.0380  -12.3190   18.6436 C   0  0  0  0  0  0
  -27.6422  -13.2123   19.8509 C   0  0  2  0  0  0
  -28.6787  -13.0993   20.9902 C   0  0  0  0  0  0
  -25.2525  -13.8158   20.5670 C   0  0  0  0  0  0
  -24.1785  -13.0427   20.9209 C   0  0  0  0  0  0
  -24.6332  -11.6895   20.8688 C   0  0  0  0  0  0
  -23.8988  -10.4280   21.0357 C   0  0  0  0  0  0
  -24.3544   -9.4220   21.9160 C   0  0  0  0  0  0
  -23.6240   -8.2236   22.0757 C   0  0  0  0  0  0
  -22.4234   -8.0232   21.3525 C   0  0  0  0  0  0
  -21.9839   -9.0205   20.4634 C   0  0  0  0  0  0
  -22.7149  -10.2096   20.3032 C   0  0  0  0  0  0
  -21.6843   -6.0681   22.5259 C   0  0  0  0  0  0
  -21.4023   -6.5611   23.8178 C   0  0  0  0  0  0
  -21.3667   -5.6786   24.9164 C   0  0  0  0  0  0
  -21.6048   -4.3037   24.7226 C   0  0  0  0  0  0
  -21.8829   -3.8109   23.4359 C   0  0  0  0  0  0
  -21.9200   -4.6912   22.3403 C   0  0  0  0  0  0
  -22.7820  -13.5229   21.1898 C   0  0  0  0  0  0
  -22.1662   -4.2090   21.0972 F   0  0  0  0  0  0
  -21.5637   -3.4529   25.7761 F   0  0  0  0  0  0
  -29.9842  -13.4738   20.4256 N   0  0  0  0  0  0
  -26.2908  -12.9316   20.3219 N   0  0  0  0  0  0
  -25.9252  -11.6484   20.5686 N   0  0  0  0  0  0
  -22.0448  -12.8177   22.0411 N   0  0  0  0  0  0
  -25.4239  -15.1888   20.4130 N   0  0  0  0  0  0
  -31.7365  -14.8762   20.1294 O   0  0  0  0  0  0
  -21.6645   -6.8805   21.4211 O   0  0  0  0  0  0
  -22.3487  -14.5527   20.6747 O   0  0  0  0  0  0
  -24.6287  -31.8508   23.1950 C   0  0  0  0  0  0
  -25.9122  -32.4680   23.8306 C   0  0  1  0  0  0
  -27.2356  -27.2656   20.1312 C   0  0  0  0  0  0
  -25.5936  -33.8490   24.2262 N   0  0  0  0  0  0
  -23.4280  -30.4682   21.5345 C   0  0  2  0  0  0
  -24.8780  -28.9076   20.1217 C   0  0  0  0  0  0
  -22.7502  -29.4538   22.4909 C   0  0  0  0  0  0
  -18.0277  -28.1405   22.8413 C   0  0  0  0  0  0
  -24.1522  -36.7271   23.2650 C   0  0  0  0  0  0
  -25.9703  -30.7706   21.3711 C   0  0  0  0  0  0
  -26.0515  -29.3895   20.7181 C   0  0  0  0  0  0
  -27.2368  -28.5833   20.7052 C   0  0  0  0  0  0
  -26.0377  -26.8416   19.5271 C   0  0  0  0  0  0
  -24.8752  -27.6385   19.5191 C   0  0  0  0  0  0
  -23.6462  -29.7905   20.1554 C   0  0  0  0  0  0
  -25.4120  -36.2999   24.0353 C   0  0  1  0  0  0
  -20.5877  -28.3667   23.1298 C   0  0  2  0  0  0
  -20.6778  -26.9403   22.5401 C   0  0  0  0  0  0
  -19.5758  -26.6361   21.5202 C   0  0  0  0  0  0
  -18.1920  -26.7917   22.1586 C   0  0  0  0  0  0
  -19.1542  -28.8857   23.2823 C   0  0  0  0  0  0
  -18.9458  -30.1478   23.8835 C   0  0  0  0  0  0
  -17.6464  -30.6587   24.0555 C   0  0  0  0  0  0
  -25.9064  -34.9384   23.5104 C   0  0  0  0  0  0
  -16.5356  -29.9092   23.6343 C   0  0  0  0  0  0
  -16.7277  -28.6541   23.0292 C   0  0  0  0  0  0
  -26.4502  -31.6528   25.0707 C   0  0  0  0  0  0
  -25.3700  -31.3707   26.1416 C   0  0  0  0  0  0
  -27.0469  -30.2973   24.6244 C   0  0  0  0  0  0
  -27.6072  -32.4293   25.7433 C   0  0  0  0  0  0
  -27.5586  -37.1763   24.8458 C   0  0  0  0  0  0
  -21.4209  -29.3017   22.3722 N   0  0  0  0  0  0
  -26.4288  -37.3699   23.9407 N   0  0  0  0  0  0
  -24.6932  -31.0497   22.0900 N   0  0  0  0  0  0
  -23.4235  -28.8061   23.2962 O   0  0  0  0  0  0
  -28.3691  -26.4330   20.0461 O   0  0  0  0  0  0
  -26.5610  -34.8872   22.4665 O   0  0  0  0  0  0
  -23.5464  -32.1317   23.7264 O   0  0  0  0  0  0
  -30.9759  -17.9715   20.5117 C   0  0  0  0  0  0
  -30.7661  -19.3986   20.3116 C   0  0  0  0  0  0
  -29.8502  -17.1774   20.5869 C   0  0  0  0  0  0
  -29.4371  -19.8065   20.2897 C   0  0  0  0  0  0
  -29.1287  -22.3576   20.4623 C   0  0  0  0  0  0
  -31.9374  -20.3086   20.0898 C   0  0  0  0  0  0
  -26.7840  -23.1781   20.0976 C   0  0  0  0  0  0
  -28.5642  -23.8058   18.4192 C   0  0  0  0  0  0
  -28.4486  -25.0657   20.6708 C   0  0  0  0  0  0
  -28.2590  -23.6166   19.9247 C   0  0  0  0  0  0
  -28.8482  -21.0627   20.0469 N   0  0  0  0  0  0
  -29.7171  -15.7892   20.7485 N   0  0  0  0  0  0
  -30.0276  -22.5691   21.2778 O   0  0  0  0  0  0
  -28.4724  -18.3081   20.4562 S   0  0  0  0  0  0
  -31.4787  -12.5861   19.1766 H   0  0  0  0  0  0
  -30.3980  -11.4499   19.9371 H   0  0  0  0  0  0
  -29.8005  -11.7278   17.5176 H   0  0  0  0  0  0
  -29.6429  -13.4549   17.7274 H   0  0  0  0  0  0
  -27.8983  -11.2670   18.9042 H   0  0  0  0  0  0
  -27.3827  -12.5101   17.7913 H   0  0  0  0  0  0
  -27.6470  -14.2390   19.4831 H   0  0  0  0  0  0
  -28.7120  -12.0811   21.3844 H   0  0  0  0  0  0
  -28.4093  -13.7409   21.8294 H   0  0  0  0  0  0
  -25.2674   -9.5736   22.4744 H   0  0  0  0  0  0
  -23.9960   -7.4652   22.7489 H   0  0  0  0  0  0
  -21.0783   -8.8694   19.8934 H   0  0  0  0  0  0
  -22.3573  -10.9627   19.6142 H   0  0  0  0  0  0
  -21.2003   -7.6118   23.9659 H   0  0  0  0  0  0
  -21.1500   -6.0527   25.9062 H   0  0  0  0  0  0
  -22.0599   -2.7570   23.2895 H   0  0  0  0  0  0
  -22.4072  -11.9850   22.4808 H   0  0  0  0  0  0
  -21.1066  -13.1212   22.2632 H   0  0  0  0  0  0
  -24.6530  -15.8382   20.5285 H   0  0  0  0  0  0
  -26.2611  -15.6301   20.0538 H   0  0  0  0  0  0
  -26.7181  -32.5388   23.1057 H   0  0  0  0  0  0
  -25.0099  -33.9622   25.0417 H   0  0  0  0  0  0
  -22.7214  -31.2856   21.3816 H   0  0  0  0  0  0
  -23.3766  -35.9620   23.3268 H   0  0  0  0  0  0
  -24.3606  -36.8948   22.2073 H   0  0  0  0  0  0
  -23.7327  -37.6476   23.6726 H   0  0  0  0  0  0
  -26.1101  -31.5388   20.6083 H   0  0  0  0  0  0
  -26.8451  -30.8191   22.0074 H   0  0  0  0  0  0
  -28.1483  -28.9585   21.1502 H   0  0  0  0  0  0
  -26.0044  -25.8872   19.0258 H   0  0  0  0  0  0
  -23.9787  -27.2656   19.0433 H   0  0  0  0  0  0
  -23.7619  -30.5576   19.3886 H   0  0  0  0  0  0
  -22.7704  -29.2102   19.8624 H   0  0  0  0  0  0
  -25.1289  -36.1826   25.0845 H   0  0  0  0  0  0
  -20.9930  -28.3246   24.1435 H   0  0  0  0  0  0
  -20.5750  -26.2263   23.3588 H   0  0  0  0  0  0
  -21.6635  -26.7449   22.1171 H   0  0  0  0  0  0
  -19.6952  -25.6264   21.1267 H   0  0  0  0  0  0
  -19.6760  -27.3156   20.6731 H   0  0  0  0  0  0
  -17.4197  -26.6668   21.3982 H   0  0  0  0  0  0
  -18.0310  -26.0094   22.9028 H   0  0  0  0  0  0
  -19.7968  -30.7294   24.2179 H   0  0  0  0  0  0
  -17.5030  -31.6269   24.5165 H   0  0  0  0  0  0
  -15.5367  -30.2956   23.7739 H   0  0  0  0  0  0
  -15.8666  -28.0908   22.6940 H   0  0  0  0  0  0
  -24.5842  -30.7104   25.7701 H   0  0  0  0  0  0
  -24.8916  -32.2900   26.4815 H   0  0  0  0  0  0
  -25.7910  -30.8854   27.0218 H   0  0  0  0  0  0
  -26.3132  -29.6571   24.1311 H   0  0  0  0  0  0
  -27.4255  -29.7353   25.4790 H   0  0  0  0  0  0
  -27.8910  -30.4317   23.9465 H   0  0  0  0  0  0
  -27.2724  -33.3668   26.1871 H   0  0  0  0  0  0
  -28.3861  -32.6712   25.0195 H   0  0  0  0  0  0
  -28.0729  -31.8497   26.5411 H   0  0  0  0  0  0
  -28.2508  -38.0138   24.7471 H   0  0  0  0  0  0
  -28.1160  -36.2639   24.6278 H   0  0  0  0  0  0
  -27.2289  -37.1369   25.8855 H   0  0  0  0  0  0
  -20.9439  -29.8799   21.6952 H   0  0  0  0  0  0
  -26.0178  -38.2773   24.1365 H   0  0  0  0  0  0
  -31.9779  -17.5692   20.5777 H   0  0  0  0  0  0
  -32.7365  -19.7879   19.5628 H   0  0  0  0  0  0
  -32.3626  -20.6619   21.0294 H   0  0  0  0  0  0
  -31.6719  -21.1700   19.4765 H   0  0  0  0  0  0
  -26.5390  -22.2881   19.5143 H   0  0  0  0  0  0
  -26.0809  -23.9422   19.7865 H   0  0  0  0  0  0
  -26.5549  -22.9609   21.1431 H   0  0  0  0  0  0
  -28.9688  -22.9079   17.9514 H   0  0  0  0  0  0
  -29.2872  -24.6041   18.2504 H   0  0  0  0  0  0
  -27.6652  -24.0733   17.8629 H   0  0  0  0  0  0
  -29.4631  -25.0616   21.0708 H   0  0  0  0  0  0
  -27.8195  -25.0797   21.5586 H   0  0  0  0  0  0
  -28.0176  -21.0187   19.4724 H   0  0  0  0  0  0
  -28.7880  -15.4879   21.0012 H   0  0  0  0  0  0
  1 25  1  0  0  0
  1 30  2  0  0  0
  1 82  1  0  0  0
  2  3  1  0  0  0
  2 25  1  0  0  0
  2 85  1  0  0  0
  2 86  1  0  0  0
  3  4  1  0  0  0
  3 87  1  0  0  0
  3 88  1  0  0  0
  4  5  1  0  0  0
  4 89  1  0  0  0
  4 90  1  0  0  0
  5  6  1  0  0  0
  5 26  1  0  0  0
  5 91  1  0  0  0
  6 25  1  0  0  0
  6 92  1  0  0  0
  6 93  1  0  0  0
  7  8  2  0  0  0
  7 26  1  0  0  0
  7 29  1  0  0  0
  8  9  1  0  0  0
  8 22  1  0  0  0
  9 10  1  0  0  0
  9 27  2  0  0  0
 10 11  2  0  0  0
 10 15  1  0  0  0
 11 12  1  0  0  0
 11 94  1  0  0  0
 12 13  2  0  0  0
 12 95  1  0  0  0
 13 14  1  0  0  0
 13 31  1  0  0  0
 14 15  2  0  0  0
 14 96  1  0  0  0
 15 97  1  0  0  0
 16 17  2  0  0  0
 16 21  1  0  0  0
 16 31  1  0  0  0
 17 18  1  0  0  0
 17 98  1  0  0  0
 18 19  2  0  0  0
 18 99  1  0  0  0
 19 20  1  0  0  0
 19 24  1  0  0  0
 20 21  2  0  0  0
 20100  1  0  0  0
 21 23  1  0  0  0
 22 28  1  0  0  0
 22 32  2  0  0  0
 26 27  1  0  0  0
 28101  1  0  0  0
 28102  1  0  0  0
 29103  1  0  0  0
 29104  1  0  0  0
 33 34  1  0  0  0
 33 66  1  0  0  0
 33 70  2  0  0  0
 34 36  1  0  0  0
 34 59  1  0  0  0
 34105  1  0  0  0
 35 44  2  0  0  0
 35 45  1  0  0  0
 35 68  1  0  0  0
 36 56  1  0  0  0
 36106  1  0  0  0
 37 39  1  0  0  0
 37 47  1  0  0  0
 37 66  1  0  0  0
 37107  1  0  0  0
 38 43  2  0  0  0
 38 46  1  0  0  0
 38 47  1  0  0  0
 39 64  1  0  0  0
 39 67  2  0  0  0
 40 52  1  0  0  0
 40 53  2  0  0  0
 40 58  1  0  0  0
 41108  1  0  0  0
 41109  1  0  0  0
 41110  1  0  0  0
 41 48  1  0  0  0
 42 43  1  0  0  0
 42 66  1  0  0  0
 42111  1  0  0  0
 42112  1  0  0  0
 43 44  1  0  0  0
 44113  1  0  0  0
 45 46  2  0  0  0
 45114  1  0  0  0
 46115  1  0  0  0
 47116  1  0  0  0
 47117  1  0  0  0
 48 56  1  0  0  0
 48 65  1  0  0  0
 48118  1  0  0  0
 49 50  1  0  0  0
 49 53  1  0  0  0
 49 64  1  0  0  0
 49119  1  0  0  0
 50 51  1  0  0  0
 50120  1  0  0  0
 50121  1  0  0  0
 51 52  1  0  0  0
 51122  1  0  0  0
 51123  1  0  0  0
 52124  1  0  0  0
 52125  1  0  0  0
 53 54  1  0  0  0
 54 55  2  0  0  0
 54126  1  0  0  0
 55 57  1  0  0  0
 55127  1  0  0  0
 56 69  2  0  0  0
 57 58  2  0  0  0
 57128  1  0  0  0
 58129  1  0  0  0
 59 60  1  0  0  0
 59 61  1  0  0  0
 59 62  1  0  0  0
 60130  1  0  0  0
 60131  1  0  0  0
 60132  1  0  0  0
 61133  1  0  0  0
 61134  1  0  0  0
 61135  1  0  0  0
 62136  1  0  0  0
 62137  1  0  0  0
 62138  1  0  0  0
 63 65  1  0  0  0
 63139  1  0  0  0
 63140  1  0  0  0
 63141  1  0  0  0
 64142  1  0  0  0
 65143  1  0  0  0
 68 79  1  0  0  0
 71 72  1  0  0  0
 71 73  2  0  0  0
 71144  1  0  0  0
 72 74  2  0  0  0
 72 76  1  0  0  0
 73 82  1  0  0  0
 73 84  1  0  0  0
 74 81  1  0  0  0
 74 84  1  0  0  0
 75 80  1  0  0  0
 75 81  1  0  0  0
 75 83  2  0  0  0
 76145  1  0  0  0
 76146  1  0  0  0
 76147  1  0  0  0
 77148  1  0  0  0
 77149  1  0  0  0
 77150  1  0  0  0
 77 80  1  0  0  0
 78 80  1  0  0  0
 78151  1  0  0  0
 78152  1  0  0  0
 78153  1  0  0  0
 79 80  1  0  0  0
 79154  1  0  0  0
 79155  1  0  0  0
 81156  1  0  0  0
 82157  1  0  0  0
M  ISO  4   1 100  68 101  79 101  82 100
M  END
> <chiral flag>
0

> <version>
0

> <s_m_source_file>
/data/baiqing/PycharmProjects/Reinvent-master-3.2/result/LINK_invent/BTK/process_docking_weight1_custom_product_contain_oxygen_bond_distance_aromatic_linkinvent_7_9_3/rearranged_h_0179.sdf

> <i_m_source_file_index>
17

> <r_mmod_Potential_Energy-OPLS-2005>
151.908401489258

> <r_mmod_Stretch_Energy-OPLS-2005>
115.933067321777

> <r_mmod_Bend_Energy-OPLS-2005>
193.988433837891

> <r_mmod_Torsional_Energy-OPLS-2005>
280.037750244141

> <r_mmod_Improper_Torsional_Energy-OPLS-2005>
5.27699184417725

> <r_mmod_Van_der_Waal_Energy-OPLS-2005>
114.898139953613

> <r_mmod_Electrostatic_Energy-OPLS-2005>
-410.319885253906

> <r_mmod_Solvation_Energy-OPLS-2005>
-220.702270507812

> <b_mmod_Minimization_Converged-OPLS-2005>
0

> <r_mmod_RMS_Derivative-OPLS-2005>
5.88177824020386

$$$$
17
                    3D
 Structure written by MMmdl.
156164  0  0  1  0            999 V2000
  -30.6198  -14.5730   20.5367 C   0  0  0  0  0  0
  -30.4414  -12.3584   19.4286 C   0  0  0  0  0  0
  -29.5021  -12.5043   18.2102 C   0  0  0  0  0  0
  -28.0241  -12.3428   18.6253 C   0  0  0  0  0  0
  -27.6548  -13.1980   19.8654 C   0  0  2  0  0  0
  -28.6992  -13.0068   20.9891 C   0  0  0  0  0  0
  -25.2571  -13.8129   20.5644 C   0  0  0  0  0  0
  -24.1826  -13.0419   20.9187 C   0  0  0  0  0  0
  -24.6369  -11.6885   20.8746 C   0  0  0  0  0  0
  -23.9040  -10.4278   21.0422 C   0  0  0  0  0  0
  -24.3604   -9.4193   21.9189 C   0  0  0  0  0  0
  -23.6282   -8.2237   22.0757 C   0  0  0  0  0  0
  -22.4268   -8.0276   21.3548 C   0  0  0  0  0  0
  -21.9896   -9.0246   20.4651 C   0  0  0  0  0  0
  -22.7222  -10.2128   20.3058 C   0  0  0  0  0  0
  -21.6846   -6.0732   22.5278 C   0  0  0  0  0  0
  -21.4016   -6.5637   23.8213 C   0  0  0  0  0  0
  -21.3659   -5.6784   24.9176 C   0  0  0  0  0  0
  -21.6042   -4.3051   24.7224 C   0  0  0  0  0  0
  -21.8819   -3.8142   23.4346 C   0  0  0  0  0  0
  -21.9195   -4.6957   22.3404 C   0  0  0  0  0  0
  -22.7853  -13.5234   21.1852 C   0  0  0  0  0  0
  -22.1659   -4.2145   21.0982 F   0  0  0  0  0  0
  -21.5632   -3.4535   25.7742 F   0  0  0  0  0  0
  -30.0189  -13.3504   20.4304 N   0  0  0  0  0  0
  -26.2981  -12.9268   20.3296 N   0  0  0  0  0  0
  -25.9285  -11.6449   20.5740 N   0  0  0  0  0  0
  -22.0490  -12.8230   22.0414 N   0  0  0  0  0  0
  -25.4277  -15.1851   20.4033 N   0  0  0  0  0  0
  -31.7859  -14.7633   20.1674 O   0  0  0  0  0  0
  -21.6633   -6.8874   21.4244 O   0  0  0  0  0  0
  -22.3549  -14.5549   20.6706 O   0  0  0  0  0  0
  -24.6196  -31.8652   23.2028 C   0  0  0  0  0  0
  -25.9062  -32.4807   23.8361 C   0  0  1  0  0  0
  -27.2349  -27.3745   20.0943 C   0  0  0  0  0  0
  -25.5898  -33.8605   24.2286 N   0  0  0  0  0  0
  -23.4101  -30.4862   21.5447 C   0  0  2  0  0  0
  -24.8536  -28.9406   20.1130 C   0  0  0  0  0  0
  -22.7455  -29.4640   22.4966 C   0  0  0  0  0  0
  -18.0273  -28.1386   22.8475 C   0  0  0  0  0  0
  -24.1483  -36.7306   23.2636 C   0  0  0  0  0  0
  -25.9434  -30.8131   21.3599 C   0  0  0  0  0  0
  -26.0176  -29.4399   20.7078 C   0  0  0  0  0  0
  -27.2051  -28.6644   20.6936 C   0  0  0  0  0  0
  -26.0377  -26.8889   19.5241 C   0  0  0  0  0  0
  -24.8615  -27.6663   19.5176 C   0  0  0  0  0  0
  -23.6195  -29.8164   20.1607 C   0  0  0  0  0  0
  -25.4103  -36.3093   24.0331 C   0  0  1  0  0  0
  -20.5874  -28.3669   23.1302 C   0  0  2  0  0  0
  -20.6774  -26.9404   22.5412 C   0  0  0  0  0  0
  -19.5745  -26.6381   21.5216 C   0  0  0  0  0  0
  -18.1916  -26.7925   22.1620 C   0  0  0  0  0  0
  -19.1530  -28.8845   23.2881 C   0  0  0  0  0  0
  -18.9467  -30.1448   23.8898 C   0  0  0  0  0  0
  -17.6461  -30.6583   24.0568 C   0  0  0  0  0  0
  -25.9037  -34.9466   23.5102 C   0  0  0  0  0  0
  -16.5355  -29.9093   23.6312 C   0  0  0  0  0  0
  -16.7271  -28.6515   23.0324 C   0  0  0  0  0  0
  -26.4454  -31.6597   25.0714 C   0  0  0  0  0  0
  -25.3699  -31.3748   26.1458 C   0  0  0  0  0  0
  -27.0272  -30.3030   24.6104 C   0  0  0  0  0  0
  -27.6019  -32.4335   25.7485 C   0  0  0  0  0  0
  -27.5575  -37.1804   24.8467 C   0  0  0  0  0  0
  -21.4179  -29.3038   22.3721 N   0  0  0  0  0  0
  -26.4284  -37.3785   23.9410 N   0  0  0  0  0  0
  -24.6761  -31.0707   22.0943 N   0  0  0  0  0  0
  -23.4207  -28.8185   23.3034 O   0  0  0  0  0  0
  -28.4232  -26.6482   20.1290 O   0  0  0  0  0  0
  -26.5611  -34.8928   22.4671 O   0  0  0  0  0  0
  -23.5381  -32.1442   23.7382 O   0  0  0  0  0  0
  -29.5367  -19.4191   22.1952 C   0  0  0  0  0  0
  -29.5282  -19.1650   20.8053 C   0  0  0  0  0  0
  -29.7244  -18.3093   23.0239 C   0  0  0  0  0  0
  -29.9005  -16.8886   21.2400 C   0  0  0  0  0  0
  -29.3521  -20.3066   19.7955 C   0  0  0  0  0  0
  -28.4029  -24.0672   20.0699 C   0  0  0  0  0  0
  -28.3232  -25.4932   17.8689 C   0  0  0  0  0  0
  -28.8903  -22.7579   19.3728 C   0  0  0  0  0  0
  -28.7131  -25.4336   19.3601 C   0  0  1  0  0  0
  -29.6945  -17.8757   20.3506 N   0  0  0  0  0  0
  -29.9006  -17.0634   22.5596 N   0  0  0  0  0  0
  -29.6981  -18.4557   24.4024 N   0  0  0  0  0  0
  -29.7508  -15.5752   20.8344 N   0  0  0  0  0  0
  -28.9921  -21.5432   20.2322 N   0  0  0  0  0  0
  -29.5341  -20.0953   18.5906 O   0  0  0  0  0  0
  -27.8219  -24.0198   21.1597 O   0  0  0  0  0  0
  -29.3634  -20.6563   22.7288 F   0  0  0  0  0  0
  -31.4804  -12.4982   19.1270 H   0  0  0  0  0  0
  -30.3810  -11.3517   19.8440 H   0  0  0  0  0  0
  -29.7577  -11.7687   17.4466 H   0  0  0  0  0  0
  -29.6446  -13.4826   17.7491 H   0  0  0  0  0  0
  -27.8578  -11.2864   18.8423 H   0  0  0  0  0  0
  -27.3666  -12.5874   17.7901 H   0  0  0  0  0  0
  -27.6829  -14.2370   19.5403 H   0  0  0  0  0  0
  -28.6991  -11.9714   21.3350 H   0  0  0  0  0  0
  -28.4503  -13.6070   21.8664 H   0  0  0  0  0  0
  -25.2755   -9.5673   22.4748 H   0  0  0  0  0  0
  -23.9991   -7.4631   22.7472 H   0  0  0  0  0  0
  -21.0826   -8.8764   19.8954 H   0  0  0  0  0  0
  -22.3683  -10.9666   19.6161 H   0  0  0  0  0  0
  -21.2007   -7.6144   23.9715 H   0  0  0  0  0  0
  -21.1479   -6.0520   25.9079 H   0  0  0  0  0  0
  -22.0598   -2.7604   23.2849 H   0  0  0  0  0  0
  -22.4098  -11.9882   22.4786 H   0  0  0  0  0  0
  -21.1117  -13.1270   22.2635 H   0  0  0  0  0  0
  -24.6462  -15.8267   20.4930 H   0  0  0  0  0  0
  -26.2503  -15.6232   20.0100 H   0  0  0  0  0  0
  -26.7138  -32.5490   23.1133 H   0  0  0  0  0  0
  -25.0061  -33.9782   25.0439 H   0  0  0  0  0  0
  -22.6983  -31.3020   21.4015 H   0  0  0  0  0  0
  -23.3744  -35.9639   23.3308 H   0  0  0  0  0  0
  -24.3577  -36.8921   22.2051 H   0  0  0  0  0  0
  -23.7237  -37.6509   23.6655 H   0  0  0  0  0  0
  -26.0550  -31.5758   20.5869 H   0  0  0  0  0  0
  -26.8304  -30.8741   21.9789 H   0  0  0  0  0  0
  -28.1050  -29.0518   21.1497 H   0  0  0  0  0  0
  -25.9803  -25.8967   19.1067 H   0  0  0  0  0  0
  -23.9599  -27.2680   19.0714 H   0  0  0  0  0  0
  -23.7388  -30.5922   19.4034 H   0  0  0  0  0  0
  -22.7408  -29.2456   19.8557 H   0  0  0  0  0  0
  -25.1279  -36.1952   25.0826 H   0  0  0  0  0  0
  -20.9953  -28.3249   24.1431 H   0  0  0  0  0  0
  -20.5664  -26.2309   23.3618 H   0  0  0  0  0  0
  -21.6647  -26.7439   22.1217 H   0  0  0  0  0  0
  -19.6905  -25.6290   21.1251 H   0  0  0  0  0  0
  -19.6673  -27.3198   20.6748 H   0  0  0  0  0  0
  -17.4193  -26.6675   21.4015 H   0  0  0  0  0  0
  -18.0302  -26.0064   22.9014 H   0  0  0  0  0  0
  -19.7948  -30.7253   24.2283 H   0  0  0  0  0  0
  -17.5029  -31.6255   24.5188 H   0  0  0  0  0  0
  -15.5360  -30.3004   23.7627 H   0  0  0  0  0  0
  -15.8671  -28.0848   22.7012 H   0  0  0  0  0  0
  -24.5880  -30.7069   25.7815 H   0  0  0  0  0  0
  -24.8884  -32.2917   26.4840 H   0  0  0  0  0  0
  -25.8044  -30.8971   27.0252 H   0  0  0  0  0  0
  -26.2813  -29.6824   24.1120 H   0  0  0  0  0  0
  -27.3987  -29.7220   25.4557 H   0  0  0  0  0  0
  -27.8669  -30.4324   23.9280 H   0  0  0  0  0  0
  -27.2617  -33.3667   26.2003 H   0  0  0  0  0  0
  -28.3857  -32.6871   25.0326 H   0  0  0  0  0  0
  -28.0645  -31.8505   26.5456 H   0  0  0  0  0  0
  -28.2586  -38.0106   24.7515 H   0  0  0  0  0  0
  -28.1074  -36.2636   24.6283 H   0  0  0  0  0  0
  -27.2306  -37.1455   25.8876 H   0  0  0  0  0  0
  -20.9360  -29.8809   21.6965 H   0  0  0  0  0  0
  -26.0169  -38.2857   24.1429 H   0  0  0  0  0  0
  -29.0134  -24.8935   17.2746 H   0  0  0  0  0  0
  -28.3754  -26.5128   17.4887 H   0  0  0  0  0  0
  -27.3255  -25.1066   17.6688 H   0  0  0  0  0  0
  -29.8703  -22.9531   18.9352 H   0  0  0  0  0  0
  -28.2101  -22.5573   18.5434 H   0  0  0  0  0  0
  -29.8030  -25.4447   19.3495 H   0  0  0  0  0  0
  -29.7526  -19.3956   24.7737 H   0  0  0  0  0  0
  -30.0346  -17.7169   25.0039 H   0  0  0  0  0  0
  -28.8273  -15.2194   20.9998 H   0  0  0  0  0  0
  -28.8733  -21.6467   21.2355 H   0  0  0  0  0  0
  1 25  1  0  0  0
  1 30  2  0  0  0
  1 83  1  0  0  0
  2  3  1  0  0  0
  2 25  1  0  0  0
  2 88  1  0  0  0
  2 89  1  0  0  0
  3  4  1  0  0  0
  3 90  1  0  0  0
  3 91  1  0  0  0
  4  5  1  0  0  0
  4 92  1  0  0  0
  4 93  1  0  0  0
  5  6  1  0  0  0
  5 26  1  0  0  0
  5 94  1  0  0  0
  6 25  1  0  0  0
  6 95  1  0  0  0
  6 96  1  0  0  0
  7  8  2  0  0  0
  7 26  1  0  0  0
  7 29  1  0  0  0
  8  9  1  0  0  0
  8 22  1  0  0  0
  9 10  1  0  0  0
  9 27  2  0  0  0
 10 11  2  0  0  0
 10 15  1  0  0  0
 11 12  1  0  0  0
 11 97  1  0  0  0
 12 13  2  0  0  0
 12 98  1  0  0  0
 13 14  1  0  0  0
 13 31  1  0  0  0
 14 15  2  0  0  0
 14 99  1  0  0  0
 15100  1  0  0  0
 16 17  2  0  0  0
 16 21  1  0  0  0
 16 31  1  0  0  0
 17 18  1  0  0  0
 17101  1  0  0  0
 18 19  2  0  0  0
 18102  1  0  0  0
 19 20  1  0  0  0
 19 24  1  0  0  0
 20 21  2  0  0  0
 20103  1  0  0  0
 21 23  1  0  0  0
 22 28  1  0  0  0
 22 32  2  0  0  0
 26 27  1  0  0  0
 28104  1  0  0  0
 28105  1  0  0  0
 29106  1  0  0  0
 29107  1  0  0  0
 33 34  1  0  0  0
 33 66  1  0  0  0
 33 70  2  0  0  0
 34 36  1  0  0  0
 34 59  1  0  0  0
 34108  1  0  0  0
 35 44  2  0  0  0
 35 45  1  0  0  0
 35 68  1  0  0  0
 36 56  1  0  0  0
 36109  1  0  0  0
 37 39  1  0  0  0
 37 47  1  0  0  0
 37 66  1  0  0  0
 37110  1  0  0  0
 38 43  2  0  0  0
 38 46  1  0  0  0
 38 47  1  0  0  0
 39 64  1  0  0  0
 39 67  2  0  0  0
 40 52  1  0  0  0
 40 53  2  0  0  0
 40 58  1  0  0  0
 41111  1  0  0  0
 41112  1  0  0  0
 41113  1  0  0  0
 41 48  1  0  0  0
 42 43  1  0  0  0
 42 66  1  0  0  0
 42114  1  0  0  0
 42115  1  0  0  0
 43 44  1  0  0  0
 44116  1  0  0  0
 45 46  2  0  0  0
 45117  1  0  0  0
 46118  1  0  0  0
 47119  1  0  0  0
 47120  1  0  0  0
 48 56  1  0  0  0
 48 65  1  0  0  0
 48121  1  0  0  0
 49 50  1  0  0  0
 49 53  1  0  0  0
 49 64  1  0  0  0
 49122  1  0  0  0
 50 51  1  0  0  0
 50123  1  0  0  0
 50124  1  0  0  0
 51 52  1  0  0  0
 51125  1  0  0  0
 51126  1  0  0  0
 52127  1  0  0  0
 52128  1  0  0  0
 53 54  1  0  0  0
 54 55  2  0  0  0
 54129  1  0  0  0
 55 57  1  0  0  0
 55130  1  0  0  0
 56 69  2  0  0  0
 57 58  2  0  0  0
 57131  1  0  0  0
 58132  1  0  0  0
 59 60  1  0  0  0
 59 61  1  0  0  0
 59 62  1  0  0  0
 60133  1  0  0  0
 60134  1  0  0  0
 60135  1  0  0  0
 61136  1  0  0  0
 61137  1  0  0  0
 61138  1  0  0  0
 62139  1  0  0  0
 62140  1  0  0  0
 62141  1  0  0  0
 63 65  1  0  0  0
 63142  1  0  0  0
 63143  1  0  0  0
 63144  1  0  0  0
 64145  1  0  0  0
 65146  1  0  0  0
 68 79  1  0  0  0
 71 72  2  0  0  0
 71 73  1  0  0  0
 71 87  1  0  0  0
 72 75  1  0  0  0
 72 80  1  0  0  0
 73 81  2  0  0  0
 73 82  1  0  0  0
 74 80  2  0  0  0
 74 81  1  0  0  0
 74 83  1  0  0  0
 75 84  1  0  0  0
 75 85  2  0  0  0
 76 78  1  0  0  0
 76 79  1  0  0  0
 76 86  2  0  0  0
 77147  1  0  0  0
 77148  1  0  0  0
 77149  1  0  0  0
 77 79  1  0  0  0
 78 84  1  0  0  0
 78150  1  0  0  0
 78151  1  0  0  0
 79152  1  0  0  0
 82153  1  0  0  0
 82154  1  0  0  0
 83155  1  0  0  0
 84156  1  0  0  0
M  ISO  4   1 100  68 101  79 101  83 100
M  END
> <chiral flag>
0

> <version>
0

> <s_m_source_file>
/data/baiqing/PycharmProjects/Reinvent-master-3.2/result/LINK_invent/BTK/process_docking_weight1_custom_product_contain_oxygen_bond_distance_aromatic_linkinvent_7_9_3/rearranged_h_0179.sdf

> <i_m_source_file_index>
18

> <r_mmod_Potential_Energy-OPLS-2005>
-473.36474609375

> <r_mmod_Stretch_Energy-OPLS-2005>
57.1004257202148

> <r_mmod_Bend_Energy-OPLS-2005>
154.33235168457

> <r_mmod_Torsional_Energy-OPLS-2005>
244.868667602539

> <r_mmod_Improper_Torsional_Energy-OPLS-2005>
11.5988960266113

> <r_mmod_Van_der_Waal_Energy-OPLS-2005>
154.554962158203

> <r_mmod_Electrostatic_Energy-OPLS-2005>
-855.495422363281

> <r_mmod_Solvation_Energy-OPLS-2005>
-268.288208007812

> <b_mmod_Minimization_Converged-OPLS-2005>
0

> <r_mmod_RMS_Derivative-OPLS-2005>
2.46685433387756

$$$$
18
                    3D
 Structure written by MMmdl.
160168  0  0  1  0            999 V2000
  -30.6626  -14.5671   20.4748 C   0  0  0  0  0  0
  -30.4268  -12.3424   19.4474 C   0  0  0  0  0  0
  -29.5013  -12.5078   18.2222 C   0  0  0  0  0  0
  -28.0236  -12.3636   18.6361 C   0  0  0  0  0  0
  -27.6552  -13.2190   19.8793 C   0  0  2  0  0  0
  -28.7051  -13.0502   21.0062 C   0  0  0  0  0  0
  -25.2540  -13.8136   20.5599 C   0  0  0  0  0  0
  -24.1814  -13.0423   20.9184 C   0  0  0  0  0  0
  -24.6382  -11.6898   20.8807 C   0  0  0  0  0  0
  -23.9048  -10.4276   21.0413 C   0  0  0  0  0  0
  -24.3622   -9.4185   21.9185 C   0  0  0  0  0  0
  -23.6292   -8.2230   22.0759 C   0  0  0  0  0  0
  -22.4269   -8.0276   21.3542 C   0  0  0  0  0  0
  -21.9896   -9.0244   20.4640 C   0  0  0  0  0  0
  -22.7222  -10.2126   20.3037 C   0  0  0  0  0  0
  -21.6854   -6.0734   22.5286 C   0  0  0  0  0  0
  -21.4009   -6.5635   23.8221 C   0  0  0  0  0  0
  -21.3663   -5.6787   24.9180 C   0  0  0  0  0  0
  -21.6040   -4.3052   24.7232 C   0  0  0  0  0  0
  -21.8815   -3.8147   23.4354 C   0  0  0  0  0  0
  -21.9186   -4.6961   22.3408 C   0  0  0  0  0  0
  -22.7836  -13.5231   21.1879 C   0  0  0  0  0  0
  -22.1656   -4.2147   21.0994 F   0  0  0  0  0  0
  -21.5635   -3.4533   25.7754 F   0  0  0  0  0  0
  -30.0203  -13.3627   20.4335 N   0  0  0  0  0  0
  -26.3000  -12.9347   20.3381 N   0  0  0  0  0  0
  -25.9335  -11.6498   20.5845 N   0  0  0  0  0  0
  -22.0457  -12.8209   22.0408 N   0  0  0  0  0  0
  -25.4186  -15.1811   20.3820 N   0  0  0  0  0  0
  -31.8464  -14.6602   20.1492 O   0  0  0  0  0  0
  -21.6623   -6.8886   21.4249 O   0  0  0  0  0  0
  -22.3528  -14.5518   20.6714 O   0  0  0  0  0  0
  -24.6146  -31.8667   23.2100 C   0  0  0  0  0  0
  -25.9045  -32.4816   23.8407 C   0  0  1  0  0  0
  -27.2363  -27.3984   20.0969 C   0  0  0  0  0  0
  -25.5878  -33.8600   24.2328 N   0  0  0  0  0  0
  -23.4027  -30.4906   21.5556 C   0  0  2  0  0  0
  -24.8500  -28.9404   20.1278 C   0  0  0  0  0  0
  -22.7390  -29.4719   22.5051 C   0  0  0  0  0  0
  -18.0292  -28.1322   22.8633 C   0  0  0  0  0  0
  -24.1482  -36.7293   23.2643 C   0  0  0  0  0  0
  -25.9345  -30.8221   21.3672 C   0  0  0  0  0  0
  -26.0127  -29.4488   20.7153 C   0  0  0  0  0  0
  -27.2066  -28.6871   20.6947 C   0  0  0  0  0  0
  -26.0536  -26.9063   19.5103 C   0  0  0  0  0  0
  -24.8673  -27.6718   19.5211 C   0  0  0  0  0  0
  -23.6117  -29.8187   20.1728 C   0  0  0  0  0  0
  -25.4113  -36.3088   24.0332 C   0  0  1  0  0  0
  -20.5873  -28.3768   23.1471 C   0  0  2  0  0  0
  -20.6860  -26.9496   22.5528 C   0  0  0  0  0  0
  -19.5872  -26.6438   21.5311 C   0  0  0  0  0  0
  -18.2036  -26.7867   22.1694 C   0  0  0  0  0  0
  -19.1529  -28.8835   23.3038 C   0  0  0  0  0  0
  -18.9379  -30.1410   23.9094 C   0  0  0  0  0  0
  -17.6381  -30.6526   24.0636 C   0  0  0  0  0  0
  -25.9061  -34.9451   23.5151 C   0  0  0  0  0  0
  -16.5304  -29.8999   23.6427 C   0  0  0  0  0  0
  -16.7272  -28.6365   23.0525 C   0  0  0  0  0  0
  -26.4454  -31.6589   25.0716 C   0  0  0  0  0  0
  -25.3708  -31.3677   26.1465 C   0  0  0  0  0  0
  -27.0304  -30.3016   24.6133 C   0  0  0  0  0  0
  -27.6028  -32.4350   25.7448 C   0  0  0  0  0  0
  -27.5583  -37.1805   24.8469 C   0  0  0  0  0  0
  -21.4080  -29.3188   22.3882 N   0  0  0  0  0  0
  -26.4292  -37.3776   23.9422 N   0  0  0  0  0  0
  -24.6730  -31.0741   22.1036 N   0  0  0  0  0  0
  -23.4138  -28.8202   23.3083 O   0  0  0  0  0  0
  -28.4342  -26.7077   20.0105 O   0  0  0  0  0  0
  -26.5597  -34.8888   22.4686 O   0  0  0  0  0  0
  -23.5347  -32.1435   23.7467 O   0  0  0  0  0  0
  -29.3198  -19.3268   20.0672 C   0  0  0  0  0  0
  -27.1907  -20.1820   20.8108 C   0  0  0  0  0  0
  -29.0840  -18.0547   20.6897 C   0  0  0  0  0  0
  -27.8846  -17.9083   21.4650 C   0  0  0  0  0  0
  -28.4106  -20.4161   20.1607 C   0  0  0  0  0  0
  -26.9262  -18.9613   21.4522 C   0  0  0  0  0  0
  -28.5469  -25.3279   20.0930 C   0  0  0  0  0  0
  -30.1804  -16.9800   20.5626 C   0  0  0  0  0  0
  -28.3372  -24.1193   19.4663 C   0  0  0  0  0  0
  -28.4156  -22.8950   20.2868 C   0  0  0  0  0  0
  -27.6359  -16.7366   22.4246 C   0  0  0  0  0  0
  -24.6200  -18.5355   21.1195 C   0  0  0  0  0  0
  -28.6484  -21.7332   19.6111 N   0  0  0  0  0  0
  -25.6802  -18.8377   22.0742 N   0  0  0  0  0  0
  -29.8663  -15.6566   20.6634 N   0  0  0  0  0  0
  -31.3189  -17.3787   20.2844 O   0  0  0  0  0  0
  -28.3283  -22.8985   21.5179 O   0  0  0  0  0  0
  -28.0309  -23.9893   18.1546 O   0  0  0  0  0  0
  -31.4788  -12.4320   19.1652 H   0  0  0  0  0  0
  -30.3259  -11.3428   19.8740 H   0  0  0  0  0  0
  -29.7505  -11.7691   17.4602 H   0  0  0  0  0  0
  -29.6719  -13.4860   17.7762 H   0  0  0  0  0  0
  -27.8470  -11.3105   18.8596 H   0  0  0  0  0  0
  -27.3674  -12.6012   17.7994 H   0  0  0  0  0  0
  -27.6801  -14.2549   19.5478 H   0  0  0  0  0  0
  -28.6990  -12.0274   21.3895 H   0  0  0  0  0  0
  -28.4877  -13.6709   21.8766 H   0  0  0  0  0  0
  -25.2757   -9.5677   22.4751 H   0  0  0  0  0  0
  -23.9993   -7.4630   22.7464 H   0  0  0  0  0  0
  -21.0838   -8.8772   19.8946 H   0  0  0  0  0  0
  -22.3683  -10.9685   19.6161 H   0  0  0  0  0  0
  -21.1999   -7.6143   23.9730 H   0  0  0  0  0  0
  -21.1489   -6.0518   25.9092 H   0  0  0  0  0  0
  -22.0594   -2.7604   23.2858 H   0  0  0  0  0  0
  -22.4097  -11.9893   22.4849 H   0  0  0  0  0  0
  -21.1103  -13.1296   22.2632 H   0  0  0  0  0  0
  -24.6543  -15.8337   20.4939 H   0  0  0  0  0  0
  -26.2506  -15.6160   20.0134 H   0  0  0  0  0  0
  -26.7094  -32.5504   23.1153 H   0  0  0  0  0  0
  -25.0051  -33.9813   25.0498 H   0  0  0  0  0  0
  -22.6921  -31.3088   21.4186 H   0  0  0  0  0  0
  -23.3754  -35.9621   23.3312 H   0  0  0  0  0  0
  -24.3600  -36.8891   22.2064 H   0  0  0  0  0  0
  -23.7234  -37.6494   23.6660 H   0  0  0  0  0  0
  -26.0498  -31.5939   20.6036 H   0  0  0  0  0  0
  -26.8192  -30.8752   21.9932 H   0  0  0  0  0  0
  -28.1100  -29.0932   21.1310 H   0  0  0  0  0  0
  -26.0450  -25.9403   19.0292 H   0  0  0  0  0  0
  -23.9717  -27.2818   19.0562 H   0  0  0  0  0  0
  -23.7179  -30.6001   19.4182 H   0  0  0  0  0  0
  -22.7332  -29.2407   19.8808 H   0  0  0  0  0  0
  -25.1301  -36.1963   25.0824 H   0  0  0  0  0  0
  -20.9946  -28.3400   24.1622 H   0  0  0  0  0  0
  -21.6738  -26.7681   22.1232 H   0  0  0  0  0  0
  -20.5881  -26.2292   23.3677 H   0  0  0  0  0  0
  -19.7170  -25.6414   21.1199 H   0  0  0  0  0  0
  -19.6748  -27.3410   20.6964 H   0  0  0  0  0  0
  -17.4319  -26.6565   21.4076 H   0  0  0  0  0  0
  -18.0451  -25.9886   22.8999 H   0  0  0  0  0  0
  -19.7812  -30.7152   24.2617 H   0  0  0  0  0  0
  -17.4898  -31.6192   24.5218 H   0  0  0  0  0  0
  -15.5279  -30.2870   23.7757 H   0  0  0  0  0  0
  -15.8667  -28.0611   22.7384 H   0  0  0  0  0  0
  -24.5884  -30.7032   25.7758 H   0  0  0  0  0  0
  -24.8878  -32.2832   26.4907 H   0  0  0  0  0  0
  -25.8022  -30.8823   27.0250 H   0  0  0  0  0  0
  -26.2865  -29.6754   24.1175 H   0  0  0  0  0  0
  -27.4055  -29.7258   25.4623 H   0  0  0  0  0  0
  -27.8718  -30.4306   23.9308 H   0  0  0  0  0  0
  -27.2643  -33.3677   26.2016 H   0  0  0  0  0  0
  -28.3792  -32.6921   25.0204 H   0  0  0  0  0  0
  -28.0781  -31.8511   26.5365 H   0  0  0  0  0  0
  -28.2602  -38.0091   24.7522 H   0  0  0  0  0  0
  -28.1062  -36.2636   24.6290 H   0  0  0  0  0  0
  -27.2311  -37.1451   25.8864 H   0  0  0  0  0  0
  -20.9221  -29.8943   21.7155 H   0  0  0  0  0  0
  -26.0181  -38.2855   24.1393 H   0  0  0  0  0  0
  -30.2411  -19.4842   19.5302 H   0  0  0  0  0  0
  -26.4653  -20.9782   20.8221 H   0  0  0  0  0  0
  -28.9721  -25.5761   19.1358 H   0  0  0  0  0  0
  -27.9768  -15.7682   22.0835 H   0  0  0  0  0  0
  -26.5793  -16.6065   22.6563 H   0  0  0  0  0  0
  -28.1306  -16.9383   23.3750 H   0  0  0  0  0  0
  -24.0068  -19.4200   20.9465 H   0  0  0  0  0  0
  -23.9693  -17.7503   21.5057 H   0  0  0  0  0  0
  -24.9913  -18.2146   20.1430 H   0  0  0  0  0  0
  -28.9952  -21.7990   18.6606 H   0  0  0  0  0  0
  -25.4472  -19.6757   22.5999 H   0  0  0  0  0  0
  -28.9021  -15.4639   20.8616 H   0  0  0  0  0  0
  -27.6010  -23.1471   18.0500 H   0  0  0  0  0  0
  1 25  1  0  0  0
  1 30  2  0  0  0
  1 85  1  0  0  0
  2  3  1  0  0  0
  2 25  1  0  0  0
  2 89  1  0  0  0
  2 90  1  0  0  0
  3  4  1  0  0  0
  3 91  1  0  0  0
  3 92  1  0  0  0
  4  5  1  0  0  0
  4 93  1  0  0  0
  4 94  1  0  0  0
  5  6  1  0  0  0
  5 26  1  0  0  0
  5 95  1  0  0  0
  6 25  1  0  0  0
  6 96  1  0  0  0
  6 97  1  0  0  0
  7  8  2  0  0  0
  7 26  1  0  0  0
  7 29  1  0  0  0
  8  9  1  0  0  0
  8 22  1  0  0  0
  9 10  1  0  0  0
  9 27  2  0  0  0
 10 11  2  0  0  0
 10 15  1  0  0  0
 11 12  1  0  0  0
 11 98  1  0  0  0
 12 13  2  0  0  0
 12 99  1  0  0  0
 13 14  1  0  0  0
 13 31  1  0  0  0
 14 15  2  0  0  0
 14100  1  0  0  0
 15101  1  0  0  0
 16 17  2  0  0  0
 16 21  1  0  0  0
 16 31  1  0  0  0
 17 18  1  0  0  0
 17102  1  0  0  0
 18 19  2  0  0  0
 18103  1  0  0  0
 19 20  1  0  0  0
 19 24  1  0  0  0
 20 21  2  0  0  0
 20104  1  0  0  0
 21 23  1  0  0  0
 22 28  1  0  0  0
 22 32  2  0  0  0
 26 27  1  0  0  0
 28105  1  0  0  0
 28106  1  0  0  0
 29107  1  0  0  0
 29108  1  0  0  0
 33 34  1  0  0  0
 33 66  1  0  0  0
 33 70  2  0  0  0
 34 36  1  0  0  0
 34 59  1  0  0  0
 34109  1  0  0  0
 35 44  2  0  0  0
 35 45  1  0  0  0
 35 68  1  0  0  0
 36 56  1  0  0  0
 36110  1  0  0  0
 37 39  1  0  0  0
 37 47  1  0  0  0
 37 66  1  0  0  0
 37111  1  0  0  0
 38 43  2  0  0  0
 38 46  1  0  0  0
 38 47  1  0  0  0
 39 64  1  0  0  0
 39 67  2  0  0  0
 40 52  1  0  0  0
 40 53  2  0  0  0
 40 58  1  0  0  0
 41112  1  0  0  0
 41113  1  0  0  0
 41114  1  0  0  0
 41 48  1  0  0  0
 42 43  1  0  0  0
 42 66  1  0  0  0
 42115  1  0  0  0
 42116  1  0  0  0
 43 44  1  0  0  0
 44117  1  0  0  0
 45 46  2  0  0  0
 45118  1  0  0  0
 46119  1  0  0  0
 47120  1  0  0  0
 47121  1  0  0  0
 48 56  1  0  0  0
 48 65  1  0  0  0
 48122  1  0  0  0
 49 50  1  0  0  0
 49 53  1  0  0  0
 49 64  1  0  0  0
 49123  1  0  0  0
 50 51  1  0  0  0
 50124  1  0  0  0
 50125  1  0  0  0
 51 52  1  0  0  0
 51126  1  0  0  0
 51127  1  0  0  0
 52128  1  0  0  0
 52129  1  0  0  0
 53 54  1  0  0  0
 54 55  2  0  0  0
 54130  1  0  0  0
 55 57  1  0  0  0
 55131  1  0  0  0
 56 69  2  0  0  0
 57 58  2  0  0  0
 57132  1  0  0  0
 58133  1  0  0  0
 59 60  1  0  0  0
 59 61  1  0  0  0
 59 62  1  0  0  0
 60134  1  0  0  0
 60135  1  0  0  0
 60136  1  0  0  0
 61137  1  0  0  0
 61138  1  0  0  0
 61139  1  0  0  0
 62140  1  0  0  0
 62141  1  0  0  0
 62142  1  0  0  0
 63 65  1  0  0  0
 63143  1  0  0  0
 63144  1  0  0  0
 63145  1  0  0  0
 64146  1  0  0  0
 65147  1  0  0  0
 68 77  1  0  0  0
 71 73  2  0  0  0
 71 75  1  0  0  0
 71148  1  0  0  0
 72 75  2  0  0  0
 72 76  1  0  0  0
 72149  1  0  0  0
 73 74  1  0  0  0
 73 78  1  0  0  0
 74 76  2  0  0  0
 74 81  1  0  0  0
 75 83  1  0  0  0
 76 84  1  0  0  0
 77 79  2  0  0  0
 77150  1  0  0  0
 78 85  1  0  0  0
 78 86  2  0  0  0
 79 80  1  0  0  0
 79 88  1  0  0  0
 80 83  1  0  0  0
 80 87  2  0  0  0
 81151  1  0  0  0
 81152  1  0  0  0
 81153  1  0  0  0
 82 84  1  0  0  0
 82154  1  0  0  0
 82155  1  0  0  0
 82156  1  0  0  0
 83157  1  0  0  0
 84158  1  0  0  0
 85159  1  0  0  0
 88160  1  0  0  0
M  ISO  4   1 100  68 101  77 101  85 100
M  END
> <chiral flag>
0

> <version>
0

> <s_m_source_file>
/data/baiqing/PycharmProjects/Reinvent-master-3.2/result/LINK_invent/BTK/process_docking_weight1_custom_product_contain_oxygen_bond_distance_aromatic_linkinvent_7_9_3/rearranged_h_0179.sdf

> <i_m_source_file_index>
19

> <r_mmod_Potential_Energy-OPLS-2005>
211.403839111328

> <r_mmod_Stretch_Energy-OPLS-2005>
59.4671173095703

> <r_mmod_Bend_Energy-OPLS-2005>
339.621398925781

> <r_mmod_Torsional_Energy-OPLS-2005>
327.058044433594

> <r_mmod_Improper_Torsional_Energy-OPLS-2005>
35.3373489379883

> <r_mmod_Van_der_Waal_Energy-OPLS-2005>
182.082427978516

> <r_mmod_Electrostatic_Energy-OPLS-2005>
-493.190795898438

> <r_mmod_Solvation_Energy-OPLS-2005>
-263.641448974609

> <b_mmod_Minimization_Converged-OPLS-2005>
0

> <r_mmod_RMS_Derivative-OPLS-2005>
9.42563533782959

$$$$
19
                    3D
 Structure written by MMmdl.
149157  0  0  1  0            999 V2000
  -30.5827  -14.8012   20.4621 C   0  0  0  0  0  0
  -30.4399  -12.4914   19.4860 C   0  0  0  0  0  0
  -29.5157  -12.5160   18.2471 C   0  0  0  0  0  0
  -28.0444  -12.3231   18.6619 C   0  0  0  0  0  0
  -27.6408  -13.2322   19.8519 C   0  0  2  0  0  0
  -28.6832  -13.1833   20.9907 C   0  0  0  0  0  0
  -25.2507  -13.8199   20.5695 C   0  0  0  0  0  0
  -24.1800  -13.0444   20.9214 C   0  0  0  0  0  0
  -24.6392  -11.6920   20.8757 C   0  0  0  0  0  0
  -23.9073  -10.4291   21.0407 C   0  0  0  0  0  0
  -24.3618   -9.4205   21.9187 C   0  0  0  0  0  0
  -23.6285   -8.2245   22.0758 C   0  0  0  0  0  0
  -22.4271   -8.0280   21.3545 C   0  0  0  0  0  0
  -21.9907   -9.0257   20.4652 C   0  0  0  0  0  0
  -22.7246  -10.2133   20.3057 C   0  0  0  0  0  0
  -21.6854   -6.0734   22.5273 C   0  0  0  0  0  0
  -21.4017   -6.5641   23.8209 C   0  0  0  0  0  0
  -21.3659   -5.6794   24.9173 C   0  0  0  0  0  0
  -21.6040   -4.3055   24.7221 C   0  0  0  0  0  0
  -21.8825   -3.8147   23.4342 C   0  0  0  0  0  0
  -21.9193   -4.6963   22.3398 C   0  0  0  0  0  0
  -22.7823  -13.5226   21.1866 C   0  0  0  0  0  0
  -22.1664   -4.2147   21.0977 F   0  0  0  0  0  0
  -21.5624   -3.4539   25.7737 F   0  0  0  0  0  0
  -29.9818  -13.5565   20.4127 N   0  0  0  0  0  0
  -26.2932  -12.9401   20.3297 N   0  0  0  0  0  0
  -25.9323  -11.6544   20.5770 N   0  0  0  0  0  0
  -22.0475  -12.8210   22.0420 N   0  0  0  0  0  0
  -25.4214  -15.1925   20.4101 N   0  0  0  0  0  0
  -31.7694  -14.8983   20.1303 O   0  0  0  0  0  0
  -21.6643   -6.8872   21.4233 O   0  0  0  0  0  0
  -22.3506  -14.5531   20.6713 O   0  0  0  0  0  0
  -24.6326  -31.8520   23.1955 C   0  0  0  0  0  0
  -25.9141  -32.4738   23.8306 C   0  0  1  0  0  0
  -27.2227  -27.2300   20.1493 C   0  0  0  0  0  0
  -25.5930  -33.8542   24.2223 N   0  0  0  0  0  0
  -23.4327  -30.4745   21.5371 C   0  0  2  0  0  0
  -24.8835  -28.9151   20.1106 C   0  0  0  0  0  0
  -22.7522  -29.4602   22.4882 C   0  0  0  0  0  0
  -18.0305  -28.1403   22.8478 C   0  0  0  0  0  0
  -24.1495  -36.7266   23.2641 C   0  0  0  0  0  0
  -25.9813  -30.7562   21.3825 C   0  0  0  0  0  0
  -26.0539  -29.3748   20.7280 C   0  0  0  0  0  0
  -27.2255  -28.5443   20.7378 C   0  0  0  0  0  0
  -26.0329  -26.8500   19.4903 C   0  0  0  0  0  0
  -24.8800  -27.6610   19.4795 C   0  0  0  0  0  0
  -23.6551  -29.8061   20.1541 C   0  0  0  0  0  0
  -25.4129  -36.3058   24.0315 C   0  0  1  0  0  0
  -20.5912  -28.3710   23.1261 C   0  0  2  0  0  0
  -20.6806  -26.9423   22.5409 C   0  0  0  0  0  0
  -19.5778  -26.6384   21.5221 C   0  0  0  0  0  0
  -18.1947  -26.7946   22.1612 C   0  0  0  0  0  0
  -19.1561  -28.8874   23.2864 C   0  0  0  0  0  0
  -18.9475  -30.1468   23.8887 C   0  0  0  0  0  0
  -17.6476  -30.6596   24.0566 C   0  0  0  0  0  0
  -25.9060  -34.9435   23.5069 C   0  0  0  0  0  0
  -16.5365  -29.9095   23.6343 C   0  0  0  0  0  0
  -16.7287  -28.6519   23.0350 C   0  0  0  0  0  0
  -26.4509  -31.6591   25.0705 C   0  0  0  0  0  0
  -25.3717  -31.3760   26.1411 C   0  0  0  0  0  0
  -27.0371  -30.3007   24.6223 C   0  0  0  0  0  0
  -27.6053  -32.4347   25.7489 C   0  0  0  0  0  0
  -27.5573  -37.1801   24.8472 C   0  0  0  0  0  0
  -21.4228  -29.3042   22.3635 N   0  0  0  0  0  0
  -26.4299  -37.3761   23.9393 N   0  0  0  0  0  0
  -24.7012  -31.0475   22.0937 N   0  0  0  0  0  0
  -23.4210  -28.8154   23.3006 O   0  0  0  0  0  0
  -28.3042  -26.3075   20.1833 O   0  0  0  0  0  0
  -26.5636  -34.8921   22.4641 O   0  0  0  0  0  0
  -23.5464  -32.1336   23.7238 O   0  0  0  0  0  0
  -31.0461  -19.4190   20.1106 C   0  0  0  0  0  0
  -29.8340  -20.0470   20.3811 C   0  0  0  0  0  0
  -29.9554  -17.3965   20.5689 C   0  0  0  0  0  0
  -28.0743  -24.9007   20.3965 C   0  0  0  0  0  0
  -28.9629  -23.8347   20.2506 C   0  0  0  0  0  0
  -28.6279  -22.3656   20.5050 C   0  0  0  0  0  0
  -32.2997  -20.1355   19.7075 C   0  0  0  0  0  0
  -31.1018  -17.9961   20.2144 N   0  0  0  0  0  0
  -29.6504  -21.4532   20.2966 N   0  0  0  0  0  0
  -29.7778  -15.9151   20.7168 N   0  0  0  0  0  0
  -27.5178  -21.9809   20.8795 O   0  0  0  0  0  0
  -30.2140  -24.1176   19.8586 O   0  0  0  0  0  0
  -28.7025  -18.7073   20.8078 S   0  0  0  0  0  0
  -31.4783  -12.6295   19.1799 H   0  0  0  0  0  0
  -30.4030  -11.5193   19.9799 H   0  0  0  0  0  0
  -29.8108  -11.7382   17.5423 H   0  0  0  0  0  0
  -29.6284  -13.4668   17.7237 H   0  0  0  0  0  0
  -27.9170  -11.2762   18.9412 H   0  0  0  0  0  0
  -27.3830  -12.4965   17.8121 H   0  0  0  0  0  0
  -27.6305  -14.2496   19.4600 H   0  0  0  0  0  0
  -28.7327  -12.1878   21.4348 H   0  0  0  0  0  0
  -28.4034  -13.8623   21.7979 H   0  0  0  0  0  0
  -25.2760   -9.5688   22.4763 H   0  0  0  0  0  0
  -23.9999   -7.4639   22.7476 H   0  0  0  0  0  0
  -21.0843   -8.8776   19.8952 H   0  0  0  0  0  0
  -22.3702  -10.9673   19.6164 H   0  0  0  0  0  0
  -21.2013   -7.6151   23.9711 H   0  0  0  0  0  0
  -21.1475   -6.0527   25.9078 H   0  0  0  0  0  0
  -22.0600   -2.7607   23.2847 H   0  0  0  0  0  0
  -22.4083  -11.9854   22.4783 H   0  0  0  0  0  0
  -21.1098  -13.1234   22.2651 H   0  0  0  0  0  0
  -24.6482  -15.8425   20.5031 H   0  0  0  0  0  0
  -26.2563  -15.6269   20.0388 H   0  0  0  0  0  0
  -26.7195  -32.5381   23.1036 H   0  0  0  0  0  0
  -25.0099  -33.9687   25.0386 H   0  0  0  0  0  0
  -22.7292  -31.2969   21.3867 H   0  0  0  0  0  0
  -23.3746  -35.9610   23.3342 H   0  0  0  0  0  0
  -24.3570  -36.8847   22.2045 H   0  0  0  0  0  0
  -23.7274  -37.6487   23.6649 H   0  0  0  0  0  0
  -26.1263  -31.5156   20.6131 H   0  0  0  0  0  0
  -26.8580  -30.8052   22.0174 H   0  0  0  0  0  0
  -28.1200  -28.8906   21.2344 H   0  0  0  0  0  0
  -25.9764  -25.8901   18.9968 H   0  0  0  0  0  0
  -23.9852  -27.3027   18.9878 H   0  0  0  0  0  0
  -23.7840  -30.5807   19.3963 H   0  0  0  0  0  0
  -22.7729  -29.2411   19.8492 H   0  0  0  0  0  0
  -25.1335  -36.1890   25.0809 H   0  0  0  0  0  0
  -21.0007  -28.3283   24.1383 H   0  0  0  0  0  0
  -20.5726  -26.2316   23.3612 H   0  0  0  0  0  0
  -21.6670  -26.7457   22.1186 H   0  0  0  0  0  0
  -19.6938  -25.6299   21.1241 H   0  0  0  0  0  0
  -19.6718  -27.3212   20.6767 H   0  0  0  0  0  0
  -17.4227  -26.6689   21.3998 H   0  0  0  0  0  0
  -18.0321  -26.0115   22.9032 H   0  0  0  0  0  0
  -19.7956  -30.7289   24.2242 H   0  0  0  0  0  0
  -17.5035  -31.6285   24.5161 H   0  0  0  0  0  0
  -15.5370  -30.2989   23.7703 H   0  0  0  0  0  0
  -15.8683  -28.0847   22.7060 H   0  0  0  0  0  0
  -24.5894  -30.7117   25.7721 H   0  0  0  0  0  0
  -24.8905  -32.2947   26.4785 H   0  0  0  0  0  0
  -25.8003  -30.8952   27.0212 H   0  0  0  0  0  0
  -26.2973  -29.6732   24.1234 H   0  0  0  0  0  0
  -27.4048  -29.7292   25.4752 H   0  0  0  0  0  0
  -27.8857  -30.4279   23.9493 H   0  0  0  0  0  0
  -27.2656  -33.3663   26.2036 H   0  0  0  0  0  0
  -28.3895  -32.6879   25.0337 H   0  0  0  0  0  0
  -28.0703  -31.8489   26.5430 H   0  0  0  0  0  0
  -28.2626  -38.0059   24.7471 H   0  0  0  0  0  0
  -28.1032  -36.2588   24.6383 H   0  0  0  0  0  0
  -27.2274  -37.1563   25.8871 H   0  0  0  0  0  0
  -20.9413  -29.8740   21.6818 H   0  0  0  0  0  0
  -26.0161  -38.2832   24.1372 H   0  0  0  0  0  0
  -27.0596  -24.7104   20.7205 H   0  0  0  0  0  0
  -32.5690  -20.9013   20.4348 H   0  0  0  0  0  0
  -32.1761  -20.6257   18.7419 H   0  0  0  0  0  0
  -33.1493  -19.4589   19.6219 H   0  0  0  0  0  0
  -30.4818  -21.9554   20.0104 H   0  0  0  0  0  0
  -28.8453  -15.6549   20.9945 H   0  0  0  0  0  0
  -30.2601  -25.0596   19.7518 H   0  0  0  0  0  0
  1 25  1  0  0  0
  1 30  2  0  0  0
  1 80  1  0  0  0
  2  3  1  0  0  0
  2 25  1  0  0  0
  2 84  1  0  0  0
  2 85  1  0  0  0
  3  4  1  0  0  0
  3 86  1  0  0  0
  3 87  1  0  0  0
  4  5  1  0  0  0
  4 88  1  0  0  0
  4 89  1  0  0  0
  5  6  1  0  0  0
  5 26  1  0  0  0
  5 90  1  0  0  0
  6 25  1  0  0  0
  6 91  1  0  0  0
  6 92  1  0  0  0
  7  8  2  0  0  0
  7 26  1  0  0  0
  7 29  1  0  0  0
  8  9  1  0  0  0
  8 22  1  0  0  0
  9 10  1  0  0  0
  9 27  2  0  0  0
 10 11  2  0  0  0
 10 15  1  0  0  0
 11 12  1  0  0  0
 11 93  1  0  0  0
 12 13  2  0  0  0
 12 94  1  0  0  0
 13 14  1  0  0  0
 13 31  1  0  0  0
 14 15  2  0  0  0
 14 95  1  0  0  0
 15 96  1  0  0  0
 16 17  2  0  0  0
 16 21  1  0  0  0
 16 31  1  0  0  0
 17 18  1  0  0  0
 17 97  1  0  0  0
 18 19  2  0  0  0
 18 98  1  0  0  0
 19 20  1  0  0  0
 19 24  1  0  0  0
 20 21  2  0  0  0
 20 99  1  0  0  0
 21 23  1  0  0  0
 22 28  1  0  0  0
 22 32  2  0  0  0
 26 27  1  0  0  0
 28100  1  0  0  0
 28101  1  0  0  0
 29102  1  0  0  0
 29103  1  0  0  0
 33 34  1  0  0  0
 33 66  1  0  0  0
 33 70  2  0  0  0
 34 36  1  0  0  0
 34 59  1  0  0  0
 34104  1  0  0  0
 35 44  2  0  0  0
 35 45  1  0  0  0
 35 68  1  0  0  0
 36 56  1  0  0  0
 36105  1  0  0  0
 37 39  1  0  0  0
 37 47  1  0  0  0
 37 66  1  0  0  0
 37106  1  0  0  0
 38 43  2  0  0  0
 38 46  1  0  0  0
 38 47  1  0  0  0
 39 64  1  0  0  0
 39 67  2  0  0  0
 40 52  1  0  0  0
 40 53  2  0  0  0
 40 58  1  0  0  0
 41107  1  0  0  0
 41108  1  0  0  0
 41109  1  0  0  0
 41 48  1  0  0  0
 42 43  1  0  0  0
 42 66  1  0  0  0
 42110  1  0  0  0
 42111  1  0  0  0
 43 44  1  0  0  0
 44112  1  0  0  0
 45 46  2  0  0  0
 45113  1  0  0  0
 46114  1  0  0  0
 47115  1  0  0  0
 47116  1  0  0  0
 48 56  1  0  0  0
 48 65  1  0  0  0
 48117  1  0  0  0
 49 50  1  0  0  0
 49 53  1  0  0  0
 49 64  1  0  0  0
 49118  1  0  0  0
 50 51  1  0  0  0
 50119  1  0  0  0
 50120  1  0  0  0
 51 52  1  0  0  0
 51121  1  0  0  0
 51122  1  0  0  0
 52123  1  0  0  0
 52124  1  0  0  0
 53 54  1  0  0  0
 54 55  2  0  0  0
 54125  1  0  0  0
 55 57  1  0  0  0
 55126  1  0  0  0
 56 69  2  0  0  0
 57 58  2  0  0  0
 57127  1  0  0  0
 58128  1  0  0  0
 59 60  1  0  0  0
 59 61  1  0  0  0
 59 62  1  0  0  0
 60129  1  0  0  0
 60130  1  0  0  0
 60131  1  0  0  0
 61132  1  0  0  0
 61133  1  0  0  0
 61134  1  0  0  0
 62135  1  0  0  0
 62136  1  0  0  0
 62137  1  0  0  0
 63 65  1  0  0  0
 63138  1  0  0  0
 63139  1  0  0  0
 63140  1  0  0  0
 64141  1  0  0  0
 65142  1  0  0  0
 68 74  1  0  0  0
 71 72  2  0  0  0
 71 77  1  0  0  0
 71 78  1  0  0  0
 72 79  1  0  0  0
 72 83  1  0  0  0
 73 78  2  0  0  0
 73 80  1  0  0  0
 73 83  1  0  0  0
 74 75  2  0  0  0
 74143  1  0  0  0
 75 76  1  0  0  0
 75 82  1  0  0  0
 76 79  1  0  0  0
 76 81  2  0  0  0
 77144  1  0  0  0
 77145  1  0  0  0
 77146  1  0  0  0
 79147  1  0  0  0
 80148  1  0  0  0
 82149  1  0  0  0
M  ISO  4   1 100  68 101  74 101  80 100
M  END
> <chiral flag>
0

> <version>
0

> <s_m_source_file>
/data/baiqing/PycharmProjects/Reinvent-master-3.2/result/LINK_invent/BTK/process_docking_weight1_custom_product_contain_oxygen_bond_distance_aromatic_linkinvent_7_9_3/rearranged_h_0179.sdf

> <i_m_source_file_index>
20

> <r_mmod_Potential_Energy-OPLS-2005>
41.3210067749023

> <r_mmod_Stretch_Energy-OPLS-2005>
128.392349243164

> <r_mmod_Bend_Energy-OPLS-2005>
189.75553894043

> <r_mmod_Torsional_Energy-OPLS-2005>
188.455352783203

> <r_mmod_Improper_Torsional_Energy-OPLS-2005>
3.97958898544312

> <r_mmod_Van_der_Waal_Energy-OPLS-2005>
117.740432739258

> <r_mmod_Electrostatic_Energy-OPLS-2005>
-451.517883300781

> <r_mmod_Solvation_Energy-OPLS-2005>
-243.454620361328

> <b_mmod_Minimization_Converged-OPLS-2005>
0

> <r_mmod_RMS_Derivative-OPLS-2005>
1.94476997852325

$$$$
20
                    3D
 Structure written by MMmdl.
154162  0  0  1  0            999 V2000
  -30.7297  -14.6531   20.4583 C   0  0  0  0  0  0
  -30.4159  -12.3866   19.5090 C   0  0  0  0  0  0
  -29.5156  -12.4762   18.2584 C   0  0  0  0  0  0
  -28.0413  -12.3184   18.6652 C   0  0  0  0  0  0
  -27.6470  -13.2390   19.8487 C   0  0  2  0  0  0
  -28.6884  -13.2057   20.9920 C   0  0  0  0  0  0
  -25.2528  -13.8239   20.5743 C   0  0  0  0  0  0
  -24.1809  -13.0489   20.9256 C   0  0  0  0  0  0
  -24.6394  -11.6953   20.8775 C   0  0  0  0  0  0
  -23.9062  -10.4315   21.0416 C   0  0  0  0  0  0
  -24.3607   -9.4223   21.9198 C   0  0  0  0  0  0
  -23.6300   -8.2239   22.0734 C   0  0  0  0  0  0
  -22.4281   -8.0272   21.3515 C   0  0  0  0  0  0
  -21.9924   -9.0257   20.4628 C   0  0  0  0  0  0
  -22.7238  -10.2146   20.3063 C   0  0  0  0  0  0
  -21.6854   -6.0725   22.5262 C   0  0  0  0  0  0
  -21.4021   -6.5615   23.8195 C   0  0  0  0  0  0
  -21.3682   -5.6768   24.9161 C   0  0  0  0  0  0
  -21.6045   -4.3020   24.7215 C   0  0  0  0  0  0
  -21.8827   -3.8125   23.4326 C   0  0  0  0  0  0
  -21.9204   -4.6957   22.3388 C   0  0  0  0  0  0
  -22.7821  -13.5272   21.1910 C   0  0  0  0  0  0
  -22.1668   -4.2121   21.0982 F   0  0  0  0  0  0
  -21.5641   -3.4523   25.7739 F   0  0  0  0  0  0
  -30.0195  -13.4748   20.4302 N   0  0  0  0  0  0
  -26.2975  -12.9469   20.3294 N   0  0  0  0  0  0
  -25.9335  -11.6606   20.5780 N   0  0  0  0  0  0
  -22.0449  -12.8253   22.0428 N   0  0  0  0  0  0
  -25.4285  -15.1983   20.4174 N   0  0  0  0  0  0
  -31.8934  -14.6560   20.0554 O   0  0  0  0  0  0
  -21.6641   -6.8868   21.4222 O   0  0  0  0  0  0
  -22.3516  -14.5584   20.6751 O   0  0  0  0  0  0
  -24.6242  -31.8605   23.2052 C   0  0  0  0  0  0
  -25.9138  -32.4746   23.8336 C   0  0  1  0  0  0
  -27.1794  -27.2928   20.1513 C   0  0  0  0  0  0
  -25.5991  -33.8543   24.2291 N   0  0  0  0  0  0
  -23.4175  -30.4881   21.5444 C   0  0  2  0  0  0
  -24.8636  -28.9528   20.0964 C   0  0  0  0  0  0
  -22.7477  -29.4604   22.4887 C   0  0  0  0  0  0
  -18.0316  -28.1364   22.8488 C   0  0  0  0  0  0
  -24.1502  -36.7279   23.2623 C   0  0  0  0  0  0
  -25.9600  -30.7794   21.3874 C   0  0  0  0  0  0
  -26.0268  -29.4079   20.7323 C   0  0  0  0  0  0
  -27.1914  -28.5811   20.7657 C   0  0  0  0  0  0
  -26.0276  -26.9328   19.4224 C   0  0  0  0  0  0
  -24.8688  -27.7240   19.4228 C   0  0  0  0  0  0
  -23.6350  -29.8375   20.1536 C   0  0  0  0  0  0
  -25.4114  -36.3051   24.0340 C   0  0  1  0  0  0
  -20.5908  -28.3669   23.1274 C   0  0  2  0  0  0
  -20.6809  -26.9386   22.5391 C   0  0  0  0  0  0
  -19.5786  -26.6359   21.5202 C   0  0  0  0  0  0
  -18.1962  -26.7913   22.1626 C   0  0  0  0  0  0
  -19.1566  -28.8836   23.2892 C   0  0  0  0  0  0
  -18.9474  -30.1438   23.8886 C   0  0  0  0  0  0
  -17.6482  -30.6565   24.0575 C   0  0  0  0  0  0
  -25.9055  -34.9423   23.5107 C   0  0  0  0  0  0
  -16.5372  -29.9057   23.6326 C   0  0  0  0  0  0
  -16.7300  -28.6500   23.0323 C   0  0  0  0  0  0
  -26.4524  -31.6565   25.0711 C   0  0  0  0  0  0
  -25.3778  -31.3770   26.1470 C   0  0  0  0  0  0
  -27.0368  -30.2972   24.6188 C   0  0  0  0  0  0
  -27.6065  -32.4314   25.7504 C   0  0  0  0  0  0
  -27.5583  -37.1785   24.8457 C   0  0  0  0  0  0
  -21.4191  -29.3041   22.3678 N   0  0  0  0  0  0
  -26.4286  -37.3751   23.9418 N   0  0  0  0  0  0
  -24.6845  -31.0601   22.1026 N   0  0  0  0  0  0
  -23.4208  -28.8143   23.2954 O   0  0  0  0  0  0
  -28.2153  -26.3532   20.2381 O   0  0  0  0  0  0
  -26.5562  -34.8884   22.4637 O   0  0  0  0  0  0
  -23.5408  -32.1443   23.7373 O   0  0  0  0  0  0
  -28.4230  -20.6301   21.5312 C   0  0  0  0  0  0
  -28.9047  -19.2679   21.6128 C   0  0  0  0  0  0
  -29.0603  -21.4583   20.6328 C   0  0  0  0  0  0
  -29.9494  -19.0057   20.7563 C   0  0  0  0  0  0
  -29.0092  -23.9346   20.9125 C   0  0  0  0  0  0
  -28.3223  -18.2770   22.5743 C   0  0  0  0  0  0
  -26.5005  -24.5014   21.0415 C   0  0  0  0  0  0
  -27.9412  -25.1100   21.0333 C   0  0  2  0  0  0
  -28.6753  -22.7505   20.3036 N   0  0  0  0  0  0
  -30.1554  -15.9168   20.8080 N   0  0  0  0  0  0
  -30.1305  -24.0999   21.4035 O   0  0  0  0  0  0
  -31.4565  -17.5283   19.1830 O   0  0  0  0  0  0
  -32.0067  -17.5860   21.6535 O   0  0  0  0  0  0
  -30.3159  -20.4915   19.8392 S   0  0  0  0  0  0
  -30.9956  -17.4829   20.5810 S   0  0  0  0  0  0
  -31.4664  -12.4319   19.2157 H   0  0  0  0  0  0
  -30.3019  -11.4246   20.0104 H   0  0  0  0  0  0
  -29.7900  -11.6963   17.5464 H   0  0  0  0  0  0
  -29.6671  -13.4322   17.7510 H   0  0  0  0  0  0
  -27.9040  -11.2766   18.9554 H   0  0  0  0  0  0
  -27.3894  -12.4927   17.8097 H   0  0  0  0  0  0
  -27.6422  -14.2525   19.4454 H   0  0  0  0  0  0
  -28.6862  -12.2396   21.4988 H   0  0  0  0  0  0
  -28.4353  -13.9477   21.7517 H   0  0  0  0  0  0
  -25.2738   -9.5694   22.4797 H   0  0  0  0  0  0
  -24.0000   -7.4619   22.7444 H   0  0  0  0  0  0
  -21.0851   -8.8787   19.8933 H   0  0  0  0  0  0
  -22.3697  -10.9694   19.6175 H   0  0  0  0  0  0
  -21.1995   -7.6117   23.9701 H   0  0  0  0  0  0
  -21.1510   -6.0489   25.9067 H   0  0  0  0  0  0
  -22.0592   -2.7587   23.2848 H   0  0  0  0  0  0
  -22.4039  -11.9915   22.4830 H   0  0  0  0  0  0
  -21.1061  -13.1245   22.2627 H   0  0  0  0  0  0
  -24.6663  -15.8599   20.5156 H   0  0  0  0  0  0
  -26.2752  -15.6180   20.0561 H   0  0  0  0  0  0
  -26.7215  -32.5391   23.1072 H   0  0  0  0  0  0
  -25.0262  -33.9689   25.0525 H   0  0  0  0  0  0
  -22.7128  -31.3115   21.4076 H   0  0  0  0  0  0
  -23.3732  -35.9646   23.3280 H   0  0  0  0  0  0
  -24.3565  -36.8870   22.2023 H   0  0  0  0  0  0
  -23.7294  -37.6513   23.6610 H   0  0  0  0  0  0
  -26.0989  -31.5384   20.6185 H   0  0  0  0  0  0
  -26.8393  -30.8190   22.0173 H   0  0  0  0  0  0
  -28.0666  -28.8945   21.3150 H   0  0  0  0  0  0
  -25.9963  -25.9945   18.8869 H   0  0  0  0  0  0
  -23.9910  -27.3819   18.8931 H   0  0  0  0  0  0
  -23.7587  -30.6203   19.4051 H   0  0  0  0  0  0
  -22.7532  -29.2756   19.8382 H   0  0  0  0  0  0
  -25.1285  -36.1906   25.0831 H   0  0  0  0  0  0
  -21.0040  -28.3207   24.1375 H   0  0  0  0  0  0
  -20.5716  -26.2261   23.3580 H   0  0  0  0  0  0
  -21.6682  -26.7427   22.1169 H   0  0  0  0  0  0
  -19.6943  -25.6290   21.1179 H   0  0  0  0  0  0
  -19.6695  -27.3202   20.6757 H   0  0  0  0  0  0
  -17.4241  -26.6713   21.4003 H   0  0  0  0  0  0
  -18.0319  -26.0019   22.8984 H   0  0  0  0  0  0
  -19.7943  -30.7297   24.2204 H   0  0  0  0  0  0
  -17.5025  -31.6230   24.5207 H   0  0  0  0  0  0
  -15.5380  -30.2945   23.7689 H   0  0  0  0  0  0
  -15.8709  -28.0838   22.6985 H   0  0  0  0  0  0
  -24.5916  -30.7141   25.7854 H   0  0  0  0  0  0
  -24.9030  -32.2976   26.4867 H   0  0  0  0  0  0
  -25.8116  -30.8979   27.0261 H   0  0  0  0  0  0
  -26.2957  -29.6715   24.1192 H   0  0  0  0  0  0
  -27.4036  -29.7205   25.4695 H   0  0  0  0  0  0
  -27.8842  -30.4216   23.9447 H   0  0  0  0  0  0
  -27.2640  -33.3579   26.2128 H   0  0  0  0  0  0
  -28.3869  -32.6946   25.0366 H   0  0  0  0  0  0
  -28.0761  -31.8439   26.5404 H   0  0  0  0  0  0
  -28.2600  -38.0083   24.7465 H   0  0  0  0  0  0
  -28.1074  -36.2582   24.6324 H   0  0  0  0  0  0
  -27.2261  -37.1513   25.8855 H   0  0  0  0  0  0
  -20.9343  -29.8819   21.6950 H   0  0  0  0  0  0
  -26.0146  -38.2825   24.1422 H   0  0  0  0  0  0
  -27.5989  -20.9556   22.1510 H   0  0  0  0  0  0
  -28.1049  -18.7478   23.5366 H   0  0  0  0  0  0
  -29.0133  -17.4549   22.7791 H   0  0  0  0  0  0
  -27.3902  -17.8578   22.1842 H   0  0  0  0  0  0
  -26.4324  -23.6605   21.7369 H   0  0  0  0  0  0
  -26.1947  -24.1146   20.0696 H   0  0  0  0  0  0
  -25.7463  -25.2046   21.3975 H   0  0  0  0  0  0
  -28.0646  -25.4557   22.0640 H   0  0  0  0  0  0
  -27.8093  -22.8090   19.7851 H   0  0  0  0  0  0
  -29.3205  -15.9833   21.3813 H   0  0  0  0  0  0
  1 25  1  0  0  0
  1 30  2  0  0  0
  1 80  1  0  0  0
  2  3  1  0  0  0
  2 25  1  0  0  0
  2 86  1  0  0  0
  2 87  1  0  0  0
  3  4  1  0  0  0
  3 88  1  0  0  0
  3 89  1  0  0  0
  4  5  1  0  0  0
  4 90  1  0  0  0
  4 91  1  0  0  0
  5  6  1  0  0  0
  5 26  1  0  0  0
  5 92  1  0  0  0
  6 25  1  0  0  0
  6 93  1  0  0  0
  6 94  1  0  0  0
  7  8  2  0  0  0
  7 26  1  0  0  0
  7 29  1  0  0  0
  8  9  1  0  0  0
  8 22  1  0  0  0
  9 10  1  0  0  0
  9 27  2  0  0  0
 10 11  2  0  0  0
 10 15  1  0  0  0
 11 12  1  0  0  0
 11 95  1  0  0  0
 12 13  2  0  0  0
 12 96  1  0  0  0
 13 14  1  0  0  0
 13 31  1  0  0  0
 14 15  2  0  0  0
 14 97  1  0  0  0
 15 98  1  0  0  0
 16 17  2  0  0  0
 16 21  1  0  0  0
 16 31  1  0  0  0
 17 18  1  0  0  0
 17 99  1  0  0  0
 18 19  2  0  0  0
 18100  1  0  0  0
 19 20  1  0  0  0
 19 24  1  0  0  0
 20 21  2  0  0  0
 20101  1  0  0  0
 21 23  1  0  0  0
 22 28  1  0  0  0
 22 32  2  0  0  0
 26 27  1  0  0  0
 28102  1  0  0  0
 28103  1  0  0  0
 29104  1  0  0  0
 29105  1  0  0  0
 33 34  1  0  0  0
 33 66  1  0  0  0
 33 70  2  0  0  0
 34 36  1  0  0  0
 34 59  1  0  0  0
 34106  1  0  0  0
 35 44  2  0  0  0
 35 45  1  0  0  0
 35 68  1  0  0  0
 36 56  1  0  0  0
 36107  1  0  0  0
 37 39  1  0  0  0
 37 47  1  0  0  0
 37 66  1  0  0  0
 37108  1  0  0  0
 38 43  2  0  0  0
 38 46  1  0  0  0
 38 47  1  0  0  0
 39 64  1  0  0  0
 39 67  2  0  0  0
 40 52  1  0  0  0
 40 53  2  0  0  0
 40 58  1  0  0  0
 41109  1  0  0  0
 41110  1  0  0  0
 41111  1  0  0  0
 41 48  1  0  0  0
 42 43  1  0  0  0
 42 66  1  0  0  0
 42112  1  0  0  0
 42113  1  0  0  0
 43 44  1  0  0  0
 44114  1  0  0  0
 45 46  2  0  0  0
 45115  1  0  0  0
 46116  1  0  0  0
 47117  1  0  0  0
 47118  1  0  0  0
 48 56  1  0  0  0
 48 65  1  0  0  0
 48119  1  0  0  0
 49 50  1  0  0  0
 49 53  1  0  0  0
 49 64  1  0  0  0
 49120  1  0  0  0
 50 51  1  0  0  0
 50121  1  0  0  0
 50122  1  0  0  0
 51 52  1  0  0  0
 51123  1  0  0  0
 51124  1  0  0  0
 52125  1  0  0  0
 52126  1  0  0  0
 53 54  1  0  0  0
 54 55  2  0  0  0
 54127  1  0  0  0
 55 57  1  0  0  0
 55128  1  0  0  0
 56 69  2  0  0  0
 57 58  2  0  0  0
 57129  1  0  0  0
 58130  1  0  0  0
 59 60  1  0  0  0
 59 61  1  0  0  0
 59 62  1  0  0  0
 60131  1  0  0  0
 60132  1  0  0  0
 60133  1  0  0  0
 61134  1  0  0  0
 61135  1  0  0  0
 61136  1  0  0  0
 62137  1  0  0  0
 62138  1  0  0  0
 62139  1  0  0  0
 63 65  1  0  0  0
 63140  1  0  0  0
 63141  1  0  0  0
 63142  1  0  0  0
 64143  1  0  0  0
 65144  1  0  0  0
 68 78  1  0  0  0
 71 72  1  0  0  0
 71 73  2  0  0  0
 71145  1  0  0  0
 72 74  2  0  0  0
 72 76  1  0  0  0
 73 79  1  0  0  0
 73 84  1  0  0  0
 74 84  1  0  0  0
 74 85  1  0  0  0
 75 78  1  0  0  0
 75 79  1  0  0  0
 75 81  2  0  0  0
 76146  1  0  0  0
 76147  1  0  0  0
 76148  1  0  0  0
 77149  1  0  0  0
 77150  1  0  0  0
 77151  1  0  0  0
 77 78  1  0  0  0
 78152  1  0  0  0
 79153  1  0  0  0
 80154  1  0  0  0
 80 85  1  0  0  0
 82 85  2  0  0  0
 83 85  2  0  0  0
M  ISO  4   1 100  68 101  78 101  80 100
M  END
> <chiral flag>
0

> <version>
0

> <s_m_source_file>
/data/baiqing/PycharmProjects/Reinvent-master-3.2/result/LINK_invent/BTK/process_docking_weight1_custom_product_contain_oxygen_bond_distance_aromatic_linkinvent_7_9_3/rearranged_h_0179.sdf

> <i_m_source_file_index>
21

> <r_mmod_Potential_Energy-OPLS-2005>
-10.4735059738159

> <r_mmod_Stretch_Energy-OPLS-2005>
81.6467437744141

> <r_mmod_Bend_Energy-OPLS-2005>
167.858276367188

> <r_mmod_Torsional_Energy-OPLS-2005>
281.702178955078

> <r_mmod_Improper_Torsional_Energy-OPLS-2005>
5.72450542449951

> <r_mmod_Van_der_Waal_Energy-OPLS-2005>
117.09351348877

> <r_mmod_Electrostatic_Energy-OPLS-2005>
-443.553070068359

> <r_mmod_Solvation_Energy-OPLS-2005>
-297.849914550781

> <b_mmod_Minimization_Converged-OPLS-2005>
0

> <r_mmod_RMS_Derivative-OPLS-2005>
5.77736902236938

$$$$
21
                    3D
 Structure written by MMmdl.
152160  0  0  1  0            999 V2000
  -30.7767  -14.3367   20.6866 C   0  0  0  0  0  0
  -30.4100  -12.2728   19.3898 C   0  0  0  0  0  0
  -29.4803  -12.5280   18.1891 C   0  0  0  0  0  0
  -28.0046  -12.3875   18.6060 C   0  0  0  0  0  0
  -27.6672  -13.2010   19.8827 C   0  0  2  0  0  0
  -28.7039  -12.9294   20.9952 C   0  0  0  0  0  0
  -25.2604  -13.8156   20.5659 C   0  0  0  0  0  0
  -24.1848  -13.0442   20.9168 C   0  0  0  0  0  0
  -24.6394  -11.6908   20.8734 C   0  0  0  0  0  0
  -23.9064  -10.4296   21.0412 C   0  0  0  0  0  0
  -24.3618   -9.4210   21.9189 C   0  0  0  0  0  0
  -23.6295   -8.2240   22.0754 C   0  0  0  0  0  0
  -22.4275   -8.0282   21.3549 C   0  0  0  0  0  0
  -21.9916   -9.0253   20.4650 C   0  0  0  0  0  0
  -22.7241  -10.2133   20.3064 C   0  0  0  0  0  0
  -21.6855   -6.0742   22.5285 C   0  0  0  0  0  0
  -21.4009   -6.5643   23.8217 C   0  0  0  0  0  0
  -21.3661   -5.6797   24.9182 C   0  0  0  0  0  0
  -21.6041   -4.3060   24.7231 C   0  0  0  0  0  0
  -21.8820   -3.8154   23.4351 C   0  0  0  0  0  0
  -21.9187   -4.6972   22.3408 C   0  0  0  0  0  0
  -22.7872  -13.5242   21.1839 C   0  0  0  0  0  0
  -22.1657   -4.2157   21.0990 F   0  0  0  0  0  0
  -21.5632   -3.4543   25.7745 F   0  0  0  0  0  0
  -30.0493  -13.2127   20.4605 N   0  0  0  0  0  0
  -26.3049  -12.9315   20.3395 N   0  0  0  0  0  0
  -25.9320  -11.6480   20.5768 N   0  0  0  0  0  0
  -22.0510  -12.8231   22.0396 N   0  0  0  0  0  0
  -25.4337  -15.1870   20.4046 N   0  0  0  0  0  0
  -31.7931  -14.6185   20.0418 O   0  0  0  0  0  0
  -21.6637   -6.8882   21.4248 O   0  0  0  0  0  0
  -22.3554  -14.5552   20.6700 O   0  0  0  0  0  0
  -24.6112  -31.8708   23.2149 C   0  0  0  0  0  0
  -25.9031  -32.4833   23.8414 C   0  0  1  0  0  0
  -27.2256  -27.4603   20.0810 C   0  0  0  0  0  0
  -25.5905  -33.8635   24.2340 N   0  0  0  0  0  0
  -23.3961  -30.4991   21.5555 C   0  0  2  0  0  0
  -24.8392  -28.9741   20.1127 C   0  0  0  0  0  0
  -22.7389  -29.4672   22.4999 C   0  0  0  0  0  0
  -18.0270  -28.1385   22.8489 C   0  0  0  0  0  0
  -24.1492  -36.7320   23.2633 C   0  0  0  0  0  0
  -25.9247  -30.8425   21.3672 C   0  0  0  0  0  0
  -25.9990  -29.4817   20.7102 C   0  0  0  0  0  0
  -27.1931  -28.7298   20.6963 C   0  0  0  0  0  0
  -26.0478  -26.9721   19.4634 C   0  0  0  0  0  0
  -24.8575  -27.7169   19.4883 C   0  0  0  0  0  0
  -23.6017  -29.8383   20.1664 C   0  0  0  0  0  0
  -25.4103  -36.3118   24.0344 C   0  0  1  0  0  0
  -20.5858  -28.3658   23.1329 C   0  0  2  0  0  0
  -20.6763  -26.9398   22.5422 C   0  0  0  0  0  0
  -19.5735  -26.6384   21.5220 C   0  0  0  0  0  0
  -18.1907  -26.7927   22.1634 C   0  0  0  0  0  0
  -19.1522  -28.8836   23.2907 C   0  0  0  0  0  0
  -18.9453  -30.1440   23.8917 C   0  0  0  0  0  0
  -17.6457  -30.6585   24.0566 C   0  0  0  0  0  0
  -25.9037  -34.9487   23.5135 C   0  0  0  0  0  0
  -16.5339  -29.9093   23.6338 C   0  0  0  0  0  0
  -16.7262  -28.6519   23.0343 C   0  0  0  0  0  0
  -26.4470  -31.6600   25.0735 C   0  0  0  0  0  0
  -25.3747  -31.3727   26.1492 C   0  0  0  0  0  0
  -27.0270  -30.3038   24.6093 C   0  0  0  0  0  0
  -27.6056  -32.4299   25.7490 C   0  0  0  0  0  0
  -27.5588  -37.1795   24.8460 C   0  0  0  0  0  0
  -21.4123  -29.3031   22.3742 N   0  0  0  0  0  0
  -26.4285  -37.3804   23.9428 N   0  0  0  0  0  0
  -24.6624  -31.0837   22.1042 N   0  0  0  0  0  0
  -23.4181  -28.8203   23.3007 O   0  0  0  0  0  0
  -28.4013  -26.7440   20.1043 O   0  0  0  0  0  0
  -26.5584  -34.8932   22.4689 O   0  0  0  0  0  0
  -23.5314  -32.1450   23.7559 O   0  0  0  0  0  0
  -31.1495  -18.8325   22.0338 C   0  0  0  0  0  0
  -32.2509  -18.0768   22.3688 C   0  0  0  0  0  0
  -30.7705  -16.4222   21.9222 C   0  0  0  0  0  0
  -31.0645  -20.2564   21.9175 C   0  0  0  0  0  0
  -29.9869  -20.9826   21.5775 C   0  0  0  0  0  0
  -29.2685  -24.5878   20.8694 C   0  0  0  0  0  0
  -28.9283  -23.1002   21.1270 C   0  0  0  0  0  0
  -28.2785  -25.3246   19.9655 C   0  0  0  0  0  0
  -32.0190  -16.7036   22.3184 N   0  0  0  0  0  0
  -33.5150  -18.5528   22.7158 N   0  0  0  0  0  0
  -30.3301  -15.1068   21.6848 N   0  0  0  0  0  0
  -30.0076  -22.3695   21.4405 N   0  0  0  0  0  0
  -30.2692  -25.1416   21.3491 O   0  0  0  0  0  0
  -27.7807  -22.6463   21.0291 O   0  0  0  0  0  0
  -29.7551  -17.8303   21.6936 S   0  0  0  0  0  0
  -31.4542  -12.3626   19.0866 H   0  0  0  0  0  0
  -30.2951  -11.2474   19.7462 H   0  0  0  0  0  0
  -29.7068  -11.8303   17.3809 H   0  0  0  0  0  0
  -29.6573  -13.5280   17.7901 H   0  0  0  0  0  0
  -27.8060  -11.3293   18.7766 H   0  0  0  0  0  0
  -27.3524  -12.6899   17.7858 H   0  0  0  0  0  0
  -27.7287  -14.2573   19.6193 H   0  0  0  0  0  0
  -28.6599  -11.8829   21.3003 H   0  0  0  0  0  0
  -28.4536  -13.4954   21.8925 H   0  0  0  0  0  0
  -25.2770   -9.5680   22.4756 H   0  0  0  0  0  0
  -24.0011   -7.4631   22.7470 H   0  0  0  0  0  0
  -21.0846   -8.8777   19.8951 H   0  0  0  0  0  0
  -22.3710  -10.9676   19.6166 H   0  0  0  0  0  0
  -21.1999   -7.6152   23.9727 H   0  0  0  0  0  0
  -21.1481   -6.0526   25.9081 H   0  0  0  0  0  0
  -22.0595   -2.7617   23.2855 H   0  0  0  0  0  0
  -22.4118  -11.9879   22.4775 H   0  0  0  0  0  0
  -21.1138  -13.1261   22.2615 H   0  0  0  0  0  0
  -24.6682  -15.8451   20.5011 H   0  0  0  0  0  0
  -26.2885  -15.6226   20.0812 H   0  0  0  0  0  0
  -26.7102  -32.5550   23.1177 H   0  0  0  0  0  0
  -25.0075  -33.9801   25.0495 H   0  0  0  0  0  0
  -22.6840  -31.3160   21.4227 H   0  0  0  0  0  0
  -23.3761  -35.9646   23.3287 H   0  0  0  0  0  0
  -24.3586  -36.8939   22.2051 H   0  0  0  0  0  0
  -23.7244  -37.6525   23.6638 H   0  0  0  0  0  0
  -26.0350  -31.6114   20.6005 H   0  0  0  0  0  0
  -26.8131  -30.8904   21.9848 H   0  0  0  0  0  0
  -28.0879  -29.1165   21.1646 H   0  0  0  0  0  0
  -26.0254  -26.0237   18.9451 H   0  0  0  0  0  0
  -23.9666  -27.3243   19.0180 H   0  0  0  0  0  0
  -23.7087  -30.6173   19.4108 H   0  0  0  0  0  0
  -22.7253  -29.2612   19.8682 H   0  0  0  0  0  0
  -25.1274  -36.1978   25.0840 H   0  0  0  0  0  0
  -20.9934  -28.3202   24.1455 H   0  0  0  0  0  0
  -20.5687  -26.2252   23.3593 H   0  0  0  0  0  0
  -21.6618  -26.7457   22.1181 H   0  0  0  0  0  0
  -19.6901  -25.6308   21.1224 H   0  0  0  0  0  0
  -19.6677  -27.3209   20.6765 H   0  0  0  0  0  0
  -17.4178  -26.6676   21.4041 H   0  0  0  0  0  0
  -18.0317  -26.0077   22.9041 H   0  0  0  0  0  0
  -19.7926  -30.7247   24.2283 H   0  0  0  0  0  0
  -17.5018  -31.6275   24.5148 H   0  0  0  0  0  0
  -15.5344  -30.2999   23.7663 H   0  0  0  0  0  0
  -15.8661  -28.0846   22.7045 H   0  0  0  0  0  0
  -24.5891  -30.7104   25.7837 H   0  0  0  0  0  0
  -24.8977  -32.2899   26.4953 H   0  0  0  0  0  0
  -25.8097  -30.8875   27.0238 H   0  0  0  0  0  0
  -26.2792  -29.6828   24.1141 H   0  0  0  0  0  0
  -27.4040  -29.7251   25.4532 H   0  0  0  0  0  0
  -27.8639  -30.4359   23.9230 H   0  0  0  0  0  0
  -27.2691  -33.3612   26.2057 H   0  0  0  0  0  0
  -28.3867  -32.6826   25.0309 H   0  0  0  0  0  0
  -28.0705  -31.8421   26.5411 H   0  0  0  0  0  0
  -28.2564  -38.0132   24.7538 H   0  0  0  0  0  0
  -28.1118  -36.2659   24.6220 H   0  0  0  0  0  0
  -27.2305  -37.1369   25.8860 H   0  0  0  0  0  0
  -20.9265  -29.8782   21.7000 H   0  0  0  0  0  0
  -26.0182  -38.2880   24.1459 H   0  0  0  0  0  0
  -31.9874  -20.7827   22.1181 H   0  0  0  0  0  0
  -29.0269  -20.5290   21.3674 H   0  0  0  0  0  0
  -27.2865  -24.9800   20.2557 H   0  0  0  0  0  0
  -28.4437  -25.0340   18.9274 H   0  0  0  0  0  0
  -33.7533  -19.5213   22.5369 H   0  0  0  0  0  0
  -34.3040  -17.9158   22.7211 H   0  0  0  0  0  0
  -29.4497  -14.8356   22.0933 H   0  0  0  0  0  0
  -30.8885  -22.8621   21.5133 H   0  0  0  0  0  0
  1 25  1  0  0  0
  1 30  2  0  0  0
  1 81  1  0  0  0
  2  3  1  0  0  0
  2 25  1  0  0  0
  2 86  1  0  0  0
  2 87  1  0  0  0
  3  4  1  0  0  0
  3 88  1  0  0  0
  3 89  1  0  0  0
  4  5  1  0  0  0
  4 90  1  0  0  0
  4 91  1  0  0  0
  5  6  1  0  0  0
  5 26  1  0  0  0
  5 92  1  0  0  0
  6 25  1  0  0  0
  6 93  1  0  0  0
  6 94  1  0  0  0
  7  8  2  0  0  0
  7 26  1  0  0  0
  7 29  1  0  0  0
  8  9  1  0  0  0
  8 22  1  0  0  0
  9 10  1  0  0  0
  9 27  2  0  0  0
 10 11  2  0  0  0
 10 15  1  0  0  0
 11 12  1  0  0  0
 11 95  1  0  0  0
 12 13  2  0  0  0
 12 96  1  0  0  0
 13 14  1  0  0  0
 13 31  1  0  0  0
 14 15  2  0  0  0
 14 97  1  0  0  0
 15 98  1  0  0  0
 16 17  2  0  0  0
 16 21  1  0  0  0
 16 31  1  0  0  0
 17 18  1  0  0  0
 17 99  1  0  0  0
 18 19  2  0  0  0
 18100  1  0  0  0
 19 20  1  0  0  0
 19 24  1  0  0  0
 20 21  2  0  0  0
 20101  1  0  0  0
 21 23  1  0  0  0
 22 28  1  0  0  0
 22 32  2  0  0  0
 26 27  1  0  0  0
 28102  1  0  0  0
 28103  1  0  0  0
 29104  1  0  0  0
 29105  1  0  0  0
 33 34  1  0  0  0
 33 66  1  0  0  0
 33 70  2  0  0  0
 34 36  1  0  0  0
 34 59  1  0  0  0
 34106  1  0  0  0
 35 44  2  0  0  0
 35 45  1  0  0  0
 35 68  1  0  0  0
 36 56  1  0  0  0
 36107  1  0  0  0
 37 39  1  0  0  0
 37 47  1  0  0  0
 37 66  1  0  0  0
 37108  1  0  0  0
 38 43  2  0  0  0
 38 46  1  0  0  0
 38 47  1  0  0  0
 39 64  1  0  0  0
 39 67  2  0  0  0
 40 52  1  0  0  0
 40 53  2  0  0  0
 40 58  1  0  0  0
 41109  1  0  0  0
 41110  1  0  0  0
 41111  1  0  0  0
 41 48  1  0  0  0
 42 43  1  0  0  0
 42 66  1  0  0  0
 42112  1  0  0  0
 42113  1  0  0  0
 43 44  1  0  0  0
 44114  1  0  0  0
 45 46  2  0  0  0
 45115  1  0  0  0
 46116  1  0  0  0
 47117  1  0  0  0
 47118  1  0  0  0
 48 56  1  0  0  0
 48 65  1  0  0  0
 48119  1  0  0  0
 49 50  1  0  0  0
 49 53  1  0  0  0
 49 64  1  0  0  0
 49120  1  0  0  0
 50 51  1  0  0  0
 50121  1  0  0  0
 50122  1  0  0  0
 51 52  1  0  0  0
 51123  1  0  0  0
 51124  1  0  0  0
 52125  1  0  0  0
 52126  1  0  0  0
 53 54  1  0  0  0
 54 55  2  0  0  0
 54127  1  0  0  0
 55 57  1  0  0  0
 55128  1  0  0  0
 56 69  2  0  0  0
 57 58  2  0  0  0
 57129  1  0  0  0
 58130  1  0  0  0
 59 60  1  0  0  0
 59 61  1  0  0  0
 59 62  1  0  0  0
 60131  1  0  0  0
 60132  1  0  0  0
 60133  1  0  0  0
 61134  1  0  0  0
 61135  1  0  0  0
 61136  1  0  0  0
 62137  1  0  0  0
 62138  1  0  0  0
 62139  1  0  0  0
 63 65  1  0  0  0
 63140  1  0  0  0
 63141  1  0  0  0
 63142  1  0  0  0
 64143  1  0  0  0
 65144  1  0  0  0
 68 78  1  0  0  0
 71 72  2  0  0  0
 71 74  1  0  0  0
 71 85  1  0  0  0
 72 79  1  0  0  0
 72 80  1  0  0  0
 73 79  2  0  0  0
 73 81  1  0  0  0
 73 85  1  0  0  0
 74 75  2  0  0  0
 74145  1  0  0  0
 75 82  1  0  0  0
 75146  1  0  0  0
 76 77  1  0  0  0
 76 78  1  0  0  0
 76 83  2  0  0  0
 77 82  1  0  0  0
 77 84  2  0  0  0
 78147  1  0  0  0
 78148  1  0  0  0
 80149  1  0  0  0
 80150  1  0  0  0
 81151  1  0  0  0
 82152  1  0  0  0
M  ISO  4   1 100  68 101  78 101  81 100
M  END
> <chiral flag>
0

> <version>
0

> <s_m_source_file>
/data/baiqing/PycharmProjects/Reinvent-master-3.2/result/LINK_invent/BTK/process_docking_weight1_custom_product_contain_oxygen_bond_distance_aromatic_linkinvent_7_9_3/rearranged_h_0179.sdf

> <i_m_source_file_index>
22

> <r_mmod_Potential_Energy-OPLS-2005>
-143.080551147461

> <r_mmod_Stretch_Energy-OPLS-2005>
31.091911315918

> <r_mmod_Bend_Energy-OPLS-2005>
93.7670440673828

> <r_mmod_Torsional_Energy-OPLS-2005>
234.344848632812

> <r_mmod_Improper_Torsional_Energy-OPLS-2005>
4.86509799957275

> <r_mmod_Van_der_Waal_Energy-OPLS-2005>
147.283569335938

> <r_mmod_Electrostatic_Energy-OPLS-2005>
-398.219512939453

> <r_mmod_Solvation_Energy-OPLS-2005>
-264.584686279297

> <b_mmod_Minimization_Converged-OPLS-2005>
0

> <r_mmod_RMS_Derivative-OPLS-2005>
1.78056609630585

$$$$
22
                    3D
 Structure written by MMmdl.
153161  0  0  1  0            999 V2000
  -30.6640  -14.5119   20.5474 C   0  0  0  0  0  0
  -30.4298  -12.3218   19.4294 C   0  0  0  0  0  0
  -29.4989  -12.5035   18.2110 C   0  0  0  0  0  0
  -28.0192  -12.3622   18.6208 C   0  0  0  0  0  0
  -27.6615  -13.2052   19.8740 C   0  0  2  0  0  0
  -28.7020  -12.9892   20.9965 C   0  0  0  0  0  0
  -25.2597  -13.8155   20.5672 C   0  0  0  0  0  0
  -24.1847  -13.0439   20.9174 C   0  0  0  0  0  0
  -24.6392  -11.6904   20.8725 C   0  0  0  0  0  0
  -23.9055  -10.4294   21.0398 C   0  0  0  0  0  0
  -24.3612   -9.4212   21.9176 C   0  0  0  0  0  0
  -23.6294   -8.2243   22.0748 C   0  0  0  0  0  0
  -22.4274   -8.0278   21.3542 C   0  0  0  0  0  0
  -21.9904   -9.0249   20.4642 C   0  0  0  0  0  0
  -22.7227  -10.2132   20.3050 C   0  0  0  0  0  0
  -21.6850   -6.0733   22.5278 C   0  0  0  0  0  0
  -21.4014   -6.5637   23.8211 C   0  0  0  0  0  0
  -21.3659   -5.6792   24.9172 C   0  0  0  0  0  0
  -21.6043   -4.3055   24.7225 C   0  0  0  0  0  0
  -21.8822   -3.8146   23.4347 C   0  0  0  0  0  0
  -21.9197   -4.6962   22.3402 C   0  0  0  0  0  0
  -22.7872  -13.5242   21.1848 C   0  0  0  0  0  0
  -22.1666   -4.2144   21.0981 F   0  0  0  0  0  0
  -21.5627   -3.4540   25.7739 F   0  0  0  0  0  0
  -30.0330  -13.3068   20.4496 N   0  0  0  0  0  0
  -26.3025  -12.9317   20.3350 N   0  0  0  0  0  0
  -25.9318  -11.6484   20.5755 N   0  0  0  0  0  0
  -22.0511  -12.8231   22.0401 N   0  0  0  0  0  0
  -25.4341  -15.1871   20.4073 N   0  0  0  0  0  0
  -31.7961  -14.7013   20.0884 O   0  0  0  0  0  0
  -21.6641   -6.8874   21.4239 O   0  0  0  0  0  0
  -22.3554  -14.5549   20.6695 O   0  0  0  0  0  0
  -24.6166  -31.8658   23.2055 C   0  0  0  0  0  0
  -25.9054  -32.4806   23.8362 C   0  0  1  0  0  0
  -27.2406  -27.4227   20.1131 C   0  0  0  0  0  0
  -25.5896  -33.8607   24.2298 N   0  0  0  0  0  0
  -23.4041  -30.4857   21.5473 C   0  0  2  0  0  0
  -24.8517  -28.9438   20.1158 C   0  0  0  0  0  0
  -22.7412  -29.4657   22.5001 C   0  0  0  0  0  0
  -18.0266  -28.1389   22.8490 C   0  0  0  0  0  0
  -24.1478  -36.7312   23.2640 C   0  0  0  0  0  0
  -25.9315  -30.8333   21.3533 C   0  0  0  0  0  0
  -26.0125  -29.4667   20.6996 C   0  0  0  0  0  0
  -27.2142  -28.7218   20.6756 C   0  0  0  0  0  0
  -26.0653  -26.9126   19.5252 C   0  0  0  0  0  0
  -24.8738  -27.6682   19.5213 C   0  0  0  0  0  0
  -23.6112  -29.8092   20.1647 C   0  0  0  0  0  0
  -25.4102  -36.3105   24.0331 C   0  0  1  0  0  0
  -20.5855  -28.3680   23.1317 C   0  0  2  0  0  0
  -20.6762  -26.9419   22.5416 C   0  0  0  0  0  0
  -19.5739  -26.6400   21.5209 C   0  0  0  0  0  0
  -18.1914  -26.7935   22.1621 C   0  0  0  0  0  0
  -19.1515  -28.8848   23.2898 C   0  0  0  0  0  0
  -18.9448  -30.1451   23.8918 C   0  0  0  0  0  0
  -17.6453  -30.6594   24.0568 C   0  0  0  0  0  0
  -25.9033  -34.9474   23.5119 C   0  0  0  0  0  0
  -16.5344  -29.9099   23.6329 C   0  0  0  0  0  0
  -16.7257  -28.6515   23.0354 C   0  0  0  0  0  0
  -26.4477  -31.6587   25.0696 C   0  0  0  0  0  0
  -25.3743  -31.3695   26.1445 C   0  0  0  0  0  0
  -27.0303  -30.3024   24.6074 C   0  0  0  0  0  0
  -27.6050  -32.4310   25.7459 C   0  0  0  0  0  0
  -27.5573  -37.1808   24.8464 C   0  0  0  0  0  0
  -21.4140  -29.3039   22.3730 N   0  0  0  0  0  0
  -26.4289  -37.3790   23.9404 N   0  0  0  0  0  0
  -24.6693  -31.0757   22.0948 N   0  0  0  0  0  0
  -23.4179  -28.8220   23.3058 O   0  0  0  0  0  0
  -28.4053  -26.6777   20.0996 O   0  0  0  0  0  0
  -26.5606  -34.8938   22.4688 O   0  0  0  0  0  0
  -23.5360  -32.1414   23.7456 O   0  0  0  0  0  0
  -30.3312  -18.8851   19.7616 C   0  0  0  0  0  0
  -29.4264  -19.3476   20.6909 C   0  0  0  0  0  0
  -29.9089  -16.9036   20.8342 C   0  0  0  0  0  0
  -28.9254  -20.6899   20.8975 C   0  0  0  0  0  0
  -29.1551  -21.8361   20.2114 C   0  0  0  0  0  0
  -28.5006  -25.4844   20.8110 C   0  0  0  0  0  0
  -28.2977  -25.4788   22.1652 C   0  0  0  0  0  0
  -28.9302  -24.2885   20.0433 C   0  0  0  0  0  0
  -27.8883  -26.6652   23.0259 C   0  0  0  0  0  0
  -30.5978  -17.5037   19.8522 N   0  0  0  0  0  0
  -29.9239  -15.4967   21.1039 N   0  0  0  0  0  0
  -28.6084  -23.0844   20.5809 N   0  0  0  0  0  0
  -29.5701  -24.3655   18.9899 O   0  0  0  0  0  0
  -28.4783  -24.4325   22.9925 O   0  0  0  0  0  0
  -28.8675  -18.0321   21.7122 S   0  0  0  0  0  0
  -31.4729  -12.4310   19.1271 H   0  0  0  0  0  0
  -30.3433  -11.3110   19.8311 H   0  0  0  0  0  0
  -29.7421  -11.7718   17.4394 H   0  0  0  0  0  0
  -29.6635  -13.4844   17.7631 H   0  0  0  0  0  0
  -27.8296  -11.3063   18.8187 H   0  0  0  0  0  0
  -27.3700  -12.6335   17.7874 H   0  0  0  0  0  0
  -27.7038  -14.2521   19.5728 H   0  0  0  0  0  0
  -28.6838  -11.9521   21.3343 H   0  0  0  0  0  0
  -28.4548  -13.5814   21.8786 H   0  0  0  0  0  0
  -25.2756   -9.5687   22.4749 H   0  0  0  0  0  0
  -24.0003   -7.4632   22.7462 H   0  0  0  0  0  0
  -21.0835   -8.8762   19.8948 H   0  0  0  0  0  0
  -22.3680  -10.9669   19.6159 H   0  0  0  0  0  0
  -21.2006   -7.6145   23.9711 H   0  0  0  0  0  0
  -21.1476   -6.0522   25.9073 H   0  0  0  0  0  0
  -22.0605   -2.7608   23.2849 H   0  0  0  0  0  0
  -22.4131  -11.9893   22.4791 H   0  0  0  0  0  0
  -21.1125  -13.1242   22.2604 H   0  0  0  0  0  0
  -24.6664  -15.8427   20.5048 H   0  0  0  0  0  0
  -26.2826  -15.6200   20.0658 H   0  0  0  0  0  0
  -26.7138  -32.5515   23.1139 H   0  0  0  0  0  0
  -25.0021  -33.9760   25.0424 H   0  0  0  0  0  0
  -22.6937  -31.3022   21.4036 H   0  0  0  0  0  0
  -23.3732  -35.9655   23.3320 H   0  0  0  0  0  0
  -24.3567  -36.8912   22.2051 H   0  0  0  0  0  0
  -23.7249  -37.6528   23.6652 H   0  0  0  0  0  0
  -26.0388  -31.5998   20.5845 H   0  0  0  0  0  0
  -26.8214  -30.8902   21.9692 H   0  0  0  0  0  0
  -28.1156  -29.1288   21.1126 H   0  0  0  0  0  0
  -26.0750  -25.9327   19.0698 H   0  0  0  0  0  0
  -23.9815  -27.2585   19.0684 H   0  0  0  0  0  0
  -23.7145  -30.5795   19.3995 H   0  0  0  0  0  0
  -22.7362  -29.2236   19.8756 H   0  0  0  0  0  0
  -25.1283  -36.1967   25.0824 H   0  0  0  0  0  0
  -20.9939  -28.3271   24.1440 H   0  0  0  0  0  0
  -20.5656  -26.2308   23.3616 H   0  0  0  0  0  0
  -21.6639  -26.7463   22.1213 H   0  0  0  0  0  0
  -19.6911  -25.6314   21.1230 H   0  0  0  0  0  0
  -19.6680  -27.3224   20.6749 H   0  0  0  0  0  0
  -17.4181  -26.6681   21.4026 H   0  0  0  0  0  0
  -18.0325  -26.0077   22.9020 H   0  0  0  0  0  0
  -19.7927  -30.7246   24.2319 H   0  0  0  0  0  0
  -17.5014  -31.6278   24.5170 H   0  0  0  0  0  0
  -15.5344  -30.3014   23.7643 H   0  0  0  0  0  0
  -15.8654  -28.0840   22.7073 H   0  0  0  0  0  0
  -24.5903  -30.7065   25.7770 H   0  0  0  0  0  0
  -24.8952  -32.2849   26.4932 H   0  0  0  0  0  0
  -25.8090  -30.8828   27.0184 H   0  0  0  0  0  0
  -26.2849  -29.6785   24.1126 H   0  0  0  0  0  0
  -27.4066  -29.7260   25.4536 H   0  0  0  0  0  0
  -27.8682  -30.4324   23.9219 H   0  0  0  0  0  0
  -27.2660  -33.3592   26.2075 H   0  0  0  0  0  0
  -28.3837  -32.6906   25.0275 H   0  0  0  0  0  0
  -28.0749  -31.8416   26.5344 H   0  0  0  0  0  0
  -28.2607  -38.0087   24.7494 H   0  0  0  0  0  0
  -28.1051  -36.2625   24.6308 H   0  0  0  0  0  0
  -27.2292  -37.1474   25.8867 H   0  0  0  0  0  0
  -20.9329  -29.8737   21.6916 H   0  0  0  0  0  0
  -26.0180  -38.2871   24.1403 H   0  0  0  0  0  0
  -30.8356  -19.4666   19.0024 H   0  0  0  0  0  0
  -28.2722  -20.7703   21.7559 H   0  0  0  0  0  0
  -29.7866  -21.8684   19.3327 H   0  0  0  0  0  0
  -26.8563  -26.9514   22.8223 H   0  0  0  0  0  0
  -28.5371  -27.5185   22.8277 H   0  0  0  0  0  0
  -27.9624  -26.4533   24.0938 H   0  0  0  0  0  0
  -29.1222  -15.1657   21.6170 H   0  0  0  0  0  0
  -27.9496  -23.0920   21.3483 H   0  0  0  0  0  0
  -28.9789  -23.7670   22.5370 H   0  0  0  0  0  0
  1 25  1  0  0  0
  1 30  2  0  0  0
  1 81  1  0  0  0
  2  3  1  0  0  0
  2 25  1  0  0  0
  2 86  1  0  0  0
  2 87  1  0  0  0
  3  4  1  0  0  0
  3 88  1  0  0  0
  3 89  1  0  0  0
  4  5  1  0  0  0
  4 90  1  0  0  0
  4 91  1  0  0  0
  5  6  1  0  0  0
  5 26  1  0  0  0
  5 92  1  0  0  0
  6 25  1  0  0  0
  6 93  1  0  0  0
  6 94  1  0  0  0
  7  8  2  0  0  0
  7 26  1  0  0  0
  7 29  1  0  0  0
  8  9  1  0  0  0
  8 22  1  0  0  0
  9 10  1  0  0  0
  9 27  2  0  0  0
 10 11  2  0  0  0
 10 15  1  0  0  0
 11 12  1  0  0  0
 11 95  1  0  0  0
 12 13  2  0  0  0
 12 96  1  0  0  0
 13 14  1  0  0  0
 13 31  1  0  0  0
 14 15  2  0  0  0
 14 97  1  0  0  0
 15 98  1  0  0  0
 16 17  2  0  0  0
 16 21  1  0  0  0
 16 31  1  0  0  0
 17 18  1  0  0  0
 17 99  1  0  0  0
 18 19  2  0  0  0
 18100  1  0  0  0
 19 20  1  0  0  0
 19 24  1  0  0  0
 20 21  2  0  0  0
 20101  1  0  0  0
 21 23  1  0  0  0
 22 28  1  0  0  0
 22 32  2  0  0  0
 26 27  1  0  0  0
 28102  1  0  0  0
 28103  1  0  0  0
 29104  1  0  0  0
 29105  1  0  0  0
 33 34  1  0  0  0
 33 66  1  0  0  0
 33 70  2  0  0  0
 34 36  1  0  0  0
 34 59  1  0  0  0
 34106  1  0  0  0
 35 44  2  0  0  0
 35 45  1  0  0  0
 35 68  1  0  0  0
 36 56  1  0  0  0
 36107  1  0  0  0
 37 39  1  0  0  0
 37 47  1  0  0  0
 37 66  1  0  0  0
 37108  1  0  0  0
 38 43  2  0  0  0
 38 46  1  0  0  0
 38 47  1  0  0  0
 39 64  1  0  0  0
 39 67  2  0  0  0
 40 52  1  0  0  0
 40 53  2  0  0  0
 40 58  1  0  0  0
 41109  1  0  0  0
 41110  1  0  0  0
 41111  1  0  0  0
 41 48  1  0  0  0
 42 43  1  0  0  0
 42 66  1  0  0  0
 42112  1  0  0  0
 42113  1  0  0  0
 43 44  1  0  0  0
 44114  1  0  0  0
 45 46  2  0  0  0
 45115  1  0  0  0
 46116  1  0  0  0
 47117  1  0  0  0
 47118  1  0  0  0
 48 56  1  0  0  0
 48 65  1  0  0  0
 48119  1  0  0  0
 49 50  1  0  0  0
 49 53  1  0  0  0
 49 64  1  0  0  0
 49120  1  0  0  0
 50 51  1  0  0  0
 50121  1  0  0  0
 50122  1  0  0  0
 51 52  1  0  0  0
 51123  1  0  0  0
 51124  1  0  0  0
 52125  1  0  0  0
 52126  1  0  0  0
 53 54  1  0  0  0
 54 55  2  0  0  0
 54127  1  0  0  0
 55 57  1  0  0  0
 55128  1  0  0  0
 56 69  2  0  0  0
 57 58  2  0  0  0
 57129  1  0  0  0
 58130  1  0  0  0
 59 60  1  0  0  0
 59 61  1  0  0  0
 59 62  1  0  0  0
 60131  1  0  0  0
 60132  1  0  0  0
 60133  1  0  0  0
 61134  1  0  0  0
 61135  1  0  0  0
 61136  1  0  0  0
 62137  1  0  0  0
 62138  1  0  0  0
 62139  1  0  0  0
 63 65  1  0  0  0
 63140  1  0  0  0
 63141  1  0  0  0
 63142  1  0  0  0
 64143  1  0  0  0
 65144  1  0  0  0
 68 76  1  0  0  0
 71 72  2  0  0  0
 71 80  1  0  0  0
 71145  1  0  0  0
 72 74  1  0  0  0
 72 85  1  0  0  0
 73 80  2  0  0  0
 73 81  1  0  0  0
 73 85  1  0  0  0
 74 75  2  0  0  0
 74146  1  0  0  0
 75 82  1  0  0  0
 75147  1  0  0  0
 76 77  2  0  0  0
 76 78  1  0  0  0
 77 79  1  0  0  0
 77 84  1  0  0  0
 78 82  1  0  0  0
 78 83  2  0  0  0
 79148  1  0  0  0
 79149  1  0  0  0
 79150  1  0  0  0
 81151  1  0  0  0
 82152  1  0  0  0
 84153  1  0  0  0
M  ISO  4   1 100  68 101  76 101  81 100
M  END
> <chiral flag>
0

> <version>
0

> <s_m_source_file>
/data/baiqing/PycharmProjects/Reinvent-master-3.2/result/LINK_invent/BTK/process_docking_weight1_custom_product_contain_oxygen_bond_distance_aromatic_linkinvent_7_9_3/rearranged_h_0179.sdf

> <i_m_source_file_index>
23

> <r_mmod_Potential_Energy-OPLS-2005>
-28.9072227478027

> <r_mmod_Stretch_Energy-OPLS-2005>
44.4750480651855

> <r_mmod_Bend_Energy-OPLS-2005>
109.837265014648

> <r_mmod_Torsional_Energy-OPLS-2005>
241.426986694336

> <r_mmod_Improper_Torsional_Energy-OPLS-2005>
4.78640794754028

> <r_mmod_Van_der_Waal_Energy-OPLS-2005>
137.036178588867

> <r_mmod_Electrostatic_Energy-OPLS-2005>
-323.189361572266

> <r_mmod_Solvation_Energy-OPLS-2005>
-258.927734375

> <b_mmod_Minimization_Converged-OPLS-2005>
0

> <r_mmod_RMS_Derivative-OPLS-2005>
1.23401808738708

$$$$
23
                    3D
 Structure written by MMmdl.
153161  0  0  1  0            999 V2000
  -30.6695  -14.4875   20.5639 C   0  0  0  0  0  0
  -30.4301  -12.3114   19.4241 C   0  0  0  0  0  0
  -29.5006  -12.5122   18.2079 C   0  0  0  0  0  0
  -28.0189  -12.3740   18.6146 C   0  0  0  0  0  0
  -27.6643  -13.2033   19.8777 C   0  0  2  0  0  0
  -28.7043  -12.9663   20.9959 C   0  0  0  0  0  0
  -25.2604  -13.8152   20.5670 C   0  0  0  0  0  0
  -24.1845  -13.0437   20.9163 C   0  0  0  0  0  0
  -24.6395  -11.6899   20.8720 C   0  0  0  0  0  0
  -23.9060  -10.4292   21.0397 C   0  0  0  0  0  0
  -24.3613   -9.4208   21.9175 C   0  0  0  0  0  0
  -23.6288   -8.2246   22.0752 C   0  0  0  0  0  0
  -22.4266   -8.0286   21.3549 C   0  0  0  0  0  0
  -21.9900   -9.0257   20.4650 C   0  0  0  0  0  0
  -22.7232  -10.2135   20.3050 C   0  0  0  0  0  0
  -21.6855   -6.0736   22.5281 C   0  0  0  0  0  0
  -21.4021   -6.5640   23.8217 C   0  0  0  0  0  0
  -21.3654   -5.6790   24.9176 C   0  0  0  0  0  0
  -21.6039   -4.3052   24.7226 C   0  0  0  0  0  0
  -21.8818   -3.8148   23.4346 C   0  0  0  0  0  0
  -21.9194   -4.6965   22.3403 C   0  0  0  0  0  0
  -22.7872  -13.5243   21.1830 C   0  0  0  0  0  0
  -22.1660   -4.2151   21.0982 F   0  0  0  0  0  0
  -21.5621   -3.4536   25.7738 F   0  0  0  0  0  0
  -30.0360  -13.2871   20.4516 N   0  0  0  0  0  0
  -26.3036  -12.9314   20.3363 N   0  0  0  0  0  0
  -25.9319  -11.6476   20.5749 N   0  0  0  0  0  0
  -22.0502  -12.8246   22.0384 N   0  0  0  0  0  0
  -25.4346  -15.1869   20.4085 N   0  0  0  0  0  0
  -31.7979  -14.6885   20.1082 O   0  0  0  0  0  0
  -21.6637   -6.8879   21.4244 O   0  0  0  0  0  0
  -22.3564  -14.5554   20.6687 O   0  0  0  0  0  0
  -24.6149  -31.8668   23.2094 C   0  0  0  0  0  0
  -25.9039  -32.4816   23.8392 C   0  0  1  0  0  0
  -27.2327  -27.4317   20.0979 C   0  0  0  0  0  0
  -25.5894  -33.8613   24.2326 N   0  0  0  0  0  0
  -23.4044  -30.4893   21.5499 C   0  0  2  0  0  0
  -24.8533  -28.9564   20.1121 C   0  0  0  0  0  0
  -22.7418  -29.4644   22.4986 C   0  0  0  0  0  0
  -18.0276  -28.1372   22.8492 C   0  0  0  0  0  0
  -24.1488  -36.7315   23.2635 C   0  0  0  0  0  0
  -25.9335  -30.8323   21.3633 C   0  0  0  0  0  0
  -26.0139  -29.4671   20.7090 C   0  0  0  0  0  0
  -27.2111  -28.7121   20.6984 C   0  0  0  0  0  0
  -26.0601  -26.9374   19.4913 C   0  0  0  0  0  0
  -24.8714  -27.6910   19.4993 C   0  0  0  0  0  0
  -23.6137  -29.8216   20.1645 C   0  0  0  0  0  0
  -25.4104  -36.3106   24.0337 C   0  0  1  0  0  0
  -20.5866  -28.3660   23.1318 C   0  0  2  0  0  0
  -20.6766  -26.9394   22.5423 C   0  0  0  0  0  0
  -19.5747  -26.6381   21.5214 C   0  0  0  0  0  0
  -18.1922  -26.7923   22.1615 C   0  0  0  0  0  0
  -19.1525  -28.8834   23.2902 C   0  0  0  0  0  0
  -18.9451  -30.1441   23.8910 C   0  0  0  0  0  0
  -17.6453  -30.6578   24.0566 C   0  0  0  0  0  0
  -25.9031  -34.9470   23.5130 C   0  0  0  0  0  0
  -16.5345  -29.9079   23.6323 C   0  0  0  0  0  0
  -16.7264  -28.6496   23.0346 C   0  0  0  0  0  0
  -26.4468  -31.6590   25.0718 C   0  0  0  0  0  0
  -25.3735  -31.3709   26.1472 C   0  0  0  0  0  0
  -27.0288  -30.3029   24.6088 C   0  0  0  0  0  0
  -27.6051  -32.4299   25.7471 C   0  0  0  0  0  0
  -27.5581  -37.1808   24.8453 C   0  0  0  0  0  0
  -21.4143  -29.3025   22.3726 N   0  0  0  0  0  0
  -26.4290  -37.3787   23.9401 N   0  0  0  0  0  0
  -24.6691  -31.0765   22.0997 N   0  0  0  0  0  0
  -23.4186  -28.8183   23.3029 O   0  0  0  0  0  0
  -28.3589  -26.6407   20.1147 O   0  0  0  0  0  0
  -26.5592  -34.8921   22.4691 O   0  0  0  0  0  0
  -23.5340  -32.1423   23.7484 O   0  0  0  0  0  0
  -30.3028  -19.0010   20.1113 C   0  0  0  0  0  0
  -30.5914  -17.6028   20.0154 C   0  0  0  0  0  0
  -29.4182  -19.3257   21.1054 C   0  0  0  0  0  0
  -29.9453  -16.8115   20.9435 C   0  0  0  0  0  0
  -28.8085  -20.6048   21.5735 C   0  0  0  0  0  0
  -28.9527  -24.2608   20.6466 C   0  0  0  0  0  0
  -28.2557  -25.5758   21.0815 C   0  0  0  0  0  0
  -28.9846  -23.1025   21.6887 C   0  0  2  0  0  0
  -29.9272  -23.3788   22.8896 C   0  0  0  0  0  0
  -29.9302  -15.4563   21.1436 N   0  0  0  0  0  0
  -29.2887  -21.7717   21.0991 N   0  0  0  0  0  0
  -27.9091  -20.5872   22.4163 O   0  0  0  0  0  0
  -29.4302  -24.1509   19.5097 O   0  0  0  0  0  0
  -30.8403  -19.8865   19.3002 F   0  0  0  0  0  0
  -31.3875  -17.1422   19.0777 F   0  0  0  0  0  0
  -29.8930  -22.3869   23.7809 F   0  0  0  0  0  0
  -29.5891  -24.4982   23.5287 F   0  0  0  0  0  0
  -31.1828  -23.5116   22.4591 F   0  0  0  0  0  0
  -28.9271  -17.8507   21.9325 S   0  0  0  0  0  0
  -31.4746  -12.4189   19.1264 H   0  0  0  0  0  0
  -30.3362  -11.2977   19.8160 H   0  0  0  0  0  0
  -29.7416  -11.7909   17.4261 H   0  0  0  0  0  0
  -29.6715  -13.4990   17.7743 H   0  0  0  0  0  0
  -27.8219  -11.3175   18.7986 H   0  0  0  0  0  0
  -27.3742  -12.6629   17.7836 H   0  0  0  0  0  0
  -27.7129  -14.2539   19.5907 H   0  0  0  0  0  0
  -28.6837  -11.9233   21.3150 H   0  0  0  0  0  0
  -28.4596  -13.5417   21.8895 H   0  0  0  0  0  0
  -25.2761   -9.5684   22.4745 H   0  0  0  0  0  0
  -24.0003   -7.4636   22.7468 H   0  0  0  0  0  0
  -21.0833   -8.8776   19.8956 H   0  0  0  0  0  0
  -22.3691  -10.9671   19.6157 H   0  0  0  0  0  0
  -21.2021   -7.6147   23.9726 H   0  0  0  0  0  0
  -21.1468   -6.0515   25.9080 H   0  0  0  0  0  0
  -22.0600   -2.7610   23.2851 H   0  0  0  0  0  0
  -22.4104  -11.9901   22.4772 H   0  0  0  0  0  0
  -21.1127  -13.1290   22.2589 H   0  0  0  0  0  0
  -24.6700  -15.8444   20.5150 H   0  0  0  0  0  0
  -26.2878  -15.6234   20.0828 H   0  0  0  0  0  0
  -26.7113  -32.5529   23.1158 H   0  0  0  0  0  0
  -25.0056  -33.9776   25.0481 H   0  0  0  0  0  0
  -22.6930  -31.3058   21.4104 H   0  0  0  0  0  0
  -23.3739  -35.9659   23.3309 H   0  0  0  0  0  0
  -24.3593  -36.8917   22.2049 H   0  0  0  0  0  0
  -23.7257  -37.6531   23.6644 H   0  0  0  0  0  0
  -26.0455  -31.5997   20.5960 H   0  0  0  0  0  0
  -26.8208  -30.8861   21.9823 H   0  0  0  0  0  0
  -28.1068  -29.0983   21.1648 H   0  0  0  0  0  0
  -26.0646  -25.9635   19.0222 H   0  0  0  0  0  0
  -23.9794  -27.2924   19.0356 H   0  0  0  0  0  0
  -23.7200  -30.5963   19.4044 H   0  0  0  0  0  0
  -22.7380  -29.2402   19.8701 H   0  0  0  0  0  0
  -25.1281  -36.1973   25.0831 H   0  0  0  0  0  0
  -20.9956  -28.3229   24.1438 H   0  0  0  0  0  0
  -20.5660  -26.2265   23.3609 H   0  0  0  0  0  0
  -21.6639  -26.7434   22.1222 H   0  0  0  0  0  0
  -19.6908  -25.6295   21.1235 H   0  0  0  0  0  0
  -19.6690  -27.3200   20.6752 H   0  0  0  0  0  0
  -17.4197  -26.6686   21.4009 H   0  0  0  0  0  0
  -18.0309  -26.0056   22.8998 H   0  0  0  0  0  0
  -19.7927  -30.7259   24.2279 H   0  0  0  0  0  0
  -17.5006  -31.6259   24.5164 H   0  0  0  0  0  0
  -15.5345  -30.2985   23.7634 H   0  0  0  0  0  0
  -15.8664  -28.0818   22.7052 H   0  0  0  0  0  0
  -24.5899  -30.7061   25.7823 H   0  0  0  0  0  0
  -24.8936  -32.2871   26.4923 H   0  0  0  0  0  0
  -25.8089  -30.8880   27.0229 H   0  0  0  0  0  0
  -26.2832  -29.6803   24.1129 H   0  0  0  0  0  0
  -27.4048  -29.7252   25.4545 H   0  0  0  0  0  0
  -27.8674  -30.4351   23.9245 H   0  0  0  0  0  0
  -27.2683  -33.3588   26.2086 H   0  0  0  0  0  0
  -28.3836  -32.6872   25.0275 H   0  0  0  0  0  0
  -28.0745  -31.8396   26.5352 H   0  0  0  0  0  0
  -28.2596  -38.0108   24.7500 H   0  0  0  0  0  0
  -28.1080  -36.2641   24.6267 H   0  0  0  0  0  0
  -27.2308  -37.1449   25.8859 H   0  0  0  0  0  0
  -20.9300  -29.8755   21.6958 H   0  0  0  0  0  0
  -26.0181  -38.2866   24.1403 H   0  0  0  0  0  0
  -28.6884  -25.9404   22.0103 H   0  0  0  0  0  0
  -27.2126  -25.3386   21.2963 H   0  0  0  0  0  0
  -27.9745  -23.0594   22.0989 H   0  0  0  0  0  0
  -29.1248  -15.1082   21.6416 H   0  0  0  0  0  0
  -30.0072  -21.7500   20.3872 H   0  0  0  0  0  0
  1 25  1  0  0  0
  1 30  2  0  0  0
  1 80  1  0  0  0
  2  3  1  0  0  0
  2 25  1  0  0  0
  2 90  1  0  0  0
  2 91  1  0  0  0
  3  4  1  0  0  0
  3 92  1  0  0  0
  3 93  1  0  0  0
  4  5  1  0  0  0
  4 94  1  0  0  0
  4 95  1  0  0  0
  5  6  1  0  0  0
  5 26  1  0  0  0
  5 96  1  0  0  0
  6 25  1  0  0  0
  6 97  1  0  0  0
  6 98  1  0  0  0
  7  8  2  0  0  0
  7 26  1  0  0  0
  7 29  1  0  0  0
  8  9  1  0  0  0
  8 22  1  0  0  0
  9 10  1  0  0  0
  9 27  2  0  0  0
 10 11  2  0  0  0
 10 15  1  0  0  0
 11 12  1  0  0  0
 11 99  1  0  0  0
 12 13  2  0  0  0
 12100  1  0  0  0
 13 14  1  0  0  0
 13 31  1  0  0  0
 14 15  2  0  0  0
 14101  1  0  0  0
 15102  1  0  0  0
 16 17  2  0  0  0
 16 21  1  0  0  0
 16 31  1  0  0  0
 17 18  1  0  0  0
 17103  1  0  0  0
 18 19  2  0  0  0
 18104  1  0  0  0
 19 20  1  0  0  0
 19 24  1  0  0  0
 20 21  2  0  0  0
 20105  1  0  0  0
 21 23  1  0  0  0
 22 28  1  0  0  0
 22 32  2  0  0  0
 26 27  1  0  0  0
 28106  1  0  0  0
 28107  1  0  0  0
 29108  1  0  0  0
 29109  1  0  0  0
 33 34  1  0  0  0
 33 66  1  0  0  0
 33 70  2  0  0  0
 34 36  1  0  0  0
 34 59  1  0  0  0
 34110  1  0  0  0
 35 44  2  0  0  0
 35 45  1  0  0  0
 35 68  1  0  0  0
 36 56  1  0  0  0
 36111  1  0  0  0
 37 39  1  0  0  0
 37 47  1  0  0  0
 37 66  1  0  0  0
 37112  1  0  0  0
 38 43  2  0  0  0
 38 46  1  0  0  0
 38 47  1  0  0  0
 39 64  1  0  0  0
 39 67  2  0  0  0
 40 52  1  0  0  0
 40 53  2  0  0  0
 40 58  1  0  0  0
 41113  1  0  0  0
 41114  1  0  0  0
 41115  1  0  0  0
 41 48  1  0  0  0
 42 43  1  0  0  0
 42 66  1  0  0  0
 42116  1  0  0  0
 42117  1  0  0  0
 43 44  1  0  0  0
 44118  1  0  0  0
 45 46  2  0  0  0
 45119  1  0  0  0
 46120  1  0  0  0
 47121  1  0  0  0
 47122  1  0  0  0
 48 56  1  0  0  0
 48 65  1  0  0  0
 48123  1  0  0  0
 49 50  1  0  0  0
 49 53  1  0  0  0
 49 64  1  0  0  0
 49124  1  0  0  0
 50 51  1  0  0  0
 50125  1  0  0  0
 50126  1  0  0  0
 51 52  1  0  0  0
 51127  1  0  0  0
 51128  1  0  0  0
 52129  1  0  0  0
 52130  1  0  0  0
 53 54  1  0  0  0
 54 55  2  0  0  0
 54131  1  0  0  0
 55 57  1  0  0  0
 55132  1  0  0  0
 56 69  2  0  0  0
 57 58  2  0  0  0
 57133  1  0  0  0
 58134  1  0  0  0
 59 60  1  0  0  0
 59 61  1  0  0  0
 59 62  1  0  0  0
 60135  1  0  0  0
 60136  1  0  0  0
 60137  1  0  0  0
 61138  1  0  0  0
 61139  1  0  0  0
 61140  1  0  0  0
 62141  1  0  0  0
 62142  1  0  0  0
 62143  1  0  0  0
 63 65  1  0  0  0
 63144  1  0  0  0
 63145  1  0  0  0
 63146  1  0  0  0
 64147  1  0  0  0
 65148  1  0  0  0
 68 77  1  0  0  0
 71 72  1  0  0  0
 71 73  2  0  0  0
 71 84  1  0  0  0
 72 74  2  0  0  0
 72 85  1  0  0  0
 73 75  1  0  0  0
 73 89  1  0  0  0
 74 80  1  0  0  0
 74 89  1  0  0  0
 75 81  1  0  0  0
 75 82  2  0  0  0
 76 77  1  0  0  0
 76 78  1  0  0  0
 76 83  2  0  0  0
 77149  1  0  0  0
 77150  1  0  0  0
 78 79  1  0  0  0
 78 81  1  0  0  0
 78151  1  0  0  0
 79 86  1  0  0  0
 79 87  1  0  0  0
 79 88  1  0  0  0
 80152  1  0  0  0
 81153  1  0  0  0
M  ISO  4   1 100  68 101  77 101  80 100
M  END
> <chiral flag>
0

> <version>
0

> <s_m_source_file>
/data/baiqing/PycharmProjects/Reinvent-master-3.2/result/LINK_invent/BTK/process_docking_weight1_custom_product_contain_oxygen_bond_distance_aromatic_linkinvent_7_9_3/rearranged_h_0179.sdf

> <i_m_source_file_index>
24

> <r_mmod_Potential_Energy-OPLS-2005>
-205.459732055664

> <r_mmod_Stretch_Energy-OPLS-2005>
40.0833511352539

> <r_mmod_Bend_Energy-OPLS-2005>
103.902816772461

> <r_mmod_Torsional_Energy-OPLS-2005>
237.773132324219

> <r_mmod_Improper_Torsional_Energy-OPLS-2005>
3.62814354896545

> <r_mmod_Van_der_Waal_Energy-OPLS-2005>
135.756729125977

> <r_mmod_Electrostatic_Energy-OPLS-2005>
-504.917236328125

> <r_mmod_Solvation_Energy-OPLS-2005>
-236.190673828125

> <b_mmod_Minimization_Converged-OPLS-2005>
0

> <r_mmod_RMS_Derivative-OPLS-2005>
0.820699512958527

$$$$
24
                    3D
 Structure written by MMmdl.
156164  0  0  1  0            999 V2000
  -30.5992  -14.7165   20.4806 C   0  0  0  0  0  0
  -30.4384  -12.4397   19.4568 C   0  0  0  0  0  0
  -29.5099  -12.5158   18.2240 C   0  0  0  0  0  0
  -28.0309  -12.3502   18.6310 C   0  0  0  0  0  0
  -27.6453  -13.2241   19.8542 C   0  0  2  0  0  0
  -28.6925  -13.1207   20.9847 C   0  0  0  0  0  0
  -25.2530  -13.8172   20.5681 C   0  0  0  0  0  0
  -24.1822  -13.0425   20.9211 C   0  0  0  0  0  0
  -24.6402  -11.6901   20.8750 C   0  0  0  0  0  0
  -23.9072  -10.4287   21.0400 C   0  0  0  0  0  0
  -24.3623   -9.4209   21.9184 C   0  0  0  0  0  0
  -23.6300   -8.2244   22.0753 C   0  0  0  0  0  0
  -22.4283   -8.0280   21.3543 C   0  0  0  0  0  0
  -21.9910   -9.0253   20.4647 C   0  0  0  0  0  0
  -22.7239  -10.2134   20.3057 C   0  0  0  0  0  0
  -21.6859   -6.0741   22.5281 C   0  0  0  0  0  0
  -21.4014   -6.5644   23.8218 C   0  0  0  0  0  0
  -21.3660   -5.6795   24.9177 C   0  0  0  0  0  0
  -21.6044   -4.3060   24.7226 C   0  0  0  0  0  0
  -21.8822   -3.8152   23.4347 C   0  0  0  0  0  0
  -21.9192   -4.6966   22.3404 C   0  0  0  0  0  0
  -22.7847  -13.5217   21.1867 C   0  0  0  0  0  0
  -22.1668   -4.2155   21.0981 F   0  0  0  0  0  0
  -21.5624   -3.4541   25.7738 F   0  0  0  0  0  0
  -29.9937  -13.4828   20.4062 N   0  0  0  0  0  0
  -26.2952  -12.9369   20.3274 N   0  0  0  0  0  0
  -25.9330  -11.6518   20.5738 N   0  0  0  0  0  0
  -22.0495  -12.8204   22.0421 N   0  0  0  0  0  0
  -25.4175  -15.1898   20.4057 N   0  0  0  0  0  0
  -31.7934  -14.8382   20.1894 O   0  0  0  0  0  0
  -21.6644   -6.8877   21.4245 O   0  0  0  0  0  0
  -22.3542  -14.5532   20.6723 O   0  0  0  0  0  0
  -24.6304  -31.8570   23.1984 C   0  0  0  0  0  0
  -25.9126  -32.4780   23.8338 C   0  0  1  0  0  0
  -27.2165  -27.2637   20.1387 C   0  0  0  0  0  0
  -25.5915  -33.8582   24.2258 N   0  0  0  0  0  0
  -23.4289  -30.4798   21.5415 C   0  0  2  0  0  0
  -24.8763  -28.9260   20.1118 C   0  0  0  0  0  0
  -22.7500  -29.4624   22.4904 C   0  0  0  0  0  0
  -18.0309  -28.1413   22.8513 C   0  0  0  0  0  0
  -24.1476  -36.7291   23.2644 C   0  0  0  0  0  0
  -25.9741  -30.7710   21.3781 C   0  0  0  0  0  0
  -26.0474  -29.3922   20.7239 C   0  0  0  0  0  0
  -27.2230  -28.5743   20.7239 C   0  0  0  0  0  0
  -26.0283  -26.8674   19.4891 C   0  0  0  0  0  0
  -24.8719  -27.6714   19.4824 C   0  0  0  0  0  0
  -23.6483  -29.8158   20.1568 C   0  0  0  0  0  0
  -25.4114  -36.3096   24.0330 C   0  0  1  0  0  0
  -20.5915  -28.3720   23.1286 C   0  0  2  0  0  0
  -20.6799  -26.9430   22.5433 C   0  0  0  0  0  0
  -19.5769  -26.6399   21.5247 C   0  0  0  0  0  0
  -18.1944  -26.7959   22.1644 C   0  0  0  0  0  0
  -19.1562  -28.8882   23.2901 C   0  0  0  0  0  0
  -18.9473  -30.1481   23.8915 C   0  0  0  0  0  0
  -17.6466  -30.6607   24.0580 C   0  0  0  0  0  0
  -25.9051  -34.9464   23.5104 C   0  0  0  0  0  0
  -16.5361  -29.9112   23.6332 C   0  0  0  0  0  0
  -16.7293  -28.6534   23.0355 C   0  0  0  0  0  0
  -26.4473  -31.6601   25.0717 C   0  0  0  0  0  0
  -25.3684  -31.3756   26.1431 C   0  0  0  0  0  0
  -27.0310  -30.3021   24.6193 C   0  0  0  0  0  0
  -27.6033  -32.4321   25.7501 C   0  0  0  0  0  0
  -27.5577  -37.1815   24.8472 C   0  0  0  0  0  0
  -21.4207  -29.3057   22.3650 N   0  0  0  0  0  0
  -26.4296  -37.3796   23.9414 N   0  0  0  0  0  0
  -24.6972  -31.0546   22.0955 N   0  0  0  0  0  0
  -23.4203  -28.8164   23.3002 O   0  0  0  0  0  0
  -28.3036  -26.3597   20.1750 O   0  0  0  0  0  0
  -26.5634  -34.8935   22.4678 O   0  0  0  0  0  0
  -23.5459  -32.1373   23.7292 O   0  0  0  0  0  0
  -30.0054  -19.8733   20.6182 C   0  0  0  0  0  0
  -30.9598  -19.2475   21.4174 C   0  0  0  0  0  0
  -29.9994  -17.2658   20.6790 C   0  0  0  0  0  0
  -29.9628  -21.3449   20.2256 C   0  0  0  0  0  0
  -29.1441  -23.8371   20.2213 C   0  0  0  0  0  0
  -27.9667  -25.0800   22.1847 C   0  0  0  0  0  0
  -27.7863  -21.8319   21.1879 C   0  0  0  0  0  0
  -28.0542  -24.9447   20.6496 C   0  0  2  0  0  0
  -30.9485  -17.8295   21.4399 N   0  0  0  0  0  0
  -31.9502  -19.8930   22.1626 N   0  0  0  0  0  0
  -29.7614  -15.8094   20.6200 N   0  0  0  0  0  0
  -28.9966  -22.3357   20.5147 N   0  0  0  0  0  0
  -31.0544  -21.7090   19.5251 N   0  3  0  0  0  0
  -30.1589  -24.2411   19.6345 O   0  0  0  0  0  0
  -28.9904  -18.5700   19.9271 S   0  0  0  0  0  0
  -31.4775  -12.5787   19.1527 H   0  0  0  0  0  0
  -30.3889  -11.4523   19.9192 H   0  0  0  0  0  0
  -29.7833  -11.7531   17.4935 H   0  0  0  0  0  0
  -29.6430  -13.4774   17.7250 H   0  0  0  0  0  0
  -27.8634  -11.2966   18.8573 H   0  0  0  0  0  0
  -27.3816  -12.5846   17.7862 H   0  0  0  0  0  0
  -27.6464  -14.2533   19.4965 H   0  0  0  0  0  0
  -28.7242  -12.1095   21.3941 H   0  0  0  0  0  0
  -28.4342  -13.7761   21.8181 H   0  0  0  0  0  0
  -25.2765   -9.5692   22.4761 H   0  0  0  0  0  0
  -24.0013   -7.4639   22.7473 H   0  0  0  0  0  0
  -21.0844   -8.8775   19.8956 H   0  0  0  0  0  0
  -22.3693  -10.9678   19.6177 H   0  0  0  0  0  0
  -21.2014   -7.6153   23.9721 H   0  0  0  0  0  0
  -21.1476   -6.0525   25.9079 H   0  0  0  0  0  0
  -22.0595   -2.7614   23.2845 H   0  0  0  0  0  0
  -22.4116  -11.9855   22.4787 H   0  0  0  0  0  0
  -21.1115  -13.1232   22.2632 H   0  0  0  0  0  0
  -24.6352  -15.8259   20.5111 H   0  0  0  0  0  0
  -26.2315  -15.6335   20.0034 H   0  0  0  0  0  0
  -26.7195  -32.5438   23.1088 H   0  0  0  0  0  0
  -25.0020  -33.9726   25.0372 H   0  0  0  0  0  0
  -22.7240  -31.3021   21.3985 H   0  0  0  0  0  0
  -23.3753  -35.9611   23.3328 H   0  0  0  0  0  0
  -24.3549  -36.8880   22.2051 H   0  0  0  0  0  0
  -23.7205  -37.6489   23.6650 H   0  0  0  0  0  0
  -26.1093  -31.5295   20.6058 H   0  0  0  0  0  0
  -26.8530  -30.8243   22.0093 H   0  0  0  0  0  0
  -28.1192  -28.9269   21.2157 H   0  0  0  0  0  0
  -25.9770  -25.9135   18.9838 H   0  0  0  0  0  0
  -23.9785  -27.3133   18.9902 H   0  0  0  0  0  0
  -23.7769  -30.5963   19.4049 H   0  0  0  0  0  0
  -22.7644  -29.2552   19.8468 H   0  0  0  0  0  0
  -25.1300  -36.1952   25.0824 H   0  0  0  0  0  0
  -21.0037  -28.3317   24.1400 H   0  0  0  0  0  0
  -20.5722  -26.2316   23.3643 H   0  0  0  0  0  0
  -21.6663  -26.7462   22.1209 H   0  0  0  0  0  0
  -19.6911  -25.6310   21.1277 H   0  0  0  0  0  0
  -19.6721  -27.3212   20.6785 H   0  0  0  0  0  0
  -17.4221  -26.6744   21.4032 H   0  0  0  0  0  0
  -18.0313  -26.0108   22.9039 H   0  0  0  0  0  0
  -19.7939  -30.7325   24.2274 H   0  0  0  0  0  0
  -17.5010  -31.6289   24.5190 H   0  0  0  0  0  0
  -15.5361  -30.3017   23.7647 H   0  0  0  0  0  0
  -15.8699  -28.0862   22.7049 H   0  0  0  0  0  0
  -24.5911  -30.7035   25.7772 H   0  0  0  0  0  0
  -24.8807  -32.2917   26.4771 H   0  0  0  0  0  0
  -25.7999  -30.9019   27.0254 H   0  0  0  0  0  0
  -26.2890  -29.6791   24.1189 H   0  0  0  0  0  0
  -27.3952  -29.7262   25.4705 H   0  0  0  0  0  0
  -27.8780  -30.4305   23.9456 H   0  0  0  0  0  0
  -27.2669  -33.3656   26.2040 H   0  0  0  0  0  0
  -28.3892  -32.6811   25.0352 H   0  0  0  0  0  0
  -28.0646  -31.8443   26.5449 H   0  0  0  0  0  0
  -28.2628  -38.0079   24.7513 H   0  0  0  0  0  0
  -28.1034  -36.2620   24.6323 H   0  0  0  0  0  0
  -27.2291  -37.1491   25.8870 H   0  0  0  0  0  0
  -20.9372  -29.8764   21.6852 H   0  0  0  0  0  0
  -26.0175  -38.2869   24.1404 H   0  0  0  0  0  0
  -28.8521  -25.5772   22.5816 H   0  0  0  0  0  0
  -27.8693  -24.1262   22.7003 H   0  0  0  0  0  0
  -27.1022  -25.6802   22.4708 H   0  0  0  0  0  0
  -27.3804  -20.9961   20.6199 H   0  0  0  0  0  0
  -26.9849  -22.5601   21.2769 H   0  0  0  0  0  0
  -28.0360  -21.4711   22.1857 H   0  0  0  0  0  0
  -27.1010  -24.5819   20.2701 H   0  0  0  0  0  0
  -32.0256  -20.9026   22.2146 H   0  0  0  0  0  0
  -32.5617  -19.3798   22.7879 H   0  0  0  0  0  0
  -28.7872  -15.5572   20.6210 H   0  0  0  0  0  0
  -31.7780  -21.0512   19.2760 H   0  0  0  0  0  0
  -31.1599  -22.6807   19.2426 H   0  0  0  0  0  0
  1 25  1  0  0  0
  1 30  2  0  0  0
  1 81  1  0  0  0
  2  3  1  0  0  0
  2 25  1  0  0  0
  2 86  1  0  0  0
  2 87  1  0  0  0
  3  4  1  0  0  0
  3 88  1  0  0  0
  3 89  1  0  0  0
  4  5  1  0  0  0
  4 90  1  0  0  0
  4 91  1  0  0  0
  5  6  1  0  0  0
  5 26  1  0  0  0
  5 92  1  0  0  0
  6 25  1  0  0  0
  6 93  1  0  0  0
  6 94  1  0  0  0
  7  8  2  0  0  0
  7 26  1  0  0  0
  7 29  1  0  0  0
  8  9  1  0  0  0
  8 22  1  0  0  0
  9 10  1  0  0  0
  9 27  2  0  0  0
 10 11  2  0  0  0
 10 15  1  0  0  0
 11 12  1  0  0  0
 11 95  1  0  0  0
 12 13  2  0  0  0
 12 96  1  0  0  0
 13 14  1  0  0  0
 13 31  1  0  0  0
 14 15  2  0  0  0
 14 97  1  0  0  0
 15 98  1  0  0  0
 16 17  2  0  0  0
 16 21  1  0  0  0
 16 31  1  0  0  0
 17 18  1  0  0  0
 17 99  1  0  0  0
 18 19  2  0  0  0
 18100  1  0  0  0
 19 20  1  0  0  0
 19 24  1  0  0  0
 20 21  2  0  0  0
 20101  1  0  0  0
 21 23  1  0  0  0
 22 28  1  0  0  0
 22 32  2  0  0  0
 26 27  1  0  0  0
 28102  1  0  0  0
 28103  1  0  0  0
 29104  1  0  0  0
 29105  1  0  0  0
 33 34  1  0  0  0
 33 66  1  0  0  0
 33 70  2  0  0  0
 34 36  1  0  0  0
 34 59  1  0  0  0
 34106  1  0  0  0
 35 44  2  0  0  0
 35 45  1  0  0  0
 35 68  1  0  0  0
 36 56  1  0  0  0
 36107  1  0  0  0
 37 39  1  0  0  0
 37 47  1  0  0  0
 37 66  1  0  0  0
 37108  1  0  0  0
 38 43  2  0  0  0
 38 46  1  0  0  0
 38 47  1  0  0  0
 39 64  1  0  0  0
 39 67  2  0  0  0
 40 52  1  0  0  0
 40 53  2  0  0  0
 40 58  1  0  0  0
 41109  1  0  0  0
 41110  1  0  0  0
 41111  1  0  0  0
 41 48  1  0  0  0
 42 43  1  0  0  0
 42 66  1  0  0  0
 42112  1  0  0  0
 42113  1  0  0  0
 43 44  1  0  0  0
 44114  1  0  0  0
 45 46  2  0  0  0
 45115  1  0  0  0
 46116  1  0  0  0
 47117  1  0  0  0
 47118  1  0  0  0
 48 56  1  0  0  0
 48 65  1  0  0  0
 48119  1  0  0  0
 49 50  1  0  0  0
 49 53  1  0  0  0
 49 64  1  0  0  0
 49120  1  0  0  0
 50 51  1  0  0  0
 50121  1  0  0  0
 50122  1  0  0  0
 51 52  1  0  0  0
 51123  1  0  0  0
 51124  1  0  0  0
 52125  1  0  0  0
 52126  1  0  0  0
 53 54  1  0  0  0
 54 55  2  0  0  0
 54127  1  0  0  0
 55 57  1  0  0  0
 55128  1  0  0  0
 56 69  2  0  0  0
 57 58  2  0  0  0
 57129  1  0  0  0
 58130  1  0  0  0
 59 60  1  0  0  0
 59 61  1  0  0  0
 59 62  1  0  0  0
 60131  1  0  0  0
 60132  1  0  0  0
 60133  1  0  0  0
 61134  1  0  0  0
 61135  1  0  0  0
 61136  1  0  0  0
 62137  1  0  0  0
 62138  1  0  0  0
 62139  1  0  0  0
 63 65  1  0  0  0
 63140  1  0  0  0
 63141  1  0  0  0
 63142  1  0  0  0
 64143  1  0  0  0
 65144  1  0  0  0
 68 78  1  0  0  0
 71 72  2  0  0  0
 71 74  1  0  0  0
 71 85  1  0  0  0
 72 79  1  0  0  0
 72 80  1  0  0  0
 73 79  2  0  0  0
 73 81  1  0  0  0
 73 85  1  0  0  0
 74 82  1  0  0  0
 74 83  2  0  0  0
 75 78  1  0  0  0
 75 82  1  0  0  0
 75 84  2  0  0  0
 76145  1  0  0  0
 76146  1  0  0  0
 76147  1  0  0  0
 76 78  1  0  0  0
 77 82  1  0  0  0
 77148  1  0  0  0
 77149  1  0  0  0
 77150  1  0  0  0
 78151  1  0  0  0
 80152  1  0  0  0
 80153  1  0  0  0
 81154  1  0  0  0
 83155  1  0  0  0
 83156  1  0  0  0
M  CHG  1  83   1
M  ISO  4   1 100  68 101  78 101  81 100
M  END
> <chiral flag>
0

> <version>
0

> <s_m_source_file>
/data/baiqing/PycharmProjects/Reinvent-master-3.2/result/LINK_invent/BTK/process_docking_weight1_custom_product_contain_oxygen_bond_distance_aromatic_linkinvent_7_9_3/rearranged_h_0179.sdf

> <i_m_source_file_index>
25

> <r_mmod_Potential_Energy-OPLS-2005>
73.8390121459961

> <r_mmod_Stretch_Energy-OPLS-2005>
129.718566894531

> <r_mmod_Bend_Energy-OPLS-2005>
181.344772338867

> <r_mmod_Torsional_Energy-OPLS-2005>
269.239532470703

> <r_mmod_Improper_Torsional_Energy-OPLS-2005>
8.22408676147461

> <r_mmod_Van_der_Waal_Energy-OPLS-2005>
128.073318481445

> <r_mmod_Electrostatic_Energy-OPLS-2005>
-242.28581237793

> <r_mmod_Solvation_Energy-OPLS-2005>
-479

> <b_mmod_Minimization_Converged-OPLS-2005>
0

> <r_mmod_RMS_Derivative-OPLS-2005>
1.92333972454071

$$$$
25
                    3D
 Structure written by MMmdl.
166174  0  0  1  0            999 V2000
  -30.7441  -14.4052   20.6232 C   0  0  0  0  0  0
  -30.4106  -12.2834   19.4090 C   0  0  0  0  0  0
  -29.4853  -12.5128   18.1987 C   0  0  0  0  0  0
  -28.0069  -12.3812   18.6108 C   0  0  0  0  0  0
  -27.6630  -13.2064   19.8793 C   0  0  2  0  0  0
  -28.7034  -12.9625   20.9967 C   0  0  0  0  0  0
  -25.2588  -13.8167   20.5680 C   0  0  0  0  0  0
  -24.1835  -13.0445   20.9174 C   0  0  0  0  0  0
  -24.6390  -11.6911   20.8737 C   0  0  0  0  0  0
  -23.9059  -10.4296   21.0402 C   0  0  0  0  0  0
  -24.3609   -9.4211   21.9184 C   0  0  0  0  0  0
  -23.6288   -8.2242   22.0755 C   0  0  0  0  0  0
  -22.4272   -8.0280   21.3540 C   0  0  0  0  0  0
  -21.9901   -9.0251   20.4642 C   0  0  0  0  0  0
  -22.7229  -10.2135   20.3050 C   0  0  0  0  0  0
  -21.6854   -6.0732   22.5283 C   0  0  0  0  0  0
  -21.4015   -6.5638   23.8212 C   0  0  0  0  0  0
  -21.3658   -5.6792   24.9176 C   0  0  0  0  0  0
  -21.6041   -4.3052   24.7230 C   0  0  0  0  0  0
  -21.8819   -3.8146   23.4350 C   0  0  0  0  0  0
  -21.9191   -4.6962   22.3407 C   0  0  0  0  0  0
  -22.7857  -13.5241   21.1841 C   0  0  0  0  0  0
  -22.1659   -4.2143   21.0983 F   0  0  0  0  0  0
  -21.5628   -3.4544   25.7742 F   0  0  0  0  0  0
  -30.0403  -13.2548   20.4497 N   0  0  0  0  0  0
  -26.3027  -12.9336   20.3386 N   0  0  0  0  0  0
  -25.9320  -11.6499   20.5782 N   0  0  0  0  0  0
  -22.0496  -12.8226   22.0393 N   0  0  0  0  0  0
  -25.4331  -15.1880   20.4077 N   0  0  0  0  0  0
  -31.8303  -14.6047   20.0698 O   0  0  0  0  0  0
  -21.6636   -6.8877   21.4241 O   0  0  0  0  0  0
  -22.3547  -14.5555   20.6708 O   0  0  0  0  0  0
  -24.6123  -31.8682   23.2106 C   0  0  0  0  0  0
  -25.9030  -32.4823   23.8384 C   0  0  1  0  0  0
  -27.2394  -27.4556   20.0714 C   0  0  0  0  0  0
  -25.5897  -33.8623   24.2327 N   0  0  0  0  0  0
  -23.3979  -30.4905   21.5533 C   0  0  2  0  0  0
  -24.8398  -28.9542   20.1201 C   0  0  0  0  0  0
  -22.7392  -29.4647   22.5032 C   0  0  0  0  0  0
  -18.0259  -28.1373   22.8470 C   0  0  0  0  0  0
  -24.1482  -36.7312   23.2641 C   0  0  0  0  0  0
  -25.9231  -30.8394   21.3563 C   0  0  0  0  0  0
  -25.9992  -29.4725   20.7068 C   0  0  0  0  0  0
  -27.1985  -28.7295   20.6796 C   0  0  0  0  0  0
  -26.0544  -26.9384   19.4974 C   0  0  0  0  0  0
  -24.8605  -27.6843   19.5185 C   0  0  0  0  0  0
  -23.6011  -29.8195   20.1690 C   0  0  0  0  0  0
  -25.4105  -36.3117   24.0347 C   0  0  1  0  0  0
  -20.5840  -28.3638   23.1341 C   0  0  2  0  0  0
  -20.6748  -26.9384   22.5425 C   0  0  0  0  0  0
  -19.5744  -26.6387   21.5206 C   0  0  0  0  0  0
  -18.1911  -26.7926   22.1602 C   0  0  0  0  0  0
  -19.1506  -28.8821   23.2892 C   0  0  0  0  0  0
  -18.9450  -30.1424   23.8904 C   0  0  0  0  0  0
  -17.6458  -30.6574   24.0566 C   0  0  0  0  0  0
  -25.9046  -34.9479   23.5139 C   0  0  0  0  0  0
  -16.5338  -29.9083   23.6333 C   0  0  0  0  0  0
  -16.7252  -28.6502   23.0337 C   0  0  0  0  0  0
  -26.4462  -31.6587   25.0703 C   0  0  0  0  0  0
  -25.3740  -31.3670   26.1462 C   0  0  0  0  0  0
  -27.0289  -30.3050   24.6019 C   0  0  0  0  0  0
  -27.6038  -32.4294   25.7468 C   0  0  0  0  0  0
  -27.5576  -37.1806   24.8471 C   0  0  0  0  0  0
  -21.4129  -29.3004   22.3757 N   0  0  0  0  0  0
  -26.4288  -37.3800   23.9414 N   0  0  0  0  0  0
  -24.6635  -31.0792   22.0996 N   0  0  0  0  0  0
  -23.4176  -28.8184   23.3067 O   0  0  0  0  0  0
  -28.4570  -26.8082   20.0320 O   0  0  0  0  0  0
  -26.5602  -34.8932   22.4702 O   0  0  0  0  0  0
  -23.5322  -32.1421   23.7512 O   0  0  0  0  0  0
  -30.8989  -19.1221   21.6707 C   0  0  0  0  0  0
  -32.0392  -18.3792   21.9115 C   0  0  0  0  0  0
  -30.5706  -16.6827   21.5397 C   0  0  0  0  0  0
  -30.6611  -20.5831   21.5670 C   0  0  0  0  0  0
  -28.4899  -24.6625   21.1849 C   0  0  0  0  0  0
  -28.0237  -22.1449   26.1724 C   0  0  0  0  0  0
  -30.3726  -22.4150   25.2962 C   0  0  0  0  0  0
  -28.5579  -23.1244   21.1578 C   0  0  0  0  0  0
  -28.5203  -25.3907   19.8344 C   0  0  0  0  0  0
  -28.3574  -22.5371   23.6921 C   0  0  0  0  0  0
  -29.2158  -22.4568   22.3972 C   0  0  1  0  0  0
  -28.9561  -21.9081   24.9758 C   0  0  0  0  0  0
  -31.8308  -17.0006   21.8583 N   0  0  0  0  0  0
  -33.3246  -18.8427   22.2019 N   0  0  0  0  0  0
  -30.1356  -15.3456   21.3636 N   0  0  0  0  0  0
  -29.5316  -21.0526   22.1143 N   0  0  0  0  0  0
  -31.5028  -21.3276   21.0599 O   0  0  0  0  0  0
  -28.4265  -25.2969   22.2422 O   0  0  0  0  0  0
  -29.0220  -20.5848   24.8160 F   0  0  0  0  0  0
  -29.5154  -18.0785   21.3821 S   0  0  0  0  0  0
  -31.4570  -12.3630   19.1086 H   0  0  0  0  0  0
  -30.2928  -11.2687   19.7915 H   0  0  0  0  0  0
  -29.7155  -11.7998   17.4055 H   0  0  0  0  0  0
  -29.6626  -13.5043   17.7798 H   0  0  0  0  0  0
  -27.8036  -11.3245   18.7898 H   0  0  0  0  0  0
  -27.3590  -12.6768   17.7846 H   0  0  0  0  0  0
  -27.7154  -14.2588   19.5992 H   0  0  0  0  0  0
  -28.6694  -11.9215   21.3221 H   0  0  0  0  0  0
  -28.4643  -13.5469   21.8860 H   0  0  0  0  0  0
  -25.2756   -9.5685   22.4757 H   0  0  0  0  0  0
  -23.9998   -7.4634   22.7472 H   0  0  0  0  0  0
  -21.0838   -8.8769   19.8947 H   0  0  0  0  0  0
  -22.3694  -10.9669   19.6152 H   0  0  0  0  0  0
  -21.2008   -7.6146   23.9714 H   0  0  0  0  0  0
  -21.1479   -6.0523   25.9075 H   0  0  0  0  0  0
  -22.0599   -2.7608   23.2857 H   0  0  0  0  0  0
  -22.4106  -11.9867   22.4748 H   0  0  0  0  0  0
  -21.1112  -13.1246   22.2609 H   0  0  0  0  0  0
  -24.6701  -15.8481   20.5094 H   0  0  0  0  0  0
  -26.2873  -15.6210   20.0795 H   0  0  0  0  0  0
  -26.7096  -32.5542   23.1141 H   0  0  0  0  0  0
  -25.0054  -33.9778   25.0470 H   0  0  0  0  0  0
  -22.6867  -31.3071   21.4144 H   0  0  0  0  0  0
  -23.3748  -35.9637   23.3325 H   0  0  0  0  0  0
  -24.3576  -36.8915   22.2052 H   0  0  0  0  0  0
  -23.7231  -37.6519   23.6636 H   0  0  0  0  0  0
  -26.0245  -31.6011   20.5817 H   0  0  0  0  0  0
  -26.8161  -30.8994   21.9666 H   0  0  0  0  0  0
  -28.1014  -29.1338   21.1166 H   0  0  0  0  0  0
  -26.0263  -25.9806   19.0039 H   0  0  0  0  0  0
  -23.9685  -27.2779   19.0627 H   0  0  0  0  0  0
  -23.7050  -30.5915   19.4068 H   0  0  0  0  0  0
  -22.7250  -29.2369   19.8781 H   0  0  0  0  0  0
  -25.1271  -36.1989   25.0837 H   0  0  0  0  0  0
  -20.9905  -28.3187   24.1478 H   0  0  0  0  0  0
  -20.5658  -26.2231   23.3584 H   0  0  0  0  0  0
  -21.6623  -26.7442   22.1212 H   0  0  0  0  0  0
  -19.6929  -25.6314   21.1197 H   0  0  0  0  0  0
  -19.6714  -27.3223   20.6754 H   0  0  0  0  0  0
  -17.4192  -26.6666   21.3994 H   0  0  0  0  0  0
  -18.0307  -26.0061   22.8988 H   0  0  0  0  0  0
  -19.7930  -30.7217   24.2288 H   0  0  0  0  0  0
  -17.5025  -31.6270   24.5150 H   0  0  0  0  0  0
  -15.5340  -30.2992   23.7676 H   0  0  0  0  0  0
  -15.8642  -28.0841   22.7049 H   0  0  0  0  0  0
  -24.5939  -30.6991   25.7810 H   0  0  0  0  0  0
  -24.8888  -32.2808   26.4901 H   0  0  0  0  0  0
  -25.8112  -30.8859   27.0225 H   0  0  0  0  0  0
  -26.2811  -29.6825   24.1094 H   0  0  0  0  0  0
  -27.4148  -29.7264   25.4415 H   0  0  0  0  0  0
  -27.8593  -30.4421   23.9088 H   0  0  0  0  0  0
  -27.2676  -33.3596   26.2055 H   0  0  0  0  0  0
  -28.3840  -32.6860   25.0292 H   0  0  0  0  0  0
  -28.0706  -31.8414   26.5379 H   0  0  0  0  0  0
  -28.2595  -38.0094   24.7508 H   0  0  0  0  0  0
  -28.1067  -36.2631   24.6299 H   0  0  0  0  0  0
  -27.2295  -37.1466   25.8873 H   0  0  0  0  0  0
  -20.9293  -29.8740   21.6981 H   0  0  0  0  0  0
  -26.0192  -38.2883   24.1423 H   0  0  0  0  0  0
  -27.9625  -23.2039   26.4258 H   0  0  0  0  0  0
  -28.3765  -21.6147   27.0574 H   0  0  0  0  0  0
  -27.0119  -21.7965   25.9630 H   0  0  0  0  0  0
  -30.3921  -23.4998   25.4040 H   0  0  0  0  0  0
  -31.0887  -22.1466   24.5195 H   0  0  0  0  0  0
  -30.7419  -21.9838   26.2272 H   0  0  0  0  0  0
  -29.1254  -22.8562   20.2660 H   0  0  0  0  0  0
  -27.5527  -22.7301   21.0095 H   0  0  0  0  0  0
  -27.7621  -24.9977   19.1610 H   0  0  0  0  0  0
  -29.4784  -25.1707   19.3638 H   0  0  0  0  0  0
  -27.3843  -22.0846   23.4981 H   0  0  0  0  0  0
  -28.1423  -23.5774   23.9268 H   0  0  0  0  0  0
  -30.1520  -22.9858   22.5848 H   0  0  0  0  0  0
  -33.5554  -19.8164   22.0309 H   0  0  0  0  0  0
  -34.1123  -18.2049   22.1625 H   0  0  0  0  0  0
  -29.1972  -15.1305   21.6591 H   0  0  0  0  0  0
  -28.9331  -20.3634   22.5496 H   0  0  0  0  0  0
  1 25  1  0  0  0
  1 30  2  0  0  0
  1 85  1  0  0  0
  2  3  1  0  0  0
  2 25  1  0  0  0
  2 91  1  0  0  0
  2 92  1  0  0  0
  3  4  1  0  0  0
  3 93  1  0  0  0
  3 94  1  0  0  0
  4  5  1  0  0  0
  4 95  1  0  0  0
  4 96  1  0  0  0
  5  6  1  0  0  0
  5 26  1  0  0  0
  5 97  1  0  0  0
  6 25  1  0  0  0
  6 98  1  0  0  0
  6 99  1  0  0  0
  7  8  2  0  0  0
  7 26  1  0  0  0
  7 29  1  0  0  0
  8  9  1  0  0  0
  8 22  1  0  0  0
  9 10  1  0  0  0
  9 27  2  0  0  0
 10 11  2  0  0  0
 10 15  1  0  0  0
 11 12  1  0  0  0
 11100  1  0  0  0
 12 13  2  0  0  0
 12101  1  0  0  0
 13 14  1  0  0  0
 13 31  1  0  0  0
 14 15  2  0  0  0
 14102  1  0  0  0
 15103  1  0  0  0
 16 17  2  0  0  0
 16 21  1  0  0  0
 16 31  1  0  0  0
 17 18  1  0  0  0
 17104  1  0  0  0
 18 19  2  0  0  0
 18105  1  0  0  0
 19 20  1  0  0  0
 19 24  1  0  0  0
 20 21  2  0  0  0
 20106  1  0  0  0
 21 23  1  0  0  0
 22 28  1  0  0  0
 22 32  2  0  0  0
 26 27  1  0  0  0
 28107  1  0  0  0
 28108  1  0  0  0
 29109  1  0  0  0
 29110  1  0  0  0
 33 34  1  0  0  0
 33 66  1  0  0  0
 33 70  2  0  0  0
 34 36  1  0  0  0
 34 59  1  0  0  0
 34111  1  0  0  0
 35 44  2  0  0  0
 35 45  1  0  0  0
 35 68  1  0  0  0
 36 56  1  0  0  0
 36112  1  0  0  0
 37 39  1  0  0  0
 37 47  1  0  0  0
 37 66  1  0  0  0
 37113  1  0  0  0
 38 43  2  0  0  0
 38 46  1  0  0  0
 38 47  1  0  0  0
 39 64  1  0  0  0
 39 67  2  0  0  0
 40 52  1  0  0  0
 40 53  2  0  0  0
 40 58  1  0  0  0
 41114  1  0  0  0
 41115  1  0  0  0
 41116  1  0  0  0
 41 48  1  0  0  0
 42 43  1  0  0  0
 42 66  1  0  0  0
 42117  1  0  0  0
 42118  1  0  0  0
 43 44  1  0  0  0
 44119  1  0  0  0
 45 46  2  0  0  0
 45120  1  0  0  0
 46121  1  0  0  0
 47122  1  0  0  0
 47123  1  0  0  0
 48 56  1  0  0  0
 48 65  1  0  0  0
 48124  1  0  0  0
 49 50  1  0  0  0
 49 53  1  0  0  0
 49 64  1  0  0  0
 49125  1  0  0  0
 50 51  1  0  0  0
 50126  1  0  0  0
 50127  1  0  0  0
 51 52  1  0  0  0
 51128  1  0  0  0
 51129  1  0  0  0
 52130  1  0  0  0
 52131  1  0  0  0
 53 54  1  0  0  0
 54 55  2  0  0  0
 54132  1  0  0  0
 55 57  1  0  0  0
 55133  1  0  0  0
 56 69  2  0  0  0
 57 58  2  0  0  0
 57134  1  0  0  0
 58135  1  0  0  0
 59 60  1  0  0  0
 59 61  1  0  0  0
 59 62  1  0  0  0
 60136  1  0  0  0
 60137  1  0  0  0
 60138  1  0  0  0
 61139  1  0  0  0
 61140  1  0  0  0
 61141  1  0  0  0
 62142  1  0  0  0
 62143  1  0  0  0
 62144  1  0  0  0
 63 65  1  0  0  0
 63145  1  0  0  0
 63146  1  0  0  0
 63147  1  0  0  0
 64148  1  0  0  0
 65149  1  0  0  0
 68 79  1  0  0  0
 71 72  2  0  0  0
 71 74  1  0  0  0
 71 90  1  0  0  0
 72 83  1  0  0  0
 72 84  1  0  0  0
 73 83  2  0  0  0
 73 85  1  0  0  0
 73 90  1  0  0  0
 74 86  1  0  0  0
 74 87  2  0  0  0
 75 78  1  0  0  0
 75 79  1  0  0  0
 75 88  2  0  0  0
 76150  1  0  0  0
 76151  1  0  0  0
 76152  1  0  0  0
 76 82  1  0  0  0
 77 82  1  0  0  0
 77153  1  0  0  0
 77154  1  0  0  0
 77155  1  0  0  0
 78156  1  0  0  0
 78157  1  0  0  0
 78 81  1  0  0  0
 79158  1  0  0  0
 79159  1  0  0  0
 80 81  1  0  0  0
 80 82  1  0  0  0
 80160  1  0  0  0
 80161  1  0  0  0
 81 86  1  0  0  0
 81162  1  0  0  0
 82 89  1  0  0  0
 84163  1  0  0  0
 84164  1  0  0  0
 85165  1  0  0  0
 86166  1  0  0  0
M  ISO  4   1 100  68 101  79 101  85 100
M  END
> <chiral flag>
0

> <version>
0

> <s_m_source_file>
/data/baiqing/PycharmProjects/Reinvent-master-3.2/result/LINK_invent/BTK/process_docking_weight1_custom_product_contain_oxygen_bond_distance_aromatic_linkinvent_7_9_3/rearranged_h_0179.sdf

> <i_m_source_file_index>
26

> <r_mmod_Potential_Energy-OPLS-2005>
-138.104522705078

> <r_mmod_Stretch_Energy-OPLS-2005>
34.844799041748

> <r_mmod_Bend_Energy-OPLS-2005>
112.231506347656

> <r_mmod_Torsional_Energy-OPLS-2005>
232.870971679688

> <r_mmod_Improper_Torsional_Energy-OPLS-2005>
5.59602832794189

> <r_mmod_Van_der_Waal_Energy-OPLS-2005>
135.903045654297

> <r_mmod_Electrostatic_Energy-OPLS-2005>
-408.045928955078

> <r_mmod_Solvation_Energy-OPLS-2005>
-260.602752685547

> <b_mmod_Minimization_Converged-OPLS-2005>
0

> <r_mmod_RMS_Derivative-OPLS-2005>
2.06154346466064

$$$$
26
                    3D
 Structure written by MMmdl.
156164  0  0  1  0            999 V2000
  -30.7688  -14.4154   20.6125 C   0  0  0  0  0  0
  -30.4108  -12.2893   19.4262 C   0  0  0  0  0  0
  -29.5007  -12.5497   18.2133 C   0  0  0  0  0  0
  -28.0210  -12.3757   18.6112 C   0  0  0  0  0  0
  -27.6629  -13.1759   19.8919 C   0  0  2  0  0  0
  -28.7108  -12.9893   21.0167 C   0  0  0  0  0  0
  -25.2591  -13.8014   20.5705 C   0  0  0  0  0  0
  -24.1803  -13.0346   20.9180 C   0  0  0  0  0  0
  -24.6342  -11.6802   20.8774 C   0  0  0  0  0  0
  -23.8998  -10.4223   21.0426 C   0  0  0  0  0  0
  -24.3558   -9.4147   21.9199 C   0  0  0  0  0  0
  -23.6237   -8.2194   22.0774 C   0  0  0  0  0  0
  -22.4230   -8.0250   21.3555 C   0  0  0  0  0  0
  -21.9852   -9.0229   20.4665 C   0  0  0  0  0  0
  -22.7182  -10.2091   20.3055 C   0  0  0  0  0  0
  -21.6827   -6.0702   22.5288 C   0  0  0  0  0  0
  -21.3996   -6.5606   23.8226 C   0  0  0  0  0  0
  -21.3643   -5.6753   24.9190 C   0  0  0  0  0  0
  -21.6055   -4.3028   24.7238 C   0  0  0  0  0  0
  -21.8822   -3.8121   23.4365 C   0  0  0  0  0  0
  -21.9168   -4.6929   22.3416 C   0  0  0  0  0  0
  -22.7818  -13.5201   21.1817 C   0  0  0  0  0  0
  -22.1649   -4.2126   21.0996 F   0  0  0  0  0  0
  -21.5624   -3.4513   25.7753 F   0  0  0  0  0  0
  -30.0474  -13.2692   20.4630 N   0  0  0  0  0  0
  -26.3021  -12.9106   20.3460 N   0  0  0  0  0  0
  -25.9264  -11.6310   20.5801 N   0  0  0  0  0  0
  -22.0380  -12.8267   22.0385 N   0  0  0  0  0  0
  -25.4335  -15.1718   20.4093 N   0  0  0  0  0  0
  -31.8433  -14.5982   20.0412 O   0  0  0  0  0  0
  -21.6597   -6.8845   21.4256 O   0  0  0  0  0  0
  -22.3543  -14.5493   20.6600 O   0  0  0  0  0  0
  -24.6130  -31.8683   23.2119 C   0  0  0  0  0  0
  -25.9062  -32.4811   23.8399 C   0  0  1  0  0  0
  -27.2241  -27.4562   20.0891 C   0  0  0  0  0  0
  -25.5878  -33.8612   24.2303 N   0  0  0  0  0  0
  -23.3986  -30.4934   21.5520 C   0  0  2  0  0  0
  -24.8442  -28.9633   20.1140 C   0  0  0  0  0  0
  -22.7387  -29.4680   22.5023 C   0  0  0  0  0  0
  -18.0226  -28.1378   22.8466 C   0  0  0  0  0  0
  -24.1477  -36.7324   23.2633 C   0  0  0  0  0  0
  -25.9260  -30.8389   21.3658 C   0  0  0  0  0  0
  -26.0012  -29.4752   20.7160 C   0  0  0  0  0  0
  -27.1990  -28.7237   20.7103 C   0  0  0  0  0  0
  -26.0587  -26.9549   19.4827 C   0  0  0  0  0  0
  -24.8646  -27.6999   19.4966 C   0  0  0  0  0  0
  -23.6033  -29.8234   20.1676 C   0  0  0  0  0  0
  -25.4089  -36.3099   24.0334 C   0  0  1  0  0  0
  -20.5825  -28.3676   23.1307 C   0  0  2  0  0  0
  -20.6734  -26.9409   22.5417 C   0  0  0  0  0  0
  -19.5731  -26.6384   21.5182 C   0  0  0  0  0  0
  -18.1894  -26.7933   22.1557 C   0  0  0  0  0  0
  -19.1485  -28.8834   23.2875 C   0  0  0  0  0  0
  -18.9420  -30.1430   23.8916 C   0  0  0  0  0  0
  -17.6439  -30.6601   24.0537 C   0  0  0  0  0  0
  -25.9032  -34.9477   23.5125 C   0  0  0  0  0  0
  -16.5315  -29.9091   23.6343 C   0  0  0  0  0  0
  -16.7221  -28.6491   23.0371 C   0  0  0  0  0  0
  -26.4468  -31.6594   25.0751 C   0  0  0  0  0  0
  -25.3708  -31.3732   26.1496 C   0  0  0  0  0  0
  -27.0285  -30.3004   24.6177 C   0  0  0  0  0  0
  -27.6065  -32.4299   25.7495 C   0  0  0  0  0  0
  -27.5599  -37.1746   24.8407 C   0  0  0  0  0  0
  -21.4116  -29.3034   22.3736 N   0  0  0  0  0  0
  -26.4239  -37.3814   23.9466 N   0  0  0  0  0  0
  -24.6642  -31.0810   22.1007 N   0  0  0  0  0  0
  -23.4181  -28.8242   23.3070 O   0  0  0  0  0  0
  -28.3601  -26.6924   20.0233 O   0  0  0  0  0  0
  -26.5629  -34.8945   22.4697 O   0  0  0  0  0  0
  -23.5334  -32.1447   23.7513 O   0  0  0  0  0  0
  -28.5403  -19.4140   20.2940 C   0  0  0  0  0  0
  -29.2432  -18.1738   20.1809 C   0  0  0  0  0  0
  -29.9770  -17.8807   21.3126 C   0  0  0  0  0  0
  -28.8571  -20.1437   21.4158 C   0  0  0  0  0  0
  -28.1492  -23.7896   21.6512 C   0  0  0  0  0  0
  -28.1214  -22.4100   20.9467 C   0  0  0  0  0  0
  -30.8495  -16.6918   21.6248 C   0  0  0  0  0  0
  -29.2430  -24.7646   21.1820 C   0  0  0  0  0  0
  -28.8924  -26.2665   21.2724 C   0  0  0  0  0  0
  -29.1860  -17.3200   18.9441 C   0  0  0  0  0  0
  -28.5169  -21.4138   21.7624 N   0  0  0  0  0  0
  -30.2287  -15.3805   21.3737 N   0  0  0  0  0  0
  -27.3852  -24.0638   22.5847 O   0  0  0  0  0  0
  -27.7492  -22.2760   19.7757 O   0  0  0  0  0  0
  -28.5997  -17.9496   17.9263 F   0  0  0  0  0  0
  -30.4071  -16.9633   18.5395 F   0  0  0  0  0  0
  -28.4855  -16.2201   19.1647 F   0  0  0  0  0  0
  -29.8840  -19.1939   22.4608 S   0  0  0  0  0  0
  -31.4614  -12.3434   19.1371 H   0  0  0  0  0  0
  -30.2653  -11.2742   19.8016 H   0  0  0  0  0  0
  -29.7650  -11.8893   17.3864 H   0  0  0  0  0  0
  -29.6710  -13.5668   17.8562 H   0  0  0  0  0  0
  -27.8315  -11.3122   18.7567 H   0  0  0  0  0  0
  -27.3771  -12.6956   17.7905 H   0  0  0  0  0  0
  -27.6814  -14.2123   19.6026 H   0  0  0  0  0  0
  -28.6843  -11.9669   21.4026 H   0  0  0  0  0  0
  -28.4636  -13.6234   21.8682 H   0  0  0  0  0  0
  -25.2720   -9.5614   22.4737 H   0  0  0  0  0  0
  -23.9959   -7.4572   22.7472 H   0  0  0  0  0  0
  -21.0794   -8.8744   19.8968 H   0  0  0  0  0  0
  -22.3679  -10.9614   19.6134 H   0  0  0  0  0  0
  -21.2000   -7.6106   23.9722 H   0  0  0  0  0  0
  -21.1442   -6.0483   25.9087 H   0  0  0  0  0  0
  -22.0600   -2.7580   23.2861 H   0  0  0  0  0  0
  -22.3867  -11.9914   22.4861 H   0  0  0  0  0  0
  -21.1016  -13.1398   22.2535 H   0  0  0  0  0  0
  -24.6634  -15.8250   20.4988 H   0  0  0  0  0  0
  -26.2981  -15.6068   20.1156 H   0  0  0  0  0  0
  -26.7153  -32.5536   23.1184 H   0  0  0  0  0  0
  -24.9934  -33.9749   25.0374 H   0  0  0  0  0  0
  -22.6860  -31.3090   21.4140 H   0  0  0  0  0  0
  -23.3781  -35.9600   23.3167 H   0  0  0  0  0  0
  -24.3599  -36.9084   22.2074 H   0  0  0  0  0  0
  -23.7184  -37.6462   23.6745 H   0  0  0  0  0  0
  -26.0370  -31.6093   20.6016 H   0  0  0  0  0  0
  -26.8140  -30.8867   21.9849 H   0  0  0  0  0  0
  -28.0970  -29.1147   21.1661 H   0  0  0  0  0  0
  -26.0734  -25.9835   19.0089 H   0  0  0  0  0  0
  -23.9752  -27.3014   19.0291 H   0  0  0  0  0  0
  -23.6932  -30.5938   19.3980 H   0  0  0  0  0  0
  -22.7325  -29.2290   19.8878 H   0  0  0  0  0  0
  -25.1238  -36.1909   25.0814 H   0  0  0  0  0  0
  -20.9862  -28.3251   24.1438 H   0  0  0  0  0  0
  -20.5582  -26.2287   23.3608 H   0  0  0  0  0  0
  -21.6611  -26.7441   22.1262 H   0  0  0  0  0  0
  -19.6918  -25.6283   21.1240 H   0  0  0  0  0  0
  -19.6714  -27.3171   20.6702 H   0  0  0  0  0  0
  -17.4179  -26.6682   21.3932 H   0  0  0  0  0  0
  -18.0280  -26.0052   22.8935 H   0  0  0  0  0  0
  -19.7911  -30.7181   24.2350 H   0  0  0  0  0  0
  -17.5019  -31.6307   24.5094 H   0  0  0  0  0  0
  -15.5320  -30.2987   23.7696 H   0  0  0  0  0  0
  -15.8606  -28.0799   22.7139 H   0  0  0  0  0  0
  -24.5868  -30.7090   25.7831 H   0  0  0  0  0  0
  -24.8899  -32.2896   26.4920 H   0  0  0  0  0  0
  -25.8016  -30.8907   27.0274 H   0  0  0  0  0  0
  -26.2839  -29.6785   24.1200 H   0  0  0  0  0  0
  -27.3962  -29.7232   25.4668 H   0  0  0  0  0  0
  -27.8722  -30.4254   23.9389 H   0  0  0  0  0  0
  -27.2707  -33.3586   26.2110 H   0  0  0  0  0  0
  -28.3834  -32.6875   25.0287 H   0  0  0  0  0  0
  -28.0806  -31.8419   26.5352 H   0  0  0  0  0  0
  -28.2450  -38.0205   24.7701 H   0  0  0  0  0  0
  -28.1231  -36.2757   24.5852 H   0  0  0  0  0  0
  -27.2379  -37.0981   25.8806 H   0  0  0  0  0  0
  -20.9311  -29.8679   21.6881 H   0  0  0  0  0  0
  -26.0115  -38.2839   24.1632 H   0  0  0  0  0  0
  -27.8786  -19.7509   19.5090 H   0  0  0  0  0  0
  -31.1435  -16.7238   22.6739 H   0  0  0  0  0  0
  -31.7902  -16.8048   21.0787 H   0  0  0  0  0  0
  -29.5396  -24.5145   20.1636 H   0  0  0  0  0  0
  -30.1179  -24.5710   21.8003 H   0  0  0  0  0  0
  -29.7977  -26.8432   21.4638 H   0  0  0  0  0  0
  -28.2235  -26.4749   22.1096 H   0  0  0  0  0  0
  -28.7449  -21.7037   22.7057 H   0  0  0  0  0  0
  -29.3586  -15.1749   21.8391 H   0  0  0  0  0  0
  1 25  1  0  0  0
  1 30  2  0  0  0
  1 82  1  0  0  0
  2  3  1  0  0  0
  2 25  1  0  0  0
  2 89  1  0  0  0
  2 90  1  0  0  0
  3  4  1  0  0  0
  3 91  1  0  0  0
  3 92  1  0  0  0
  4  5  1  0  0  0
  4 93  1  0  0  0
  4 94  1  0  0  0
  5  6  1  0  0  0
  5 26  1  0  0  0
  5 95  1  0  0  0
  6 25  1  0  0  0
  6 96  1  0  0  0
  6 97  1  0  0  0
  7  8  2  0  0  0
  7 26  1  0  0  0
  7 29  1  0  0  0
  8  9  1  0  0  0
  8 22  1  0  0  0
  9 10  1  0  0  0
  9 27  2  0  0  0
 10 11  2  0  0  0
 10 15  1  0  0  0
 11 12  1  0  0  0
 11 98  1  0  0  0
 12 13  2  0  0  0
 12 99  1  0  0  0
 13 14  1  0  0  0
 13 31  1  0  0  0
 14 15  2  0  0  0
 14100  1  0  0  0
 15101  1  0  0  0
 16 17  2  0  0  0
 16 21  1  0  0  0
 16 31  1  0  0  0
 17 18  1  0  0  0
 17102  1  0  0  0
 18 19  2  0  0  0
 18103  1  0  0  0
 19 20  1  0  0  0
 19 24  1  0  0  0
 20 21  2  0  0  0
 20104  1  0  0  0
 21 23  1  0  0  0
 22 28  1  0  0  0
 22 32  2  0  0  0
 26 27  1  0  0  0
 28105  1  0  0  0
 28106  1  0  0  0
 29107  1  0  0  0
 29108  1  0  0  0
 33 34  1  0  0  0
 33 66  1  0  0  0
 33 70  2  0  0  0
 34 36  1  0  0  0
 34 59  1  0  0  0
 34109  1  0  0  0
 35 44  2  0  0  0
 35 45  1  0  0  0
 35 68  1  0  0  0
 36 56  1  0  0  0
 36110  1  0  0  0
 37 39  1  0  0  0
 37 47  1  0  0  0
 37 66  1  0  0  0
 37111  1  0  0  0
 38 43  2  0  0  0
 38 46  1  0  0  0
 38 47  1  0  0  0
 39 64  1  0  0  0
 39 67  2  0  0  0
 40 52  1  0  0  0
 40 53  2  0  0  0
 40 58  1  0  0  0
 41112  1  0  0  0
 41113  1  0  0  0
 41114  1  0  0  0
 41 48  1  0  0  0
 42 43  1  0  0  0
 42 66  1  0  0  0
 42115  1  0  0  0
 42116  1  0  0  0
 43 44  1  0  0  0
 44117  1  0  0  0
 45 46  2  0  0  0
 45118  1  0  0  0
 46119  1  0  0  0
 47120  1  0  0  0
 47121  1  0  0  0
 48 56  1  0  0  0
 48 65  1  0  0  0
 48122  1  0  0  0
 49 50  1  0  0  0
 49 53  1  0  0  0
 49 64  1  0  0  0
 49123  1  0  0  0
 50 51  1  0  0  0
 50124  1  0  0  0
 50125  1  0  0  0
 51 52  1  0  0  0
 51126  1  0  0  0
 51127  1  0  0  0
 52128  1  0  0  0
 52129  1  0  0  0
 53 54  1  0  0  0
 54 55  2  0  0  0
 54130  1  0  0  0
 55 57  1  0  0  0
 55131  1  0  0  0
 56 69  2  0  0  0
 57 58  2  0  0  0
 57132  1  0  0  0
 58133  1  0  0  0
 59 60  1  0  0  0
 59 61  1  0  0  0
 59 62  1  0  0  0
 60134  1  0  0  0
 60135  1  0  0  0
 60136  1  0  0  0
 61137  1  0  0  0
 61138  1  0  0  0
 61139  1  0  0  0
 62140  1  0  0  0
 62141  1  0  0  0
 62142  1  0  0  0
 63 65  1  0  0  0
 63143  1  0  0  0
 63144  1  0  0  0
 63145  1  0  0  0
 64146  1  0  0  0
 65147  1  0  0  0
 68 79  1  0  0  0
 71 72  1  0  0  0
 71 74  2  0  0  0
 71148  1  0  0  0
 72 73  2  0  0  0
 72 80  1  0  0  0
 73 77  1  0  0  0
 73 88  1  0  0  0
 74 81  1  0  0  0
 74 88  1  0  0  0
 75 76  1  0  0  0
 75 78  1  0  0  0
 75 83  2  0  0  0
 76 81  1  0  0  0
 76 84  2  0  0  0
 77 82  1  0  0  0
 77149  1  0  0  0
 77150  1  0  0  0
 78 79  1  0  0  0
 78151  1  0  0  0
 78152  1  0  0  0
 79153  1  0  0  0
 79154  1  0  0  0
 80 85  1  0  0  0
 80 86  1  0  0  0
 80 87  1  0  0  0
 81155  1  0  0  0
 82156  1  0  0  0
M  ISO  4   1 100  68 101  79 101  82 100
M  END
> <chiral flag>
0

> <version>
0

> <s_m_source_file>
/data/baiqing/PycharmProjects/Reinvent-master-3.2/result/LINK_invent/BTK/process_docking_weight1_custom_product_contain_oxygen_bond_distance_aromatic_linkinvent_7_9_3/rearranged_h_0179.sdf

> <i_m_source_file_index>
27

> <r_mmod_Potential_Energy-OPLS-2005>
-130.381729125977

> <r_mmod_Stretch_Energy-OPLS-2005>
33.5679092407227

> <r_mmod_Bend_Energy-OPLS-2005>
106.119834899902

> <r_mmod_Torsional_Energy-OPLS-2005>
231.77311706543

> <r_mmod_Improper_Torsional_Energy-OPLS-2005>
3.01418471336365

> <r_mmod_Van_der_Waal_Energy-OPLS-2005>
127.45378112793

> <r_mmod_Electrostatic_Energy-OPLS-2005>
-409.766571044922

> <r_mmod_Solvation_Energy-OPLS-2005>
-232.518737792969

> <b_mmod_Minimization_Converged-OPLS-2005>
0

> <r_mmod_RMS_Derivative-OPLS-2005>
5.39163303375244

$$$$
27
                    3D
 Structure written by MMmdl.
158166  0  0  1  0            999 V2000
  -30.7179  -14.5431   20.4961 C   0  0  0  0  0  0
  -30.4065  -12.3309   19.4538 C   0  0  0  0  0  0
  -29.4935  -12.4901   18.2229 C   0  0  0  0  0  0
  -28.0160  -12.3519   18.6339 C   0  0  0  0  0  0
  -27.6492  -13.2239   19.8659 C   0  0  2  0  0  0
  -28.6947  -13.0912   20.9972 C   0  0  0  0  0  0
  -25.2527  -13.8195   20.5727 C   0  0  0  0  0  0
  -24.1803  -13.0452   20.9221 C   0  0  0  0  0  0
  -24.6381  -11.6925   20.8757 C   0  0  0  0  0  0
  -23.9077  -10.4298   21.0416 C   0  0  0  0  0  0
  -24.3619   -9.4205   21.9185 C   0  0  0  0  0  0
  -23.6284   -8.2250   22.0761 C   0  0  0  0  0  0
  -22.4269   -8.0280   21.3556 C   0  0  0  0  0  0
  -21.9904   -9.0263   20.4662 C   0  0  0  0  0  0
  -22.7247  -10.2137   20.3069 C   0  0  0  0  0  0
  -21.6862   -6.0729   22.5278 C   0  0  0  0  0  0
  -21.4002   -6.5628   23.8208 C   0  0  0  0  0  0
  -21.3668   -5.6787   24.9176 C   0  0  0  0  0  0
  -21.6054   -4.3056   24.7228 C   0  0  0  0  0  0
  -21.8826   -3.8146   23.4351 C   0  0  0  0  0  0
  -21.9195   -4.6956   22.3403 C   0  0  0  0  0  0
  -22.7805  -13.5217   21.1858 C   0  0  0  0  0  0
  -22.1670   -4.2127   21.0981 F   0  0  0  0  0  0
  -21.5630   -3.4547   25.7752 F   0  0  0  0  0  0
  -30.0155  -13.3739   20.4238 N   0  0  0  0  0  0
  -26.2960  -12.9406   20.3363 N   0  0  0  0  0  0
  -25.9313  -11.6548   20.5799 N   0  0  0  0  0  0
  -22.0457  -12.8219   22.0427 N   0  0  0  0  0  0
  -25.4236  -15.1921   20.4147 N   0  0  0  0  0  0
  -31.9068  -14.5598   20.1629 O   0  0  0  0  0  0
  -21.6645   -6.8860   21.4237 O   0  0  0  0  0  0
  -22.3508  -14.5535   20.6715 O   0  0  0  0  0  0
  -24.6155  -31.8653   23.2066 C   0  0  0  0  0  0
  -25.9023  -32.4805   23.8371 C   0  0  1  0  0  0
  -27.2336  -27.3935   20.1271 C   0  0  0  0  0  0
  -25.5858  -33.8601   24.2303 N   0  0  0  0  0  0
  -23.4081  -30.4861   21.5482 C   0  0  2  0  0  0
  -24.8598  -28.9527   20.1147 C   0  0  0  0  0  0
  -22.7430  -29.4634   22.4984 C   0  0  0  0  0  0
  -18.0273  -28.1362   22.8494 C   0  0  0  0  0  0
  -24.1501  -36.7303   23.2637 C   0  0  0  0  0  0
  -25.9419  -30.8216   21.3680 C   0  0  0  0  0  0
  -26.0225  -29.4551   20.7135 C   0  0  0  0  0  0
  -27.2149  -28.6871   20.7105 C   0  0  0  0  0  0
  -26.0561  -26.9312   19.4961 C   0  0  0  0  0  0
  -24.8749  -27.6936   19.4959 C   0  0  0  0  0  0
  -23.6189  -29.8146   20.1660 C   0  0  0  0  0  0
  -25.4125  -36.3107   24.0343 C   0  0  1  0  0  0
  -20.5869  -28.3660   23.1312 C   0  0  2  0  0  0
  -20.6761  -26.9393   22.5427 C   0  0  0  0  0  0
  -19.5743  -26.6377   21.5213 C   0  0  0  0  0  0
  -18.1917  -26.7910   22.1623 C   0  0  0  0  0  0
  -19.1523  -28.8829   23.2898 C   0  0  0  0  0  0
  -18.9453  -30.1434   23.8910 C   0  0  0  0  0  0
  -17.6453  -30.6573   24.0557 C   0  0  0  0  0  0
  -25.9044  -34.9463   23.5135 C   0  0  0  0  0  0
  -16.5344  -29.9070   23.6321 C   0  0  0  0  0  0
  -16.7263  -28.6483   23.0352 C   0  0  0  0  0  0
  -26.4452  -31.6575   25.0688 C   0  0  0  0  0  0
  -25.3719  -31.3669   26.1432 C   0  0  0  0  0  0
  -27.0279  -30.3016   24.6071 C   0  0  0  0  0  0
  -27.6051  -32.4286   25.7412 C   0  0  0  0  0  0
  -27.5599  -37.1813   24.8476 C   0  0  0  0  0  0
  -21.4155  -29.3009   22.3704 N   0  0  0  0  0  0
  -26.4327  -37.3787   23.9384 N   0  0  0  0  0  0
  -24.6730  -31.0739   22.0977 N   0  0  0  0  0  0
  -23.4185  -28.8195   23.3056 O   0  0  0  0  0  0
  -28.3560  -26.5781   20.1973 O   0  0  0  0  0  0
  -26.5652  -34.8925   22.4720 O   0  0  0  0  0  0
  -23.5339  -32.1409   23.7441 O   0  0  0  0  0  0
  -31.6619  -18.5488   19.5538 C   0  0  0  0  0  0
  -30.3459  -17.0328   20.5168 C   0  0  0  0  0  0
  -29.9410  -19.2470   20.7208 C   0  0  0  0  0  0
  -28.0753  -21.5327   19.4097 C   0  0  0  0  0  0
  -28.9249  -22.8657   21.4141 C   0  0  0  0  0  0
  -28.5456  -21.6212   17.9678 C   0  0  0  0  0  0
  -29.2909  -24.2747   20.8617 C   0  0  0  0  0  0
  -28.0783  -25.2325   20.6835 C   0  0  0  0  0  0
  -29.1429  -21.6211   20.5044 C   0  0  1  0  0  0
  -31.4025  -17.2786   19.7372 N   0  0  0  0  0  0
  -30.9932  -19.5867   19.9925 N   0  0  0  0  0  0
  -29.5542  -17.9996   21.0342 N   0  0  0  0  0  0
  -32.7578  -18.8191   18.7979 N   0  0  0  0  0  0
  -30.0206  -15.6881   20.7778 N   0  0  0  0  0  0
  -29.2097  -20.3220   21.2195 N   0  0  0  0  0  0
  -26.8816  -21.3346   19.6493 O   0  0  0  0  0  0
  -28.5047  -22.7627   22.5731 O   0  0  0  0  0  0
  -31.4534  -12.3950   19.1523 H   0  0  0  0  0  0
  -30.2913  -11.3406   19.8974 H   0  0  0  0  0  0
  -29.7448  -11.7420   17.4705 H   0  0  0  0  0  0
  -29.6601  -13.4624   17.7552 H   0  0  0  0  0  0
  -27.8343  -11.2992   18.8572 H   0  0  0  0  0  0
  -27.3660  -12.5974   17.7942 H   0  0  0  0  0  0
  -27.6647  -14.2588   19.5237 H   0  0  0  0  0  0
  -28.6822  -12.0853   21.4198 H   0  0  0  0  0  0
  -28.4633  -13.7651   21.8233 H   0  0  0  0  0  0
  -25.2760   -9.5668   22.4767 H   0  0  0  0  0  0
  -23.9995   -7.4630   22.7479 H   0  0  0  0  0  0
  -21.0838   -8.8796   19.8947 H   0  0  0  0  0  0
  -22.3719  -10.9681   19.6183 H   0  0  0  0  0  0
  -21.1986   -7.6135   23.9702 H   0  0  0  0  0  0
  -21.1481   -6.0520   25.9074 H   0  0  0  0  0  0
  -22.0597   -2.7601   23.2872 H   0  0  0  0  0  0
  -22.4089  -11.9872   22.4783 H   0  0  0  0  0  0
  -21.1077  -13.1239   22.2647 H   0  0  0  0  0  0
  -24.6627  -15.8495   20.5442 H   0  0  0  0  0  0
  -26.2699  -15.6322   20.0774 H   0  0  0  0  0  0
  -26.7080  -32.5517   23.1123 H   0  0  0  0  0  0
  -24.9896  -33.9754   25.0370 H   0  0  0  0  0  0
  -22.6957  -31.3014   21.4053 H   0  0  0  0  0  0
  -23.3766  -35.9634   23.3323 H   0  0  0  0  0  0
  -24.3600  -36.8888   22.2046 H   0  0  0  0  0  0
  -23.7255  -37.6516   23.6640 H   0  0  0  0  0  0
  -26.0671  -31.5862   20.6007 H   0  0  0  0  0  0
  -26.8244  -30.8694   21.9938 H   0  0  0  0  0  0
  -28.1064  -29.0688   21.1871 H   0  0  0  0  0  0
  -26.0291  -25.9718   19.0017 H   0  0  0  0  0  0
  -23.9847  -27.3018   19.0205 H   0  0  0  0  0  0
  -23.7138  -30.5825   19.3983 H   0  0  0  0  0  0
  -22.7479  -29.2216   19.8821 H   0  0  0  0  0  0
  -25.1306  -36.1987   25.0849 H   0  0  0  0  0  0
  -20.9967  -28.3227   24.1431 H   0  0  0  0  0  0
  -20.5648  -26.2267   23.3617 H   0  0  0  0  0  0
  -21.6628  -26.7415   22.1227 H   0  0  0  0  0  0
  -19.6916  -25.6296   21.1213 H   0  0  0  0  0  0
  -19.6677  -27.3210   20.6761 H   0  0  0  0  0  0
  -17.4191  -26.6654   21.4024 H   0  0  0  0  0  0
  -18.0331  -26.0047   22.9019 H   0  0  0  0  0  0
  -19.7933  -30.7240   24.2291 H   0  0  0  0  0  0
  -17.5009  -31.6262   24.5139 H   0  0  0  0  0  0
  -15.5344  -30.2969   23.7644 H   0  0  0  0  0  0
  -15.8665  -28.0796   22.7072 H   0  0  0  0  0  0
  -24.5920  -30.6998   25.7741 H   0  0  0  0  0  0
  -24.8874  -32.2811   26.4875 H   0  0  0  0  0  0
  -25.8061  -30.8827   27.0188 H   0  0  0  0  0  0
  -26.2841  -29.6794   24.1091 H   0  0  0  0  0  0
  -27.4013  -29.7224   25.4520 H   0  0  0  0  0  0
  -27.8683  -30.4318   23.9254 H   0  0  0  0  0  0
  -27.2713  -33.3593   26.2008 H   0  0  0  0  0  0
  -28.3815  -32.6834   25.0185 H   0  0  0  0  0  0
  -28.0774  -31.8396   26.5285 H   0  0  0  0  0  0
  -28.2645  -38.0081   24.7487 H   0  0  0  0  0  0
  -28.1070  -36.2614   24.6356 H   0  0  0  0  0  0
  -27.2311  -37.1523   25.8881 H   0  0  0  0  0  0
  -20.9339  -29.8661   21.6849 H   0  0  0  0  0  0
  -26.0224  -38.2876   24.1345 H   0  0  0  0  0  0
  -29.4479  -22.2274   17.8901 H   0  0  0  0  0  0
  -27.7737  -22.0699   17.3456 H   0  0  0  0  0  0
  -28.7602  -20.6213   17.5926 H   0  0  0  0  0  0
  -30.0089  -24.7243   21.5486 H   0  0  0  0  0  0
  -29.8141  -24.1528   19.9137 H   0  0  0  0  0  0
  -27.3828  -24.7211   20.0204 H   0  0  0  0  0  0
  -27.5741  -25.3307   21.6464 H   0  0  0  0  0  0
  -30.1020  -21.7954   20.0198 H   0  0  0  0  0  0
  -33.1885  -19.7178   18.9598 H   0  0  0  0  0  0
  -33.4147  -18.0567   18.7003 H   0  0  0  0  0  0
  -29.0934  -15.5421   21.1380 H   0  0  0  0  0  0
  -28.3746  -20.0726   21.7302 H   0  0  0  0  0  0
  1 25  1  0  0  0
  1 30  2  0  0  0
  1 84  1  0  0  0
  2  3  1  0  0  0
  2 25  1  0  0  0
  2 88  1  0  0  0
  2 89  1  0  0  0
  3  4  1  0  0  0
  3 90  1  0  0  0
  3 91  1  0  0  0
  4  5  1  0  0  0
  4 92  1  0  0  0
  4 93  1  0  0  0
  5  6  1  0  0  0
  5 26  1  0  0  0
  5 94  1  0  0  0
  6 25  1  0  0  0
  6 95  1  0  0  0
  6 96  1  0  0  0
  7  8  2  0  0  0
  7 26  1  0  0  0
  7 29  1  0  0  0
  8  9  1  0  0  0
  8 22  1  0  0  0
  9 10  1  0  0  0
  9 27  2  0  0  0
 10 11  2  0  0  0
 10 15  1  0  0  0
 11 12  1  0  0  0
 11 97  1  0  0  0
 12 13  2  0  0  0
 12 98  1  0  0  0
 13 14  1  0  0  0
 13 31  1  0  0  0
 14 15  2  0  0  0
 14 99  1  0  0  0
 15100  1  0  0  0
 16 17  2  0  0  0
 16 21  1  0  0  0
 16 31  1  0  0  0
 17 18  1  0  0  0
 17101  1  0  0  0
 18 19  2  0  0  0
 18102  1  0  0  0
 19 20  1  0  0  0
 19 24  1  0  0  0
 20 21  2  0  0  0
 20103  1  0  0  0
 21 23  1  0  0  0
 22 28  1  0  0  0
 22 32  2  0  0  0
 26 27  1  0  0  0
 28104  1  0  0  0
 28105  1  0  0  0
 29106  1  0  0  0
 29107  1  0  0  0
 33 34  1  0  0  0
 33 66  1  0  0  0
 33 70  2  0  0  0
 34 36  1  0  0  0
 34 59  1  0  0  0
 34108  1  0  0  0
 35 44  2  0  0  0
 35 45  1  0  0  0
 35 68  1  0  0  0
 36 56  1  0  0  0
 36109  1  0  0  0
 37 39  1  0  0  0
 37 47  1  0  0  0
 37 66  1  0  0  0
 37110  1  0  0  0
 38 43  2  0  0  0
 38 46  1  0  0  0
 38 47  1  0  0  0
 39 64  1  0  0  0
 39 67  2  0  0  0
 40 52  1  0  0  0
 40 53  2  0  0  0
 40 58  1  0  0  0
 41111  1  0  0  0
 41112  1  0  0  0
 41113  1  0  0  0
 41 48  1  0  0  0
 42 43  1  0  0  0
 42 66  1  0  0  0
 42114  1  0  0  0
 42115  1  0  0  0
 43 44  1  0  0  0
 44116  1  0  0  0
 45 46  2  0  0  0
 45117  1  0  0  0
 46118  1  0  0  0
 47119  1  0  0  0
 47120  1  0  0  0
 48 56  1  0  0  0
 48 65  1  0  0  0
 48121  1  0  0  0
 49 50  1  0  0  0
 49 53  1  0  0  0
 49 64  1  0  0  0
 49122  1  0  0  0
 50 51  1  0  0  0
 50123  1  0  0  0
 50124  1  0  0  0
 51 52  1  0  0  0
 51125  1  0  0  0
 51126  1  0  0  0
 52127  1  0  0  0
 52128  1  0  0  0
 53 54  1  0  0  0
 54 55  2  0  0  0
 54129  1  0  0  0
 55 57  1  0  0  0
 55130  1  0  0  0
 56 69  2  0  0  0
 57 58  2  0  0  0
 57131  1  0  0  0
 58132  1  0  0  0
 59 60  1  0  0  0
 59 61  1  0  0  0
 59 62  1  0  0  0
 60133  1  0  0  0
 60134  1  0  0  0
 60135  1  0  0  0
 61136  1  0  0  0
 61137  1  0  0  0
 61138  1  0  0  0
 62139  1  0  0  0
 62140  1  0  0  0
 62141  1  0  0  0
 63 65  1  0  0  0
 63142  1  0  0  0
 63143  1  0  0  0
 63144  1  0  0  0
 64145  1  0  0  0
 65146  1  0  0  0
 68 78  1  0  0  0
 71 80  2  0  0  0
 71 81  1  0  0  0
 71 83  1  0  0  0
 72 80  1  0  0  0
 72 82  2  0  0  0
 72 84  1  0  0  0
 73 81  2  0  0  0
 73 82  1  0  0  0
 73 85  1  0  0  0
 74 76  1  0  0  0
 74 79  1  0  0  0
 74 86  2  0  0  0
 75 77  1  0  0  0
 75 79  1  0  0  0
 75 87  2  0  0  0
 76147  1  0  0  0
 76148  1  0  0  0
 76149  1  0  0  0
 77 78  1  0  0  0
 77150  1  0  0  0
 77151  1  0  0  0
 78152  1  0  0  0
 78153  1  0  0  0
 79 85  1  0  0  0
 79154  1  0  0  0
 83155  1  0  0  0
 83156  1  0  0  0
 84157  1  0  0  0
 85158  1  0  0  0
M  ISO  4   1 100  68 101  78 101  84 100
M  END
> <chiral flag>
0

> <version>
0

> <s_m_source_file>
/data/baiqing/PycharmProjects/Reinvent-master-3.2/result/LINK_invent/BTK/process_docking_weight1_custom_product_contain_oxygen_bond_distance_aromatic_linkinvent_7_9_3/rearranged_h_0179.sdf

> <i_m_source_file_index>
28

> <r_mmod_Potential_Energy-OPLS-2005>
-1054.748046875

> <r_mmod_Stretch_Energy-OPLS-2005>
51.8044853210449

> <r_mmod_Bend_Energy-OPLS-2005>
109.196487426758

> <r_mmod_Torsional_Energy-OPLS-2005>
242.979309082031

> <r_mmod_Improper_Torsional_Energy-OPLS-2005>
10.7310552597046

> <r_mmod_Van_der_Waal_Energy-OPLS-2005>
180.231842041016

> <r_mmod_Electrostatic_Energy-OPLS-2005>
-1415.09155273438

> <r_mmod_Solvation_Energy-OPLS-2005>
-266.200378417969

> <b_mmod_Minimization_Converged-OPLS-2005>
0

> <r_mmod_RMS_Derivative-OPLS-2005>
3.16169786453247

$$$$
28
                    3D
 Structure written by MMmdl.
160168  0  0  1  0            999 V2000
  -30.6943  -14.5439   20.5279 C   0  0  0  0  0  0
  -30.4182  -12.3418   19.4356 C   0  0  0  0  0  0
  -29.4962  -12.4974   18.2095 C   0  0  0  0  0  0
  -28.0189  -12.3524   18.6228 C   0  0  0  0  0  0
  -27.6523  -13.2165   19.8595 C   0  0  2  0  0  0
  -28.6960  -13.0586   20.9878 C   0  0  0  0  0  0
  -25.2556  -13.8172   20.5671 C   0  0  0  0  0  0
  -24.1827  -13.0433   20.9185 C   0  0  0  0  0  0
  -24.6393  -11.6906   20.8729 C   0  0  0  0  0  0
  -23.9061  -10.4292   21.0397 C   0  0  0  0  0  0
  -24.3610   -9.4209   21.9175 C   0  0  0  0  0  0
  -23.6292   -8.2240   22.0742 C   0  0  0  0  0  0
  -22.4270   -8.0275   21.3537 C   0  0  0  0  0  0
  -21.9904   -9.0248   20.4638 C   0  0  0  0  0  0
  -22.7231  -10.2131   20.3050 C   0  0  0  0  0  0
  -21.6849   -6.0736   22.5283 C   0  0  0  0  0  0
  -21.4012   -6.5638   23.8215 C   0  0  0  0  0  0
  -21.3658   -5.6788   24.9176 C   0  0  0  0  0  0
  -21.6045   -4.3053   24.7224 C   0  0  0  0  0  0
  -21.8820   -3.8143   23.4346 C   0  0  0  0  0  0
  -21.9196   -4.6966   22.3402 C   0  0  0  0  0  0
  -22.7852  -13.5230   21.1853 C   0  0  0  0  0  0
  -22.1664   -4.2154   21.0978 F   0  0  0  0  0  0
  -21.5630   -3.4538   25.7740 F   0  0  0  0  0  0
  -30.0160  -13.3640   20.4194 N   0  0  0  0  0  0
  -26.2980  -12.9362   20.3286 N   0  0  0  0  0  0
  -25.9316  -11.6513   20.5720 N   0  0  0  0  0  0
  -22.0474  -12.8231   22.0402 N   0  0  0  0  0  0
  -25.4253  -15.1896   20.4085 N   0  0  0  0  0  0
  -31.8547  -14.6502   20.1216 O   0  0  0  0  0  0
  -21.6629   -6.8876   21.4241 O   0  0  0  0  0  0
  -22.3548  -14.5546   20.6710 O   0  0  0  0  0  0
  -24.6185  -31.8642   23.2051 C   0  0  0  0  0  0
  -25.9057  -32.4803   23.8366 C   0  0  1  0  0  0
  -27.2294  -27.3822   20.0945 C   0  0  0  0  0  0
  -25.5893  -33.8602   24.2302 N   0  0  0  0  0  0
  -23.4070  -30.4871   21.5490 C   0  0  2  0  0  0
  -24.8495  -28.9453   20.1155 C   0  0  0  0  0  0
  -22.7424  -29.4635   22.4987 C   0  0  0  0  0  0
  -18.0271  -28.1361   22.8487 C   0  0  0  0  0  0
  -24.1487  -36.7320   23.2636 C   0  0  0  0  0  0
  -25.9401  -30.8162   21.3601 C   0  0  0  0  0  0
  -26.0144  -29.4454   20.7085 C   0  0  0  0  0  0
  -27.2035  -28.6724   20.6914 C   0  0  0  0  0  0
  -26.0317  -26.9017   19.5145 C   0  0  0  0  0  0
  -24.8559  -27.6753   19.5164 C   0  0  0  0  0  0
  -23.6144  -29.8177   20.1649 C   0  0  0  0  0  0
  -25.4105  -36.3104   24.0334 C   0  0  1  0  0  0
  -20.5861  -28.3654   23.1316 C   0  0  2  0  0  0
  -20.6755  -26.9387   22.5418 C   0  0  0  0  0  0
  -19.5742  -26.6375   21.5201 C   0  0  0  0  0  0
  -18.1919  -26.7910   22.1612 C   0  0  0  0  0  0
  -19.1518  -28.8825   23.2897 C   0  0  0  0  0  0
  -18.9447  -30.1429   23.8911 C   0  0  0  0  0  0
  -17.6448  -30.6570   24.0559 C   0  0  0  0  0  0
  -25.9037  -34.9467   23.5121 C   0  0  0  0  0  0
  -16.5341  -29.9071   23.6317 C   0  0  0  0  0  0
  -16.7259  -28.6484   23.0348 C   0  0  0  0  0  0
  -26.4464  -31.6585   25.0707 C   0  0  0  0  0  0
  -25.3729  -31.3696   26.1459 C   0  0  0  0  0  0
  -27.0278  -30.3024   24.6076 C   0  0  0  0  0  0
  -27.6033  -32.4301   25.7485 C   0  0  0  0  0  0
  -27.5582  -37.1814   24.8457 C   0  0  0  0  0  0
  -21.4148  -29.3026   22.3733 N   0  0  0  0  0  0
  -26.4289  -37.3791   23.9407 N   0  0  0  0  0  0
  -24.6748  -31.0707   22.0968 N   0  0  0  0  0  0
  -23.4187  -28.8173   23.3033 O   0  0  0  0  0  0
  -28.4105  -26.6465   20.1164 O   0  0  0  0  0  0
  -26.5613  -34.8926   22.4692 O   0  0  0  0  0  0
  -23.5370  -32.1411   23.7431 O   0  0  0  0  0  0
  -31.6680  -17.1771   21.7561 C   0  0  0  0  0  0
  -31.6344  -19.5516   21.2145 C   0  0  0  0  0  0
  -32.2538  -18.4465   21.8306 C   0  0  0  0  0  0
  -30.3449  -19.3476   20.6432 C   0  0  0  0  0  0
  -30.4676  -16.9906   21.0481 C   0  0  0  0  0  0
  -29.1714  -21.4620   20.5656 C   0  0  0  0  0  0
  -28.7363  -22.7154   19.7542 C   0  0  0  0  0  0
  -27.5949  -21.0566   22.5312 C   0  0  0  0  0  0
  -28.9834  -21.5447   22.0891 C   0  0  0  0  0  0
  -28.5252  -24.1041   20.4409 C   0  0  0  0  0  0
  -28.5297  -25.3430   19.4784 C   0  0  0  0  0  0
  -32.4015  -20.8833   21.1884 C   0  0  0  0  0  0
  -29.8043  -18.0879   20.5574 N   0  0  0  0  0  0
  -29.6481  -20.3994   19.9911 N   0  0  0  0  0  0
  -29.9796  -15.6390   20.9120 N   0  0  0  0  0  0
  -28.5778  -22.6351   18.5304 O   0  0  0  0  0  0
  -33.4328  -18.5756   22.4856 F   0  0  0  0  0  0
  -33.7191  -20.6881   21.1339 F   0  0  0  0  0  0
  -32.1031  -21.6420   20.1339 F   0  0  0  0  0  0
  -32.1303  -21.5747   22.2944 F   0  0  0  0  0  0
  -31.4633  -12.4332   19.1331 H   0  0  0  0  0  0
  -30.3215  -11.3438   19.8665 H   0  0  0  0  0  0
  -29.7458  -11.7542   17.4510 H   0  0  0  0  0  0
  -29.6564  -13.4719   17.7455 H   0  0  0  0  0  0
  -27.8403  -11.2986   18.8414 H   0  0  0  0  0  0
  -27.3686  -12.6034   17.7838 H   0  0  0  0  0  0
  -27.6772  -14.2537   19.5253 H   0  0  0  0  0  0
  -28.6859  -12.0391   21.3767 H   0  0  0  0  0  0
  -28.4575  -13.7041   21.8344 H   0  0  0  0  0  0
  -25.2751   -9.5700   22.4755 H   0  0  0  0  0  0
  -24.0007   -7.4634   22.7466 H   0  0  0  0  0  0
  -21.0832   -8.8765   19.8952 H   0  0  0  0  0  0
  -22.3674  -10.9668   19.6166 H   0  0  0  0  0  0
  -21.1995   -7.6145   23.9725 H   0  0  0  0  0  0
  -21.1481   -6.0510   25.9080 H   0  0  0  0  0  0
  -22.0603   -2.7608   23.2840 H   0  0  0  0  0  0
  -22.4050  -11.9879   22.4804 H   0  0  0  0  0  0
  -21.1093  -13.1279   22.2584 H   0  0  0  0  0  0
  -24.6533  -15.8384   20.5185 H   0  0  0  0  0  0
  -26.2681  -15.6351   20.0681 H   0  0  0  0  0  0
  -26.7126  -32.5496   23.1120 H   0  0  0  0  0  0
  -25.0020  -33.9754   25.0431 H   0  0  0  0  0  0
  -22.6971  -31.3047   21.4089 H   0  0  0  0  0  0
  -23.3740  -35.9660   23.3293 H   0  0  0  0  0  0
  -24.3590  -36.8947   22.2053 H   0  0  0  0  0  0
  -23.7248  -37.6526   23.6656 H   0  0  0  0  0  0
  -26.0516  -31.5775   20.5870 H   0  0  0  0  0  0
  -26.8291  -30.8749   21.9760 H   0  0  0  0  0  0
  -28.1043  -29.0600   21.1468 H   0  0  0  0  0  0
  -25.9616  -25.9220   19.0698 H   0  0  0  0  0  0
  -23.9555  -27.2788   19.0674 H   0  0  0  0  0  0
  -23.7242  -30.5907   19.4036 H   0  0  0  0  0  0
  -22.7365  -29.2394   19.8706 H   0  0  0  0  0  0
  -25.1277  -36.1968   25.0827 H   0  0  0  0  0  0
  -20.9946  -28.3212   24.1437 H   0  0  0  0  0  0
  -20.5630  -26.2261   23.3605 H   0  0  0  0  0  0
  -21.6633  -26.7412   22.1232 H   0  0  0  0  0  0
  -19.6908  -25.6290   21.1221 H   0  0  0  0  0  0
  -19.6682  -27.3192   20.6738 H   0  0  0  0  0  0
  -17.4189  -26.6657   21.4015 H   0  0  0  0  0  0
  -18.0323  -26.0041   22.9000 H   0  0  0  0  0  0
  -19.7925  -30.7234   24.2295 H   0  0  0  0  0  0
  -17.5006  -31.6252   24.5155 H   0  0  0  0  0  0
  -15.5342  -30.2980   23.7626 H   0  0  0  0  0  0
  -15.8660  -28.0802   22.7067 H   0  0  0  0  0  0
  -24.5906  -30.7030   25.7813 H   0  0  0  0  0  0
  -24.8911  -32.2850   26.4906 H   0  0  0  0  0  0
  -25.8092  -30.8880   27.0220 H   0  0  0  0  0  0
  -26.2814  -29.6813   24.1111 H   0  0  0  0  0  0
  -27.4028  -29.7229   25.4521 H   0  0  0  0  0  0
  -27.8658  -30.4338   23.9226 H   0  0  0  0  0  0
  -27.2642  -33.3591   26.2079 H   0  0  0  0  0  0
  -28.3843  -32.6876   25.0318 H   0  0  0  0  0  0
  -28.0693  -31.8412   26.5395 H   0  0  0  0  0  0
  -28.2583  -38.0126   24.7513 H   0  0  0  0  0  0
  -28.1093  -36.2659   24.6253 H   0  0  0  0  0  0
  -27.2311  -37.1436   25.8862 H   0  0  0  0  0  0
  -20.9306  -29.8781   21.6986 H   0  0  0  0  0  0
  -26.0177  -38.2869   24.1405 H   0  0  0  0  0  0
  -32.1859  -16.3422   22.2066 H   0  0  0  0  0  0
  -27.4978  -21.1003   23.6161 H   0  0  0  0  0  0
  -27.4208  -20.0231   22.2277 H   0  0  0  0  0  0
  -26.7982  -21.6682   22.1060 H   0  0  0  0  0  0
  -29.1487  -22.5573   22.4507 H   0  0  0  0  0  0
  -29.7326  -20.9508   22.6073 H   0  0  0  0  0  0
  -29.3216  -24.2489   21.1687 H   0  0  0  0  0  0
  -27.5885  -24.0713   20.9961 H   0  0  0  0  0  0
  -27.8399  -25.2043   18.6487 H   0  0  0  0  0  0
  -29.5042  -25.3627   18.9899 H   0  0  0  0  0  0
  -28.9900  -15.5028   21.0360 H   0  0  0  0  0  0
  1 25  1  0  0  0
  1 30  2  0  0  0
  1 85  1  0  0  0
  2  3  1  0  0  0
  2 25  1  0  0  0
  2 91  1  0  0  0
  2 92  1  0  0  0
  3  4  1  0  0  0
  3 93  1  0  0  0
  3 94  1  0  0  0
  4  5  1  0  0  0
  4 95  1  0  0  0
  4 96  1  0  0  0
  5  6  1  0  0  0
  5 26  1  0  0  0
  5 97  1  0  0  0
  6 25  1  0  0  0
  6 98  1  0  0  0
  6 99  1  0  0  0
  7  8  2  0  0  0
  7 26  1  0  0  0
  7 29  1  0  0  0
  8  9  1  0  0  0
  8 22  1  0  0  0
  9 10  1  0  0  0
  9 27  2  0  0  0
 10 11  2  0  0  0
 10 15  1  0  0  0
 11 12  1  0  0  0
 11100  1  0  0  0
 12 13  2  0  0  0
 12101  1  0  0  0
 13 14  1  0  0  0
 13 31  1  0  0  0
 14 15  2  0  0  0
 14102  1  0  0  0
 15103  1  0  0  0
 16 17  2  0  0  0
 16 21  1  0  0  0
 16 31  1  0  0  0
 17 18  1  0  0  0
 17104  1  0  0  0
 18 19  2  0  0  0
 18105  1  0  0  0
 19 20  1  0  0  0
 19 24  1  0  0  0
 20 21  2  0  0  0
 20106  1  0  0  0
 21 23  1  0  0  0
 22 28  1  0  0  0
 22 32  2  0  0  0
 26 27  1  0  0  0
 28107  1  0  0  0
 28108  1  0  0  0
 29109  1  0  0  0
 29110  1  0  0  0
 33 34  1  0  0  0
 33 66  1  0  0  0
 33 70  2  0  0  0
 34 36  1  0  0  0
 34 59  1  0  0  0
 34111  1  0  0  0
 35 44  2  0  0  0
 35 45  1  0  0  0
 35 68  1  0  0  0
 36 56  1  0  0  0
 36112  1  0  0  0
 37 39  1  0  0  0
 37 47  1  0  0  0
 37 66  1  0  0  0
 37113  1  0  0  0
 38 43  2  0  0  0
 38 46  1  0  0  0
 38 47  1  0  0  0
 39 64  1  0  0  0
 39 67  2  0  0  0
 40 52  1  0  0  0
 40 53  2  0  0  0
 40 58  1  0  0  0
 41114  1  0  0  0
 41115  1  0  0  0
 41116  1  0  0  0
 41 48  1  0  0  0
 42 43  1  0  0  0
 42 66  1  0  0  0
 42117  1  0  0  0
 42118  1  0  0  0
 43 44  1  0  0  0
 44119  1  0  0  0
 45 46  2  0  0  0
 45120  1  0  0  0
 46121  1  0  0  0
 47122  1  0  0  0
 47123  1  0  0  0
 48 56  1  0  0  0
 48 65  1  0  0  0
 48124  1  0  0  0
 49 50  1  0  0  0
 49 53  1  0  0  0
 49 64  1  0  0  0
 49125  1  0  0  0
 50 51  1  0  0  0
 50126  1  0  0  0
 50127  1  0  0  0
 51 52  1  0  0  0
 51128  1  0  0  0
 51129  1  0  0  0
 52130  1  0  0  0
 52131  1  0  0  0
 53 54  1  0  0  0
 54 55  2  0  0  0
 54132  1  0  0  0
 55 57  1  0  0  0
 55133  1  0  0  0
 56 69  2  0  0  0
 57 58  2  0  0  0
 57134  1  0  0  0
 58135  1  0  0  0
 59 60  1  0  0  0
 59 61  1  0  0  0
 59 62  1  0  0  0
 60136  1  0  0  0
 60137  1  0  0  0
 60138  1  0  0  0
 61139  1  0  0  0
 61140  1  0  0  0
 61141  1  0  0  0
 62142  1  0  0  0
 62143  1  0  0  0
 62144  1  0  0  0
 63 65  1  0  0  0
 63145  1  0  0  0
 63146  1  0  0  0
 63147  1  0  0  0
 64148  1  0  0  0
 65149  1  0  0  0
 68 81  1  0  0  0
 71 73  2  0  0  0
 71 75  1  0  0  0
 71150  1  0  0  0
 72 73  1  0  0  0
 72 74  2  0  0  0
 72 82  1  0  0  0
 73 87  1  0  0  0
 74 83  1  0  0  0
 74 84  1  0  0  0
 75 83  2  0  0  0
 75 85  1  0  0  0
 76 77  1  0  0  0
 76 79  1  0  0  0
 76 84  2  0  0  0
 77 80  1  0  0  0
 77 86  2  0  0  0
 78 79  1  0  0  0
 78151  1  0  0  0
 78152  1  0  0  0
 78153  1  0  0  0
 79154  1  0  0  0
 79155  1  0  0  0
 80 81  1  0  0  0
 80156  1  0  0  0
 80157  1  0  0  0
 81158  1  0  0  0
 81159  1  0  0  0
 82 88  1  0  0  0
 82 89  1  0  0  0
 82 90  1  0  0  0
 85160  1  0  0  0
M  ISO  4   1 100  68 101  81 101  85 100
M  END
> <chiral flag>
0

> <version>
0

> <s_m_source_file>
/data/baiqing/PycharmProjects/Reinvent-master-3.2/result/LINK_invent/BTK/process_docking_weight1_custom_product_contain_oxygen_bond_distance_aromatic_linkinvent_7_9_3/rearranged_h_0179.sdf

> <i_m_source_file_index>
29

> <r_mmod_Potential_Energy-OPLS-2005>
-100.894142150879

> <r_mmod_Stretch_Energy-OPLS-2005>
61.1931076049805

> <r_mmod_Bend_Energy-OPLS-2005>
134.934051513672

> <r_mmod_Torsional_Energy-OPLS-2005>
243.94743347168

> <r_mmod_Improper_Torsional_Energy-OPLS-2005>
5.1321759223938

> <r_mmod_Van_der_Waal_Energy-OPLS-2005>
166.169616699219

> <r_mmod_Electrostatic_Energy-OPLS-2005>
-514.302673339844

> <r_mmod_Solvation_Energy-OPLS-2005>
-221.993865966797

> <b_mmod_Minimization_Converged-OPLS-2005>
0

> <r_mmod_RMS_Derivative-OPLS-2005>
1.11778283119202

$$$$
29
                    3D
 Structure written by MMmdl.
162170  0  0  1  0            999 V2000
  -30.7492  -14.5114   20.6587 C   0  0  0  0  0  0
  -30.4286  -12.3646   19.4346 C   0  0  0  0  0  0
  -29.5080  -12.5502   18.2082 C   0  0  0  0  0  0
  -28.0213  -12.3978   18.5939 C   0  0  0  0  0  0
  -27.6626  -13.2068   19.8686 C   0  0  2  0  0  0
  -28.6969  -12.9219   20.9725 C   0  0  0  0  0  0
  -25.2586  -13.8156   20.5619 C   0  0  0  0  0  0
  -24.1847  -13.0428   20.9136 C   0  0  0  0  0  0
  -24.6407  -11.6897   20.8685 C   0  0  0  0  0  0
  -23.9068  -10.4299   21.0384 C   0  0  0  0  0  0
  -24.3629   -9.4231   21.9172 C   0  0  0  0  0  0
  -23.6317   -8.2253   22.0740 C   0  0  0  0  0  0
  -22.4297   -8.0276   21.3540 C   0  0  0  0  0  0
  -21.9922   -9.0250   20.4649 C   0  0  0  0  0  0
  -22.7228  -10.2136   20.3051 C   0  0  0  0  0  0
  -21.6856   -6.0749   22.5302 C   0  0  0  0  0  0
  -21.4016   -6.5656   23.8239 C   0  0  0  0  0  0
  -21.3667   -5.6796   24.9197 C   0  0  0  0  0  0
  -21.6034   -4.3058   24.7232 C   0  0  0  0  0  0
  -21.8822   -3.8155   23.4356 C   0  0  0  0  0  0
  -21.9207   -4.6977   22.3418 C   0  0  0  0  0  0
  -22.7892  -13.5239   21.1830 C   0  0  0  0  0  0
  -22.1655   -4.2171   21.0983 F   0  0  0  0  0  0
  -21.5628   -3.4538   25.7741 F   0  0  0  0  0  0
  -30.0284  -13.3412   20.4839 N   0  0  0  0  0  0
  -26.3021  -12.9332   20.3263 N   0  0  0  0  0  0
  -25.9323  -11.6491   20.5661 N   0  0  0  0  0  0
  -22.0525  -12.8274   22.0405 N   0  0  0  0  0  0
  -25.4293  -15.1888   20.4067 N   0  0  0  0  0  0
  -31.8171  -14.6355   20.0487 O   0  0  0  0  0  0
  -21.6644   -6.8885   21.4255 O   0  0  0  0  0  0
  -22.3585  -14.5534   20.6664 O   0  0  0  0  0  0
  -24.6191  -31.8681   23.2108 C   0  0  0  0  0  0
  -25.9074  -32.4830   23.8408 C   0  0  1  0  0  0
  -27.2233  -27.3779   20.1278 C   0  0  0  0  0  0
  -25.5906  -33.8632   24.2331 N   0  0  0  0  0  0
  -23.4086  -30.4922   21.5533 C   0  0  2  0  0  0
  -24.8543  -28.9591   20.1151 C   0  0  0  0  0  0
  -22.7435  -29.4668   22.5004 C   0  0  0  0  0  0
  -18.0282  -28.1378   22.8499 C   0  0  0  0  0  0
  -24.1476  -36.7302   23.2640 C   0  0  0  0  0  0
  -25.9448  -30.8173   21.3720 C   0  0  0  0  0  0
  -26.0203  -29.4498   20.7161 C   0  0  0  0  0  0
  -27.2084  -28.6720   20.7153 C   0  0  0  0  0  0
  -26.0345  -26.9286   19.4988 C   0  0  0  0  0  0
  -24.8597  -27.6995   19.5002 C   0  0  0  0  0  0
  -23.6183  -29.8315   20.1665 C   0  0  0  0  0  0
  -25.4109  -36.3131   24.0347 C   0  0  1  0  0  0
  -20.5875  -28.3680   23.1303 C   0  0  2  0  0  0
  -20.6780  -26.9416   22.5410 C   0  0  0  0  0  0
  -19.5757  -26.6382   21.5213 C   0  0  0  0  0  0
  -18.1936  -26.7925   22.1624 C   0  0  0  0  0  0
  -19.1534  -28.8849   23.2889 C   0  0  0  0  0  0
  -18.9459  -30.1454   23.8899 C   0  0  0  0  0  0
  -17.6461  -30.6589   24.0562 C   0  0  0  0  0  0
  -25.9040  -34.9490   23.5136 C   0  0  0  0  0  0
  -16.5351  -29.9086   23.6333 C   0  0  0  0  0  0
  -16.7270  -28.6498   23.0361 C   0  0  0  0  0  0
  -26.4477  -31.6624   25.0751 C   0  0  0  0  0  0
  -25.3722  -31.3733   26.1478 C   0  0  0  0  0  0
  -27.0307  -30.3070   24.6147 C   0  0  0  0  0  0
  -27.6063  -32.4346   25.7496 C   0  0  0  0  0  0
  -27.5588  -37.1808   24.8472 C   0  0  0  0  0  0
  -21.4163  -29.3039   22.3713 N   0  0  0  0  0  0
  -26.4302  -37.3814   23.9417 N   0  0  0  0  0  0
  -24.6762  -31.0743   22.1027 N   0  0  0  0  0  0
  -23.4193  -28.8215   23.3064 O   0  0  0  0  0  0
  -28.3453  -26.5542   20.2098 O   0  0  0  0  0  0
  -26.5605  -34.8942   22.4701 O   0  0  0  0  0  0
  -23.5371  -32.1452   23.7473 O   0  0  0  0  0  0
  -32.8827  -18.3031   21.6859 C   0  0  0  0  0  0
  -32.1355  -19.4655   21.4103 C   0  0  0  0  0  0
  -32.2779  -17.0346   21.6452 C   0  0  0  0  0  0
  -30.1741  -18.0844   20.9934 C   0  0  0  0  0  0
  -30.7576  -19.3861   21.0883 C   0  0  0  0  0  0
  -30.9147  -16.8959   21.2924 C   0  0  0  0  0  0
  -29.0292  -22.7886   20.8345 C   0  0  0  0  0  0
  -29.1594  -24.1590   20.8094 C   0  0  0  0  0  0
  -30.1631  -21.8807   21.1613 C   0  0  0  0  0  0
  -27.6766  -22.1448   20.5233 C   0  0  0  0  0  0
  -29.3326  -16.5516   23.6184 C   0  0  0  0  0  0
  -28.0276  -25.1441   20.4256 C   0  0  0  0  0  0
  -29.3092  -15.4687   22.5113 C   0  0  0  0  0  0
  -29.9383  -20.5645   20.8768 N   0  0  0  0  0  0
  -30.2794  -15.5913   21.4006 N   0  0  0  0  0  0
  -31.2194  -22.2847   21.6540 O   0  0  0  0  0  0
  -30.2814  -24.8313   21.1152 O   0  0  0  0  0  0
  -31.4712  -12.4594   19.1255 H   0  0  0  0  0  0
  -30.3457  -11.3438   19.8084 H   0  0  0  0  0  0
  -29.7653  -11.8331   17.4271 H   0  0  0  0  0  0
  -29.6783  -13.5408   17.7803 H   0  0  0  0  0  0
  -27.8238  -11.3377   18.7550 H   0  0  0  0  0  0
  -27.3846  -12.6988   17.7610 H   0  0  0  0  0  0
  -27.7196  -14.2669   19.6200 H   0  0  0  0  0  0
  -28.7082  -11.8480   21.1728 H   0  0  0  0  0  0
  -28.3594  -13.3116   21.9174 H   0  0  0  0  0  0
  -25.2793   -9.5719   22.4712 H   0  0  0  0  0  0
  -24.0045   -7.4657   22.7466 H   0  0  0  0  0  0
  -21.0834   -8.8766   19.8981 H   0  0  0  0  0  0
  -22.3682  -10.9660   19.6142 H   0  0  0  0  0  0
  -21.1993   -7.6164   23.9765 H   0  0  0  0  0  0
  -21.1472   -6.0509   25.9101 H   0  0  0  0  0  0
  -22.0592   -2.7615   23.2863 H   0  0  0  0  0  0
  -22.4125  -11.9976   22.4887 H   0  0  0  0  0  0
  -21.1142  -13.1323   22.2549 H   0  0  0  0  0  0
  -24.6600  -15.8380   20.5203 H   0  0  0  0  0  0
  -26.2850  -15.6429   20.1138 H   0  0  0  0  0  0
  -26.7142  -32.5514   23.1161 H   0  0  0  0  0  0
  -25.0066  -33.9789   25.0483 H   0  0  0  0  0  0
  -22.6999  -31.3124   21.4182 H   0  0  0  0  0  0
  -23.3757  -35.9613   23.3328 H   0  0  0  0  0  0
  -24.3567  -36.8888   22.2050 H   0  0  0  0  0  0
  -23.7195  -37.6504   23.6628 H   0  0  0  0  0  0
  -26.0670  -31.5809   20.6031 H   0  0  0  0  0  0
  -26.8281  -30.8659   21.9969 H   0  0  0  0  0  0
  -28.0981  -29.0427   21.2058 H   0  0  0  0  0  0
  -25.9754  -25.9687   19.0107 H   0  0  0  0  0  0
  -23.9640  -27.3142   19.0332 H   0  0  0  0  0  0
  -23.7311  -30.6109   19.4119 H   0  0  0  0  0  0
  -22.7386  -29.2592   19.8662 H   0  0  0  0  0  0
  -25.1280  -36.2009   25.0844 H   0  0  0  0  0  0
  -20.9959  -28.3239   24.1425 H   0  0  0  0  0  0
  -20.5704  -26.2287   23.3599 H   0  0  0  0  0  0
  -21.6647  -26.7477   22.1180 H   0  0  0  0  0  0
  -19.6925  -25.6291   21.1248 H   0  0  0  0  0  0
  -19.6697  -27.3184   20.6735 H   0  0  0  0  0  0
  -17.4209  -26.6681   21.4021 H   0  0  0  0  0  0
  -18.0342  -26.0056   22.9011 H   0  0  0  0  0  0
  -19.7935  -30.7269   24.2269 H   0  0  0  0  0  0
  -17.5017  -31.6276   24.5150 H   0  0  0  0  0  0
  -15.5355  -30.2990   23.7653 H   0  0  0  0  0  0
  -15.8666  -28.0807   22.7094 H   0  0  0  0  0  0
  -24.5877  -30.7119   25.7784 H   0  0  0  0  0  0
  -24.8927  -32.2884   26.4965 H   0  0  0  0  0  0
  -25.8035  -30.8849   27.0219 H   0  0  0  0  0  0
  -26.2855  -29.6844   24.1185 H   0  0  0  0  0  0
  -27.4053  -29.7312   25.4615 H   0  0  0  0  0  0
  -27.8702  -30.4405   23.9327 H   0  0  0  0  0  0
  -27.2706  -33.3651   26.2091 H   0  0  0  0  0  0
  -28.3843  -32.6905   25.0292 H   0  0  0  0  0  0
  -28.0756  -31.8460   26.5386 H   0  0  0  0  0  0
  -28.2622  -38.0096   24.7546 H   0  0  0  0  0  0
  -28.1075  -36.2640   24.6268 H   0  0  0  0  0  0
  -27.2312  -37.1413   25.8876 H   0  0  0  0  0  0
  -20.9351  -29.8741   21.6899 H   0  0  0  0  0  0
  -26.0202  -38.2898   24.1421 H   0  0  0  0  0  0
  -33.9224  -18.3890   21.9650 H   0  0  0  0  0  0
  -32.6546  -20.4094   21.4673 H   0  0  0  0  0  0
  -32.8663  -16.1664   21.9137 H   0  0  0  0  0  0
  -29.1240  -17.9899   20.7554 H   0  0  0  0  0  0
  -26.8429  -22.8169   20.7296 H   0  0  0  0  0  0
  -27.4918  -21.2630   21.1409 H   0  0  0  0  0  0
  -27.6238  -21.8576   19.4724 H   0  0  0  0  0  0
  -28.5884  -16.3189   24.3811 H   0  0  0  0  0  0
  -29.0864  -17.5490   23.2583 H   0  0  0  0  0  0
  -30.3013  -16.5977   24.1158 H   0  0  0  0  0  0
  -27.2772  -25.0816   21.2176 H   0  0  0  0  0  0
  -27.5873  -24.7336   19.5180 H   0  0  0  0  0  0
  -28.3037  -15.4376   22.0901 H   0  0  0  0  0  0
  -29.5152  -14.5402   23.0441 H   0  0  0  0  0  0
  -29.0127  -20.3903   20.5100 H   0  0  0  0  0  0
  -30.9199  -24.1915   21.4229 H   0  0  0  0  0  0
  1 25  1  0  0  0
  1 30  2  0  0  0
  1 85  1  0  0  0
  2  3  1  0  0  0
  2 25  1  0  0  0
  2 88  1  0  0  0
  2 89  1  0  0  0
  3  4  1  0  0  0
  3 90  1  0  0  0
  3 91  1  0  0  0
  4  5  1  0  0  0
  4 92  1  0  0  0
  4 93  1  0  0  0
  5  6  1  0  0  0
  5 26  1  0  0  0
  5 94  1  0  0  0
  6 25  1  0  0  0
  6 95  1  0  0  0
  6 96  1  0  0  0
  7  8  2  0  0  0
  7 26  1  0  0  0
  7 29  1  0  0  0
  8  9  1  0  0  0
  8 22  1  0  0  0
  9 10  1  0  0  0
  9 27  2  0  0  0
 10 11  2  0  0  0
 10 15  1  0  0  0
 11 12  1  0  0  0
 11 97  1  0  0  0
 12 13  2  0  0  0
 12 98  1  0  0  0
 13 14  1  0  0  0
 13 31  1  0  0  0
 14 15  2  0  0  0
 14 99  1  0  0  0
 15100  1  0  0  0
 16 17  2  0  0  0
 16 21  1  0  0  0
 16 31  1  0  0  0
 17 18  1  0  0  0
 17101  1  0  0  0
 18 19  2  0  0  0
 18102  1  0  0  0
 19 20  1  0  0  0
 19 24  1  0  0  0
 20 21  2  0  0  0
 20103  1  0  0  0
 21 23  1  0  0  0
 22 28  1  0  0  0
 22 32  2  0  0  0
 26 27  1  0  0  0
 28104  1  0  0  0
 28105  1  0  0  0
 29106  1  0  0  0
 29107  1  0  0  0
 33 34  1  0  0  0
 33 66  1  0  0  0
 33 70  2  0  0  0
 34 36  1  0  0  0
 34 59  1  0  0  0
 34108  1  0  0  0
 35 44  2  0  0  0
 35 45  1  0  0  0
 35 68  1  0  0  0
 36 56  1  0  0  0
 36109  1  0  0  0
 37 39  1  0  0  0
 37 47  1  0  0  0
 37 66  1  0  0  0
 37110  1  0  0  0
 38 43  2  0  0  0
 38 46  1  0  0  0
 38 47  1  0  0  0
 39 64  1  0  0  0
 39 67  2  0  0  0
 40 52  1  0  0  0
 40 53  2  0  0  0
 40 58  1  0  0  0
 41111  1  0  0  0
 41112  1  0  0  0
 41113  1  0  0  0
 41 48  1  0  0  0
 42 43  1  0  0  0
 42 66  1  0  0  0
 42114  1  0  0  0
 42115  1  0  0  0
 43 44  1  0  0  0
 44116  1  0  0  0
 45 46  2  0  0  0
 45117  1  0  0  0
 46118  1  0  0  0
 47119  1  0  0  0
 47120  1  0  0  0
 48 56  1  0  0  0
 48 65  1  0  0  0
 48121  1  0  0  0
 49 50  1  0  0  0
 49 53  1  0  0  0
 49 64  1  0  0  0
 49122  1  0  0  0
 50 51  1  0  0  0
 50123  1  0  0  0
 50124  1  0  0  0
 51 52  1  0  0  0
 51125  1  0  0  0
 51126  1  0  0  0
 52127  1  0  0  0
 52128  1  0  0  0
 53 54  1  0  0  0
 54 55  2  0  0  0
 54129  1  0  0  0
 55 57  1  0  0  0
 55130  1  0  0  0
 56 69  2  0  0  0
 57 58  2  0  0  0
 57131  1  0  0  0
 58132  1  0  0  0
 59 60  1  0  0  0
 59 61  1  0  0  0
 59 62  1  0  0  0
 60133  1  0  0  0
 60134  1  0  0  0
 60135  1  0  0  0
 61136  1  0  0  0
 61137  1  0  0  0
 61138  1  0  0  0
 62139  1  0  0  0
 62140  1  0  0  0
 62141  1  0  0  0
 63 65  1  0  0  0
 63142  1  0  0  0
 63143  1  0  0  0
 63144  1  0  0  0
 64145  1  0  0  0
 65146  1  0  0  0
 68 82  1  0  0  0
 71 72  2  0  0  0
 71 73  1  0  0  0
 71147  1  0  0  0
 72 75  1  0  0  0
 72148  1  0  0  0
 73 76  2  0  0  0
 73149  1  0  0  0
 74 75  2  0  0  0
 74 76  1  0  0  0
 74150  1  0  0  0
 75 84  1  0  0  0
 76 85  1  0  0  0
 77 78  2  0  0  0
 77 79  1  0  0  0
 77 80  1  0  0  0
 78 82  1  0  0  0
 78 87  1  0  0  0
 79 84  1  0  0  0
 79 86  2  0  0  0
 80151  1  0  0  0
 80152  1  0  0  0
 80153  1  0  0  0
 81 83  1  0  0  0
 81154  1  0  0  0
 81155  1  0  0  0
 81156  1  0  0  0
 82157  1  0  0  0
 82158  1  0  0  0
 83 85  1  0  0  0
 83159  1  0  0  0
 83160  1  0  0  0
 84161  1  0  0  0
 87162  1  0  0  0
M  ISO  4   1 100  68 101  82 101  85 100
M  END
> <chiral flag>
0

> <version>
0

> <s_m_source_file>
/data/baiqing/PycharmProjects/Reinvent-master-3.2/result/LINK_invent/BTK/process_docking_weight1_custom_product_contain_oxygen_bond_distance_aromatic_linkinvent_7_9_3/rearranged_h_0179.sdf

> <i_m_source_file_index>
30

> <r_mmod_Potential_Energy-OPLS-2005>
263.067779541016

> <r_mmod_Stretch_Energy-OPLS-2005>
74.0422744750977

> <r_mmod_Bend_Energy-OPLS-2005>
152.645294189453

> <r_mmod_Torsional_Energy-OPLS-2005>
297.061889648438

> <r_mmod_Improper_Torsional_Energy-OPLS-2005>
3.51910638809204

> <r_mmod_Van_der_Waal_Energy-OPLS-2005>
200.960662841797

> <r_mmod_Electrostatic_Energy-OPLS-2005>
-275.0048828125

> <r_mmod_Solvation_Energy-OPLS-2005>
-214.151763916016

> <b_mmod_Minimization_Converged-OPLS-2005>
0

> <r_mmod_RMS_Derivative-OPLS-2005>
3.20785760879517

$$$$
30
                    3D
 Structure written by MMmdl.
157165  0  0  1  0            999 V2000
  -30.6592  -14.5403   20.5259 C   0  0  0  0  0  0
  -30.4331  -12.3330   19.4365 C   0  0  0  0  0  0
  -29.5019  -12.5036   18.2164 C   0  0  0  0  0  0
  -28.0207  -12.3664   18.6222 C   0  0  0  0  0  0
  -27.6602  -13.2111   19.8731 C   0  0  2  0  0  0
  -28.7031  -13.0071   20.9952 C   0  0  0  0  0  0
  -25.2577  -13.8183   20.5665 C   0  0  0  0  0  0
  -24.1841  -13.0446   20.9196 C   0  0  0  0  0  0
  -24.6400  -11.6922   20.8737 C   0  0  0  0  0  0
  -23.9073  -10.4304   21.0412 C   0  0  0  0  0  0
  -24.3620   -9.4218   21.9188 C   0  0  0  0  0  0
  -23.6288   -8.2249   22.0754 C   0  0  0  0  0  0
  -22.4265   -8.0296   21.3548 C   0  0  0  0  0  0
  -21.9921   -9.0270   20.4645 C   0  0  0  0  0  0
  -22.7253  -10.2146   20.3059 C   0  0  0  0  0  0
  -21.6849   -6.0748   22.5286 C   0  0  0  0  0  0
  -21.4001   -6.5644   23.8223 C   0  0  0  0  0  0
  -21.3662   -5.6791   24.9184 C   0  0  0  0  0  0
  -21.6047   -4.3057   24.7224 C   0  0  0  0  0  0
  -21.8822   -3.8156   23.4343 C   0  0  0  0  0  0
  -21.9187   -4.6973   22.3403 C   0  0  0  0  0  0
  -22.7862  -13.5241   21.1857 C   0  0  0  0  0  0
  -22.1665   -4.2163   21.0977 F   0  0  0  0  0  0
  -21.5634   -3.4536   25.7736 F   0  0  0  0  0  0
  -30.0314  -13.3292   20.4447 N   0  0  0  0  0  0
  -26.3012  -12.9347   20.3348 N   0  0  0  0  0  0
  -25.9325  -11.6513   20.5759 N   0  0  0  0  0  0
  -22.0484  -12.8234   22.0402 N   0  0  0  0  0  0
  -25.4307  -15.1900   20.4055 N   0  0  0  0  0  0
  -31.7992  -14.7174   20.0835 O   0  0  0  0  0  0
  -21.6641   -6.8888   21.4242 O   0  0  0  0  0  0
  -22.3558  -14.5555   20.6718 O   0  0  0  0  0  0
  -24.6216  -31.8645   23.2033 C   0  0  0  0  0  0
  -25.9069  -32.4796   23.8368 C   0  0  1  0  0  0
  -27.2398  -27.3820   20.0856 C   0  0  0  0  0  0
  -25.5870  -33.8577   24.2320 N   0  0  0  0  0  0
  -23.4144  -30.4840   21.5443 C   0  0  2  0  0  0
  -24.8616  -28.9400   20.1100 C   0  0  0  0  0  0
  -22.7463  -29.4602   22.4945 C   0  0  0  0  0  0
  -18.0281  -28.1351   22.8493 C   0  0  0  0  0  0
  -24.1491  -36.7312   23.2627 C   0  0  0  0  0  0
  -25.9475  -30.8068   21.3720 C   0  0  0  0  0  0
  -26.0232  -29.4367   20.7153 C   0  0  0  0  0  0
  -27.2099  -28.6600   20.7087 C   0  0  0  0  0  0
  -26.0568  -26.9118   19.4735 C   0  0  0  0  0  0
  -24.8750  -27.6782   19.4868 C   0  0  0  0  0  0
  -23.6280  -29.8130   20.1608 C   0  0  0  0  0  0
  -25.4105  -36.3087   24.0338 C   0  0  1  0  0  0
  -20.5879  -28.3641   23.1300 C   0  0  2  0  0  0
  -20.6765  -26.9384   22.5393 C   0  0  0  0  0  0
  -19.5742  -26.6366   21.5175 C   0  0  0  0  0  0
  -18.1919  -26.7908   22.1598 C   0  0  0  0  0  0
  -19.1530  -28.8814   23.2902 C   0  0  0  0  0  0
  -18.9474  -30.1424   23.8913 C   0  0  0  0  0  0
  -17.6473  -30.6576   24.0541 C   0  0  0  0  0  0
  -25.9026  -34.9445   23.5138 C   0  0  0  0  0  0
  -16.5361  -29.9082   23.6301 C   0  0  0  0  0  0
  -16.7266  -28.6476   23.0356 C   0  0  0  0  0  0
  -26.4456  -31.6571   25.0712 C   0  0  0  0  0  0
  -25.3713  -31.3674   26.1449 C   0  0  0  0  0  0
  -27.0275  -30.3003   24.6110 C   0  0  0  0  0  0
  -27.6059  -32.4267   25.7471 C   0  0  0  0  0  0
  -27.5606  -37.1792   24.8441 C   0  0  0  0  0  0
  -21.4166  -29.3010   22.3708 N   0  0  0  0  0  0
  -26.4288  -37.3789   23.9406 N   0  0  0  0  0  0
  -24.6797  -31.0688   22.0968 N   0  0  0  0  0  0
  -23.4192  -28.8142   23.3018 O   0  0  0  0  0  0
  -28.3978  -26.6146   20.1357 O   0  0  0  0  0  0
  -26.5618  -34.8915   22.4722 O   0  0  0  0  0  0
  -23.5385  -32.1413   23.7377 O   0  0  0  0  0  0
  -29.6299  -19.4682   20.7848 C   0  0  0  0  0  0
  -30.4831  -18.9794   19.8086 C   0  0  0  0  0  0
  -29.9535  -16.9690   20.7998 C   0  0  0  0  0  0
  -29.2586  -20.8379   21.2997 C   0  0  0  0  0  0
  -28.2546  -24.1066   19.5663 C   0  0  0  0  0  0
  -28.0848  -23.6446   21.9935 C   0  0  0  0  0  0
  -30.3865  -23.8910   20.9540 C   0  0  0  0  0  0
  -28.6389  -25.5694   19.1566 C   0  0  0  0  0  0
  -28.9552  -23.3548   20.7445 C   0  0  0  0  0  0
  -30.6385  -17.5785   19.8169 N   0  0  0  0  0  0
  -31.2161  -19.7210   18.8768 N   0  0  0  0  0  0
  -29.9085  -15.5480   21.0333 N   0  0  0  0  0  0
  -29.0743  -21.8818   20.4447 N   0  0  0  0  0  0
  -29.1524  -20.9827   22.5197 O   0  0  0  0  0  0
  -27.3734  -23.5171   18.9307 O   0  0  0  0  0  0
  -29.0096  -18.1213   21.7478 S   0  0  0  0  0  0
  -31.4750  -12.4469   19.1334 H   0  0  0  0  0  0
  -30.3535  -11.3246   19.8473 H   0  0  0  0  0  0
  -29.7454  -11.7672   17.4502 H   0  0  0  0  0  0
  -29.6687  -13.4817   17.7629 H   0  0  0  0  0  0
  -27.8281  -11.3120   18.8207 H   0  0  0  0  0  0
  -27.3764  -12.6401   17.7860 H   0  0  0  0  0  0
  -27.6980  -14.2565   19.5675 H   0  0  0  0  0  0
  -28.6874  -11.9716   21.3398 H   0  0  0  0  0  0
  -28.4587  -13.6077   21.8716 H   0  0  0  0  0  0
  -25.2754   -9.5694   22.4782 H   0  0  0  0  0  0
  -24.0003   -7.4641   22.7476 H   0  0  0  0  0  0
  -21.0860   -8.8786   19.8947 H   0  0  0  0  0  0
  -22.3706  -10.9688   19.6181 H   0  0  0  0  0  0
  -21.1984   -7.6149   23.9726 H   0  0  0  0  0  0
  -21.1486   -6.0523   25.9087 H   0  0  0  0  0  0
  -22.0592   -2.7615   23.2836 H   0  0  0  0  0  0
  -22.4059  -11.9870   22.4783 H   0  0  0  0  0  0
  -21.1106  -13.1286   22.2594 H   0  0  0  0  0  0
  -24.6609  -15.8435   20.5063 H   0  0  0  0  0  0
  -26.2734  -15.6229   20.0488 H   0  0  0  0  0  0
  -26.7164  -32.5474   23.1147 H   0  0  0  0  0  0
  -24.9929  -33.9703   25.0387 H   0  0  0  0  0  0
  -22.7045  -31.3002   21.4008 H   0  0  0  0  0  0
  -23.3745  -35.9642   23.3223 H   0  0  0  0  0  0
  -24.3600  -36.8982   22.2056 H   0  0  0  0  0  0
  -23.7246  -37.6491   23.6687 H   0  0  0  0  0  0
  -26.0784  -31.5731   20.6064 H   0  0  0  0  0  0
  -26.8263  -30.8523   22.0007 H   0  0  0  0  0  0
  -28.1028  -29.0343   21.1899 H   0  0  0  0  0  0
  -26.0187  -25.9380   19.0051 H   0  0  0  0  0  0
  -23.9803  -27.2860   19.0214 H   0  0  0  0  0  0
  -23.7489  -30.5852   19.3995 H   0  0  0  0  0  0
  -22.7524  -29.2338   19.8627 H   0  0  0  0  0  0
  -25.1307  -36.1947   25.0840 H   0  0  0  0  0  0
  -20.9989  -28.3236   24.1417 H   0  0  0  0  0  0
  -20.5624  -26.2263   23.3584 H   0  0  0  0  0  0
  -21.6658  -26.7404   22.1246 H   0  0  0  0  0  0
  -19.6886  -25.6273   21.1204 H   0  0  0  0  0  0
  -19.6690  -27.3169   20.6705 H   0  0  0  0  0  0
  -17.4203  -26.6633   21.4005 H   0  0  0  0  0  0
  -18.0345  -26.0052   22.9007 H   0  0  0  0  0  0
  -19.7952  -30.7208   24.2314 H   0  0  0  0  0  0
  -17.5033  -31.6259   24.5143 H   0  0  0  0  0  0
  -15.5356  -30.2983   23.7609 H   0  0  0  0  0  0
  -15.8663  -28.0784   22.7085 H   0  0  0  0  0  0
  -24.5943  -30.6975   25.7755 H   0  0  0  0  0  0
  -24.8817  -32.2802   26.4883 H   0  0  0  0  0  0
  -25.8076  -30.8869   27.0223 H   0  0  0  0  0  0
  -26.2839  -29.6754   24.1165 H   0  0  0  0  0  0
  -27.4008  -29.7271   25.4597 H   0  0  0  0  0  0
  -27.8695  -30.4265   23.9299 H   0  0  0  0  0  0
  -27.2747  -33.3594   26.2066 H   0  0  0  0  0  0
  -28.3873  -32.6777   25.0279 H   0  0  0  0  0  0
  -28.0708  -31.8344   26.5360 H   0  0  0  0  0  0
  -28.2568  -38.0154   24.7603 H   0  0  0  0  0  0
  -28.1190  -36.2705   24.6155 H   0  0  0  0  0  0
  -27.2338  -37.1281   25.8842 H   0  0  0  0  0  0
  -20.9332  -29.8777   21.6969 H   0  0  0  0  0  0
  -26.0178  -38.2847   24.1468 H   0  0  0  0  0  0
  -27.8497  -24.7050   22.0847 H   0  0  0  0  0  0
  -28.5829  -23.3685   22.9241 H   0  0  0  0  0  0
  -27.1362  -23.1070   21.9501 H   0  0  0  0  0  0
  -30.3979  -24.9594   21.1788 H   0  0  0  0  0  0
  -31.0111  -23.7274   20.0737 H   0  0  0  0  0  0
  -30.8707  -23.3882   21.7918 H   0  0  0  0  0  0
  -28.1584  -25.8194   18.2111 H   0  0  0  0  0  0
  -29.7042  -25.5733   18.9360 H   0  0  0  0  0  0
  -31.3458  -20.7183   19.0051 H   0  0  0  0  0  0
  -31.9811  -19.2682   18.3884 H   0  0  0  0  0  0
  -29.0969  -15.2358   21.5412 H   0  0  0  0  0  0
  -29.0744  -21.6505   19.4594 H   0  0  0  0  0  0
  1 25  1  0  0  0
  1 30  2  0  0  0
  1 82  1  0  0  0
  2  3  1  0  0  0
  2 25  1  0  0  0
  2 87  1  0  0  0
  2 88  1  0  0  0
  3  4  1  0  0  0
  3 89  1  0  0  0
  3 90  1  0  0  0
  4  5  1  0  0  0
  4 91  1  0  0  0
  4 92  1  0  0  0
  5  6  1  0  0  0
  5 26  1  0  0  0
  5 93  1  0  0  0
  6 25  1  0  0  0
  6 94  1  0  0  0
  6 95  1  0  0  0
  7  8  2  0  0  0
  7 26  1  0  0  0
  7 29  1  0  0  0
  8  9  1  0  0  0
  8 22  1  0  0  0
  9 10  1  0  0  0
  9 27  2  0  0  0
 10 11  2  0  0  0
 10 15  1  0  0  0
 11 12  1  0  0  0
 11 96  1  0  0  0
 12 13  2  0  0  0
 12 97  1  0  0  0
 13 14  1  0  0  0
 13 31  1  0  0  0
 14 15  2  0  0  0
 14 98  1  0  0  0
 15 99  1  0  0  0
 16 17  2  0  0  0
 16 21  1  0  0  0
 16 31  1  0  0  0
 17 18  1  0  0  0
 17100  1  0  0  0
 18 19  2  0  0  0
 18101  1  0  0  0
 19 20  1  0  0  0
 19 24  1  0  0  0
 20 21  2  0  0  0
 20102  1  0  0  0
 21 23  1  0  0  0
 22 28  1  0  0  0
 22 32  2  0  0  0
 26 27  1  0  0  0
 28103  1  0  0  0
 28104  1  0  0  0
 29105  1  0  0  0
 29106  1  0  0  0
 33 34  1  0  0  0
 33 66  1  0  0  0
 33 70  2  0  0  0
 34 36  1  0  0  0
 34 59  1  0  0  0
 34107  1  0  0  0
 35 44  2  0  0  0
 35 45  1  0  0  0
 35 68  1  0  0  0
 36 56  1  0  0  0
 36108  1  0  0  0
 37 39  1  0  0  0
 37 47  1  0  0  0
 37 66  1  0  0  0
 37109  1  0  0  0
 38 43  2  0  0  0
 38 46  1  0  0  0
 38 47  1  0  0  0
 39 64  1  0  0  0
 39 67  2  0  0  0
 40 52  1  0  0  0
 40 53  2  0  0  0
 40 58  1  0  0  0
 41110  1  0  0  0
 41111  1  0  0  0
 41112  1  0  0  0
 41 48  1  0  0  0
 42 43  1  0  0  0
 42 66  1  0  0  0
 42113  1  0  0  0
 42114  1  0  0  0
 43 44  1  0  0  0
 44115  1  0  0  0
 45 46  2  0  0  0
 45116  1  0  0  0
 46117  1  0  0  0
 47118  1  0  0  0
 47119  1  0  0  0
 48 56  1  0  0  0
 48 65  1  0  0  0
 48120  1  0  0  0
 49 50  1  0  0  0
 49 53  1  0  0  0
 49 64  1  0  0  0
 49121  1  0  0  0
 50 51  1  0  0  0
 50122  1  0  0  0
 50123  1  0  0  0
 51 52  1  0  0  0
 51124  1  0  0  0
 51125  1  0  0  0
 52126  1  0  0  0
 52127  1  0  0  0
 53 54  1  0  0  0
 54 55  2  0  0  0
 54128  1  0  0  0
 55 57  1  0  0  0
 55129  1  0  0  0
 56 69  2  0  0  0
 57 58  2  0  0  0
 57130  1  0  0  0
 58131  1  0  0  0
 59 60  1  0  0  0
 59 61  1  0  0  0
 59 62  1  0  0  0
 60132  1  0  0  0
 60133  1  0  0  0
 60134  1  0  0  0
 61135  1  0  0  0
 61136  1  0  0  0
 61137  1  0  0  0
 62138  1  0  0  0
 62139  1  0  0  0
 62140  1  0  0  0
 63 65  1  0  0  0
 63141  1  0  0  0
 63142  1  0  0  0
 63143  1  0  0  0
 64144  1  0  0  0
 65145  1  0  0  0
 68 78  1  0  0  0
 71 72  2  0  0  0
 71 74  1  0  0  0
 71 86  1  0  0  0
 72 80  1  0  0  0
 72 81  1  0  0  0
 73 80  2  0  0  0
 73 82  1  0  0  0
 73 86  1  0  0  0
 74 83  1  0  0  0
 74 84  2  0  0  0
 75 78  1  0  0  0
 75 79  1  0  0  0
 75 85  2  0  0  0
 76146  1  0  0  0
 76147  1  0  0  0
 76148  1  0  0  0
 76 79  1  0  0  0
 77 79  1  0  0  0
 77149  1  0  0  0
 77150  1  0  0  0
 77151  1  0  0  0
 78152  1  0  0  0
 78153  1  0  0  0
 79 83  1  0  0  0
 81154  1  0  0  0
 81155  1  0  0  0
 82156  1  0  0  0
 83157  1  0  0  0
M  ISO  4   1 100  68 101  78 101  82 100
M  END
> <chiral flag>
0

> <version>
0

> <s_m_source_file>
/data/baiqing/PycharmProjects/Reinvent-master-3.2/result/LINK_invent/BTK/process_docking_weight1_custom_product_contain_oxygen_bond_distance_aromatic_linkinvent_7_9_3/rearranged_h_0179.sdf

> <i_m_source_file_index>
31

> <r_mmod_Potential_Energy-OPLS-2005>
-77.6491241455078

> <r_mmod_Stretch_Energy-OPLS-2005>
54.9565238952637

> <r_mmod_Bend_Energy-OPLS-2005>
137.118591308594

> <r_mmod_Torsional_Energy-OPLS-2005>
247.798950195312

> <r_mmod_Improper_Torsional_Energy-OPLS-2005>
6.27654600143433

> <r_mmod_Van_der_Waal_Energy-OPLS-2005>
128.142044067383

> <r_mmod_Electrostatic_Energy-OPLS-2005>
-419.555572509766

> <r_mmod_Solvation_Energy-OPLS-2005>
-255.728729248047

> <b_mmod_Minimization_Converged-OPLS-2005>
0

> <r_mmod_RMS_Derivative-OPLS-2005>
3.46349859237671

$$$$
31
                    3D
 Structure written by MMmdl.
150158  0  0  1  0            999 V2000
  -30.6017  -14.7333   20.4808 C   0  0  0  0  0  0
  -30.4425  -12.4480   19.4761 C   0  0  0  0  0  0
  -29.5125  -12.5062   18.2417 C   0  0  0  0  0  0
  -28.0381  -12.3321   18.6545 C   0  0  0  0  0  0
  -27.6495  -13.2262   19.8610 C   0  0  2  0  0  0
  -28.6932  -13.1313   20.9971 C   0  0  0  0  0  0
  -25.2550  -13.8197   20.5703 C   0  0  0  0  0  0
  -24.1818  -13.0452   20.9200 C   0  0  0  0  0  0
  -24.6397  -11.6924   20.8749 C   0  0  0  0  0  0
  -23.9069  -10.4299   21.0404 C   0  0  0  0  0  0
  -24.3614   -9.4210   21.9180 C   0  0  0  0  0  0
  -23.6290   -8.2245   22.0753 C   0  0  0  0  0  0
  -22.4274   -8.0282   21.3543 C   0  0  0  0  0  0
  -21.9910   -9.0256   20.4644 C   0  0  0  0  0  0
  -22.7240  -10.2136   20.3052 C   0  0  0  0  0  0
  -21.6852   -6.0734   22.5274 C   0  0  0  0  0  0
  -21.4012   -6.5640   23.8205 C   0  0  0  0  0  0
  -21.3657   -5.6793   24.9168 C   0  0  0  0  0  0
  -21.6042   -4.3057   24.7220 C   0  0  0  0  0  0
  -21.8821   -3.8148   23.4342 C   0  0  0  0  0  0
  -21.9194   -4.6962   22.3396 C   0  0  0  0  0  0
  -22.7836  -13.5233   21.1846 C   0  0  0  0  0  0
  -22.1664   -4.2148   21.0973 F   0  0  0  0  0  0
  -21.5627   -3.4541   25.7736 F   0  0  0  0  0  0
  -30.0029  -13.4918   20.4329 N   0  0  0  0  0  0
  -26.2977  -12.9392   20.3319 N   0  0  0  0  0  0
  -25.9331  -11.6542   20.5773 N   0  0  0  0  0  0
  -22.0480  -12.8223   22.0401 N   0  0  0  0  0  0
  -25.4290  -15.1914   20.4130 N   0  0  0  0  0  0
  -31.7545  -14.8814   20.0635 O   0  0  0  0  0  0
  -21.6641   -6.8878   21.4236 O   0  0  0  0  0  0
  -22.3520  -14.5532   20.6688 O   0  0  0  0  0  0
  -24.6327  -31.8531   23.1979 C   0  0  0  0  0  0
  -25.9147  -32.4739   23.8314 C   0  0  1  0  0  0
  -27.2068  -27.2390   20.1362 C   0  0  0  0  0  0
  -25.5934  -33.8540   24.2221 N   0  0  0  0  0  0
  -23.4306  -30.4766   21.5419 C   0  0  2  0  0  0
  -24.8779  -28.9296   20.1010 C   0  0  0  0  0  0
  -22.7514  -29.4577   22.4893 C   0  0  0  0  0  0
  -18.0288  -28.1387   22.8470 C   0  0  0  0  0  0
  -24.1487  -36.7277   23.2639 C   0  0  0  0  0  0
  -25.9789  -30.7590   21.3844 C   0  0  0  0  0  0
  -26.0501  -29.3835   20.7201 C   0  0  0  0  0  0
  -27.2189  -28.5509   20.7270 C   0  0  0  0  0  0
  -26.0234  -26.8798   19.4516 C   0  0  0  0  0  0
  -24.8721  -27.6879   19.4520 C   0  0  0  0  0  0
  -23.6492  -29.8178   20.1555 C   0  0  0  0  0  0
  -25.4117  -36.3054   24.0318 C   0  0  1  0  0  0
  -20.5893  -28.3694   23.1248 C   0  0  2  0  0  0
  -20.6775  -26.9402   22.5401 C   0  0  0  0  0  0
  -19.5748  -26.6379   21.5204 C   0  0  0  0  0  0
  -18.1928  -26.7930   22.1617 C   0  0  0  0  0  0
  -19.1545  -28.8860   23.2853 C   0  0  0  0  0  0
  -18.9470  -30.1456   23.8871 C   0  0  0  0  0  0
  -17.6472  -30.6588   24.0554 C   0  0  0  0  0  0
  -25.9068  -34.9426   23.5077 C   0  0  0  0  0  0
  -16.5355  -29.9080   23.6346 C   0  0  0  0  0  0
  -16.7278  -28.6502   23.0355 C   0  0  0  0  0  0
  -26.4513  -31.6584   25.0721 C   0  0  0  0  0  0
  -25.3723  -31.3753   26.1436 C   0  0  0  0  0  0
  -27.0372  -30.2989   24.6252 C   0  0  0  0  0  0
  -27.6050  -32.4349   25.7489 C   0  0  0  0  0  0
  -27.5583  -37.1770   24.8457 C   0  0  0  0  0  0
  -21.4214  -29.3030   22.3636 N   0  0  0  0  0  0
  -26.4279  -37.3763   23.9422 N   0  0  0  0  0  0
  -24.6995  -31.0480   22.0970 N   0  0  0  0  0  0
  -23.4200  -28.8121   23.3010 O   0  0  0  0  0  0
  -28.2611  -26.2920   20.2485 O   0  0  0  0  0  0
  -26.5656  -34.8916   22.4650 O   0  0  0  0  0  0
  -23.5479  -32.1353   23.7281 O   0  0  0  0  0  0
  -29.4396  -17.7247   19.3372 C   0  0  0  0  0  0
  -29.3197  -19.1740   19.3170 C   0  0  0  0  0  0
  -29.6018  -19.8436   20.4871 C   0  0  0  0  0  0
  -29.8246  -17.1648   20.5426 C   0  0  0  0  0  0
  -29.7624  -21.3406   20.8862 C   0  0  0  0  0  0
  -29.1332  -23.7697   20.5665 C   0  0  0  0  0  0
  -26.8844  -24.5343   21.3977 C   0  0  0  0  0  0
  -27.9319  -24.8009   20.2873 C   0  0  1  0  0  0
  -29.8399  -15.8065   20.9106 N   0  0  0  0  0  0
  -28.9894  -22.3872   20.3860 N   0  0  0  0  0  0
  -30.6387  -21.5614   21.7301 O   0  0  0  0  0  0
  -30.1864  -24.2681   20.9802 O   0  0  0  0  0  0
  -28.9773  -19.8004   18.2147 F   0  0  0  0  0  0
  -30.0615  -18.5548   21.6556 S   0  0  0  0  0  0
  -31.4800  -12.5823   19.1662 H   0  0  0  0  0  0
  -30.3998  -11.4649   19.9466 H   0  0  0  0  0  0
  -29.7905  -11.7345   17.5235 H   0  0  0  0  0  0
  -29.6375  -13.4606   17.7295 H   0  0  0  0  0  0
  -27.8890  -11.2823   18.9124 H   0  0  0  0  0  0
  -27.3803  -12.5291   17.8080 H   0  0  0  0  0  0
  -27.6544  -14.2517   19.4926 H   0  0  0  0  0  0
  -28.7234  -12.1209   21.4070 H   0  0  0  0  0  0
  -28.4210  -13.7837   21.8277 H   0  0  0  0  0  0
  -25.2756   -9.5687   22.4756 H   0  0  0  0  0  0
  -23.9999   -7.4636   22.7473 H   0  0  0  0  0  0
  -21.0843   -8.8771   19.8946 H   0  0  0  0  0  0
  -22.3693  -10.9675   19.6158 H   0  0  0  0  0  0
  -21.2003   -7.6148   23.9705 H   0  0  0  0  0  0
  -21.1477   -6.0525   25.9069 H   0  0  0  0  0  0
  -22.0604   -2.7612   23.2842 H   0  0  0  0  0  0
  -22.4109  -11.9887   22.4792 H   0  0  0  0  0  0
  -21.1089  -13.1230   22.2597 H   0  0  0  0  0  0
  -24.6680  -15.8524   20.5249 H   0  0  0  0  0  0
  -26.2842  -15.6253   20.0890 H   0  0  0  0  0  0
  -26.7206  -32.5383   23.1047 H   0  0  0  0  0  0
  -25.0032  -33.9666   25.0336 H   0  0  0  0  0  0
  -22.7281  -31.3003   21.3997 H   0  0  0  0  0  0
  -23.3759  -35.9604   23.3285 H   0  0  0  0  0  0
  -24.3579  -36.8928   22.2055 H   0  0  0  0  0  0
  -23.7229  -37.6462   23.6689 H   0  0  0  0  0  0
  -26.1266  -31.5229   20.6204 H   0  0  0  0  0  0
  -26.8525  -30.7996   22.0240 H   0  0  0  0  0  0
  -28.1090  -28.8837   21.2421 H   0  0  0  0  0  0
  -25.9454  -25.9322   18.9416 H   0  0  0  0  0  0
  -23.9802  -27.3397   18.9478 H   0  0  0  0  0  0
  -23.7705  -30.5980   19.4025 H   0  0  0  0  0  0
  -22.7663  -29.2522   19.8532 H   0  0  0  0  0  0
  -25.1289  -36.1891   25.0812 H   0  0  0  0  0  0
  -20.9980  -28.3291   24.1370 H   0  0  0  0  0  0
  -20.5673  -26.2303   23.3609 H   0  0  0  0  0  0
  -21.6641  -26.7419   22.1184 H   0  0  0  0  0  0
  -19.6910  -25.6295   21.1228 H   0  0  0  0  0  0
  -19.6698  -27.3202   20.6741 H   0  0  0  0  0  0
  -17.4193  -26.6674   21.4021 H   0  0  0  0  0  0
  -18.0310  -26.0081   22.9022 H   0  0  0  0  0  0
  -19.7959  -30.7258   24.2238 H   0  0  0  0  0  0
  -17.5041  -31.6273   24.5146 H   0  0  0  0  0  0
  -15.5359  -30.2964   23.7706 H   0  0  0  0  0  0
  -15.8679  -28.0818   22.7074 H   0  0  0  0  0  0
  -24.5898  -30.7108   25.7758 H   0  0  0  0  0  0
  -24.8919  -32.2928   26.4836 H   0  0  0  0  0  0
  -25.8022  -30.8934   27.0228 H   0  0  0  0  0  0
  -26.2966  -29.6707   24.1291 H   0  0  0  0  0  0
  -27.4034  -29.7294   25.4806 H   0  0  0  0  0  0
  -27.8860  -30.4236   23.9528 H   0  0  0  0  0  0
  -27.2641  -33.3664   26.2030 H   0  0  0  0  0  0
  -28.3872  -32.6892   25.0320 H   0  0  0  0  0  0
  -28.0717  -31.8506   26.5436 H   0  0  0  0  0  0
  -28.2553  -38.0113   24.7554 H   0  0  0  0  0  0
  -28.1117  -36.2636   24.6207 H   0  0  0  0  0  0
  -27.2307  -37.1326   25.8859 H   0  0  0  0  0  0
  -20.9418  -29.8742   21.6824 H   0  0  0  0  0  0
  -26.0158  -38.2827   24.1484 H   0  0  0  0  0  0
  -29.2044  -17.1451   18.4573 H   0  0  0  0  0  0
  -26.7222  -23.4678   21.5602 H   0  0  0  0  0  0
  -25.9044  -24.9492   21.1721 H   0  0  0  0  0  0
  -27.2069  -24.9604   22.3481 H   0  0  0  0  0  0
  -27.5241  -24.5037   19.3205 H   0  0  0  0  0  0
  -29.0079  -15.5097   21.3992 H   0  0  0  0  0  0
  -28.1757  -22.1006   19.8652 H   0  0  0  0  0  0
  1 25  1  0  0  0
  1 30  2  0  0  0
  1 79  1  0  0  0
  2  3  1  0  0  0
  2 25  1  0  0  0
  2 85  1  0  0  0
  2 86  1  0  0  0
  3  4  1  0  0  0
  3 87  1  0  0  0
  3 88  1  0  0  0
  4  5  1  0  0  0
  4 89  1  0  0  0
  4 90  1  0  0  0
  5  6  1  0  0  0
  5 26  1  0  0  0
  5 91  1  0  0  0
  6 25  1  0  0  0
  6 92  1  0  0  0
  6 93  1  0  0  0
  7  8  2  0  0  0
  7 26  1  0  0  0
  7 29  1  0  0  0
  8  9  1  0  0  0
  8 22  1  0  0  0
  9 10  1  0  0  0
  9 27  2  0  0  0
 10 11  2  0  0  0
 10 15  1  0  0  0
 11 12  1  0  0  0
 11 94  1  0  0  0
 12 13  2  0  0  0
 12 95  1  0  0  0
 13 14  1  0  0  0
 13 31  1  0  0  0
 14 15  2  0  0  0
 14 96  1  0  0  0
 15 97  1  0  0  0
 16 17  2  0  0  0
 16 21  1  0  0  0
 16 31  1  0  0  0
 17 18  1  0  0  0
 17 98  1  0  0  0
 18 19  2  0  0  0
 18 99  1  0  0  0
 19 20  1  0  0  0
 19 24  1  0  0  0
 20 21  2  0  0  0
 20100  1  0  0  0
 21 23  1  0  0  0
 22 28  1  0  0  0
 22 32  2  0  0  0
 26 27  1  0  0  0
 28101  1  0  0  0
 28102  1  0  0  0
 29103  1  0  0  0
 29104  1  0  0  0
 33 34  1  0  0  0
 33 66  1  0  0  0
 33 70  2  0  0  0
 34 36  1  0  0  0
 34 59  1  0  0  0
 34105  1  0  0  0
 35 44  2  0  0  0
 35 45  1  0  0  0
 35 68  1  0  0  0
 36 56  1  0  0  0
 36106  1  0  0  0
 37 39  1  0  0  0
 37 47  1  0  0  0
 37 66  1  0  0  0
 37107  1  0  0  0
 38 43  2  0  0  0
 38 46  1  0  0  0
 38 47  1  0  0  0
 39 64  1  0  0  0
 39 67  2  0  0  0
 40 52  1  0  0  0
 40 53  2  0  0  0
 40 58  1  0  0  0
 41108  1  0  0  0
 41109  1  0  0  0
 41110  1  0  0  0
 41 48  1  0  0  0
 42 43  1  0  0  0
 42 66  1  0  0  0
 42111  1  0  0  0
 42112  1  0  0  0
 43 44  1  0  0  0
 44113  1  0  0  0
 45 46  2  0  0  0
 45114  1  0  0  0
 46115  1  0  0  0
 47116  1  0  0  0
 47117  1  0  0  0
 48 56  1  0  0  0
 48 65  1  0  0  0
 48118  1  0  0  0
 49 50  1  0  0  0
 49 53  1  0  0  0
 49 64  1  0  0  0
 49119  1  0  0  0
 50 51  1  0  0  0
 50120  1  0  0  0
 50121  1  0  0  0
 51 52  1  0  0  0
 51122  1  0  0  0
 51123  1  0  0  0
 52124  1  0  0  0
 52125  1  0  0  0
 53 54  1  0  0  0
 54 55  2  0  0  0
 54126  1  0  0  0
 55 57  1  0  0  0
 55127  1  0  0  0
 56 69  2  0  0  0
 57 58  2  0  0  0
 57128  1  0  0  0
 58129  1  0  0  0
 59 60  1  0  0  0
 59 61  1  0  0  0
 59 62  1  0  0  0
 60130  1  0  0  0
 60131  1  0  0  0
 60132  1  0  0  0
 61133  1  0  0  0
 61134  1  0  0  0
 61135  1  0  0  0
 62136  1  0  0  0
 62137  1  0  0  0
 62138  1  0  0  0
 63 65  1  0  0  0
 63139  1  0  0  0
 63140  1  0  0  0
 63141  1  0  0  0
 64142  1  0  0  0
 65143  1  0  0  0
 68 78  1  0  0  0
 71 72  1  0  0  0
 71 74  2  0  0  0
 71144  1  0  0  0
 72 73  2  0  0  0
 72 83  1  0  0  0
 73 75  1  0  0  0
 73 84  1  0  0  0
 74 79  1  0  0  0
 74 84  1  0  0  0
 75 80  1  0  0  0
 75 81  2  0  0  0
 76 78  1  0  0  0
 76 80  1  0  0  0
 76 82  2  0  0  0
 77145  1  0  0  0
 77146  1  0  0  0
 77147  1  0  0  0
 77 78  1  0  0  0
 78148  1  0  0  0
 79149  1  0  0  0
 80150  1  0  0  0
M  ISO  4   1 100  68 101  78 101  79 100
M  END
> <chiral flag>
0

> <version>
0

> <s_m_source_file>
/data/baiqing/PycharmProjects/Reinvent-master-3.2/result/LINK_invent/BTK/process_docking_weight1_custom_product_contain_oxygen_bond_distance_aromatic_linkinvent_7_9_3/rearranged_h_0179.sdf

> <i_m_source_file_index>
32

> <r_mmod_Potential_Energy-OPLS-2005>
49.0396308898926

> <r_mmod_Stretch_Energy-OPLS-2005>
123.038055419922

> <r_mmod_Bend_Energy-OPLS-2005>
166.513397216797

> <r_mmod_Torsional_Energy-OPLS-2005>
272.176635742188

> <r_mmod_Improper_Torsional_Energy-OPLS-2005>
4.92130327224731

> <r_mmod_Van_der_Waal_Energy-OPLS-2005>
125.509506225586

> <r_mmod_Electrostatic_Energy-OPLS-2005>
-452.010772705078

> <r_mmod_Solvation_Energy-OPLS-2005>
-285.521209716797

> <b_mmod_Minimization_Converged-OPLS-2005>
0

> <r_mmod_RMS_Derivative-OPLS-2005>
1.67000591754913

$$$$
32
                    3D
 Structure written by MMmdl.
148156  0  0  1  0            999 V2000
  -30.5828  -14.7329   20.4562 C   0  0  0  0  0  0
  -30.4449  -12.4442   19.4600 C   0  0  0  0  0  0
  -29.5111  -12.4996   18.2290 C   0  0  0  0  0  0
  -28.0375  -12.3201   18.6474 C   0  0  0  0  0  0
  -27.6456  -13.2184   19.8501 C   0  0  2  0  0  0
  -28.6936  -13.1292   20.9820 C   0  0  0  0  0  0
  -25.2541  -13.8168   20.5680 C   0  0  0  0  0  0
  -24.1820  -13.0434   20.9207 C   0  0  0  0  0  0
  -24.6397  -11.6906   20.8756 C   0  0  0  0  0  0
  -23.9069  -10.4292   21.0417 C   0  0  0  0  0  0
  -24.3620   -9.4202   21.9188 C   0  0  0  0  0  0
  -23.6294   -8.2237   22.0756 C   0  0  0  0  0  0
  -22.4275   -8.0281   21.3546 C   0  0  0  0  0  0
  -21.9912   -9.0254   20.4646 C   0  0  0  0  0  0
  -22.7242  -10.2134   20.3058 C   0  0  0  0  0  0
  -21.6851   -6.0734   22.5279 C   0  0  0  0  0  0
  -21.4012   -6.5639   23.8211 C   0  0  0  0  0  0
  -21.3657   -5.6792   24.9175 C   0  0  0  0  0  0
  -21.6046   -4.3054   24.7226 C   0  0  0  0  0  0
  -21.8818   -3.8147   23.4348 C   0  0  0  0  0  0
  -21.9192   -4.6964   22.3403 C   0  0  0  0  0  0
  -22.7841  -13.5222   21.1869 C   0  0  0  0  0  0
  -22.1662   -4.2148   21.0980 F   0  0  0  0  0  0
  -21.5630   -3.4540   25.7738 F   0  0  0  0  0  0
  -29.9962  -13.4897   20.4035 N   0  0  0  0  0  0
  -26.2955  -12.9353   20.3272 N   0  0  0  0  0  0
  -25.9322  -11.6514   20.5755 N   0  0  0  0  0  0
  -22.0484  -12.8211   22.0425 N   0  0  0  0  0  0
  -25.4224  -15.1891   20.4072 N   0  0  0  0  0  0
  -31.7722  -14.8758   20.1563 O   0  0  0  0  0  0
  -21.6638   -6.8876   21.4244 O   0  0  0  0  0  0
  -22.3531  -14.5528   20.6713 O   0  0  0  0  0  0
  -24.6283  -31.8557   23.1982 C   0  0  0  0  0  0
  -25.9109  -32.4760   23.8328 C   0  0  1  0  0  0
  -27.2323  -27.2879   20.1353 C   0  0  0  0  0  0
  -25.5917  -33.8565   24.2263 N   0  0  0  0  0  0
  -23.4256  -30.4757   21.5402 C   0  0  2  0  0  0
  -24.8753  -28.9169   20.1183 C   0  0  0  0  0  0
  -22.7489  -29.4602   22.4916 C   0  0  0  0  0  0
  -18.0288  -28.1397   22.8494 C   0  0  0  0  0  0
  -24.1483  -36.7277   23.2637 C   0  0  0  0  0  0
  -25.9672  -30.7797   21.3709 C   0  0  0  0  0  0
  -26.0447  -29.4000   20.7203 C   0  0  0  0  0  0
  -27.2292  -28.5991   20.7134 C   0  0  0  0  0  0
  -26.0412  -26.8565   19.5169 C   0  0  0  0  0  0
  -24.8761  -27.6518   19.5067 C   0  0  0  0  0  0
  -23.6448  -29.8028   20.1589 C   0  0  0  0  0  0
  -25.4113  -36.3072   24.0328 C   0  0  1  0  0  0
  -20.5891  -28.3694   23.1279 C   0  0  2  0  0  0
  -20.6772  -26.9414   22.5415 C   0  0  0  0  0  0
  -19.5748  -26.6390   21.5219 C   0  0  0  0  0  0
  -18.1924  -26.7943   22.1623 C   0  0  0  0  0  0
  -19.1542  -28.8865   23.2881 C   0  0  0  0  0  0
  -18.9467  -30.1469   23.8896 C   0  0  0  0  0  0
  -17.6467  -30.6600   24.0572 C   0  0  0  0  0  0
  -25.9050  -34.9441   23.5101 C   0  0  0  0  0  0
  -16.5358  -29.9100   23.6337 C   0  0  0  0  0  0
  -16.7274  -28.6521   23.0356 C   0  0  0  0  0  0
  -26.4501  -31.6578   25.0701 C   0  0  0  0  0  0
  -25.3733  -31.3738   26.1428 C   0  0  0  0  0  0
  -27.0325  -30.2995   24.6149 C   0  0  0  0  0  0
  -27.6068  -32.4306   25.7475 C   0  0  0  0  0  0
  -27.5581  -37.1791   24.8466 C   0  0  0  0  0  0
  -21.4198  -29.3041   22.3665 N   0  0  0  0  0  0
  -26.4288  -37.3770   23.9417 N   0  0  0  0  0  0
  -24.6927  -31.0550   22.0936 N   0  0  0  0  0  0
  -23.4198  -28.8143   23.3007 O   0  0  0  0  0  0
  -28.3476  -26.4314   20.1231 O   0  0  0  0  0  0
  -26.5612  -34.8918   22.4665 O   0  0  0  0  0  0
  -23.5435  -32.1357   23.7297 O   0  0  0  0  0  0
  -30.6210  -19.4732   20.8657 C   0  0  0  0  0  0
  -30.8481  -18.0430   21.0038 C   0  0  0  0  0  0
  -29.4371  -19.8208   20.2466 C   0  0  0  0  0  0
  -29.8590  -17.1963   20.5405 C   0  0  0  0  0  0
  -29.0903  -22.4480   20.3753 C   0  0  0  0  0  0
  -28.9064  -21.1691   19.8559 C   0  0  0  0  0  0
  -28.5978  -23.8053   19.7987 C   0  0  0  0  0  0
  -28.2167  -25.0592   20.7100 C   0  0  0  0  0  0
  -29.7156  -15.8017   20.6008 N   0  0  0  0  0  0
  -28.4988  -23.9747   18.5782 O   0  0  0  0  0  0
  -28.1615  -21.0502   18.7467 O   0  0  0  0  0  0
  -31.9360  -17.5965   21.5887 F   0  0  0  0  0  0
  -28.5861  -18.2803   19.9021 S   0  0  0  0  0  0
  -31.4818  -12.5897   19.1519 H   0  0  0  0  0  0
  -30.4060  -11.4621   19.9339 H   0  0  0  0  0  0
  -29.7912  -11.7291   17.5093 H   0  0  0  0  0  0
  -29.6323  -13.4549   17.7164 H   0  0  0  0  0  0
  -27.8990  -11.2716   18.9144 H   0  0  0  0  0  0
  -27.3762  -12.5073   17.8007 H   0  0  0  0  0  0
  -27.6438  -14.2397   19.4707 H   0  0  0  0  0  0
  -28.7299  -12.1220   21.3995 H   0  0  0  0  0  0
  -28.4309  -13.7906   21.8092 H   0  0  0  0  0  0
  -25.2766   -9.5674   22.4759 H   0  0  0  0  0  0
  -24.0002   -7.4627   22.7473 H   0  0  0  0  0  0
  -21.0841   -8.8771   19.8952 H   0  0  0  0  0  0
  -22.3701  -10.9670   19.6163 H   0  0  0  0  0  0
  -21.2002   -7.6147   23.9714 H   0  0  0  0  0  0
  -21.1481   -6.0524   25.9077 H   0  0  0  0  0  0
  -22.0598   -2.7611   23.2846 H   0  0  0  0  0  0
  -22.4102  -11.9862   22.4795 H   0  0  0  0  0  0
  -21.1103  -13.1238   22.2643 H   0  0  0  0  0  0
  -24.6474  -15.8350   20.5125 H   0  0  0  0  0  0
  -26.2531  -15.6321   20.0383 H   0  0  0  0  0  0
  -26.7171  -32.5429   23.1071 H   0  0  0  0  0  0
  -25.0091  -33.9711   25.0427 H   0  0  0  0  0  0
  -22.7220  -31.2971   21.3907 H   0  0  0  0  0  0
  -23.3751  -35.9599   23.3298 H   0  0  0  0  0  0
  -24.3582  -36.8900   22.2052 H   0  0  0  0  0  0
  -23.7225  -37.6475   23.6659 H   0  0  0  0  0  0
  -26.0955  -31.5382   20.5973 H   0  0  0  0  0  0
  -26.8491  -30.8372   21.9966 H   0  0  0  0  0  0
  -28.1302  -28.9712   21.1820 H   0  0  0  0  0  0
  -26.0120  -25.8870   19.0401 H   0  0  0  0  0  0
  -23.9798  -27.2780   19.0305 H   0  0  0  0  0  0
  -23.7708  -30.5755   19.3992 H   0  0  0  0  0  0
  -22.7646  -29.2331   19.8553 H   0  0  0  0  0  0
  -25.1298  -36.1916   25.0818 H   0  0  0  0  0  0
  -20.9995  -28.3265   24.1393 H   0  0  0  0  0  0
  -20.5667  -26.2304   23.3615 H   0  0  0  0  0  0
  -21.6641  -26.7433   22.1208 H   0  0  0  0  0  0
  -19.6897  -25.6298   21.1245 H   0  0  0  0  0  0
  -19.6688  -27.3204   20.6754 H   0  0  0  0  0  0
  -17.4200  -26.6702   21.4017 H   0  0  0  0  0  0
  -18.0313  -26.0096   22.9030 H   0  0  0  0  0  0
  -19.7945  -30.7292   24.2256 H   0  0  0  0  0  0
  -17.5026  -31.6282   24.5170 H   0  0  0  0  0  0
  -15.5358  -30.3005   23.7673 H   0  0  0  0  0  0
  -15.8676  -28.0849   22.7058 H   0  0  0  0  0  0
  -24.5923  -30.7062   25.7782 H   0  0  0  0  0  0
  -24.8902  -32.2910   26.4804 H   0  0  0  0  0  0
  -25.8060  -30.8970   27.0226 H   0  0  0  0  0  0
  -26.2884  -29.6756   24.1183 H   0  0  0  0  0  0
  -27.4032  -29.7248   25.4644 H   0  0  0  0  0  0
  -27.8753  -30.4281   23.9355 H   0  0  0  0  0  0
  -27.2694  -33.3623   26.2029 H   0  0  0  0  0  0
  -28.3892  -32.6836   25.0311 H   0  0  0  0  0  0
  -28.0702  -31.8430   26.5406 H   0  0  0  0  0  0
  -28.2595  -38.0090   24.7528 H   0  0  0  0  0  0
  -28.1078  -36.2629   24.6271 H   0  0  0  0  0  0
  -27.2307  -37.1417   25.8868 H   0  0  0  0  0  0
  -20.9371  -29.8787   21.6898 H   0  0  0  0  0  0
  -26.0163  -38.2835   24.1444 H   0  0  0  0  0  0
  -31.3533  -20.1878   21.2085 H   0  0  0  0  0  0
  -29.6732  -22.5316   21.2812 H   0  0  0  0  0  0
  -28.8450  -25.0231   21.5997 H   0  0  0  0  0  0
  -27.1959  -24.9114   21.0635 H   0  0  0  0  0  0
  -28.7585  -15.4973   20.6742 H   0  0  0  0  0  0
  -28.1659  -20.1356   18.4944 H   0  0  0  0  0  0
  1 25  1  0  0  0
  1 30  2  0  0  0
  1 79  1  0  0  0
  2  3  1  0  0  0
  2 25  1  0  0  0
  2 84  1  0  0  0
  2 85  1  0  0  0
  3  4  1  0  0  0
  3 86  1  0  0  0
  3 87  1  0  0  0
  4  5  1  0  0  0
  4 88  1  0  0  0
  4 89  1  0  0  0
  5  6  1  0  0  0
  5 26  1  0  0  0
  5 90  1  0  0  0
  6 25  1  0  0  0
  6 91  1  0  0  0
  6 92  1  0  0  0
  7  8  2  0  0  0
  7 26  1  0  0  0
  7 29  1  0  0  0
  8  9  1  0  0  0
  8 22  1  0  0  0
  9 10  1  0  0  0
  9 27  2  0  0  0
 10 11  2  0  0  0
 10 15  1  0  0  0
 11 12  1  0  0  0
 11 93  1  0  0  0
 12 13  2  0  0  0
 12 94  1  0  0  0
 13 14  1  0  0  0
 13 31  1  0  0  0
 14 15  2  0  0  0
 14 95  1  0  0  0
 15 96  1  0  0  0
 16 17  2  0  0  0
 16 21  1  0  0  0
 16 31  1  0  0  0
 17 18  1  0  0  0
 17 97  1  0  0  0
 18 19  2  0  0  0
 18 98  1  0  0  0
 19 20  1  0  0  0
 19 24  1  0  0  0
 20 21  2  0  0  0
 20 99  1  0  0  0
 21 23  1  0  0  0
 22 28  1  0  0  0
 22 32  2  0  0  0
 26 27  1  0  0  0
 28100  1  0  0  0
 28101  1  0  0  0
 29102  1  0  0  0
 29103  1  0  0  0
 33 34  1  0  0  0
 33 66  1  0  0  0
 33 70  2  0  0  0
 34 36  1  0  0  0
 34 59  1  0  0  0
 34104  1  0  0  0
 35 44  2  0  0  0
 35 45  1  0  0  0
 35 68  1  0  0  0
 36 56  1  0  0  0
 36105  1  0  0  0
 37 39  1  0  0  0
 37 47  1  0  0  0
 37 66  1  0  0  0
 37106  1  0  0  0
 38 43  2  0  0  0
 38 46  1  0  0  0
 38 47  1  0  0  0
 39 64  1  0  0  0
 39 67  2  0  0  0
 40 52  1  0  0  0
 40 53  2  0  0  0
 40 58  1  0  0  0
 41107  1  0  0  0
 41108  1  0  0  0
 41109  1  0  0  0
 41 48  1  0  0  0
 42 43  1  0  0  0
 42 66  1  0  0  0
 42110  1  0  0  0
 42111  1  0  0  0
 43 44  1  0  0  0
 44112  1  0  0  0
 45 46  2  0  0  0
 45113  1  0  0  0
 46114  1  0  0  0
 47115  1  0  0  0
 47116  1  0  0  0
 48 56  1  0  0  0
 48 65  1  0  0  0
 48117  1  0  0  0
 49 50  1  0  0  0
 49 53  1  0  0  0
 49 64  1  0  0  0
 49118  1  0  0  0
 50 51  1  0  0  0
 50119  1  0  0  0
 50120  1  0  0  0
 51 52  1  0  0  0
 51121  1  0  0  0
 51122  1  0  0  0
 52123  1  0  0  0
 52124  1  0  0  0
 53 54  1  0  0  0
 54 55  2  0  0  0
 54125  1  0  0  0
 55 57  1  0  0  0
 55126  1  0  0  0
 56 69  2  0  0  0
 57 58  2  0  0  0
 57127  1  0  0  0
 58128  1  0  0  0
 59 60  1  0  0  0
 59 61  1  0  0  0
 59 62  1  0  0  0
 60129  1  0  0  0
 60130  1  0  0  0
 60131  1  0  0  0
 61132  1  0  0  0
 61133  1  0  0  0
 61134  1  0  0  0
 62135  1  0  0  0
 62136  1  0  0  0
 62137  1  0  0  0
 63 65  1  0  0  0
 63138  1  0  0  0
 63139  1  0  0  0
 63140  1  0  0  0
 64141  1  0  0  0
 65142  1  0  0  0
 68 78  1  0  0  0
 71 72  1  0  0  0
 71 73  2  0  0  0
 71143  1  0  0  0
 72 74  2  0  0  0
 72 82  1  0  0  0
 73 76  1  0  0  0
 73 83  1  0  0  0
 74 79  1  0  0  0
 74 83  1  0  0  0
 75 76  2  0  0  0
 75 77  1  0  0  0
 75144  1  0  0  0
 76 81  1  0  0  0
 77 78  1  0  0  0
 77 80  2  0  0  0
 78145  1  0  0  0
 78146  1  0  0  0
 79147  1  0  0  0
 81148  1  0  0  0
M  ISO  4   1 100  68 101  78 101  79 100
M  END
> <chiral flag>
0

> <version>
0

> <s_m_source_file>
/data/baiqing/PycharmProjects/Reinvent-master-3.2/result/LINK_invent/BTK/process_docking_weight1_custom_product_contain_oxygen_bond_distance_aromatic_linkinvent_7_9_3/rearranged_h_0179.sdf

> <i_m_source_file_index>
33

> <r_mmod_Potential_Energy-OPLS-2005>
88.3864669799805

> <r_mmod_Stretch_Energy-OPLS-2005>
103.596496582031

> <r_mmod_Bend_Energy-OPLS-2005>
152.747482299805

> <r_mmod_Torsional_Energy-OPLS-2005>
247.196090698242

> <r_mmod_Improper_Torsional_Energy-OPLS-2005>
6.95223426818848

> <r_mmod_Van_der_Waal_Energy-OPLS-2005>
114.312232971191

> <r_mmod_Electrostatic_Energy-OPLS-2005>
-358.871948242188

> <r_mmod_Solvation_Energy-OPLS-2005>
-251.381454467773

> <b_mmod_Minimization_Converged-OPLS-2005>
0

> <r_mmod_RMS_Derivative-OPLS-2005>
1.40679371356964

$$$$
33
                    3D
 Structure written by MMmdl.
155163  0  0  1  0            999 V2000
  -30.7313  -14.5136   20.5373 C   0  0  0  0  0  0
  -30.4032  -12.3223   19.4521 C   0  0  0  0  0  0
  -29.5007  -12.5242   18.2196 C   0  0  0  0  0  0
  -28.0211  -12.3766   18.6218 C   0  0  0  0  0  0
  -27.6502  -13.2324   19.8643 C   0  0  2  0  0  0
  -28.6904  -13.0827   20.9988 C   0  0  0  0  0  0
  -25.2449  -13.8151   20.5639 C   0  0  0  0  0  0
  -24.1744  -13.0389   20.9143 C   0  0  0  0  0  0
  -24.6379  -11.6880   20.8715 C   0  0  0  0  0  0
  -23.9043  -10.4264   21.0399 C   0  0  0  0  0  0
  -24.3625   -9.4168   21.9152 C   0  0  0  0  0  0
  -23.6319   -8.2192   22.0724 C   0  0  0  0  0  0
  -22.4296   -8.0233   21.3531 C   0  0  0  0  0  0
  -21.9928   -9.0188   20.4615 C   0  0  0  0  0  0
  -22.7222  -10.2086   20.3038 C   0  0  0  0  0  0
  -21.6819   -6.0727   22.5281 C   0  0  0  0  0  0
  -21.3969   -6.5628   23.8221 C   0  0  0  0  0  0
  -21.3696   -5.6792   24.9190 C   0  0  0  0  0  0
  -21.6078   -4.3062   24.7237 C   0  0  0  0  0  0
  -21.8798   -3.8141   23.4350 C   0  0  0  0  0  0
  -21.9180   -4.6958   22.3410 C   0  0  0  0  0  0
  -22.7773  -13.5164   21.1870 C   0  0  0  0  0  0
  -22.1646   -4.2141   21.0996 F   0  0  0  0  0  0
  -21.5694   -3.4536   25.7757 F   0  0  0  0  0  0
  -30.0214  -13.3533   20.4332 N   0  0  0  0  0  0
  -26.2959  -12.9413   20.3335 N   0  0  0  0  0  0
  -25.9312  -11.6527   20.5724 N   0  0  0  0  0  0
  -22.0451  -12.8138   22.0438 N   0  0  0  0  0  0
  -25.3928  -15.1879   20.4139 N   0  0  0  0  0  0
  -31.8976  -14.5719   20.1354 O   0  0  0  0  0  0
  -21.6645   -6.8855   21.4236 O   0  0  0  0  0  0
  -22.3431  -14.5474   20.6748 O   0  0  0  0  0  0
  -24.6178  -31.8673   23.2108 C   0  0  0  0  0  0
  -25.9086  -32.4809   23.8382 C   0  0  1  0  0  0
  -27.2236  -27.4161   20.1089 C   0  0  0  0  0  0
  -25.5949  -33.8612   24.2298 N   0  0  0  0  0  0
  -23.4047  -30.4964   21.5482 C   0  0  2  0  0  0
  -24.8521  -28.9622   20.1131 C   0  0  0  0  0  0
  -22.7413  -29.4676   22.4941 C   0  0  0  0  0  0
  -18.0275  -28.1377   22.8494 C   0  0  0  0  0  0
  -24.1497  -36.7303   23.2630 C   0  0  0  0  0  0
  -25.9357  -30.8279   21.3707 C   0  0  0  0  0  0
  -26.0111  -29.4592   20.7241 C   0  0  0  0  0  0
  -27.2012  -28.6914   20.7256 C   0  0  0  0  0  0
  -26.0590  -26.9562   19.4677 C   0  0  0  0  0  0
  -24.8709  -27.7086   19.4801 C   0  0  0  0  0  0
  -23.6150  -29.8310   20.1619 C   0  0  0  0  0  0
  -25.4117  -36.3075   24.0306 C   0  0  1  0  0  0
  -20.5872  -28.3682   23.1276 C   0  0  2  0  0  0
  -20.6765  -26.9413   22.5390 C   0  0  0  0  0  0
  -19.5731  -26.6380   21.5203 C   0  0  0  0  0  0
  -18.1918  -26.7925   22.1622 C   0  0  0  0  0  0
  -19.1527  -28.8830   23.2899 C   0  0  0  0  0  0
  -18.9449  -30.1437   23.8926 C   0  0  0  0  0  0
  -17.6457  -30.6583   24.0559 C   0  0  0  0  0  0
  -25.9046  -34.9455   23.5074 C   0  0  0  0  0  0
  -16.5347  -29.9090   23.6323 C   0  0  0  0  0  0
  -16.7269  -28.6489   23.0369 C   0  0  0  0  0  0
  -26.4519  -31.6600   25.0710 C   0  0  0  0  0  0
  -25.3757  -31.3740   26.1435 C   0  0  0  0  0  0
  -27.0378  -30.3041   24.6101 C   0  0  0  0  0  0
  -27.6050  -32.4366   25.7512 C   0  0  0  0  0  0
  -27.5575  -37.1798   24.8457 C   0  0  0  0  0  0
  -21.4130  -29.3058   22.3681 N   0  0  0  0  0  0
  -26.4293  -37.3767   23.9382 N   0  0  0  0  0  0
  -24.6698  -31.0795   22.1005 N   0  0  0  0  0  0
  -23.4173  -28.8191   23.2969 O   0  0  0  0  0  0
  -28.3702  -26.6480   20.0666 O   0  0  0  0  0  0
  -26.5594  -34.8915   22.4632 O   0  0  0  0  0  0
  -23.5366  -32.1435   23.7500 O   0  0  0  0  0  0
  -28.1951  -18.1164   21.2660 C   0  0  0  0  0  0
  -27.6969  -19.4444   21.0771 C   0  0  0  0  0  0
  -29.5437  -18.0176   21.0101 C   0  0  0  0  0  0
  -28.6161  -20.3848   20.6902 C   0  0  0  0  0  0
  -30.5235  -16.8885   21.0203 C   0  0  0  0  0  0
  -28.7490  -22.8380   20.7841 C   0  0  0  0  0  0
  -26.4512  -23.8573   20.3616 C   0  0  0  0  0  0
  -28.4104  -25.4714   20.9119 C   0  0  0  0  0  0
  -27.9839  -24.0997   20.2647 C   0  0  1  0  0  0
  -27.3137  -17.0848   21.6404 N   0  0  0  0  0  0
  -28.3182  -21.6550   20.2978 N   0  0  0  0  0  0
  -30.0394  -15.6260   20.8940 N   0  0  0  0  0  0
  -31.7291  -17.1543   21.1245 O   0  0  0  0  0  0
  -29.6841  -22.9260   21.5821 O   0  0  0  0  0  0
  -26.4220  -19.7259   21.2378 F   0  0  0  0  0  0
  -30.1922  -19.6188   20.6145 S   0  0  0  0  0  0
  -31.4534  -12.3728   19.1626 H   0  0  0  0  0  0
  -30.2607  -11.3244   19.8733 H   0  0  0  0  0  0
  -29.7546  -11.8045   17.4393 H   0  0  0  0  0  0
  -29.6736  -13.5158   17.7974 H   0  0  0  0  0  0
  -27.8374  -11.3212   18.8293 H   0  0  0  0  0  0
  -27.3723  -12.6356   17.7840 H   0  0  0  0  0  0
  -27.6714  -14.2747   19.5433 H   0  0  0  0  0  0
  -28.6601  -12.0763   21.4161 H   0  0  0  0  0  0
  -28.4527  -13.7545   21.8248 H   0  0  0  0  0  0
  -25.2767   -9.5634   22.4721 H   0  0  0  0  0  0
  -24.0066   -7.4539   22.7370 H   0  0  0  0  0  0
  -21.0902   -8.8610   19.8890 H   0  0  0  0  0  0
  -22.3606  -10.9612   19.6160 H   0  0  0  0  0  0
  -21.1874   -7.6116   23.9702 H   0  0  0  0  0  0
  -21.1612   -6.0534   25.9102 H   0  0  0  0  0  0
  -22.0576   -2.7591   23.2841 H   0  0  0  0  0  0
  -22.4099  -11.9791   22.4788 H   0  0  0  0  0  0
  -21.1009  -13.1051   22.2573 H   0  0  0  0  0  0
  -24.6331  -15.8063   20.6710 H   0  0  0  0  0  0
  -26.2862  -15.6751   20.4198 H   0  0  0  0  0  0
  -26.7165  -32.5519   23.1160 H   0  0  0  0  0  0
  -25.0183  -33.9788   25.0494 H   0  0  0  0  0  0
  -22.6932  -31.3127   21.4090 H   0  0  0  0  0  0
  -23.3745  -35.9658   23.3307 H   0  0  0  0  0  0
  -24.3574  -36.8925   22.2044 H   0  0  0  0  0  0
  -23.7303  -37.6517   23.6670 H   0  0  0  0  0  0
  -26.0507  -31.5910   20.6004 H   0  0  0  0  0  0
  -26.8234  -30.8801   21.9887 H   0  0  0  0  0  0
  -28.0934  -29.0682   21.2055 H   0  0  0  0  0  0
  -26.0747  -26.0208   18.9353 H   0  0  0  0  0  0
  -23.9893  -27.3290   18.9814 H   0  0  0  0  0  0
  -23.7193  -30.6045   19.3993 H   0  0  0  0  0  0
  -22.7399  -29.2470   19.8691 H   0  0  0  0  0  0
  -25.1322  -36.1899   25.0801 H   0  0  0  0  0  0
  -20.9992  -28.3268   24.1387 H   0  0  0  0  0  0
  -20.5645  -26.2311   23.3595 H   0  0  0  0  0  0
  -21.6637  -26.7438   22.1190 H   0  0  0  0  0  0
  -19.6894  -25.6286   21.1240 H   0  0  0  0  0  0
  -19.6667  -27.3177   20.6715 H   0  0  0  0  0  0
  -17.4190  -26.6677   21.4034 H   0  0  0  0  0  0
  -18.0332  -26.0059   22.8995 H   0  0  0  0  0  0
  -19.7920  -30.7238   24.2328 H   0  0  0  0  0  0
  -17.5005  -31.6271   24.5151 H   0  0  0  0  0  0
  -15.5346  -30.2999   23.7615 H   0  0  0  0  0  0
  -15.8668  -28.0801   22.7104 H   0  0  0  0  0  0
  -24.5870  -30.7194   25.7733 H   0  0  0  0  0  0
  -24.9042  -32.2933   26.4908 H   0  0  0  0  0  0
  -25.8044  -30.8829   27.0174 H   0  0  0  0  0  0
  -26.2924  -29.6766   24.1205 H   0  0  0  0  0  0
  -27.4227  -29.7315   25.4550 H   0  0  0  0  0  0
  -27.8719  -30.4379   23.9211 H   0  0  0  0  0  0
  -27.2587  -33.3605   26.2178 H   0  0  0  0  0  0
  -28.3825  -32.7065   25.0349 H   0  0  0  0  0  0
  -28.0785  -31.8472   26.5378 H   0  0  0  0  0  0
  -28.2591  -38.0095   24.7484 H   0  0  0  0  0  0
  -28.1062  -36.2616   24.6306 H   0  0  0  0  0  0
  -27.2267  -37.1481   25.8854 H   0  0  0  0  0  0
  -20.9282  -29.8837   21.6968 H   0  0  0  0  0  0
  -26.0156  -38.2831   24.1393 H   0  0  0  0  0  0
  -26.1793  -22.9022   20.8122 H   0  0  0  0  0  0
  -25.9884  -23.8624   19.3752 H   0  0  0  0  0  0
  -25.9562  -24.6137   20.9704 H   0  0  0  0  0  0
  -29.4496  -25.4198   21.2380 H   0  0  0  0  0  0
  -27.8396  -25.6493   21.8250 H   0  0  0  0  0  0
  -28.2466  -24.1652   19.2071 H   0  0  0  0  0  0
  -26.3785  -17.4443   21.8080 H   0  0  0  0  0  0
  -27.5891  -16.5456   22.4522 H   0  0  0  0  0  0
  -27.4880  -21.7341   19.7271 H   0  0  0  0  0  0
  -29.0387  -15.5433   20.9863 H   0  0  0  0  0  0
  1 25  1  0  0  0
  1 30  2  0  0  0
  1 82  1  0  0  0
  2  3  1  0  0  0
  2 25  1  0  0  0
  2 87  1  0  0  0
  2 88  1  0  0  0
  3  4  1  0  0  0
  3 89  1  0  0  0
  3 90  1  0  0  0
  4  5  1  0  0  0
  4 91  1  0  0  0
  4 92  1  0  0  0
  5  6  1  0  0  0
  5 26  1  0  0  0
  5 93  1  0  0  0
  6 25  1  0  0  0
  6 94  1  0  0  0
  6 95  1  0  0  0
  7  8  2  0  0  0
  7 26  1  0  0  0
  7 29  1  0  0  0
  8  9  1  0  0  0
  8 22  1  0  0  0
  9 10  1  0  0  0
  9 27  2  0  0  0
 10 11  2  0  0  0
 10 15  1  0  0  0
 11 12  1  0  0  0
 11 96  1  0  0  0
 12 13  2  0  0  0
 12 97  1  0  0  0
 13 14  1  0  0  0
 13 31  1  0  0  0
 14 15  2  0  0  0
 14 98  1  0  0  0
 15 99  1  0  0  0
 16 17  2  0  0  0
 16 21  1  0  0  0
 16 31  1  0  0  0
 17 18  1  0  0  0
 17100  1  0  0  0
 18 19  2  0  0  0
 18101  1  0  0  0
 19 20  1  0  0  0
 19 24  1  0  0  0
 20 21  2  0  0  0
 20102  1  0  0  0
 21 23  1  0  0  0
 22 28  1  0  0  0
 22 32  2  0  0  0
 26 27  1  0  0  0
 28103  1  0  0  0
 28104  1  0  0  0
 29105  1  0  0  0
 29106  1  0  0  0
 33 34  1  0  0  0
 33 66  1  0  0  0
 33 70  2  0  0  0
 34 36  1  0  0  0
 34 59  1  0  0  0
 34107  1  0  0  0
 35 44  2  0  0  0
 35 45  1  0  0  0
 35 68  1  0  0  0
 36 56  1  0  0  0
 36108  1  0  0  0
 37 39  1  0  0  0
 37 47  1  0  0  0
 37 66  1  0  0  0
 37109  1  0  0  0
 38 43  2  0  0  0
 38 46  1  0  0  0
 38 47  1  0  0  0
 39 64  1  0  0  0
 39 67  2  0  0  0
 40 52  1  0  0  0
 40 53  2  0  0  0
 40 58  1  0  0  0
 41110  1  0  0  0
 41111  1  0  0  0
 41112  1  0  0  0
 41 48  1  0  0  0
 42 43  1  0  0  0
 42 66  1  0  0  0
 42113  1  0  0  0
 42114  1  0  0  0
 43 44  1  0  0  0
 44115  1  0  0  0
 45 46  2  0  0  0
 45116  1  0  0  0
 46117  1  0  0  0
 47118  1  0  0  0
 47119  1  0  0  0
 48 56  1  0  0  0
 48 65  1  0  0  0
 48120  1  0  0  0
 49 50  1  0  0  0
 49 53  1  0  0  0
 49 64  1  0  0  0
 49121  1  0  0  0
 50 51  1  0  0  0
 50122  1  0  0  0
 50123  1  0  0  0
 51 52  1  0  0  0
 51124  1  0  0  0
 51125  1  0  0  0
 52126  1  0  0  0
 52127  1  0  0  0
 53 54  1  0  0  0
 54 55  2  0  0  0
 54128  1  0  0  0
 55 57  1  0  0  0
 55129  1  0  0  0
 56 69  2  0  0  0
 57 58  2  0  0  0
 57130  1  0  0  0
 58131  1  0  0  0
 59 60  1  0  0  0
 59 61  1  0  0  0
 59 62  1  0  0  0
 60132  1  0  0  0
 60133  1  0  0  0
 60134  1  0  0  0
 61135  1  0  0  0
 61136  1  0  0  0
 61137  1  0  0  0
 62138  1  0  0  0
 62139  1  0  0  0
 62140  1  0  0  0
 63 65  1  0  0  0
 63141  1  0  0  0
 63142  1  0  0  0
 63143  1  0  0  0
 64144  1  0  0  0
 65145  1  0  0  0
 68 78  1  0  0  0
 71 72  1  0  0  0
 71 73  2  0  0  0
 71 80  1  0  0  0
 72 74  2  0  0  0
 72 85  1  0  0  0
 73 75  1  0  0  0
 73 86  1  0  0  0
 74 81  1  0  0  0
 74 86  1  0  0  0
 75 82  1  0  0  0
 75 83  2  0  0  0
 76 79  1  0  0  0
 76 81  1  0  0  0
 76 84  2  0  0  0
 77146  1  0  0  0
 77147  1  0  0  0
 77148  1  0  0  0
 77 79  1  0  0  0
 78 79  1  0  0  0
 78149  1  0  0  0
 78150  1  0  0  0
 79151  1  0  0  0
 80152  1  0  0  0
 80153  1  0  0  0
 81154  1  0  0  0
 82155  1  0  0  0
M  ISO  4   1 100  68 101  78 101  82 100
M  END
> <chiral flag>
0

> <version>
0

> <s_m_source_file>
/data/baiqing/PycharmProjects/Reinvent-master-3.2/result/LINK_invent/BTK/process_docking_weight1_custom_product_contain_oxygen_bond_distance_aromatic_linkinvent_7_9_3/rearranged_h_0179.sdf

> <i_m_source_file_index>
34

> <r_mmod_Potential_Energy-OPLS-2005>
-45.3226318359375

> <r_mmod_Stretch_Energy-OPLS-2005>
43.6577339172363

> <r_mmod_Bend_Energy-OPLS-2005>
114.410514831543

> <r_mmod_Torsional_Energy-OPLS-2005>
291.157287597656

> <r_mmod_Improper_Torsional_Energy-OPLS-2005>
13.2479524612427

> <r_mmod_Van_der_Waal_Energy-OPLS-2005>
142.895446777344

> <r_mmod_Electrostatic_Energy-OPLS-2005>
-426.959503173828

> <r_mmod_Solvation_Energy-OPLS-2005>
-245.235504150391

> <b_mmod_Minimization_Converged-OPLS-2005>
0

> <r_mmod_RMS_Derivative-OPLS-2005>
4.30662536621094

$$$$
34
                    3D
 Structure written by MMmdl.
160168  0  0  1  0            999 V2000
  -30.5944  -14.5964   20.5312 C   0  0  0  0  0  0
  -30.4489  -12.3701   19.4301 C   0  0  0  0  0  0
  -29.5034  -12.5013   18.2129 C   0  0  0  0  0  0
  -28.0248  -12.3375   18.6277 C   0  0  0  0  0  0
  -27.6539  -13.1943   19.8651 C   0  0  2  0  0  0
  -28.7022  -13.0100   20.9877 C   0  0  0  0  0  0
  -25.2597  -13.8116   20.5659 C   0  0  0  0  0  0
  -24.1842  -13.0406   20.9181 C   0  0  0  0  0  0
  -24.6380  -11.6873   20.8740 C   0  0  0  0  0  0
  -23.9045  -10.4270   21.0415 C   0  0  0  0  0  0
  -24.3604   -9.4188   21.9195 C   0  0  0  0  0  0
  -23.6278   -8.2228   22.0765 C   0  0  0  0  0  0
  -22.4266   -8.0271   21.3543 C   0  0  0  0  0  0
  -21.9897   -9.0248   20.4652 C   0  0  0  0  0  0
  -22.7221  -10.2124   20.3061 C   0  0  0  0  0  0
  -21.6854   -6.0729   22.5273 C   0  0  0  0  0  0
  -21.4015   -6.5636   23.8205 C   0  0  0  0  0  0
  -21.3656   -5.6795   24.9170 C   0  0  0  0  0  0
  -21.6046   -4.3057   24.7224 C   0  0  0  0  0  0
  -21.8822   -3.8143   23.4342 C   0  0  0  0  0  0
  -21.9189   -4.6960   22.3399 C   0  0  0  0  0  0
  -22.7879  -13.5229   21.1835 C   0  0  0  0  0  0
  -22.1666   -4.2147   21.0974 F   0  0  0  0  0  0
  -21.5624   -3.4537   25.7732 F   0  0  0  0  0  0
  -30.0159  -13.3641   20.4251 N   0  0  0  0  0  0
  -26.2988  -12.9242   20.3322 N   0  0  0  0  0  0
  -25.9292  -11.6421   20.5764 N   0  0  0  0  0  0
  -22.0519  -12.8229   22.0392 N   0  0  0  0  0  0
  -25.4326  -15.1827   20.4025 N   0  0  0  0  0  0
  -31.7736  -14.8011   20.2163 O   0  0  0  0  0  0
  -21.6637   -6.8868   21.4234 O   0  0  0  0  0  0
  -22.3576  -14.5534   20.6676 O   0  0  0  0  0  0
  -24.6182  -31.8643   23.2054 C   0  0  0  0  0  0
  -25.9057  -32.4799   23.8357 C   0  0  1  0  0  0
  -27.2313  -27.3764   20.1205 C   0  0  0  0  0  0
  -25.5907  -33.8604   24.2277 N   0  0  0  0  0  0
  -23.4094  -30.4842   21.5475 C   0  0  2  0  0  0
  -24.8579  -28.9416   20.1157 C   0  0  0  0  0  0
  -22.7440  -29.4622   22.4987 C   0  0  0  0  0  0
  -18.0274  -28.1376   22.8455 C   0  0  0  0  0  0
  -24.1495  -36.7309   23.2637 C   0  0  0  0  0  0
  -25.9421  -30.8165   21.3649 C   0  0  0  0  0  0
  -26.0214  -29.4452   20.7112 C   0  0  0  0  0  0
  -27.2138  -28.6747   20.6987 C   0  0  0  0  0  0
  -26.0510  -26.9018   19.5115 C   0  0  0  0  0  0
  -24.8712  -27.6736   19.5072 C   0  0  0  0  0  0
  -23.6228  -29.8163   20.1619 C   0  0  0  0  0  0
  -25.4116  -36.3090   24.0324 C   0  0  1  0  0  0
  -20.5860  -28.3655   23.1309 C   0  0  2  0  0  0
  -20.6768  -26.9394   22.5411 C   0  0  0  0  0  0
  -19.5757  -26.6364   21.5199 C   0  0  0  0  0  0
  -18.1930  -26.7908   22.1601 C   0  0  0  0  0  0
  -19.1520  -28.8836   23.2865 C   0  0  0  0  0  0
  -18.9459  -30.1440   23.8877 C   0  0  0  0  0  0
  -17.6465  -30.6574   24.0548 C   0  0  0  0  0  0
  -25.9039  -34.9462   23.5095 C   0  0  0  0  0  0
  -16.5353  -29.9079   23.6315 C   0  0  0  0  0  0
  -16.7265  -28.6507   23.0313 C   0  0  0  0  0  0
  -26.4476  -31.6605   25.0697 C   0  0  0  0  0  0
  -25.3738  -31.3752   26.1444 C   0  0  0  0  0  0
  -27.0319  -30.3039   24.6104 C   0  0  0  0  0  0
  -27.6020  -32.4357   25.7485 C   0  0  0  0  0  0
  -27.5583  -37.1814   24.8464 C   0  0  0  0  0  0
  -21.4163  -29.3026   22.3735 N   0  0  0  0  0  0
  -26.4298  -37.3781   23.9401 N   0  0  0  0  0  0
  -24.6746  -31.0708   22.0974 N   0  0  0  0  0  0
  -23.4188  -28.8159   23.3044 O   0  0  0  0  0  0
  -28.3830  -26.6014   20.1115 O   0  0  0  0  0  0
  -26.5598  -34.8924   22.4652 O   0  0  0  0  0  0
  -23.5363  -32.1428   23.7428 O   0  0  0  0  0  0
  -29.1140  -16.7871   22.6454 C   0  0  0  0  0  0
  -28.8846  -17.9547   23.3900 C   0  0  0  0  0  0
  -29.2516  -19.2147   22.8472 C   0  0  0  0  0  0
  -29.6795  -16.8499   21.3643 C   0  0  0  0  0  0
  -29.6687  -19.2550   21.4773 C   0  0  0  0  0  0
  -29.0888  -21.6083   20.6831 C   0  0  0  0  0  0
  -28.2153  -17.7993   24.7494 C   0  0  0  0  0  0
  -28.8516  -24.1264   19.6510 C   0  0  0  0  0  0
  -28.3113  -25.2340   20.6259 C   0  0  0  0  0  0
  -29.7530  -22.9507   20.2220 C   0  0  2  0  0  0
  -29.2045  -20.4604   23.7594 C   0  0  0  0  0  0
  -29.9086  -18.0774   20.7952 N   0  0  0  0  0  0
  -29.9076  -20.5227   20.8227 N   0  0  0  0  0  0
  -29.6719  -15.5886   20.6755 N   0  0  0  0  0  0
  -27.8740  -21.5618   20.8802 O   0  0  0  0  0  0
  -30.7223  -22.6351   19.2307 O   0  0  0  0  0  0
  -27.9731  -20.9673   23.7923 F   0  0  0  0  0  0
  -29.5566  -20.1544   25.0095 F   0  0  0  0  0  0
  -30.0569  -21.4179   23.3968 F   0  0  0  0  0  0
  -31.4863  -12.5227   19.1270 H   0  0  0  0  0  0
  -30.4012  -11.3658   19.8539 H   0  0  0  0  0  0
  -29.7609  -11.7598   17.4549 H   0  0  0  0  0  0
  -29.6428  -13.4773   17.7446 H   0  0  0  0  0  0
  -27.8556  -11.2816   18.8451 H   0  0  0  0  0  0
  -27.3693  -12.5822   17.7915 H   0  0  0  0  0  0
  -27.6733  -14.2312   19.5318 H   0  0  0  0  0  0
  -28.7136  -11.9751   21.3335 H   0  0  0  0  0  0
  -28.4561  -13.6076   21.8670 H   0  0  0  0  0  0
  -25.2751   -9.5663   22.4764 H   0  0  0  0  0  0
  -23.9985   -7.4623   22.7486 H   0  0  0  0  0  0
  -21.0830   -8.8757   19.8967 H   0  0  0  0  0  0
  -22.3678  -10.9660   19.6171 H   0  0  0  0  0  0
  -21.2020   -7.6145   23.9703 H   0  0  0  0  0  0
  -21.1481   -6.0528   25.9070 H   0  0  0  0  0  0
  -22.0605   -2.7607   23.2841 H   0  0  0  0  0  0
  -22.4147  -11.9867   22.4720 H   0  0  0  0  0  0
  -21.1160  -13.1286   22.2655 H   0  0  0  0  0  0
  -24.6578  -15.8286   20.4986 H   0  0  0  0  0  0
  -26.2594  -15.6191   20.0148 H   0  0  0  0  0  0
  -26.7115  -32.5491   23.1114 H   0  0  0  0  0  0
  -25.0090  -33.9783   25.0444 H   0  0  0  0  0  0
  -22.6981  -31.2997   21.4056 H   0  0  0  0  0  0
  -23.3743  -35.9657   23.3318 H   0  0  0  0  0  0
  -24.3575  -36.8915   22.2044 H   0  0  0  0  0  0
  -23.7280  -37.6529   23.6653 H   0  0  0  0  0  0
  -26.0561  -31.5869   20.6005 H   0  0  0  0  0  0
  -26.8277  -30.8682   21.9861 H   0  0  0  0  0  0
  -28.1131  -29.0638   21.1559 H   0  0  0  0  0  0
  -26.0429  -25.9306   19.0383 H   0  0  0  0  0  0
  -23.9799  -27.2822   19.0358 H   0  0  0  0  0  0
  -23.7453  -30.5929   19.4058 H   0  0  0  0  0  0
  -22.7438  -29.2440   19.8565 H   0  0  0  0  0  0
  -25.1306  -36.1934   25.0817 H   0  0  0  0  0  0
  -20.9917  -28.3217   24.1442 H   0  0  0  0  0  0
  -20.5667  -26.2274   23.3607 H   0  0  0  0  0  0
  -21.6652  -26.7458   22.1215 H   0  0  0  0  0  0
  -19.6927  -25.6268   21.1249 H   0  0  0  0  0  0
  -19.6695  -27.3157   20.6711 H   0  0  0  0  0  0
  -17.4203  -26.6620   21.4001 H   0  0  0  0  0  0
  -18.0341  -26.0061   22.9010 H   0  0  0  0  0  0
  -19.7952  -30.7232   24.2250 H   0  0  0  0  0  0
  -17.5045  -31.6253   24.5153 H   0  0  0  0  0  0
  -15.5363  -30.2978   23.7675 H   0  0  0  0  0  0
  -15.8661  -28.0850   22.7013 H   0  0  0  0  0  0
  -24.5883  -30.7119   25.7809 H   0  0  0  0  0  0
  -24.8972  -32.2937   26.4865 H   0  0  0  0  0  0
  -25.8076  -30.8948   27.0215 H   0  0  0  0  0  0
  -26.2882  -29.6788   24.1140 H   0  0  0  0  0  0
  -27.4061  -29.7273   25.4570 H   0  0  0  0  0  0
  -27.8719  -30.4347   23.9279 H   0  0  0  0  0  0
  -27.2588  -33.3642   26.2056 H   0  0  0  0  0  0
  -28.3836  -32.6949   25.0336 H   0  0  0  0  0  0
  -28.0670  -31.8497   26.5423 H   0  0  0  0  0  0
  -28.2602  -38.0109   24.7483 H   0  0  0  0  0  0
  -28.1079  -36.2634   24.6324 H   0  0  0  0  0  0
  -27.2292  -37.1498   25.8866 H   0  0  0  0  0  0
  -20.9345  -29.8796   21.6989 H   0  0  0  0  0  0
  -26.0171  -38.2856   24.1392 H   0  0  0  0  0  0
  -28.8343  -15.8311   23.0690 H   0  0  0  0  0  0
  -27.5667  -16.9226   24.7652 H   0  0  0  0  0  0
  -27.5837  -18.6531   24.9953 H   0  0  0  0  0  0
  -28.9614  -17.6808   25.5348 H   0  0  0  0  0  0
  -29.4545  -24.6655   18.9194 H   0  0  0  0  0  0
  -28.0174  -23.7201   19.0770 H   0  0  0  0  0  0
  -27.3065  -24.9728   20.9623 H   0  0  0  0  0  0
  -28.9178  -25.2323   21.5313 H   0  0  0  0  0  0
  -30.3116  -23.3410   21.0753 H   0  0  0  0  0  0
  -30.8286  -20.6498   20.4248 H   0  0  0  0  0  0
  -28.7613  -15.1619   20.7061 H   0  0  0  0  0  0
  -30.2513  -22.2984   18.4737 H   0  0  0  0  0  0
  1 25  1  0  0  0
  1 30  2  0  0  0
  1 84  1  0  0  0
  2  3  1  0  0  0
  2 25  1  0  0  0
  2 90  1  0  0  0
  2 91  1  0  0  0
  3  4  1  0  0  0
  3 92  1  0  0  0
  3 93  1  0  0  0
  4  5  1  0  0  0
  4 94  1  0  0  0
  4 95  1  0  0  0
  5  6  1  0  0  0
  5 26  1  0  0  0
  5 96  1  0  0  0
  6 25  1  0  0  0
  6 97  1  0  0  0
  6 98  1  0  0  0
  7  8  2  0  0  0
  7 26  1  0  0  0
  7 29  1  0  0  0
  8  9  1  0  0  0
  8 22  1  0  0  0
  9 10  1  0  0  0
  9 27  2  0  0  0
 10 11  2  0  0  0
 10 15  1  0  0  0
 11 12  1  0  0  0
 11 99  1  0  0  0
 12 13  2  0  0  0
 12100  1  0  0  0
 13 14  1  0  0  0
 13 31  1  0  0  0
 14 15  2  0  0  0
 14101  1  0  0  0
 15102  1  0  0  0
 16 17  2  0  0  0
 16 21  1  0  0  0
 16 31  1  0  0  0
 17 18  1  0  0  0
 17103  1  0  0  0
 18 19  2  0  0  0
 18104  1  0  0  0
 19 20  1  0  0  0
 19 24  1  0  0  0
 20 21  2  0  0  0
 20105  1  0  0  0
 21 23  1  0  0  0
 22 28  1  0  0  0
 22 32  2  0  0  0
 26 27  1  0  0  0
 28106  1  0  0  0
 28107  1  0  0  0
 29108  1  0  0  0
 29109  1  0  0  0
 33 34  1  0  0  0
 33 66  1  0  0  0
 33 70  2  0  0  0
 34 36  1  0  0  0
 34 59  1  0  0  0
 34110  1  0  0  0
 35 44  2  0  0  0
 35 45  1  0  0  0
 35 68  1  0  0  0
 36 56  1  0  0  0
 36111  1  0  0  0
 37 39  1  0  0  0
 37 47  1  0  0  0
 37 66  1  0  0  0
 37112  1  0  0  0
 38 43  2  0  0  0
 38 46  1  0  0  0
 38 47  1  0  0  0
 39 64  1  0  0  0
 39 67  2  0  0  0
 40 52  1  0  0  0
 40 53  2  0  0  0
 40 58  1  0  0  0
 41113  1  0  0  0
 41114  1  0  0  0
 41115  1  0  0  0
 41 48  1  0  0  0
 42 43  1  0  0  0
 42 66  1  0  0  0
 42116  1  0  0  0
 42117  1  0  0  0
 43 44  1  0  0  0
 44118  1  0  0  0
 45 46  2  0  0  0
 45119  1  0  0  0
 46120  1  0  0  0
 47121  1  0  0  0
 47122  1  0  0  0
 48 56  1  0  0  0
 48 65  1  0  0  0
 48123  1  0  0  0
 49 50  1  0  0  0
 49 53  1  0  0  0
 49 64  1  0  0  0
 49124  1  0  0  0
 50 51  1  0  0  0
 50125  1  0  0  0
 50126  1  0  0  0
 51 52  1  0  0  0
 51127  1  0  0  0
 51128  1  0  0  0
 52129  1  0  0  0
 52130  1  0  0  0
 53 54  1  0  0  0
 54 55  2  0  0  0
 54131  1  0  0  0
 55 57  1  0  0  0
 55132  1  0  0  0
 56 69  2  0  0  0
 57 58  2  0  0  0
 57133  1  0  0  0
 58134  1  0  0  0
 59 60  1  0  0  0
 59 61  1  0  0  0
 59 62  1  0  0  0
 60135  1  0  0  0
 60136  1  0  0  0
 60137  1  0  0  0
 61138  1  0  0  0
 61139  1  0  0  0
 61140  1  0  0  0
 62141  1  0  0  0
 62142  1  0  0  0
 62143  1  0  0  0
 63 65  1  0  0  0
 63144  1  0  0  0
 63145  1  0  0  0
 63146  1  0  0  0
 64147  1  0  0  0
 65148  1  0  0  0
 68 79  1  0  0  0
 71 72  2  0  0  0
 71 74  1  0  0  0
 71149  1  0  0  0
 72 73  1  0  0  0
 72 77  1  0  0  0
 73 75  2  0  0  0
 73 81  1  0  0  0
 74 82  2  0  0  0
 74 84  1  0  0  0
 75 82  1  0  0  0
 75 83  1  0  0  0
 76 80  1  0  0  0
 76 83  1  0  0  0
 76 85  2  0  0  0
 77150  1  0  0  0
 77151  1  0  0  0
 77152  1  0  0  0
 78 79  1  0  0  0
 78 80  1  0  0  0
 78153  1  0  0  0
 78154  1  0  0  0
 79155  1  0  0  0
 79156  1  0  0  0
 80 86  1  0  0  0
 80157  1  0  0  0
 81 87  1  0  0  0
 81 88  1  0  0  0
 81 89  1  0  0  0
 83158  1  0  0  0
 84159  1  0  0  0
 86160  1  0  0  0
M  ISO  4   1 100  68 101  79 101  84 100
M  END
> <chiral flag>
0

> <version>
0

> <s_m_source_file>
/data/baiqing/PycharmProjects/Reinvent-master-3.2/result/LINK_invent/BTK/process_docking_weight1_custom_product_contain_oxygen_bond_distance_aromatic_linkinvent_7_9_3/rearranged_h_0179.sdf

> <i_m_source_file_index>
35

> <r_mmod_Potential_Energy-OPLS-2005>
-37.8224945068359

> <r_mmod_Stretch_Energy-OPLS-2005>
63.5986862182617

> <r_mmod_Bend_Energy-OPLS-2005>
143.45573425293

> <r_mmod_Torsional_Energy-OPLS-2005>
306.305877685547

> <r_mmod_Improper_Torsional_Energy-OPLS-2005>
13.8836126327515

> <r_mmod_Van_der_Waal_Energy-OPLS-2005>
154.690765380859

> <r_mmod_Electrostatic_Energy-OPLS-2005>
-509.845703125

> <r_mmod_Solvation_Energy-OPLS-2005>
-242.689208984375

> <b_mmod_Minimization_Converged-OPLS-2005>
0

> <r_mmod_RMS_Derivative-OPLS-2005>
2.37048029899597

$$$$
35
                    3D
 Structure written by MMmdl.
158166  0  0  1  0            999 V2000
  -30.7231  -14.4661   20.5270 C   0  0  0  0  0  0
  -30.4294  -12.2939   19.4204 C   0  0  0  0  0  0
  -29.5011  -12.4927   18.2045 C   0  0  0  0  0  0
  -28.0213  -12.3574   18.6173 C   0  0  0  0  0  0
  -27.6650  -13.2024   19.8718 C   0  0  2  0  0  0
  -28.7157  -13.0042   20.9924 C   0  0  0  0  0  0
  -25.2589  -13.8093   20.5689 C   0  0  0  0  0  0
  -24.1836  -13.0378   20.9161 C   0  0  0  0  0  0
  -24.6418  -11.6855   20.8748 C   0  0  0  0  0  0
  -23.9079  -10.4256   21.0426 C   0  0  0  0  0  0
  -24.3635   -9.4170   21.9201 C   0  0  0  0  0  0
  -23.6293   -8.2219   22.0772 C   0  0  0  0  0  0
  -22.4278   -8.0257   21.3561 C   0  0  0  0  0  0
  -21.9926   -9.0236   20.4666 C   0  0  0  0  0  0
  -22.7253  -10.2099   20.3077 C   0  0  0  0  0  0
  -21.6844   -6.0728   22.5294 C   0  0  0  0  0  0
  -21.4004   -6.5635   23.8224 C   0  0  0  0  0  0
  -21.3646   -5.6771   24.9186 C   0  0  0  0  0  0
  -21.6045   -4.3041   24.7231 C   0  0  0  0  0  0
  -21.8817   -3.8129   23.4351 C   0  0  0  0  0  0
  -21.9192   -4.6964   22.3415 C   0  0  0  0  0  0
  -22.7873  -13.5220   21.1776 C   0  0  0  0  0  0
  -22.1648   -4.2141   21.0991 F   0  0  0  0  0  0
  -21.5626   -3.4519   25.7747 F   0  0  0  0  0  0
  -30.0467  -13.2909   20.4298 N   0  0  0  0  0  0
  -26.3051  -12.9295   20.3367 N   0  0  0  0  0  0
  -25.9349  -11.6462   20.5807 N   0  0  0  0  0  0
  -22.0459  -12.8292   22.0350 N   0  0  0  0  0  0
  -25.4208  -15.1807   20.4212 N   0  0  0  0  0  0
  -31.8731  -14.6150   20.1053 O   0  0  0  0  0  0
  -21.6627   -6.8873   21.4250 O   0  0  0  0  0  0
  -22.3615  -14.5534   20.6594 O   0  0  0  0  0  0
  -24.6117  -31.8689   23.2134 C   0  0  0  0  0  0
  -25.9012  -32.4840   23.8403 C   0  0  1  0  0  0
  -27.2359  -27.4497   20.0812 C   0  0  0  0  0  0
  -25.5917  -33.8631   24.2353 N   0  0  0  0  0  0
  -23.3990  -30.4932   21.5544 C   0  0  2  0  0  0
  -24.8418  -28.9617   20.1182 C   0  0  0  0  0  0
  -22.7400  -29.4637   22.5003 C   0  0  0  0  0  0
  -18.0290  -28.1358   22.8482 C   0  0  0  0  0  0
  -24.1480  -36.7274   23.2613 C   0  0  0  0  0  0
  -25.9250  -30.8383   21.3648 C   0  0  0  0  0  0
  -26.0020  -29.4731   20.7113 C   0  0  0  0  0  0
  -27.1980  -28.7230   20.6925 C   0  0  0  0  0  0
  -26.0517  -26.9481   19.4878 C   0  0  0  0  0  0
  -24.8597  -27.6959   19.5100 C   0  0  0  0  0  0
  -23.6054  -29.8310   20.1678 C   0  0  0  0  0  0
  -25.4088  -36.3112   24.0348 C   0  0  1  0  0  0
  -20.5868  -28.3646   23.1320 C   0  0  2  0  0  0
  -20.6772  -26.9382   22.5432 C   0  0  0  0  0  0
  -19.5764  -26.6359   21.5216 C   0  0  0  0  0  0
  -18.1931  -26.7908   22.1602 C   0  0  0  0  0  0
  -19.1530  -28.8824   23.2892 C   0  0  0  0  0  0
  -18.9465  -30.1428   23.8902 C   0  0  0  0  0  0
  -17.6462  -30.6562   24.0578 C   0  0  0  0  0  0
  -25.9036  -34.9484   23.5140 C   0  0  0  0  0  0
  -16.5360  -29.9069   23.6321 C   0  0  0  0  0  0
  -16.7277  -28.6491   23.0333 C   0  0  0  0  0  0
  -26.4456  -31.6594   25.0695 C   0  0  0  0  0  0
  -25.3773  -31.3742   26.1499 C   0  0  0  0  0  0
  -27.0201  -30.3032   24.5992 C   0  0  0  0  0  0
  -27.6085  -32.4268   25.7408 C   0  0  0  0  0  0
  -27.5638  -37.1699   24.8386 C   0  0  0  0  0  0
  -21.4138  -29.3003   22.3726 N   0  0  0  0  0  0
  -26.4237  -37.3846   23.9518 N   0  0  0  0  0  0
  -24.6634  -31.0796   22.1044 N   0  0  0  0  0  0
  -23.4176  -28.8188   23.3055 O   0  0  0  0  0  0
  -28.4285  -26.7554   20.0913 O   0  0  0  0  0  0
  -26.5591  -34.8937   22.4701 O   0  0  0  0  0  0
  -23.5319  -32.1447   23.7542 O   0  0  0  0  0  0
  -29.5561  -17.7340   19.8942 C   0  0  0  0  0  0
  -30.2846  -16.8308   20.6528 C   0  0  0  0  0  0
  -31.2606  -19.1141   20.5116 C   0  0  0  0  0  0
  -29.7414  -24.6977   19.9369 C   0  0  0  0  0  0
  -30.5220  -22.3013   20.3957 C   0  0  0  0  0  0
  -33.0314  -22.5203   20.2577 C   0  0  0  0  0  0
  -29.9073  -23.2746   19.3835 C   0  0  0  0  0  0
  -28.4358  -25.4211   19.5752 C   0  0  0  0  0  0
  -31.8319  -21.5997   19.9699 C   0  0  1  0  0  0
  -28.2637  -17.4919   19.1543 C   0  0  0  0  0  0
  -30.1300  -19.0149   19.8275 N   0  0  0  0  0  0
  -29.9817  -15.5208   20.9125 N   0  0  0  0  0  0
  -32.0090  -20.2836   20.5855 N   0  0  0  0  0  0
  -30.6320  -25.2564   20.5920 O   0  0  0  0  0  0
  -29.9659  -22.0819   21.4782 O   0  0  0  0  0  0
  -28.3520  -16.4218   18.3630 F   0  0  0  0  0  0
  -27.2671  -17.2785   20.0095 F   0  0  0  0  0  0
  -27.9144  -18.5270   18.3848 F   0  0  0  0  0  0
  -31.7258  -17.6106   21.2981 S   0  0  0  0  0  0
  -31.4733  -12.3856   19.1146 H   0  0  0  0  0  0
  -30.3291  -11.2845   19.8275 H   0  0  0  0  0  0
  -29.7423  -11.7635   17.4302 H   0  0  0  0  0  0
  -29.6752  -13.4750   17.7625 H   0  0  0  0  0  0
  -27.8276  -11.3020   18.8147 H   0  0  0  0  0  0
  -27.3767  -12.6282   17.7829 H   0  0  0  0  0  0
  -27.6943  -14.2472   19.5661 H   0  0  0  0  0  0
  -28.6909  -11.9756   21.3549 H   0  0  0  0  0  0
  -28.4954  -13.6299   21.8584 H   0  0  0  0  0  0
  -25.2808   -9.5617   22.4749 H   0  0  0  0  0  0
  -24.0003   -7.4628   22.7509 H   0  0  0  0  0  0
  -21.0845   -8.8756   19.8985 H   0  0  0  0  0  0
  -22.3735  -10.9645   19.6168 H   0  0  0  0  0  0
  -21.1976   -7.6139   23.9744 H   0  0  0  0  0  0
  -21.1451   -6.0492   25.9093 H   0  0  0  0  0  0
  -22.0596   -2.7583   23.2863 H   0  0  0  0  0  0
  -22.4031  -11.9953   22.4790 H   0  0  0  0  0  0
  -21.1108  -13.1431   22.2526 H   0  0  0  0  0  0
  -24.6503  -15.8230   20.5667 H   0  0  0  0  0  0
  -26.2741  -15.6525   20.1530 H   0  0  0  0  0  0
  -26.7060  -32.5570   23.1141 H   0  0  0  0  0  0
  -25.0160  -33.9797   25.0568 H   0  0  0  0  0  0
  -22.6860  -31.3092   21.4219 H   0  0  0  0  0  0
  -23.3830  -35.9497   23.3075 H   0  0  0  0  0  0
  -24.3655  -36.9073   22.2068 H   0  0  0  0  0  0
  -23.7060  -37.6348   23.6741 H   0  0  0  0  0  0
  -26.0289  -31.6053   20.5965 H   0  0  0  0  0  0
  -26.8160  -30.8939   21.9778 H   0  0  0  0  0  0
  -28.0947  -29.1191   21.1484 H   0  0  0  0  0  0
  -26.0200  -25.9880   18.9944 H   0  0  0  0  0  0
  -23.9636  -27.2945   19.0553 H   0  0  0  0  0  0
  -23.7237  -30.6116   19.4167 H   0  0  0  0  0  0
  -22.7250  -29.2619   19.8639 H   0  0  0  0  0  0
  -25.1214  -36.1939   25.0825 H   0  0  0  0  0  0
  -20.9947  -28.3229   24.1437 H   0  0  0  0  0  0
  -20.5665  -26.2258   23.3620 H   0  0  0  0  0  0
  -21.6648  -26.7419   22.1241 H   0  0  0  0  0  0
  -19.6932  -25.6282   21.1215 H   0  0  0  0  0  0
  -19.6705  -27.3197   20.6773 H   0  0  0  0  0  0
  -17.4215  -26.6679   21.3986 H   0  0  0  0  0  0
  -18.0313  -26.0039   22.8982 H   0  0  0  0  0  0
  -19.7940  -30.7262   24.2237 H   0  0  0  0  0  0
  -17.5018  -31.6231   24.5203 H   0  0  0  0  0  0
  -15.5361  -30.2983   23.7623 H   0  0  0  0  0  0
  -15.8675  -28.0835   22.7008 H   0  0  0  0  0  0
  -24.5903  -30.7095   25.7914 H   0  0  0  0  0  0
  -24.9018  -32.2926   26.4957 H   0  0  0  0  0  0
  -25.8181  -30.8931   27.0239 H   0  0  0  0  0  0
  -26.2665  -29.6831   24.1117 H   0  0  0  0  0  0
  -27.4063  -29.7221   25.4370 H   0  0  0  0  0  0
  -27.8478  -30.4346   23.9022 H   0  0  0  0  0  0
  -27.2779  -33.3595   26.1989 H   0  0  0  0  0  0
  -28.3881  -32.6763   25.0199 H   0  0  0  0  0  0
  -28.0731  -31.8356   26.5306 H   0  0  0  0  0  0
  -28.2390  -38.0257   24.7923 H   0  0  0  0  0  0
  -28.1398  -36.2865   24.5584 H   0  0  0  0  0  0
  -27.2470  -37.0550   25.8768 H   0  0  0  0  0  0
  -20.9304  -29.8726   21.6943 H   0  0  0  0  0  0
  -26.0097  -38.2827   24.1879 H   0  0  0  0  0  0
  -32.9824  -23.4267   19.6506 H   0  0  0  0  0  0
  -33.9815  -22.0374   20.0228 H   0  0  0  0  0  0
  -33.0605  -22.8315   21.3038 H   0  0  0  0  0  0
  -30.5446  -23.3201   18.5027 H   0  0  0  0  0  0
  -28.9392  -22.8873   19.0673 H   0  0  0  0  0  0
  -27.6073  -24.8455   19.9885 H   0  0  0  0  0  0
  -28.3254  -25.4462   18.4894 H   0  0  0  0  0  0
  -31.7903  -21.4300   18.8930 H   0  0  0  0  0  0
  -29.0236  -15.2990   21.1439 H   0  0  0  0  0  0
  -32.8597  -20.1866   21.1274 H   0  0  0  0  0  0
  1 25  1  0  0  0
  1 30  2  0  0  0
  1 82  1  0  0  0
  2  3  1  0  0  0
  2 25  1  0  0  0
  2 90  1  0  0  0
  2 91  1  0  0  0
  3  4  1  0  0  0
  3 92  1  0  0  0
  3 93  1  0  0  0
  4  5  1  0  0  0
  4 94  1  0  0  0
  4 95  1  0  0  0
  5  6  1  0  0  0
  5 26  1  0  0  0
  5 96  1  0  0  0
  6 25  1  0  0  0
  6 97  1  0  0  0
  6 98  1  0  0  0
  7  8  2  0  0  0
  7 26  1  0  0  0
  7 29  1  0  0  0
  8  9  1  0  0  0
  8 22  1  0  0  0
  9 10  1  0  0  0
  9 27  2  0  0  0
 10 11  2  0  0  0
 10 15  1  0  0  0
 11 12  1  0  0  0
 11 99  1  0  0  0
 12 13  2  0  0  0
 12100  1  0  0  0
 13 14  1  0  0  0
 13 31  1  0  0  0
 14 15  2  0  0  0
 14101  1  0  0  0
 15102  1  0  0  0
 16 17  2  0  0  0
 16 21  1  0  0  0
 16 31  1  0  0  0
 17 18  1  0  0  0
 17103  1  0  0  0
 18 19  2  0  0  0
 18104  1  0  0  0
 19 20  1  0  0  0
 19 24  1  0  0  0
 20 21  2  0  0  0
 20105  1  0  0  0
 21 23  1  0  0  0
 22 28  1  0  0  0
 22 32  2  0  0  0
 26 27  1  0  0  0
 28106  1  0  0  0
 28107  1  0  0  0
 29108  1  0  0  0
 29109  1  0  0  0
 33 34  1  0  0  0
 33 66  1  0  0  0
 33 70  2  0  0  0
 34 36  1  0  0  0
 34 59  1  0  0  0
 34110  1  0  0  0
 35 44  2  0  0  0
 35 45  1  0  0  0
 35 68  1  0  0  0
 36 56  1  0  0  0
 36111  1  0  0  0
 37 39  1  0  0  0
 37 47  1  0  0  0
 37 66  1  0  0  0
 37112  1  0  0  0
 38 43  2  0  0  0
 38 46  1  0  0  0
 38 47  1  0  0  0
 39 64  1  0  0  0
 39 67  2  0  0  0
 40 52  1  0  0  0
 40 53  2  0  0  0
 40 58  1  0  0  0
 41113  1  0  0  0
 41114  1  0  0  0
 41115  1  0  0  0
 41 48  1  0  0  0
 42 43  1  0  0  0
 42 66  1  0  0  0
 42116  1  0  0  0
 42117  1  0  0  0
 43 44  1  0  0  0
 44118  1  0  0  0
 45 46  2  0  0  0
 45119  1  0  0  0
 46120  1  0  0  0
 47121  1  0  0  0
 47122  1  0  0  0
 48 56  1  0  0  0
 48 65  1  0  0  0
 48123  1  0  0  0
 49 50  1  0  0  0
 49 53  1  0  0  0
 49 64  1  0  0  0
 49124  1  0  0  0
 50 51  1  0  0  0
 50125  1  0  0  0
 50126  1  0  0  0
 51 52  1  0  0  0
 51127  1  0  0  0
 51128  1  0  0  0
 52129  1  0  0  0
 52130  1  0  0  0
 53 54  1  0  0  0
 54 55  2  0  0  0
 54131  1  0  0  0
 55 57  1  0  0  0
 55132  1  0  0  0
 56 69  2  0  0  0
 57 58  2  0  0  0
 57133  1  0  0  0
 58134  1  0  0  0
 59 60  1  0  0  0
 59 61  1  0  0  0
 59 62  1  0  0  0
 60135  1  0  0  0
 60136  1  0  0  0
 60137  1  0  0  0
 61138  1  0  0  0
 61139  1  0  0  0
 61140  1  0  0  0
 62141  1  0  0  0
 62142  1  0  0  0
 62143  1  0  0  0
 63 65  1  0  0  0
 63144  1  0  0  0
 63145  1  0  0  0
 63146  1  0  0  0
 64147  1  0  0  0
 65148  1  0  0  0
 68 78  1  0  0  0
 71 72  2  0  0  0
 71 80  1  0  0  0
 71 81  1  0  0  0
 72 82  1  0  0  0
 72 89  1  0  0  0
 73 81  2  0  0  0
 73 83  1  0  0  0
 73 89  1  0  0  0
 74 77  1  0  0  0
 74 78  1  0  0  0
 74 84  2  0  0  0
 75 77  1  0  0  0
 75 79  1  0  0  0
 75 85  2  0  0  0
 76149  1  0  0  0
 76150  1  0  0  0
 76151  1  0  0  0
 76 79  1  0  0  0
 77152  1  0  0  0
 77153  1  0  0  0
 78154  1  0  0  0
 78155  1  0  0  0
 79 83  1  0  0  0
 79156  1  0  0  0
 80 86  1  0  0  0
 80 87  1  0  0  0
 80 88  1  0  0  0
 82157  1  0  0  0
 83158  1  0  0  0
M  ISO  4   1 100  68 101  78 101  82 100
M  END
> <chiral flag>
0

> <version>
0

> <s_m_source_file>
/data/baiqing/PycharmProjects/Reinvent-master-3.2/result/LINK_invent/BTK/process_docking_weight1_custom_product_contain_oxygen_bond_distance_aromatic_linkinvent_7_9_3/rearranged_h_0179.sdf

> <i_m_source_file_index>
36

> <r_mmod_Potential_Energy-OPLS-2005>
-102.725166320801

> <r_mmod_Stretch_Energy-OPLS-2005>
34.5895957946777

> <r_mmod_Bend_Energy-OPLS-2005>
96.7790374755859

> <r_mmod_Torsional_Energy-OPLS-2005>
222.212127685547

> <r_mmod_Improper_Torsional_Energy-OPLS-2005>
5.934250831604

> <r_mmod_Van_der_Waal_Energy-OPLS-2005>
127.65559387207

> <r_mmod_Electrostatic_Energy-OPLS-2005>
-352.247955322266

> <r_mmod_Solvation_Energy-OPLS-2005>
-251.888305664062

> <b_mmod_Minimization_Converged-OPLS-2005>
0

> <r_mmod_RMS_Derivative-OPLS-2005>
3.83864140510559

$$$$
36
                    3D
 Structure written by MMmdl.
155163  0  0  1  0            999 V2000
  -30.6451  -14.6541   20.5133 C   0  0  0  0  0  0
  -30.4335  -12.4038   19.4643 C   0  0  0  0  0  0
  -29.5085  -12.5088   18.2316 C   0  0  0  0  0  0
  -28.0320  -12.3449   18.6422 C   0  0  0  0  0  0
  -27.6513  -13.2230   19.8642 C   0  0  2  0  0  0
  -28.6956  -13.0992   20.9975 C   0  0  0  0  0  0
  -25.2540  -13.8181   20.5697 C   0  0  0  0  0  0
  -24.1812  -13.0434   20.9178 C   0  0  0  0  0  0
  -24.6395  -11.6908   20.8729 C   0  0  0  0  0  0
  -23.9066  -10.4291   21.0398 C   0  0  0  0  0  0
  -24.3617   -9.4210   21.9180 C   0  0  0  0  0  0
  -23.6294   -8.2244   22.0751 C   0  0  0  0  0  0
  -22.4274   -8.0281   21.3546 C   0  0  0  0  0  0
  -21.9912   -9.0249   20.4642 C   0  0  0  0  0  0
  -22.7237  -10.2130   20.3050 C   0  0  0  0  0  0
  -21.6854   -6.0737   22.5279 C   0  0  0  0  0  0
  -21.4015   -6.5642   23.8212 C   0  0  0  0  0  0
  -21.3660   -5.6794   24.9175 C   0  0  0  0  0  0
  -21.6043   -4.3057   24.7225 C   0  0  0  0  0  0
  -21.8819   -3.8148   23.4347 C   0  0  0  0  0  0
  -21.9193   -4.6965   22.3403 C   0  0  0  0  0  0
  -22.7836  -13.5223   21.1849 C   0  0  0  0  0  0
  -22.1662   -4.2151   21.0981 F   0  0  0  0  0  0
  -21.5629   -3.4538   25.7739 F   0  0  0  0  0  0
  -30.0117  -13.4380   20.4336 N   0  0  0  0  0  0
  -26.2982  -12.9378   20.3335 N   0  0  0  0  0  0
  -25.9330  -11.6523   20.5761 N   0  0  0  0  0  0
  -22.0484  -12.8211   22.0409 N   0  0  0  0  0  0
  -25.4229  -15.1910   20.4172 N   0  0  0  0  0  0
  -31.8002  -14.7758   20.1048 O   0  0  0  0  0  0
  -21.6640   -6.8878   21.4241 O   0  0  0  0  0  0
  -22.3518  -14.5533   20.6709 O   0  0  0  0  0  0
  -24.6268  -31.8600   23.2063 C   0  0  0  0  0  0
  -25.9115  -32.4782   23.8377 C   0  0  1  0  0  0
  -27.2079  -27.2947   20.1282 C   0  0  0  0  0  0
  -25.5930  -33.8586   24.2295 N   0  0  0  0  0  0
  -23.4214  -30.4863   21.5481 C   0  0  2  0  0  0
  -24.8681  -28.9483   20.1102 C   0  0  0  0  0  0
  -22.7477  -29.4623   22.4929 C   0  0  0  0  0  0
  -18.0286  -28.1391   22.8479 C   0  0  0  0  0  0
  -24.1491  -36.7297   23.2638 C   0  0  0  0  0  0
  -25.9661  -30.7797   21.3877 C   0  0  0  0  0  0
  -26.0360  -29.4049   20.7350 C   0  0  0  0  0  0
  -27.2078  -28.5863   20.7462 C   0  0  0  0  0  0
  -26.0421  -26.9417   19.4154 C   0  0  0  0  0  0
  -24.8741  -27.7202   19.4392 C   0  0  0  0  0  0
  -23.6382  -29.8300   20.1608 C   0  0  0  0  0  0
  -25.4113  -36.3088   24.0328 C   0  0  1  0  0  0
  -20.5890  -28.3689   23.1282 C   0  0  2  0  0  0
  -20.6782  -26.9411   22.5408 C   0  0  0  0  0  0
  -19.5759  -26.6387   21.5211 C   0  0  0  0  0  0
  -18.1937  -26.7933   22.1620 C   0  0  0  0  0  0
  -19.1540  -28.8854   23.2879 C   0  0  0  0  0  0
  -18.9463  -30.1458   23.8888 C   0  0  0  0  0  0
  -17.6464  -30.6587   24.0564 C   0  0  0  0  0  0
  -25.9050  -34.9454   23.5110 C   0  0  0  0  0  0
  -16.5354  -29.9088   23.6334 C   0  0  0  0  0  0
  -16.7274  -28.6511   23.0344 C   0  0  0  0  0  0
  -26.4497  -31.6590   25.0748 C   0  0  0  0  0  0
  -25.3726  -31.3733   26.1468 C   0  0  0  0  0  0
  -27.0338  -30.3006   24.6218 C   0  0  0  0  0  0
  -27.6054  -32.4327   25.7519 C   0  0  0  0  0  0
  -27.5576  -37.1806   24.8464 C   0  0  0  0  0  0
  -21.4190  -29.3044   22.3671 N   0  0  0  0  0  0
  -26.4291  -37.3779   23.9405 N   0  0  0  0  0  0
  -24.6898  -31.0594   22.1030 N   0  0  0  0  0  0
  -23.4192  -28.8148   23.3004 O   0  0  0  0  0  0
  -28.2989  -26.4038   20.1483 O   0  0  0  0  0  0
  -26.5617  -34.8917   22.4673 O   0  0  0  0  0  0
  -23.5426  -32.1408   23.7371 O   0  0  0  0  0  0
  -31.3374  -19.3019   20.6502 C   0  0  0  0  0  0
  -30.1858  -20.1438   20.7137 C   0  0  0  0  0  0
  -30.0490  -17.1837   20.8081 C   0  0  0  0  0  0
  -31.2854  -17.8804   20.7128 C   0  0  0  0  0  0
  -28.9515  -19.4512   20.8220 C   0  0  0  0  0  0
  -28.8917  -18.0164   20.8643 C   0  0  0  0  0  0
  -30.3319  -21.6660   20.6963 C   0  0  0  0  0  0
  -29.4274  -24.0990   20.5435 C   0  0  0  0  0  0
  -26.8950  -24.1880   20.2092 C   0  0  0  0  0  0
  -28.1285  -25.0013   20.6747 C   0  0  2  0  0  0
  -29.8752  -15.7223   20.8987 N   0  0  0  0  0  0
  -29.3200  -22.6070   20.6176 N   0  0  0  0  0  0
  -31.5854  -22.1334   20.7831 N   0  3  0  0  0  0
  -30.5342  -24.6404   20.4208 O   0  0  0  0  0  0
  -32.4626  -17.2145   20.7174 F   0  0  0  0  0  0
  -27.8029  -20.1739   20.8855 F   0  0  0  0  0  0
  -27.6803  -17.4117   20.9644 F   0  0  0  0  0  0
  -31.4766  -12.5159   19.1634 H   0  0  0  0  0  0
  -30.3611  -11.4133   19.9163 H   0  0  0  0  0  0
  -29.7764  -11.7509   17.4940 H   0  0  0  0  0  0
  -29.6501  -13.4745   17.7433 H   0  0  0  0  0  0
  -27.8726  -11.2924   18.8802 H   0  0  0  0  0  0
  -27.3776  -12.5666   17.7982 H   0  0  0  0  0  0
  -27.6625  -14.2551   19.5133 H   0  0  0  0  0  0
  -28.7091  -12.0840   21.3964 H   0  0  0  0  0  0
  -28.4363  -13.7447   21.8380 H   0  0  0  0  0  0
  -25.2760   -9.5690   22.4756 H   0  0  0  0  0  0
  -24.0004   -7.4637   22.7472 H   0  0  0  0  0  0
  -21.0842   -8.8764   19.8949 H   0  0  0  0  0  0
  -22.3690  -10.9667   19.6159 H   0  0  0  0  0  0
  -21.2006   -7.6149   23.9717 H   0  0  0  0  0  0
  -21.1484   -6.0524   25.9079 H   0  0  0  0  0  0
  -22.0597   -2.7609   23.2845 H   0  0  0  0  0  0
  -22.4103  -11.9870   22.4790 H   0  0  0  0  0  0
  -21.1102  -13.1231   22.2618 H   0  0  0  0  0  0
  -24.6569  -15.8411   20.5526 H   0  0  0  0  0  0
  -26.2860  -15.6534   20.1616 H   0  0  0  0  0  0
  -26.7170  -32.5447   23.1110 H   0  0  0  0  0  0
  -25.0091  -33.9740   25.0448 H   0  0  0  0  0  0
  -22.7162  -31.3085   21.4081 H   0  0  0  0  0  0
  -23.3755  -35.9631   23.3304 H   0  0  0  0  0  0
  -24.3581  -36.8909   22.2052 H   0  0  0  0  0  0
  -23.7250  -37.6501   23.6654 H   0  0  0  0  0  0
  -26.1049  -31.5386   20.6164 H   0  0  0  0  0  0
  -26.8447  -30.8277   22.0185 H   0  0  0  0  0  0
  -28.0972  -28.9265   21.2576 H   0  0  0  0  0  0
  -26.0113  -26.0483   18.8143 H   0  0  0  0  0  0
  -23.9949  -27.3824   18.9081 H   0  0  0  0  0  0
  -23.7593  -30.6105   19.4087 H   0  0  0  0  0  0
  -22.7581  -29.2619   19.8542 H   0  0  0  0  0  0
  -25.1296  -36.1937   25.0821 H   0  0  0  0  0  0
  -20.9984  -28.3261   24.1402 H   0  0  0  0  0  0
  -20.5701  -26.2287   23.3599 H   0  0  0  0  0  0
  -21.6649  -26.7450   22.1188 H   0  0  0  0  0  0
  -19.6921  -25.6300   21.1234 H   0  0  0  0  0  0
  -19.6706  -27.3208   20.6751 H   0  0  0  0  0  0
  -17.4209  -26.6673   21.4023 H   0  0  0  0  0  0
  -18.0334  -26.0082   22.9025 H   0  0  0  0  0  0
  -19.7938  -30.7279   24.2251 H   0  0  0  0  0  0
  -17.5020  -31.6267   24.5170 H   0  0  0  0  0  0
  -15.5356  -30.2990   23.7670 H   0  0  0  0  0  0
  -15.8670  -28.0837   22.7050 H   0  0  0  0  0  0
  -24.5917  -30.7062   25.7801 H   0  0  0  0  0  0
  -24.8910  -32.2906   26.4868 H   0  0  0  0  0  0
  -25.8052  -30.8935   27.0258 H   0  0  0  0  0  0
  -26.2921  -29.6757   24.1233 H   0  0  0  0  0  0
  -27.4013  -29.7255   25.4728 H   0  0  0  0  0  0
  -27.8801  -30.4279   23.9466 H   0  0  0  0  0  0
  -27.2661  -33.3634   26.2076 H   0  0  0  0  0  0
  -28.3876  -32.6867   25.0353 H   0  0  0  0  0  0
  -28.0704  -31.8464   26.5454 H   0  0  0  0  0  0
  -28.2596  -38.0104   24.7508 H   0  0  0  0  0  0
  -28.1072  -36.2630   24.6296 H   0  0  0  0  0  0
  -27.2293  -37.1465   25.8870 H   0  0  0  0  0  0
  -20.9360  -29.8776   21.6889 H   0  0  0  0  0  0
  -26.0171  -38.2853   24.1408 H   0  0  0  0  0  0
  -32.3234  -19.7328   20.5701 H   0  0  0  0  0  0
  -26.8606  -23.1924   20.6495 H   0  0  0  0  0  0
  -26.8764  -24.0623   19.1261 H   0  0  0  0  0  0
  -25.9634  -24.6442   20.5387 H   0  0  0  0  0  0
  -28.0073  -25.1325   21.7502 H   0  0  0  0  0  0
  -28.9430  -15.4555   21.1715 H   0  0  0  0  0  0
  -28.4145  -22.1586   20.6660 H   0  0  0  0  0  0
  -32.3754  -21.5216   20.9019 H   0  0  0  0  0  0
  -31.7309  -23.1351   20.7236 H   0  0  0  0  0  0
  1 25  1  0  0  0
  1 30  2  0  0  0
  1 81  1  0  0  0
  2  3  1  0  0  0
  2 25  1  0  0  0
  2 88  1  0  0  0
  2 89  1  0  0  0
  3  4  1  0  0  0
  3 90  1  0  0  0
  3 91  1  0  0  0
  4  5  1  0  0  0
  4 92  1  0  0  0
  4 93  1  0  0  0
  5  6  1  0  0  0
  5 26  1  0  0  0
  5 94  1  0  0  0
  6 25  1  0  0  0
  6 95  1  0  0  0
  6 96  1  0  0  0
  7  8  2  0  0  0
  7 26  1  0  0  0
  7 29  1  0  0  0
  8  9  1  0  0  0
  8 22  1  0  0  0
  9 10  1  0  0  0
  9 27  2  0  0  0
 10 11  2  0  0  0
 10 15  1  0  0  0
 11 12  1  0  0  0
 11 97  1  0  0  0
 12 13  2  0  0  0
 12 98  1  0  0  0
 13 14  1  0  0  0
 13 31  1  0  0  0
 14 15  2  0  0  0
 14 99  1  0  0  0
 15100  1  0  0  0
 16 17  2  0  0  0
 16 21  1  0  0  0
 16 31  1  0  0  0
 17 18  1  0  0  0
 17101  1  0  0  0
 18 19  2  0  0  0
 18102  1  0  0  0
 19 20  1  0  0  0
 19 24  1  0  0  0
 20 21  2  0  0  0
 20103  1  0  0  0
 21 23  1  0  0  0
 22 28  1  0  0  0
 22 32  2  0  0  0
 26 27  1  0  0  0
 28104  1  0  0  0
 28105  1  0  0  0
 29106  1  0  0  0
 29107  1  0  0  0
 33 34  1  0  0  0
 33 66  1  0  0  0
 33 70  2  0  0  0
 34 36  1  0  0  0
 34 59  1  0  0  0
 34108  1  0  0  0
 35 44  2  0  0  0
 35 45  1  0  0  0
 35 68  1  0  0  0
 36 56  1  0  0  0
 36109  1  0  0  0
 37 39  1  0  0  0
 37 47  1  0  0  0
 37 66  1  0  0  0
 37110  1  0  0  0
 38 43  2  0  0  0
 38 46  1  0  0  0
 38 47  1  0  0  0
 39 64  1  0  0  0
 39 67  2  0  0  0
 40 52  1  0  0  0
 40 53  2  0  0  0
 40 58  1  0  0  0
 41111  1  0  0  0
 41112  1  0  0  0
 41113  1  0  0  0
 41 48  1  0  0  0
 42 43  1  0  0  0
 42 66  1  0  0  0
 42114  1  0  0  0
 42115  1  0  0  0
 43 44  1  0  0  0
 44116  1  0  0  0
 45 46  2  0  0  0
 45117  1  0  0  0
 46118  1  0  0  0
 47119  1  0  0  0
 47120  1  0  0  0
 48 56  1  0  0  0
 48 65  1  0  0  0
 48121  1  0  0  0
 49 50  1  0  0  0
 49 53  1  0  0  0
 49 64  1  0  0  0
 49122  1  0  0  0
 50 51  1  0  0  0
 50123  1  0  0  0
 50124  1  0  0  0
 51 52  1  0  0  0
 51125  1  0  0  0
 51126  1  0  0  0
 52127  1  0  0  0
 52128  1  0  0  0
 53 54  1  0  0  0
 54 55  2  0  0  0
 54129  1  0  0  0
 55 57  1  0  0  0
 55130  1  0  0  0
 56 69  2  0  0  0
 57 58  2  0  0  0
 57131  1  0  0  0
 58132  1  0  0  0
 59 60  1  0  0  0
 59 61  1  0  0  0
 59 62  1  0  0  0
 60133  1  0  0  0
 60134  1  0  0  0
 60135  1  0  0  0
 61136  1  0  0  0
 61137  1  0  0  0
 61138  1  0  0  0
 62139  1  0  0  0
 62140  1  0  0  0
 62141  1  0  0  0
 63 65  1  0  0  0
 63142  1  0  0  0
 63143  1  0  0  0
 63144  1  0  0  0
 64145  1  0  0  0
 65146  1  0  0  0
 68 80  1  0  0  0
 71 72  2  0  0  0
 71 74  1  0  0  0
 71147  1  0  0  0
 72 75  1  0  0  0
 72 77  1  0  0  0
 73 74  2  0  0  0
 73 76  1  0  0  0
 73 81  1  0  0  0
 74 85  1  0  0  0
 75 76  2  0  0  0
 75 86  1  0  0  0
 76 87  1  0  0  0
 77 82  1  0  0  0
 77 83  2  0  0  0
 78 80  1  0  0  0
 78 82  1  0  0  0
 78 84  2  0  0  0
 79148  1  0  0  0
 79149  1  0  0  0
 79150  1  0  0  0
 79 80  1  0  0  0
 80151  1  0  0  0
 81152  1  0  0  0
 82153  1  0  0  0
 83154  1  0  0  0
 83155  1  0  0  0
M  CHG  1  83   1
M  ISO  4   1 100  68 101  80 101  81 100
M  END
> <chiral flag>
0

> <version>
0

> <s_m_source_file>
/data/baiqing/PycharmProjects/Reinvent-master-3.2/result/LINK_invent/BTK/process_docking_weight1_custom_product_contain_oxygen_bond_distance_aromatic_linkinvent_7_9_3/rearranged_h_0179.sdf

> <i_m_source_file_index>
37

> <r_mmod_Potential_Energy-OPLS-2005>
-287.649383544922

> <r_mmod_Stretch_Energy-OPLS-2005>
97.285514831543

> <r_mmod_Bend_Energy-OPLS-2005>
163.167541503906

> <r_mmod_Torsional_Energy-OPLS-2005>
234.667282104492

> <r_mmod_Improper_Torsional_Energy-OPLS-2005>
4.23126792907715

> <r_mmod_Van_der_Waal_Energy-OPLS-2005>
175.037780761719

> <r_mmod_Electrostatic_Energy-OPLS-2005>
-543.467224121094

> <r_mmod_Solvation_Energy-OPLS-2005>
-476.444793701172

> <b_mmod_Minimization_Converged-OPLS-2005>
0

> <r_mmod_RMS_Derivative-OPLS-2005>
0.884137392044067

$$$$
37
                    3D
 Structure written by MMmdl.
150158  0  0  1  0            999 V2000
  -30.6212  -14.8011   20.4842 C   0  0  0  0  0  0
  -30.4323  -12.4905   19.5014 C   0  0  0  0  0  0
  -29.5191  -12.5222   18.2555 C   0  0  0  0  0  0
  -28.0462  -12.3348   18.6632 C   0  0  0  0  0  0
  -27.6427  -13.2442   19.8540 C   0  0  2  0  0  0
  -28.6829  -13.2106   20.9949 C   0  0  0  0  0  0
  -25.2503  -13.8221   20.5712 C   0  0  0  0  0  0
  -24.1797  -13.0448   20.9194 C   0  0  0  0  0  0
  -24.6406  -11.6930   20.8735 C   0  0  0  0  0  0
  -23.9082  -10.4302   21.0400 C   0  0  0  0  0  0
  -24.3626   -9.4218   21.9184 C   0  0  0  0  0  0
  -23.6298   -8.2252   22.0755 C   0  0  0  0  0  0
  -22.4281   -8.0285   21.3540 C   0  0  0  0  0  0
  -21.9921   -9.0261   20.4643 C   0  0  0  0  0  0
  -22.7252  -10.2141   20.3053 C   0  0  0  0  0  0
  -21.6859   -6.0738   22.5278 C   0  0  0  0  0  0
  -21.4018   -6.5639   23.8210 C   0  0  0  0  0  0
  -21.3660   -5.6790   24.9172 C   0  0  0  0  0  0
  -21.6046   -4.3054   24.7224 C   0  0  0  0  0  0
  -21.8820   -3.8146   23.4344 C   0  0  0  0  0  0
  -21.9194   -4.6963   22.3401 C   0  0  0  0  0  0
  -22.7818  -13.5219   21.1861 C   0  0  0  0  0  0
  -22.1662   -4.2147   21.0979 F   0  0  0  0  0  0
  -21.5628   -3.4539   25.7737 F   0  0  0  0  0  0
  -29.9882  -13.5692   20.4248 N   0  0  0  0  0  0
  -26.2949  -12.9454   20.3307 N   0  0  0  0  0  0
  -25.9345  -11.6577   20.5755 N   0  0  0  0  0  0
  -22.0478  -12.8195   22.0419 N   0  0  0  0  0  0
  -25.4199  -15.1948   20.4169 N   0  0  0  0  0  0
  -31.7699  -14.8629   20.0425 O   0  0  0  0  0  0
  -21.6643   -6.8883   21.4241 O   0  0  0  0  0  0
  -22.3498  -14.5531   20.6728 O   0  0  0  0  0  0
  -24.6370  -31.8530   23.1983 C   0  0  0  0  0  0
  -25.9176  -32.4748   23.8333 C   0  0  1  0  0  0
  -27.2015  -27.1924   20.1486 C   0  0  0  0  0  0
  -25.5947  -33.8552   24.2247 N   0  0  0  0  0  0
  -23.4380  -30.4770   21.5422 C   0  0  2  0  0  0
  -24.8866  -28.9252   20.1087 C   0  0  0  0  0  0
  -22.7549  -29.4581   22.4877 C   0  0  0  0  0  0
  -18.0305  -28.1398   22.8474 C   0  0  0  0  0  0
  -24.1486  -36.7283   23.2636 C   0  0  0  0  0  0
  -25.9908  -30.7408   21.3968 C   0  0  0  0  0  0
  -26.0588  -29.3576   20.7428 C   0  0  0  0  0  0
  -27.2169  -28.5009   20.7619 C   0  0  0  0  0  0
  -26.0358  -26.8990   19.4094 C   0  0  0  0  0  0
  -24.8838  -27.7046   19.4269 C   0  0  0  0  0  0
  -23.6628  -29.8205   20.1562 C   0  0  0  0  0  0
  -25.4114  -36.3065   24.0321 C   0  0  1  0  0  0
  -20.5917  -28.3710   23.1245 C   0  0  2  0  0  0
  -20.6789  -26.9420   22.5400 C   0  0  0  0  0  0
  -19.5757  -26.6382   21.5212 C   0  0  0  0  0  0
  -18.1937  -26.7937   22.1620 C   0  0  0  0  0  0
  -19.1562  -28.8871   23.2849 C   0  0  0  0  0  0
  -18.9479  -30.1465   23.8875 C   0  0  0  0  0  0
  -17.6476  -30.6585   24.0561 C   0  0  0  0  0  0
  -25.9061  -34.9436   23.5084 C   0  0  0  0  0  0
  -16.5365  -29.9081   23.6342 C   0  0  0  0  0  0
  -16.7291  -28.6504   23.0350 C   0  0  0  0  0  0
  -26.4509  -31.6595   25.0748 C   0  0  0  0  0  0
  -25.3705  -31.3782   26.1454 C   0  0  0  0  0  0
  -27.0367  -30.2994   24.6300 C   0  0  0  0  0  0
  -27.6053  -32.4350   25.7529 C   0  0  0  0  0  0
  -27.5575  -37.1793   24.8462 C   0  0  0  0  0  0
  -21.4247  -29.3053   22.3632 N   0  0  0  0  0  0
  -26.4282  -37.3774   23.9413 N   0  0  0  0  0  0
  -24.7076  -31.0432   22.1011 N   0  0  0  0  0  0
  -23.4217  -28.8110   23.2994 O   0  0  0  0  0  0
  -28.2518  -26.2190   20.1888 O   0  0  0  0  0  0
  -26.5635  -34.8911   22.4653 O   0  0  0  0  0  0
  -23.5503  -32.1391   23.7226 O   0  0  0  0  0  0
  -29.5211  -19.1501   22.1171 C   0  0  0  0  0  0
  -29.2741  -20.5691   21.9995 C   0  0  0  0  0  0
  -29.6956  -18.5858   20.8718 C   0  0  0  0  0  0
  -29.2596  -20.8724   20.6674 C   0  0  0  0  0  0
  -30.0769  -17.1655   20.3872 C   0  0  0  0  0  0
  -26.6959  -24.0808   20.1516 C   0  0  0  0  0  0
  -29.1890  -23.5828   20.5583 C   0  0  0  0  0  0
  -28.0145  -24.7453   20.6001 C   0  0  1  0  0  0
  -29.9019  -15.9710   20.9515 N   0  0  0  0  0  0
  -28.9225  -22.1552   20.0483 N   0  0  0  0  0  0
  -29.5146  -19.6679   19.9580 O   0  0  0  0  0  0
  -31.4753  -12.5955   19.2002 H   0  0  0  0  0  0
  -30.3700  -11.5197   19.9958 H   0  0  0  0  0  0
  -29.8118  -11.7435   17.5499 H   0  0  0  0  0  0
  -29.6402  -13.4724   17.7335 H   0  0  0  0  0  0
  -27.9133  -11.2881   18.9380 H   0  0  0  0  0  0
  -27.3895  -12.5108   17.8105 H   0  0  0  0  0  0
  -27.6311  -14.2624   19.4638 H   0  0  0  0  0  0
  -28.7227  -12.2246   21.4603 H   0  0  0  0  0  0
  -28.4016  -13.9093   21.7841 H   0  0  0  0  0  0
  -25.2770   -9.5694   22.4759 H   0  0  0  0  0  0
  -24.0003   -7.4649   22.7483 H   0  0  0  0  0  0
  -21.0850   -8.8784   19.8950 H   0  0  0  0  0  0
  -22.3713  -10.9677   19.6157 H   0  0  0  0  0  0
  -21.2012   -7.6148   23.9714 H   0  0  0  0  0  0
  -21.1483   -6.0521   25.9074 H   0  0  0  0  0  0
  -22.0598   -2.7607   23.2846 H   0  0  0  0  0  0
  -22.4100  -11.9844   22.4775 H   0  0  0  0  0  0
  -21.1103  -13.1221   22.2658 H   0  0  0  0  0  0
  -24.6627  -15.8574   20.5438 H   0  0  0  0  0  0
  -26.2916  -15.6335   20.1456 H   0  0  0  0  0  0
  -26.7237  -32.5379   23.1065 H   0  0  0  0  0  0
  -25.0099  -33.9690   25.0394 H   0  0  0  0  0  0
  -22.7377  -31.3019   21.3959 H   0  0  0  0  0  0
  -23.3745  -35.9615   23.3292 H   0  0  0  0  0  0
  -24.3580  -36.8928   22.2052 H   0  0  0  0  0  0
  -23.7232  -37.6478   23.6674 H   0  0  0  0  0  0
  -26.1401  -31.4965   20.6239 H   0  0  0  0  0  0
  -26.8644  -30.7905   22.0350 H   0  0  0  0  0  0
  -28.1040  -28.8191   21.2912 H   0  0  0  0  0  0
  -25.9867  -26.0162   18.7947 H   0  0  0  0  0  0
  -24.0061  -27.3880   18.8803 H   0  0  0  0  0  0
  -23.8002  -30.6035   19.4087 H   0  0  0  0  0  0
  -22.7787  -29.2651   19.8390 H   0  0  0  0  0  0
  -25.1288  -36.1908   25.0811 H   0  0  0  0  0  0
  -21.0005  -28.3288   24.1367 H   0  0  0  0  0  0
  -20.5703  -26.2317   23.3615 H   0  0  0  0  0  0
  -21.6651  -26.7449   22.1184 H   0  0  0  0  0  0
  -19.6925  -25.6293   21.1247 H   0  0  0  0  0  0
  -19.6693  -27.3183   20.6738 H   0  0  0  0  0  0
  -17.4215  -26.6699   21.4009 H   0  0  0  0  0  0
  -18.0316  -26.0085   22.9020 H   0  0  0  0  0  0
  -19.7957  -30.7284   24.2236 H   0  0  0  0  0  0
  -17.5032  -31.6269   24.5157 H   0  0  0  0  0  0
  -15.5359  -30.2967   23.7680 H   0  0  0  0  0  0
  -15.8699  -28.0814   22.7065 H   0  0  0  0  0  0
  -24.5908  -30.7092   25.7792 H   0  0  0  0  0  0
  -24.8853  -32.2963   26.4788 H   0  0  0  0  0  0
  -25.7993  -30.9041   27.0290 H   0  0  0  0  0  0
  -26.2975  -29.6730   24.1297 H   0  0  0  0  0  0
  -27.3981  -29.7281   25.4859 H   0  0  0  0  0  0
  -27.8885  -30.4241   23.9610 H   0  0  0  0  0  0
  -27.2674  -33.3704   26.2003 H   0  0  0  0  0  0
  -28.3917  -32.6824   25.0386 H   0  0  0  0  0  0
  -28.0653  -31.8538   26.5535 H   0  0  0  0  0  0
  -28.2566  -38.0112   24.7534 H   0  0  0  0  0  0
  -28.1087  -36.2641   24.6250 H   0  0  0  0  0  0
  -27.2299  -37.1414   25.8865 H   0  0  0  0  0  0
  -20.9445  -29.8809   21.6854 H   0  0  0  0  0  0
  -26.0152  -38.2835   24.1448 H   0  0  0  0  0  0
  -29.5958  -18.5939   23.0401 H   0  0  0  0  0  0
  -29.1000  -21.2681   22.8051 H   0  0  0  0  0  0
  -30.6217  -17.2001   19.4382 H   0  0  0  0  0  0
  -25.8179  -24.6179   20.5043 H   0  0  0  0  0  0
  -26.5867  -23.0896   20.5918 H   0  0  0  0  0  0
  -26.6506  -23.9582   19.0693 H   0  0  0  0  0  0
  -29.6254  -23.5062   21.5552 H   0  0  0  0  0  0
  -29.9978  -23.9743   19.9402 H   0  0  0  0  0  0
  -27.8586  -24.8720   21.6726 H   0  0  0  0  0  0
  -28.7961  -22.1125   19.0402 H   0  0  0  0  0  0
  1 25  1  0  0  0
  1 30  2  0  0  0
  1 79  1  0  0  0
  2  3  1  0  0  0
  2 25  1  0  0  0
  2 82  1  0  0  0
  2 83  1  0  0  0
  3  4  1  0  0  0
  3 84  1  0  0  0
  3 85  1  0  0  0
  4  5  1  0  0  0
  4 86  1  0  0  0
  4 87  1  0  0  0
  5  6  1  0  0  0
  5 26  1  0  0  0
  5 88  1  0  0  0
  6 25  1  0  0  0
  6 89  1  0  0  0
  6 90  1  0  0  0
  7  8  2  0  0  0
  7 26  1  0  0  0
  7 29  1  0  0  0
  8  9  1  0  0  0
  8 22  1  0  0  0
  9 10  1  0  0  0
  9 27  2  0  0  0
 10 11  2  0  0  0
 10 15  1  0  0  0
 11 12  1  0  0  0
 11 91  1  0  0  0
 12 13  2  0  0  0
 12 92  1  0  0  0
 13 14  1  0  0  0
 13 31  1  0  0  0
 14 15  2  0  0  0
 14 93  1  0  0  0
 15 94  1  0  0  0
 16 17  2  0  0  0
 16 21  1  0  0  0
 16 31  1  0  0  0
 17 18  1  0  0  0
 17 95  1  0  0  0
 18 19  2  0  0  0
 18 96  1  0  0  0
 19 20  1  0  0  0
 19 24  1  0  0  0
 20 21  2  0  0  0
 20 97  1  0  0  0
 21 23  1  0  0  0
 22 28  1  0  0  0
 22 32  2  0  0  0
 26 27  1  0  0  0
 28 98  1  0  0  0
 28 99  1  0  0  0
 29100  1  0  0  0
 29101  1  0  0  0
 33 34  1  0  0  0
 33 66  1  0  0  0
 33 70  2  0  0  0
 34 36  1  0  0  0
 34 59  1  0  0  0
 34102  1  0  0  0
 35 44  2  0  0  0
 35 45  1  0  0  0
 35 68  1  0  0  0
 36 56  1  0  0  0
 36103  1  0  0  0
 37 39  1  0  0  0
 37 47  1  0  0  0
 37 66  1  0  0  0
 37104  1  0  0  0
 38 43  2  0  0  0
 38 46  1  0  0  0
 38 47  1  0  0  0
 39 64  1  0  0  0
 39 67  2  0  0  0
 40 52  1  0  0  0
 40 53  2  0  0  0
 40 58  1  0  0  0
 41105  1  0  0  0
 41106  1  0  0  0
 41107  1  0  0  0
 41 48  1  0  0  0
 42 43  1  0  0  0
 42 66  1  0  0  0
 42108  1  0  0  0
 42109  1  0  0  0
 43 44  1  0  0  0
 44110  1  0  0  0
 45 46  2  0  0  0
 45111  1  0  0  0
 46112  1  0  0  0
 47113  1  0  0  0
 47114  1  0  0  0
 48 56  1  0  0  0
 48 65  1  0  0  0
 48115  1  0  0  0
 49 50  1  0  0  0
 49 53  1  0  0  0
 49 64  1  0  0  0
 49116  1  0  0  0
 50 51  1  0  0  0
 50117  1  0  0  0
 50118  1  0  0  0
 51 52  1  0  0  0
 51119  1  0  0  0
 51120  1  0  0  0
 52121  1  0  0  0
 52122  1  0  0  0
 53 54  1  0  0  0
 54 55  2  0  0  0
 54123  1  0  0  0
 55 57  1  0  0  0
 55124  1  0  0  0
 56 69  2  0  0  0
 57 58  2  0  0  0
 57125  1  0  0  0
 58126  1  0  0  0
 59 60  1  0  0  0
 59 61  1  0  0  0
 59 62  1  0  0  0
 60127  1  0  0  0
 60128  1  0  0  0
 60129  1  0  0  0
 61130  1  0  0  0
 61131  1  0  0  0
 61132  1  0  0  0
 62133  1  0  0  0
 62134  1  0  0  0
 62135  1  0  0  0
 63 65  1  0  0  0
 63136  1  0  0  0
 63137  1  0  0  0
 63138  1  0  0  0
 64139  1  0  0  0
 65140  1  0  0  0
 68 78  1  0  0  0
 71 72  1  0  0  0
 71 73  2  0  0  0
 71141  1  0  0  0
 72 74  2  0  0  0
 72142  1  0  0  0
 73 75  1  0  0  0
 73 81  1  0  0  0
 74 80  1  0  0  0
 74 81  1  0  0  0
 75 79  2  0  0  0
 75143  1  0  0  0
 76144  1  0  0  0
 76145  1  0  0  0
 76146  1  0  0  0
 76 78  1  0  0  0
 77 78  1  0  0  0
 77 80  1  0  0  0
 77147  1  0  0  0
 77148  1  0  0  0
 78149  1  0  0  0
 80150  1  0  0  0
M  ISO  4   1 100  68 101  78 101  79 100
M  END
> <chiral flag>
0

> <version>
0

> <s_m_source_file>
/data/baiqing/PycharmProjects/Reinvent-master-3.2/result/LINK_invent/BTK/process_docking_weight1_custom_product_contain_oxygen_bond_distance_aromatic_linkinvent_7_9_3/rearranged_h_0179.sdf

> <i_m_source_file_index>
38

> <r_mmod_Potential_Energy-OPLS-2005>
269.576934814453

> <r_mmod_Stretch_Energy-OPLS-2005>
169.586471557617

> <r_mmod_Bend_Energy-OPLS-2005>
217.413757324219

> <r_mmod_Torsional_Energy-OPLS-2005>
218.516845703125

> <r_mmod_Improper_Torsional_Energy-OPLS-2005>
4.16151905059814

> <r_mmod_Van_der_Waal_Energy-OPLS-2005>
134.183364868164

> <r_mmod_Electrostatic_Energy-OPLS-2005>
-403.626495361328

> <r_mmod_Solvation_Energy-OPLS-2005>
-193.491973876953

> <b_mmod_Minimization_Converged-OPLS-2005>
0

> <r_mmod_RMS_Derivative-OPLS-2005>
1.18893301486969

$$$$
38
                    3D
 Structure written by MMmdl.
155163  0  0  1  0            999 V2000
  -30.6584  -14.5629   20.4300 C   0  0  0  0  0  0
  -30.4255  -12.3308   19.4364 C   0  0  0  0  0  0
  -29.5011  -12.4804   18.2084 C   0  0  0  0  0  0
  -28.0172  -12.3545   18.6127 C   0  0  0  0  0  0
  -27.6511  -13.2118   19.8533 C   0  0  2  0  0  0
  -28.6981  -13.0621   20.9807 C   0  0  0  0  0  0
  -25.2562  -13.8178   20.5690 C   0  0  0  0  0  0
  -24.1818  -13.0457   20.9173 C   0  0  0  0  0  0
  -24.6355  -11.6907   20.8713 C   0  0  0  0  0  0
  -23.9007  -10.4292   21.0387 C   0  0  0  0  0  0
  -24.3564   -9.4215   21.9177 C   0  0  0  0  0  0
  -23.6245   -8.2241   22.0749 C   0  0  0  0  0  0
  -22.4245   -8.0258   21.3522 C   0  0  0  0  0  0
  -21.9844   -9.0224   20.4633 C   0  0  0  0  0  0
  -22.7167  -10.2106   20.3041 C   0  0  0  0  0  0
  -21.6861   -6.0693   22.5257 C   0  0  0  0  0  0
  -21.4024   -6.5597   23.8180 C   0  0  0  0  0  0
  -21.3663   -5.6766   24.9162 C   0  0  0  0  0  0
  -21.6054   -4.3030   24.7235 C   0  0  0  0  0  0
  -21.8825   -3.8100   23.4367 C   0  0  0  0  0  0
  -21.9204   -4.6911   22.3410 C   0  0  0  0  0  0
  -22.7844  -13.5294   21.1828 C   0  0  0  0  0  0
  -22.1692   -4.2075   21.0992 F   0  0  0  0  0  0
  -21.5604   -3.4533   25.7766 F   0  0  0  0  0  0
  -30.0207  -13.3584   20.4106 N   0  0  0  0  0  0
  -26.2968  -12.9347   20.3269 N   0  0  0  0  0  0
  -25.9283  -11.6497   20.5683 N   0  0  0  0  0  0
  -22.0456  -12.8276   22.0378 N   0  0  0  0  0  0
  -25.4364  -15.1905   20.4141 N   0  0  0  0  0  0
  -31.8645  -14.6679   20.1901 O   0  0  0  0  0  0
  -21.6645   -6.8837   21.4213 O   0  0  0  0  0  0
  -22.3556  -14.5613   20.6710 O   0  0  0  0  0  0
  -24.6190  -31.8619   23.2076 C   0  0  0  0  0  0
  -25.9045  -32.4803   23.8385 C   0  0  1  0  0  0
  -27.2225  -27.3760   20.0716 C   0  0  0  0  0  0
  -25.5874  -33.8603   24.2321 N   0  0  0  0  0  0
  -23.4090  -30.4850   21.5529 C   0  0  2  0  0  0
  -24.8494  -28.9459   20.1141 C   0  0  0  0  0  0
  -22.7442  -29.4592   22.5011 C   0  0  0  0  0  0
  -18.0263  -28.1333   22.8501 C   0  0  0  0  0  0
  -24.1470  -36.7311   23.2635 C   0  0  0  0  0  0
  -25.9455  -30.8076   21.3701 C   0  0  0  0  0  0
  -26.0165  -29.4385   20.7102 C   0  0  0  0  0  0
  -27.2037  -28.6614   20.6818 C   0  0  0  0  0  0
  -26.0215  -26.9029   19.4932 C   0  0  0  0  0  0
  -24.8492  -27.6819   19.5047 C   0  0  0  0  0  0
  -23.6161  -29.8196   20.1671 C   0  0  0  0  0  0
  -25.4091  -36.3117   24.0348 C   0  0  1  0  0  0
  -20.5864  -28.3610   23.1335 C   0  0  2  0  0  0
  -20.6739  -26.9343   22.5419 C   0  0  0  0  0  0
  -19.5722  -26.6347   21.5203 C   0  0  0  0  0  0
  -18.1906  -26.7877   22.1616 C   0  0  0  0  0  0
  -19.1523  -28.8781   23.2909 C   0  0  0  0  0  0
  -18.9446  -30.1398   23.8926 C   0  0  0  0  0  0
  -17.6450  -30.6545   24.0546 C   0  0  0  0  0  0
  -25.9029  -34.9472   23.5149 C   0  0  0  0  0  0
  -16.5336  -29.9048   23.6303 C   0  0  0  0  0  0
  -16.7264  -28.6441   23.0360 C   0  0  0  0  0  0
  -26.4437  -31.6591   25.0729 C   0  0  0  0  0  0
  -25.3706  -31.3717   26.1494 C   0  0  0  0  0  0
  -27.0230  -30.3019   24.6104 C   0  0  0  0  0  0
  -27.6014  -32.4302   25.7494 C   0  0  0  0  0  0
  -27.5596  -37.1787   24.8440 C   0  0  0  0  0  0
  -21.4157  -29.2996   22.3762 N   0  0  0  0  0  0
  -26.4270  -37.3819   23.9440 N   0  0  0  0  0  0
  -24.6770  -31.0662   22.1014 N   0  0  0  0  0  0
  -23.4203  -28.8121   23.3037 O   0  0  0  0  0  0
  -28.3995  -26.6344   20.0625 O   0  0  0  0  0  0
  -26.5607  -34.8918   22.4721 O   0  0  0  0  0  0
  -23.5369  -32.1388   23.7432 O   0  0  0  0  0  0
  -30.5114  -17.9801   17.6020 C   0  0  0  0  0  0
  -29.8959  -19.1509   18.0738 C   0  0  0  0  0  0
  -30.4924  -16.8245   18.4055 C   0  0  0  0  0  0
  -29.2936  -19.1497   19.3499 C   0  0  0  0  0  0
  -29.9092  -16.8649   19.7057 C   0  0  0  0  0  0
  -28.0886  -22.7315   19.6694 C   0  0  0  0  0  0
  -29.0814  -21.5427   19.9945 C   0  0  0  0  0  0
  -31.1406  -17.9318   16.2170 C   0  0  0  0  0  0
  -28.3061  -24.1081   20.3575 C   0  0  0  0  0  0
  -28.4793  -25.3362   19.4070 C   0  0  0  0  0  0
  -29.3021  -18.0206   20.1371 N   0  0  0  0  0  0
  -28.5590  -20.3362   19.6639 N   0  0  0  0  0  0
  -29.8535  -15.6569   20.5037 N   0  0  0  0  0  0
  -27.1166  -22.5646   18.9189 O   0  0  0  0  0  0
  -30.1818  -21.7158   20.5387 O   0  0  0  0  0  0
  -29.8438  -20.2558   17.2857 F   0  0  0  0  0  0
  -30.9808  -15.6791   17.8723 F   0  0  0  0  0  0
  -31.4685  -12.4372   19.1339 H   0  0  0  0  0  0
  -30.3367  -11.3373   19.8766 H   0  0  0  0  0  0
  -29.7441  -11.7191   17.4659 H   0  0  0  0  0  0
  -29.6750  -13.4398   17.7197 H   0  0  0  0  0  0
  -27.8180  -11.3017   18.8147 H   0  0  0  0  0  0
  -27.3802  -12.6319   17.7707 H   0  0  0  0  0  0
  -27.6665  -14.2460   19.5137 H   0  0  0  0  0  0
  -28.6866  -12.0441   21.3747 H   0  0  0  0  0  0
  -28.4712  -13.7211   21.8198 H   0  0  0  0  0  0
  -25.2700   -9.5696   22.4763 H   0  0  0  0  0  0
  -23.9940   -7.4626   22.7460 H   0  0  0  0  0  0
  -21.0769   -8.8730   19.8935 H   0  0  0  0  0  0
  -22.3618  -10.9630   19.6140 H   0  0  0  0  0  0
  -21.2043   -7.6106   23.9664 H   0  0  0  0  0  0
  -21.1493   -6.0522   25.9053 H   0  0  0  0  0  0
  -22.0628   -2.7554   23.2929 H   0  0  0  0  0  0
  -22.3986  -11.9899   22.4739 H   0  0  0  0  0  0
  -21.1099  -13.1341   22.2583 H   0  0  0  0  0  0
  -24.6795  -15.8586   20.5135 H   0  0  0  0  0  0
  -26.2964  -15.6152   20.0931 H   0  0  0  0  0  0
  -26.7100  -32.5467   23.1127 H   0  0  0  0  0  0
  -24.9981  -33.9746   25.0438 H   0  0  0  0  0  0
  -22.6995  -31.3035   21.4162 H   0  0  0  0  0  0
  -23.3762  -35.9609   23.3230 H   0  0  0  0  0  0
  -24.3598  -36.8989   22.2068 H   0  0  0  0  0  0
  -23.7149  -37.6468   23.6685 H   0  0  0  0  0  0
  -26.0684  -31.5738   20.6028 H   0  0  0  0  0  0
  -26.8307  -30.8563   21.9933 H   0  0  0  0  0  0
  -28.1126  -29.0395   21.1295 H   0  0  0  0  0  0
  -25.9475  -25.9310   19.0290 H   0  0  0  0  0  0
  -23.9480  -27.3010   19.0440 H   0  0  0  0  0  0
  -23.7266  -30.5937   19.4077 H   0  0  0  0  0  0
  -22.7357  -29.2463   19.8723 H   0  0  0  0  0  0
  -25.1247  -36.1993   25.0838 H   0  0  0  0  0  0
  -20.9944  -28.3123   24.1460 H   0  0  0  0  0  0
  -20.5573  -26.2207   23.3589 H   0  0  0  0  0  0
  -21.6614  -26.7324   22.1258 H   0  0  0  0  0  0
  -19.6868  -25.6263   21.1207 H   0  0  0  0  0  0
  -19.6648  -27.3169   20.6743 H   0  0  0  0  0  0
  -17.4165  -26.6631   21.4029 H   0  0  0  0  0  0
  -18.0300  -26.0004   22.8993 H   0  0  0  0  0  0
  -19.7920  -30.7197   24.2321 H   0  0  0  0  0  0
  -17.4994  -31.6231   24.5121 H   0  0  0  0  0  0
  -15.5342  -30.2949   23.7590 H   0  0  0  0  0  0
  -15.8658  -28.0744   22.7113 H   0  0  0  0  0  0
  -24.5883  -30.7038   25.7866 H   0  0  0  0  0  0
  -24.8895  -32.2879   26.4933 H   0  0  0  0  0  0
  -25.8077  -30.8916   27.0259 H   0  0  0  0  0  0
  -26.2753  -29.6837   24.1121 H   0  0  0  0  0  0
  -27.3935  -29.7197   25.4546 H   0  0  0  0  0  0
  -27.8630  -30.4313   23.9279 H   0  0  0  0  0  0
  -27.2635  -33.3602   26.2080 H   0  0  0  0  0  0
  -28.3827  -32.6857   25.0326 H   0  0  0  0  0  0
  -28.0664  -31.8417   26.5410 H   0  0  0  0  0  0
  -28.2544  -38.0160   24.7639 H   0  0  0  0  0  0
  -28.1169  -36.2713   24.6068 H   0  0  0  0  0  0
  -27.2353  -37.1191   25.8845 H   0  0  0  0  0  0
  -20.9309  -29.8801   21.7070 H   0  0  0  0  0  0
  -26.0162  -38.2880   24.1533 H   0  0  0  0  0  0
  -31.4473  -18.9196   15.8760 H   0  0  0  0  0  0
  -30.4308  -17.5234   15.4983 H   0  0  0  0  0  0
  -32.0262  -17.2962   16.2153 H   0  0  0  0  0  0
  -29.1664  -24.0408   21.0217 H   0  0  0  0  0  0
  -27.4368  -24.2765   20.9915 H   0  0  0  0  0  0
  -27.8414  -25.2689   18.5270 H   0  0  0  0  0  0
  -29.4858  -25.2816   18.9913 H   0  0  0  0  0  0
  -27.6482  -20.4105   19.2193 H   0  0  0  0  0  0
  -28.9818  -15.5114   20.9822 H   0  0  0  0  0  0
  1 25  1  0  0  0
  1 30  2  0  0  0
  1 83  1  0  0  0
  2  3  1  0  0  0
  2 25  1  0  0  0
  2 88  1  0  0  0
  2 89  1  0  0  0
  3  4  1  0  0  0
  3 90  1  0  0  0
  3 91  1  0  0  0
  4  5  1  0  0  0
  4 92  1  0  0  0
  4 93  1  0  0  0
  5  6  1  0  0  0
  5 26  1  0  0  0
  5 94  1  0  0  0
  6 25  1  0  0  0
  6 95  1  0  0  0
  6 96  1  0  0  0
  7  8  2  0  0  0
  7 26  1  0  0  0
  7 29  1  0  0  0
  8  9  1  0  0  0
  8 22  1  0  0  0
  9 10  1  0  0  0
  9 27  2  0  0  0
 10 11  2  0  0  0
 10 15  1  0  0  0
 11 12  1  0  0  0
 11 97  1  0  0  0
 12 13  2  0  0  0
 12 98  1  0  0  0
 13 14  1  0  0  0
 13 31  1  0  0  0
 14 15  2  0  0  0
 14 99  1  0  0  0
 15100  1  0  0  0
 16 17  2  0  0  0
 16 21  1  0  0  0
 16 31  1  0  0  0
 17 18  1  0  0  0
 17101  1  0  0  0
 18 19  2  0  0  0
 18102  1  0  0  0
 19 20  1  0  0  0
 19 24  1  0  0  0
 20 21  2  0  0  0
 20103  1  0  0  0
 21 23  1  0  0  0
 22 28  1  0  0  0
 22 32  2  0  0  0
 26 27  1  0  0  0
 28104  1  0  0  0
 28105  1  0  0  0
 29106  1  0  0  0
 29107  1  0  0  0
 33 34  1  0  0  0
 33 66  1  0  0  0
 33 70  2  0  0  0
 34 36  1  0  0  0
 34 59  1  0  0  0
 34108  1  0  0  0
 35 44  2  0  0  0
 35 45  1  0  0  0
 35 68  1  0  0  0
 36 56  1  0  0  0
 36109  1  0  0  0
 37 39  1  0  0  0
 37 47  1  0  0  0
 37 66  1  0  0  0
 37110  1  0  0  0
 38 43  2  0  0  0
 38 46  1  0  0  0
 38 47  1  0  0  0
 39 64  1  0  0  0
 39 67  2  0  0  0
 40 52  1  0  0  0
 40 53  2  0  0  0
 40 58  1  0  0  0
 41111  1  0  0  0
 41112  1  0  0  0
 41113  1  0  0  0
 41 48  1  0  0  0
 42 43  1  0  0  0
 42 66  1  0  0  0
 42114  1  0  0  0
 42115  1  0  0  0
 43 44  1  0  0  0
 44116  1  0  0  0
 45 46  2  0  0  0
 45117  1  0  0  0
 46118  1  0  0  0
 47119  1  0  0  0
 47120  1  0  0  0
 48 56  1  0  0  0
 48 65  1  0  0  0
 48121  1  0  0  0
 49 50  1  0  0  0
 49 53  1  0  0  0
 49 64  1  0  0  0
 49122  1  0  0  0
 50 51  1  0  0  0
 50123  1  0  0  0
 50124  1  0  0  0
 51 52  1  0  0  0
 51125  1  0  0  0
 51126  1  0  0  0
 52127  1  0  0  0
 52128  1  0  0  0
 53 54  1  0  0  0
 54 55  2  0  0  0
 54129  1  0  0  0
 55 57  1  0  0  0
 55130  1  0  0  0
 56 69  2  0  0  0
 57 58  2  0  0  0
 57131  1  0  0  0
 58132  1  0  0  0
 59 60  1  0  0  0
 59 61  1  0  0  0
 59 62  1  0  0  0
 60133  1  0  0  0
 60134  1  0  0  0
 60135  1  0  0  0
 61136  1  0  0  0
 61137  1  0  0  0
 61138  1  0  0  0
 62139  1  0  0  0
 62140  1  0  0  0
 62141  1  0  0  0
 63 65  1  0  0  0
 63142  1  0  0  0
 63143  1  0  0  0
 63144  1  0  0  0
 64145  1  0  0  0
 65146  1  0  0  0
 68 80  1  0  0  0
 71 72  2  0  0  0
 71 73  1  0  0  0
 71 78  1  0  0  0
 72 74  1  0  0  0
 72 86  1  0  0  0
 73 75  2  0  0  0
 73 87  1  0  0  0
 74 81  2  0  0  0
 74 82  1  0  0  0
 75 81  1  0  0  0
 75 83  1  0  0  0
 76 77  1  0  0  0
 76 79  1  0  0  0
 76 84  2  0  0  0
 77 82  1  0  0  0
 77 85  2  0  0  0
 78147  1  0  0  0
 78148  1  0  0  0
 78149  1  0  0  0
 79 80  1  0  0  0
 79150  1  0  0  0
 79151  1  0  0  0
 80152  1  0  0  0
 80153  1  0  0  0
 82154  1  0  0  0
 83155  1  0  0  0
M  ISO  4   1 100  68 101  80 101  83 100
M  END
> <chiral flag>
0

> <version>
0

> <s_m_source_file>
/data/baiqing/PycharmProjects/Reinvent-master-3.2/result/LINK_invent/BTK/process_docking_weight1_custom_product_contain_oxygen_bond_distance_aromatic_linkinvent_7_9_3/rearranged_h_0179.sdf

> <i_m_source_file_index>
39

> <r_mmod_Potential_Energy-OPLS-2005>
-150.862426757812

> <r_mmod_Stretch_Energy-OPLS-2005>
56.1764717102051

> <r_mmod_Bend_Energy-OPLS-2005>
117.232757568359

> <r_mmod_Torsional_Energy-OPLS-2005>
280.379608154297

> <r_mmod_Improper_Torsional_Energy-OPLS-2005>
9.3499927520752

> <r_mmod_Van_der_Waal_Energy-OPLS-2005>
155.152420043945

> <r_mmod_Electrostatic_Energy-OPLS-2005>
-562.764343261719

> <r_mmod_Solvation_Energy-OPLS-2005>
-237.824020385742

> <b_mmod_Minimization_Converged-OPLS-2005>
0

> <r_mmod_RMS_Derivative-OPLS-2005>
5.42166709899902

$$$$
39
                    3D
 Structure written by MMmdl.
149157  0  0  1  0            999 V2000
  -30.5860  -14.7902   20.4588 C   0  0  0  0  0  0
  -30.4419  -12.4803   19.4919 C   0  0  0  0  0  0
  -29.5274  -12.5183   18.2457 C   0  0  0  0  0  0
  -28.0503  -12.3305   18.6523 C   0  0  0  0  0  0
  -27.6414  -13.2339   19.8448 C   0  0  2  0  0  0
  -28.6822  -13.1833   20.9842 C   0  0  0  0  0  0
  -25.2491  -13.8175   20.5672 C   0  0  0  0  0  0
  -24.1807  -13.0415   20.9212 C   0  0  0  0  0  0
  -24.6406  -11.6905   20.8739 C   0  0  0  0  0  0
  -23.9081  -10.4279   21.0408 C   0  0  0  0  0  0
  -24.3636   -9.4187   21.9188 C   0  0  0  0  0  0
  -23.6291   -8.2224   22.0764 C   0  0  0  0  0  0
  -22.4269   -8.0296   21.3557 C   0  0  0  0  0  0
  -21.9907   -9.0272   20.4658 C   0  0  0  0  0  0
  -22.7259  -10.2134   20.3054 C   0  0  0  0  0  0
  -21.6840   -6.0746   22.5278 C   0  0  0  0  0  0
  -21.4018   -6.5644   23.8226 C   0  0  0  0  0  0
  -21.3656   -5.6778   24.9173 C   0  0  0  0  0  0
  -21.6036   -4.3042   24.7224 C   0  0  0  0  0  0
  -21.8813   -3.8159   23.4325 C   0  0  0  0  0  0
  -21.9171   -4.6980   22.3397 C   0  0  0  0  0  0
  -22.7799  -13.5222   21.1834 C   0  0  0  0  0  0
  -22.1652   -4.2158   21.0963 F   0  0  0  0  0  0
  -21.5621   -3.4529   25.7726 F   0  0  0  0  0  0
  -29.9791  -13.5501   20.4047 N   0  0  0  0  0  0
  -26.2934  -12.9398   20.3239 N   0  0  0  0  0  0
  -25.9330  -11.6530   20.5703 N   0  0  0  0  0  0
  -22.0433  -12.8271   22.0418 N   0  0  0  0  0  0
  -25.4195  -15.1908   20.4160 N   0  0  0  0  0  0
  -31.7864  -14.8842   20.1901 O   0  0  0  0  0  0
  -21.6617   -6.8892   21.4239 O   0  0  0  0  0  0
  -22.3484  -14.5506   20.6649 O   0  0  0  0  0  0
  -24.6405  -31.8494   23.1972 C   0  0  0  0  0  0
  -25.9202  -32.4718   23.8348 C   0  0  1  0  0  0
  -27.2540  -27.2478   20.1423 C   0  0  0  0  0  0
  -25.5963  -33.8526   24.2276 N   0  0  0  0  0  0
  -23.4437  -30.4708   21.5343 C   0  0  2  0  0  0
  -24.8976  -28.9032   20.1149 C   0  0  0  0  0  0
  -22.7566  -29.4606   22.4871 C   0  0  0  0  0  0
  -18.0310  -28.1403   22.8457 C   0  0  0  0  0  0
  -24.1484  -36.7303   23.2646 C   0  0  0  0  0  0
  -25.9897  -30.7565   21.3805 C   0  0  0  0  0  0
  -26.0671  -29.3742   20.7285 C   0  0  0  0  0  0
  -27.2481  -28.5615   20.7235 C   0  0  0  0  0  0
  -26.0616  -26.8388   19.5090 C   0  0  0  0  0  0
  -24.9029  -27.6452   19.4889 C   0  0  0  0  0  0
  -23.6707  -29.7969   20.1535 C   0  0  0  0  0  0
  -25.4098  -36.3053   24.0338 C   0  0  1  0  0  0
  -20.5918  -28.3748   23.1229 C   0  0  2  0  0  0
  -20.6790  -26.9457   22.5394 C   0  0  0  0  0  0
  -19.5759  -26.6397   21.5199 C   0  0  0  0  0  0
  -18.1948  -26.7942   22.1610 C   0  0  0  0  0  0
  -19.1563  -28.8892   23.2840 C   0  0  0  0  0  0
  -18.9463  -30.1474   23.8879 C   0  0  0  0  0  0
  -17.6456  -30.6583   24.0576 C   0  0  0  0  0  0
  -25.9047  -34.9423   23.5115 C   0  0  0  0  0  0
  -16.5357  -29.9081   23.6323 C   0  0  0  0  0  0
  -16.7292  -28.6513   23.0326 C   0  0  0  0  0  0
  -26.4524  -31.6560   25.0773 C   0  0  0  0  0  0
  -25.3766  -31.3717   26.1523 C   0  0  0  0  0  0
  -27.0395  -30.2969   24.6313 C   0  0  0  0  0  0
  -27.6073  -32.4322   25.7524 C   0  0  0  0  0  0
  -27.5572  -37.1806   24.8456 C   0  0  0  0  0  0
  -21.4259  -29.3086   22.3616 N   0  0  0  0  0  0
  -26.4266  -37.3750   23.9411 N   0  0  0  0  0  0
  -24.7103  -31.0454   22.0936 N   0  0  0  0  0  0
  -23.4227  -28.8156   23.3000 O   0  0  0  0  0  0
  -28.3701  -26.3764   20.0940 O   0  0  0  0  0  0
  -26.5606  -34.8906   22.4672 O   0  0  0  0  0  0
  -23.5546  -32.1291   23.7254 O   0  0  0  0  0  0
  -29.6000  -19.7558   20.4418 C   0  0  0  0  0  0
  -30.9695  -19.7345   20.6788 C   0  0  0  0  0  0
  -30.0556  -17.3719   20.5572 C   0  0  0  0  0  0
  -28.3413  -25.0559   20.6505 C   0  0  0  0  0  0
  -28.7564  -21.0157   20.1173 C   0  0  0  0  0  0
  -28.8438  -23.8681   20.1165 C   0  0  0  0  0  0
  -28.8855  -22.4920   20.8587 C   0  0  0  0  0  0
  -31.9210  -20.8882   20.7822 C   0  0  0  0  0  0
  -29.1282  -18.3734   20.3802 N   0  0  0  0  0  0
  -29.7644  -15.9114   20.5713 N   0  0  0  0  0  0
  -27.8323  -20.9360   19.2964 O   0  0  0  0  0  0
  -28.9797  -22.4805   22.0930 O   0  0  0  0  0  0
  -29.3885  -23.8889   18.8900 O   0  0  0  0  0  0
  -31.6396  -18.0955   20.8099 S   0  0  0  0  0  0
  -31.4856  -12.6075   19.2038 H   0  0  0  0  0  0
  -30.3847  -11.5096   19.9854 H   0  0  0  0  0  0
  -29.8282  -11.7491   17.5344 H   0  0  0  0  0  0
  -29.6473  -13.4719   17.7282 H   0  0  0  0  0  0
  -27.9188  -11.2843   18.9331 H   0  0  0  0  0  0
  -27.3935  -12.5058   17.7974 H   0  0  0  0  0  0
  -27.6296  -14.2518   19.4516 H   0  0  0  0  0  0
  -28.7209  -12.1873   21.4295 H   0  0  0  0  0  0
  -28.4080  -13.8666   21.7884 H   0  0  0  0  0  0
  -25.2787   -9.5643   22.4760 H   0  0  0  0  0  0
  -23.9999   -7.4599   22.7468 H   0  0  0  0  0  0
  -21.0844   -8.8798   19.8965 H   0  0  0  0  0  0
  -22.3746  -10.9668   19.6163 H   0  0  0  0  0  0
  -21.2047   -7.6158   23.9742 H   0  0  0  0  0  0
  -21.1476   -6.0502   25.9065 H   0  0  0  0  0  0
  -22.0602   -2.7631   23.2812 H   0  0  0  0  0  0
  -22.4010  -11.9978   22.4909 H   0  0  0  0  0  0
  -21.1040  -13.1342   22.2561 H   0  0  0  0  0  0
  -24.6555  -15.8455   20.5461 H   0  0  0  0  0  0
  -26.2634  -15.6396   20.0866 H   0  0  0  0  0  0
  -26.7314  -32.5342   23.1131 H   0  0  0  0  0  0
  -25.0144  -33.9618   25.0453 H   0  0  0  0  0  0
  -22.7455  -31.2954   21.3808 H   0  0  0  0  0  0
  -23.3715  -35.9669   23.3292 H   0  0  0  0  0  0
  -24.3594  -36.8931   22.2068 H   0  0  0  0  0  0
  -23.7272  -37.6518   23.6675 H   0  0  0  0  0  0
  -26.1414  -31.5134   20.6086 H   0  0  0  0  0  0
  -26.8641  -30.8013   22.0201 H   0  0  0  0  0  0
  -28.1525  -28.9293   21.1881 H   0  0  0  0  0  0
  -26.0390  -25.8763   19.0174 H   0  0  0  0  0  0
  -24.0190  -27.2826   18.9829 H   0  0  0  0  0  0
  -23.8142  -30.5696   19.3973 H   0  0  0  0  0  0
  -22.7851  -29.2405   19.8402 H   0  0  0  0  0  0
  -25.1283  -36.1888   25.0828 H   0  0  0  0  0  0
  -21.0021  -28.3324   24.1340 H   0  0  0  0  0  0
  -20.5697  -26.2365   23.3616 H   0  0  0  0  0  0
  -21.6661  -26.7480   22.1191 H   0  0  0  0  0  0
  -19.6942  -25.6304   21.1237 H   0  0  0  0  0  0
  -19.6675  -27.3198   20.6715 H   0  0  0  0  0  0
  -17.4231  -26.6690   21.4005 H   0  0  0  0  0  0
  -18.0344  -26.0085   22.9007 H   0  0  0  0  0  0
  -19.7931  -30.7305   24.2246 H   0  0  0  0  0  0
  -17.4997  -31.6244   24.5210 H   0  0  0  0  0  0
  -15.5356  -30.2979   23.7636 H   0  0  0  0  0  0
  -15.8690  -28.0840   22.7018 H   0  0  0  0  0  0
  -24.5889  -30.7118   25.7877 H   0  0  0  0  0  0
  -24.9028  -32.2884   26.5038 H   0  0  0  0  0  0
  -25.8107  -30.8830   27.0258 H   0  0  0  0  0  0
  -26.3005  -29.6676   24.1343 H   0  0  0  0  0  0
  -27.4049  -29.7278   25.4873 H   0  0  0  0  0  0
  -27.8889  -30.4232   23.9602 H   0  0  0  0  0  0
  -27.2680  -33.3630   26.2086 H   0  0  0  0  0  0
  -28.3862  -32.6874   25.0332 H   0  0  0  0  0  0
  -28.0776  -31.8471   26.5436 H   0  0  0  0  0  0
  -28.2578  -38.0113   24.7503 H   0  0  0  0  0  0
  -28.1061  -36.2641   24.6247 H   0  0  0  0  0  0
  -27.2319  -37.1457   25.8865 H   0  0  0  0  0  0
  -20.9494  -29.8782   21.6763 H   0  0  0  0  0  0
  -26.0142  -38.2829   24.1345 H   0  0  0  0  0  0
  -27.8945  -25.0697   21.6364 H   0  0  0  0  0  0
  -31.9922  -21.2368   21.8127 H   0  0  0  0  0  0
  -31.6179  -21.7313   20.1597 H   0  0  0  0  0  0
  -32.9246  -20.5978   20.4665 H   0  0  0  0  0  0
  -28.7856  -15.6905   20.6388 H   0  0  0  0  0  0
  -29.3981  -24.7957   18.6084 H   0  0  0  0  0  0
  1 25  1  0  0  0
  1 30  2  0  0  0
  1 80  1  0  0  0
  2  3  1  0  0  0
  2 25  1  0  0  0
  2 85  1  0  0  0
  2 86  1  0  0  0
  3  4  1  0  0  0
  3 87  1  0  0  0
  3 88  1  0  0  0
  4  5  1  0  0  0
  4 89  1  0  0  0
  4 90  1  0  0  0
  5  6  1  0  0  0
  5 26  1  0  0  0
  5 91  1  0  0  0
  6 25  1  0  0  0
  6 92  1  0  0  0
  6 93  1  0  0  0
  7  8  2  0  0  0
  7 26  1  0  0  0
  7 29  1  0  0  0
  8  9  1  0  0  0
  8 22  1  0  0  0
  9 10  1  0  0  0
  9 27  2  0  0  0
 10 11  2  0  0  0
 10 15  1  0  0  0
 11 12  1  0  0  0
 11 94  1  0  0  0
 12 13  2  0  0  0
 12 95  1  0  0  0
 13 14  1  0  0  0
 13 31  1  0  0  0
 14 15  2  0  0  0
 14 96  1  0  0  0
 15 97  1  0  0  0
 16 17  2  0  0  0
 16 21  1  0  0  0
 16 31  1  0  0  0
 17 18  1  0  0  0
 17 98  1  0  0  0
 18 19  2  0  0  0
 18 99  1  0  0  0
 19 20  1  0  0  0
 19 24  1  0  0  0
 20 21  2  0  0  0
 20100  1  0  0  0
 21 23  1  0  0  0
 22 28  1  0  0  0
 22 32  2  0  0  0
 26 27  1  0  0  0
 28101  1  0  0  0
 28102  1  0  0  0
 29103  1  0  0  0
 29104  1  0  0  0
 33 34  1  0  0  0
 33 66  1  0  0  0
 33 70  2  0  0  0
 34 36  1  0  0  0
 34 59  1  0  0  0
 34105  1  0  0  0
 35 44  2  0  0  0
 35 45  1  0  0  0
 35 68  1  0  0  0
 36 56  1  0  0  0
 36106  1  0  0  0
 37 39  1  0  0  0
 37 47  1  0  0  0
 37 66  1  0  0  0
 37107  1  0  0  0
 38 43  2  0  0  0
 38 46  1  0  0  0
 38 47  1  0  0  0
 39 64  1  0  0  0
 39 67  2  0  0  0
 40 52  1  0  0  0
 40 53  2  0  0  0
 40 58  1  0  0  0
 41108  1  0  0  0
 41109  1  0  0  0
 41110  1  0  0  0
 41 48  1  0  0  0
 42 43  1  0  0  0
 42 66  1  0  0  0
 42111  1  0  0  0
 42112  1  0  0  0
 43 44  1  0  0  0
 44113  1  0  0  0
 45 46  2  0  0  0
 45114  1  0  0  0
 46115  1  0  0  0
 47116  1  0  0  0
 47117  1  0  0  0
 48 56  1  0  0  0
 48 65  1  0  0  0
 48118  1  0  0  0
 49 50  1  0  0  0
 49 53  1  0  0  0
 49 64  1  0  0  0
 49119  1  0  0  0
 50 51  1  0  0  0
 50120  1  0  0  0
 50121  1  0  0  0
 51 52  1  0  0  0
 51122  1  0  0  0
 51123  1  0  0  0
 52124  1  0  0  0
 52125  1  0  0  0
 53 54  1  0  0  0
 54 55  2  0  0  0
 54126  1  0  0  0
 55 57  1  0  0  0
 55127  1  0  0  0
 56 69  2  0  0  0
 57 58  2  0  0  0
 57128  1  0  0  0
 58129  1  0  0  0
 59 60  1  0  0  0
 59 61  1  0  0  0
 59 62  1  0  0  0
 60130  1  0  0  0
 60131  1  0  0  0
 60132  1  0  0  0
 61133  1  0  0  0
 61134  1  0  0  0
 61135  1  0  0  0
 62136  1  0  0  0
 62137  1  0  0  0
 62138  1  0  0  0
 63 65  1  0  0  0
 63139  1  0  0  0
 63140  1  0  0  0
 63141  1  0  0  0
 64142  1  0  0  0
 65143  1  0  0  0
 68 74  1  0  0  0
 71 72  2  0  0  0
 71 75  1  0  0  0
 71 79  1  0  0  0
 72 78  1  0  0  0
 72 84  1  0  0  0
 73 79  2  0  0  0
 73 80  1  0  0  0
 73 84  1  0  0  0
 74 76  2  0  0  0
 74144  1  0  0  0
 75 77  1  0  0  0
 75 81  2  0  0  0
 76 77  1  0  0  0
 76 83  1  0  0  0
 77 82  2  0  0  0
 78145  1  0  0  0
 78146  1  0  0  0
 78147  1  0  0  0
 80148  1  0  0  0
 83149  1  0  0  0
M  ISO  4   1 100  68 101  74 101  80 100
M  END
> <chiral flag>
0

> <version>
0

> <s_m_source_file>
/data/baiqing/PycharmProjects/Reinvent-master-3.2/result/LINK_invent/BTK/process_docking_weight1_custom_product_contain_oxygen_bond_distance_aromatic_linkinvent_7_9_3/rearranged_h_0179.sdf

> <i_m_source_file_index>
40

> <r_mmod_Potential_Energy-OPLS-2005>
313.743225097656

> <r_mmod_Stretch_Energy-OPLS-2005>
143.055541992188

> <r_mmod_Bend_Energy-OPLS-2005>
165.030242919922

> <r_mmod_Torsional_Energy-OPLS-2005>
230.054809570312

> <r_mmod_Improper_Torsional_Energy-OPLS-2005>
7.54911661148071

> <r_mmod_Van_der_Waal_Energy-OPLS-2005>
105.648788452148

> <r_mmod_Electrostatic_Energy-OPLS-2005>
-209.776321411133

> <r_mmod_Solvation_Energy-OPLS-2005>
-225.870513916016

> <b_mmod_Minimization_Converged-OPLS-2005>
0

> <r_mmod_RMS_Derivative-OPLS-2005>
4.54064083099365

$$$$
40
                    3D
 Structure written by MMmdl.
154162  0  0  1  0            999 V2000
  -30.6521  -14.5909   20.5044 C   0  0  0  0  0  0
  -30.4314  -12.3651   19.4386 C   0  0  0  0  0  0
  -29.5035  -12.5016   18.2127 C   0  0  0  0  0  0
  -28.0222  -12.3573   18.6191 C   0  0  0  0  0  0
  -27.6511  -13.2175   19.8583 C   0  0  2  0  0  0
  -28.6985  -13.0632   20.9844 C   0  0  0  0  0  0
  -25.2553  -13.8166   20.5686 C   0  0  0  0  0  0
  -24.1833  -13.0431   20.9199 C   0  0  0  0  0  0
  -24.6410  -11.6908   20.8732 C   0  0  0  0  0  0
  -23.9093  -10.4285   21.0409 C   0  0  0  0  0  0
  -24.3639   -9.4203   21.9186 C   0  0  0  0  0  0
  -23.6310   -8.2247   22.0750 C   0  0  0  0  0  0
  -22.4298   -8.0287   21.3540 C   0  0  0  0  0  0
  -21.9935   -9.0262   20.4643 C   0  0  0  0  0  0
  -22.7270  -10.2134   20.3055 C   0  0  0  0  0  0
  -21.6851   -6.0743   22.5282 C   0  0  0  0  0  0
  -21.4016   -6.5652   23.8221 C   0  0  0  0  0  0
  -21.3653   -5.6800   24.9179 C   0  0  0  0  0  0
  -21.6041   -4.3063   24.7226 C   0  0  0  0  0  0
  -21.8817   -3.8159   23.4352 C   0  0  0  0  0  0
  -21.9199   -4.6973   22.3409 C   0  0  0  0  0  0
  -22.7857  -13.5217   21.1872 C   0  0  0  0  0  0
  -22.1659   -4.2173   21.0978 F   0  0  0  0  0  0
  -21.5630   -3.4543   25.7726 F   0  0  0  0  0  0
  -30.0131  -13.3866   20.4115 N   0  0  0  0  0  0
  -26.2984  -12.9353   20.3300 N   0  0  0  0  0  0
  -25.9339  -11.6510   20.5753 N   0  0  0  0  0  0
  -22.0496  -12.8186   22.0409 N   0  0  0  0  0  0
  -25.4239  -15.1896   20.4103 N   0  0  0  0  0  0
  -31.8364  -14.7183   20.1733 O   0  0  0  0  0  0
  -21.6639   -6.8892   21.4253 O   0  0  0  0  0  0
  -22.3539  -14.5526   20.6726 O   0  0  0  0  0  0
  -24.6189  -31.8654   23.2082 C   0  0  0  0  0  0
  -25.9071  -32.4814   23.8380 C   0  0  1  0  0  0
  -27.2357  -27.3905   20.1192 C   0  0  0  0  0  0
  -25.5942  -33.8609   24.2318 N   0  0  0  0  0  0
  -23.4096  -30.4851   21.5508 C   0  0  2  0  0  0
  -24.8579  -28.9386   20.1254 C   0  0  0  0  0  0
  -22.7427  -29.4656   22.5026 C   0  0  0  0  0  0
  -18.0261  -28.1384   22.8496 C   0  0  0  0  0  0
  -24.1486  -36.7283   23.2643 C   0  0  0  0  0  0
  -25.9380  -30.8212   21.3631 C   0  0  0  0  0  0
  -26.0192  -29.4436   20.7254 C   0  0  0  0  0  0
  -27.2120  -28.6754   20.7226 C   0  0  0  0  0  0
  -26.0601  -26.9114   19.5103 C   0  0  0  0  0  0
  -24.8742  -27.6726   19.5154 C   0  0  0  0  0  0
  -23.6198  -29.8082   20.1688 C   0  0  0  0  0  0
  -25.4106  -36.3083   24.0338 C   0  0  1  0  0  0
  -20.5861  -28.3671   23.1313 C   0  0  2  0  0  0
  -20.6768  -26.9414   22.5408 C   0  0  0  0  0  0
  -19.5744  -26.6378   21.5215 C   0  0  0  0  0  0
  -18.1910  -26.7921   22.1620 C   0  0  0  0  0  0
  -19.1515  -28.8839   23.2905 C   0  0  0  0  0  0
  -18.9445  -30.1438   23.8925 C   0  0  0  0  0  0
  -17.6451  -30.6595   24.0556 C   0  0  0  0  0  0
  -25.9040  -34.9458   23.5106 C   0  0  0  0  0  0
  -16.5343  -29.9094   23.6334 C   0  0  0  0  0  0
  -16.7257  -28.6501   23.0376 C   0  0  0  0  0  0
  -26.4491  -31.6595   25.0718 C   0  0  0  0  0  0
  -25.3741  -31.3714   26.1459 C   0  0  0  0  0  0
  -27.0330  -30.3043   24.6081 C   0  0  0  0  0  0
  -27.6064  -32.4306   25.7478 C   0  0  0  0  0  0
  -27.5560  -37.1797   24.8457 C   0  0  0  0  0  0
  -21.4157  -29.3043   22.3734 N   0  0  0  0  0  0
  -26.4274  -37.3773   23.9410 N   0  0  0  0  0  0
  -24.6743  -31.0722   22.1003 N   0  0  0  0  0  0
  -23.4161  -28.8196   23.3091 O   0  0  0  0  0  0
  -28.3873  -26.6289   20.0240 O   0  0  0  0  0  0
  -26.5559  -34.8896   22.4648 O   0  0  0  0  0  0
  -23.5376  -32.1440   23.7456 O   0  0  0  0  0  0
  -30.4459  -19.5818   20.8477 C   0  0  0  0  0  0
  -31.4052  -18.8723   21.5578 C   0  0  0  0  0  0
  -30.1933  -17.0664   20.8375 C   0  0  0  0  0  0
  -30.4223  -21.0451   20.4499 C   0  0  0  0  0  0
  -28.2542  -24.1822   20.7279 C   0  0  0  0  0  0
  -28.6497  -25.6576   21.0666 C   0  0  0  0  0  0
  -29.2805  -23.2491   19.9994 C   0  0  2  0  0  0
  -29.1281  -23.3142   18.4609 C   0  0  0  0  0  0
  -31.2435  -17.4797   21.5539 N   0  0  0  0  0  0
  -32.5052  -19.3899   22.2487 N   0  0  0  0  0  0
  -29.8467  -15.6689   20.7157 N   0  0  0  0  0  0
  -29.3058  -21.8169   20.4660 N   0  0  0  0  0  0
  -31.4992  -21.5573   20.1396 O   0  0  0  0  0  0
  -27.1469  -23.7670   21.0885 O   0  0  0  0  0  0
  -30.1375  -22.6993   17.8429 F   0  0  0  0  0  0
  -29.1051  -24.5792   18.0381 F   0  0  0  0  0  0
  -27.9867  -22.7329   18.0862 F   0  0  0  0  0  0
  -29.2670  -18.4459   20.1758 S   0  0  0  0  0  0
  -31.4761  -12.4743   19.1414 H   0  0  0  0  0  0
  -30.3493  -11.3694   19.8763 H   0  0  0  0  0  0
  -29.7626  -11.7551   17.4602 H   0  0  0  0  0  0
  -29.6600  -13.4728   17.7428 H   0  0  0  0  0  0
  -27.8378  -11.3024   18.8296 H   0  0  0  0  0  0
  -27.3767  -12.6149   17.7789 H   0  0  0  0  0  0
  -27.6676  -14.2541   19.5229 H   0  0  0  0  0  0
  -28.7006  -12.0431   21.3684 H   0  0  0  0  0  0
  -28.4611  -13.7051   21.8346 H   0  0  0  0  0  0
  -25.2783   -9.5670   22.4761 H   0  0  0  0  0  0
  -24.0018   -7.4631   22.7465 H   0  0  0  0  0  0
  -21.0867   -8.8779   19.8941 H   0  0  0  0  0  0
  -22.3739  -10.9671   19.6156 H   0  0  0  0  0  0
  -21.2000   -7.6164   23.9734 H   0  0  0  0  0  0
  -21.1475   -6.0524   25.9077 H   0  0  0  0  0  0
  -22.0603   -2.7634   23.2838 H   0  0  0  0  0  0
  -22.4115  -11.9831   22.4755 H   0  0  0  0  0  0
  -21.1108  -13.1190   22.2614 H   0  0  0  0  0  0
  -24.6515  -15.8368   20.5262 H   0  0  0  0  0  0
  -26.2579  -15.6349   20.0521 H   0  0  0  0  0  0
  -26.7154  -32.5513   23.1152 H   0  0  0  0  0  0
  -25.0146  -33.9782   25.0505 H   0  0  0  0  0  0
  -22.7007  -31.3023   21.4029 H   0  0  0  0  0  0
  -23.3756  -35.9612   23.3284 H   0  0  0  0  0  0
  -24.3575  -36.8927   22.2063 H   0  0  0  0  0  0
  -23.7217  -37.6476   23.6661 H   0  0  0  0  0  0
  -26.0341  -31.5762   20.5826 H   0  0  0  0  0  0
  -26.8328  -30.8950   21.9704 H   0  0  0  0  0  0
  -28.1115  -29.0669   21.1757 H   0  0  0  0  0  0
  -26.0645  -25.9461   19.0229 H   0  0  0  0  0  0
  -23.9814  -27.2817   19.0453 H   0  0  0  0  0  0
  -23.7214  -30.5762   19.4013 H   0  0  0  0  0  0
  -22.7484  -29.2204   19.8780 H   0  0  0  0  0  0
  -25.1291  -36.1929   25.0831 H   0  0  0  0  0  0
  -20.9932  -28.3219   24.1442 H   0  0  0  0  0  0
  -20.5670  -26.2291   23.3612 H   0  0  0  0  0  0
  -21.6633  -26.7462   22.1188 H   0  0  0  0  0  0
  -19.6910  -25.6278   21.1260 H   0  0  0  0  0  0
  -19.6682  -27.3189   20.6740 H   0  0  0  0  0  0
  -17.4189  -26.6694   21.4004 H   0  0  0  0  0  0
  -18.0302  -26.0055   22.8999 H   0  0  0  0  0  0
  -19.7924  -30.7239   24.2326 H   0  0  0  0  0  0
  -17.5009  -31.6289   24.5129 H   0  0  0  0  0  0
  -15.5344  -30.3013   23.7635 H   0  0  0  0  0  0
  -15.8650  -28.0811   22.7130 H   0  0  0  0  0  0
  -24.5877  -30.7123   25.7750 H   0  0  0  0  0  0
  -24.8991  -32.2902   26.4912 H   0  0  0  0  0  0
  -25.8068  -30.8825   27.0199 H   0  0  0  0  0  0
  -26.2881  -29.6804   24.1121 H   0  0  0  0  0  0
  -27.4128  -29.7260   25.4509 H   0  0  0  0  0  0
  -27.8688  -30.4386   23.9205 H   0  0  0  0  0  0
  -27.2710  -33.3633   26.2010 H   0  0  0  0  0  0
  -28.3897  -32.6823   25.0313 H   0  0  0  0  0  0
  -28.0699  -31.8454   26.5434 H   0  0  0  0  0  0
  -28.2560  -38.0104   24.7509 H   0  0  0  0  0  0
  -28.1076  -36.2635   24.6281 H   0  0  0  0  0  0
  -27.2278  -37.1435   25.8859 H   0  0  0  0  0  0
  -20.9329  -29.8766   21.6945 H   0  0  0  0  0  0
  -26.0157  -38.2847   24.1436 H   0  0  0  0  0  0
  -29.7156  -25.6895   21.2924 H   0  0  0  0  0  0
  -28.1427  -25.9621   21.9827 H   0  0  0  0  0  0
  -30.2549  -23.6846   20.2203 H   0  0  0  0  0  0
  -32.8070  -20.3401   22.0535 H   0  0  0  0  0  0
  -33.2496  -18.7639   22.5392 H   0  0  0  0  0  0
  -28.8605  -15.4672   20.7141 H   0  0  0  0  0  0
  -28.4227  -21.4095   20.7404 H   0  0  0  0  0  0
  1 25  1  0  0  0
  1 30  2  0  0  0
  1 81  1  0  0  0
  2  3  1  0  0  0
  2 25  1  0  0  0
  2 89  1  0  0  0
  2 90  1  0  0  0
  3  4  1  0  0  0
  3 91  1  0  0  0
  3 92  1  0  0  0
  4  5  1  0  0  0
  4 93  1  0  0  0
  4 94  1  0  0  0
  5  6  1  0  0  0
  5 26  1  0  0  0
  5 95  1  0  0  0
  6 25  1  0  0  0
  6 96  1  0  0  0
  6 97  1  0  0  0
  7  8  2  0  0  0
  7 26  1  0  0  0
  7 29  1  0  0  0
  8  9  1  0  0  0
  8 22  1  0  0  0
  9 10  1  0  0  0
  9 27  2  0  0  0
 10 11  2  0  0  0
 10 15  1  0  0  0
 11 12  1  0  0  0
 11 98  1  0  0  0
 12 13  2  0  0  0
 12 99  1  0  0  0
 13 14  1  0  0  0
 13 31  1  0  0  0
 14 15  2  0  0  0
 14100  1  0  0  0
 15101  1  0  0  0
 16 17  2  0  0  0
 16 21  1  0  0  0
 16 31  1  0  0  0
 17 18  1  0  0  0
 17102  1  0  0  0
 18 19  2  0  0  0
 18103  1  0  0  0
 19 20  1  0  0  0
 19 24  1  0  0  0
 20 21  2  0  0  0
 20104  1  0  0  0
 21 23  1  0  0  0
 22 28  1  0  0  0
 22 32  2  0  0  0
 26 27  1  0  0  0
 28105  1  0  0  0
 28106  1  0  0  0
 29107  1  0  0  0
 29108  1  0  0  0
 33 34  1  0  0  0
 33 66  1  0  0  0
 33 70  2  0  0  0
 34 36  1  0  0  0
 34 59  1  0  0  0
 34109  1  0  0  0
 35 44  2  0  0  0
 35 45  1  0  0  0
 35 68  1  0  0  0
 36 56  1  0  0  0
 36110  1  0  0  0
 37 39  1  0  0  0
 37 47  1  0  0  0
 37 66  1  0  0  0
 37111  1  0  0  0
 38 43  2  0  0  0
 38 46  1  0  0  0
 38 47  1  0  0  0
 39 64  1  0  0  0
 39 67  2  0  0  0
 40 52  1  0  0  0
 40 53  2  0  0  0
 40 58  1  0  0  0
 41112  1  0  0  0
 41113  1  0  0  0
 41114  1  0  0  0
 41 48  1  0  0  0
 42 43  1  0  0  0
 42 66  1  0  0  0
 42115  1  0  0  0
 42116  1  0  0  0
 43 44  1  0  0  0
 44117  1  0  0  0
 45 46  2  0  0  0
 45118  1  0  0  0
 46119  1  0  0  0
 47120  1  0  0  0
 47121  1  0  0  0
 48 56  1  0  0  0
 48 65  1  0  0  0
 48122  1  0  0  0
 49 50  1  0  0  0
 49 53  1  0  0  0
 49 64  1  0  0  0
 49123  1  0  0  0
 50 51  1  0  0  0
 50124  1  0  0  0
 50125  1  0  0  0
 51 52  1  0  0  0
 51126  1  0  0  0
 51127  1  0  0  0
 52128  1  0  0  0
 52129  1  0  0  0
 53 54  1  0  0  0
 54 55  2  0  0  0
 54130  1  0  0  0
 55 57  1  0  0  0
 55131  1  0  0  0
 56 69  2  0  0  0
 57 58  2  0  0  0
 57132  1  0  0  0
 58133  1  0  0  0
 59 60  1  0  0  0
 59 61  1  0  0  0
 59 62  1  0  0  0
 60134  1  0  0  0
 60135  1  0  0  0
 60136  1  0  0  0
 61137  1  0  0  0
 61138  1  0  0  0
 61139  1  0  0  0
 62140  1  0  0  0
 62141  1  0  0  0
 62142  1  0  0  0
 63 65  1  0  0  0
 63143  1  0  0  0
 63144  1  0  0  0
 63145  1  0  0  0
 64146  1  0  0  0
 65147  1  0  0  0
 68 76  1  0  0  0
 71 72  2  0  0  0
 71 74  1  0  0  0
 71 88  1  0  0  0
 72 79  1  0  0  0
 72 80  1  0  0  0
 73 79  2  0  0  0
 73 81  1  0  0  0
 73 88  1  0  0  0
 74 82  1  0  0  0
 74 83  2  0  0  0
 75 76  1  0  0  0
 75 77  1  0  0  0
 75 84  2  0  0  0
 76148  1  0  0  0
 76149  1  0  0  0
 77 78  1  0  0  0
 77 82  1  0  0  0
 77150  1  0  0  0
 78 85  1  0  0  0
 78 86  1  0  0  0
 78 87  1  0  0  0
 80151  1  0  0  0
 80152  1  0  0  0
 81153  1  0  0  0
 82154  1  0  0  0
M  ISO  4   1 100  68 101  76 101  81 100
M  END
> <chiral flag>
0

> <version>
0

> <s_m_source_file>
/data/baiqing/PycharmProjects/Reinvent-master-3.2/result/LINK_invent/BTK/process_docking_weight1_custom_product_contain_oxygen_bond_distance_aromatic_linkinvent_7_9_3/rearranged_h_0179.sdf

> <i_m_source_file_index>
41

> <r_mmod_Potential_Energy-OPLS-2005>
-176.446136474609

> <r_mmod_Stretch_Energy-OPLS-2005>
53.8226127624512

> <r_mmod_Bend_Energy-OPLS-2005>
127.393798828125

> <r_mmod_Torsional_Energy-OPLS-2005>
277.12109375

> <r_mmod_Improper_Torsional_Energy-OPLS-2005>
10.0776195526123

> <r_mmod_Van_der_Waal_Energy-OPLS-2005>
119.554473876953

> <r_mmod_Electrostatic_Energy-OPLS-2005>
-536.341125488281

> <r_mmod_Solvation_Energy-OPLS-2005>
-256.054595947266

> <b_mmod_Minimization_Converged-OPLS-2005>
0

> <r_mmod_RMS_Derivative-OPLS-2005>
2.93704843521118

$$$$
41
                    3D
 Structure written by MMmdl.
154162  0  0  1  0            999 V2000
  -30.6850  -14.5596   20.4230 C   0  0  0  0  0  0
  -30.4179  -12.3265   19.4493 C   0  0  0  0  0  0
  -29.5017  -12.4833   18.2184 C   0  0  0  0  0  0
  -28.0201  -12.3470   18.6212 C   0  0  0  0  0  0
  -27.6496  -13.2181   19.8520 C   0  0  2  0  0  0
  -28.6993  -13.0896   20.9815 C   0  0  0  0  0  0
  -25.2572  -13.8201   20.5639 C   0  0  0  0  0  0
  -24.1825  -13.0463   20.9170 C   0  0  0  0  0  0
  -24.6387  -11.6917   20.8724 C   0  0  0  0  0  0
  -23.9061  -10.4307   21.0399 C   0  0  0  0  0  0
  -24.3632   -9.4220   21.9155 C   0  0  0  0  0  0
  -23.6305   -8.2259   22.0743 C   0  0  0  0  0  0
  -22.4284   -8.0288   21.3538 C   0  0  0  0  0  0
  -21.9919   -9.0257   20.4636 C   0  0  0  0  0  0
  -22.7248  -10.2134   20.3048 C   0  0  0  0  0  0
  -21.6871   -6.0723   22.5269 C   0  0  0  0  0  0
  -21.4013   -6.5633   23.8203 C   0  0  0  0  0  0
  -21.3671   -5.6786   24.9164 C   0  0  0  0  0  0
  -21.6075   -4.3051   24.7232 C   0  0  0  0  0  0
  -21.8820   -3.8139   23.4352 C   0  0  0  0  0  0
  -21.9193   -4.6945   22.3395 C   0  0  0  0  0  0
  -22.7848  -13.5238   21.1814 C   0  0  0  0  0  0
  -22.1643   -4.2140   21.0962 F   0  0  0  0  0  0
  -21.5657   -3.4525   25.7739 F   0  0  0  0  0  0
  -30.0222  -13.3714   20.4061 N   0  0  0  0  0  0
  -26.2999  -12.9351   20.3275 N   0  0  0  0  0  0
  -25.9343  -11.6514   20.5781 N   0  0  0  0  0  0
  -22.0499  -12.8218   22.0403 N   0  0  0  0  0  0
  -25.4284  -15.1911   20.3947 N   0  0  0  0  0  0
  -31.8891  -14.6253   20.1610 O   0  0  0  0  0  0
  -21.6658   -6.8874   21.4233 O   0  0  0  0  0  0
  -22.3513  -14.5528   20.6630 O   0  0  0  0  0  0
  -24.6186  -31.8670   23.2017 C   0  0  0  0  0  0
  -25.9048  -32.4823   23.8350 C   0  0  1  0  0  0
  -27.2368  -27.3879   20.1015 C   0  0  0  0  0  0
  -25.5858  -33.8611   24.2269 N   0  0  0  0  0  0
  -23.4110  -30.4847   21.5471 C   0  0  2  0  0  0
  -24.8559  -28.9436   20.1121 C   0  0  0  0  0  0
  -22.7479  -29.4614   22.4995 C   0  0  0  0  0  0
  -18.0276  -28.1366   22.8511 C   0  0  0  0  0  0
  -24.1493  -36.7336   23.2652 C   0  0  0  0  0  0
  -25.9439  -30.8136   21.3671 C   0  0  0  0  0  0
  -26.0164  -29.4447   20.7124 C   0  0  0  0  0  0
  -27.2055  -28.6733   20.7036 C   0  0  0  0  0  0
  -26.0546  -26.9095   19.4953 C   0  0  0  0  0  0
  -24.8723  -27.6759   19.5017 C   0  0  0  0  0  0
  -23.6213  -29.8171   20.1624 C   0  0  0  0  0  0
  -25.4117  -36.3123   24.0343 C   0  0  1  0  0  0
  -20.5890  -28.3632   23.1344 C   0  0  2  0  0  0
  -20.6759  -26.9355   22.5448 C   0  0  0  0  0  0
  -19.5726  -26.6351   21.5256 C   0  0  0  0  0  0
  -18.1904  -26.7902   22.1644 C   0  0  0  0  0  0
  -19.1534  -28.8819   23.2914 C   0  0  0  0  0  0
  -18.9451  -30.1440   23.8907 C   0  0  0  0  0  0
  -17.6441  -30.6566   24.0561 C   0  0  0  0  0  0
  -25.9034  -34.9483   23.5112 C   0  0  0  0  0  0
  -16.5340  -29.9070   23.6319 C   0  0  0  0  0  0
  -16.7263  -28.6498   23.0331 C   0  0  0  0  0  0
  -26.4420  -31.6627   25.0724 C   0  0  0  0  0  0
  -25.3627  -31.3802   26.1443 C   0  0  0  0  0  0
  -27.0194  -30.3030   24.6148 C   0  0  0  0  0  0
  -27.5980  -32.4367   25.7493 C   0  0  0  0  0  0
  -27.5599  -37.1836   24.8454 C   0  0  0  0  0  0
  -21.4197  -29.2981   22.3741 N   0  0  0  0  0  0
  -26.4304  -37.3812   23.9400 N   0  0  0  0  0  0
  -24.6764  -31.0731   22.0939 N   0  0  0  0  0  0
  -23.4240  -28.8158   23.3051 O   0  0  0  0  0  0
  -28.4130  -26.6510   20.1500 O   0  0  0  0  0  0
  -26.5645  -34.8950   22.4707 O   0  0  0  0  0  0
  -23.5367  -32.1425   23.7378 O   0  0  0  0  0  0
  -29.8358  -19.1719   19.3151 C   0  0  0  0  0  0
  -30.9132  -18.8983   18.4936 C   0  0  0  0  0  0
  -30.2043  -16.9591   19.8940 C   0  0  0  0  0  0
  -29.0085  -20.4091   19.1578 C   0  0  0  0  0  0
  -29.0746  -21.5840   19.8464 C   0  0  0  0  0  0
  -28.2029  -22.7579   19.4889 C   0  0  0  0  0  0
  -30.0713  -25.3728   19.1211 C   0  0  0  0  0  0
  -28.2283  -24.0909   20.3026 C   0  0  0  0  0  0
  -28.5786  -25.3795   19.4701 C   0  0  1  0  0  0
  -29.4109  -18.0434   20.0643 N   0  0  0  0  0  0
  -31.5291  -19.7002   17.5297 N   0  0  0  0  0  0
  -29.9247  -15.6835   20.5120 N   0  0  0  0  0  0
  -27.4225  -22.6997   18.5332 O   0  0  0  0  0  0
  -31.5115  -17.2747   18.7364 S   0  0  0  0  0  0
  -31.4649  -12.4054   19.1508 H   0  0  0  0  0  0
  -30.3035  -11.3355   19.8943 H   0  0  0  0  0  0
  -29.7560  -11.7404   17.4604 H   0  0  0  0  0  0
  -29.6735  -13.4598   17.7601 H   0  0  0  0  0  0
  -27.8286  -11.2934   18.8263 H   0  0  0  0  0  0
  -27.3823  -12.6052   17.7757 H   0  0  0  0  0  0
  -27.6629  -14.2520   19.5070 H   0  0  0  0  0  0
  -28.6881  -12.0826   21.4050 H   0  0  0  0  0  0
  -28.4672  -13.7690   21.8050 H   0  0  0  0  0  0
  -25.2779   -9.5705   22.4707 H   0  0  0  0  0  0
  -24.0014   -7.4680   22.7461 H   0  0  0  0  0  0
  -21.0860   -8.8791   19.8946 H   0  0  0  0  0  0
  -22.3702  -10.9675   19.6165 H   0  0  0  0  0  0
  -21.1974   -7.6134   23.9694 H   0  0  0  0  0  0
  -21.1507   -6.0509   25.9064 H   0  0  0  0  0  0
  -22.0587   -2.7596   23.2853 H   0  0  0  0  0  0
  -22.4109  -11.9886   22.4829 H   0  0  0  0  0  0
  -21.1120  -13.1255   22.2585 H   0  0  0  0  0  0
  -24.6665  -15.8542   20.4868 H   0  0  0  0  0  0
  -26.2743  -15.6216   20.0440 H   0  0  0  0  0  0
  -26.7129  -32.5513   23.1126 H   0  0  0  0  0  0
  -24.9910  -33.9739   25.0345 H   0  0  0  0  0  0
  -22.6982  -31.2996   21.4078 H   0  0  0  0  0  0
  -23.3739  -35.9689   23.3330 H   0  0  0  0  0  0
  -24.3600  -36.8929   22.2069 H   0  0  0  0  0  0
  -23.7253  -37.6549   23.6650 H   0  0  0  0  0  0
  -26.0786  -31.5757   20.5977 H   0  0  0  0  0  0
  -26.8242  -30.8593   21.9975 H   0  0  0  0  0  0
  -28.1014  -29.0585   21.1710 H   0  0  0  0  0  0
  -26.0189  -25.9372   19.0260 H   0  0  0  0  0  0
  -23.9810  -27.2792   19.0352 H   0  0  0  0  0  0
  -23.7402  -30.5929   19.4059 H   0  0  0  0  0  0
  -22.7444  -29.2457   19.8609 H   0  0  0  0  0  0
  -25.1309  -36.2000   25.0840 H   0  0  0  0  0  0
  -20.9969  -28.3175   24.1478 H   0  0  0  0  0  0
  -20.5696  -26.2226   23.3646 H   0  0  0  0  0  0
  -21.6620  -26.7391   22.1220 H   0  0  0  0  0  0
  -19.6850  -25.6273   21.1265 H   0  0  0  0  0  0
  -19.6656  -27.3204   20.6827 H   0  0  0  0  0  0
  -17.4195  -26.6724   21.4007 H   0  0  0  0  0  0
  -18.0198  -26.0044   22.9025 H   0  0  0  0  0  0
  -19.7923  -30.7263   24.2266 H   0  0  0  0  0  0
  -17.4985  -31.6251   24.5145 H   0  0  0  0  0  0
  -15.5328  -30.2955   23.7620 H   0  0  0  0  0  0
  -15.8675  -28.0818   22.6983 H   0  0  0  0  0  0
  -24.5762  -30.7210   25.7752 H   0  0  0  0  0  0
  -24.8878  -32.3001   26.4882 H   0  0  0  0  0  0
  -25.7917  -30.8942   27.0213 H   0  0  0  0  0  0
  -26.2739  -29.6901   24.1067 H   0  0  0  0  0  0
  -27.3729  -29.7199   25.4658 H   0  0  0  0  0  0
  -27.8703  -30.4286   23.9446 H   0  0  0  0  0  0
  -27.2539  -33.3610   26.2158 H   0  0  0  0  0  0
  -28.3736  -32.7036   25.0298 H   0  0  0  0  0  0
  -28.0711  -31.8457   26.5346 H   0  0  0  0  0  0
  -28.2622  -38.0125   24.7481 H   0  0  0  0  0  0
  -28.1077  -36.2655   24.6278 H   0  0  0  0  0  0
  -27.2336  -37.1511   25.8862 H   0  0  0  0  0  0
  -20.9356  -29.8703   21.6967 H   0  0  0  0  0  0
  -26.0199  -38.2908   24.1334 H   0  0  0  0  0  0
  -28.2891  -20.3355   18.3534 H   0  0  0  0  0  0
  -29.7731  -21.6929   20.6611 H   0  0  0  0  0  0
  -30.3554  -24.4619   18.5920 H   0  0  0  0  0  0
  -30.6766  -25.4323   20.0294 H   0  0  0  0  0  0
  -30.3319  -26.2217   18.4841 H   0  0  0  0  0  0
  -28.9048  -23.9854   21.1512 H   0  0  0  0  0  0
  -27.2347  -24.2107   20.7354 H   0  0  0  0  0  0
  -28.0296  -25.3783   18.5299 H   0  0  0  0  0  0
  -31.3357  -20.6866   17.3920 H   0  0  0  0  0  0
  -32.2217  -19.3542   16.8753 H   0  0  0  0  0  0
  -28.9833  -15.5651   20.8450 H   0  0  0  0  0  0
  1 25  1  0  0  0
  1 30  2  0  0  0
  1 82  1  0  0  0
  2  3  1  0  0  0
  2 25  1  0  0  0
  2 85  1  0  0  0
  2 86  1  0  0  0
  3  4  1  0  0  0
  3 87  1  0  0  0
  3 88  1  0  0  0
  4  5  1  0  0  0
  4 89  1  0  0  0
  4 90  1  0  0  0
  5  6  1  0  0  0
  5 26  1  0  0  0
  5 91  1  0  0  0
  6 25  1  0  0  0
  6 92  1  0  0  0
  6 93  1  0  0  0
  7  8  2  0  0  0
  7 26  1  0  0  0
  7 29  1  0  0  0
  8  9  1  0  0  0
  8 22  1  0  0  0
  9 10  1  0  0  0
  9 27  2  0  0  0
 10 11  2  0  0  0
 10 15  1  0  0  0
 11 12  1  0  0  0
 11 94  1  0  0  0
 12 13  2  0  0  0
 12 95  1  0  0  0
 13 14  1  0  0  0
 13 31  1  0  0  0
 14 15  2  0  0  0
 14 96  1  0  0  0
 15 97  1  0  0  0
 16 17  2  0  0  0
 16 21  1  0  0  0
 16 31  1  0  0  0
 17 18  1  0  0  0
 17 98  1  0  0  0
 18 19  2  0  0  0
 18 99  1  0  0  0
 19 20  1  0  0  0
 19 24  1  0  0  0
 20 21  2  0  0  0
 20100  1  0  0  0
 21 23  1  0  0  0
 22 28  1  0  0  0
 22 32  2  0  0  0
 26 27  1  0  0  0
 28101  1  0  0  0
 28102  1  0  0  0
 29103  1  0  0  0
 29104  1  0  0  0
 33 34  1  0  0  0
 33 66  1  0  0  0
 33 70  2  0  0  0
 34 36  1  0  0  0
 34 59  1  0  0  0
 34105  1  0  0  0
 35 44  2  0  0  0
 35 45  1  0  0  0
 35 68  1  0  0  0
 36 56  1  0  0  0
 36106  1  0  0  0
 37 39  1  0  0  0
 37 47  1  0  0  0
 37 66  1  0  0  0
 37107  1  0  0  0
 38 43  2  0  0  0
 38 46  1  0  0  0
 38 47  1  0  0  0
 39 64  1  0  0  0
 39 67  2  0  0  0
 40 52  1  0  0  0
 40 53  2  0  0  0
 40 58  1  0  0  0
 41108  1  0  0  0
 41109  1  0  0  0
 41110  1  0  0  0
 41 48  1  0  0  0
 42 43  1  0  0  0
 42 66  1  0  0  0
 42111  1  0  0  0
 42112  1  0  0  0
 43 44  1  0  0  0
 44113  1  0  0  0
 45 46  2  0  0  0
 45114  1  0  0  0
 46115  1  0  0  0
 47116  1  0  0  0
 47117  1  0  0  0
 48 56  1  0  0  0
 48 65  1  0  0  0
 48118  1  0  0  0
 49 50  1  0  0  0
 49 53  1  0  0  0
 49 64  1  0  0  0
 49119  1  0  0  0
 50 51  1  0  0  0
 50120  1  0  0  0
 50121  1  0  0  0
 51 52  1  0  0  0
 51122  1  0  0  0
 51123  1  0  0  0
 52124  1  0  0  0
 52125  1  0  0  0
 53 54  1  0  0  0
 54 55  2  0  0  0
 54126  1  0  0  0
 55 57  1  0  0  0
 55127  1  0  0  0
 56 69  2  0  0  0
 57 58  2  0  0  0
 57128  1  0  0  0
 58129  1  0  0  0
 59 60  1  0  0  0
 59 61  1  0  0  0
 59 62  1  0  0  0
 60130  1  0  0  0
 60131  1  0  0  0
 60132  1  0  0  0
 61133  1  0  0  0
 61134  1  0  0  0
 61135  1  0  0  0
 62136  1  0  0  0
 62137  1  0  0  0
 62138  1  0  0  0
 63 65  1  0  0  0
 63139  1  0  0  0
 63140  1  0  0  0
 63141  1  0  0  0
 64142  1  0  0  0
 65143  1  0  0  0
 68 79  1  0  0  0
 71 72  2  0  0  0
 71 74  1  0  0  0
 71 80  1  0  0  0
 72 81  1  0  0  0
 72 84  1  0  0  0
 73 80  2  0  0  0
 73 82  1  0  0  0
 73 84  1  0  0  0
 74 75  2  0  0  0
 74144  1  0  0  0
 75 76  1  0  0  0
 75145  1  0  0  0
 76 78  1  0  0  0
 76 83  2  0  0  0
 77146  1  0  0  0
 77147  1  0  0  0
 77148  1  0  0  0
 77 79  1  0  0  0
 78 79  1  0  0  0
 78149  1  0  0  0
 78150  1  0  0  0
 79151  1  0  0  0
 81152  1  0  0  0
 81153  1  0  0  0
 82154  1  0  0  0
M  ISO  4   1 100  68 101  79 101  82 100
M  END
> <chiral flag>
0

> <version>
0

> <s_m_source_file>
/data/baiqing/PycharmProjects/Reinvent-master-3.2/result/LINK_invent/BTK/process_docking_weight1_custom_product_contain_oxygen_bond_distance_aromatic_linkinvent_7_9_3/rearranged_h_0179.sdf

> <i_m_source_file_index>
42

> <r_mmod_Potential_Energy-OPLS-2005>
-58.6510047912598

> <r_mmod_Stretch_Energy-OPLS-2005>
50.1500053405762

> <r_mmod_Bend_Energy-OPLS-2005>
126.049827575684

> <r_mmod_Torsional_Energy-OPLS-2005>
236.361923217773

> <r_mmod_Improper_Torsional_Energy-OPLS-2005>
8.57821369171143

> <r_mmod_Van_der_Waal_Energy-OPLS-2005>
126.943672180176

> <r_mmod_Electrostatic_Energy-OPLS-2005>
-412.840484619141

> <r_mmod_Solvation_Energy-OPLS-2005>
-226.102783203125

> <b_mmod_Minimization_Converged-OPLS-2005>
0

> <r_mmod_RMS_Derivative-OPLS-2005>
5.14878129959106

$$$$
42
                    3D
 Structure written by MMmdl.
153161  0  0  1  0            999 V2000
  -30.6640  -14.6182   20.4929 C   0  0  0  0  0  0
  -30.4303  -12.3749   19.4637 C   0  0  0  0  0  0
  -29.5082  -12.5031   18.2314 C   0  0  0  0  0  0
  -28.0306  -12.3479   18.6399 C   0  0  0  0  0  0
  -27.6538  -13.2119   19.8730 C   0  0  2  0  0  0
  -28.7018  -13.0847   21.0036 C   0  0  0  0  0  0
  -25.2563  -13.8143   20.5711 C   0  0  0  0  0  0
  -24.1822  -13.0414   20.9199 C   0  0  0  0  0  0
  -24.6379  -11.6885   20.8739 C   0  0  0  0  0  0
  -23.9034  -10.4278   21.0398 C   0  0  0  0  0  0
  -24.3591   -9.4203   21.9177 C   0  0  0  0  0  0
  -23.6284   -8.2232   22.0743 C   0  0  0  0  0  0
  -22.4269   -8.0265   21.3537 C   0  0  0  0  0  0
  -21.9891   -9.0231   20.4636 C   0  0  0  0  0  0
  -22.7204  -10.2120   20.3048 C   0  0  0  0  0  0
  -21.6847   -6.0722   22.5278 C   0  0  0  0  0  0
  -21.4006   -6.5633   23.8208 C   0  0  0  0  0  0
  -21.3666   -5.6787   24.9173 C   0  0  0  0  0  0
  -21.6049   -4.3049   24.7228 C   0  0  0  0  0  0
  -21.8822   -3.8137   23.4350 C   0  0  0  0  0  0
  -21.9193   -4.6949   22.3402 C   0  0  0  0  0  0
  -22.7848  -13.5217   21.1862 C   0  0  0  0  0  0
  -22.1664   -4.2139   21.0979 F   0  0  0  0  0  0
  -21.5633   -3.4535   25.7740 F   0  0  0  0  0  0
  -30.0242  -13.4056   20.4415 N   0  0  0  0  0  0
  -26.2992  -12.9309   20.3384 N   0  0  0  0  0  0
  -25.9311  -11.6469   20.5777 N   0  0  0  0  0  0
  -22.0475  -12.8222   22.0413 N   0  0  0  0  0  0
  -25.4275  -15.1868   20.4130 N   0  0  0  0  0  0
  -31.8141  -14.7527   20.0638 O   0  0  0  0  0  0
  -21.6636   -6.8865   21.4241 O   0  0  0  0  0  0
  -22.3551  -14.5533   20.6715 O   0  0  0  0  0  0
  -24.6240  -31.8617   23.2055 C   0  0  0  0  0  0
  -25.9099  -32.4793   23.8374 C   0  0  1  0  0  0
  -27.2269  -27.3505   20.1106 C   0  0  0  0  0  0
  -25.5925  -33.8591   24.2303 N   0  0  0  0  0  0
  -23.4192  -30.4855   21.5460 C   0  0  2  0  0  0
  -24.8729  -28.9575   20.0963 C   0  0  0  0  0  0
  -22.7485  -29.4615   22.4926 C   0  0  0  0  0  0
  -18.0284  -28.1378   22.8489 C   0  0  0  0  0  0
  -24.1483  -36.7291   23.2619 C   0  0  0  0  0  0
  -25.9591  -30.8016   21.3766 C   0  0  0  0  0  0
  -26.0392  -29.4354   20.7112 C   0  0  0  0  0  0
  -27.2226  -28.6394   20.7196 C   0  0  0  0  0  0
  -26.0525  -26.9361   19.4430 C   0  0  0  0  0  0
  -24.8810  -27.7125   19.4498 C   0  0  0  0  0  0
  -23.6350  -29.8277   20.1574 C   0  0  0  0  0  0
  -25.4091  -36.3079   24.0337 C   0  0  1  0  0  0
  -20.5888  -28.3678   23.1286 C   0  0  2  0  0  0
  -20.6769  -26.9404   22.5406 C   0  0  0  0  0  0
  -19.5743  -26.6381   21.5208 C   0  0  0  0  0  0
  -18.1927  -26.7920   22.1628 C   0  0  0  0  0  0
  -19.1538  -28.8848   23.2884 C   0  0  0  0  0  0
  -18.9457  -30.1450   23.8899 C   0  0  0  0  0  0
  -17.6458  -30.6585   24.0554 C   0  0  0  0  0  0
  -25.9049  -34.9458   23.5119 C   0  0  0  0  0  0
  -16.5348  -29.9081   23.6328 C   0  0  0  0  0  0
  -16.7269  -28.6494   23.0357 C   0  0  0  0  0  0
  -26.4496  -31.6589   25.0734 C   0  0  0  0  0  0
  -25.3743  -31.3716   26.1468 C   0  0  0  0  0  0
  -27.0329  -30.3010   24.6171 C   0  0  0  0  0  0
  -27.6063  -32.4315   25.7506 C   0  0  0  0  0  0
  -27.5612  -37.1737   24.8418 C   0  0  0  0  0  0
  -21.4196  -29.3035   22.3685 N   0  0  0  0  0  0
  -26.4244  -37.3805   23.9484 N   0  0  0  0  0  0
  -24.6854  -31.0646   22.0997 N   0  0  0  0  0  0
  -23.4220  -28.8137   23.2981 O   0  0  0  0  0  0
  -28.2423  -26.3979   20.2635 O   0  0  0  0  0  0
  -26.5616  -34.8928   22.4684 O   0  0  0  0  0  0
  -23.5405  -32.1403   23.7393 O   0  0  0  0  0  0
  -28.9842  -16.7660   18.9696 C   0  0  0  0  0  0
  -28.5186  -17.8782   18.2528 C   0  0  0  0  0  0
  -28.7701  -19.1689   18.7334 C   0  0  0  0  0  0
  -29.5119  -19.3006   19.9193 C   0  0  0  0  0  0
  -29.6941  -16.9278   20.1780 C   0  0  0  0  0  0
  -27.7721  -25.2585   20.9433 C   0  0  0  0  0  0
  -29.9300  -20.6799   20.3412 C   0  0  0  0  0  0
  -28.1090  -23.9255   21.0190 C   0  0  0  0  0  0
  -29.2549  -23.1791   20.4482 C   0  0  0  0  0  0
  -29.9617  -18.2051   20.6377 N   0  0  0  0  0  0
  -29.9410  -15.6992   20.9159 N   0  0  0  0  0  0
  -29.0369  -21.7250   20.4117 N   0  0  0  0  0  0
  -31.2418  -20.8348   20.5969 N   0  3  0  0  0  0
  -30.3403  -23.6575   20.1001 O   0  0  0  0  0  0
  -27.2674  -23.1712   21.7498 O   0  0  0  0  0  0
  -27.8271  -17.6963   17.1005 F   0  0  0  0  0  0
  -28.3520  -20.2567   18.0417 F   0  0  0  0  0  0
  -31.4752  -12.4715   19.1650 H   0  0  0  0  0  0
  -30.3420  -11.3809   19.9063 H   0  0  0  0  0  0
  -29.7697  -11.7503   17.4868 H   0  0  0  0  0  0
  -29.6612  -13.4714   17.7533 H   0  0  0  0  0  0
  -27.8604  -11.2937   18.8626 H   0  0  0  0  0  0
  -27.3797  -12.5884   17.7984 H   0  0  0  0  0  0
  -27.6583  -14.2438   19.5370 H   0  0  0  0  0  0
  -28.7059  -12.0711   21.4082 H   0  0  0  0  0  0
  -28.4483  -13.7373   21.8402 H   0  0  0  0  0  0
  -25.2726   -9.5698   22.4758 H   0  0  0  0  0  0
  -24.0000   -7.4620   22.7457 H   0  0  0  0  0  0
  -21.0819   -8.8735   19.8942 H   0  0  0  0  0  0
  -22.3641  -10.9656   19.6164 H   0  0  0  0  0  0
  -21.1992   -7.6140   23.9711 H   0  0  0  0  0  0
  -21.1490   -6.0516   25.9080 H   0  0  0  0  0  0
  -22.0599   -2.7600   23.2846 H   0  0  0  0  0  0
  -22.4071  -11.9879   22.4812 H   0  0  0  0  0  0
  -21.1091  -13.1261   22.2596 H   0  0  0  0  0  0
  -24.6528  -15.8342   20.5139 H   0  0  0  0  0  0
  -26.2721  -15.6286   20.0756 H   0  0  0  0  0  0
  -26.7169  -32.5476   23.1127 H   0  0  0  0  0  0
  -25.0076  -33.9739   25.0448 H   0  0  0  0  0  0
  -22.7110  -31.3047   21.4064 H   0  0  0  0  0  0
  -23.3791  -35.9569   23.3145 H   0  0  0  0  0  0
  -24.3629  -36.9049   22.2068 H   0  0  0  0  0  0
  -23.7162  -37.6421   23.6722 H   0  0  0  0  0  0
  -26.0892  -31.5706   20.6133 H   0  0  0  0  0  0
  -26.8395  -30.8475   22.0063 H   0  0  0  0  0  0
  -28.1038  -28.9808   21.2443 H   0  0  0  0  0  0
  -26.0238  -25.9658   18.9672 H   0  0  0  0  0  0
  -23.9903  -27.3424   18.9610 H   0  0  0  0  0  0
  -23.7462  -30.6091   19.4047 H   0  0  0  0  0  0
  -22.7582  -29.2524   19.8544 H   0  0  0  0  0  0
  -25.1238  -36.1899   25.0817 H   0  0  0  0  0  0
  -20.9981  -28.3243   24.1403 H   0  0  0  0  0  0
  -20.5662  -26.2285   23.3601 H   0  0  0  0  0  0
  -21.6636  -26.7425   22.1202 H   0  0  0  0  0  0
  -19.6900  -25.6291   21.1239 H   0  0  0  0  0  0
  -19.6683  -27.3187   20.6736 H   0  0  0  0  0  0
  -17.4194  -26.6663   21.4035 H   0  0  0  0  0  0
  -18.0337  -26.0071   22.9030 H   0  0  0  0  0  0
  -19.7932  -30.7261   24.2284 H   0  0  0  0  0  0
  -17.5009  -31.6270   24.5141 H   0  0  0  0  0  0
  -15.5347  -30.2976   23.7655 H   0  0  0  0  0  0
  -15.8671  -28.0805   22.7082 H   0  0  0  0  0  0
  -24.5921  -30.7055   25.7802 H   0  0  0  0  0  0
  -24.8924  -32.2874   26.4899 H   0  0  0  0  0  0
  -25.8084  -30.8897   27.0236 H   0  0  0  0  0  0
  -26.2890  -29.6776   24.1188 H   0  0  0  0  0  0
  -27.4015  -29.7250   25.4668 H   0  0  0  0  0  0
  -27.8773  -30.4289   23.9395 H   0  0  0  0  0  0
  -27.2670  -33.3597   26.2112 H   0  0  0  0  0  0
  -28.3863  -32.6902   25.0335 H   0  0  0  0  0  0
  -28.0744  -31.8423   26.5400 H   0  0  0  0  0  0
  -28.2421  -38.0233   24.7778 H   0  0  0  0  0  0
  -28.1312  -36.2802   24.5822 H   0  0  0  0  0  0
  -27.2403  -37.0866   25.8813 H   0  0  0  0  0  0
  -20.9369  -29.8786   21.6924 H   0  0  0  0  0  0
  -26.0109  -38.2828   24.1678 H   0  0  0  0  0  0
  -28.7684  -15.7901   18.5677 H   0  0  0  0  0  0
  -26.9039  -25.5419   21.5274 H   0  0  0  0  0  0
  -29.1520  -15.4211   21.4777 H   0  0  0  0  0  0
  -28.0980  -21.3935   20.5632 H   0  0  0  0  0  0
  -31.8122  -20.0020   20.6076 H   0  0  0  0  0  0
  -31.6634  -21.7291   20.7895 H   0  0  0  0  0  0
  -26.5815  -23.7371   22.0798 H   0  0  0  0  0  0
  1 25  1  0  0  0
  1 30  2  0  0  0
  1 81  1  0  0  0
  2  3  1  0  0  0
  2 25  1  0  0  0
  2 88  1  0  0  0
  2 89  1  0  0  0
  3  4  1  0  0  0
  3 90  1  0  0  0
  3 91  1  0  0  0
  4  5  1  0  0  0
  4 92  1  0  0  0
  4 93  1  0  0  0
  5  6  1  0  0  0
  5 26  1  0  0  0
  5 94  1  0  0  0
  6 25  1  0  0  0
  6 95  1  0  0  0
  6 96  1  0  0  0
  7  8  2  0  0  0
  7 26  1  0  0  0
  7 29  1  0  0  0
  8  9  1  0  0  0
  8 22  1  0  0  0
  9 10  1  0  0  0
  9 27  2  0  0  0
 10 11  2  0  0  0
 10 15  1  0  0  0
 11 12  1  0  0  0
 11 97  1  0  0  0
 12 13  2  0  0  0
 12 98  1  0  0  0
 13 14  1  0  0  0
 13 31  1  0  0  0
 14 15  2  0  0  0
 14 99  1  0  0  0
 15100  1  0  0  0
 16 17  2  0  0  0
 16 21  1  0  0  0
 16 31  1  0  0  0
 17 18  1  0  0  0
 17101  1  0  0  0
 18 19  2  0  0  0
 18102  1  0  0  0
 19 20  1  0  0  0
 19 24  1  0  0  0
 20 21  2  0  0  0
 20103  1  0  0  0
 21 23  1  0  0  0
 22 28  1  0  0  0
 22 32  2  0  0  0
 26 27  1  0  0  0
 28104  1  0  0  0
 28105  1  0  0  0
 29106  1  0  0  0
 29107  1  0  0  0
 33 34  1  0  0  0
 33 66  1  0  0  0
 33 70  2  0  0  0
 34 36  1  0  0  0
 34 59  1  0  0  0
 34108  1  0  0  0
 35 44  2  0  0  0
 35 45  1  0  0  0
 35 68  1  0  0  0
 36 56  1  0  0  0
 36109  1  0  0  0
 37 39  1  0  0  0
 37 47  1  0  0  0
 37 66  1  0  0  0
 37110  1  0  0  0
 38 43  2  0  0  0
 38 46  1  0  0  0
 38 47  1  0  0  0
 39 64  1  0  0  0
 39 67  2  0  0  0
 40 52  1  0  0  0
 40 53  2  0  0  0
 40 58  1  0  0  0
 41111  1  0  0  0
 41112  1  0  0  0
 41113  1  0  0  0
 41 48  1  0  0  0
 42 43  1  0  0  0
 42 66  1  0  0  0
 42114  1  0  0  0
 42115  1  0  0  0
 43 44  1  0  0  0
 44116  1  0  0  0
 45 46  2  0  0  0
 45117  1  0  0  0
 46118  1  0  0  0
 47119  1  0  0  0
 47120  1  0  0  0
 48 56  1  0  0  0
 48 65  1  0  0  0
 48121  1  0  0  0
 49 50  1  0  0  0
 49 53  1  0  0  0
 49 64  1  0  0  0
 49122  1  0  0  0
 50 51  1  0  0  0
 50123  1  0  0  0
 50124  1  0  0  0
 51 52  1  0  0  0
 51125  1  0  0  0
 51126  1  0  0  0
 52127  1  0  0  0
 52128  1  0  0  0
 53 54  1  0  0  0
 54 55  2  0  0  0
 54129  1  0  0  0
 55 57  1  0  0  0
 55130  1  0  0  0
 56 69  2  0  0  0
 57 58  2  0  0  0
 57131  1  0  0  0
 58132  1  0  0  0
 59 60  1  0  0  0
 59 61  1  0  0  0
 59 62  1  0  0  0
 60133  1  0  0  0
 60134  1  0  0  0
 60135  1  0  0  0
 61136  1  0  0  0
 61137  1  0  0  0
 61138  1  0  0  0
 62139  1  0  0  0
 62140  1  0  0  0
 62141  1  0  0  0
 63 65  1  0  0  0
 63142  1  0  0  0
 63143  1  0  0  0
 63144  1  0  0  0
 64145  1  0  0  0
 65146  1  0  0  0
 68 76  1  0  0  0
 71 72  2  0  0  0
 71 75  1  0  0  0
 71147  1  0  0  0
 72 73  1  0  0  0
 72 86  1  0  0  0
 73 74  2  0  0  0
 73 87  1  0  0  0
 74 77  1  0  0  0
 74 80  1  0  0  0
 75 80  2  0  0  0
 75 81  1  0  0  0
 76 78  2  0  0  0
 76148  1  0  0  0
 77 82  1  0  0  0
 77 83  2  0  0  0
 78 79  1  0  0  0
 78 85  1  0  0  0
 79 82  1  0  0  0
 79 84  2  0  0  0
 81149  1  0  0  0
 82150  1  0  0  0
 83151  1  0  0  0
 83152  1  0  0  0
 85153  1  0  0  0
M  CHG  1  83   1
M  ISO  4   1 100  68 101  76 101  81 100
M  END
> <chiral flag>
0

> <version>
0

> <s_m_source_file>
/data/baiqing/PycharmProjects/Reinvent-master-3.2/result/LINK_invent/BTK/process_docking_weight1_custom_product_contain_oxygen_bond_distance_aromatic_linkinvent_7_9_3/rearranged_h_0179.sdf

> <i_m_source_file_index>
43

> <r_mmod_Potential_Energy-OPLS-2005>
-324.358489990234

> <r_mmod_Stretch_Energy-OPLS-2005>
70.7817459106445

> <r_mmod_Bend_Energy-OPLS-2005>
175.052703857422

> <r_mmod_Torsional_Energy-OPLS-2005>
282.773986816406

> <r_mmod_Improper_Torsional_Energy-OPLS-2005>
8.56453800201416

> <r_mmod_Van_der_Waal_Energy-OPLS-2005>
155.394546508789

> <r_mmod_Electrostatic_Energy-OPLS-2005>
-597.793395996094

> <r_mmod_Solvation_Energy-OPLS-2005>
-472.717193603516

> <b_mmod_Minimization_Converged-OPLS-2005>
0

> <r_mmod_RMS_Derivative-OPLS-2005>
1.18063831329346

$$$$
43
                    3D
 Structure written by MMmdl.
151159  0  0  1  0            999 V2000
  -30.7057  -14.4906   20.5289 C   0  0  0  0  0  0
  -30.4152  -12.3061   19.4332 C   0  0  0  0  0  0
  -29.4934  -12.5012   18.2120 C   0  0  0  0  0  0
  -28.0145  -12.3640   18.6230 C   0  0  0  0  0  0
  -27.6586  -13.2131   19.8731 C   0  0  2  0  0  0
  -28.7016  -13.0220   20.9986 C   0  0  0  0  0  0
  -25.2570  -13.8174   20.5683 C   0  0  0  0  0  0
  -24.1827  -13.0442   20.9175 C   0  0  0  0  0  0
  -24.6392  -11.6910   20.8730 C   0  0  0  0  0  0
  -23.9058  -10.4290   21.0397 C   0  0  0  0  0  0
  -24.3611   -9.4202   21.9174 C   0  0  0  0  0  0
  -23.6289   -8.2238   22.0741 C   0  0  0  0  0  0
  -22.4268   -8.0274   21.3535 C   0  0  0  0  0  0
  -21.9904   -9.0248   20.4641 C   0  0  0  0  0  0
  -22.7230  -10.2130   20.3049 C   0  0  0  0  0  0
  -21.6855   -6.0728   22.5271 C   0  0  0  0  0  0
  -21.4015   -6.5632   23.8205 C   0  0  0  0  0  0
  -21.3664   -5.6785   24.9166 C   0  0  0  0  0  0
  -21.6050   -4.3047   24.7221 C   0  0  0  0  0  0
  -21.8818   -3.8140   23.4342 C   0  0  0  0  0  0
  -21.9193   -4.6956   22.3398 C   0  0  0  0  0  0
  -22.7850  -13.5232   21.1848 C   0  0  0  0  0  0
  -22.1660   -4.2144   21.0976 F   0  0  0  0  0  0
  -21.5637   -3.4534   25.7738 F   0  0  0  0  0  0
  -30.0322  -13.3099   20.4400 N   0  0  0  0  0  0
  -26.3012  -12.9356   20.3368 N   0  0  0  0  0  0
  -25.9322  -11.6510   20.5774 N   0  0  0  0  0  0
  -22.0497  -12.8220   22.0407 N   0  0  0  0  0  0
  -25.4296  -15.1890   20.4095 N   0  0  0  0  0  0
  -31.8624  -14.6100   20.1179 O   0  0  0  0  0  0
  -21.6633   -6.8871   21.4234 O   0  0  0  0  0  0
  -22.3535  -14.5545   20.6705 O   0  0  0  0  0  0
  -24.6175  -31.8689   23.2117 C   0  0  0  0  0  0
  -25.9064  -32.4831   23.8408 C   0  0  1  0  0  0
  -27.2194  -27.4103   20.0926 C   0  0  0  0  0  0
  -25.5922  -33.8626   24.2345 N   0  0  0  0  0  0
  -23.4044  -30.4966   21.5537 C   0  0  2  0  0  0
  -24.8463  -28.9681   20.1115 C   0  0  0  0  0  0
  -22.7427  -29.4670   22.4988 C   0  0  0  0  0  0
  -18.0280  -28.1371   22.8490 C   0  0  0  0  0  0
  -24.1491  -36.7316   23.2634 C   0  0  0  0  0  0
  -25.9379  -30.8269   21.3689 C   0  0  0  0  0  0
  -26.0113  -29.4622   20.7114 C   0  0  0  0  0  0
  -27.2007  -28.6917   20.6987 C   0  0  0  0  0  0
  -26.0312  -26.9498   19.4720 C   0  0  0  0  0  0
  -24.8529  -27.7129   19.4878 C   0  0  0  0  0  0
  -23.6118  -29.8384   20.1655 C   0  0  0  0  0  0
  -25.4108  -36.3119   24.0341 C   0  0  1  0  0  0
  -20.5872  -28.3667   23.1311 C   0  0  2  0  0  0
  -20.6771  -26.9404   22.5411 C   0  0  0  0  0  0
  -19.5751  -26.6383   21.5206 C   0  0  0  0  0  0
  -18.1930  -26.7922   22.1617 C   0  0  0  0  0  0
  -19.1529  -28.8834   23.2900 C   0  0  0  0  0  0
  -18.9453  -30.1438   23.8917 C   0  0  0  0  0  0
  -17.6454  -30.6579   24.0560 C   0  0  0  0  0  0
  -25.9037  -34.9482   23.5137 C   0  0  0  0  0  0
  -16.5349  -29.9080   23.6319 C   0  0  0  0  0  0
  -16.7268  -28.6493   23.0351 C   0  0  0  0  0  0
  -26.4478  -31.6605   25.0737 C   0  0  0  0  0  0
  -25.3735  -31.3715   26.1481 C   0  0  0  0  0  0
  -27.0296  -30.3045   24.6114 C   0  0  0  0  0  0
  -27.6065  -32.4307   25.7496 C   0  0  0  0  0  0
  -27.5587  -37.1815   24.8462 C   0  0  0  0  0  0
  -21.4154  -29.3040   22.3724 N   0  0  0  0  0  0
  -26.4300  -37.3799   23.9407 N   0  0  0  0  0  0
  -24.6719  -31.0782   22.1027 N   0  0  0  0  0  0
  -23.4198  -28.8194   23.3016 O   0  0  0  0  0  0
  -28.3670  -26.6318   20.1328 O   0  0  0  0  0  0
  -26.5588  -34.8931   22.4692 O   0  0  0  0  0  0
  -23.5365  -32.1448   23.7505 O   0  0  0  0  0  0
  -29.7616  -19.1975   20.6074 C   0  0  0  0  0  0
  -30.8200  -19.1563   19.7077 C   0  0  0  0  0  0
  -30.2211  -16.9262   20.6196 C   0  0  0  0  0  0
  -28.9940  -20.3984   21.0210 C   0  0  0  0  0  0
  -29.7058  -21.7908   21.0072 C   0  0  0  0  0  0
  -29.3142  -24.3190   20.3725 C   0  0  0  0  0  0
  -29.2022  -22.8266   19.9722 C   0  0  0  0  0  0
  -28.1689  -25.2216   19.8767 C   0  0  0  0  0  0
  -29.4237  -17.9007   21.0834 N   0  0  0  0  0  0
  -31.4038  -20.1486   18.9176 N   0  0  0  0  0  0
  -29.9876  -15.5533   20.9535 N   0  0  0  0  0  0
  -27.8285  -20.3620   21.4410 O   0  0  0  0  0  0
  -30.6262  -22.0255   21.8037 O   0  0  0  0  0  0
  -30.2764  -24.7889   20.9906 O   0  0  0  0  0  0
  -31.4618  -17.5416   19.5286 S   0  0  0  0  0  0
  -31.4617  -12.3859   19.1330 H   0  0  0  0  0  0
  -30.3010  -11.3014   19.8431 H   0  0  0  0  0  0
  -29.7334  -11.7727   17.4365 H   0  0  0  0  0  0
  -29.6637  -13.4841   17.7699 H   0  0  0  0  0  0
  -27.8241  -11.3093   18.8247 H   0  0  0  0  0  0
  -27.3657  -12.6344   17.7895 H   0  0  0  0  0  0
  -27.6946  -14.2572   19.5614 H   0  0  0  0  0  0
  -28.6763  -11.9969   21.3723 H   0  0  0  0  0  0
  -28.4700  -13.6533   21.8577 H   0  0  0  0  0  0
  -25.2758   -9.5688   22.4744 H   0  0  0  0  0  0
  -24.0007   -7.4629   22.7453 H   0  0  0  0  0  0
  -21.0840   -8.8765   19.8944 H   0  0  0  0  0  0
  -22.3685  -10.9664   19.6156 H   0  0  0  0  0  0
  -21.1999   -7.6139   23.9707 H   0  0  0  0  0  0
  -21.1495   -6.0513   25.9070 H   0  0  0  0  0  0
  -22.0599   -2.7603   23.2841 H   0  0  0  0  0  0
  -22.4118  -11.9888   22.4806 H   0  0  0  0  0  0
  -21.1114  -13.1237   22.2616 H   0  0  0  0  0  0
  -24.6658  -15.8463   20.5229 H   0  0  0  0  0  0
  -26.2864  -15.6301   20.0994 H   0  0  0  0  0  0
  -26.7135  -32.5533   23.1167 H   0  0  0  0  0  0
  -25.0105  -33.9788   25.0516 H   0  0  0  0  0  0
  -22.6938  -31.3150   21.4200 H   0  0  0  0  0  0
  -23.3757  -35.9646   23.3303 H   0  0  0  0  0  0
  -24.3589  -36.8921   22.2047 H   0  0  0  0  0  0
  -23.7241  -37.6525   23.6636 H   0  0  0  0  0  0
  -26.0564  -31.5950   20.6032 H   0  0  0  0  0  0
  -26.8238  -30.8759   21.9903 H   0  0  0  0  0  0
  -28.0966  -29.0671   21.1732 H   0  0  0  0  0  0
  -25.9784  -25.9974   18.9657 H   0  0  0  0  0  0
  -23.9588  -27.3316   19.0139 H   0  0  0  0  0  0
  -23.7242  -30.6177   19.4108 H   0  0  0  0  0  0
  -22.7331  -29.2641   19.8654 H   0  0  0  0  0  0
  -25.1284  -36.1990   25.0836 H   0  0  0  0  0  0
  -20.9964  -28.3228   24.1432 H   0  0  0  0  0  0
  -20.5673  -26.2274   23.3597 H   0  0  0  0  0  0
  -21.6643  -26.7445   22.1205 H   0  0  0  0  0  0
  -19.6912  -25.6295   21.1234 H   0  0  0  0  0  0
  -19.6689  -27.3193   20.6736 H   0  0  0  0  0  0
  -17.4199  -26.6676   21.4020 H   0  0  0  0  0  0
  -18.0330  -26.0059   22.9008 H   0  0  0  0  0  0
  -19.7927  -30.7247   24.2307 H   0  0  0  0  0  0
  -17.5008  -31.6264   24.5153 H   0  0  0  0  0  0
  -15.5348  -30.2985   23.7628 H   0  0  0  0  0  0
  -15.8670  -28.0808   22.7067 H   0  0  0  0  0  0
  -24.5914  -30.7057   25.7817 H   0  0  0  0  0  0
  -24.8915  -32.2869   26.4924 H   0  0  0  0  0  0
  -25.8080  -30.8889   27.0245 H   0  0  0  0  0  0
  -26.2836  -29.6826   24.1154 H   0  0  0  0  0  0
  -27.4051  -29.7265   25.4569 H   0  0  0  0  0  0
  -27.8685  -30.4364   23.9276 H   0  0  0  0  0  0
  -27.2707  -33.3604   26.2104 H   0  0  0  0  0  0
  -28.3859  -32.6870   25.0306 H   0  0  0  0  0  0
  -28.0752  -31.8408   26.5386 H   0  0  0  0  0  0
  -28.2610  -38.0111   24.7515 H   0  0  0  0  0  0
  -28.1086  -36.2644   24.6280 H   0  0  0  0  0  0
  -27.2311  -37.1456   25.8870 H   0  0  0  0  0  0
  -20.9314  -29.8785   21.6966 H   0  0  0  0  0  0
  -26.0199  -38.2888   24.1394 H   0  0  0  0  0  0
  -28.1574  -22.6087   19.7513 H   0  0  0  0  0  0
  -29.7519  -22.6812   19.0440 H   0  0  0  0  0  0
  -27.2657  -24.8732   20.3796 H   0  0  0  0  0  0
  -28.0370  -25.0598   18.8063 H   0  0  0  0  0  0
  -30.8080  -20.7651   18.3731 H   0  0  0  0  0  0
  -32.1816  -19.8505   18.3342 H   0  0  0  0  0  0
  -29.0972  -15.3466   21.3753 H   0  0  0  0  0  0
  1 25  1  0  0  0
  1 30  2  0  0  0
  1 81  1  0  0  0
  2  3  1  0  0  0
  2 25  1  0  0  0
  2 86  1  0  0  0
  2 87  1  0  0  0
  3  4  1  0  0  0
  3 88  1  0  0  0
  3 89  1  0  0  0
  4  5  1  0  0  0
  4 90  1  0  0  0
  4 91  1  0  0  0
  5  6  1  0  0  0
  5 26  1  0  0  0
  5 92  1  0  0  0
  6 25  1  0  0  0
  6 93  1  0  0  0
  6 94  1  0  0  0
  7  8  2  0  0  0
  7 26  1  0  0  0
  7 29  1  0  0  0
  8  9  1  0  0  0
  8 22  1  0  0  0
  9 10  1  0  0  0
  9 27  2  0  0  0
 10 11  2  0  0  0
 10 15  1  0  0  0
 11 12  1  0  0  0
 11 95  1  0  0  0
 12 13  2  0  0  0
 12 96  1  0  0  0
 13 14  1  0  0  0
 13 31  1  0  0  0
 14 15  2  0  0  0
 14 97  1  0  0  0
 15 98  1  0  0  0
 16 17  2  0  0  0
 16 21  1  0  0  0
 16 31  1  0  0  0
 17 18  1  0  0  0
 17 99  1  0  0  0
 18 19  2  0  0  0
 18100  1  0  0  0
 19 20  1  0  0  0
 19 24  1  0  0  0
 20 21  2  0  0  0
 20101  1  0  0  0
 21 23  1  0  0  0
 22 28  1  0  0  0
 22 32  2  0  0  0
 26 27  1  0  0  0
 28102  1  0  0  0
 28103  1  0  0  0
 29104  1  0  0  0
 29105  1  0  0  0
 33 34  1  0  0  0
 33 66  1  0  0  0
 33 70  2  0  0  0
 34 36  1  0  0  0
 34 59  1  0  0  0
 34106  1  0  0  0
 35 44  2  0  0  0
 35 45  1  0  0  0
 35 68  1  0  0  0
 36 56  1  0  0  0
 36107  1  0  0  0
 37 39  1  0  0  0
 37 47  1  0  0  0
 37 66  1  0  0  0
 37108  1  0  0  0
 38 43  2  0  0  0
 38 46  1  0  0  0
 38 47  1  0  0  0
 39 64  1  0  0  0
 39 67  2  0  0  0
 40 52  1  0  0  0
 40 53  2  0  0  0
 40 58  1  0  0  0
 41109  1  0  0  0
 41110  1  0  0  0
 41111  1  0  0  0
 41 48  1  0  0  0
 42 43  1  0  0  0
 42 66  1  0  0  0
 42112  1  0  0  0
 42113  1  0  0  0
 43 44  1  0  0  0
 44114  1  0  0  0
 45 46  2  0  0  0
 45115  1  0  0  0
 46116  1  0  0  0
 47117  1  0  0  0
 47118  1  0  0  0
 48 56  1  0  0  0
 48 65  1  0  0  0
 48119  1  0  0  0
 49 50  1  0  0  0
 49 53  1  0  0  0
 49 64  1  0  0  0
 49120  1  0  0  0
 50 51  1  0  0  0
 50121  1  0  0  0
 50122  1  0  0  0
 51 52  1  0  0  0
 51123  1  0  0  0
 51124  1  0  0  0
 52125  1  0  0  0
 52126  1  0  0  0
 53 54  1  0  0  0
 54 55  2  0  0  0
 54127  1  0  0  0
 55 57  1  0  0  0
 55128  1  0  0  0
 56 69  2  0  0  0
 57 58  2  0  0  0
 57129  1  0  0  0
 58130  1  0  0  0
 59 60  1  0  0  0
 59 61  1  0  0  0
 59 62  1  0  0  0
 60131  1  0  0  0
 60132  1  0  0  0
 60133  1  0  0  0
 61134  1  0  0  0
 61135  1  0  0  0
 61136  1  0  0  0
 62137  1  0  0  0
 62138  1  0  0  0
 62139  1  0  0  0
 63 65  1  0  0  0
 63140  1  0  0  0
 63141  1  0  0  0
 63142  1  0  0  0
 64143  1  0  0  0
 65144  1  0  0  0
 68 78  1  0  0  0
 71 72  2  0  0  0
 71 74  1  0  0  0
 71 79  1  0  0  0
 72 80  1  0  0  0
 72 85  1  0  0  0
 73 79  2  0  0  0
 73 81  1  0  0  0
 73 85  1  0  0  0
 74 75  1  0  0  0
 74 82  2  0  0  0
 75 77  1  0  0  0
 75 83  2  0  0  0
 76 77  1  0  0  0
 76 78  1  0  0  0
 76 84  2  0  0  0
 77145  1  0  0  0
 77146  1  0  0  0
 78147  1  0  0  0
 78148  1  0  0  0
 80149  1  0  0  0
 80150  1  0  0  0
 81151  1  0  0  0
M  ISO  4   1 100  68 101  78 101  81 100
M  END
> <chiral flag>
0

> <version>
0

> <s_m_source_file>
/data/baiqing/PycharmProjects/Reinvent-master-3.2/result/LINK_invent/BTK/process_docking_weight1_custom_product_contain_oxygen_bond_distance_aromatic_linkinvent_7_9_3/rearranged_h_0179.sdf

> <i_m_source_file_index>
44

> <r_mmod_Potential_Energy-OPLS-2005>
20.6325454711914

> <r_mmod_Stretch_Energy-OPLS-2005>
43.9416313171387

> <r_mmod_Bend_Energy-OPLS-2005>
106.242530822754

> <r_mmod_Torsional_Energy-OPLS-2005>
224.296600341797

> <r_mmod_Improper_Torsional_Energy-OPLS-2005>
9.08273506164551

> <r_mmod_Van_der_Waal_Energy-OPLS-2005>
140.77522277832

> <r_mmod_Electrostatic_Energy-OPLS-2005>
-241.361022949219

> <r_mmod_Solvation_Energy-OPLS-2005>
-281.359130859375

> <b_mmod_Minimization_Converged-OPLS-2005>
0

> <r_mmod_RMS_Derivative-OPLS-2005>
0.92581570148468

$$$$
44
                    3D
 Structure written by MMmdl.
153161  0  0  1  0            999 V2000
  -30.6625  -14.5118   20.5445 C   0  0  0  0  0  0
  -30.4325  -12.3274   19.4281 C   0  0  0  0  0  0
  -29.5060  -12.5348   18.2110 C   0  0  0  0  0  0
  -28.0269  -12.3849   18.6149 C   0  0  0  0  0  0
  -27.6659  -13.2065   19.8816 C   0  0  2  0  0  0
  -28.7083  -12.9791   21.0036 C   0  0  0  0  0  0
  -25.2626  -13.8155   20.5661 C   0  0  0  0  0  0
  -24.1849  -13.0459   20.9135 C   0  0  0  0  0  0
  -24.6379  -11.6912   20.8703 C   0  0  0  0  0  0
  -23.9049  -10.4309   21.0390 C   0  0  0  0  0  0
  -24.3582   -9.4238   21.9182 C   0  0  0  0  0  0
  -23.6252   -8.2280   22.0762 C   0  0  0  0  0  0
  -22.4240   -8.0292   21.3532 C   0  0  0  0  0  0
  -21.9852   -9.0272   20.4653 C   0  0  0  0  0  0
  -22.7207  -10.2145   20.3055 C   0  0  0  0  0  0
  -21.6848   -6.0716   22.5247 C   0  0  0  0  0  0
  -21.4025   -6.5611   23.8172 C   0  0  0  0  0  0
  -21.3670   -5.6762   24.9143 C   0  0  0  0  0  0
  -21.6045   -4.3032   24.7183 C   0  0  0  0  0  0
  -21.8828   -3.8125   23.4312 C   0  0  0  0  0  0
  -21.9197   -4.6951   22.3356 C   0  0  0  0  0  0
  -22.7888  -13.5319   21.1780 C   0  0  0  0  0  0
  -22.1660   -4.2147   21.0942 F   0  0  0  0  0  0
  -21.5640   -3.4499   25.7697 F   0  0  0  0  0  0
  -30.0381  -13.3037   20.4603 N   0  0  0  0  0  0
  -26.3046  -12.9308   20.3364 N   0  0  0  0  0  0
  -25.9303  -11.6465   20.5712 N   0  0  0  0  0  0
  -22.0447  -12.8350   22.0305 N   0  0  0  0  0  0
  -25.4476  -15.1842   20.4082 N   0  0  0  0  0  0
  -31.7918  -14.7111   20.0851 O   0  0  0  0  0  0
  -21.6648   -6.8862   21.4199 O   0  0  0  0  0  0
  -22.3620  -14.5654   20.6652 O   0  0  0  0  0  0
  -24.6196  -31.8634   23.2092 C   0  0  0  0  0  0
  -25.9057  -32.4836   23.8389 C   0  0  1  0  0  0
  -27.2199  -27.3979   20.1087 C   0  0  0  0  0  0
  -25.5893  -33.8622   24.2324 N   0  0  0  0  0  0
  -23.4097  -30.4848   21.5521 C   0  0  2  0  0  0
  -24.8527  -28.9475   20.1149 C   0  0  0  0  0  0
  -22.7445  -29.4594   22.4996 C   0  0  0  0  0  0
  -18.0256  -28.1384   22.8488 C   0  0  0  0  0  0
  -24.1474  -36.7333   23.2628 C   0  0  0  0  0  0
  -25.9402  -30.8269   21.3563 C   0  0  0  0  0  0
  -26.0157  -29.4538   20.7088 C   0  0  0  0  0  0
  -27.2063  -28.6855   20.6992 C   0  0  0  0  0  0
  -26.0442  -26.9157   19.4995 C   0  0  0  0  0  0
  -24.8629  -27.6818   19.5032 C   0  0  0  0  0  0
  -23.6184  -29.8211   20.1637 C   0  0  0  0  0  0
  -25.4086  -36.3128   24.0327 C   0  0  1  0  0  0
  -20.5870  -28.3657   23.1328 C   0  0  2  0  0  0
  -20.6761  -26.9388   22.5428 C   0  0  0  0  0  0
  -19.5721  -26.6381   21.5229 C   0  0  0  0  0  0
  -18.1898  -26.7940   22.1631 C   0  0  0  0  0  0
  -19.1519  -28.8840   23.2913 C   0  0  0  0  0  0
  -18.9438  -30.1446   23.8927 C   0  0  0  0  0  0
  -17.6443  -30.6589   24.0571 C   0  0  0  0  0  0
  -25.9011  -34.9487   23.5122 C   0  0  0  0  0  0
  -16.5334  -29.9096   23.6324 C   0  0  0  0  0  0
  -16.7251  -28.6519   23.0341 C   0  0  0  0  0  0
  -26.4454  -31.6620   25.0733 C   0  0  0  0  0  0
  -25.3737  -31.3749   26.1515 C   0  0  0  0  0  0
  -27.0254  -30.3064   24.6087 C   0  0  0  0  0  0
  -27.6026  -32.4332   25.7526 C   0  0  0  0  0  0
  -27.5572  -37.1804   24.8428 C   0  0  0  0  0  0
  -21.4170  -29.3018   22.3756 N   0  0  0  0  0  0
  -26.4270  -37.3815   23.9413 N   0  0  0  0  0  0
  -24.6769  -31.0712   22.1009 N   0  0  0  0  0  0
  -23.4214  -28.8090   23.3009 O   0  0  0  0  0  0
  -28.3558  -26.6144   20.1179 O   0  0  0  0  0  0
  -26.5568  -34.8937   22.4692 O   0  0  0  0  0  0
  -23.5369  -32.1371   23.7461 O   0  0  0  0  0  0
  -29.4938  -17.9722   20.9842 C   0  0  0  0  0  0
  -29.2099  -19.0162   20.0292 C   0  0  0  0  0  0
  -29.1772  -18.5533   18.7223 C   0  0  0  0  0  0
  -29.6838  -16.7216   20.4228 C   0  0  0  0  0  0
  -29.0038  -19.1694   17.4080 C   0  0  0  0  0  0
  -28.7609  -22.7818   20.7185 C   0  0  0  0  0  0
  -28.3187  -21.3974   20.1265 C   0  0  0  0  0  0
  -28.3415  -24.0740   19.9647 C   0  0  0  0  0  0
  -28.2427  -25.3619   20.8404 C   0  0  0  0  0  0
  -28.2749  -20.1528   17.0970 N   0  0  0  0  0  0
  -29.1611  -20.3907   20.4574 N   0  0  0  0  0  0
  -29.9190  -15.5260   21.0492 N   0  0  0  0  0  0
  -29.4523  -22.8369   21.7437 O   0  0  0  0  0  0
  -27.2753  -21.2577   19.4823 O   0  0  0  0  0  0
  -29.4955  -16.8348   18.6825 S   0  0  0  0  0  0
  -31.4760  -12.4351   19.1267 H   0  0  0  0  0  0
  -30.3383  -11.3127   19.8158 H   0  0  0  0  0  0
  -29.7551  -11.8258   17.4195 H   0  0  0  0  0  0
  -29.6700  -13.5279   17.7910 H   0  0  0  0  0  0
  -27.8334  -11.3267   18.7903 H   0  0  0  0  0  0
  -27.3920  -12.6779   17.7797 H   0  0  0  0  0  0
  -27.7126  -14.2579   19.5985 H   0  0  0  0  0  0
  -28.6915  -11.9354   21.3238 H   0  0  0  0  0  0
  -28.4712  -13.5633   21.8924 H   0  0  0  0  0  0
  -25.2704   -9.5735   22.4786 H   0  0  0  0  0  0
  -23.9951   -7.4677   22.7477 H   0  0  0  0  0  0
  -21.0776   -8.8790   19.8948 H   0  0  0  0  0  0
  -22.3642  -10.9679   19.6178 H   0  0  0  0  0  0
  -21.2028   -7.6106   23.9658 H   0  0  0  0  0  0
  -21.1483   -6.0502   25.9044 H   0  0  0  0  0  0
  -22.0611   -2.7590   23.2791 H   0  0  0  0  0  0
  -22.3973  -12.0026   22.4771 H   0  0  0  0  0  0
  -21.1081  -13.1491   22.2421 H   0  0  0  0  0  0
  -24.7025  -15.8615   20.5319 H   0  0  0  0  0  0
  -26.3127  -15.5985   20.0881 H   0  0  0  0  0  0
  -26.7160  -32.5514   23.1167 H   0  0  0  0  0  0
  -25.0117  -33.9790   25.0531 H   0  0  0  0  0  0
  -22.6984  -31.3023   21.4130 H   0  0  0  0  0  0
  -23.3747  -35.9645   23.3239 H   0  0  0  0  0  0
  -24.3599  -36.9019   22.2056 H   0  0  0  0  0  0
  -23.7214  -37.6518   23.6683 H   0  0  0  0  0  0
  -26.0324  -31.5824   20.5732 H   0  0  0  0  0  0
  -26.8387  -30.8988   21.9597 H   0  0  0  0  0  0
  -28.1064  -29.0661   21.1591 H   0  0  0  0  0  0
  -26.0411  -25.9460   19.0241 H   0  0  0  0  0  0
  -23.9700  -27.2913   19.0347 H   0  0  0  0  0  0
  -23.7343  -30.5987   19.4064 H   0  0  0  0  0  0
  -22.7406  -29.2455   19.8677 H   0  0  0  0  0  0
  -25.1258  -36.1984   25.0814 H   0  0  0  0  0  0
  -20.9937  -28.3208   24.1461 H   0  0  0  0  0  0
  -20.5673  -26.2241   23.3609 H   0  0  0  0  0  0
  -21.6622  -26.7440   22.1199 H   0  0  0  0  0  0
  -19.6867  -25.6290   21.1253 H   0  0  0  0  0  0
  -19.6667  -27.3200   20.6763 H   0  0  0  0  0  0
  -17.4173  -26.6698   21.4033 H   0  0  0  0  0  0
  -18.0264  -26.0099   22.9031 H   0  0  0  0  0  0
  -19.7908  -30.7264   24.2323 H   0  0  0  0  0  0
  -17.4986  -31.6281   24.5138 H   0  0  0  0  0  0
  -15.5331  -30.2996   23.7644 H   0  0  0  0  0  0
  -15.8648  -28.0849   22.7039 H   0  0  0  0  0  0
  -24.5867  -30.7129   25.7893 H   0  0  0  0  0  0
  -24.8982  -32.2920   26.4994 H   0  0  0  0  0  0
  -25.8110  -30.8915   27.0258 H   0  0  0  0  0  0
  -26.2781  -29.6897   24.1091 H   0  0  0  0  0  0
  -27.3975  -29.7230   25.4511 H   0  0  0  0  0  0
  -27.8621  -30.4393   23.9234 H   0  0  0  0  0  0
  -27.2635  -33.3618   26.2116 H   0  0  0  0  0  0
  -28.3839  -32.6920   25.0377 H   0  0  0  0  0  0
  -28.0673  -31.8456   26.5452 H   0  0  0  0  0  0
  -28.2527  -38.0167   24.7595 H   0  0  0  0  0  0
  -28.1146  -36.2712   24.6100 H   0  0  0  0  0  0
  -27.2320  -37.1280   25.8838 H   0  0  0  0  0  0
  -20.9316  -29.8812   21.7056 H   0  0  0  0  0  0
  -26.0146  -38.2873   24.1512 H   0  0  0  0  0  0
  -29.5708  -18.1783   22.0439 H   0  0  0  0  0  0
  -29.5830  -18.6897   16.6138 H   0  0  0  0  0  0
  -27.3913  -23.8962   19.4614 H   0  0  0  0  0  0
  -29.0867  -24.2350   19.1872 H   0  0  0  0  0  0
  -29.0413  -25.3766   21.5839 H   0  0  0  0  0  0
  -27.3182  -25.3195   21.4229 H   0  0  0  0  0  0
  -27.7592  -20.5234   17.8981 H   0  0  0  0  0  0
  -29.8505  -20.6735   21.1412 H   0  0  0  0  0  0
  -29.1854  -15.2349   21.6781 H   0  0  0  0  0  0
  1 25  1  0  0  0
  1 30  2  0  0  0
  1 82  1  0  0  0
  2  3  1  0  0  0
  2 25  1  0  0  0
  2 86  1  0  0  0
  2 87  1  0  0  0
  3  4  1  0  0  0
  3 88  1  0  0  0
  3 89  1  0  0  0
  4  5  1  0  0  0
  4 90  1  0  0  0
  4 91  1  0  0  0
  5  6  1  0  0  0
  5 26  1  0  0  0
  5 92  1  0  0  0
  6 25  1  0  0  0
  6 93  1  0  0  0
  6 94  1  0  0  0
  7  8  2  0  0  0
  7 26  1  0  0  0
  7 29  1  0  0  0
  8  9  1  0  0  0
  8 22  1  0  0  0
  9 10  1  0  0  0
  9 27  2  0  0  0
 10 11  2  0  0  0
 10 15  1  0  0  0
 11 12  1  0  0  0
 11 95  1  0  0  0
 12 13  2  0  0  0
 12 96  1  0  0  0
 13 14  1  0  0  0
 13 31  1  0  0  0
 14 15  2  0  0  0
 14 97  1  0  0  0
 15 98  1  0  0  0
 16 17  2  0  0  0
 16 21  1  0  0  0
 16 31  1  0  0  0
 17 18  1  0  0  0
 17 99  1  0  0  0
 18 19  2  0  0  0
 18100  1  0  0  0
 19 20  1  0  0  0
 19 24  1  0  0  0
 20 21  2  0  0  0
 20101  1  0  0  0
 21 23  1  0  0  0
 22 28  1  0  0  0
 22 32  2  0  0  0
 26 27  1  0  0  0
 28102  1  0  0  0
 28103  1  0  0  0
 29104  1  0  0  0
 29105  1  0  0  0
 33 34  1  0  0  0
 33 66  1  0  0  0
 33 70  2  0  0  0
 34 36  1  0  0  0
 34 59  1  0  0  0
 34106  1  0  0  0
 35 44  2  0  0  0
 35 45  1  0  0  0
 35 68  1  0  0  0
 36 56  1  0  0  0
 36107  1  0  0  0
 37 39  1  0  0  0
 37 47  1  0  0  0
 37 66  1  0  0  0
 37108  1  0  0  0
 38 43  2  0  0  0
 38 46  1  0  0  0
 38 47  1  0  0  0
 39 64  1  0  0  0
 39 67  2  0  0  0
 40 52  1  0  0  0
 40 53  2  0  0  0
 40 58  1  0  0  0
 41109  1  0  0  0
 41110  1  0  0  0
 41111  1  0  0  0
 41 48  1  0  0  0
 42 43  1  0  0  0
 42 66  1  0  0  0
 42112  1  0  0  0
 42113  1  0  0  0
 43 44  1  0  0  0
 44114  1  0  0  0
 45 46  2  0  0  0
 45115  1  0  0  0
 46116  1  0  0  0
 47117  1  0  0  0
 47118  1  0  0  0
 48 56  1  0  0  0
 48 65  1  0  0  0
 48119  1  0  0  0
 49 50  1  0  0  0
 49 53  1  0  0  0
 49 64  1  0  0  0
 49120  1  0  0  0
 50 51  1  0  0  0
 50121  1  0  0  0
 50122  1  0  0  0
 51 52  1  0  0  0
 51123  1  0  0  0
 51124  1  0  0  0
 52125  1  0  0  0
 52126  1  0  0  0
 53 54  1  0  0  0
 54 55  2  0  0  0
 54127  1  0  0  0
 55 57  1  0  0  0
 55128  1  0  0  0
 56 69  2  0  0  0
 57 58  2  0  0  0
 57129  1  0  0  0
 58130  1  0  0  0
 59 60  1  0  0  0
 59 61  1  0  0  0
 59 62  1  0  0  0
 60131  1  0  0  0
 60132  1  0  0  0
 60133  1  0  0  0
 61134  1  0  0  0
 61135  1  0  0  0
 61136  1  0  0  0
 62137  1  0  0  0
 62138  1  0  0  0
 62139  1  0  0  0
 63 65  1  0  0  0
 63140  1  0  0  0
 63141  1  0  0  0
 63142  1  0  0  0
 64143  1  0  0  0
 65144  1  0  0  0
 68 79  1  0  0  0
 71 72  1  0  0  0
 71 74  2  0  0  0
 71145  1  0  0  0
 72 73  2  0  0  0
 72 81  1  0  0  0
 73 75  1  0  0  0
 73 85  1  0  0  0
 74 82  1  0  0  0
 74 85  1  0  0  0
 75 80  2  0  0  0
 75146  1  0  0  0
 76 77  1  0  0  0
 76 78  1  0  0  0
 76 83  2  0  0  0
 77 81  1  0  0  0
 77 84  2  0  0  0
 78 79  1  0  0  0
 78147  1  0  0  0
 78148  1  0  0  0
 79149  1  0  0  0
 79150  1  0  0  0
 80151  1  0  0  0
 81152  1  0  0  0
 82153  1  0  0  0
M  ISO  4   1 100  68 101  79 101  82 100
M  END
> <chiral flag>
0

> <version>
0

> <s_m_source_file>
/data/baiqing/PycharmProjects/Reinvent-master-3.2/result/LINK_invent/BTK/process_docking_weight1_custom_product_contain_oxygen_bond_distance_aromatic_linkinvent_7_9_3/rearranged_h_0179.sdf

> <i_m_source_file_index>
45

> <r_mmod_Potential_Energy-OPLS-2005>
-14.0497951507568

> <r_mmod_Stretch_Energy-OPLS-2005>
45.3573799133301

> <r_mmod_Bend_Energy-OPLS-2005>
118.212089538574

> <r_mmod_Torsional_Energy-OPLS-2005>
290.672058105469

> <r_mmod_Improper_Torsional_Energy-OPLS-2005>
6.42362260818481

> <r_mmod_Van_der_Waal_Energy-OPLS-2005>
124.502265930176

> <r_mmod_Electrostatic_Energy-OPLS-2005>
-368.300811767578

> <r_mmod_Solvation_Energy-OPLS-2005>
-249.782562255859

> <b_mmod_Minimization_Converged-OPLS-2005>
0

> <r_mmod_RMS_Derivative-OPLS-2005>
4.73675012588501

$$$$
45
                    3D
 Structure written by MMmdl.
154162  0  0  1  0            999 V2000
  -30.6563  -14.5339   20.5730 C   0  0  0  0  0  0
  -30.4416  -12.3448   19.4279 C   0  0  0  0  0  0
  -29.5058  -12.5206   18.2115 C   0  0  0  0  0  0
  -28.0248  -12.3743   18.6184 C   0  0  0  0  0  0
  -27.6636  -13.2073   19.8786 C   0  0  2  0  0  0
  -28.7075  -12.9810   20.9966 C   0  0  0  0  0  0
  -25.2599  -13.8157   20.5691 C   0  0  0  0  0  0
  -24.1849  -13.0424   20.9173 C   0  0  0  0  0  0
  -24.6400  -11.6895   20.8719 C   0  0  0  0  0  0
  -23.9058  -10.4291   21.0394 C   0  0  0  0  0  0
  -24.3610   -9.4211   21.9178 C   0  0  0  0  0  0
  -23.6296   -8.2241   22.0755 C   0  0  0  0  0  0
  -22.4275   -8.0280   21.3554 C   0  0  0  0  0  0
  -21.9899   -9.0242   20.4646 C   0  0  0  0  0  0
  -22.7221  -10.2134   20.3054 C   0  0  0  0  0  0
  -21.6855   -6.0739   22.5279 C   0  0  0  0  0  0
  -21.4012   -6.5635   23.8209 C   0  0  0  0  0  0
  -21.3663   -5.6788   24.9169 C   0  0  0  0  0  0
  -21.6045   -4.3054   24.7218 C   0  0  0  0  0  0
  -21.8812   -3.8148   23.4335 C   0  0  0  0  0  0
  -21.9191   -4.6967   22.3396 C   0  0  0  0  0  0
  -22.7876  -13.5236   21.1826 C   0  0  0  0  0  0
  -22.1655   -4.2154   21.0972 F   0  0  0  0  0  0
  -21.5633   -3.4532   25.7727 F   0  0  0  0  0  0
  -30.0348  -13.3234   20.4512 N   0  0  0  0  0  0
  -26.3042  -12.9320   20.3385 N   0  0  0  0  0  0
  -25.9334  -11.6479   20.5766 N   0  0  0  0  0  0
  -22.0504  -12.8262   22.0402 N   0  0  0  0  0  0
  -25.4303  -15.1875   20.4106 N   0  0  0  0  0  0
  -31.7771  -14.7541   20.1010 O   0  0  0  0  0  0
  -21.6643   -6.8886   21.4248 O   0  0  0  0  0  0
  -22.3579  -14.5548   20.6676 O   0  0  0  0  0  0
  -24.6226  -31.8643   23.2065 C   0  0  0  0  0  0
  -25.9100  -32.4809   23.8371 C   0  0  1  0  0  0
  -27.2316  -27.3671   20.1057 C   0  0  0  0  0  0
  -25.5954  -33.8603   24.2305 N   0  0  0  0  0  0
  -23.4144  -30.4901   21.5470 C   0  0  2  0  0  0
  -24.8632  -28.9578   20.1088 C   0  0  0  0  0  0
  -22.7455  -29.4646   22.4935 C   0  0  0  0  0  0
  -18.0275  -28.1416   22.8486 C   0  0  0  0  0  0
  -24.1492  -36.7277   23.2636 C   0  0  0  0  0  0
  -25.9528  -30.8122   21.3715 C   0  0  0  0  0  0
  -26.0294  -29.4437   20.7127 C   0  0  0  0  0  0
  -27.2166  -28.6595   20.7033 C   0  0  0  0  0  0
  -26.0393  -26.9259   19.4789 C   0  0  0  0  0  0
  -24.8685  -27.7022   19.4865 C   0  0  0  0  0  0
  -23.6273  -29.8303   20.1599 C   0  0  0  0  0  0
  -25.4117  -36.3092   24.0325 C   0  0  1  0  0  0
  -20.5882  -28.3690   23.1296 C   0  0  2  0  0  0
  -20.6777  -26.9421   22.5417 C   0  0  0  0  0  0
  -19.5751  -26.6406   21.5230 C   0  0  0  0  0  0
  -18.1929  -26.7961   22.1635 C   0  0  0  0  0  0
  -19.1536  -28.8864   23.2895 C   0  0  0  0  0  0
  -18.9461  -30.1473   23.8902 C   0  0  0  0  0  0
  -17.6463  -30.6609   24.0573 C   0  0  0  0  0  0
  -25.9053  -34.9461   23.5107 C   0  0  0  0  0  0
  -16.5350  -29.9111   23.6352 C   0  0  0  0  0  0
  -16.7267  -28.6543   23.0344 C   0  0  0  0  0  0
  -26.4493  -31.6609   25.0729 C   0  0  0  0  0  0
  -25.3736  -31.3737   26.1469 C   0  0  0  0  0  0
  -27.0330  -30.3036   24.6176 C   0  0  0  0  0  0
  -27.6073  -32.4323   25.7497 C   0  0  0  0  0  0
  -27.5574  -37.1791   24.8462 C   0  0  0  0  0  0
  -21.4170  -29.3047   22.3686 N   0  0  0  0  0  0
  -26.4283  -37.3787   23.9419 N   0  0  0  0  0  0
  -24.6815  -31.0701   22.0993 N   0  0  0  0  0  0
  -23.4203  -28.8174   23.2978 O   0  0  0  0  0  0
  -28.3647  -26.5497   20.1580 O   0  0  0  0  0  0
  -26.5597  -34.8914   22.4660 O   0  0  0  0  0  0
  -23.5405  -32.1420   23.7433 O   0  0  0  0  0  0
  -30.1295  -19.1638   20.8592 C   0  0  0  0  0  0
  -30.0697  -19.2022   22.2414 C   0  0  0  0  0  0
  -30.1255  -16.8907   21.3545 C   0  0  0  0  0  0
  -29.2585  -24.1349   20.3229 C   0  0  0  0  0  0
  -29.2006  -22.6704   19.7120 C   0  0  0  0  0  0
  -31.5650  -20.3541   19.1647 C   0  0  0  0  0  0
  -28.1608  -25.1323   19.8379 C   0  0  0  0  0  0
  -30.1886  -20.3319   19.8533 C   0  0  2  0  0  0
  -30.1395  -17.8235   20.3791 N   0  0  0  0  0  0
  -29.9837  -20.2943   23.0989 N   0  0  0  0  0  0
  -29.9006  -15.4903   21.1572 N   0  0  0  0  0  0
  -29.9039  -21.7068   20.3631 N   0  0  0  0  0  0
  -30.1186  -24.4674   21.1496 O   0  0  0  0  0  0
  -28.5733  -22.4383   18.6738 O   0  0  0  0  0  0
  -30.0691  -17.6036   22.9558 S   0  0  0  0  0  0
  -31.4825  -12.4728   19.1236 H   0  0  0  0  0  0
  -30.3707  -11.3310   19.8256 H   0  0  0  0  0  0
  -29.7544  -11.7905   17.4397 H   0  0  0  0  0  0
  -29.6677  -13.5042   17.7665 H   0  0  0  0  0  0
  -27.8365  -11.3170   18.8064 H   0  0  0  0  0  0
  -27.3792  -12.6553   17.7856 H   0  0  0  0  0  0
  -27.7049  -14.2577   19.5915 H   0  0  0  0  0  0
  -28.6996  -11.9362   21.3112 H   0  0  0  0  0  0
  -28.4573  -13.5497   21.8937 H   0  0  0  0  0  0
  -25.2742   -9.5703   22.4760 H   0  0  0  0  0  0
  -23.9989   -7.4649   22.7477 H   0  0  0  0  0  0
  -21.0818   -8.8760   19.8968 H   0  0  0  0  0  0
  -22.3648  -10.9674   19.6173 H   0  0  0  0  0  0
  -21.2008   -7.6145   23.9711 H   0  0  0  0  0  0
  -21.1499   -6.0522   25.9072 H   0  0  0  0  0  0
  -22.0597   -2.7610   23.2823 H   0  0  0  0  0  0
  -22.4080  -11.9909   22.4806 H   0  0  0  0  0  0
  -21.1135  -13.1348   22.2601 H   0  0  0  0  0  0
  -24.6611  -15.8397   20.5231 H   0  0  0  0  0  0
  -26.2804  -15.6305   20.0847 H   0  0  0  0  0  0
  -26.7172  -32.5497   23.1124 H   0  0  0  0  0  0
  -25.0136  -33.9764   25.0476 H   0  0  0  0  0  0
  -22.7061  -31.3090   21.4060 H   0  0  0  0  0  0
  -23.3764  -35.9601   23.3319 H   0  0  0  0  0  0
  -24.3587  -36.8885   22.2048 H   0  0  0  0  0  0
  -23.7225  -37.6473   23.6644 H   0  0  0  0  0  0
  -26.0814  -31.5828   20.6104 H   0  0  0  0  0  0
  -26.8330  -30.8554   22.0006 H   0  0  0  0  0  0
  -28.1127  -29.0305   21.1816 H   0  0  0  0  0  0
  -25.9768  -25.9721   18.9772 H   0  0  0  0  0  0
  -23.9740  -27.3272   19.0084 H   0  0  0  0  0  0
  -23.7396  -30.6104   19.4057 H   0  0  0  0  0  0
  -22.7510  -29.2567   19.8537 H   0  0  0  0  0  0
  -25.1298  -36.1936   25.0809 H   0  0  0  0  0  0
  -20.9978  -28.3274   24.1412 H   0  0  0  0  0  0
  -20.5716  -26.2294   23.3600 H   0  0  0  0  0  0
  -21.6638  -26.7481   22.1186 H   0  0  0  0  0  0
  -19.6915  -25.6323   21.1247 H   0  0  0  0  0  0
  -19.6706  -27.3228   20.6770 H   0  0  0  0  0  0
  -17.4198  -26.6707   21.4034 H   0  0  0  0  0  0
  -18.0318  -26.0113   22.9036 H   0  0  0  0  0  0
  -19.7933  -30.7295   24.2283 H   0  0  0  0  0  0
  -17.5017  -31.6296   24.5170 H   0  0  0  0  0  0
  -15.5358  -30.3012   23.7696 H   0  0  0  0  0  0
  -15.8667  -28.0885   22.7033 H   0  0  0  0  0  0
  -24.5939  -30.7052   25.7808 H   0  0  0  0  0  0
  -24.8881  -32.2886   26.4867 H   0  0  0  0  0  0
  -25.8069  -30.8951   27.0262 H   0  0  0  0  0  0
  -26.2891  -29.6799   24.1208 H   0  0  0  0  0  0
  -27.4040  -29.7287   25.4675 H   0  0  0  0  0  0
  -27.8760  -30.4336   23.9385 H   0  0  0  0  0  0
  -27.2716  -33.3636   26.2066 H   0  0  0  0  0  0
  -28.3885  -32.6864   25.0320 H   0  0  0  0  0  0
  -28.0737  -31.8444   26.5418 H   0  0  0  0  0  0
  -28.2589  -38.0097   24.7541 H   0  0  0  0  0  0
  -28.1070  -36.2625   24.6252 H   0  0  0  0  0  0
  -27.2286  -37.1390   25.8864 H   0  0  0  0  0  0
  -20.9338  -29.8761   21.6894 H   0  0  0  0  0  0
  -26.0167  -38.2850   24.1476 H   0  0  0  0  0  0
  -32.3674  -20.4869   19.8905 H   0  0  0  0  0  0
  -31.6403  -21.1599   18.4348 H   0  0  0  0  0  0
  -31.7586  -19.4188   18.6366 H   0  0  0  0  0  0
  -27.2368  -24.7825   20.2985 H   0  0  0  0  0  0
  -28.0455  -25.0226   18.7596 H   0  0  0  0  0  0
  -29.4526  -20.1095   19.0783 H   0  0  0  0  0  0
  -29.3441  -21.0297   22.8157 H   0  0  0  0  0  0
  -29.8278  -20.0724   24.0779 H   0  0  0  0  0  0
  -29.0729  -15.1281   21.6020 H   0  0  0  0  0  0
  -30.3788  -21.9881   21.2127 H   0  0  0  0  0  0
  1 25  1  0  0  0
  1 30  2  0  0  0
  1 81  1  0  0  0
  2  3  1  0  0  0
  2 25  1  0  0  0
  2 86  1  0  0  0
  2 87  1  0  0  0
  3  4  1  0  0  0
  3 88  1  0  0  0
  3 89  1  0  0  0
  4  5  1  0  0  0
  4 90  1  0  0  0
  4 91  1  0  0  0
  5  6  1  0  0  0
  5 26  1  0  0  0
  5 92  1  0  0  0
  6 25  1  0  0  0
  6 93  1  0  0  0
  6 94  1  0  0  0
  7  8  2  0  0  0
  7 26  1  0  0  0
  7 29  1  0  0  0
  8  9  1  0  0  0
  8 22  1  0  0  0
  9 10  1  0  0  0
  9 27  2  0  0  0
 10 11  2  0  0  0
 10 15  1  0  0  0
 11 12  1  0  0  0
 11 95  1  0  0  0
 12 13  2  0  0  0
 12 96  1  0  0  0
 13 14  1  0  0  0
 13 31  1  0  0  0
 14 15  2  0  0  0
 14 97  1  0  0  0
 15 98  1  0  0  0
 16 17  2  0  0  0
 16 21  1  0  0  0
 16 31  1  0  0  0
 17 18  1  0  0  0
 17 99  1  0  0  0
 18 19  2  0  0  0
 18100  1  0  0  0
 19 20  1  0  0  0
 19 24  1  0  0  0
 20 21  2  0  0  0
 20101  1  0  0  0
 21 23  1  0  0  0
 22 28  1  0  0  0
 22 32  2  0  0  0
 26 27  1  0  0  0
 28102  1  0  0  0
 28103  1  0  0  0
 29104  1  0  0  0
 29105  1  0  0  0
 33 34  1  0  0  0
 33 66  1  0  0  0
 33 70  2  0  0  0
 34 36  1  0  0  0
 34 59  1  0  0  0
 34106  1  0  0  0
 35 44  2  0  0  0
 35 45  1  0  0  0
 35 68  1  0  0  0
 36 56  1  0  0  0
 36107  1  0  0  0
 37 39  1  0  0  0
 37 47  1  0  0  0
 37 66  1  0  0  0
 37108  1  0  0  0
 38 43  2  0  0  0
 38 46  1  0  0  0
 38 47  1  0  0  0
 39 64  1  0  0  0
 39 67  2  0  0  0
 40 52  1  0  0  0
 40 53  2  0  0  0
 40 58  1  0  0  0
 41109  1  0  0  0
 41110  1  0  0  0
 41111  1  0  0  0
 41 48  1  0  0  0
 42 43  1  0  0  0
 42 66  1  0  0  0
 42112  1  0  0  0
 42113  1  0  0  0
 43 44  1  0  0  0
 44114  1  0  0  0
 45 46  2  0  0  0
 45115  1  0  0  0
 46116  1  0  0  0
 47117  1  0  0  0
 47118  1  0  0  0
 48 56  1  0  0  0
 48 65  1  0  0  0
 48119  1  0  0  0
 49 50  1  0  0  0
 49 53  1  0  0  0
 49 64  1  0  0  0
 49120  1  0  0  0
 50 51  1  0  0  0
 50121  1  0  0  0
 50122  1  0  0  0
 51 52  1  0  0  0
 51123  1  0  0  0
 51124  1  0  0  0
 52125  1  0  0  0
 52126  1  0  0  0
 53 54  1  0  0  0
 54 55  2  0  0  0
 54127  1  0  0  0
 55 57  1  0  0  0
 55128  1  0  0  0
 56 69  2  0  0  0
 57 58  2  0  0  0
 57129  1  0  0  0
 58130  1  0  0  0
 59 60  1  0  0  0
 59 61  1  0  0  0
 59 62  1  0  0  0
 60131  1  0  0  0
 60132  1  0  0  0
 60133  1  0  0  0
 61134  1  0  0  0
 61135  1  0  0  0
 61136  1  0  0  0
 62137  1  0  0  0
 62138  1  0  0  0
 62139  1  0  0  0
 63 65  1  0  0  0
 63140  1  0  0  0
 63141  1  0  0  0
 63142  1  0  0  0
 64143  1  0  0  0
 65144  1  0  0  0
 68 77  1  0  0  0
 71 72  2  0  0  0
 71 78  1  0  0  0
 71 79  1  0  0  0
 72 80  1  0  0  0
 72 85  1  0  0  0
 73 79  2  0  0  0
 73 81  1  0  0  0
 73 85  1  0  0  0
 74 75  1  0  0  0
 74 77  1  0  0  0
 74 83  2  0  0  0
 75 82  1  0  0  0
 75 84  2  0  0  0
 76145  1  0  0  0
 76146  1  0  0  0
 76147  1  0  0  0
 76 78  1  0  0  0
 77148  1  0  0  0
 77149  1  0  0  0
 78 82  1  0  0  0
 78150  1  0  0  0
 80151  1  0  0  0
 80152  1  0  0  0
 81153  1  0  0  0
 82154  1  0  0  0
M  ISO  4   1 100  68 101  77 101  81 100
M  END
> <chiral flag>
0

> <version>
0

> <s_m_source_file>
/data/baiqing/PycharmProjects/Reinvent-master-3.2/result/LINK_invent/BTK/process_docking_weight1_custom_product_contain_oxygen_bond_distance_aromatic_linkinvent_7_9_3/rearranged_h_0179.sdf

> <i_m_source_file_index>
46

> <r_mmod_Potential_Energy-OPLS-2005>
-27.9691982269287

> <r_mmod_Stretch_Energy-OPLS-2005>
57.1374549865723

> <r_mmod_Bend_Energy-OPLS-2005>
119.121925354004

> <r_mmod_Torsional_Energy-OPLS-2005>
214.557479858398

> <r_mmod_Improper_Torsional_Energy-OPLS-2005>
9.50502777099609

> <r_mmod_Van_der_Waal_Energy-OPLS-2005>
129.859436035156

> <r_mmod_Electrostatic_Energy-OPLS-2005>
-328.438110351562

> <r_mmod_Solvation_Energy-OPLS-2005>
-255.223114013672

> <b_mmod_Minimization_Converged-OPLS-2005>
0

> <r_mmod_RMS_Derivative-OPLS-2005>
2.52134442329407

$$$$
46
                    3D
 Structure written by MMmdl.
153161  0  0  1  0            999 V2000
  -30.5132  -15.0135   20.4019 C   0  0  0  0  0  0
  -30.4403  -12.6305   19.4914 C   0  0  0  0  0  0
  -29.5231  -12.5515   18.2483 C   0  0  0  0  0  0
  -28.0578  -12.3287   18.6697 C   0  0  0  0  0  0
  -27.6290  -13.2560   19.8376 C   0  0  2  0  0  0
  -28.6753  -13.3022   20.9710 C   0  0  0  0  0  0
  -25.2475  -13.8233   20.5710 C   0  0  0  0  0  0
  -24.1820  -13.0438   20.9233 C   0  0  0  0  0  0
  -24.6450  -11.6921   20.8783 C   0  0  0  0  0  0
  -23.9146  -10.4287   21.0431 C   0  0  0  0  0  0
  -24.3678   -9.4194   21.9205 C   0  0  0  0  0  0
  -23.6323   -8.2242   22.0778 C   0  0  0  0  0  0
  -22.4290   -8.0307   21.3573 C   0  0  0  0  0  0
  -21.9961   -9.0293   20.4678 C   0  0  0  0  0  0
  -22.7319  -10.2152   20.3083 C   0  0  0  0  0  0
  -21.6862   -6.0763   22.5292 C   0  0  0  0  0  0
  -21.4021   -6.5663   23.8230 C   0  0  0  0  0  0
  -21.3658   -5.6813   24.9186 C   0  0  0  0  0  0
  -21.6035   -4.3072   24.7230 C   0  0  0  0  0  0
  -21.8817   -3.8169   23.4356 C   0  0  0  0  0  0
  -21.9200   -4.6994   22.3411 C   0  0  0  0  0  0
  -22.7832  -13.5199   21.1864 C   0  0  0  0  0  0
  -22.1655   -4.2185   21.0987 F   0  0  0  0  0  0
  -21.5634   -3.4550   25.7738 F   0  0  0  0  0  0
  -29.9378  -13.7381   20.3611 N   0  0  0  0  0  0
  -26.2911  -12.9472   20.3267 N   0  0  0  0  0  0
  -25.9383  -11.6592   20.5755 N   0  0  0  0  0  0
  -22.0476  -12.8194   22.0416 N   0  0  0  0  0  0
  -25.4100  -15.1965   20.4089 N   0  0  0  0  0  0
  -31.7256  -15.0676   20.1562 O   0  0  0  0  0  0
  -21.6645   -6.8907   21.4258 O   0  0  0  0  0  0
  -22.3501  -14.5506   20.6702 O   0  0  0  0  0  0
  -24.6470  -31.8398   23.1860 C   0  0  0  0  0  0
  -25.9227  -32.4682   23.8268 C   0  0  1  0  0  0
  -27.2114  -27.0879   20.1738 C   0  0  0  0  0  0
  -25.5961  -33.8489   24.2206 N   0  0  0  0  0  0
  -23.4539  -30.4571   21.5304 C   0  0  2  0  0  0
  -24.9053  -28.8722   20.1160 C   0  0  0  0  0  0
  -22.7585  -29.4529   22.4833 C   0  0  0  0  0  0
  -18.0312  -28.1396   22.8491 C   0  0  0  0  0  0
  -24.1488  -36.7216   23.2642 C   0  0  0  0  0  0
  -26.0119  -30.7000   21.3912 C   0  0  0  0  0  0
  -26.0834  -29.3042   20.7383 C   0  0  0  0  0  0
  -27.2410  -28.4315   20.7418 C   0  0  0  0  0  0
  -26.0087  -26.7644   19.5125 C   0  0  0  0  0  0
  -24.8845  -27.6199   19.4840 C   0  0  0  0  0  0
  -23.6856  -29.7810   20.1521 C   0  0  0  0  0  0
  -25.4122  -36.3023   24.0327 C   0  0  1  0  0  0
  -20.5925  -28.3728   23.1217 C   0  0  2  0  0  0
  -20.6791  -26.9419   22.5402 C   0  0  0  0  0  0
  -19.5767  -26.6386   21.5213 C   0  0  0  0  0  0
  -18.1948  -26.7942   22.1625 C   0  0  0  0  0  0
  -19.1566  -28.8886   23.2853 C   0  0  0  0  0  0
  -18.9479  -30.1479   23.8883 C   0  0  0  0  0  0
  -17.6473  -30.6593   24.0558 C   0  0  0  0  0  0
  -25.9081  -34.9398   23.5086 C   0  0  0  0  0  0
  -16.5366  -29.9081   23.6332 C   0  0  0  0  0  0
  -16.7291  -28.6490   23.0372 C   0  0  0  0  0  0
  -26.4569  -31.6543   25.0702 C   0  0  0  0  0  0
  -25.3749  -31.3672   26.1371 C   0  0  0  0  0  0
  -27.0453  -30.2956   24.6269 C   0  0  0  0  0  0
  -27.6118  -32.4300   25.7469 C   0  0  0  0  0  0
  -27.5581  -37.1753   24.8468 C   0  0  0  0  0  0
  -21.4271  -29.3042   22.3570 N   0  0  0  0  0  0
  -26.4284  -37.3742   23.9421 N   0  0  0  0  0  0
  -24.7240  -31.0212   22.0914 N   0  0  0  0  0  0
  -23.4205  -28.8085   23.3013 O   0  0  0  0  0  0
  -28.2611  -26.0890   20.1943 O   0  0  0  0  0  0
  -26.5656  -34.8899   22.4658 O   0  0  0  0  0  0
  -23.5577  -32.1294   23.7051 O   0  0  0  0  0  0
  -29.5071  -20.2324   20.3989 C   0  0  0  0  0  0
  -30.9010  -20.1156   20.4408 C   0  0  0  0  0  0
  -29.9481  -17.7243   20.4275 C   0  0  0  0  0  0
  -28.6445  -21.5977   20.5671 C   0  0  0  0  0  0
  -30.8629  -22.9555   18.3011 C   0  0  0  0  0  0
  -30.2573  -23.5795   19.5793 C   0  0  0  0  0  0
  -28.0310  -24.5580   20.5284 C   0  0  0  0  0  0
  -28.8016  -23.1587   19.8954 C   0  0  2  0  0  0
  -29.0326  -18.8039   20.4460 N   0  0  0  0  0  0
  -31.8881  -21.0870   20.5803 N   0  0  0  0  0  0
  -29.7018  -16.1962   20.5070 N   0  0  0  0  0  0
  -27.6162  -21.5066   21.2490 O   0  0  0  0  0  0
  -28.1944  -23.0929   18.7050 F   0  0  0  0  0  0
  -31.5424  -18.4497   20.3503 S   0  0  0  0  0  0
  -31.4760  -12.7904   19.1849 H   0  0  0  0  0  0
  -30.4321  -11.6803   20.0278 H   0  0  0  0  0  0
  -29.8478  -11.7491   17.5849 H   0  0  0  0  0  0
  -29.6059  -13.4746   17.6721 H   0  0  0  0  0  0
  -27.9581  -11.2853   18.9700 H   0  0  0  0  0  0
  -27.3947  -12.4653   17.8145 H   0  0  0  0  0  0
  -27.5814  -14.2554   19.4046 H   0  0  0  0  0  0
  -28.7819  -12.3282   21.4486 H   0  0  0  0  0  0
  -28.3707  -13.9987   21.7525 H   0  0  0  0  0  0
  -25.2838   -9.5653   22.4773 H   0  0  0  0  0  0
  -24.0046   -7.4632   22.7491 H   0  0  0  0  0  0
  -21.0911   -8.8833   19.8962 H   0  0  0  0  0  0
  -22.3827  -10.9698   19.6181 H   0  0  0  0  0  0
  -21.1996   -7.6166   23.9746 H   0  0  0  0  0  0
  -21.1480   -6.0535   25.9094 H   0  0  0  0  0  0
  -22.0591   -2.7635   23.2846 H   0  0  0  0  0  0
  -22.4094  -11.9865   22.4828 H   0  0  0  0  0  0
  -21.1086  -13.1219   22.2585 H   0  0  0  0  0  0
  -24.6269  -15.8366   20.4961 H   0  0  0  0  0  0
  -26.2424  -15.6429   20.0485 H   0  0  0  0  0  0
  -26.7271  -32.5289   23.0973 H   0  0  0  0  0  0
  -25.0095  -33.9608   25.0346 H   0  0  0  0  0  0
  -22.7612  -31.2855   21.3719 H   0  0  0  0  0  0
  -23.3812  -35.9490   23.3281 H   0  0  0  0  0  0
  -24.3552  -36.8870   22.2060 H   0  0  0  0  0  0
  -23.7193  -37.6380   23.6691 H   0  0  0  0  0  0
  -26.1696  -31.4528   20.6172 H   0  0  0  0  0  0
  -26.8816  -30.7540   22.0346 H   0  0  0  0  0  0
  -28.1441  -28.7627   21.2350 H   0  0  0  0  0  0
  -25.9189  -25.8070   19.0193 H   0  0  0  0  0  0
  -23.9875  -27.2920   18.9787 H   0  0  0  0  0  0
  -23.8327  -30.5544   19.3976 H   0  0  0  0  0  0
  -22.8015  -29.2244   19.8354 H   0  0  0  0  0  0
  -25.1315  -36.1850   25.0824 H   0  0  0  0  0  0
  -21.0038  -28.3330   24.1331 H   0  0  0  0  0  0
  -20.5681  -26.2331   23.3621 H   0  0  0  0  0  0
  -21.6652  -26.7404   22.1203 H   0  0  0  0  0  0
  -19.6916  -25.6295   21.1247 H   0  0  0  0  0  0
  -19.6725  -27.3195   20.6747 H   0  0  0  0  0  0
  -17.4218  -26.6722   21.4020 H   0  0  0  0  0  0
  -18.0341  -26.0066   22.9006 H   0  0  0  0  0  0
  -19.7946  -30.7308   24.2258 H   0  0  0  0  0  0
  -17.5009  -31.6271   24.5163 H   0  0  0  0  0  0
  -15.5362  -30.2972   23.7654 H   0  0  0  0  0  0
  -15.8701  -28.0787   22.7114 H   0  0  0  0  0  0
  -24.5982  -30.6988   25.7632 H   0  0  0  0  0  0
  -24.8888  -32.2821   26.4759 H   0  0  0  0  0  0
  -25.8023  -30.8845   27.0168 H   0  0  0  0  0  0
  -26.3066  -29.6648   24.1309 H   0  0  0  0  0  0
  -27.4130  -29.7266   25.4818 H   0  0  0  0  0  0
  -27.8953  -30.4236   23.9565 H   0  0  0  0  0  0
  -27.2770  -33.3644   26.1979 H   0  0  0  0  0  0
  -28.3956  -32.6770   25.0297 H   0  0  0  0  0  0
  -28.0766  -31.8458   26.5420 H   0  0  0  0  0  0
  -28.2575  -38.0073   24.7548 H   0  0  0  0  0  0
  -28.1106  -36.2602   24.6278 H   0  0  0  0  0  0
  -27.2269  -37.1361   25.8859 H   0  0  0  0  0  0
  -20.9489  -29.8728   21.6720 H   0  0  0  0  0  0
  -26.0163  -38.2801   24.1481 H   0  0  0  0  0  0
  -31.9226  -23.1961   18.2094 H   0  0  0  0  0  0
  -30.3710  -23.3403   17.4069 H   0  0  0  0  0  0
  -30.7545  -21.8732   18.2692 H   0  0  0  0  0  0
  -30.2921  -24.6595   19.4366 H   0  0  0  0  0  0
  -30.8796  -23.4191   20.4582 H   0  0  0  0  0  0
  -28.2236  -24.5181   21.6002 H   0  0  0  0  0  0
  -26.9597  -24.3677   20.4717 H   0  0  0  0  0  0
  -31.7690  -22.0245   20.2075 H   0  0  0  0  0  0
  -32.8666  -20.8132   20.5674 H   0  0  0  0  0  0
  -28.7341  -15.9646   20.6530 H   0  0  0  0  0  0
  1 25  1  0  0  0
  1 30  2  0  0  0
  1 81  1  0  0  0
  2  3  1  0  0  0
  2 25  1  0  0  0
  2 85  1  0  0  0
  2 86  1  0  0  0
  3  4  1  0  0  0
  3 87  1  0  0  0
  3 88  1  0  0  0
  4  5  1  0  0  0
  4 89  1  0  0  0
  4 90  1  0  0  0
  5  6  1  0  0  0
  5 26  1  0  0  0
  5 91  1  0  0  0
  6 25  1  0  0  0
  6 92  1  0  0  0
  6 93  1  0  0  0
  7  8  2  0  0  0
  7 26  1  0  0  0
  7 29  1  0  0  0
  8  9  1  0  0  0
  8 22  1  0  0  0
  9 10  1  0  0  0
  9 27  2  0  0  0
 10 11  2  0  0  0
 10 15  1  0  0  0
 11 12  1  0  0  0
 11 94  1  0  0  0
 12 13  2  0  0  0
 12 95  1  0  0  0
 13 14  1  0  0  0
 13 31  1  0  0  0
 14 15  2  0  0  0
 14 96  1  0  0  0
 15 97  1  0  0  0
 16 17  2  0  0  0
 16 21  1  0  0  0
 16 31  1  0  0  0
 17 18  1  0  0  0
 17 98  1  0  0  0
 18 19  2  0  0  0
 18 99  1  0  0  0
 19 20  1  0  0  0
 19 24  1  0  0  0
 20 21  2  0  0  0
 20100  1  0  0  0
 21 23  1  0  0  0
 22 28  1  0  0  0
 22 32  2  0  0  0
 26 27  1  0  0  0
 28101  1  0  0  0
 28102  1  0  0  0
 29103  1  0  0  0
 29104  1  0  0  0
 33 34  1  0  0  0
 33 66  1  0  0  0
 33 70  2  0  0  0
 34 36  1  0  0  0
 34 59  1  0  0  0
 34105  1  0  0  0
 35 44  2  0  0  0
 35 45  1  0  0  0
 35 68  1  0  0  0
 36 56  1  0  0  0
 36106  1  0  0  0
 37 39  1  0  0  0
 37 47  1  0  0  0
 37 66  1  0  0  0
 37107  1  0  0  0
 38 43  2  0  0  0
 38 46  1  0  0  0
 38 47  1  0  0  0
 39 64  1  0  0  0
 39 67  2  0  0  0
 40 52  1  0  0  0
 40 53  2  0  0  0
 40 58  1  0  0  0
 41108  1  0  0  0
 41109  1  0  0  0
 41110  1  0  0  0
 41 48  1  0  0  0
 42 43  1  0  0  0
 42 66  1  0  0  0
 42111  1  0  0  0
 42112  1  0  0  0
 43 44  1  0  0  0
 44113  1  0  0  0
 45 46  2  0  0  0
 45114  1  0  0  0
 46115  1  0  0  0
 47116  1  0  0  0
 47117  1  0  0  0
 48 56  1  0  0  0
 48 65  1  0  0  0
 48118  1  0  0  0
 49 50  1  0  0  0
 49 53  1  0  0  0
 49 64  1  0  0  0
 49119  1  0  0  0
 50 51  1  0  0  0
 50120  1  0  0  0
 50121  1  0  0  0
 51 52  1  0  0  0
 51122  1  0  0  0
 51123  1  0  0  0
 52124  1  0  0  0
 52125  1  0  0  0
 53 54  1  0  0  0
 54 55  2  0  0  0
 54126  1  0  0  0
 55 57  1  0  0  0
 55127  1  0  0  0
 56 69  2  0  0  0
 57 58  2  0  0  0
 57128  1  0  0  0
 58129  1  0  0  0
 59 60  1  0  0  0
 59 61  1  0  0  0
 59 62  1  0  0  0
 60130  1  0  0  0
 60131  1  0  0  0
 60132  1  0  0  0
 61133  1  0  0  0
 61134  1  0  0  0
 61135  1  0  0  0
 62136  1  0  0  0
 62137  1  0  0  0
 62138  1  0  0  0
 63 65  1  0  0  0
 63139  1  0  0  0
 63140  1  0  0  0
 63141  1  0  0  0
 64142  1  0  0  0
 65143  1  0  0  0
 68 77  1  0  0  0
 71 72  2  0  0  0
 71 74  1  0  0  0
 71 79  1  0  0  0
 72 80  1  0  0  0
 72 84  1  0  0  0
 73 79  2  0  0  0
 73 81  1  0  0  0
 73 84  1  0  0  0
 74 78  1  0  0  0
 74 82  2  0  0  0
 75 76  1  0  0  0
 75144  1  0  0  0
 75145  1  0  0  0
 75146  1  0  0  0
 76 78  1  0  0  0
 76147  1  0  0  0
 76148  1  0  0  0
 77 78  1  0  0  0
 77149  1  0  0  0
 77150  1  0  0  0
 78 83  1  0  0  0
 80151  1  0  0  0
 80152  1  0  0  0
 81153  1  0  0  0
M  ISO  4   1 100  68 101  77 101  81 100
M  END
> <chiral flag>
0

> <version>
0

> <s_m_source_file>
/data/baiqing/PycharmProjects/Reinvent-master-3.2/result/LINK_invent/BTK/process_docking_weight1_custom_product_contain_oxygen_bond_distance_aromatic_linkinvent_7_9_3/rearranged_h_0179.sdf

> <i_m_source_file_index>
47

> <r_mmod_Potential_Energy-OPLS-2005>
828.008056640625

> <r_mmod_Stretch_Energy-OPLS-2005>
333.811676025391

> <r_mmod_Bend_Energy-OPLS-2005>
303.738159179688

> <r_mmod_Torsional_Energy-OPLS-2005>
258.909149169922

> <r_mmod_Improper_Torsional_Energy-OPLS-2005>
9.11244297027588

> <r_mmod_Van_der_Waal_Energy-OPLS-2005>
112.992294311523

> <r_mmod_Electrostatic_Energy-OPLS-2005>
-201.092300415039

> <r_mmod_Solvation_Energy-OPLS-2005>
-224.64762878418

> <b_mmod_Minimization_Converged-OPLS-2005>
0

> <r_mmod_RMS_Derivative-OPLS-2005>
2.89770650863647

$$$$
47
                    3D
 Structure written by MMmdl.
151159  0  0  1  0            999 V2000
  -30.6711  -14.5017   20.5721 C   0  0  0  0  0  0
  -30.4335  -12.3221   19.4247 C   0  0  0  0  0  0
  -29.4994  -12.5088   18.2093 C   0  0  0  0  0  0
  -28.0200  -12.3635   18.6208 C   0  0  0  0  0  0
  -27.6640  -13.2023   19.8768 C   0  0  2  0  0  0
  -28.7051  -12.9740   20.9962 C   0  0  0  0  0  0
  -25.2607  -13.8150   20.5674 C   0  0  0  0  0  0
  -24.1850  -13.0435   20.9170 C   0  0  0  0  0  0
  -24.6395  -11.6899   20.8734 C   0  0  0  0  0  0
  -23.9056  -10.4290   21.0407 C   0  0  0  0  0  0
  -24.3612   -9.4207   21.9184 C   0  0  0  0  0  0
  -23.6289   -8.2244   22.0755 C   0  0  0  0  0  0
  -22.4272   -8.0282   21.3546 C   0  0  0  0  0  0
  -21.9905   -9.0254   20.4649 C   0  0  0  0  0  0
  -22.7230  -10.2132   20.3056 C   0  0  0  0  0  0
  -21.6853   -6.0738   22.5280 C   0  0  0  0  0  0
  -21.4013   -6.5642   23.8212 C   0  0  0  0  0  0
  -21.3658   -5.6795   24.9176 C   0  0  0  0  0  0
  -21.6044   -4.3057   24.7226 C   0  0  0  0  0  0
  -21.8819   -3.8149   23.4346 C   0  0  0  0  0  0
  -21.9191   -4.6966   22.3403 C   0  0  0  0  0  0
  -22.7873  -13.5240   21.1835 C   0  0  0  0  0  0
  -22.1662   -4.2152   21.0979 F   0  0  0  0  0  0
  -21.5628   -3.4538   25.7737 F   0  0  0  0  0  0
  -30.0367  -13.2998   20.4516 N   0  0  0  0  0  0
  -26.3036  -12.9308   20.3362 N   0  0  0  0  0  0
  -25.9320  -11.6473   20.5764 N   0  0  0  0  0  0
  -22.0511  -12.8239   22.0393 N   0  0  0  0  0  0
  -25.4348  -15.1866   20.4081 N   0  0  0  0  0  0
  -31.7909  -14.7076   20.0908 O   0  0  0  0  0  0
  -21.6637   -6.8880   21.4241 O   0  0  0  0  0  0
  -22.3566  -14.5552   20.6690 O   0  0  0  0  0  0
  -24.6155  -31.8670   23.2083 C   0  0  0  0  0  0
  -25.9037  -32.4818   23.8390 C   0  0  1  0  0  0
  -27.2341  -27.4218   20.1048 C   0  0  0  0  0  0
  -25.5888  -33.8620   24.2327 N   0  0  0  0  0  0
  -23.4054  -30.4893   21.5486 C   0  0  2  0  0  0
  -24.8545  -28.9541   20.1132 C   0  0  0  0  0  0
  -22.7418  -29.4648   22.4980 C   0  0  0  0  0  0
  -18.0276  -28.1376   22.8495 C   0  0  0  0  0  0
  -24.1486  -36.7315   23.2639 C   0  0  0  0  0  0
  -25.9353  -30.8292   21.3631 C   0  0  0  0  0  0
  -26.0158  -29.4627   20.7106 C   0  0  0  0  0  0
  -27.2121  -28.7055   20.7009 C   0  0  0  0  0  0
  -26.0602  -26.9325   19.4957 C   0  0  0  0  0  0
  -24.8723  -27.6884   19.5004 C   0  0  0  0  0  0
  -23.6157  -29.8211   20.1635 C   0  0  0  0  0  0
  -25.4106  -36.3112   24.0340 C   0  0  1  0  0  0
  -20.5869  -28.3661   23.1320 C   0  0  2  0  0  0
  -20.6771  -26.9400   22.5415 C   0  0  0  0  0  0
  -19.5746  -26.6384   21.5215 C   0  0  0  0  0  0
  -18.1923  -26.7925   22.1623 C   0  0  0  0  0  0
  -19.1526  -28.8834   23.2908 C   0  0  0  0  0  0
  -18.9455  -30.1445   23.8909 C   0  0  0  0  0  0
  -17.6458  -30.6586   24.0564 C   0  0  0  0  0  0
  -25.9026  -34.9475   23.5130 C   0  0  0  0  0  0
  -16.5349  -29.9088   23.6326 C   0  0  0  0  0  0
  -16.7263  -28.6504   23.0346 C   0  0  0  0  0  0
  -26.4464  -31.6594   25.0714 C   0  0  0  0  0  0
  -25.3732  -31.3699   26.1463 C   0  0  0  0  0  0
  -27.0294  -30.3037   24.6080 C   0  0  0  0  0  0
  -27.6040  -32.4310   25.7479 C   0  0  0  0  0  0
  -27.5580  -37.1815   24.8468 C   0  0  0  0  0  0
  -21.4145  -29.3029   22.3724 N   0  0  0  0  0  0
  -26.4296  -37.3796   23.9407 N   0  0  0  0  0  0
  -24.6705  -31.0760   22.0987 N   0  0  0  0  0  0
  -23.4185  -28.8190   23.3025 O   0  0  0  0  0  0
  -28.3665  -26.6319   20.1145 O   0  0  0  0  0  0
  -26.5600  -34.8928   22.4699 O   0  0  0  0  0  0
  -23.5345  -32.1424   23.7465 O   0  0  0  0  0  0
  -30.6329  -18.9939   20.4868 C   0  0  0  0  0  0
  -29.5558  -19.3393   21.2762 C   0  0  0  0  0  0
  -29.9811  -16.8833   21.0982 C   0  0  0  0  0  0
  -29.2557  -21.9447   20.8384 C   0  0  0  0  0  0
  -28.9675  -24.2165   20.4030 C   0  0  0  0  0  0
  -28.8756  -25.8803   22.3473 C   0  0  0  0  0  0
  -29.0251  -20.6977   21.7077 C   0  0  0  0  0  0
  -28.2740  -25.4812   20.9889 C   0  0  1  0  0  0
  -30.8617  -17.6053   20.3898 N   0  0  0  0  0  0
  -28.7384  -23.0725   21.1724 N   0  0  0  0  0  0
  -29.9397  -15.4566   21.1857 N   0  0  0  0  0  0
  -29.6293  -24.3042   19.3658 O   0  0  0  0  0  0
  -28.7888  -17.8934   21.9129 S   0  0  0  0  0  0
  -31.4761  -12.4364   19.1225 H   0  0  0  0  0  0
  -30.3496  -11.3089   19.8205 H   0  0  0  0  0  0
  -29.7423  -11.7824   17.4325 H   0  0  0  0  0  0
  -29.6619  -13.4933   17.7679 H   0  0  0  0  0  0
  -27.8338  -11.3069   18.8180 H   0  0  0  0  0  0
  -27.3687  -12.6355   17.7893 H   0  0  0  0  0  0
  -27.7101  -14.2507   19.5816 H   0  0  0  0  0  0
  -28.6891  -11.9319   21.3188 H   0  0  0  0  0  0
  -28.4548  -13.5503   21.8877 H   0  0  0  0  0  0
  -25.2760   -9.5683   22.4754 H   0  0  0  0  0  0
  -23.9999   -7.4636   22.7475 H   0  0  0  0  0  0
  -21.0836   -8.8772   19.8955 H   0  0  0  0  0  0
  -22.3693  -10.9671   19.6164 H   0  0  0  0  0  0
  -21.2007   -7.6151   23.9718 H   0  0  0  0  0  0
  -21.1479   -6.0525   25.9078 H   0  0  0  0  0  0
  -22.0600   -2.7612   23.2845 H   0  0  0  0  0  0
  -22.4119  -11.9892   22.4775 H   0  0  0  0  0  0
  -21.1135  -13.1281   22.2606 H   0  0  0  0  0  0
  -24.6671  -15.8418   20.5097 H   0  0  0  0  0  0
  -26.2838  -15.6224   20.0711 H   0  0  0  0  0  0
  -26.7108  -32.5531   23.1155 H   0  0  0  0  0  0
  -25.0043  -33.9788   25.0472 H   0  0  0  0  0  0
  -22.6945  -31.3065   21.4081 H   0  0  0  0  0  0
  -23.3748  -35.9651   23.3317 H   0  0  0  0  0  0
  -24.3578  -36.8908   22.2050 H   0  0  0  0  0  0
  -23.7243  -37.6527   23.6641 H   0  0  0  0  0  0
  -26.0480  -31.5936   20.5932 H   0  0  0  0  0  0
  -26.8237  -30.8859   21.9805 H   0  0  0  0  0  0
  -28.1076  -29.0902   21.1687 H   0  0  0  0  0  0
  -26.0637  -25.9587   19.0262 H   0  0  0  0  0  0
  -23.9804  -27.2903   19.0352 H   0  0  0  0  0  0
  -23.7237  -30.5959   19.4038 H   0  0  0  0  0  0
  -22.7404  -29.2403   19.8671 H   0  0  0  0  0  0
  -25.1289  -36.1977   25.0837 H   0  0  0  0  0  0
  -20.9964  -28.3217   24.1439 H   0  0  0  0  0  0
  -20.5674  -26.2267   23.3600 H   0  0  0  0  0  0
  -21.6644  -26.7446   22.1209 H   0  0  0  0  0  0
  -19.6909  -25.6299   21.1231 H   0  0  0  0  0  0
  -19.6684  -27.3212   20.6759 H   0  0  0  0  0  0
  -17.4199  -26.6676   21.4021 H   0  0  0  0  0  0
  -18.0321  -26.0069   22.9019 H   0  0  0  0  0  0
  -19.7931  -30.7262   24.2280 H   0  0  0  0  0  0
  -17.5011  -31.6266   24.5167 H   0  0  0  0  0  0
  -15.5350  -30.2992   23.7644 H   0  0  0  0  0  0
  -15.8664  -28.0827   22.7050 H   0  0  0  0  0  0
  -24.5910  -30.7039   25.7800 H   0  0  0  0  0  0
  -24.8924  -32.2859   26.4911 H   0  0  0  0  0  0
  -25.8089  -30.8874   27.0220 H   0  0  0  0  0  0
  -26.2837  -29.6803   24.1132 H   0  0  0  0  0  0
  -27.4072  -29.7256   25.4521 H   0  0  0  0  0  0
  -27.8668  -30.4367   23.9226 H   0  0  0  0  0  0
  -27.2664  -33.3603   26.2084 H   0  0  0  0  0  0
  -28.3843  -32.6874   25.0300 H   0  0  0  0  0  0
  -28.0721  -31.8415   26.5375 H   0  0  0  0  0  0
  -28.2616  -38.0095   24.7510 H   0  0  0  0  0  0
  -28.1060  -36.2629   24.6309 H   0  0  0  0  0  0
  -27.2303  -37.1487   25.8873 H   0  0  0  0  0  0
  -20.9299  -29.8744   21.6949 H   0  0  0  0  0  0
  -26.0184  -38.2878   24.1397 H   0  0  0  0  0  0
  -31.3079  -19.6676   19.9767 H   0  0  0  0  0  0
  -29.8802  -21.7948   19.9521 H   0  0  0  0  0  0
  -28.8420  -25.0555   23.0596 H   0  0  0  0  0  0
  -28.3249  -26.7098   22.7894 H   0  0  0  0  0  0
  -29.9154  -26.1898   22.2416 H   0  0  0  0  0  0
  -29.4314  -20.9170   22.6957 H   0  0  0  0  0  0
  -27.9487  -20.6114   21.8585 H   0  0  0  0  0  0
  -27.2307  -25.2032   21.1521 H   0  0  0  0  0  0
  -29.1151  -15.0968   21.6396 H   0  0  0  0  0  0
  1 25  1  0  0  0
  1 30  2  0  0  0
  1 81  1  0  0  0
  2  3  1  0  0  0
  2 25  1  0  0  0
  2 84  1  0  0  0
  2 85  1  0  0  0
  3  4  1  0  0  0
  3 86  1  0  0  0
  3 87  1  0  0  0
  4  5  1  0  0  0
  4 88  1  0  0  0
  4 89  1  0  0  0
  5  6  1  0  0  0
  5 26  1  0  0  0
  5 90  1  0  0  0
  6 25  1  0  0  0
  6 91  1  0  0  0
  6 92  1  0  0  0
  7  8  2  0  0  0
  7 26  1  0  0  0
  7 29  1  0  0  0
  8  9  1  0  0  0
  8 22  1  0  0  0
  9 10  1  0  0  0
  9 27  2  0  0  0
 10 11  2  0  0  0
 10 15  1  0  0  0
 11 12  1  0  0  0
 11 93  1  0  0  0
 12 13  2  0  0  0
 12 94  1  0  0  0
 13 14  1  0  0  0
 13 31  1  0  0  0
 14 15  2  0  0  0
 14 95  1  0  0  0
 15 96  1  0  0  0
 16 17  2  0  0  0
 16 21  1  0  0  0
 16 31  1  0  0  0
 17 18  1  0  0  0
 17 97  1  0  0  0
 18 19  2  0  0  0
 18 98  1  0  0  0
 19 20  1  0  0  0
 19 24  1  0  0  0
 20 21  2  0  0  0
 20 99  1  0  0  0
 21 23  1  0  0  0
 22 28  1  0  0  0
 22 32  2  0  0  0
 26 27  1  0  0  0
 28100  1  0  0  0
 28101  1  0  0  0
 29102  1  0  0  0
 29103  1  0  0  0
 33 34  1  0  0  0
 33 66  1  0  0  0
 33 70  2  0  0  0
 34 36  1  0  0  0
 34 59  1  0  0  0
 34104  1  0  0  0
 35 44  2  0  0  0
 35 45  1  0  0  0
 35 68  1  0  0  0
 36 56  1  0  0  0
 36105  1  0  0  0
 37 39  1  0  0  0
 37 47  1  0  0  0
 37 66  1  0  0  0
 37106  1  0  0  0
 38 43  2  0  0  0
 38 46  1  0  0  0
 38 47  1  0  0  0
 39 64  1  0  0  0
 39 67  2  0  0  0
 40 52  1  0  0  0
 40 53  2  0  0  0
 40 58  1  0  0  0
 41107  1  0  0  0
 41108  1  0  0  0
 41109  1  0  0  0
 41 48  1  0  0  0
 42 43  1  0  0  0
 42 66  1  0  0  0
 42110  1  0  0  0
 42111  1  0  0  0
 43 44  1  0  0  0
 44112  1  0  0  0
 45 46  2  0  0  0
 45113  1  0  0  0
 46114  1  0  0  0
 47115  1  0  0  0
 47116  1  0  0  0
 48 56  1  0  0  0
 48 65  1  0  0  0
 48117  1  0  0  0
 49 50  1  0  0  0
 49 53  1  0  0  0
 49 64  1  0  0  0
 49118  1  0  0  0
 50 51  1  0  0  0
 50119  1  0  0  0
 50120  1  0  0  0
 51 52  1  0  0  0
 51121  1  0  0  0
 51122  1  0  0  0
 52123  1  0  0  0
 52124  1  0  0  0
 53 54  1  0  0  0
 54 55  2  0  0  0
 54125  1  0  0  0
 55 57  1  0  0  0
 55126  1  0  0  0
 56 69  2  0  0  0
 57 58  2  0  0  0
 57127  1  0  0  0
 58128  1  0  0  0
 59 60  1  0  0  0
 59 61  1  0  0  0
 59 62  1  0  0  0
 60129  1  0  0  0
 60130  1  0  0  0
 60131  1  0  0  0
 61132  1  0  0  0
 61133  1  0  0  0
 61134  1  0  0  0
 62135  1  0  0  0
 62136  1  0  0  0
 62137  1  0  0  0
 63 65  1  0  0  0
 63138  1  0  0  0
 63139  1  0  0  0
 63140  1  0  0  0
 64141  1  0  0  0
 65142  1  0  0  0
 68 78  1  0  0  0
 71 72  2  0  0  0
 71 79  1  0  0  0
 71143  1  0  0  0
 72 77  1  0  0  0
 72 83  1  0  0  0
 73 79  2  0  0  0
 73 81  1  0  0  0
 73 83  1  0  0  0
 74 77  1  0  0  0
 74 80  2  0  0  0
 74144  1  0  0  0
 75 78  1  0  0  0
 75 80  1  0  0  0
 75 82  2  0  0  0
 76145  1  0  0  0
 76146  1  0  0  0
 76147  1  0  0  0
 76 78  1  0  0  0
 77148  1  0  0  0
 77149  1  0  0  0
 78150  1  0  0  0
 81151  1  0  0  0
M  ISO  4   1 100  68 101  78 101  81 100
M  END
> <chiral flag>
0

> <version>
0

> <s_m_source_file>
/data/baiqing/PycharmProjects/Reinvent-master-3.2/result/LINK_invent/BTK/process_docking_weight1_custom_product_contain_oxygen_bond_distance_aromatic_linkinvent_7_9_3/rearranged_h_0179.sdf

> <i_m_source_file_index>
48

> <r_mmod_Potential_Energy-OPLS-2005>
-98.5674514770508

> <r_mmod_Stretch_Energy-OPLS-2005>
41.8103904724121

> <r_mmod_Bend_Energy-OPLS-2005>
118.025695800781

> <r_mmod_Torsional_Energy-OPLS-2005>
219.876037597656

> <r_mmod_Improper_Torsional_Energy-OPLS-2005>
3.1200258731842

> <r_mmod_Van_der_Waal_Energy-OPLS-2005>
130.741989135742

> <r_mmod_Electrostatic_Energy-OPLS-2005>
-396.007141113281

> <r_mmod_Solvation_Energy-OPLS-2005>
-231.675827026367

> <b_mmod_Minimization_Converged-OPLS-2005>
0

> <r_mmod_RMS_Derivative-OPLS-2005>
0.841529488563538

$$$$
48
                    3D
 Structure written by MMmdl.
152160  0  0  1  0            999 V2000
  -30.6759  -14.6035   20.4464 C   0  0  0  0  0  0
  -30.4210  -12.3575   19.4563 C   0  0  0  0  0  0
  -29.5022  -12.4898   18.2220 C   0  0  0  0  0  0
  -28.0252  -12.3333   18.6335 C   0  0  0  0  0  0
  -27.6469  -13.2196   19.8498 C   0  0  2  0  0  0
  -28.6933  -13.1080   20.9806 C   0  0  0  0  0  0
  -25.2537  -13.8176   20.5680 C   0  0  0  0  0  0
  -24.1816  -13.0435   20.9207 C   0  0  0  0  0  0
  -24.6397  -11.6912   20.8754 C   0  0  0  0  0  0
  -23.9063  -10.4296   21.0419 C   0  0  0  0  0  0
  -24.3615   -9.4201   21.9190 C   0  0  0  0  0  0
  -23.6287   -8.2237   22.0757 C   0  0  0  0  0  0
  -22.4266   -8.0287   21.3552 C   0  0  0  0  0  0
  -21.9905   -9.0260   20.4652 C   0  0  0  0  0  0
  -22.7244  -10.2133   20.3058 C   0  0  0  0  0  0
  -21.6847   -6.0740   22.5284 C   0  0  0  0  0  0
  -21.4018   -6.5643   23.8221 C   0  0  0  0  0  0
  -21.3650   -5.6790   24.9178 C   0  0  0  0  0  0
  -21.6042   -4.3057   24.7227 C   0  0  0  0  0  0
  -21.8818   -3.8148   23.4347 C   0  0  0  0  0  0
  -21.9185   -4.6966   22.3403 C   0  0  0  0  0  0
  -22.7834  -13.5219   21.1883 C   0  0  0  0  0  0
  -22.1654   -4.2149   21.0982 F   0  0  0  0  0  0
  -21.5618   -3.4542   25.7736 F   0  0  0  0  0  0
  -30.0167  -13.4034   20.4156 N   0  0  0  0  0  0
  -26.2967  -12.9366   20.3285 N   0  0  0  0  0  0
  -25.9320  -11.6519   20.5747 N   0  0  0  0  0  0
  -22.0472  -12.8213   22.0439 N   0  0  0  0  0  0
  -25.4205  -15.1897   20.4077 N   0  0  0  0  0  0
  -31.8747  -14.6589   20.1632 O   0  0  0  0  0  0
  -21.6626   -6.8890   21.4254 O   0  0  0  0  0  0
  -22.3520  -14.5534   20.6746 O   0  0  0  0  0  0
  -24.6204  -31.8635   23.2069 C   0  0  0  0  0  0
  -25.9077  -32.4795   23.8379 C   0  0  1  0  0  0
  -27.2332  -27.3780   20.1055 C   0  0  0  0  0  0
  -25.5920  -33.8595   24.2313 N   0  0  0  0  0  0
  -23.4124  -30.4856   21.5466 C   0  0  2  0  0  0
  -24.8640  -28.9440   20.1156 C   0  0  0  0  0  0
  -22.7434  -29.4638   22.4957 C   0  0  0  0  0  0
  -18.0274  -28.1375   22.8489 C   0  0  0  0  0  0
  -24.1492  -36.7291   23.2638 C   0  0  0  0  0  0
  -25.9480  -30.8104   21.3702 C   0  0  0  0  0  0
  -26.0283  -29.4393   20.7195 C   0  0  0  0  0  0
  -27.2194  -28.6631   20.7153 C   0  0  0  0  0  0
  -26.0549  -26.9163   19.4881 C   0  0  0  0  0  0
  -24.8742  -27.6827   19.4977 C   0  0  0  0  0  0
  -23.6273  -29.8154   20.1632 C   0  0  0  0  0  0
  -25.4111  -36.3084   24.0339 C   0  0  1  0  0  0
  -20.5871  -28.3658   23.1303 C   0  0  2  0  0  0
  -20.6755  -26.9383   22.5414 C   0  0  0  0  0  0
  -19.5740  -26.6376   21.5205 C   0  0  0  0  0  0
  -18.1920  -26.7926   22.1612 C   0  0  0  0  0  0
  -19.1526  -28.8832   23.2898 C   0  0  0  0  0  0
  -18.9454  -30.1446   23.8893 C   0  0  0  0  0  0
  -17.6454  -30.6580   24.0556 C   0  0  0  0  0  0
  -25.9040  -34.9458   23.5114 C   0  0  0  0  0  0
  -16.5343  -29.9075   23.6339 C   0  0  0  0  0  0
  -16.7260  -28.6497   23.0348 C   0  0  0  0  0  0
  -26.4500  -31.6586   25.0717 C   0  0  0  0  0  0
  -25.3764  -31.3720   26.1464 C   0  0  0  0  0  0
  -27.0326  -30.3013   24.6127 C   0  0  0  0  0  0
  -27.6069  -32.4319   25.7486 C   0  0  0  0  0  0
  -27.5587  -37.1791   24.8457 C   0  0  0  0  0  0
  -21.4152  -29.3032   22.3702 N   0  0  0  0  0  0
  -26.4285  -37.3776   23.9425 N   0  0  0  0  0  0
  -24.6784  -31.0687   22.0990 N   0  0  0  0  0  0
  -23.4180  -28.8163   23.3007 O   0  0  0  0  0  0
  -28.3324  -26.5335   20.0683 O   0  0  0  0  0  0
  -26.5585  -34.8916   22.4669 O   0  0  0  0  0  0
  -23.5381  -32.1413   23.7428 O   0  0  0  0  0  0
  -29.0938  -20.4452   19.2523 C   0  0  0  0  0  0
  -29.3720  -19.0395   19.0863 C   0  0  0  0  0  0
  -29.8271  -18.4262   20.2353 C   0  0  0  0  0  0
  -29.3714  -20.9545   20.5018 C   0  0  0  0  0  0
  -30.3982  -17.0851   20.3539 C   0  0  0  0  0  0
  -29.8539  -15.8411   20.5381 C   0  0  0  0  0  0
  -28.6413  -25.8557   21.2332 C   0  0  0  0  0  0
  -28.9252  -24.5311   21.4419 C   0  0  0  0  0  0
  -28.9312  -23.4359   20.4361 C   0  0  0  0  0  0
  -29.2254  -18.3353   17.7690 C   0  0  0  0  0  0
  -29.2609  -22.2354   20.9994 N   0  0  0  0  0  0
  -28.6714  -23.5658   19.2381 O   0  0  0  0  0  0
  -29.2257  -24.1878   22.7087 O   0  0  0  0  0  0
  -29.9702  -19.6296   21.5118 S   0  0  0  0  0  0
  -31.4680  -12.4375   19.1582 H   0  0  0  0  0  0
  -30.3177  -11.3691   19.9066 H   0  0  0  0  0  0
  -29.7639  -11.7384   17.4761 H   0  0  0  0  0  0
  -29.6543  -13.4603   17.7462 H   0  0  0  0  0  0
  -27.8648  -11.2835   18.8805 H   0  0  0  0  0  0
  -27.3687  -12.5489   17.7898 H   0  0  0  0  0  0
  -27.6524  -14.2449   19.4843 H   0  0  0  0  0  0
  -28.6894  -12.1057   21.4095 H   0  0  0  0  0  0
  -28.4551  -13.7868   21.8007 H   0  0  0  0  0  0
  -25.2769   -9.5657   22.4762 H   0  0  0  0  0  0
  -23.9983   -7.4611   22.7460 H   0  0  0  0  0  0
  -21.0839   -8.8786   19.8951 H   0  0  0  0  0  0
  -22.3723  -10.9663   19.6148 H   0  0  0  0  0  0
  -21.2029   -7.6154   23.9737 H   0  0  0  0  0  0
  -21.1465   -6.0515   25.9081 H   0  0  0  0  0  0
  -22.0605   -2.7613   23.2838 H   0  0  0  0  0  0
  -22.4063  -11.9861   22.4825 H   0  0  0  0  0  0
  -21.1096  -13.1259   22.2648 H   0  0  0  0  0  0
  -24.6511  -15.8405   20.5219 H   0  0  0  0  0  0
  -26.2720  -15.6372   20.0935 H   0  0  0  0  0  0
  -26.7135  -32.5498   23.1127 H   0  0  0  0  0  0
  -25.0127  -33.9760   25.0493 H   0  0  0  0  0  0
  -22.7052  -31.3050   21.4005 H   0  0  0  0  0  0
  -23.3757  -35.9616   23.3283 H   0  0  0  0  0  0
  -24.3589  -36.8917   22.2053 H   0  0  0  0  0  0
  -23.7233  -37.6492   23.6653 H   0  0  0  0  0  0
  -26.0702  -31.5749   20.6015 H   0  0  0  0  0  0
  -26.8329  -30.8646   21.9923 H   0  0  0  0  0  0
  -28.1181  -29.0400   21.1830 H   0  0  0  0  0  0
  -26.0530  -25.9456   19.0107 H   0  0  0  0  0  0
  -23.9799  -27.2973   19.0275 H   0  0  0  0  0  0
  -23.7379  -30.5883   19.4019 H   0  0  0  0  0  0
  -22.7519  -29.2349   19.8656 H   0  0  0  0  0  0
  -25.1289  -36.1931   25.0828 H   0  0  0  0  0  0
  -20.9981  -28.3205   24.1416 H   0  0  0  0  0  0
  -20.5641  -26.2253   23.3596 H   0  0  0  0  0  0
  -21.6622  -26.7409   22.1212 H   0  0  0  0  0  0
  -19.6899  -25.6291   21.1230 H   0  0  0  0  0  0
  -19.6702  -27.3184   20.6736 H   0  0  0  0  0  0
  -17.4199  -26.6679   21.4005 H   0  0  0  0  0  0
  -18.0318  -26.0064   22.9003 H   0  0  0  0  0  0
  -19.7930  -30.7267   24.2250 H   0  0  0  0  0  0
  -17.5007  -31.6269   24.5142 H   0  0  0  0  0  0
  -15.5344  -30.2969   23.7681 H   0  0  0  0  0  0
  -15.8655  -28.0820   22.7061 H   0  0  0  0  0  0
  -24.5932  -30.7069   25.7809 H   0  0  0  0  0  0
  -24.8970  -32.2891   26.4898 H   0  0  0  0  0  0
  -25.8124  -30.8902   27.0223 H   0  0  0  0  0  0
  -26.2866  -29.6771   24.1191 H   0  0  0  0  0  0
  -27.4077  -29.7259   25.4600 H   0  0  0  0  0  0
  -27.8716  -30.4305   23.9288 H   0  0  0  0  0  0
  -27.2678  -33.3618   26.2063 H   0  0  0  0  0  0
  -28.3884  -32.6884   25.0318 H   0  0  0  0  0  0
  -28.0725  -31.8441   26.5408 H   0  0  0  0  0  0
  -28.2577  -38.0117   24.7542 H   0  0  0  0  0  0
  -28.1115  -36.2652   24.6228 H   0  0  0  0  0  0
  -27.2314  -37.1358   25.8860 H   0  0  0  0  0  0
  -20.9296  -29.8768   21.6946 H   0  0  0  0  0  0
  -26.0170  -38.2845   24.1453 H   0  0  0  0  0  0
  -28.7268  -21.0390   18.4268 H   0  0  0  0  0  0
  -31.4706  -17.1113   20.2121 H   0  0  0  0  0  0
  -28.7914  -15.7739   20.7044 H   0  0  0  0  0  0
  -28.6531  -26.5513   22.0621 H   0  0  0  0  0  0
  -28.6095  -18.9054   17.0731 H   0  0  0  0  0  0
  -28.7631  -17.3549   17.8846 H   0  0  0  0  0  0
  -30.1953  -18.1885   17.2925 H   0  0  0  0  0  0
  -29.4686  -22.3444   21.9852 H   0  0  0  0  0  0
  -29.1891  -24.9753   23.2353 H   0  0  0  0  0  0
  1 25  1  0  0  0
  1 30  2  0  0  0
  1 76  1  0  0  0
  2  3  1  0  0  0
  2 25  1  0  0  0
  2 85  1  0  0  0
  2 86  1  0  0  0
  3  4  1  0  0  0
  3 87  1  0  0  0
  3 88  1  0  0  0
  4  5  1  0  0  0
  4 89  1  0  0  0
  4 90  1  0  0  0
  5  6  1  0  0  0
  5 26  1  0  0  0
  5 91  1  0  0  0
  6 25  1  0  0  0
  6 92  1  0  0  0
  6 93  1  0  0  0
  7  8  2  0  0  0
  7 26  1  0  0  0
  7 29  1  0  0  0
  8  9  1  0  0  0
  8 22  1  0  0  0
  9 10  1  0  0  0
  9 27  2  0  0  0
 10 11  2  0  0  0
 10 15  1  0  0  0
 11 12  1  0  0  0
 11 94  1  0  0  0
 12 13  2  0  0  0
 12 95  1  0  0  0
 13 14  1  0  0  0
 13 31  1  0  0  0
 14 15  2  0  0  0
 14 96  1  0  0  0
 15 97  1  0  0  0
 16 17  2  0  0  0
 16 21  1  0  0  0
 16 31  1  0  0  0
 17 18  1  0  0  0
 17 98  1  0  0  0
 18 19  2  0  0  0
 18 99  1  0  0  0
 19 20  1  0  0  0
 19 24  1  0  0  0
 20 21  2  0  0  0
 20100  1  0  0  0
 21 23  1  0  0  0
 22 28  1  0  0  0
 22 32  2  0  0  0
 26 27  1  0  0  0
 28101  1  0  0  0
 28102  1  0  0  0
 29103  1  0  0  0
 29104  1  0  0  0
 33 34  1  0  0  0
 33 66  1  0  0  0
 33 70  2  0  0  0
 34 36  1  0  0  0
 34 59  1  0  0  0
 34105  1  0  0  0
 35 44  2  0  0  0
 35 45  1  0  0  0
 35 68  1  0  0  0
 36 56  1  0  0  0
 36106  1  0  0  0
 37 39  1  0  0  0
 37 47  1  0  0  0
 37 66  1  0  0  0
 37107  1  0  0  0
 38 43  2  0  0  0
 38 46  1  0  0  0
 38 47  1  0  0  0
 39 64  1  0  0  0
 39 67  2  0  0  0
 40 52  1  0  0  0
 40 53  2  0  0  0
 40 58  1  0  0  0
 41108  1  0  0  0
 41109  1  0  0  0
 41110  1  0  0  0
 41 48  1  0  0  0
 42 43  1  0  0  0
 42 66  1  0  0  0
 42111  1  0  0  0
 42112  1  0  0  0
 43 44  1  0  0  0
 44113  1  0  0  0
 45 46  2  0  0  0
 45114  1  0  0  0
 46115  1  0  0  0
 47116  1  0  0  0
 47117  1  0  0  0
 48 56  1  0  0  0
 48 65  1  0  0  0
 48118  1  0  0  0
 49 50  1  0  0  0
 49 53  1  0  0  0
 49 64  1  0  0  0
 49119  1  0  0  0
 50 51  1  0  0  0
 50120  1  0  0  0
 50121  1  0  0  0
 51 52  1  0  0  0
 51122  1  0  0  0
 51123  1  0  0  0
 52124  1  0  0  0
 52125  1  0  0  0
 53 54  1  0  0  0
 54 55  2  0  0  0
 54126  1  0  0  0
 55 57  1  0  0  0
 55127  1  0  0  0
 56 69  2  0  0  0
 57 58  2  0  0  0
 57128  1  0  0  0
 58129  1  0  0  0
 59 60  1  0  0  0
 59 61  1  0  0  0
 59 62  1  0  0  0
 60130  1  0  0  0
 60131  1  0  0  0
 60132  1  0  0  0
 61133  1  0  0  0
 61134  1  0  0  0
 61135  1  0  0  0
 62136  1  0  0  0
 62137  1  0  0  0
 62138  1  0  0  0
 63 65  1  0  0  0
 63139  1  0  0  0
 63140  1  0  0  0
 63141  1  0  0  0
 64142  1  0  0  0
 65143  1  0  0  0
 68 77  1  0  0  0
 71 72  1  0  0  0
 71 74  2  0  0  0
 71144  1  0  0  0
 72 73  2  0  0  0
 72 80  1  0  0  0
 73 75  1  0  0  0
 73 84  1  0  0  0
 74 81  1  0  0  0
 74 84  1  0  0  0
 75 76  2  0  0  0
 75145  1  0  0  0
 76146  1  0  0  0
 77 78  2  0  0  0
 77147  1  0  0  0
 78 79  1  0  0  0
 78 83  1  0  0  0
 79 81  1  0  0  0
 79 82  2  0  0  0
 80148  1  0  0  0
 80149  1  0  0  0
 80150  1  0  0  0
 81151  1  0  0  0
 83152  1  0  0  0
M  ISO  4   1 100  68 101  76 100  77 101
M  END
> <chiral flag>
0

> <version>
0

> <s_m_source_file>
/data/baiqing/PycharmProjects/Reinvent-master-3.2/result/LINK_invent/BTK/process_docking_weight1_custom_product_contain_oxygen_bond_distance_aromatic_linkinvent_7_9_3/rearranged_h_0179.sdf

> <i_m_source_file_index>
49

> <r_mmod_Potential_Energy-OPLS-2005>
13.0579290390015

> <r_mmod_Stretch_Energy-OPLS-2005>
53.5301895141602

> <r_mmod_Bend_Energy-OPLS-2005>
139.576095581055

> <r_mmod_Torsional_Energy-OPLS-2005>
226.810791015625

> <r_mmod_Improper_Torsional_Energy-OPLS-2005>
8.69101238250732

> <r_mmod_Van_der_Waal_Energy-OPLS-2005>
127.141189575195

> <r_mmod_Electrostatic_Energy-OPLS-2005>
-362.8046875

> <r_mmod_Solvation_Energy-OPLS-2005>
-217.685272216797

> <b_mmod_Minimization_Converged-OPLS-2005>
0

> <r_mmod_RMS_Derivative-OPLS-2005>
1.50692188739777

$$$$
49
                    3D
 Structure written by MMmdl.
168177  0  0  1  0            999 V2000
  -30.6962  -14.4291   20.5629 C   0  0  0  0  0  0
  -30.4219  -12.2701   19.4280 C   0  0  0  0  0  0
  -29.4997  -12.5002   18.2123 C   0  0  0  0  0  0
  -28.0159  -12.3716   18.6166 C   0  0  0  0  0  0
  -27.6657  -13.1977   19.8833 C   0  0  2  0  0  0
  -28.7037  -12.9557   21.0046 C   0  0  0  0  0  0
  -25.2614  -13.8140   20.5686 C   0  0  0  0  0  0
  -24.1841  -13.0439   20.9182 C   0  0  0  0  0  0
  -24.6379  -11.6907   20.8741 C   0  0  0  0  0  0
  -23.9037  -10.4296   21.0404 C   0  0  0  0  0  0
  -24.3599   -9.4208   21.9178 C   0  0  0  0  0  0
  -23.6284   -8.2240   22.0756 C   0  0  0  0  0  0
  -22.4259   -8.0279   21.3560 C   0  0  0  0  0  0
  -21.9892   -9.0239   20.4649 C   0  0  0  0  0  0
  -22.7213  -10.2124   20.3046 C   0  0  0  0  0  0
  -21.6839   -6.0737   22.5295 C   0  0  0  0  0  0
  -21.4004   -6.5644   23.8226 C   0  0  0  0  0  0
  -21.3663   -5.6801   24.9187 C   0  0  0  0  0  0
  -21.6037   -4.3060   24.7233 C   0  0  0  0  0  0
  -21.8811   -3.8150   23.4356 C   0  0  0  0  0  0
  -21.9188   -4.6967   22.3418 C   0  0  0  0  0  0
  -22.7866  -13.5254   21.1839 C   0  0  0  0  0  0
  -22.1650   -4.2155   21.0993 F   0  0  0  0  0  0
  -21.5638   -3.4550   25.7745 F   0  0  0  0  0  0
  -30.0435  -13.2419   20.4641 N   0  0  0  0  0  0
  -26.3042  -12.9287   20.3393 N   0  0  0  0  0  0
  -25.9300  -11.6462   20.5759 N   0  0  0  0  0  0
  -22.0498  -12.8260   22.0398 N   0  0  0  0  0  0
  -25.4370  -15.1852   20.4128 N   0  0  0  0  0  0
  -31.8274  -14.6233   20.1045 O   0  0  0  0  0  0
  -21.6630   -6.8874   21.4258 O   0  0  0  0  0  0
  -22.3570  -14.5581   20.6718 O   0  0  0  0  0  0
  -24.6114  -31.8704   23.2142 C   0  0  0  0  0  0
  -25.9017  -32.4842   23.8422 C   0  0  1  0  0  0
  -27.2345  -27.4691   20.0770 C   0  0  0  0  0  0
  -25.5881  -33.8638   24.2352 N   0  0  0  0  0  0
  -23.3974  -30.4958   21.5534 C   0  0  2  0  0  0
  -24.8409  -28.9689   20.1134 C   0  0  0  0  0  0
  -22.7393  -29.4665   22.4995 C   0  0  0  0  0  0
  -18.0267  -28.1378   22.8505 C   0  0  0  0  0  0
  -24.1483  -36.7323   23.2640 C   0  0  0  0  0  0
  -25.9231  -30.8454   21.3622 C   0  0  0  0  0  0
  -25.9989  -29.4825   20.7094 C   0  0  0  0  0  0
  -27.1952  -28.7354   20.6959 C   0  0  0  0  0  0
  -26.0536  -26.9601   19.4835 C   0  0  0  0  0  0
  -24.8605  -27.7044   19.5016 C   0  0  0  0  0  0
  -23.6026  -29.8316   20.1663 C   0  0  0  0  0  0
  -25.4102  -36.3124   24.0347 C   0  0  1  0  0  0
  -20.5860  -28.3653   23.1330 C   0  0  2  0  0  0
  -20.6756  -26.9390   22.5424 C   0  0  0  0  0  0
  -19.5735  -26.6381   21.5221 C   0  0  0  0  0  0
  -18.1911  -26.7926   22.1629 C   0  0  0  0  0  0
  -19.1519  -28.8832   23.2922 C   0  0  0  0  0  0
  -18.9443  -30.1439   23.8937 C   0  0  0  0  0  0
  -17.6446  -30.6589   24.0566 C   0  0  0  0  0  0
  -25.9025  -34.9485   23.5147 C   0  0  0  0  0  0
  -16.5338  -29.9095   23.6325 C   0  0  0  0  0  0
  -16.7257  -28.6507   23.0357 C   0  0  0  0  0  0
  -26.4463  -31.6610   25.0732 C   0  0  0  0  0  0
  -25.3744  -31.3692   26.1489 C   0  0  0  0  0  0
  -27.0289  -30.3064   24.6070 C   0  0  0  0  0  0
  -27.6056  -32.4320   25.7487 C   0  0  0  0  0  0
  -27.5582  -37.1811   24.8463 C   0  0  0  0  0  0
  -21.4121  -29.3034   22.3748 N   0  0  0  0  0  0
  -26.4296  -37.3799   23.9407 N   0  0  0  0  0  0
  -24.6623  -31.0831   22.1030 N   0  0  0  0  0  0
  -23.4182  -28.8187   23.3008 O   0  0  0  0  0  0
  -28.4203  -26.7696   20.1049 O   0  0  0  0  0  0
  -26.5584  -34.8926   22.4706 O   0  0  0  0  0  0
  -23.5316  -32.1437   23.7556 O   0  0  0  0  0  0
  -29.7526  -16.6019   18.8297 C   0  0  0  0  0  0
  -29.5097  -16.5194   20.1798 C   0  0  0  0  0  0
  -28.2466  -18.3721   19.6986 C   0  0  0  0  0  0
  -28.6190  -25.7297   19.2377 C   0  0  0  0  0  0
  -28.2051  -24.4751   19.5034 C   0  0  0  0  0  0
  -28.4481  -23.4280   18.5066 C   0  0  0  0  0  0
  -27.9208  -20.6130   20.8785 C   0  0  0  0  0  0
  -27.9218  -21.0932   18.0059 C   0  0  0  0  0  0
  -26.8087  -20.2237   18.6362 C   0  0  1  0  0  0
  -28.9062  -21.6029   20.2035 C   0  0  1  0  0  0
  -27.2817  -19.5270   19.9639 C   0  0  1  0  0  0
  -25.5262  -21.0837   18.7749 C   0  0  0  0  0  0
  -30.3324  -21.0525   20.0213 C   0  0  0  0  0  0
  -26.0497  -18.9175   20.6783 C   0  0  0  0  0  0
  -28.6833  -17.5400   20.6634 N   0  0  0  0  0  0
  -28.3555  -22.1401   18.9377 N   0  0  0  0  0  0
  -29.9460  -15.4505   21.0065 N   0  0  0  0  0  0
  -28.6100  -23.6874   17.3082 O   0  0  0  0  0  0
  -27.5379  -24.2324   20.6424 O   0  0  0  0  0  0
  -28.8651  -17.9017   18.1051 S   0  0  0  0  0  0
  -31.4687  -12.3624   19.1319 H   0  0  0  0  0  0
  -30.3070  -11.2534   19.8085 H   0  0  0  0  0  0
  -29.7355  -11.7890   17.4203 H   0  0  0  0  0  0
  -29.6839  -13.4906   17.7940 H   0  0  0  0  0  0
  -27.8106  -11.3152   18.7938 H   0  0  0  0  0  0
  -27.3722  -12.6692   17.7891 H   0  0  0  0  0  0
  -27.7141  -14.2488   19.6004 H   0  0  0  0  0  0
  -28.6624  -11.9187   21.3413 H   0  0  0  0  0  0
  -28.4729  -13.5554   21.8864 H   0  0  0  0  0  0
  -25.2742   -9.5681   22.4750 H   0  0  0  0  0  0
  -23.9988   -7.4624   22.7476 H   0  0  0  0  0  0
  -21.0811   -8.8734   19.8964 H   0  0  0  0  0  0
  -22.3655  -10.9645   19.6144 H   0  0  0  0  0  0
  -21.1991   -7.6150   23.9730 H   0  0  0  0  0  0
  -21.1504   -6.0533   25.9095 H   0  0  0  0  0  0
  -22.0596   -2.7618   23.2850 H   0  0  0  0  0  0
  -22.4058  -11.9877   22.4741 H   0  0  0  0  0  0
  -21.1150  -13.1350   22.2638 H   0  0  0  0  0  0
  -24.6827  -15.8452   20.5632 H   0  0  0  0  0  0
  -26.3049  -15.6295   20.1424 H   0  0  0  0  0  0
  -26.7084  -32.5562   23.1189 H   0  0  0  0  0  0
  -25.0025  -33.9807   25.0490 H   0  0  0  0  0  0
  -22.6851  -31.3126   21.4183 H   0  0  0  0  0  0
  -23.3744  -35.9660   23.3314 H   0  0  0  0  0  0
  -24.3577  -36.8918   22.2051 H   0  0  0  0  0  0
  -23.7235  -37.6534   23.6640 H   0  0  0  0  0  0
  -26.0274  -31.6123   20.5931 H   0  0  0  0  0  0
  -26.8157  -30.9009   21.9749 H   0  0  0  0  0  0
  -28.0915  -29.1267   21.1564 H   0  0  0  0  0  0
  -26.0335  -25.9922   19.0050 H   0  0  0  0  0  0
  -23.9686  -27.3033   19.0413 H   0  0  0  0  0  0
  -23.7062  -30.6077   19.4069 H   0  0  0  0  0  0
  -22.7282  -29.2481   19.8738 H   0  0  0  0  0  0
  -25.1278  -36.2001   25.0844 H   0  0  0  0  0  0
  -20.9961  -28.3211   24.1445 H   0  0  0  0  0  0
  -20.5654  -26.2260   23.3609 H   0  0  0  0  0  0
  -21.6623  -26.7430   22.1209 H   0  0  0  0  0  0
  -19.6879  -25.6296   21.1242 H   0  0  0  0  0  0
  -19.6676  -27.3202   20.6760 H   0  0  0  0  0  0
  -17.4183  -26.6702   21.4024 H   0  0  0  0  0  0
  -18.0290  -26.0065   22.9016 H   0  0  0  0  0  0
  -19.7918  -30.7245   24.2323 H   0  0  0  0  0  0
  -17.5002  -31.6273   24.5151 H   0  0  0  0  0  0
  -15.5339  -30.3007   23.7624 H   0  0  0  0  0  0
  -15.8659  -28.0833   22.7059 H   0  0  0  0  0  0
  -24.5922  -30.7036   25.7814 H   0  0  0  0  0  0
  -24.8934  -32.2839   26.4962 H   0  0  0  0  0  0
  -25.8109  -30.8839   27.0226 H   0  0  0  0  0  0
  -26.2811  -29.6831   24.1150 H   0  0  0  0  0  0
  -27.4101  -29.7289   25.4497 H   0  0  0  0  0  0
  -27.8629  -30.4399   23.9180 H   0  0  0  0  0  0
  -27.2688  -33.3606   26.2104 H   0  0  0  0  0  0
  -28.3844  -32.6894   25.0300 H   0  0  0  0  0  0
  -28.0748  -31.8419   26.5365 H   0  0  0  0  0  0
  -28.2607  -38.0102   24.7514 H   0  0  0  0  0  0
  -28.1072  -36.2634   24.6290 H   0  0  0  0  0  0
  -27.2300  -37.1463   25.8867 H   0  0  0  0  0  0
  -20.9265  -29.8794   21.7020 H   0  0  0  0  0  0
  -26.0194  -38.2884   24.1402 H   0  0  0  0  0  0
  -30.3474  -15.9542   18.1985 H   0  0  0  0  0  0
  -29.1425  -26.0364   18.3417 H   0  0  0  0  0  0
  -27.1145  -21.2224   21.2887 H   0  0  0  0  0  0
  -28.3857  -20.1503   21.7485 H   0  0  0  0  0  0
  -27.5322  -21.5065   17.0735 H   0  0  0  0  0  0
  -28.7959  -20.5254   17.7005 H   0  0  0  0  0  0
  -26.5449  -19.4459   17.9180 H   0  0  0  0  0  0
  -29.0494  -22.4042   20.9253 H   0  0  0  0  0  0
  -25.6272  -21.8505   19.5443 H   0  0  0  0  0  0
  -24.6487  -20.4825   19.0124 H   0  0  0  0  0  0
  -25.2959  -21.5956   17.8406 H   0  0  0  0  0  0
  -30.3730  -20.2005   19.3460 H   0  0  0  0  0  0
  -30.7456  -20.7285   20.9775 H   0  0  0  0  0  0
  -30.9985  -21.8206   19.6276 H   0  0  0  0  0  0
  -26.3362  -18.3859   21.5861 H   0  0  0  0  0  0
  -25.5307  -18.2064   20.0351 H   0  0  0  0  0  0
  -25.3292  -19.6725   20.9908 H   0  0  0  0  0  0
  -29.2811  -15.2014   21.7226 H   0  0  0  0  0  0
  -27.4749  -25.0590   21.1027 H   0  0  0  0  0  0
  1 25  1  0  0  0
  1 30  2  0  0  0
  1 87  1  0  0  0
  2  3  1  0  0  0
  2 25  1  0  0  0
  2 91  1  0  0  0
  2 92  1  0  0  0
  3  4  1  0  0  0
  3 93  1  0  0  0
  3 94  1  0  0  0
  4  5  1  0  0  0
  4 95  1  0  0  0
  4 96  1  0  0  0
  5  6  1  0  0  0
  5 26  1  0  0  0
  5 97  1  0  0  0
  6 25  1  0  0  0
  6 98  1  0  0  0
  6 99  1  0  0  0
  7  8  2  0  0  0
  7 26  1  0  0  0
  7 29  1  0  0  0
  8  9  1  0  0  0
  8 22  1  0  0  0
  9 10  1  0  0  0
  9 27  2  0  0  0
 10 11  2  0  0  0
 10 15  1  0  0  0
 11 12  1  0  0  0
 11100  1  0  0  0
 12 13  2  0  0  0
 12101  1  0  0  0
 13 14  1  0  0  0
 13 31  1  0  0  0
 14 15  2  0  0  0
 14102  1  0  0  0
 15103  1  0  0  0
 16 17  2  0  0  0
 16 21  1  0  0  0
 16 31  1  0  0  0
 17 18  1  0  0  0
 17104  1  0  0  0
 18 19  2  0  0  0
 18105  1  0  0  0
 19 20  1  0  0  0
 19 24  1  0  0  0
 20 21  2  0  0  0
 20106  1  0  0  0
 21 23  1  0  0  0
 22 28  1  0  0  0
 22 32  2  0  0  0
 26 27  1  0  0  0
 28107  1  0  0  0
 28108  1  0  0  0
 29109  1  0  0  0
 29110  1  0  0  0
 33 34  1  0  0  0
 33 66  1  0  0  0
 33 70  2  0  0  0
 34 36  1  0  0  0
 34 59  1  0  0  0
 34111  1  0  0  0
 35 44  2  0  0  0
 35 45  1  0  0  0
 35 68  1  0  0  0
 36 56  1  0  0  0
 36112  1  0  0  0
 37 39  1  0  0  0
 37 47  1  0  0  0
 37 66  1  0  0  0
 37113  1  0  0  0
 38 43  2  0  0  0
 38 46  1  0  0  0
 38 47  1  0  0  0
 39 64  1  0  0  0
 39 67  2  0  0  0
 40 52  1  0  0  0
 40 53  2  0  0  0
 40 58  1  0  0  0
 41114  1  0  0  0
 41115  1  0  0  0
 41116  1  0  0  0
 41 48  1  0  0  0
 42 43  1  0  0  0
 42 66  1  0  0  0
 42117  1  0  0  0
 42118  1  0  0  0
 43 44  1  0  0  0
 44119  1  0  0  0
 45 46  2  0  0  0
 45120  1  0  0  0
 46121  1  0  0  0
 47122  1  0  0  0
 47123  1  0  0  0
 48 56  1  0  0  0
 48 65  1  0  0  0
 48124  1  0  0  0
 49 50  1  0  0  0
 49 53  1  0  0  0
 49 64  1  0  0  0
 49125  1  0  0  0
 50 51  1  0  0  0
 50126  1  0  0  0
 50127  1  0  0  0
 51 52  1  0  0  0
 51128  1  0  0  0
 51129  1  0  0  0
 52130  1  0  0  0
 52131  1  0  0  0
 53 54  1  0  0  0
 54 55  2  0  0  0
 54132  1  0  0  0
 55 57  1  0  0  0
 55133  1  0  0  0
 56 69  2  0  0  0
 57 58  2  0  0  0
 57134  1  0  0  0
 58135  1  0  0  0
 59 60  1  0  0  0
 59 61  1  0  0  0
 59 62  1  0  0  0
 60136  1  0  0  0
 60137  1  0  0  0
 60138  1  0  0  0
 61139  1  0  0  0
 61140  1  0  0  0
 61141  1  0  0  0
 62142  1  0  0  0
 62143  1  0  0  0
 62144  1  0  0  0
 63 65  1  0  0  0
 63145  1  0  0  0
 63146  1  0  0  0
 63147  1  0  0  0
 64148  1  0  0  0
 65149  1  0  0  0
 68 74  1  0  0  0
 71 72  2  0  0  0
 71 90  1  0  0  0
 71150  1  0  0  0
 72 85  1  0  0  0
 72 87  1  0  0  0
 73 81  1  0  0  0
 73 85  2  0  0  0
 73 90  1  0  0  0
 74 75  2  0  0  0
 74151  1  0  0  0
 75 76  1  0  0  0
 75 89  1  0  0  0
 76 86  1  0  0  0
 76 88  2  0  0  0
 77 80  1  0  0  0
 77 81  1  0  0  0
 77152  1  0  0  0
 77153  1  0  0  0
 78 79  1  0  0  0
 78 86  1  0  0  0
 78154  1  0  0  0
 78155  1  0  0  0
 79 81  1  0  0  0
 79 82  1  0  0  0
 79156  1  0  0  0
 80 83  1  0  0  0
 80 86  1  0  0  0
 80157  1  0  0  0
 81 84  1  0  0  0
 82158  1  0  0  0
 82159  1  0  0  0
 82160  1  0  0  0
 83161  1  0  0  0
 83162  1  0  0  0
 83163  1  0  0  0
 84164  1  0  0  0
 84165  1  0  0  0
 84166  1  0  0  0
 87167  1  0  0  0
 89168  1  0  0  0
M  ISO  4   1 100  68 101  74 101  87 100
M  END
> <chiral flag>
0

> <version>
0

> <s_m_source_file>
/data/baiqing/PycharmProjects/Reinvent-master-3.2/result/LINK_invent/BTK/process_docking_weight1_custom_product_contain_oxygen_bond_distance_aromatic_linkinvent_7_9_3/rearranged_h_0179.sdf

> <i_m_source_file_index>
50

> <r_mmod_Potential_Energy-OPLS-2005>
88.2355575561523

> <r_mmod_Stretch_Energy-OPLS-2005>
41.4646034240723

> <r_mmod_Bend_Energy-OPLS-2005>
121.803779602051

> <r_mmod_Torsional_Energy-OPLS-2005>
325.917205810547

> <r_mmod_Improper_Torsional_Energy-OPLS-2005>
9.70695018768311

> <r_mmod_Van_der_Waal_Energy-OPLS-2005>
157.80876159668

> <r_mmod_Electrostatic_Energy-OPLS-2005>
-375.748016357422

> <r_mmod_Solvation_Energy-OPLS-2005>
-203.261383056641

> <b_mmod_Minimization_Converged-OPLS-2005>
0

> <r_mmod_RMS_Derivative-OPLS-2005>
2.12981414794922

$$$$
50
                    3D
 Structure written by MMmdl.
156164  0  0  1  0            999 V2000
  -30.7732  -14.3580   20.6508 C   0  0  0  0  0  0
  -30.4124  -12.2744   19.3979 C   0  0  0  0  0  0
  -29.4779  -12.5046   18.1955 C   0  0  0  0  0  0
  -28.0054  -12.3598   18.6177 C   0  0  0  0  0  0
  -27.6636  -13.2001   19.8742 C   0  0  2  0  0  0
  -28.7011  -12.9567   20.9922 C   0  0  0  0  0  0
  -25.2610  -13.8169   20.5692 C   0  0  0  0  0  0
  -24.1842  -13.0458   20.9181 C   0  0  0  0  0  0
  -24.6387  -11.6916   20.8742 C   0  0  0  0  0  0
  -23.9061  -10.4303   21.0416 C   0  0  0  0  0  0
  -24.3611   -9.4227   21.9199 C   0  0  0  0  0  0
  -23.6298   -8.2257   22.0769 C   0  0  0  0  0  0
  -22.4276   -8.0294   21.3567 C   0  0  0  0  0  0
  -21.9901   -9.0269   20.4669 C   0  0  0  0  0  0
  -22.7230  -10.2148   20.3069 C   0  0  0  0  0  0
  -21.6854   -6.0741   22.5298 C   0  0  0  0  0  0
  -21.3993   -6.5644   23.8223 C   0  0  0  0  0  0
  -21.3650   -5.6798   24.9186 C   0  0  0  0  0  0
  -21.6040   -4.3064   24.7237 C   0  0  0  0  0  0
  -21.8812   -3.8158   23.4357 C   0  0  0  0  0  0
  -21.9200   -4.6972   22.3418 C   0  0  0  0  0  0
  -22.7862  -13.5272   21.1867 C   0  0  0  0  0  0
  -22.1673   -4.2161   21.1000 F   0  0  0  0  0  0
  -21.5628   -3.4544   25.7748 F   0  0  0  0  0  0
  -30.0462  -13.2305   20.4534 N   0  0  0  0  0  0
  -26.3035  -12.9316   20.3377 N   0  0  0  0  0  0
  -25.9312  -11.6486   20.5761 N   0  0  0  0  0  0
  -22.0487  -12.8250   22.0400 N   0  0  0  0  0  0
  -25.4406  -15.1883   20.4112 N   0  0  0  0  0  0
  -31.8342  -14.5868   20.0586 O   0  0  0  0  0  0
  -21.6649   -6.8877   21.4262 O   0  0  0  0  0  0
  -22.3553  -14.5588   20.6733 O   0  0  0  0  0  0
  -24.6145  -31.8690   23.2122 C   0  0  0  0  0  0
  -25.9051  -32.4819   23.8389 C   0  0  1  0  0  0
  -27.2352  -27.4514   20.0789 C   0  0  0  0  0  0
  -25.5924  -33.8625   24.2333 N   0  0  0  0  0  0
  -23.3986  -30.4951   21.5526 C   0  0  2  0  0  0
  -24.8412  -28.9628   20.1163 C   0  0  0  0  0  0
  -22.7375  -29.4693   22.5015 C   0  0  0  0  0  0
  -18.0258  -28.1397   22.8491 C   0  0  0  0  0  0
  -24.1472  -36.7298   23.2625 C   0  0  0  0  0  0
  -25.9271  -30.8361   21.3632 C   0  0  0  0  0  0
  -26.0007  -29.4711   20.7132 C   0  0  0  0  0  0
  -27.1962  -28.7205   20.6974 C   0  0  0  0  0  0
  -26.0507  -26.9515   19.4836 C   0  0  0  0  0  0
  -24.8591  -27.6988   19.5031 C   0  0  0  0  0  0
  -23.6024  -29.8274   20.1671 C   0  0  0  0  0  0
  -25.4081  -36.3118   24.0348 C   0  0  1  0  0  0
  -20.5845  -28.3678   23.1352 C   0  0  2  0  0  0
  -20.6747  -26.9396   22.5486 C   0  0  0  0  0  0
  -19.5754  -26.6403   21.5243 C   0  0  0  0  0  0
  -18.1904  -26.7972   22.1564 C   0  0  0  0  0  0
  -19.1509  -28.8849   23.2929 C   0  0  0  0  0  0
  -18.9435  -30.1454   23.8951 C   0  0  0  0  0  0
  -17.6435  -30.6589   24.0599 C   0  0  0  0  0  0
  -25.9043  -34.9490   23.5141 C   0  0  0  0  0  0
  -16.5332  -29.9100   23.6340 C   0  0  0  0  0  0
  -16.7243  -28.6525   23.0347 C   0  0  0  0  0  0
  -26.4491  -31.6606   25.0717 C   0  0  0  0  0  0
  -25.3771  -31.3721   26.1479 C   0  0  0  0  0  0
  -27.0258  -30.3013   24.6115 C   0  0  0  0  0  0
  -27.6099  -32.4311   25.7449 C   0  0  0  0  0  0
  -27.5629  -37.1730   24.8393 C   0  0  0  0  0  0
  -21.4110  -29.3032   22.3736 N   0  0  0  0  0  0
  -26.4231  -37.3852   23.9505 N   0  0  0  0  0  0
  -24.6644  -31.0810   22.1004 N   0  0  0  0  0  0
  -23.4151  -28.8231   23.3050 O   0  0  0  0  0  0
  -28.4281  -26.7567   20.0757 O   0  0  0  0  0  0
  -26.5603  -34.8952   22.4703 O   0  0  0  0  0  0
  -23.5343  -32.1437   23.7543 O   0  0  0  0  0  0
  -31.9269  -16.9853   21.9537 C   0  0  0  0  0  0
  -30.6922  -16.5248   21.5454 C   0  0  0  0  0  0
  -31.1188  -18.8784   21.0214 C   0  0  0  0  0  0
  -29.6382  -23.3717   20.4324 C   0  0  0  0  0  0
  -30.6540  -22.4867   20.3768 C   0  0  0  0  0  0
  -29.7325  -24.7103   19.8353 C   0  0  0  0  0  0
  -30.4998  -21.1845   21.0080 C   0  0  0  0  0  0
  -33.3619  -20.4471   19.1839 C   0  0  0  0  0  0
  -28.4146  -25.4317   19.5394 C   0  0  0  0  0  0
  -31.8421  -20.2211   19.1093 C   0  0  0  0  0  0
  -32.1735  -18.3216   21.6254 N   0  0  0  0  0  0
  -30.2619  -15.2426   21.5190 N   0  0  0  0  0  0
  -31.1936  -20.1655   20.4366 N   0  0  0  0  0  0
  -30.8092  -25.2504   19.5556 O   0  0  0  0  0  0
  -29.7991  -21.0188   22.0135 O   0  0  0  0  0  0
  -29.7246  -17.8177   20.8836 S   0  0  0  0  0  0
  -31.4536  -12.3688   19.0852 H   0  0  0  0  0  0
  -30.3124  -11.2539   19.7696 H   0  0  0  0  0  0
  -29.7035  -11.7925   17.4006 H   0  0  0  0  0  0
  -29.6464  -13.4994   17.7792 H   0  0  0  0  0  0
  -27.8212  -11.3036   18.8179 H   0  0  0  0  0  0
  -27.3444  -12.6273   17.7931 H   0  0  0  0  0  0
  -27.7192  -14.2488   19.5825 H   0  0  0  0  0  0
  -28.6566  -11.9192   21.3246 H   0  0  0  0  0  0
  -28.4555  -13.5502   21.8727 H   0  0  0  0  0  0
  -25.2757   -9.5718   22.4773 H   0  0  0  0  0  0
  -24.0018   -7.4656   22.7475 H   0  0  0  0  0  0
  -21.0835   -8.8800   19.8977 H   0  0  0  0  0  0
  -22.3711  -10.9692   19.6176 H   0  0  0  0  0  0
  -21.1947   -7.6148   23.9732 H   0  0  0  0  0  0
  -21.1466   -6.0526   25.9087 H   0  0  0  0  0  0
  -22.0579   -2.7621   23.2874 H   0  0  0  0  0  0
  -22.4049  -11.9878   22.4753 H   0  0  0  0  0  0
  -21.1112  -13.1291   22.2599 H   0  0  0  0  0  0
  -24.6833  -15.8534   20.5219 H   0  0  0  0  0  0
  -26.3044  -15.6220   20.1089 H   0  0  0  0  0  0
  -26.7116  -32.5527   23.1149 H   0  0  0  0  0  0
  -25.0089  -33.9791   25.0487 H   0  0  0  0  0  0
  -22.6897  -31.3141   21.4144 H   0  0  0  0  0  0
  -23.3837  -35.9516   23.3083 H   0  0  0  0  0  0
  -24.3640  -36.9130   22.2090 H   0  0  0  0  0  0
  -23.7057  -37.6366   23.6762 H   0  0  0  0  0  0
  -26.0400  -31.5987   20.5917 H   0  0  0  0  0  0
  -26.8159  -30.8877   21.9803 H   0  0  0  0  0  0
  -28.0908  -29.1144   21.1590 H   0  0  0  0  0  0
  -26.0168  -25.9931   18.9875 H   0  0  0  0  0  0
  -23.9672  -27.3006   19.0390 H   0  0  0  0  0  0
  -23.7039  -30.6010   19.4046 H   0  0  0  0  0  0
  -22.7271  -29.2439   19.8748 H   0  0  0  0  0  0
  -25.1238  -36.1948   25.0833 H   0  0  0  0  0  0
  -20.9936  -28.3257   24.1469 H   0  0  0  0  0  0
  -20.5613  -26.2283   23.3685 H   0  0  0  0  0  0
  -21.6629  -26.7438   22.1300 H   0  0  0  0  0  0
  -19.6924  -25.6325   21.1255 H   0  0  0  0  0  0
  -19.6768  -27.3250   20.6813 H   0  0  0  0  0  0
  -17.4234  -26.6836   21.3886 H   0  0  0  0  0  0
  -18.0180  -26.0072   22.8887 H   0  0  0  0  0  0
  -19.7901  -30.7260   24.2337 H   0  0  0  0  0  0
  -17.4984  -31.6262   24.5199 H   0  0  0  0  0  0
  -15.5337  -30.3016   23.7667 H   0  0  0  0  0  0
  -15.8625  -28.0883   22.7028 H   0  0  0  0  0  0
  -24.6111  -30.6830   25.7910 H   0  0  0  0  0  0
  -24.8752  -32.2831   26.4736 H   0  0  0  0  0  0
  -25.8184  -30.9148   27.0343 H   0  0  0  0  0  0
  -26.2746  -29.6790   24.1225 H   0  0  0  0  0  0
  -27.4015  -29.7262   25.4594 H   0  0  0  0  0  0
  -27.8623  -30.4265   23.9237 H   0  0  0  0  0  0
  -27.2760  -33.3626   26.2037 H   0  0  0  0  0  0
  -28.3893  -32.6839   25.0249 H   0  0  0  0  0  0
  -28.0774  -31.8413   26.5346 H   0  0  0  0  0  0
  -28.2449  -38.0230   24.7806 H   0  0  0  0  0  0
  -28.1333  -36.2817   24.5710 H   0  0  0  0  0  0
  -27.2459  -37.0761   25.8798 H   0  0  0  0  0  0
  -20.9258  -29.8713   21.6934 H   0  0  0  0  0  0
  -26.0109  -38.2866   24.1787 H   0  0  0  0  0  0
  -32.7223  -16.4040   22.4003 H   0  0  0  0  0  0
  -28.7094  -23.1143   20.9218 H   0  0  0  0  0  0
  -31.5776  -22.7459   19.8801 H   0  0  0  0  0  0
  -33.7829  -20.5402   18.1825 H   0  0  0  0  0  0
  -33.8633  -19.6062   19.6636 H   0  0  0  0  0  0
  -33.6164  -21.3534   19.7327 H   0  0  0  0  0  0
  -27.5940  -24.8543   19.9661 H   0  0  0  0  0  0
  -28.2746  -25.4704   18.4580 H   0  0  0  0  0  0
  -31.6627  -19.2731   18.5972 H   0  0  0  0  0  0
  -31.3810  -20.9618   18.4546 H   0  0  0  0  0  0
  -29.3514  -15.0305   21.8982 H   0  0  0  0  0  0
  1 25  1  0  0  0
  1 30  2  0  0  0
  1 82  1  0  0  0
  2  3  1  0  0  0
  2 25  1  0  0  0
  2 87  1  0  0  0
  2 88  1  0  0  0
  3  4  1  0  0  0
  3 89  1  0  0  0
  3 90  1  0  0  0
  4  5  1  0  0  0
  4 91  1  0  0  0
  4 92  1  0  0  0
  5  6  1  0  0  0
  5 26  1  0  0  0
  5 93  1  0  0  0
  6 25  1  0  0  0
  6 94  1  0  0  0
  6 95  1  0  0  0
  7  8  2  0  0  0
  7 26  1  0  0  0
  7 29  1  0  0  0
  8  9  1  0  0  0
  8 22  1  0  0  0
  9 10  1  0  0  0
  9 27  2  0  0  0
 10 11  2  0  0  0
 10 15  1  0  0  0
 11 12  1  0  0  0
 11 96  1  0  0  0
 12 13  2  0  0  0
 12 97  1  0  0  0
 13 14  1  0  0  0
 13 31  1  0  0  0
 14 15  2  0  0  0
 14 98  1  0  0  0
 15 99  1  0  0  0
 16 17  2  0  0  0
 16 21  1  0  0  0
 16 31  1  0  0  0
 17 18  1  0  0  0
 17100  1  0  0  0
 18 19  2  0  0  0
 18101  1  0  0  0
 19 20  1  0  0  0
 19 24  1  0  0  0
 20 21  2  0  0  0
 20102  1  0  0  0
 21 23  1  0  0  0
 22 28  1  0  0  0
 22 32  2  0  0  0
 26 27  1  0  0  0
 28103  1  0  0  0
 28104  1  0  0  0
 29105  1  0  0  0
 29106  1  0  0  0
 33 34  1  0  0  0
 33 66  1  0  0  0
 33 70  2  0  0  0
 34 36  1  0  0  0
 34 59  1  0  0  0
 34107  1  0  0  0
 35 44  2  0  0  0
 35 45  1  0  0  0
 35 68  1  0  0  0
 36 56  1  0  0  0
 36108  1  0  0  0
 37 39  1  0  0  0
 37 47  1  0  0  0
 37 66  1  0  0  0
 37109  1  0  0  0
 38 43  2  0  0  0
 38 46  1  0  0  0
 38 47  1  0  0  0
 39 64  1  0  0  0
 39 67  2  0  0  0
 40 52  1  0  0  0
 40 53  2  0  0  0
 40 58  1  0  0  0
 41110  1  0  0  0
 41111  1  0  0  0
 41112  1  0  0  0
 41 48  1  0  0  0
 42 43  1  0  0  0
 42 66  1  0  0  0
 42113  1  0  0  0
 42114  1  0  0  0
 43 44  1  0  0  0
 44115  1  0  0  0
 45 46  2  0  0  0
 45116  1  0  0  0
 46117  1  0  0  0
 47118  1  0  0  0
 47119  1  0  0  0
 48 56  1  0  0  0
 48 65  1  0  0  0
 48120  1  0  0  0
 49 50  1  0  0  0
 49 53  1  0  0  0
 49 64  1  0  0  0
 49121  1  0  0  0
 50 51  1  0  0  0
 50122  1  0  0  0
 50123  1  0  0  0
 51 52  1  0  0  0
 51124  1  0  0  0
 51125  1  0  0  0
 52126  1  0  0  0
 52127  1  0  0  0
 53 54  1  0  0  0
 54 55  2  0  0  0
 54128  1  0  0  0
 55 57  1  0  0  0
 55129  1  0  0  0
 56 69  2  0  0  0
 57 58  2  0  0  0
 57130  1  0  0  0
 58131  1  0  0  0
 59 60  1  0  0  0
 59 61  1  0  0  0
 59 62  1  0  0  0
 60132  1  0  0  0
 60133  1  0  0  0
 60134  1  0  0  0
 61135  1  0  0  0
 61136  1  0  0  0
 61137  1  0  0  0
 62138  1  0  0  0
 62139  1  0  0  0
 62140  1  0  0  0
 63 65  1  0  0  0
 63141  1  0  0  0
 63142  1  0  0  0
 63143  1  0  0  0
 64144  1  0  0  0
 65145  1  0  0  0
 68 79  1  0  0  0
 71 72  2  0  0  0
 71 81  1  0  0  0
 71146  1  0  0  0
 72 82  1  0  0  0
 72 86  1  0  0  0
 73 81  2  0  0  0
 73 83  1  0  0  0
 73 86  1  0  0  0
 74 75  2  0  0  0
 74 76  1  0  0  0
 74147  1  0  0  0
 75 77  1  0  0  0
 75148  1  0  0  0
 76 79  1  0  0  0
 76 84  2  0  0  0
 77 83  1  0  0  0
 77 85  2  0  0  0
 78 80  1  0  0  0
 78149  1  0  0  0
 78150  1  0  0  0
 78151  1  0  0  0
 79152  1  0  0  0
 79153  1  0  0  0
 80 83  1  0  0  0
 80154  1  0  0  0
 80155  1  0  0  0
 82156  1  0  0  0
M  ISO  4   1 100  68 101  79 101  82 100
M  END
> <chiral flag>
0

> <version>
0

> <s_m_source_file>
/data/baiqing/PycharmProjects/Reinvent-master-3.2/result/LINK_invent/BTK/process_docking_weight1_custom_product_contain_oxygen_bond_distance_aromatic_linkinvent_7_9_3/rearranged_h_0179.sdf

> <i_m_source_file_index>
51

> <r_mmod_Potential_Energy-OPLS-2005>
-43.2709732055664

> <r_mmod_Stretch_Energy-OPLS-2005>
33.5588493347168

> <r_mmod_Bend_Energy-OPLS-2005>
97.1902923583984

> <r_mmod_Torsional_Energy-OPLS-2005>
277.922454833984

> <r_mmod_Improper_Torsional_Energy-OPLS-2005>
4.02468347549438

> <r_mmod_Van_der_Waal_Energy-OPLS-2005>
151.201110839844

> <r_mmod_Electrostatic_Energy-OPLS-2005>
-374.918151855469

> <r_mmod_Solvation_Energy-OPLS-2005>
-241.302917480469

> <b_mmod_Minimization_Converged-OPLS-2005>
0

> <r_mmod_RMS_Derivative-OPLS-2005>
2.64427518844604

$$$$
51
                    3D
 Structure written by MMmdl.
157165  0  0  1  0            999 V2000
  -30.6572  -14.6623   20.4459 C   0  0  0  0  0  0
  -30.4328  -12.3850   19.4683 C   0  0  0  0  0  0
  -29.5106  -12.4159   18.2293 C   0  0  0  0  0  0
  -28.0267  -12.3061   18.6421 C   0  0  0  0  0  0
  -27.6390  -13.2097   19.8459 C   0  0  2  0  0  0
  -28.6905  -13.1410   20.9756 C   0  0  0  0  0  0
  -25.2521  -13.8138   20.5707 C   0  0  0  0  0  0
  -24.1792  -13.0414   20.9215 C   0  0  0  0  0  0
  -24.6359  -11.6884   20.8764 C   0  0  0  0  0  0
  -23.9035  -10.4270   21.0418 C   0  0  0  0  0  0
  -24.3601   -9.4188   21.9184 C   0  0  0  0  0  0
  -23.6284   -8.2224   22.0747 C   0  0  0  0  0  0
  -22.4265   -8.0266   21.3540 C   0  0  0  0  0  0
  -21.9897   -9.0233   20.4643 C   0  0  0  0  0  0
  -22.7217  -10.2116   20.3055 C   0  0  0  0  0  0
  -21.6842   -6.0727   22.5278 C   0  0  0  0  0  0
  -21.4005   -6.5630   23.8213 C   0  0  0  0  0  0
  -21.3656   -5.6785   24.9175 C   0  0  0  0  0  0
  -21.6046   -4.3046   24.7226 C   0  0  0  0  0  0
  -21.8819   -3.8139   23.4344 C   0  0  0  0  0  0
  -21.9191   -4.6957   22.3403 C   0  0  0  0  0  0
  -22.7817  -13.5221   21.1868 C   0  0  0  0  0  0
  -22.1661   -4.2138   21.0981 F   0  0  0  0  0  0
  -21.5635   -3.4537   25.7742 F   0  0  0  0  0  0
  -29.9967  -13.4587   20.3842 N   0  0  0  0  0  0
  -26.2922  -12.9297   20.3299 N   0  0  0  0  0  0
  -25.9284  -11.6468   20.5784 N   0  0  0  0  0  0
  -22.0448  -12.8222   22.0419 N   0  0  0  0  0  0
  -25.4241  -15.1860   20.4142 N   0  0  0  0  0  0
  -31.8662  -14.7201   20.1913 O   0  0  0  0  0  0
  -21.6627   -6.8865   21.4240 O   0  0  0  0  0  0
  -22.3523  -14.5534   20.6712 O   0  0  0  0  0  0
  -24.6232  -31.8617   23.2041 C   0  0  0  0  0  0
  -25.9098  -32.4794   23.8357 C   0  0  1  0  0  0
  -27.2329  -27.3528   20.1268 C   0  0  0  0  0  0
  -25.5931  -33.8591   24.2299 N   0  0  0  0  0  0
  -23.4173  -30.4824   21.5445 C   0  0  2  0  0  0
  -24.8702  -28.9404   20.1096 C   0  0  0  0  0  0
  -22.7464  -29.4624   22.4938 C   0  0  0  0  0  0
  -18.0289  -28.1380   22.8499 C   0  0  0  0  0  0
  -24.1481  -36.7291   23.2635 C   0  0  0  0  0  0
  -25.9534  -30.8034   21.3710 C   0  0  0  0  0  0
  -26.0342  -29.4316   20.7183 C   0  0  0  0  0  0
  -27.2208  -28.6458   20.7259 C   0  0  0  0  0  0
  -26.0578  -26.9037   19.4949 C   0  0  0  0  0  0
  -24.8821  -27.6800   19.4893 C   0  0  0  0  0  0
  -23.6337  -29.8147   20.1594 C   0  0  0  0  0  0
  -25.4109  -36.3094   24.0332 C   0  0  1  0  0  0
  -20.5887  -28.3684   23.1289 C   0  0  2  0  0  0
  -20.6781  -26.9413   22.5415 C   0  0  0  0  0  0
  -19.5759  -26.6385   21.5216 C   0  0  0  0  0  0
  -18.1934  -26.7928   22.1623 C   0  0  0  0  0  0
  -19.1540  -28.8852   23.2884 C   0  0  0  0  0  0
  -18.9461  -30.1461   23.8893 C   0  0  0  0  0  0
  -17.6460  -30.6590   24.0564 C   0  0  0  0  0  0
  -25.9046  -34.9464   23.5113 C   0  0  0  0  0  0
  -16.5358  -29.9087   23.6333 C   0  0  0  0  0  0
  -16.7275  -28.6502   23.0359 C   0  0  0  0  0  0
  -26.4503  -31.6593   25.0714 C   0  0  0  0  0  0
  -25.3752  -31.3733   26.1448 C   0  0  0  0  0  0
  -27.0335  -30.3023   24.6142 C   0  0  0  0  0  0
  -27.6067  -32.4313   25.7485 C   0  0  0  0  0  0
  -27.5578  -37.1801   24.8469 C   0  0  0  0  0  0
  -21.4188  -29.3029   22.3675 N   0  0  0  0  0  0
  -26.4290  -37.3780   23.9414 N   0  0  0  0  0  0
  -24.6826  -31.0648   22.0978 N   0  0  0  0  0  0
  -23.4197  -28.8179   23.3022 O   0  0  0  0  0  0
  -28.3072  -26.4668   20.1785 O   0  0  0  0  0  0
  -26.5600  -34.8926   22.4668 O   0  0  0  0  0  0
  -23.5403  -32.1405   23.7385 O   0  0  0  0  0  0
  -30.3388  -19.3124   22.8043 C   0  0  0  0  0  0
  -30.7148  -18.0499   23.3119 C   0  0  0  0  0  0
  -30.5592  -16.8921   22.5201 C   0  0  0  0  0  0
  -29.8059  -19.4459   21.4970 C   0  0  0  0  0  0
  -30.0411  -17.0011   21.2064 C   0  0  0  0  0  0
  -28.4015  -25.7264   21.3540 C   0  0  0  0  0  0
  -28.7405  -24.4175   21.6178 C   0  0  0  0  0  0
  -29.1155  -23.2826   20.6731 C   0  0  0  0  0  0
  -29.8696  -21.9908   21.2839 C   0  0  0  0  0  0
  -29.4343  -16.1311   18.9965 C   0  0  0  0  0  0
  -29.6670  -18.2763   20.7811 N   0  3  0  0  0  0
  -31.2490  -17.9282   24.6010 N   0  0  0  0  0  0
  -29.3899  -20.7447   20.9621 N   0  0  0  0  0  0
  -29.8939  -15.8156   20.3546 N   0  0  0  0  0  0
  -28.8829  -23.3289   19.4603 O   0  0  0  0  0  0
  -30.8846  -22.1475   21.9743 O   0  0  0  0  0  0
  -28.7236  -24.0708   22.9162 O   0  0  0  0  0  0
  -30.8970  -15.6864   23.0436 F   0  0  0  0  0  0
  -31.4762  -12.4903   19.1649 H   0  0  0  0  0  0
  -30.3643  -11.4176   19.9691 H   0  0  0  0  0  0
  -29.7631  -11.5859   17.5675 H   0  0  0  0  0  0
  -29.6869  -13.3101   17.6341 H   0  0  0  0  0  0
  -27.8520  -11.2619   18.9049 H   0  0  0  0  0  0
  -27.3792  -12.5099   17.7880 H   0  0  0  0  0  0
  -27.6179  -14.2258   19.4642 H   0  0  0  0  0  0
  -28.7088  -12.1445   21.4220 H   0  0  0  0  0  0
  -28.4410  -13.8349   21.7804 H   0  0  0  0  0  0
  -25.2747   -9.5660   22.4760 H   0  0  0  0  0  0
  -23.9985   -7.4608   22.7467 H   0  0  0  0  0  0
  -21.0824   -8.8749   19.8954 H   0  0  0  0  0  0
  -22.3671  -10.9655   19.6163 H   0  0  0  0  0  0
  -21.1990   -7.6137   23.9709 H   0  0  0  0  0  0
  -21.1484   -6.0519   25.9077 H   0  0  0  0  0  0
  -22.0604   -2.7603   23.2853 H   0  0  0  0  0  0
  -22.4053  -11.9893   22.4829 H   0  0  0  0  0  0
  -21.1058  -13.1248   22.2606 H   0  0  0  0  0  0
  -24.6548  -15.8367   20.5329 H   0  0  0  0  0  0
  -26.2670  -15.6328   20.0819 H   0  0  0  0  0  0
  -26.7171  -32.5497   23.1113 H   0  0  0  0  0  0
  -25.0136  -33.9736   25.0484 H   0  0  0  0  0  0
  -22.7102  -31.3015   21.4006 H   0  0  0  0  0  0
  -23.3750  -35.9617   23.3310 H   0  0  0  0  0  0
  -24.3570  -36.8889   22.2046 H   0  0  0  0  0  0
  -23.7223  -37.6495   23.6639 H   0  0  0  0  0  0
  -26.0766  -31.5654   20.6005 H   0  0  0  0  0  0
  -26.8371  -30.8587   21.9956 H   0  0  0  0  0  0
  -28.1126  -29.0087   21.2174 H   0  0  0  0  0  0
  -26.0456  -25.9258   19.0338 H   0  0  0  0  0  0
  -23.9913  -27.2948   19.0118 H   0  0  0  0  0  0
  -23.7473  -30.5900   19.4009 H   0  0  0  0  0  0
  -22.7568  -29.2383   19.8586 H   0  0  0  0  0  0
  -25.1285  -36.1947   25.0824 H   0  0  0  0  0  0
  -20.9981  -28.3253   24.1405 H   0  0  0  0  0  0
  -20.5686  -26.2292   23.3608 H   0  0  0  0  0  0
  -21.6647  -26.7445   22.1207 H   0  0  0  0  0  0
  -19.6919  -25.6293   21.1248 H   0  0  0  0  0  0
  -19.6693  -27.3184   20.6741 H   0  0  0  0  0  0
  -17.4210  -26.6688   21.4019 H   0  0  0  0  0  0
  -18.0333  -26.0055   22.9006 H   0  0  0  0  0  0
  -19.7938  -30.7287   24.2243 H   0  0  0  0  0  0
  -17.5018  -31.6269   24.5164 H   0  0  0  0  0  0
  -15.5360  -30.2991   23.7659 H   0  0  0  0  0  0
  -15.8672  -28.0822   22.7075 H   0  0  0  0  0  0
  -24.5935  -30.7062   25.7799 H   0  0  0  0  0  0
  -24.8940  -32.2903   26.4859 H   0  0  0  0  0  0
  -25.8093  -30.8939   27.0231 H   0  0  0  0  0  0
  -26.2904  -29.6782   24.1164 H   0  0  0  0  0  0
  -27.4050  -29.7259   25.4626 H   0  0  0  0  0  0
  -27.8765  -30.4321   23.9347 H   0  0  0  0  0  0
  -27.2689  -33.3610   26.2067 H   0  0  0  0  0  0
  -28.3878  -32.6868   25.0315 H   0  0  0  0  0  0
  -28.0736  -31.8438   26.5397 H   0  0  0  0  0  0
  -28.2606  -38.0091   24.7518 H   0  0  0  0  0  0
  -28.1061  -36.2623   24.6289 H   0  0  0  0  0  0
  -27.2301  -37.1448   25.8874 H   0  0  0  0  0  0
  -20.9363  -29.8709   21.6848 H   0  0  0  0  0  0
  -26.0176  -38.2854   24.1429 H   0  0  0  0  0  0
  -30.4622  -20.1779   23.4364 H   0  0  0  0  0  0
  -28.1534  -26.3704   22.1880 H   0  0  0  0  0  0
  -28.4651  -16.6301   19.0228 H   0  0  0  0  0  0
  -29.3180  -15.2633   18.3572 H   0  0  0  0  0  0
  -30.1451  -16.7915   18.4976 H   0  0  0  0  0  0
  -29.2707  -18.3536   19.8418 H   0  0  0  0  0  0
  -30.8562  -18.5400   25.3045 H   0  0  0  0  0  0
  -31.3001  -16.9690   24.9252 H   0  0  0  0  0  0
  -28.6465  -20.7516   20.2781 H   0  0  0  0  0  0
  -28.4913  -24.8417   23.4159 H   0  0  0  0  0  0
  1 25  1  0  0  0
  1 30  2  0  0  0
  1 84  1  0  0  0
  2  3  1  0  0  0
  2 25  1  0  0  0
  2 89  1  0  0  0
  2 90  1  0  0  0
  3  4  1  0  0  0
  3 91  1  0  0  0
  3 92  1  0  0  0
  4  5  1  0  0  0
  4 93  1  0  0  0
  4 94  1  0  0  0
  5  6  1  0  0  0
  5 26  1  0  0  0
  5 95  1  0  0  0
  6 25  1  0  0  0
  6 96  1  0  0  0
  6 97  1  0  0  0
  7  8  2  0  0  0
  7 26  1  0  0  0
  7 29  1  0  0  0
  8  9  1  0  0  0
  8 22  1  0  0  0
  9 10  1  0  0  0
  9 27  2  0  0  0
 10 11  2  0  0  0
 10 15  1  0  0  0
 11 12  1  0  0  0
 11 98  1  0  0  0
 12 13  2  0  0  0
 12 99  1  0  0  0
 13 14  1  0  0  0
 13 31  1  0  0  0
 14 15  2  0  0  0
 14100  1  0  0  0
 15101  1  0  0  0
 16 17  2  0  0  0
 16 21  1  0  0  0
 16 31  1  0  0  0
 17 18  1  0  0  0
 17102  1  0  0  0
 18 19  2  0  0  0
 18103  1  0  0  0
 19 20  1  0  0  0
 19 24  1  0  0  0
 20 21  2  0  0  0
 20104  1  0  0  0
 21 23  1  0  0  0
 22 28  1  0  0  0
 22 32  2  0  0  0
 26 27  1  0  0  0
 28105  1  0  0  0
 28106  1  0  0  0
 29107  1  0  0  0
 29108  1  0  0  0
 33 34  1  0  0  0
 33 66  1  0  0  0
 33 70  2  0  0  0
 34 36  1  0  0  0
 34 59  1  0  0  0
 34109  1  0  0  0
 35 44  2  0  0  0
 35 45  1  0  0  0
 35 68  1  0  0  0
 36 56  1  0  0  0
 36110  1  0  0  0
 37 39  1  0  0  0
 37 47  1  0  0  0
 37 66  1  0  0  0
 37111  1  0  0  0
 38 43  2  0  0  0
 38 46  1  0  0  0
 38 47  1  0  0  0
 39 64  1  0  0  0
 39 67  2  0  0  0
 40 52  1  0  0  0
 40 53  2  0  0  0
 40 58  1  0  0  0
 41112  1  0  0  0
 41113  1  0  0  0
 41114  1  0  0  0
 41 48  1  0  0  0
 42 43  1  0  0  0
 42 66  1  0  0  0
 42115  1  0  0  0
 42116  1  0  0  0
 43 44  1  0  0  0
 44117  1  0  0  0
 45 46  2  0  0  0
 45118  1  0  0  0
 46119  1  0  0  0
 47120  1  0  0  0
 47121  1  0  0  0
 48 56  1  0  0  0
 48 65  1  0  0  0
 48122  1  0  0  0
 49 50  1  0  0  0
 49 53  1  0  0  0
 49 64  1  0  0  0
 49123  1  0  0  0
 50 51  1  0  0  0
 50124  1  0  0  0
 50125  1  0  0  0
 51 52  1  0  0  0
 51126  1  0  0  0
 51127  1  0  0  0
 52128  1  0  0  0
 52129  1  0  0  0
 53 54  1  0  0  0
 54 55  2  0  0  0
 54130  1  0  0  0
 55 57  1  0  0  0
 55131  1  0  0  0
 56 69  2  0  0  0
 57 58  2  0  0  0
 57132  1  0  0  0
 58133  1  0  0  0
 59 60  1  0  0  0
 59 61  1  0  0  0
 59 62  1  0  0  0
 60134  1  0  0  0
 60135  1  0  0  0
 60136  1  0  0  0
 61137  1  0  0  0
 61138  1  0  0  0
 61139  1  0  0  0
 62140  1  0  0  0
 62141  1  0  0  0
 62142  1  0  0  0
 63 65  1  0  0  0
 63143  1  0  0  0
 63144  1  0  0  0
 63145  1  0  0  0
 64146  1  0  0  0
 65147  1  0  0  0
 68 76  1  0  0  0
 71 72  2  0  0  0
 71 74  1  0  0  0
 71148  1  0  0  0
 72 73  1  0  0  0
 72 82  1  0  0  0
 73 75  2  0  0  0
 73 88  1  0  0  0
 74 81  2  0  0  0
 74 83  1  0  0  0
 75 81  1  0  0  0
 75 84  1  0  0  0
 76 77  2  0  0  0
 76149  1  0  0  0
 77 78  1  0  0  0
 77 87  1  0  0  0
 78 79  1  0  0  0
 78 85  2  0  0  0
 79 83  1  0  0  0
 79 86  2  0  0  0
 80 84  1  0  0  0
 80150  1  0  0  0
 80151  1  0  0  0
 80152  1  0  0  0
 81153  1  0  0  0
 82154  1  0  0  0
 82155  1  0  0  0
 83156  1  0  0  0
 87157  1  0  0  0
M  CHG  1  81   1
M  ISO  4   1 100  68 101  76 101  84 100
M  END
> <chiral flag>
0

> <version>
0

> <s_m_source_file>
/data/baiqing/PycharmProjects/Reinvent-master-3.2/result/LINK_invent/BTK/process_docking_weight1_custom_product_contain_oxygen_bond_distance_aromatic_linkinvent_7_9_3/rearranged_h_0179.sdf

> <i_m_source_file_index>
52

> <r_mmod_Potential_Energy-OPLS-2005>
247.543060302734

> <r_mmod_Stretch_Energy-OPLS-2005>
85.3799285888672

> <r_mmod_Bend_Energy-OPLS-2005>
149.212173461914

> <r_mmod_Torsional_Energy-OPLS-2005>
311.223937988281

> <r_mmod_Improper_Torsional_Energy-OPLS-2005>
20.1133689880371

> <r_mmod_Van_der_Waal_Energy-OPLS-2005>
154.812210083008

> <r_mmod_Electrostatic_Energy-OPLS-2005>
-83.7054290771484

> <r_mmod_Solvation_Energy-OPLS-2005>
-446.265472412109

> <b_mmod_Minimization_Converged-OPLS-2005>
0

> <r_mmod_RMS_Derivative-OPLS-2005>
1.68925786018372

$$$$
52
                    3D
 Structure written by MMmdl.
153161  0  0  1  0            999 V2000
  -30.6248  -14.7707   20.4518 C   0  0  0  0  0  0
  -30.4429  -12.4733   19.4593 C   0  0  0  0  0  0
  -29.5130  -12.4928   18.2270 C   0  0  0  0  0  0
  -28.0367  -12.3316   18.6441 C   0  0  0  0  0  0
  -27.6436  -13.2355   19.8417 C   0  0  2  0  0  0
  -28.6978  -13.1857   20.9684 C   0  0  0  0  0  0
  -25.2533  -13.8199   20.5702 C   0  0  0  0  0  0
  -24.1827  -13.0420   20.9228 C   0  0  0  0  0  0
  -24.6438  -11.6913   20.8749 C   0  0  0  0  0  0
  -23.9098  -10.4284   21.0401 C   0  0  0  0  0  0
  -24.3641   -9.4191   21.9179 C   0  0  0  0  0  0
  -23.6310   -8.2232   22.0744 C   0  0  0  0  0  0
  -22.4286   -8.0284   21.3534 C   0  0  0  0  0  0
  -21.9929   -9.0260   20.4639 C   0  0  0  0  0  0
  -22.7269  -10.2138   20.3053 C   0  0  0  0  0  0
  -21.6849   -6.0749   22.5274 C   0  0  0  0  0  0
  -21.4010   -6.5641   23.8216 C   0  0  0  0  0  0
  -21.3659   -5.6791   24.9175 C   0  0  0  0  0  0
  -21.6045   -4.3056   24.7230 C   0  0  0  0  0  0
  -21.8822   -3.8156   23.4345 C   0  0  0  0  0  0
  -21.9202   -4.6971   22.3404 C   0  0  0  0  0  0
  -22.7838  -13.5186   21.1902 C   0  0  0  0  0  0
  -22.1661   -4.2160   21.0980 F   0  0  0  0  0  0
  -21.5639   -3.4535   25.7743 F   0  0  0  0  0  0
  -29.9895  -13.5491   20.3707 N   0  0  0  0  0  0
  -26.2973  -12.9419   20.3279 N   0  0  0  0  0  0
  -25.9379  -11.6559   20.5760 N   0  0  0  0  0  0
  -22.0505  -12.8153   22.0464 N   0  0  0  0  0  0
  -25.4172  -15.1921   20.4044 N   0  0  0  0  0  0
  -31.8331  -14.8405   20.2077 O   0  0  0  0  0  0
  -21.6635   -6.8883   21.4236 O   0  0  0  0  0  0
  -22.3505  -14.5498   20.6772 O   0  0  0  0  0  0
  -24.6315  -31.8521   23.1926 C   0  0  0  0  0  0
  -25.9122  -32.4757   23.8294 C   0  0  1  0  0  0
  -27.2502  -27.2373   20.1560 C   0  0  0  0  0  0
  -25.5942  -33.8544   24.2232 N   0  0  0  0  0  0
  -23.4352  -30.4670   21.5335 C   0  0  2  0  0  0
  -24.8921  -28.9011   20.1193 C   0  0  0  0  0  0
  -22.7534  -29.4542   22.4863 C   0  0  0  0  0  0
  -18.0319  -28.1362   22.8467 C   0  0  0  0  0  0
  -24.1480  -36.7220   23.2639 C   0  0  0  0  0  0
  -25.9819  -30.7565   21.3750 C   0  0  0  0  0  0
  -26.0610  -29.3730   20.7301 C   0  0  0  0  0  0
  -27.2405  -28.5557   20.7315 C   0  0  0  0  0  0
  -26.0565  -26.8371   19.5125 C   0  0  0  0  0  0
  -24.8963  -27.6422   19.4993 C   0  0  0  0  0  0
  -23.6590  -29.7862   20.1561 C   0  0  0  0  0  0
  -25.4117  -36.3028   24.0313 C   0  0  1  0  0  0
  -20.5936  -28.3660   23.1227 C   0  0  2  0  0  0
  -20.6788  -26.9369   22.5373 C   0  0  0  0  0  0
  -19.5762  -26.6368   21.5166 C   0  0  0  0  0  0
  -18.1955  -26.7925   22.1592 C   0  0  0  0  0  0
  -19.1577  -28.8832   23.2850 C   0  0  0  0  0  0
  -18.9500  -30.1439   23.8868 C   0  0  0  0  0  0
  -17.6504  -30.6566   24.0562 C   0  0  0  0  0  0
  -25.9062  -34.9424   23.5073 C   0  0  0  0  0  0
  -16.5387  -29.9057   23.6349 C   0  0  0  0  0  0
  -16.7312  -28.6487   23.0334 C   0  0  0  0  0  0
  -26.4527  -31.6611   25.0692 C   0  0  0  0  0  0
  -25.3754  -31.3735   26.1406 C   0  0  0  0  0  0
  -27.0410  -30.3059   24.6169 C   0  0  0  0  0  0
  -27.6110  -32.4355   25.7436 C   0  0  0  0  0  0
  -27.5558  -37.1741   24.8476 C   0  0  0  0  0  0
  -21.4230  -29.3010   22.3599 N   0  0  0  0  0  0
  -26.4275  -37.3743   23.9413 N   0  0  0  0  0  0
  -24.7027  -31.0454   22.0901 N   0  0  0  0  0  0
  -23.4223  -28.8045   23.2955 O   0  0  0  0  0  0
  -28.3703  -26.3600   20.1798 O   0  0  0  0  0  0
  -26.5631  -34.8906   22.4627 O   0  0  0  0  0  0
  -23.5463  -32.1344   23.7212 O   0  0  0  0  0  0
  -29.9513  -19.7445   20.5855 C   0  0  0  0  0  0
  -31.1301  -19.5853   21.2830 C   0  0  0  0  0  0
  -30.2020  -17.3529   20.6602 C   0  0  0  0  0  0
  -29.3247  -22.2842   20.8370 C   0  0  0  0  0  0
  -31.9343  -23.5760   19.7517 C   0  0  0  0  0  0
  -30.7174  -24.3775   20.2622 C   0  0  0  0  0  0
  -28.2193  -24.8849   20.5339 C   0  0  0  0  0  0
  -29.3104  -23.7352   20.0949 C   0  0  2  0  0  0
  -29.4419  -18.4293   20.2319 N   0  0  0  0  0  0
  -29.4629  -21.0843   20.1440 N   0  0  0  0  0  0
  -29.8430  -15.9203   20.4991 N   0  0  0  0  0  0
  -29.2196  -22.2650   22.0661 O   0  0  0  0  0  0
  -31.9127  -20.6080   21.7079 F   0  0  0  0  0  0
  -29.1267  -23.5113   18.7903 F   0  0  0  0  0  0
  -31.6380  -17.9150   21.5268 S   0  0  0  0  0  0
  -31.4802  -12.6068   19.1477 H   0  0  0  0  0  0
  -30.4089  -11.5025   19.9573 H   0  0  0  0  0  0
  -29.7877  -11.6940   17.5374 H   0  0  0  0  0  0
  -29.6469  -13.4294   17.6844 H   0  0  0  0  0  0
  -27.8857  -11.2828   18.9040 H   0  0  0  0  0  0
  -27.3804  -12.5281   17.7961 H   0  0  0  0  0  0
  -27.6304  -14.2543   19.4541 H   0  0  0  0  0  0
  -28.7511  -12.1891   21.4103 H   0  0  0  0  0  0
  -28.4441  -13.8702   21.7786 H   0  0  0  0  0  0
  -25.2787   -9.5657   22.4750 H   0  0  0  0  0  0
  -24.0023   -7.4610   22.7446 H   0  0  0  0  0  0
  -21.0873   -8.8768   19.8937 H   0  0  0  0  0  0
  -22.3718  -10.9671   19.6162 H   0  0  0  0  0  0
  -21.1975   -7.6146   23.9720 H   0  0  0  0  0  0
  -21.1476   -6.0520   25.9081 H   0  0  0  0  0  0
  -22.0606   -2.7618   23.2841 H   0  0  0  0  0  0
  -22.4148  -11.9790   22.4776 H   0  0  0  0  0  0
  -21.1129  -13.1132   22.2736 H   0  0  0  0  0  0
  -24.6329  -15.8298   20.4942 H   0  0  0  0  0  0
  -26.2465  -15.6349   20.0302 H   0  0  0  0  0  0
  -26.7183  -32.5428   23.1021 H   0  0  0  0  0  0
  -25.0128  -33.9690   25.0400 H   0  0  0  0  0  0
  -22.7348  -31.2905   21.3752 H   0  0  0  0  0  0
  -23.3768  -35.9527   23.3324 H   0  0  0  0  0  0
  -24.3568  -36.8866   22.2053 H   0  0  0  0  0  0
  -23.7243  -37.6398   23.6696 H   0  0  0  0  0  0
  -26.1187  -31.5063   20.5957 H   0  0  0  0  0  0
  -26.8600  -30.8182   22.0064 H   0  0  0  0  0  0
  -28.1382  -28.9167   21.2135 H   0  0  0  0  0  0
  -26.0129  -25.8800   19.0151 H   0  0  0  0  0  0
  -23.9988  -27.2848   19.0121 H   0  0  0  0  0  0
  -23.7837  -30.5533   19.3926 H   0  0  0  0  0  0
  -22.7834  -29.2095   19.8467 H   0  0  0  0  0  0
  -25.1311  -36.1848   25.0812 H   0  0  0  0  0  0
  -21.0082  -28.3249   24.1328 H   0  0  0  0  0  0
  -20.5650  -26.2264   23.3581 H   0  0  0  0  0  0
  -21.6650  -26.7347   22.1176 H   0  0  0  0  0  0
  -19.6899  -25.6274   21.1179 H   0  0  0  0  0  0
  -19.6715  -27.3180   20.6698 H   0  0  0  0  0  0
  -17.4224  -26.6681   21.4002 H   0  0  0  0  0  0
  -18.0369  -26.0068   22.8979 H   0  0  0  0  0  0
  -19.7984  -30.7257   24.2235 H   0  0  0  0  0  0
  -17.5062  -31.6266   24.5120 H   0  0  0  0  0  0
  -15.5380  -30.2929   23.7721 H   0  0  0  0  0  0
  -15.8733  -28.0815   22.7023 H   0  0  0  0  0  0
  -24.5959  -30.7065   25.7704 H   0  0  0  0  0  0
  -24.8863  -32.2871   26.4770 H   0  0  0  0  0  0
  -25.8034  -30.8944   27.0224 H   0  0  0  0  0  0
  -26.2969  -29.6746   24.1295 H   0  0  0  0  0  0
  -27.4262  -29.7388   25.4648 H   0  0  0  0  0  0
  -27.8783  -30.4385   23.9328 H   0  0  0  0  0  0
  -27.2814  -33.3777   26.1817 H   0  0  0  0  0  0
  -28.3985  -32.6719   25.0268 H   0  0  0  0  0  0
  -28.0706  -31.8604   26.5478 H   0  0  0  0  0  0
  -28.2554  -38.0052   24.7562 H   0  0  0  0  0  0
  -28.1099  -36.2581   24.6312 H   0  0  0  0  0  0
  -27.2281  -37.1417   25.8886 H   0  0  0  0  0  0
  -20.9429  -29.8776   21.6832 H   0  0  0  0  0  0
  -26.0142  -38.2794   24.1494 H   0  0  0  0  0  0
  -32.8523  -24.1421   19.9137 H   0  0  0  0  0  0
  -31.8620  -23.3867   18.6822 H   0  0  0  0  0  0
  -32.0553  -22.6198   20.2602 H   0  0  0  0  0  0
  -30.7228  -25.3270   19.7266 H   0  0  0  0  0  0
  -30.8744  -24.6220   21.3152 H   0  0  0  0  0  0
  -27.2389  -24.5230   20.2303 H   0  0  0  0  0  0
  -28.1820  -24.8704   21.6223 H   0  0  0  0  0  0
  -29.3540  -21.1861   19.1457 H   0  0  0  0  0  0
  -28.8566  -15.7544   20.4055 H   0  0  0  0  0  0
  1 25  1  0  0  0
  1 30  2  0  0  0
  1 81  1  0  0  0
  2  3  1  0  0  0
  2 25  1  0  0  0
  2 86  1  0  0  0
  2 87  1  0  0  0
  3  4  1  0  0  0
  3 88  1  0  0  0
  3 89  1  0  0  0
  4  5  1  0  0  0
  4 90  1  0  0  0
  4 91  1  0  0  0
  5  6  1  0  0  0
  5 26  1  0  0  0
  5 92  1  0  0  0
  6 25  1  0  0  0
  6 93  1  0  0  0
  6 94  1  0  0  0
  7  8  2  0  0  0
  7 26  1  0  0  0
  7 29  1  0  0  0
  8  9  1  0  0  0
  8 22  1  0  0  0
  9 10  1  0  0  0
  9 27  2  0  0  0
 10 11  2  0  0  0
 10 15  1  0  0  0
 11 12  1  0  0  0
 11 95  1  0  0  0
 12 13  2  0  0  0
 12 96  1  0  0  0
 13 14  1  0  0  0
 13 31  1  0  0  0
 14 15  2  0  0  0
 14 97  1  0  0  0
 15 98  1  0  0  0
 16 17  2  0  0  0
 16 21  1  0  0  0
 16 31  1  0  0  0
 17 18  1  0  0  0
 17 99  1  0  0  0
 18 19  2  0  0  0
 18100  1  0  0  0
 19 20  1  0  0  0
 19 24  1  0  0  0
 20 21  2  0  0  0
 20101  1  0  0  0
 21 23  1  0  0  0
 22 28  1  0  0  0
 22 32  2  0  0  0
 26 27  1  0  0  0
 28102  1  0  0  0
 28103  1  0  0  0
 29104  1  0  0  0
 29105  1  0  0  0
 33 34  1  0  0  0
 33 66  1  0  0  0
 33 70  2  0  0  0
 34 36  1  0  0  0
 34 59  1  0  0  0
 34106  1  0  0  0
 35 44  2  0  0  0
 35 45  1  0  0  0
 35 68  1  0  0  0
 36 56  1  0  0  0
 36107  1  0  0  0
 37 39  1  0  0  0
 37 47  1  0  0  0
 37 66  1  0  0  0
 37108  1  0  0  0
 38 43  2  0  0  0
 38 46  1  0  0  0
 38 47  1  0  0  0
 39 64  1  0  0  0
 39 67  2  0  0  0
 40 52  1  0  0  0
 40 53  2  0  0  0
 40 58  1  0  0  0
 41109  1  0  0  0
 41110  1  0  0  0
 41111  1  0  0  0
 41 48  1  0  0  0
 42 43  1  0  0  0
 42 66  1  0  0  0
 42112  1  0  0  0
 42113  1  0  0  0
 43 44  1  0  0  0
 44114  1  0  0  0
 45 46  2  0  0  0
 45115  1  0  0  0
 46116  1  0  0  0
 47117  1  0  0  0
 47118  1  0  0  0
 48 56  1  0  0  0
 48 65  1  0  0  0
 48119  1  0  0  0
 49 50  1  0  0  0
 49 53  1  0  0  0
 49 64  1  0  0  0
 49120  1  0  0  0
 50 51  1  0  0  0
 50121  1  0  0  0
 50122  1  0  0  0
 51 52  1  0  0  0
 51123  1  0  0  0
 51124  1  0  0  0
 52125  1  0  0  0
 52126  1  0  0  0
 53 54  1  0  0  0
 54 55  2  0  0  0
 54127  1  0  0  0
 55 57  1  0  0  0
 55128  1  0  0  0
 56 69  2  0  0  0
 57 58  2  0  0  0
 57129  1  0  0  0
 58130  1  0  0  0
 59 60  1  0  0  0
 59 61  1  0  0  0
 59 62  1  0  0  0
 60131  1  0  0  0
 60132  1  0  0  0
 60133  1  0  0  0
 61134  1  0  0  0
 61135  1  0  0  0
 61136  1  0  0  0
 62137  1  0  0  0
 62138  1  0  0  0
 62139  1  0  0  0
 63 65  1  0  0  0
 63140  1  0  0  0
 63141  1  0  0  0
 63142  1  0  0  0
 64143  1  0  0  0
 65144  1  0  0  0
 68 77  1  0  0  0
 71 72  2  0  0  0
 71 79  1  0  0  0
 71 80  1  0  0  0
 72 83  1  0  0  0
 72 85  1  0  0  0
 73 79  2  0  0  0
 73 81  1  0  0  0
 73 85  1  0  0  0
 74 78  1  0  0  0
 74 80  1  0  0  0
 74 82  2  0  0  0
 75 76  1  0  0  0
 75145  1  0  0  0
 75146  1  0  0  0
 75147  1  0  0  0
 76 78  1  0  0  0
 76148  1  0  0  0
 76149  1  0  0  0
 77 78  1  0  0  0
 77150  1  0  0  0
 77151  1  0  0  0
 78 84  1  0  0  0
 80152  1  0  0  0
 81153  1  0  0  0
M  ISO  4   1 100  68 101  77 101  81 100
M  END
> <chiral flag>
0

> <version>
0

> <s_m_source_file>
/data/baiqing/PycharmProjects/Reinvent-master-3.2/result/LINK_invent/BTK/process_docking_weight1_custom_product_contain_oxygen_bond_distance_aromatic_linkinvent_7_9_3/rearranged_h_0179.sdf

> <i_m_source_file_index>
53

> <r_mmod_Potential_Energy-OPLS-2005>
170.041076660156

> <r_mmod_Stretch_Energy-OPLS-2005>
143.155822753906

> <r_mmod_Bend_Energy-OPLS-2005>
174.605346679688

> <r_mmod_Torsional_Energy-OPLS-2005>
257.482940673828

> <r_mmod_Improper_Torsional_Energy-OPLS-2005>
9.04217910766602

> <r_mmod_Van_der_Waal_Energy-OPLS-2005>
112.085746765137

> <r_mmod_Electrostatic_Energy-OPLS-2005>
-402.120147705078

> <r_mmod_Solvation_Energy-OPLS-2005>
-221.575531005859

> <b_mmod_Minimization_Converged-OPLS-2005>
0

> <r_mmod_RMS_Derivative-OPLS-2005>
3.97451639175415

$$$$
53
                    3D
 Structure written by MMmdl.
146154  0  0  1  0            999 V2000
  -30.5680  -14.8405   20.4327 C   0  0  0  0  0  0
  -30.4364  -12.5104   19.4978 C   0  0  0  0  0  0
  -29.5189  -12.5214   18.2533 C   0  0  0  0  0  0
  -28.0469  -12.3283   18.6636 C   0  0  0  0  0  0
  -27.6387  -13.2398   19.8509 C   0  0  2  0  0  0
  -28.6793  -13.2086   20.9921 C   0  0  0  0  0  0
  -25.2491  -13.8208   20.5704 C   0  0  0  0  0  0
  -24.1792  -13.0442   20.9210 C   0  0  0  0  0  0
  -24.6394  -11.6923   20.8745 C   0  0  0  0  0  0
  -23.9075  -10.4295   21.0403 C   0  0  0  0  0  0
  -24.3624   -9.4210   21.9182 C   0  0  0  0  0  0
  -23.6296   -8.2245   22.0753 C   0  0  0  0  0  0
  -22.4278   -8.0283   21.3544 C   0  0  0  0  0  0
  -21.9914   -9.0257   20.4647 C   0  0  0  0  0  0
  -22.7245  -10.2135   20.3055 C   0  0  0  0  0  0
  -21.6856   -6.0736   22.5278 C   0  0  0  0  0  0
  -21.4017   -6.5639   23.8211 C   0  0  0  0  0  0
  -21.3661   -5.6792   24.9173 C   0  0  0  0  0  0
  -21.6043   -4.3055   24.7224 C   0  0  0  0  0  0
  -21.8819   -3.8147   23.4346 C   0  0  0  0  0  0
  -21.9194   -4.6964   22.3402 C   0  0  0  0  0  0
  -22.7812  -13.5218   21.1870 C   0  0  0  0  0  0
  -22.1662   -4.2149   21.0979 F   0  0  0  0  0  0
  -21.5628   -3.4539   25.7737 F   0  0  0  0  0  0
  -29.9752  -13.5872   20.4144 N   0  0  0  0  0  0
  -26.2921  -12.9428   20.3278 N   0  0  0  0  0  0
  -25.9327  -11.6563   20.5747 N   0  0  0  0  0  0
  -22.0463  -12.8207   22.0429 N   0  0  0  0  0  0
  -25.4175  -15.1936   20.4134 N   0  0  0  0  0  0
  -31.7485  -14.9307   20.0771 O   0  0  0  0  0  0
  -21.6643   -6.8880   21.4240 O   0  0  0  0  0  0
  -22.3494  -14.5523   20.6717 O   0  0  0  0  0  0
  -24.6366  -31.8484   23.1916 C   0  0  0  0  0  0
  -25.9165  -32.4717   23.8288 C   0  0  1  0  0  0
  -27.2247  -27.2015   20.1356 C   0  0  0  0  0  0
  -25.5934  -33.8522   24.2209 N   0  0  0  0  0  0
  -23.4372  -30.4679   21.5351 C   0  0  2  0  0  0
  -24.8867  -28.9031   20.1047 C   0  0  0  0  0  0
  -22.7533  -29.4564   22.4875 C   0  0  0  0  0  0
  -18.0298  -28.1393   22.8480 C   0  0  0  0  0  0
  -24.1491  -36.7270   23.2643 C   0  0  0  0  0  0
  -25.9866  -30.7418   21.3805 C   0  0  0  0  0  0
  -26.0582  -29.3589   20.7213 C   0  0  0  0  0  0
  -27.2248  -28.5196   20.7262 C   0  0  0  0  0  0
  -26.0286  -26.8254   19.4859 C   0  0  0  0  0  0
  -24.8807  -27.6478   19.4744 C   0  0  0  0  0  0
  -23.6592  -29.7969   20.1525 C   0  0  0  0  0  0
  -25.4121  -36.3047   24.0319 C   0  0  1  0  0  0
  -20.5906  -28.3710   23.1252 C   0  0  2  0  0  0
  -20.6782  -26.9420   22.5408 C   0  0  0  0  0  0
  -19.5757  -26.6382   21.5212 C   0  0  0  0  0  0
  -18.1939  -26.7932   22.1625 C   0  0  0  0  0  0
  -19.1553  -28.8869   23.2859 C   0  0  0  0  0  0
  -18.9472  -30.1467   23.8884 C   0  0  0  0  0  0
  -17.6469  -30.6591   24.0562 C   0  0  0  0  0  0
  -25.9065  -34.9420   23.5073 C   0  0  0  0  0  0
  -16.5361  -29.9087   23.6333 C   0  0  0  0  0  0
  -16.7283  -28.6505   23.0353 C   0  0  0  0  0  0
  -26.4512  -31.6570   25.0709 C   0  0  0  0  0  0
  -25.3716  -31.3739   26.1416 C   0  0  0  0  0  0
  -27.0375  -30.2977   24.6248 C   0  0  0  0  0  0
  -27.6049  -32.4332   25.7491 C   0  0  0  0  0  0
  -27.5577  -37.1791   24.8466 C   0  0  0  0  0  0
  -21.4232  -29.3042   22.3628 N   0  0  0  0  0  0
  -26.4290  -37.3754   23.9407 N   0  0  0  0  0  0
  -24.7061  -31.0394   22.0916 N   0  0  0  0  0  0
  -23.4206  -28.8116   23.3007 O   0  0  0  0  0  0
  -28.3045  -26.2750   20.2530 O   0  0  0  0  0  0
  -26.5652  -34.8909   22.4652 O   0  0  0  0  0  0
  -23.5503  -32.1335   23.7177 O   0  0  0  0  0  0
  -30.2724  -19.5823   19.0239 C   0  0  0  0  0  0
  -29.4985  -19.8075   20.1406 C   0  0  0  0  0  0
  -29.9216  -17.4103   20.2832 C   0  0  0  0  0  0
  -28.2919  -24.9068   19.7822 C   0  0  0  0  0  0
  -28.6903  -23.7266   20.4340 C   0  0  0  0  0  0
  -28.7902  -22.3476   19.7677 C   0  0  0  0  0  0
  -29.3119  -18.5327   20.8403 N   0  0  0  0  0  0
  -29.0721  -21.2033   20.5348 N   0  0  0  0  0  0
  -29.8011  -15.9787   20.7296 N   0  0  0  0  0  0
  -28.6238  -22.2234   18.5519 O   0  0  0  0  0  0
  -29.0468  -23.8090   21.7231 O   0  0  0  0  0  0
  -30.7950  -17.9021   18.8293 S   0  0  0  0  0  0
  -31.4764  -12.6426   19.1953 H   0  0  0  0  0  0
  -30.3961  -11.5416   19.9982 H   0  0  0  0  0  0
  -29.8184  -11.7393   17.5544 H   0  0  0  0  0  0
  -29.6311  -13.4674   17.7212 H   0  0  0  0  0  0
  -27.9195  -11.2817   18.9428 H   0  0  0  0  0  0
  -27.3891  -12.4973   17.8103 H   0  0  0  0  0  0
  -27.6223  -14.2550   19.4535 H   0  0  0  0  0  0
  -28.7326  -12.2173   21.4446 H   0  0  0  0  0  0
  -28.3941  -13.8935   21.7920 H   0  0  0  0  0  0
  -25.2768   -9.5687   22.4759 H   0  0  0  0  0  0
  -24.0005   -7.4639   22.7473 H   0  0  0  0  0  0
  -21.0845   -8.8777   19.8954 H   0  0  0  0  0  0
  -22.3701  -10.9674   19.6167 H   0  0  0  0  0  0
  -21.2009   -7.6147   23.9714 H   0  0  0  0  0  0
  -21.1482   -6.0523   25.9075 H   0  0  0  0  0  0
  -22.0597   -2.7609   23.2846 H   0  0  0  0  0  0
  -22.4087  -11.9873   22.4819 H   0  0  0  0  0  0
  -21.1080  -13.1227   22.2637 H   0  0  0  0  0  0
  -24.6477  -15.8449   20.5230 H   0  0  0  0  0  0
  -26.2623  -15.6356   20.0747 H   0  0  0  0  0  0
  -26.7229  -32.5344   23.1020 H   0  0  0  0  0  0
  -25.0054  -33.9644   25.0337 H   0  0  0  0  0  0
  -22.7366  -31.2917   21.3839 H   0  0  0  0  0  0
  -23.3754  -35.9601   23.3296 H   0  0  0  0  0  0
  -24.3578  -36.8910   22.2059 H   0  0  0  0  0  0
  -23.7246  -37.6465   23.6683 H   0  0  0  0  0  0
  -26.1347  -31.4998   20.6102 H   0  0  0  0  0  0
  -26.8602  -30.7907   22.0189 H   0  0  0  0  0  0
  -28.1172  -28.8581   21.2334 H   0  0  0  0  0  0
  -25.9485  -25.8566   19.0157 H   0  0  0  0  0  0
  -23.9828  -27.2922   18.9878 H   0  0  0  0  0  0
  -23.7882  -30.5718   19.3959 H   0  0  0  0  0  0
  -22.7760  -29.2336   19.8460 H   0  0  0  0  0  0
  -25.1308  -36.1882   25.0811 H   0  0  0  0  0  0
  -20.9999  -28.3298   24.1372 H   0  0  0  0  0  0
  -20.5676  -26.2323   23.3621 H   0  0  0  0  0  0
  -21.6649  -26.7431   22.1207 H   0  0  0  0  0  0
  -19.6919  -25.6289   21.1252 H   0  0  0  0  0  0
  -19.6694  -27.3184   20.6735 H   0  0  0  0  0  0
  -17.4207  -26.6675   21.4029 H   0  0  0  0  0  0
  -18.0340  -26.0079   22.9027 H   0  0  0  0  0  0
  -19.7948  -30.7286   24.2248 H   0  0  0  0  0  0
  -17.5024  -31.6269   24.5167 H   0  0  0  0  0  0
  -15.5361  -30.2984   23.7663 H   0  0  0  0  0  0
  -15.8683  -28.0819   22.7075 H   0  0  0  0  0  0
  -24.5889  -30.7095   25.7736 H   0  0  0  0  0  0
  -24.8912  -32.2916   26.4821 H   0  0  0  0  0  0
  -25.8013  -30.8921   27.0208 H   0  0  0  0  0  0
  -26.2978  -29.6704   24.1262 H   0  0  0  0  0  0
  -27.4020  -29.7268   25.4799 H   0  0  0  0  0  0
  -27.8870  -30.4233   23.9532 H   0  0  0  0  0  0
  -27.2639  -33.3637   26.2041 H   0  0  0  0  0  0
  -28.3872  -32.6887   25.0331 H   0  0  0  0  0  0
  -28.0705  -31.8480   26.5431 H   0  0  0  0  0  0
  -28.2591  -38.0090   24.7508 H   0  0  0  0  0  0
  -28.1076  -36.2620   24.6298 H   0  0  0  0  0  0
  -27.2294  -37.1446   25.8869 H   0  0  0  0  0  0
  -20.9432  -29.8754   21.6813 H   0  0  0  0  0  0
  -26.0161  -38.2825   24.1403 H   0  0  0  0  0  0
  -30.6048  -20.3160   18.3021 H   0  0  0  0  0  0
  -27.9730  -24.8697   18.7490 H   0  0  0  0  0  0
  -29.0279  -21.3764   21.5295 H   0  0  0  0  0  0
  -28.9370  -15.7708   21.2033 H   0  0  0  0  0  0
  -28.9512  -24.7187   21.9764 H   0  0  0  0  0  0
  1 25  1  0  0  0
  1 30  2  0  0  0
  1 79  1  0  0  0
  2  3  1  0  0  0
  2 25  1  0  0  0
  2 83  1  0  0  0
  2 84  1  0  0  0
  3  4  1  0  0  0
  3 85  1  0  0  0
  3 86  1  0  0  0
  4  5  1  0  0  0
  4 87  1  0  0  0
  4 88  1  0  0  0
  5  6  1  0  0  0
  5 26  1  0  0  0
  5 89  1  0  0  0
  6 25  1  0  0  0
  6 90  1  0  0  0
  6 91  1  0  0  0
  7  8  2  0  0  0
  7 26  1  0  0  0
  7 29  1  0  0  0
  8  9  1  0  0  0
  8 22  1  0  0  0
  9 10  1  0  0  0
  9 27  2  0  0  0
 10 11  2  0  0  0
 10 15  1  0  0  0
 11 12  1  0  0  0
 11 92  1  0  0  0
 12 13  2  0  0  0
 12 93  1  0  0  0
 13 14  1  0  0  0
 13 31  1  0  0  0
 14 15  2  0  0  0
 14 94  1  0  0  0
 15 95  1  0  0  0
 16 17  2  0  0  0
 16 21  1  0  0  0
 16 31  1  0  0  0
 17 18  1  0  0  0
 17 96  1  0  0  0
 18 19  2  0  0  0
 18 97  1  0  0  0
 19 20  1  0  0  0
 19 24  1  0  0  0
 20 21  2  0  0  0
 20 98  1  0  0  0
 21 23  1  0  0  0
 22 28  1  0  0  0
 22 32  2  0  0  0
 26 27  1  0  0  0
 28 99  1  0  0  0
 28100  1  0  0  0
 29101  1  0  0  0
 29102  1  0  0  0
 33 34  1  0  0  0
 33 66  1  0  0  0
 33 70  2  0  0  0
 34 36  1  0  0  0
 34 59  1  0  0  0
 34103  1  0  0  0
 35 44  2  0  0  0
 35 45  1  0  0  0
 35 68  1  0  0  0
 36 56  1  0  0  0
 36104  1  0  0  0
 37 39  1  0  0  0
 37 47  1  0  0  0
 37 66  1  0  0  0
 37105  1  0  0  0
 38 43  2  0  0  0
 38 46  1  0  0  0
 38 47  1  0  0  0
 39 64  1  0  0  0
 39 67  2  0  0  0
 40 52  1  0  0  0
 40 53  2  0  0  0
 40 58  1  0  0  0
 41106  1  0  0  0
 41107  1  0  0  0
 41108  1  0  0  0
 41 48  1  0  0  0
 42 43  1  0  0  0
 42 66  1  0  0  0
 42109  1  0  0  0
 42110  1  0  0  0
 43 44  1  0  0  0
 44111  1  0  0  0
 45 46  2  0  0  0
 45112  1  0  0  0
 46113  1  0  0  0
 47114  1  0  0  0
 47115  1  0  0  0
 48 56  1  0  0  0
 48 65  1  0  0  0
 48116  1  0  0  0
 49 50  1  0  0  0
 49 53  1  0  0  0
 49 64  1  0  0  0
 49117  1  0  0  0
 50 51  1  0  0  0
 50118  1  0  0  0
 50119  1  0  0  0
 51 52  1  0  0  0
 51120  1  0  0  0
 51121  1  0  0  0
 52122  1  0  0  0
 52123  1  0  0  0
 53 54  1  0  0  0
 54 55  2  0  0  0
 54124  1  0  0  0
 55 57  1  0  0  0
 55125  1  0  0  0
 56 69  2  0  0  0
 57 58  2  0  0  0
 57126  1  0  0  0
 58127  1  0  0  0
 59 60  1  0  0  0
 59 61  1  0  0  0
 59 62  1  0  0  0
 60128  1  0  0  0
 60129  1  0  0  0
 60130  1  0  0  0
 61131  1  0  0  0
 61132  1  0  0  0
 61133  1  0  0  0
 62134  1  0  0  0
 62135  1  0  0  0
 62136  1  0  0  0
 63 65  1  0  0  0
 63137  1  0  0  0
 63138  1  0  0  0
 63139  1  0  0  0
 64140  1  0  0  0
 65141  1  0  0  0
 68 74  1  0  0  0
 71 72  2  0  0  0
 71 82  1  0  0  0
 71142  1  0  0  0
 72 77  1  0  0  0
 72 78  1  0  0  0
 73 77  2  0  0  0
 73 79  1  0  0  0
 73 82  1  0  0  0
 74 75  2  0  0  0
 74143  1  0  0  0
 75 76  1  0  0  0
 75 81  1  0  0  0
 76 78  1  0  0  0
 76 80  2  0  0  0
 78144  1  0  0  0
 79145  1  0  0  0
 81146  1  0  0  0
M  ISO  4   1 100  68 101  74 101  79 100
M  END
> <chiral flag>
0

> <version>
0

> <s_m_source_file>
/data/baiqing/PycharmProjects/Reinvent-master-3.2/result/LINK_invent/BTK/process_docking_weight1_custom_product_contain_oxygen_bond_distance_aromatic_linkinvent_7_9_3/rearranged_h_0179.sdf

> <i_m_source_file_index>
54

> <r_mmod_Potential_Energy-OPLS-2005>
104.285934448242

> <r_mmod_Stretch_Energy-OPLS-2005>
158.966644287109

> <r_mmod_Bend_Energy-OPLS-2005>
181.413162231445

> <r_mmod_Torsional_Energy-OPLS-2005>
225.350357055664

> <r_mmod_Improper_Torsional_Energy-OPLS-2005>
4.53753232955933

> <r_mmod_Van_der_Waal_Energy-OPLS-2005>
116.711532592773

> <r_mmod_Electrostatic_Energy-OPLS-2005>
-484.229888916016

> <r_mmod_Solvation_Energy-OPLS-2005>
-228.878005981445

> <b_mmod_Minimization_Converged-OPLS-2005>
0

> <r_mmod_RMS_Derivative-OPLS-2005>
0.238204717636108

$$$$
54
                    3D
 Structure written by MMmdl.
148156  0  0  1  0            999 V2000
  -30.7045  -14.4931   20.5067 C   0  0  0  0  0  0
  -30.4131  -12.2984   19.4435 C   0  0  0  0  0  0
  -29.4966  -12.4898   18.2162 C   0  0  0  0  0  0
  -28.0150  -12.3592   18.6211 C   0  0  0  0  0  0
  -27.6559  -13.2119   19.8681 C   0  0  2  0  0  0
  -28.6970  -13.0198   20.9934 C   0  0  0  0  0  0
  -25.2567  -13.8174   20.5678 C   0  0  0  0  0  0
  -24.1824  -13.0444   20.9170 C   0  0  0  0  0  0
  -24.6384  -11.6911   20.8730 C   0  0  0  0  0  0
  -23.9055  -10.4295   21.0401 C   0  0  0  0  0  0
  -24.3609   -9.4213   21.9181 C   0  0  0  0  0  0
  -23.6287   -8.2247   22.0755 C   0  0  0  0  0  0
  -22.4272   -8.0280   21.3543 C   0  0  0  0  0  0
  -21.9904   -9.0250   20.4643 C   0  0  0  0  0  0
  -22.7229  -10.2132   20.3051 C   0  0  0  0  0  0
  -21.6851   -6.0733   22.5275 C   0  0  0  0  0  0
  -21.4012   -6.5636   23.8209 C   0  0  0  0  0  0
  -21.3659   -5.6789   24.9171 C   0  0  0  0  0  0
  -21.6045   -4.3052   24.7222 C   0  0  0  0  0  0
  -21.8819   -3.8144   23.4343 C   0  0  0  0  0  0
  -21.9192   -4.6961   22.3399 C   0  0  0  0  0  0
  -22.7850  -13.5242   21.1840 C   0  0  0  0  0  0
  -22.1662   -4.2149   21.0976 F   0  0  0  0  0  0
  -21.5630   -3.4537   25.7736 F   0  0  0  0  0  0
  -30.0271  -13.3118   20.4404 N   0  0  0  0  0  0
  -26.2996  -12.9348   20.3340 N   0  0  0  0  0  0
  -25.9311  -11.6504   20.5759 N   0  0  0  0  0  0
  -22.0491  -12.8229   22.0393 N   0  0  0  0  0  0
  -25.4296  -15.1891   20.4103 N   0  0  0  0  0  0
  -31.8775  -14.5740   20.1309 O   0  0  0  0  0  0
  -21.6637   -6.8877   21.4238 O   0  0  0  0  0  0
  -22.3536  -14.5555   20.6701 O   0  0  0  0  0  0
  -24.6144  -31.8686   23.2104 C   0  0  0  0  0  0
  -25.9038  -32.4825   23.8402 C   0  0  1  0  0  0
  -27.2295  -27.4373   20.0976 C   0  0  0  0  0  0
  -25.5898  -33.8624   24.2334 N   0  0  0  0  0  0
  -23.4025  -30.4919   21.5515 C   0  0  2  0  0  0
  -24.8492  -28.9597   20.1141 C   0  0  0  0  0  0
  -22.7408  -29.4661   22.4997 C   0  0  0  0  0  0
  -18.0270  -28.1376   22.8497 C   0  0  0  0  0  0
  -24.1483  -36.7311   23.2639 C   0  0  0  0  0  0
  -25.9313  -30.8353   21.3633 C   0  0  0  0  0  0
  -26.0102  -29.4702   20.7103 C   0  0  0  0  0  0
  -27.2072  -28.7164   20.6986 C   0  0  0  0  0  0
  -26.0547  -26.9431   19.4917 C   0  0  0  0  0  0
  -24.8657  -27.6949   19.5012 C   0  0  0  0  0  0
  -23.6102  -29.8249   20.1658 C   0  0  0  0  0  0
  -25.4107  -36.3114   24.0341 C   0  0  1  0  0  0
  -20.5859  -28.3662   23.1320 C   0  0  2  0  0  0
  -20.6759  -26.9398   22.5416 C   0  0  0  0  0  0
  -19.5738  -26.6385   21.5213 C   0  0  0  0  0  0
  -18.1914  -26.7925   22.1621 C   0  0  0  0  0  0
  -19.1520  -28.8836   23.2906 C   0  0  0  0  0  0
  -18.9449  -30.1445   23.8914 C   0  0  0  0  0  0
  -17.6452  -30.6585   24.0568 C   0  0  0  0  0  0
  -25.9036  -34.9478   23.5136 C   0  0  0  0  0  0
  -16.5343  -29.9087   23.6331 C   0  0  0  0  0  0
  -16.7260  -28.6504   23.0354 C   0  0  0  0  0  0
  -26.4463  -31.6600   25.0727 C   0  0  0  0  0  0
  -25.3738  -31.3714   26.1487 C   0  0  0  0  0  0
  -27.0272  -30.3037   24.6095 C   0  0  0  0  0  0
  -27.6055  -32.4304   25.7475 C   0  0  0  0  0  0
  -27.5582  -37.1811   24.8465 C   0  0  0  0  0  0
  -21.4137  -29.3033   22.3731 N   0  0  0  0  0  0
  -26.4293  -37.3799   23.9413 N   0  0  0  0  0  0
  -24.6677  -31.0790   22.1003 N   0  0  0  0  0  0
  -23.4179  -28.8206   23.3042 O   0  0  0  0  0  0
  -28.3670  -26.6614   20.1012 O   0  0  0  0  0  0
  -26.5600  -34.8927   22.4697 O   0  0  0  0  0  0
  -23.5337  -32.1437   23.7500 O   0  0  0  0  0  0
  -28.2984  -19.8465   21.0913 C   0  0  0  0  0  0
  -29.2383  -20.6567   20.4800 C   0  0  0  0  0  0
  -29.8145  -18.2270   20.6166 C   0  0  0  0  0  0
  -30.4322  -16.9076   20.4702 C   0  0  0  0  0  0
  -29.9227  -15.6984   20.8146 C   0  0  0  0  0  0
  -28.2250  -25.4066   20.6556 C   0  0  0  0  0  0
  -28.8445  -24.3010   20.1896 C   0  0  0  0  0  0
  -28.6137  -23.0018   20.8386 C   0  0  0  0  0  0
  -28.6268  -18.4833   21.1710 N   0  0  0  0  0  0
  -29.2344  -21.9938   20.1988 N   0  0  0  0  0  0
  -27.9523  -22.8377   21.8655 O   0  0  0  0  0  0
  -29.6624  -24.3944   19.1279 O   0  0  0  0  0  0
  -27.1403  -20.2787   21.5318 F   0  0  0  0  0  0
  -30.5867  -19.6719   19.9594 S   0  0  0  0  0  0
  -31.4611  -12.3679   19.1476 H   0  0  0  0  0  0
  -30.2931  -11.2971   19.8601 H   0  0  0  0  0  0
  -29.7388  -11.7554   17.4470 H   0  0  0  0  0  0
  -29.6726  -13.4700   17.7702 H   0  0  0  0  0  0
  -27.8223  -11.3055   18.8259 H   0  0  0  0  0  0
  -27.3694  -12.6271   17.7838 H   0  0  0  0  0  0
  -27.6914  -14.2550   19.5542 H   0  0  0  0  0  0
  -28.6725  -11.9917   21.3578 H   0  0  0  0  0  0
  -28.4662  -13.6362   21.8624 H   0  0  0  0  0  0
  -25.2754   -9.5692   22.4755 H   0  0  0  0  0  0
  -23.9996   -7.4643   22.7479 H   0  0  0  0  0  0
  -21.0836   -8.8763   19.8948 H   0  0  0  0  0  0
  -22.3684  -10.9669   19.6157 H   0  0  0  0  0  0
  -21.2002   -7.6142   23.9713 H   0  0  0  0  0  0
  -21.1479   -6.0518   25.9075 H   0  0  0  0  0  0
  -22.0598   -2.7606   23.2841 H   0  0  0  0  0  0
  -22.4101  -11.9879   22.4764 H   0  0  0  0  0  0
  -21.1114  -13.1258   22.2612 H   0  0  0  0  0  0
  -24.6676  -15.8479   20.5274 H   0  0  0  0  0  0
  -26.2923  -15.6309   20.1172 H   0  0  0  0  0  0
  -26.7113  -32.5540   23.1172 H   0  0  0  0  0  0
  -25.0055  -33.9789   25.0482 H   0  0  0  0  0  0
  -22.6910  -31.3086   21.4126 H   0  0  0  0  0  0
  -23.3757  -35.9630   23.3286 H   0  0  0  0  0  0
  -24.3582  -36.8939   22.2057 H   0  0  0  0  0  0
  -23.7213  -37.6501   23.6663 H   0  0  0  0  0  0
  -26.0422  -31.6015   20.5948 H   0  0  0  0  0  0
  -26.8198  -30.8895   21.9806 H   0  0  0  0  0  0
  -28.1049  -29.1023   21.1611 H   0  0  0  0  0  0
  -26.0582  -25.9709   19.0191 H   0  0  0  0  0  0
  -23.9737  -27.2961   19.0375 H   0  0  0  0  0  0
  -23.7156  -30.5997   19.4055 H   0  0  0  0  0  0
  -22.7345  -29.2432   19.8717 H   0  0  0  0  0  0
  -25.1281  -36.1985   25.0835 H   0  0  0  0  0  0
  -20.9952  -28.3223   24.1441 H   0  0  0  0  0  0
  -20.5663  -26.2268   23.3603 H   0  0  0  0  0  0
  -21.6631  -26.7439   22.1211 H   0  0  0  0  0  0
  -19.6897  -25.6300   21.1231 H   0  0  0  0  0  0
  -19.6680  -27.3208   20.6752 H   0  0  0  0  0  0
  -17.4188  -26.6690   21.4016 H   0  0  0  0  0  0
  -18.0303  -26.0056   22.9004 H   0  0  0  0  0  0
  -19.7924  -30.7258   24.2290 H   0  0  0  0  0  0
  -17.5005  -31.6267   24.5163 H   0  0  0  0  0  0
  -15.5345  -30.2997   23.7645 H   0  0  0  0  0  0
  -15.8657  -28.0829   22.7062 H   0  0  0  0  0  0
  -24.5869  -30.7114   25.7818 H   0  0  0  0  0  0
  -24.8986  -32.2880   26.4994 H   0  0  0  0  0  0
  -25.8090  -30.8819   27.0209 H   0  0  0  0  0  0
  -26.2798  -29.6808   24.1166 H   0  0  0  0  0  0
  -27.4050  -29.7267   25.4547 H   0  0  0  0  0  0
  -27.8636  -30.4344   23.9225 H   0  0  0  0  0  0
  -27.2713  -33.3637   26.2019 H   0  0  0  0  0  0
  -28.3881  -32.6801   25.0297 H   0  0  0  0  0  0
  -28.0692  -31.8433   26.5411 H   0  0  0  0  0  0
  -28.2604  -38.0106   24.7521 H   0  0  0  0  0  0
  -28.1077  -36.2640   24.6282 H   0  0  0  0  0  0
  -27.2304  -37.1455   25.8869 H   0  0  0  0  0  0
  -20.9296  -29.8763   21.6961 H   0  0  0  0  0  0
  -26.0184  -38.2876   24.1423 H   0  0  0  0  0  0
  -31.4102  -16.9502   20.0104 H   0  0  0  0  0  0
  -28.9521  -15.6511   21.2818 H   0  0  0  0  0  0
  -27.5528  -25.4026   21.5060 H   0  0  0  0  0  0
  -29.8152  -22.3059   19.4314 H   0  0  0  0  0  0
  -29.6693  -25.3081   18.8700 H   0  0  0  0  0  0
  1 25  1  0  0  0
  1 30  2  0  0  0
  1 75  1  0  0  0
  2  3  1  0  0  0
  2 25  1  0  0  0
  2 85  1  0  0  0
  2 86  1  0  0  0
  3  4  1  0  0  0
  3 87  1  0  0  0
  3 88  1  0  0  0
  4  5  1  0  0  0
  4 89  1  0  0  0
  4 90  1  0  0  0
  5  6  1  0  0  0
  5 26  1  0  0  0
  5 91  1  0  0  0
  6 25  1  0  0  0
  6 92  1  0  0  0
  6 93  1  0  0  0
  7  8  2  0  0  0
  7 26  1  0  0  0
  7 29  1  0  0  0
  8  9  1  0  0  0
  8 22  1  0  0  0
  9 10  1  0  0  0
  9 27  2  0  0  0
 10 11  2  0  0  0
 10 15  1  0  0  0
 11 12  1  0  0  0
 11 94  1  0  0  0
 12 13  2  0  0  0
 12 95  1  0  0  0
 13 14  1  0  0  0
 13 31  1  0  0  0
 14 15  2  0  0  0
 14 96  1  0  0  0
 15 97  1  0  0  0
 16 17  2  0  0  0
 16 21  1  0  0  0
 16 31  1  0  0  0
 17 18  1  0  0  0
 17 98  1  0  0  0
 18 19  2  0  0  0
 18 99  1  0  0  0
 19 20  1  0  0  0
 19 24  1  0  0  0
 20 21  2  0  0  0
 20100  1  0  0  0
 21 23  1  0  0  0
 22 28  1  0  0  0
 22 32  2  0  0  0
 26 27  1  0  0  0
 28101  1  0  0  0
 28102  1  0  0  0
 29103  1  0  0  0
 29104  1  0  0  0
 33 34  1  0  0  0
 33 66  1  0  0  0
 33 70  2  0  0  0
 34 36  1  0  0  0
 34 59  1  0  0  0
 34105  1  0  0  0
 35 44  2  0  0  0
 35 45  1  0  0  0
 35 68  1  0  0  0
 36 56  1  0  0  0
 36106  1  0  0  0
 37 39  1  0  0  0
 37 47  1  0  0  0
 37 66  1  0  0  0
 37107  1  0  0  0
 38 43  2  0  0  0
 38 46  1  0  0  0
 38 47  1  0  0  0
 39 64  1  0  0  0
 39 67  2  0  0  0
 40 52  1  0  0  0
 40 53  2  0  0  0
 40 58  1  0  0  0
 41108  1  0  0  0
 41109  1  0  0  0
 41110  1  0  0  0
 41 48  1  0  0  0
 42 43  1  0  0  0
 42 66  1  0  0  0
 42111  1  0  0  0
 42112  1  0  0  0
 43 44  1  0  0  0
 44113  1  0  0  0
 45 46  2  0  0  0
 45114  1  0  0  0
 46115  1  0  0  0
 47116  1  0  0  0
 47117  1  0  0  0
 48 56  1  0  0  0
 48 65  1  0  0  0
 48118  1  0  0  0
 49 50  1  0  0  0
 49 53  1  0  0  0
 49 64  1  0  0  0
 49119  1  0  0  0
 50 51  1  0  0  0
 50120  1  0  0  0
 50121  1  0  0  0
 51 52  1  0  0  0
 51122  1  0  0  0
 51123  1  0  0  0
 52124  1  0  0  0
 52125  1  0  0  0
 53 54  1  0  0  0
 54 55  2  0  0  0
 54126  1  0  0  0
 55 57  1  0  0  0
 55127  1  0  0  0
 56 69  2  0  0  0
 57 58  2  0  0  0
 57128  1  0  0  0
 58129  1  0  0  0
 59 60  1  0  0  0
 59 61  1  0  0  0
 59 62  1  0  0  0
 60130  1  0  0  0
 60131  1  0  0  0
 60132  1  0  0  0
 61133  1  0  0  0
 61134  1  0  0  0
 61135  1  0  0  0
 62136  1  0  0  0
 62137  1  0  0  0
 62138  1  0  0  0
 63 65  1  0  0  0
 63139  1  0  0  0
 63140  1  0  0  0
 63141  1  0  0  0
 64142  1  0  0  0
 65143  1  0  0  0
 68 76  1  0  0  0
 71 72  2  0  0  0
 71 79  1  0  0  0
 71 83  1  0  0  0
 72 80  1  0  0  0
 72 84  1  0  0  0
 73 74  1  0  0  0
 73 79  2  0  0  0
 73 84  1  0  0  0
 74 75  2  0  0  0
 74144  1  0  0  0
 75145  1  0  0  0
 76 77  2  0  0  0
 76146  1  0  0  0
 77 78  1  0  0  0
 77 82  1  0  0  0
 78 80  1  0  0  0
 78 81  2  0  0  0
 80147  1  0  0  0
 82148  1  0  0  0
M  ISO  4   1 100  68 101  75 100  76 101
M  END
> <chiral flag>
0

> <version>
0

> <s_m_source_file>
/data/baiqing/PycharmProjects/Reinvent-master-3.2/result/LINK_invent/BTK/process_docking_weight1_custom_product_contain_oxygen_bond_distance_aromatic_linkinvent_7_9_3/rearranged_h_0179.sdf

> <i_m_source_file_index>
55

> <r_mmod_Potential_Energy-OPLS-2005>
-176.165817260742

> <r_mmod_Stretch_Energy-OPLS-2005>
35.5167541503906

> <r_mmod_Bend_Energy-OPLS-2005>
104.437355041504

> <r_mmod_Torsional_Energy-OPLS-2005>
188.538635253906

> <r_mmod_Improper_Torsional_Energy-OPLS-2005>
5.28670120239258

> <r_mmod_Van_der_Waal_Energy-OPLS-2005>
145.029922485352

> <r_mmod_Electrostatic_Energy-OPLS-2005>
-463.484832763672

> <r_mmod_Solvation_Energy-OPLS-2005>
-209.5283203125

> <b_mmod_Minimization_Converged-OPLS-2005>
0

> <r_mmod_RMS_Derivative-OPLS-2005>
0.480220347642899

$$$$
55
                    3D
 Structure written by MMmdl.
158166  0  0  1  0            999 V2000
  -30.6548  -14.5189   20.6069 C   0  0  0  0  0  0
  -30.4376  -12.3457   19.4247 C   0  0  0  0  0  0
  -29.5039  -12.5366   18.2094 C   0  0  0  0  0  0
  -28.0248  -12.3766   18.6197 C   0  0  0  0  0  0
  -27.6653  -13.2039   19.8821 C   0  0  2  0  0  0
  -28.7042  -12.9691   21.0014 C   0  0  0  0  0  0
  -25.2616  -13.8135   20.5687 C   0  0  0  0  0  0
  -24.1851  -13.0425   20.9139 C   0  0  0  0  0  0
  -24.6395  -11.6887   20.8704 C   0  0  0  0  0  0
  -23.9043  -10.4285   21.0407 C   0  0  0  0  0  0
  -24.3586   -9.4197   21.9197 C   0  0  0  0  0  0
  -23.6273   -8.2239   22.0766 C   0  0  0  0  0  0
  -22.4256   -8.0284   21.3557 C   0  0  0  0  0  0
  -21.9875   -9.0247   20.4650 C   0  0  0  0  0  0
  -22.7192  -10.2144   20.3070 C   0  0  0  0  0  0
  -21.6854   -6.0724   22.5280 C   0  0  0  0  0  0
  -21.4014   -6.5629   23.8206 C   0  0  0  0  0  0
  -21.3664   -5.6789   24.9171 C   0  0  0  0  0  0
  -21.6030   -4.3048   24.7224 C   0  0  0  0  0  0
  -21.8821   -3.8134   23.4352 C   0  0  0  0  0  0
  -21.9183   -4.6950   22.3404 C   0  0  0  0  0  0
  -22.7878  -13.5231   21.1813 C   0  0  0  0  0  0
  -22.1678   -4.2128   21.0980 F   0  0  0  0  0  0
  -21.5637   -3.4550   25.7754 F   0  0  0  0  0  0
  -30.0364  -13.3094   20.4670 N   0  0  0  0  0  0
  -26.3047  -12.9310   20.3356 N   0  0  0  0  0  0
  -25.9316  -11.6463   20.5712 N   0  0  0  0  0  0
  -22.0513  -12.8266   22.0388 N   0  0  0  0  0  0
  -25.4354  -15.1863   20.4152 N   0  0  0  0  0  0
  -31.7451  -14.7671   20.0809 O   0  0  0  0  0  0
  -21.6632   -6.8877   21.4244 O   0  0  0  0  0  0
  -22.3574  -14.5532   20.6652 O   0  0  0  0  0  0
  -24.6170  -31.8656   23.2074 C   0  0  0  0  0  0
  -25.9057  -32.4813   23.8379 C   0  0  1  0  0  0
  -27.2362  -27.4078   20.0832 C   0  0  0  0  0  0
  -25.5922  -33.8613   24.2312 N   0  0  0  0  0  0
  -23.4078  -30.4888   21.5481 C   0  0  2  0  0  0
  -24.8510  -28.9480   20.1189 C   0  0  0  0  0  0
  -22.7438  -29.4645   22.4963 C   0  0  0  0  0  0
  -18.0281  -28.1377   22.8490 C   0  0  0  0  0  0
  -24.1503  -36.7302   23.2630 C   0  0  0  0  0  0
  -25.9416  -30.8181   21.3704 C   0  0  0  0  0  0
  -26.0137  -29.4528   20.7110 C   0  0  0  0  0  0
  -27.2052  -28.6899   20.6866 C   0  0  0  0  0  0
  -26.0432  -26.9134   19.5066 C   0  0  0  0  0  0
  -24.8609  -27.6767   19.5196 C   0  0  0  0  0  0
  -23.6189  -29.8221   20.1641 C   0  0  0  0  0  0
  -25.4125  -36.3102   24.0325 C   0  0  1  0  0  0
  -20.5875  -28.3671   23.1298 C   0  0  2  0  0  0
  -20.6770  -26.9403   22.5394 C   0  0  0  0  0  0
  -19.5751  -26.6380   21.5202 C   0  0  0  0  0  0
  -18.1934  -26.7918   22.1621 C   0  0  0  0  0  0
  -19.1531  -28.8835   23.2892 C   0  0  0  0  0  0
  -18.9461  -30.1434   23.8904 C   0  0  0  0  0  0
  -17.6465  -30.6584   24.0558 C   0  0  0  0  0  0
  -25.9052  -34.9472   23.5118 C   0  0  0  0  0  0
  -16.5350  -29.9081   23.6324 C   0  0  0  0  0  0
  -16.7268  -28.6494   23.0351 C   0  0  0  0  0  0
  -26.4478  -31.6605   25.0725 C   0  0  0  0  0  0
  -25.3731  -31.3733   26.1470 C   0  0  0  0  0  0
  -27.0315  -30.3038   24.6144 C   0  0  0  0  0  0
  -27.6072  -32.4328   25.7470 C   0  0  0  0  0  0
  -27.5609  -37.1792   24.8449 C   0  0  0  0  0  0
  -21.4160  -29.3039   22.3706 N   0  0  0  0  0  0
  -26.4303  -37.3800   23.9418 N   0  0  0  0  0  0
  -24.6735  -31.0740   22.0988 N   0  0  0  0  0  0
  -23.4184  -28.8177   23.3022 O   0  0  0  0  0  0
  -28.4346  -26.7106   20.0931 O   0  0  0  0  0  0
  -26.5612  -34.8926   22.4682 O   0  0  0  0  0  0
  -23.5358  -32.1428   23.7441 O   0  0  0  0  0  0
  -29.7941  -19.3066   20.6754 C   0  0  0  0  0  0
  -28.8319  -18.8732   21.5709 C   0  0  0  0  0  0
  -29.8646  -16.8465   21.1961 C   0  0  0  0  0  0
  -30.0982  -20.6216   19.9959 C   0  0  0  0  0  0
  -29.6431  -23.0345   19.9111 C   0  0  0  0  0  0
  -27.7355  -19.6663   22.2218 C   0  0  0  0  0  0
  -27.4379  -23.7391   21.0174 C   0  0  0  0  0  0
  -29.6312  -24.7948   21.7063 C   0  0  0  0  0  0
  -28.6042  -25.4014   19.4908 C   0  0  0  0  0  0
  -28.8172  -24.2256   20.5239 C   0  0  0  0  0  0
  -28.9002  -17.4935   21.8588 N   0  0  0  0  0  0
  -29.9635  -15.4245   21.3349 N   0  0  0  0  0  0
  -29.4892  -21.7706   20.4083 N   0  0  0  0  0  0
  -30.9082  -20.5943   19.0609 O   0  0  0  0  0  0
  -30.4408  -23.3039   19.0068 O   0  0  0  0  0  0
  -30.8093  -17.9346   20.1791 S   0  0  0  0  0  0
  -31.4794  -12.4717   19.1240 H   0  0  0  0  0  0
  -30.3632  -11.3249   19.8052 H   0  0  0  0  0  0
  -29.7509  -11.8218   17.4212 H   0  0  0  0  0  0
  -29.6556  -13.5253   17.7759 H   0  0  0  0  0  0
  -27.8440  -11.3183   18.8078 H   0  0  0  0  0  0
  -27.3747  -12.6566   17.7905 H   0  0  0  0  0  0
  -27.7091  -14.2544   19.5955 H   0  0  0  0  0  0
  -28.6936  -11.9227   21.3131 H   0  0  0  0  0  0
  -28.4369  -13.5302   21.8961 H   0  0  0  0  0  0
  -25.2763   -9.5700   22.4735 H   0  0  0  0  0  0
  -23.9992   -7.4634   22.7485 H   0  0  0  0  0  0
  -21.0823   -8.8749   19.8956 H   0  0  0  0  0  0
  -22.3646  -10.9676   19.6178 H   0  0  0  0  0  0
  -21.2025   -7.6139   23.9705 H   0  0  0  0  0  0
  -21.1499   -6.0533   25.9067 H   0  0  0  0  0  0
  -22.0598   -2.7594   23.2858 H   0  0  0  0  0  0
  -22.4142  -11.9925   22.4764 H   0  0  0  0  0  0
  -21.1145  -13.1367   22.2595 H   0  0  0  0  0  0
  -24.6754  -15.8464   20.5393 H   0  0  0  0  0  0
  -26.3046  -15.6277   20.1442 H   0  0  0  0  0  0
  -26.7125  -32.5504   23.1133 H   0  0  0  0  0  0
  -25.0095  -33.9787   25.0468 H   0  0  0  0  0  0
  -22.6974  -31.3062   21.4066 H   0  0  0  0  0  0
  -23.3785  -35.9620   23.3269 H   0  0  0  0  0  0
  -24.3606  -36.8941   22.2053 H   0  0  0  0  0  0
  -23.7233  -37.6487   23.6658 H   0  0  0  0  0  0
  -26.0758  -31.5887   20.6108 H   0  0  0  0  0  0
  -26.8204  -30.8559   22.0023 H   0  0  0  0  0  0
  -28.1082  -29.0810   21.1341 H   0  0  0  0  0  0
  -25.9846  -25.9391   19.0492 H   0  0  0  0  0  0
  -23.9613  -27.2741   19.0748 H   0  0  0  0  0  0
  -23.7435  -30.5980   19.4074 H   0  0  0  0  0  0
  -22.7404  -29.2503   19.8589 H   0  0  0  0  0  0
  -25.1305  -36.1967   25.0814 H   0  0  0  0  0  0
  -20.9968  -28.3230   24.1419 H   0  0  0  0  0  0
  -20.5698  -26.2273   23.3579 H   0  0  0  0  0  0
  -21.6640  -26.7454   22.1179 H   0  0  0  0  0  0
  -19.6914  -25.6295   21.1228 H   0  0  0  0  0  0
  -19.6688  -27.3193   20.6731 H   0  0  0  0  0  0
  -17.4195  -26.6660   21.4020 H   0  0  0  0  0  0
  -18.0341  -26.0056   22.9016 H   0  0  0  0  0  0
  -19.7932  -30.7247   24.2283 H   0  0  0  0  0  0
  -17.5017  -31.6268   24.5159 H   0  0  0  0  0  0
  -15.5355  -30.2993   23.7633 H   0  0  0  0  0  0
  -15.8667  -28.0815   22.7068 H   0  0  0  0  0  0
  -24.5861  -30.7150   25.7772 H   0  0  0  0  0  0
  -24.8980  -32.2904   26.4960 H   0  0  0  0  0  0
  -25.8054  -30.8829   27.0198 H   0  0  0  0  0  0
  -26.2862  -29.6794   24.1199 H   0  0  0  0  0  0
  -27.4059  -29.7299   25.4628 H   0  0  0  0  0  0
  -27.8717  -30.4344   23.9324 H   0  0  0  0  0  0
  -27.2700  -33.3590   26.2134 H   0  0  0  0  0  0
  -28.3819  -32.6951   25.0251 H   0  0  0  0  0  0
  -28.0821  -31.8403   26.5303 H   0  0  0  0  0  0
  -28.2569  -38.0146   24.7596 H   0  0  0  0  0  0
  -28.1164  -36.2686   24.6154 H   0  0  0  0  0  0
  -27.2334  -37.1289   25.8846 H   0  0  0  0  0  0
  -20.9317  -29.8781   21.6950 H   0  0  0  0  0  0
  -26.0191  -38.2865   24.1472 H   0  0  0  0  0  0
  -28.0474  -20.0501   23.1935 H   0  0  0  0  0  0
  -26.8478  -19.0534   22.3924 H   0  0  0  0  0  0
  -27.4090  -20.5086   21.6154 H   0  0  0  0  0  0
  -27.5105  -23.1921   21.9577 H   0  0  0  0  0  0
  -26.9472  -23.0973   20.2804 H   0  0  0  0  0  0
  -26.7696  -24.5834   21.1970 H   0  0  0  0  0  0
  -29.9589  -24.0197   22.3982 H   0  0  0  0  0  0
  -29.0419  -25.5113   22.2807 H   0  0  0  0  0  0
  -30.5174  -25.3192   21.3467 H   0  0  0  0  0  0
  -27.8481  -25.1344   18.7551 H   0  0  0  0  0  0
  -29.5025  -25.5325   18.8901 H   0  0  0  0  0  0
  -29.2105  -15.0164   21.8651 H   0  0  0  0  0  0
  -28.8494  -21.6841   21.1783 H   0  0  0  0  0  0
  1 25  1  0  0  0
  1 30  2  0  0  0
  1 82  1  0  0  0
  2  3  1  0  0  0
  2 25  1  0  0  0
  2 87  1  0  0  0
  2 88  1  0  0  0
  3  4  1  0  0  0
  3 89  1  0  0  0
  3 90  1  0  0  0
  4  5  1  0  0  0
  4 91  1  0  0  0
  4 92  1  0  0  0
  5  6  1  0  0  0
  5 26  1  0  0  0
  5 93  1  0  0  0
  6 25  1  0  0  0
  6 94  1  0  0  0
  6 95  1  0  0  0
  7  8  2  0  0  0
  7 26  1  0  0  0
  7 29  1  0  0  0
  8  9  1  0  0  0
  8 22  1  0  0  0
  9 10  1  0  0  0
  9 27  2  0  0  0
 10 11  2  0  0  0
 10 15  1  0  0  0
 11 12  1  0  0  0
 11 96  1  0  0  0
 12 13  2  0  0  0
 12 97  1  0  0  0
 13 14  1  0  0  0
 13 31  1  0  0  0
 14 15  2  0  0  0
 14 98  1  0  0  0
 15 99  1  0  0  0
 16 17  2  0  0  0
 16 21  1  0  0  0
 16 31  1  0  0  0
 17 18  1  0  0  0
 17100  1  0  0  0
 18 19  2  0  0  0
 18101  1  0  0  0
 19 20  1  0  0  0
 19 24  1  0  0  0
 20 21  2  0  0  0
 20102  1  0  0  0
 21 23  1  0  0  0
 22 28  1  0  0  0
 22 32  2  0  0  0
 26 27  1  0  0  0
 28103  1  0  0  0
 28104  1  0  0  0
 29105  1  0  0  0
 29106  1  0  0  0
 33 34  1  0  0  0
 33 66  1  0  0  0
 33 70  2  0  0  0
 34 36  1  0  0  0
 34 59  1  0  0  0
 34107  1  0  0  0
 35 44  2  0  0  0
 35 45  1  0  0  0
 35 68  1  0  0  0
 36 56  1  0  0  0
 36108  1  0  0  0
 37 39  1  0  0  0
 37 47  1  0  0  0
 37 66  1  0  0  0
 37109  1  0  0  0
 38 43  2  0  0  0
 38 46  1  0  0  0
 38 47  1  0  0  0
 39 64  1  0  0  0
 39 67  2  0  0  0
 40 52  1  0  0  0
 40 53  2  0  0  0
 40 58  1  0  0  0
 41110  1  0  0  0
 41111  1  0  0  0
 41112  1  0  0  0
 41 48  1  0  0  0
 42 43  1  0  0  0
 42 66  1  0  0  0
 42113  1  0  0  0
 42114  1  0  0  0
 43 44  1  0  0  0
 44115  1  0  0  0
 45 46  2  0  0  0
 45116  1  0  0  0
 46117  1  0  0  0
 47118  1  0  0  0
 47119  1  0  0  0
 48 56  1  0  0  0
 48 65  1  0  0  0
 48120  1  0  0  0
 49 50  1  0  0  0
 49 53  1  0  0  0
 49 64  1  0  0  0
 49121  1  0  0  0
 50 51  1  0  0  0
 50122  1  0  0  0
 50123  1  0  0  0
 51 52  1  0  0  0
 51124  1  0  0  0
 51125  1  0  0  0
 52126  1  0  0  0
 52127  1  0  0  0
 53 54  1  0  0  0
 54 55  2  0  0  0
 54128  1  0  0  0
 55 57  1  0  0  0
 55129  1  0  0  0
 56 69  2  0  0  0
 57 58  2  0  0  0
 57130  1  0  0  0
 58131  1  0  0  0
 59 60  1  0  0  0
 59 61  1  0  0  0
 59 62  1  0  0  0
 60132  1  0  0  0
 60133  1  0  0  0
 60134  1  0  0  0
 61135  1  0  0  0
 61136  1  0  0  0
 61137  1  0  0  0
 62138  1  0  0  0
 62139  1  0  0  0
 62140  1  0  0  0
 63 65  1  0  0  0
 63141  1  0  0  0
 63142  1  0  0  0
 63143  1  0  0  0
 64144  1  0  0  0
 65145  1  0  0  0
 68 79  1  0  0  0
 71 72  2  0  0  0
 71 74  1  0  0  0
 71 86  1  0  0  0
 72 76  1  0  0  0
 72 81  1  0  0  0
 73 81  2  0  0  0
 73 82  1  0  0  0
 73 86  1  0  0  0
 74 83  1  0  0  0
 74 84  2  0  0  0
 75 80  1  0  0  0
 75 83  1  0  0  0
 75 85  2  0  0  0
 76146  1  0  0  0
 76147  1  0  0  0
 76148  1  0  0  0
 77149  1  0  0  0
 77150  1  0  0  0
 77151  1  0  0  0
 77 80  1  0  0  0
 78 80  1  0  0  0
 78152  1  0  0  0
 78153  1  0  0  0
 78154  1  0  0  0
 79 80  1  0  0  0
 79155  1  0  0  0
 79156  1  0  0  0
 82157  1  0  0  0
 83158  1  0  0  0
M  ISO  4   1 100  68 101  79 101  82 100
M  END
> <chiral flag>
0

> <version>
0

> <s_m_source_file>
/data/baiqing/PycharmProjects/Reinvent-master-3.2/result/LINK_invent/BTK/process_docking_weight1_custom_product_contain_oxygen_bond_distance_aromatic_linkinvent_7_9_3/rearranged_h_0179.sdf

> <i_m_source_file_index>
56

> <r_mmod_Potential_Energy-OPLS-2005>
-218.933670043945

> <r_mmod_Stretch_Energy-OPLS-2005>
51.9401435852051

> <r_mmod_Bend_Energy-OPLS-2005>
133.666549682617

> <r_mmod_Torsional_Energy-OPLS-2005>
227.770309448242

> <r_mmod_Improper_Torsional_Energy-OPLS-2005>
3.37972211837769

> <r_mmod_Van_der_Waal_Energy-OPLS-2005>
141.938049316406

> <r_mmod_Electrostatic_Energy-OPLS-2005>
-529.413146972656

> <r_mmod_Solvation_Energy-OPLS-2005>
-265.693115234375

> <b_mmod_Minimization_Converged-OPLS-2005>
0

> <r_mmod_RMS_Derivative-OPLS-2005>
3.68715667724609

$$$$
56
                    3D
 Structure written by MMmdl.
155163  0  0  1  0            999 V2000
  -30.5945  -14.5460   20.5741 C   0  0  0  0  0  0
  -30.4110  -12.3405   19.4802 C   0  0  0  0  0  0
  -29.5129  -12.5527   18.2440 C   0  0  0  0  0  0
  -28.0220  -12.4055   18.6118 C   0  0  0  0  0  0
  -27.6431  -13.2234   19.8779 C   0  0  2  0  0  0
  -28.6594  -12.9875   21.0147 C   0  0  0  0  0  0
  -25.2408  -13.8182   20.5613 C   0  0  0  0  0  0
  -24.1743  -13.0399   20.9123 C   0  0  0  0  0  0
  -24.6337  -11.6866   20.8618 C   0  0  0  0  0  0
  -23.9055  -10.4242   21.0342 C   0  0  0  0  0  0
  -24.3608   -9.4146   21.9118 C   0  0  0  0  0  0
  -23.6269   -8.2194   22.0725 C   0  0  0  0  0  0
  -22.4251   -8.0233   21.3536 C   0  0  0  0  0  0
  -21.9891   -9.0196   20.4634 C   0  0  0  0  0  0
  -22.7225  -10.2056   20.3009 C   0  0  0  0  0  0
  -21.6842   -6.0704   22.5276 C   0  0  0  0  0  0
  -21.4046   -6.5622   23.8205 C   0  0  0  0  0  0
  -21.3667   -5.6776   24.9173 C   0  0  0  0  0  0
  -21.6038   -4.3039   24.7233 C   0  0  0  0  0  0
  -21.8810   -3.8121   23.4363 C   0  0  0  0  0  0
  -21.9173   -4.6934   22.3405 C   0  0  0  0  0  0
  -22.7765  -13.5099   21.1935 C   0  0  0  0  0  0
  -22.1632   -4.2093   21.0987 F   0  0  0  0  0  0
  -21.5603   -3.4533   25.7761 F   0  0  0  0  0  0
  -29.9963  -13.3206   20.4985 N   0  0  0  0  0  0
  -26.2851  -12.9391   20.3223 N   0  0  0  0  0  0
  -25.9231  -11.6520   20.5556 N   0  0  0  0  0  0
  -22.0556  -12.7996   22.0545 N   0  0  0  0  0  0
  -25.4059  -15.1953   20.4147 N   0  0  0  0  0  0
  -31.7144  -14.7619   20.0988 O   0  0  0  0  0  0
  -21.6634   -6.8824   21.4232 O   0  0  0  0  0  0
  -22.3365  -14.5397   20.6835 O   0  0  0  0  0  0
  -24.6198  -31.8688   23.2096 C   0  0  0  0  0  0
  -25.9045  -32.4884   23.8416 C   0  0  1  0  0  0
  -27.2500  -27.3941   20.1371 C   0  0  0  0  0  0
  -25.5877  -33.8695   24.2336 N   0  0  0  0  0  0
  -23.4179  -30.4937   21.5482 C   0  0  2  0  0  0
  -24.8679  -28.9440   20.1267 C   0  0  0  0  0  0
  -22.7463  -29.4713   22.4963 C   0  0  0  0  0  0
  -18.0312  -28.1362   22.8427 C   0  0  0  0  0  0
  -24.1434  -36.7338   23.2655 C   0  0  0  0  0  0
  -25.9471  -30.8295   21.3614 C   0  0  0  0  0  0
  -26.0285  -29.4513   20.7251 C   0  0  0  0  0  0
  -27.2261  -28.6885   20.7183 C   0  0  0  0  0  0
  -26.0700  -26.9074   19.5367 C   0  0  0  0  0  0
  -24.8861  -27.6735   19.5243 C   0  0  0  0  0  0
  -23.6349  -29.8256   20.1641 C   0  0  0  0  0  0
  -25.4053  -36.3147   24.0346 C   0  0  1  0  0  0
  -20.5899  -28.3716   23.1247 C   0  0  2  0  0  0
  -20.6957  -26.9478   22.5268 C   0  0  0  0  0  0
  -19.5805  -26.6127   21.5319 C   0  0  0  0  0  0
  -18.1984  -26.7866   22.1615 C   0  0  0  0  0  0
  -19.1529  -28.8845   23.2834 C   0  0  0  0  0  0
  -18.9424  -30.1417   23.8914 C   0  0  0  0  0  0
  -17.6405  -30.6511   24.0623 C   0  0  0  0  0  0
  -25.8999  -34.9520   23.5134 C   0  0  0  0  0  0
  -16.5327  -29.9021   23.6287 C   0  0  0  0  0  0
  -16.7287  -28.6449   23.0282 C   0  0  0  0  0  0
  -26.4439  -31.6688   25.0771 C   0  0  0  0  0  0
  -25.3690  -31.3848   26.1530 C   0  0  0  0  0  0
  -27.0297  -30.3138   24.6143 C   0  0  0  0  0  0
  -27.5994  -32.4436   25.7570 C   0  0  0  0  0  0
  -27.5548  -37.1819   24.8465 C   0  0  0  0  0  0
  -21.4164  -29.3188   22.3749 N   0  0  0  0  0  0
  -26.4248  -37.3807   23.9430 N   0  0  0  0  0  0
  -24.6821  -31.0748   22.1026 N   0  0  0  0  0  0
  -23.4221  -28.8198   23.2991 O   0  0  0  0  0  0
  -28.3872  -26.5986   20.1246 O   0  0  0  0  0  0
  -26.5564  -34.8952   22.4706 O   0  0  0  0  0  0
  -23.5361  -32.1464   23.7418 O   0  0  0  0  0  0
  -29.2770  -17.9025   21.5357 C   0  0  0  0  0  0
  -29.0737  -19.1603   20.8390 C   0  0  0  0  0  0
  -29.6801  -16.8335   20.7569 C   0  0  0  0  0  0
  -29.3093  -19.0237   19.4832 C   0  0  0  0  0  0
  -28.5938  -20.4071   21.5614 C   0  0  0  0  0  0
  -28.5554  -22.8601   21.4255 C   0  0  0  0  0  0
  -29.4325  -25.9540   22.1797 C   0  0  0  0  0  0
  -28.7999  -24.0960   20.4981 C   0  0  0  0  0  0
  -28.4278  -25.5130   21.0948 C   0  0  2  0  0  0
  -29.1840  -19.9323   18.4294 N   0  0  0  0  0  0
  -29.8424  -15.5249   21.1493 N   0  0  0  0  0  0
  -28.8528  -21.6079   20.9745 N   0  0  0  0  0  0
  -28.0258  -20.2788   22.6556 O   0  0  0  0  0  0
  -28.0880  -23.0665   22.5493 O   0  0  0  0  0  0
  -29.8215  -17.3849   19.0992 S   0  0  0  0  0  0
  -31.4662  -12.4483   19.2271 H   0  0  0  0  0  0
  -30.2962  -11.3231   19.8571 H   0  0  0  0  0  0
  -29.7757  -11.8433   17.4605 H   0  0  0  0  0  0
  -29.6945  -13.5529   17.8411 H   0  0  0  0  0  0
  -27.8186  -11.3445   18.7675 H   0  0  0  0  0  0
  -27.3951  -12.7080   17.7725 H   0  0  0  0  0  0
  -27.6815  -14.2781   19.5991 H   0  0  0  0  0  0
  -28.6190  -11.9444   21.3275 H   0  0  0  0  0  0
  -28.3806  -13.5561   21.9011 H   0  0  0  0  0  0
  -25.2773   -9.5591   22.4670 H   0  0  0  0  0  0
  -23.9960   -7.4589   22.7446 H   0  0  0  0  0  0
  -21.0817   -8.8732   19.8942 H   0  0  0  0  0  0
  -22.3707  -10.9596   19.6092 H   0  0  0  0  0  0
  -21.2098   -7.6139   23.9690 H   0  0  0  0  0  0
  -21.1506   -6.0537   25.9068 H   0  0  0  0  0  0
  -22.0596   -2.7587   23.2898 H   0  0  0  0  0  0
  -22.4283  -11.9595   22.4769 H   0  0  0  0  0  0
  -21.1224  -13.0943   22.3022 H   0  0  0  0  0  0
  -24.6295  -15.8346   20.5376 H   0  0  0  0  0  0
  -26.2557  -15.6616   20.1205 H   0  0  0  0  0  0
  -26.7160  -32.5583   23.1223 H   0  0  0  0  0  0
  -25.0023  -33.9883   25.0481 H   0  0  0  0  0  0
  -22.7136  -31.3162   21.4056 H   0  0  0  0  0  0
  -23.3677  -35.9695   23.3324 H   0  0  0  0  0  0
  -24.3538  -36.8940   22.2072 H   0  0  0  0  0  0
  -23.7181  -37.6546   23.6660 H   0  0  0  0  0  0
  -26.0345  -31.5789   20.5734 H   0  0  0  0  0  0
  -26.8499  -30.9121   21.9593 H   0  0  0  0  0  0
  -28.1278  -29.0867   21.1651 H   0  0  0  0  0  0
  -26.0678  -25.9283   19.0778 H   0  0  0  0  0  0
  -23.9962  -27.2804   19.0526 H   0  0  0  0  0  0
  -23.7807  -30.6069   19.4180 H   0  0  0  0  0  0
  -22.7487  -29.2755   19.8440 H   0  0  0  0  0  0
  -25.1213  -36.2024   25.0830 H   0  0  0  0  0  0
  -20.9919  -28.3242   24.1397 H   0  0  0  0  0  0
  -20.6392  -26.2293   23.3459 H   0  0  0  0  0  0
  -21.6727  -26.7852   22.0663 H   0  0  0  0  0  0
  -19.6834  -25.5873   21.1773 H   0  0  0  0  0  0
  -19.6738  -27.2539   20.6547 H   0  0  0  0  0  0
  -17.4368  -26.6685   21.3891 H   0  0  0  0  0  0
  -18.0193  -26.0048   22.9012 H   0  0  0  0  0  0
  -19.7870  -30.7239   24.2416 H   0  0  0  0  0  0
  -17.4883  -31.6115   24.5384 H   0  0  0  0  0  0
  -15.5325  -30.2877   23.7652 H   0  0  0  0  0  0
  -15.8672  -28.0757   22.6981 H   0  0  0  0  0  0
  -24.5806  -30.7236   25.7902 H   0  0  0  0  0  0
  -24.8949  -32.3043   26.4966 H   0  0  0  0  0  0
  -25.8035  -30.9057   27.0308 H   0  0  0  0  0  0
  -26.2912  -29.6961   24.1023 H   0  0  0  0  0  0
  -27.3884  -29.7305   25.4624 H   0  0  0  0  0  0
  -27.8797  -30.4479   23.9452 H   0  0  0  0  0  0
  -27.2568  -33.3699   26.2181 H   0  0  0  0  0  0
  -28.3798  -32.7077   25.0439 H   0  0  0  0  0  0
  -28.0668  -31.8590   26.5485 H   0  0  0  0  0  0
  -28.2572  -38.0103   24.7484 H   0  0  0  0  0  0
  -28.1029  -36.2639   24.6296 H   0  0  0  0  0  0
  -27.2307  -37.1489   25.8881 H   0  0  0  0  0  0
  -20.9347  -29.9129   21.7135 H   0  0  0  0  0  0
  -26.0139  -38.2896   24.1420 H   0  0  0  0  0  0
  -29.1113  -17.8294   22.6013 H   0  0  0  0  0  0
  -29.3772  -25.3234   23.0697 H   0  0  0  0  0  0
  -29.2558  -26.9841   22.4935 H   0  0  0  0  0  0
  -30.4594  -25.8980   21.8198 H   0  0  0  0  0  0
  -28.2163  -23.9338   19.5926 H   0  0  0  0  0  0
  -29.8461  -24.0944   20.1894 H   0  0  0  0  0  0
  -27.4428  -25.4248   21.5572 H   0  0  0  0  0  0
  -28.4665  -20.6533   18.3673 H   0  0  0  0  0  0
  -29.4196  -19.5986   17.4969 H   0  0  0  0  0  0
  -29.1000  -15.1692   21.7365 H   0  0  0  0  0  0
  -29.3140  -21.5229   20.0805 H   0  0  0  0  0  0
  1 25  1  0  0  0
  1 30  2  0  0  0
  1 81  1  0  0  0
  2  3  1  0  0  0
  2 25  1  0  0  0
  2 86  1  0  0  0
  2 87  1  0  0  0
  3  4  1  0  0  0
  3 88  1  0  0  0
  3 89  1  0  0  0
  4  5  1  0  0  0
  4 90  1  0  0  0
  4 91  1  0  0  0
  5  6  1  0  0  0
  5 26  1  0  0  0
  5 92  1  0  0  0
  6 25  1  0  0  0
  6 93  1  0  0  0
  6 94  1  0  0  0
  7  8  2  0  0  0
  7 26  1  0  0  0
  7 29  1  0  0  0
  8  9  1  0  0  0
  8 22  1  0  0  0
  9 10  1  0  0  0
  9 27  2  0  0  0
 10 11  2  0  0  0
 10 15  1  0  0  0
 11 12  1  0  0  0
 11 95  1  0  0  0
 12 13  2  0  0  0
 12 96  1  0  0  0
 13 14  1  0  0  0
 13 31  1  0  0  0
 14 15  2  0  0  0
 14 97  1  0  0  0
 15 98  1  0  0  0
 16 17  2  0  0  0
 16 21  1  0  0  0
 16 31  1  0  0  0
 17 18  1  0  0  0
 17 99  1  0  0  0
 18 19  2  0  0  0
 18100  1  0  0  0
 19 20  1  0  0  0
 19 24  1  0  0  0
 20 21  2  0  0  0
 20101  1  0  0  0
 21 23  1  0  0  0
 22 28  1  0  0  0
 22 32  2  0  0  0
 26 27  1  0  0  0
 28102  1  0  0  0
 28103  1  0  0  0
 29104  1  0  0  0
 29105  1  0  0  0
 33 34  1  0  0  0
 33 66  1  0  0  0
 33 70  2  0  0  0
 34 36  1  0  0  0
 34 59  1  0  0  0
 34106  1  0  0  0
 35 44  2  0  0  0
 35 45  1  0  0  0
 35 68  1  0  0  0
 36 56  1  0  0  0
 36107  1  0  0  0
 37 39  1  0  0  0
 37 47  1  0  0  0
 37 66  1  0  0  0
 37108  1  0  0  0
 38 43  2  0  0  0
 38 46  1  0  0  0
 38 47  1  0  0  0
 39 64  1  0  0  0
 39 67  2  0  0  0
 40 52  1  0  0  0
 40 53  2  0  0  0
 40 58  1  0  0  0
 41109  1  0  0  0
 41110  1  0  0  0
 41111  1  0  0  0
 41 48  1  0  0  0
 42 43  1  0  0  0
 42 66  1  0  0  0
 42112  1  0  0  0
 42113  1  0  0  0
 43 44  1  0  0  0
 44114  1  0  0  0
 45 46  2  0  0  0
 45115  1  0  0  0
 46116  1  0  0  0
 47117  1  0  0  0
 47118  1  0  0  0
 48 56  1  0  0  0
 48 65  1  0  0  0
 48119  1  0  0  0
 49 50  1  0  0  0
 49 53  1  0  0  0
 49 64  1  0  0  0
 49120  1  0  0  0
 50 51  1  0  0  0
 50121  1  0  0  0
 50122  1  0  0  0
 51 52  1  0  0  0
 51123  1  0  0  0
 51124  1  0  0  0
 52125  1  0  0  0
 52126  1  0  0  0
 53 54  1  0  0  0
 54 55  2  0  0  0
 54127  1  0  0  0
 55 57  1  0  0  0
 55128  1  0  0  0
 56 69  2  0  0  0
 57 58  2  0  0  0
 57129  1  0  0  0
 58130  1  0  0  0
 59 60  1  0  0  0
 59 61  1  0  0  0
 59 62  1  0  0  0
 60131  1  0  0  0
 60132  1  0  0  0
 60133  1  0  0  0
 61134  1  0  0  0
 61135  1  0  0  0
 61136  1  0  0  0
 62137  1  0  0  0
 62138  1  0  0  0
 62139  1  0  0  0
 63 65  1  0  0  0
 63140  1  0  0  0
 63141  1  0  0  0
 63142  1  0  0  0
 64143  1  0  0  0
 65144  1  0  0  0
 68 79  1  0  0  0
 71 72  1  0  0  0
 71 73  2  0  0  0
 71145  1  0  0  0
 72 74  2  0  0  0
 72 75  1  0  0  0
 73 81  1  0  0  0
 73 85  1  0  0  0
 74 80  1  0  0  0
 74 85  1  0  0  0
 75 82  1  0  0  0
 75 83  2  0  0  0
 76 78  1  0  0  0
 76 82  1  0  0  0
 76 84  2  0  0  0
 77146  1  0  0  0
 77147  1  0  0  0
 77148  1  0  0  0
 77 79  1  0  0  0
 78 79  1  0  0  0
 78149  1  0  0  0
 78150  1  0  0  0
 79151  1  0  0  0
 80152  1  0  0  0
 80153  1  0  0  0
 81154  1  0  0  0
 82155  1  0  0  0
M  ISO  4   1 100  68 101  79 101  81 100
M  END
> <chiral flag>
0

> <version>
0

> <s_m_source_file>
/data/baiqing/PycharmProjects/Reinvent-master-3.2/result/LINK_invent/BTK/process_docking_weight1_custom_product_contain_oxygen_bond_distance_aromatic_linkinvent_7_9_3/rearranged_h_0179.sdf

> <i_m_source_file_index>
57

> <r_mmod_Potential_Energy-OPLS-2005>
-64.1160888671875

> <r_mmod_Stretch_Energy-OPLS-2005>
52.4224739074707

> <r_mmod_Bend_Energy-OPLS-2005>
120.074996948242

> <r_mmod_Torsional_Energy-OPLS-2005>
251.799392700195

> <r_mmod_Improper_Torsional_Energy-OPLS-2005>
6.9269495010376

> <r_mmod_Van_der_Waal_Energy-OPLS-2005>
129.559768676758

> <r_mmod_Electrostatic_Energy-OPLS-2005>
-383.227783203125

> <r_mmod_Solvation_Energy-OPLS-2005>
-267.674652099609

> <b_mmod_Minimization_Converged-OPLS-2005>
0

> <r_mmod_RMS_Derivative-OPLS-2005>
7.51634359359741

$$$$
57
                    3D
 Structure written by MMmdl.
152160  0  0  1  0            999 V2000
  -30.7219  -14.5007   20.5669 C   0  0  0  0  0  0
  -30.4127  -12.3296   19.4293 C   0  0  0  0  0  0
  -29.4900  -12.5076   18.2072 C   0  0  0  0  0  0
  -28.0133  -12.3658   18.6223 C   0  0  0  0  0  0
  -27.6552  -13.2195   19.8690 C   0  0  2  0  0  0
  -28.6990  -13.0424   20.9941 C   0  0  0  0  0  0
  -25.2553  -13.8183   20.5690 C   0  0  0  0  0  0
  -24.1818  -13.0438   20.9158 C   0  0  0  0  0  0
  -24.6395  -11.6910   20.8731 C   0  0  0  0  0  0
  -23.9070  -10.4285   21.0397 C   0  0  0  0  0  0
  -24.3621   -9.4201   21.9176 C   0  0  0  0  0  0
  -23.6289   -8.2243   22.0752 C   0  0  0  0  0  0
  -22.4274   -8.0278   21.3544 C   0  0  0  0  0  0
  -21.9909   -9.0251   20.4647 C   0  0  0  0  0  0
  -22.7239  -10.2127   20.3049 C   0  0  0  0  0  0
  -21.6853   -6.0729   22.5276 C   0  0  0  0  0  0
  -21.4017   -6.5639   23.8208 C   0  0  0  0  0  0
  -21.3658   -5.6792   24.9173 C   0  0  0  0  0  0
  -21.6042   -4.3055   24.7223 C   0  0  0  0  0  0
  -21.8819   -3.8144   23.4346 C   0  0  0  0  0  0
  -21.9194   -4.6956   22.3403 C   0  0  0  0  0  0
  -22.7840  -13.5225   21.1832 C   0  0  0  0  0  0
  -22.1661   -4.2142   21.0979 F   0  0  0  0  0  0
  -21.5625   -3.4539   25.7736 F   0  0  0  0  0  0
  -30.0231  -13.3390   20.4301 N   0  0  0  0  0  0
  -26.3001  -12.9385   20.3367 N   0  0  0  0  0  0
  -25.9335  -11.6529   20.5778 N   0  0  0  0  0  0
  -22.0493  -12.8216   22.0396 N   0  0  0  0  0  0
  -25.4265  -15.1899   20.4124 N   0  0  0  0  0  0
  -31.8598  -14.6328   20.1097 O   0  0  0  0  0  0
  -21.6641   -6.8871   21.4239 O   0  0  0  0  0  0
  -22.3514  -14.5531   20.6682 O   0  0  0  0  0  0
  -24.6167  -31.8668   23.2089 C   0  0  0  0  0  0
  -25.9052  -32.4817   23.8388 C   0  0  1  0  0  0
  -27.2269  -27.4124   20.1050 C   0  0  0  0  0  0
  -25.5900  -33.8618   24.2314 N   0  0  0  0  0  0
  -23.4059  -30.4911   21.5496 C   0  0  2  0  0  0
  -24.8534  -28.9572   20.1121 C   0  0  0  0  0  0
  -22.7419  -29.4658   22.4979 C   0  0  0  0  0  0
  -18.0265  -28.1379   22.8488 C   0  0  0  0  0  0
  -24.1484  -36.7311   23.2632 C   0  0  0  0  0  0
  -25.9378  -30.8268   21.3655 C   0  0  0  0  0  0
  -26.0163  -29.4605   20.7111 C   0  0  0  0  0  0
  -27.2101  -28.6964   20.7029 C   0  0  0  0  0  0
  -26.0504  -26.9352   19.4888 C   0  0  0  0  0  0
  -24.8664  -27.6949   19.4948 C   0  0  0  0  0  0
  -23.6157  -29.8249   20.1641 C   0  0  0  0  0  0
  -25.4107  -36.3110   24.0333 C   0  0  1  0  0  0
  -20.5864  -28.3669   23.1314 C   0  0  2  0  0  0
  -20.6762  -26.9402   22.5421 C   0  0  0  0  0  0
  -19.5748  -26.6384   21.5213 C   0  0  0  0  0  0
  -18.1920  -26.7928   22.1610 C   0  0  0  0  0  0
  -19.1517  -28.8837   23.2903 C   0  0  0  0  0  0
  -18.9451  -30.1444   23.8914 C   0  0  0  0  0  0
  -17.6457  -30.6587   24.0567 C   0  0  0  0  0  0
  -25.9039  -34.9477   23.5122 C   0  0  0  0  0  0
  -16.5344  -29.9091   23.6332 C   0  0  0  0  0  0
  -16.7254  -28.6508   23.0349 C   0  0  0  0  0  0
  -26.4472  -31.6603   25.0720 C   0  0  0  0  0  0
  -25.3738  -31.3733   26.1474 C   0  0  0  0  0  0
  -27.0286  -30.3033   24.6110 C   0  0  0  0  0  0
  -27.6049  -32.4324   25.7476 C   0  0  0  0  0  0
  -27.5590  -37.1800   24.8452 C   0  0  0  0  0  0
  -21.4143  -29.3037   22.3717 N   0  0  0  0  0  0
  -26.4286  -37.3805   23.9420 N   0  0  0  0  0  0
  -24.6721  -31.0754   22.0998 N   0  0  0  0  0  0
  -23.4189  -28.8198   23.3025 O   0  0  0  0  0  0
  -28.3474  -26.6033   20.1289 O   0  0  0  0  0  0
  -26.5607  -34.8936   22.4687 O   0  0  0  0  0  0
  -23.5356  -32.1418   23.7480 O   0  0  0  0  0  0
  -28.3350  -19.8496   21.5924 C   0  0  0  0  0  0
  -28.7048  -18.4818   21.8325 C   0  0  0  0  0  0
  -29.9160  -18.1302   21.2878 C   0  0  0  0  0  0
  -29.2664  -20.5802   20.8823 C   0  0  0  0  0  0
  -28.1602  -25.3436   20.6795 C   0  0  0  0  0  0
  -28.8366  -24.2238   20.3219 C   0  0  0  0  0  0
  -28.5269  -22.9339   20.9711 C   0  0  0  0  0  0
  -30.7350  -16.8533   21.4230 C   0  0  0  0  0  0
  -27.8827  -17.6430   22.5971 N   0  0  0  0  0  0
  -29.2758  -21.9035   20.5126 N   0  0  0  0  0  0
  -30.0843  -15.5547   21.1259 N   0  0  0  0  0  0
  -27.6742  -22.7909   21.8514 O   0  0  0  0  0  0
  -29.7813  -24.2901   19.3700 O   0  0  0  0  0  0
  -30.5899  -19.5145   20.4387 S   0  0  0  0  0  0
  -31.4587  -12.4136   19.1287 H   0  0  0  0  0  0
  -30.3062  -11.3268   19.8462 H   0  0  0  0  0  0
  -29.7340  -11.7716   17.4399 H   0  0  0  0  0  0
  -29.6557  -13.4877   17.7558 H   0  0  0  0  0  0
  -27.8291  -11.3115   18.8302 H   0  0  0  0  0  0
  -27.3603  -12.6278   17.7883 H   0  0  0  0  0  0
  -27.6855  -14.2630   19.5528 H   0  0  0  0  0  0
  -28.6820  -12.0195   21.3731 H   0  0  0  0  0  0
  -28.4621  -13.6783   21.8481 H   0  0  0  0  0  0
  -25.2765   -9.5673   22.4755 H   0  0  0  0  0  0
  -23.9987   -7.4636   22.7484 H   0  0  0  0  0  0
  -21.0832   -8.8771   19.8963 H   0  0  0  0  0  0
  -22.3692  -10.9666   19.6159 H   0  0  0  0  0  0
  -21.2011   -7.6148   23.9707 H   0  0  0  0  0  0
  -21.1482   -6.0526   25.9072 H   0  0  0  0  0  0
  -22.0602   -2.7604   23.2850 H   0  0  0  0  0  0
  -22.4105  -11.9865   22.4770 H   0  0  0  0  0  0
  -21.1120  -13.1245   22.2619 H   0  0  0  0  0  0
  -24.6723  -15.8516   20.5574 H   0  0  0  0  0  0
  -26.3043  -15.6399   20.1848 H   0  0  0  0  0  0
  -26.7120  -32.5518   23.1152 H   0  0  0  0  0  0
  -25.0062  -33.9779   25.0465 H   0  0  0  0  0  0
  -22.6968  -31.3095   21.4105 H   0  0  0  0  0  0
  -23.3756  -35.9635   23.3286 H   0  0  0  0  0  0
  -24.3585  -36.8937   22.2051 H   0  0  0  0  0  0
  -23.7226  -37.6507   23.6658 H   0  0  0  0  0  0
  -26.0521  -31.5930   20.5980 H   0  0  0  0  0  0
  -26.8247  -30.8796   21.9851 H   0  0  0  0  0  0
  -28.1062  -29.0760   21.1739 H   0  0  0  0  0  0
  -26.0462  -25.9638   19.0154 H   0  0  0  0  0  0
  -23.9740  -27.3030   19.0258 H   0  0  0  0  0  0
  -23.7257  -30.6005   19.4058 H   0  0  0  0  0  0
  -22.7390  -29.2468   19.8666 H   0  0  0  0  0  0
  -25.1286  -36.1966   25.0826 H   0  0  0  0  0  0
  -20.9947  -28.3230   24.1438 H   0  0  0  0  0  0
  -20.5651  -26.2282   23.3613 H   0  0  0  0  0  0
  -21.6639  -26.7442   22.1220 H   0  0  0  0  0  0
  -19.6918  -25.6297   21.1239 H   0  0  0  0  0  0
  -19.6701  -27.3202   20.6752 H   0  0  0  0  0  0
  -17.4200  -26.6685   21.4001 H   0  0  0  0  0  0
  -18.0310  -26.0058   22.8990 H   0  0  0  0  0  0
  -19.7929  -30.7252   24.2294 H   0  0  0  0  0  0
  -17.5014  -31.6271   24.5157 H   0  0  0  0  0  0
  -15.5351  -30.3006   23.7655 H   0  0  0  0  0  0
  -15.8647  -28.0842   22.7065 H   0  0  0  0  0  0
  -24.5911  -30.7072   25.7826 H   0  0  0  0  0  0
  -24.8934  -32.2900   26.4906 H   0  0  0  0  0  0
  -25.8091  -30.8921   27.0240 H   0  0  0  0  0  0
  -26.2826  -29.6806   24.1157 H   0  0  0  0  0  0
  -27.4029  -29.7265   25.4577 H   0  0  0  0  0  0
  -27.8680  -30.4332   23.9276 H   0  0  0  0  0  0
  -27.2670  -33.3624   26.2063 H   0  0  0  0  0  0
  -28.3855  -32.6880   25.0297 H   0  0  0  0  0  0
  -28.0720  -31.8439   26.5384 H   0  0  0  0  0  0
  -28.2580  -38.0124   24.7548 H   0  0  0  0  0  0
  -28.1114  -36.2663   24.6206 H   0  0  0  0  0  0
  -27.2323  -37.1354   25.8855 H   0  0  0  0  0  0
  -20.9305  -29.8769   21.6944 H   0  0  0  0  0  0
  -26.0170  -38.2873   24.1465 H   0  0  0  0  0  0
  -27.4091  -20.2558   21.9739 H   0  0  0  0  0  0
  -27.3919  -25.3428   21.4446 H   0  0  0  0  0  0
  -31.0986  -16.7921   22.4491 H   0  0  0  0  0  0
  -31.6349  -16.9705   20.8166 H   0  0  0  0  0  0
  -27.1406  -18.0812   23.1334 H   0  0  0  0  0  0
  -28.3277  -16.8936   23.1146 H   0  0  0  0  0  0
  -29.9690  -22.1872   19.8313 H   0  0  0  0  0  0
  -29.1287  -15.4291   21.4229 H   0  0  0  0  0  0
  -29.8167  -25.1947   19.0845 H   0  0  0  0  0  0
  1 25  1  0  0  0
  1 30  2  0  0  0
  1 81  1  0  0  0
  2  3  1  0  0  0
  2 25  1  0  0  0
  2 85  1  0  0  0
  2 86  1  0  0  0
  3  4  1  0  0  0
  3 87  1  0  0  0
  3 88  1  0  0  0
  4  5  1  0  0  0
  4 89  1  0  0  0
  4 90  1  0  0  0
  5  6  1  0  0  0
  5 26  1  0  0  0
  5 91  1  0  0  0
  6 25  1  0  0  0
  6 92  1  0  0  0
  6 93  1  0  0  0
  7  8  2  0  0  0
  7 26  1  0  0  0
  7 29  1  0  0  0
  8  9  1  0  0  0
  8 22  1  0  0  0
  9 10  1  0  0  0
  9 27  2  0  0  0
 10 11  2  0  0  0
 10 15  1  0  0  0
 11 12  1  0  0  0
 11 94  1  0  0  0
 12 13  2  0  0  0
 12 95  1  0  0  0
 13 14  1  0  0  0
 13 31  1  0  0  0
 14 15  2  0  0  0
 14 96  1  0  0  0
 15 97  1  0  0  0
 16 17  2  0  0  0
 16 21  1  0  0  0
 16 31  1  0  0  0
 17 18  1  0  0  0
 17 98  1  0  0  0
 18 19  2  0  0  0
 18 99  1  0  0  0
 19 20  1  0  0  0
 19 24  1  0  0  0
 20 21  2  0  0  0
 20100  1  0  0  0
 21 23  1  0  0  0
 22 28  1  0  0  0
 22 32  2  0  0  0
 26 27  1  0  0  0
 28101  1  0  0  0
 28102  1  0  0  0
 29103  1  0  0  0
 29104  1  0  0  0
 33 34  1  0  0  0
 33 66  1  0  0  0
 33 70  2  0  0  0
 34 36  1  0  0  0
 34 59  1  0  0  0
 34105  1  0  0  0
 35 44  2  0  0  0
 35 45  1  0  0  0
 35 68  1  0  0  0
 36 56  1  0  0  0
 36106  1  0  0  0
 37 39  1  0  0  0
 37 47  1  0  0  0
 37 66  1  0  0  0
 37107  1  0  0  0
 38 43  2  0  0  0
 38 46  1  0  0  0
 38 47  1  0  0  0
 39 64  1  0  0  0
 39 67  2  0  0  0
 40 52  1  0  0  0
 40 53  2  0  0  0
 40 58  1  0  0  0
 41108  1  0  0  0
 41109  1  0  0  0
 41110  1  0  0  0
 41 48  1  0  0  0
 42 43  1  0  0  0
 42 66  1  0  0  0
 42111  1  0  0  0
 42112  1  0  0  0
 43 44  1  0  0  0
 44113  1  0  0  0
 45 46  2  0  0  0
 45114  1  0  0  0
 46115  1  0  0  0
 47116  1  0  0  0
 47117  1  0  0  0
 48 56  1  0  0  0
 48 65  1  0  0  0
 48118  1  0  0  0
 49 50  1  0  0  0
 49 53  1  0  0  0
 49 64  1  0  0  0
 49119  1  0  0  0
 50 51  1  0  0  0
 50120  1  0  0  0
 50121  1  0  0  0
 51 52  1  0  0  0
 51122  1  0  0  0
 51123  1  0  0  0
 52124  1  0  0  0
 52125  1  0  0  0
 53 54  1  0  0  0
 54 55  2  0  0  0
 54126  1  0  0  0
 55 57  1  0  0  0
 55127  1  0  0  0
 56 69  2  0  0  0
 57 58  2  0  0  0
 57128  1  0  0  0
 58129  1  0  0  0
 59 60  1  0  0  0
 59 61  1  0  0  0
 59 62  1  0  0  0
 60130  1  0  0  0
 60131  1  0  0  0
 60132  1  0  0  0
 61133  1  0  0  0
 61134  1  0  0  0
 61135  1  0  0  0
 62136  1  0  0  0
 62137  1  0  0  0
 62138  1  0  0  0
 63 65  1  0  0  0
 63139  1  0  0  0
 63140  1  0  0  0
 63141  1  0  0  0
 64142  1  0  0  0
 65143  1  0  0  0
 68 75  1  0  0  0
 71 72  1  0  0  0
 71 74  2  0  0  0
 71144  1  0  0  0
 72 73  2  0  0  0
 72 79  1  0  0  0
 73 78  1  0  0  0
 73 84  1  0  0  0
 74 80  1  0  0  0
 74 84  1  0  0  0
 75 76  2  0  0  0
 75145  1  0  0  0
 76 77  1  0  0  0
 76 83  1  0  0  0
 77 80  1  0  0  0
 77 82  2  0  0  0
 78 81  1  0  0  0
 78146  1  0  0  0
 78147  1  0  0  0
 79148  1  0  0  0
 79149  1  0  0  0
 80150  1  0  0  0
 81151  1  0  0  0
 83152  1  0  0  0
M  ISO  4   1 100  68 101  75 101  81 100
M  END
> <chiral flag>
0

> <version>
0

> <s_m_source_file>
/data/baiqing/PycharmProjects/Reinvent-master-3.2/result/LINK_invent/BTK/process_docking_weight1_custom_product_contain_oxygen_bond_distance_aromatic_linkinvent_7_9_3/rearranged_h_0179.sdf

> <i_m_source_file_index>
58

> <r_mmod_Potential_Energy-OPLS-2005>
-152.472915649414

> <r_mmod_Stretch_Energy-OPLS-2005>
41.3442153930664

> <r_mmod_Bend_Energy-OPLS-2005>
108.427291870117

> <r_mmod_Torsional_Energy-OPLS-2005>
204.169403076172

> <r_mmod_Improper_Torsional_Energy-OPLS-2005>
6.54826927185059

> <r_mmod_Van_der_Waal_Energy-OPLS-2005>
136.70149230957

> <r_mmod_Electrostatic_Energy-OPLS-2005>
-446.498901367188

> <r_mmod_Solvation_Energy-OPLS-2005>
-222.441192626953

> <b_mmod_Minimization_Converged-OPLS-2005>
0

> <r_mmod_RMS_Derivative-OPLS-2005>
1.09411311149597

$$$$
58
                    3D
 Structure written by MMmdl.
157165  0  0  1  0            999 V2000
  -30.6910  -14.4759   20.6017 C   0  0  0  0  0  0
  -30.4262  -12.3218   19.4182 C   0  0  0  0  0  0
  -29.4862  -12.5159   18.2090 C   0  0  0  0  0  0
  -28.0066  -12.3827   18.6194 C   0  0  0  0  0  0
  -27.6590  -13.2061   19.8872 C   0  0  2  0  0  0
  -28.7035  -12.9662   21.0018 C   0  0  0  0  0  0
  -25.2365  -13.8023   20.5372 C   0  0  0  0  0  0
  -24.1728  -13.0328   20.9155 C   0  0  0  0  0  0
  -24.6372  -11.6847   20.8814 C   0  0  0  0  0  0
  -23.9062  -10.4248   21.0470 C   0  0  0  0  0  0
  -24.3618   -9.4168   21.9229 C   0  0  0  0  0  0
  -23.6303   -8.2197   22.0782 C   0  0  0  0  0  0
  -22.4273   -8.0264   21.3567 C   0  0  0  0  0  0
  -21.9924   -9.0240   20.4664 C   0  0  0  0  0  0
  -22.7248  -10.2116   20.3096 C   0  0  0  0  0  0
  -21.6842   -6.0734   22.5284 C   0  0  0  0  0  0
  -21.4005   -6.5639   23.8216 C   0  0  0  0  0  0
  -21.3647   -5.6787   24.9170 C   0  0  0  0  0  0
  -21.6044   -4.3062   24.7213 C   0  0  0  0  0  0
  -21.8831   -3.8156   23.4328 C   0  0  0  0  0  0
  -21.9205   -4.6974   22.3390 C   0  0  0  0  0  0
  -22.7762  -13.5148   21.1830 C   0  0  0  0  0  0
  -22.1671   -4.2174   21.0971 F   0  0  0  0  0  0
  -21.5628   -3.4535   25.7721 F   0  0  0  0  0  0
  -30.0365  -13.2900   20.4560 N   0  0  0  0  0  0
  -26.2971  -12.9287   20.3416 N   0  0  0  0  0  0
  -25.9333  -11.6460   20.5954 N   0  0  0  0  0  0
  -22.0443  -12.8179   22.0453 N   0  0  0  0  0  0
  -25.3685  -15.1623   20.3118 N   0  0  0  0  0  0
  -31.7919  -14.6934   20.0852 O   0  0  0  0  0  0
  -21.6631   -6.8874   21.4248 O   0  0  0  0  0  0
  -22.3448  -14.5461   20.6710 O   0  0  0  0  0  0
  -24.6186  -31.8667   23.2096 C   0  0  0  0  0  0
  -25.9093  -32.4794   23.8408 C   0  0  1  0  0  0
  -27.2595  -27.4435   20.1033 C   0  0  0  0  0  0
  -25.5979  -33.8593   24.2348 N   0  0  0  0  0  0
  -23.4070  -30.4852   21.5493 C   0  0  2  0  0  0
  -24.8591  -28.9371   20.1301 C   0  0  0  0  0  0
  -22.7444  -29.4653   22.5021 C   0  0  0  0  0  0
  -18.0313  -28.1382   22.8487 C   0  0  0  0  0  0
  -24.1499  -36.7305   23.2620 C   0  0  0  0  0  0
  -25.9354  -30.8295   21.3675 C   0  0  0  0  0  0
  -26.0141  -29.4593   20.7261 C   0  0  0  0  0  0
  -27.2170  -28.7178   20.7111 C   0  0  0  0  0  0
  -26.0882  -26.9237   19.5153 C   0  0  0  0  0  0
  -24.8886  -27.6657   19.5275 C   0  0  0  0  0  0
  -23.6185  -29.8036   20.1687 C   0  0  0  0  0  0
  -25.4093  -36.3070   24.0349 C   0  0  1  0  0  0
  -20.5905  -28.3661   23.1312 C   0  0  2  0  0  0
  -20.6825  -26.9405   22.5408 C   0  0  0  0  0  0
  -19.5778  -26.6375   21.5230 C   0  0  0  0  0  0
  -18.1939  -26.7938   22.1600 C   0  0  0  0  0  0
  -19.1561  -28.8850   23.2887 C   0  0  0  0  0  0
  -18.9473  -30.1473   23.8864 C   0  0  0  0  0  0
  -17.6462  -30.6581   24.0554 C   0  0  0  0  0  0
  -25.9053  -34.9453   23.5130 C   0  0  0  0  0  0
  -16.5375  -29.9053   23.6350 C   0  0  0  0  0  0
  -16.7291  -28.6497   23.0339 C   0  0  0  0  0  0
  -26.4494  -31.6572   25.0756 C   0  0  0  0  0  0
  -25.3769  -31.3764   26.1526 C   0  0  0  0  0  0
  -27.0248  -30.2969   24.6164 C   0  0  0  0  0  0
  -27.6042  -32.4282   25.7569 C   0  0  0  0  0  0
  -27.5600  -37.1790   24.8427 C   0  0  0  0  0  0
  -21.4192  -29.3021   22.3738 N   0  0  0  0  0  0
  -26.4232  -37.3796   23.9489 N   0  0  0  0  0  0
  -24.6709  -31.0773   22.0994 N   0  0  0  0  0  0
  -23.4210  -28.8220   23.3086 O   0  0  0  0  0  0
  -28.4507  -26.7664   19.9718 O   0  0  0  0  0  0
  -26.5555  -34.8912   22.4655 O   0  0  0  0  0  0
  -23.5370  -32.1394   23.7512 O   0  0  0  0  0  0
  -31.4374  -17.4641   21.2225 C   0  0  0  0  0  0
  -29.0040  -17.7211   21.3971 C   0  0  0  0  0  0
  -30.1496  -16.8631   21.2760 C   0  0  0  0  0  0
  -30.4714  -19.7076   21.3414 C   0  0  0  0  0  0
  -31.5970  -18.8646   21.2687 C   0  0  0  0  0  0
  -29.1854  -19.1318   21.4131 C   0  0  0  0  0  0
  -27.6202  -17.1784   21.5174 C   0  0  0  0  0  0
  -30.0120  -22.0373   20.6827 C   0  0  0  0  0  0
  -30.0162  -23.4935   21.1882 C   0  0  0  0  0  0
  -29.3841  -24.5382   20.2245 C   0  0  0  0  0  0
  -28.7633  -25.7632   20.9408 C   0  0  0  0  0  0
  -26.5386  -17.8307   21.6485 N   0  0  0  0  0  0
  -30.6305  -21.1210   21.4481 N   0  0  0  0  0  0
  -29.9994  -15.4232   21.2741 N   0  0  0  0  0  0
  -29.4828  -21.7459   19.6069 O   0  0  0  0  0  0
  -32.8423  -19.3994   21.2480 F   0  0  0  0  0  0
  -28.1158  -19.9616   21.5444 F   0  0  0  0  0  0
  -31.4649  -12.4432   19.1040 H   0  0  0  0  0  0
  -30.3531  -11.3049   19.8078 H   0  0  0  0  0  0
  -29.7199  -11.7908   17.4281 H   0  0  0  0  0  0
  -29.6539  -13.5025   17.7739 H   0  0  0  0  0  0
  -27.7989  -11.3254   18.7929 H   0  0  0  0  0  0
  -27.3607  -12.6872   17.7942 H   0  0  0  0  0  0
  -27.7070  -14.2593   19.6112 H   0  0  0  0  0  0
  -28.6828  -11.9208   21.3134 H   0  0  0  0  0  0
  -28.4580  -13.5350   21.8993 H   0  0  0  0  0  0
  -25.2750   -9.5636   22.4818 H   0  0  0  0  0  0
  -24.0024   -7.4578   22.7482 H   0  0  0  0  0  0
  -21.0871   -8.8754   19.8941 H   0  0  0  0  0  0
  -22.3728  -10.9671   19.6220 H   0  0  0  0  0  0
  -21.1988   -7.6138   23.9722 H   0  0  0  0  0  0
  -21.1451   -6.0510   25.9071 H   0  0  0  0  0  0
  -22.0626   -2.7628   23.2823 H   0  0  0  0  0  0
  -22.4044  -11.9814   22.4774 H   0  0  0  0  0  0
  -21.1100  -13.1276   22.2753 H   0  0  0  0  0  0
  -24.5819  -15.7974   20.3985 H   0  0  0  0  0  0
  -26.1902  -15.6199   19.9441 H   0  0  0  0  0  0
  -26.7208  -32.5511   23.1203 H   0  0  0  0  0  0
  -25.0280  -33.9767   25.0601 H   0  0  0  0  0  0
  -22.6950  -31.3009   21.4033 H   0  0  0  0  0  0
  -23.3781  -35.9603   23.3097 H   0  0  0  0  0  0
  -24.3689  -36.9099   22.2083 H   0  0  0  0  0  0
  -23.7184  -37.6436   23.6737 H   0  0  0  0  0  0
  -26.0571  -31.5927   20.5985 H   0  0  0  0  0  0
  -26.8209  -30.8843   21.9894 H   0  0  0  0  0  0
  -28.1199  -29.1254   21.1432 H   0  0  0  0  0  0
  -26.1140  -25.9605   19.0261 H   0  0  0  0  0  0
  -24.0022  -27.2587   19.0623 H   0  0  0  0  0  0
  -23.7246  -30.5661   19.3949 H   0  0  0  0  0  0
  -22.7463  -29.2140   19.8811 H   0  0  0  0  0  0
  -25.1239  -36.1892   25.0829 H   0  0  0  0  0  0
  -21.0009  -28.3217   24.1428 H   0  0  0  0  0  0
  -20.5843  -26.2240   23.3575 H   0  0  0  0  0  0
  -21.6669  -26.7512   22.1127 H   0  0  0  0  0  0
  -19.6949  -25.6283   21.1265 H   0  0  0  0  0  0
  -19.6738  -27.3191   20.6761 H   0  0  0  0  0  0
  -17.4252  -26.6765   21.3958 H   0  0  0  0  0  0
  -18.0275  -26.0077   22.8972 H   0  0  0  0  0  0
  -19.7933  -30.7352   24.2190 H   0  0  0  0  0  0
  -17.4992  -31.6259   24.5125 H   0  0  0  0  0  0
  -15.5375  -30.2922   23.7704 H   0  0  0  0  0  0
  -15.8692  -28.0828   22.7009 H   0  0  0  0  0  0
  -24.5860  -30.7192   25.7912 H   0  0  0  0  0  0
  -24.9092  -32.2981   26.5004 H   0  0  0  0  0  0
  -25.8129  -30.8901   27.0265 H   0  0  0  0  0  0
  -26.2801  -29.6864   24.1046 H   0  0  0  0  0  0
  -27.3754  -29.7090   25.4658 H   0  0  0  0  0  0
  -27.8774  -30.4193   23.9473 H   0  0  0  0  0  0
  -27.2616  -33.3577   26.2137 H   0  0  0  0  0  0
  -28.3909  -32.6856   25.0466 H   0  0  0  0  0  0
  -28.0635  -31.8409   26.5530 H   0  0  0  0  0  0
  -28.2405  -38.0276   24.7661 H   0  0  0  0  0  0
  -28.1295  -36.2816   24.5952 H   0  0  0  0  0  0
  -27.2413  -37.1114   25.8841 H   0  0  0  0  0  0
  -20.9424  -29.8653   21.6854 H   0  0  0  0  0  0
  -26.0069  -38.2825   24.1641 H   0  0  0  0  0  0
  -32.3349  -16.8642   21.1720 H   0  0  0  0  0  0
  -27.5462  -16.0906   21.4850 H   0  0  0  0  0  0
  -31.0402  -23.7786   21.4322 H   0  0  0  0  0  0
  -29.4636  -23.5034   22.1286 H   0  0  0  0  0  0
  -28.6087  -24.0860   19.6047 H   0  0  0  0  0  0
  -30.1613  -24.8690   19.5317 H   0  0  0  0  0  0
  -29.4824  -26.1831   21.6454 H   0  0  0  0  0  0
  -27.8907  -25.4620   21.5235 H   0  0  0  0  0  0
  -26.6876  -18.8379   21.6593 H   0  0  0  0  0  0
  -31.2012  -21.4526   22.2133 H   0  0  0  0  0  0
  -29.1336  -15.0649   21.6481 H   0  0  0  0  0  0
  1 25  1  0  0  0
  1 30  2  0  0  0
  1 84  1  0  0  0
  2  3  1  0  0  0
  2 25  1  0  0  0
  2 88  1  0  0  0
  2 89  1  0  0  0
  3  4  1  0  0  0
  3 90  1  0  0  0
  3 91  1  0  0  0
  4  5  1  0  0  0
  4 92  1  0  0  0
  4 93  1  0  0  0
  5  6  1  0  0  0
  5 26  1  0  0  0
  5 94  1  0  0  0
  6 25  1  0  0  0
  6 95  1  0  0  0
  6 96  1  0  0  0
  7  8  2  0  0  0
  7 26  1  0  0  0
  7 29  1  0  0  0
  8  9  1  0  0  0
  8 22  1  0  0  0
  9 10  1  0  0  0
  9 27  2  0  0  0
 10 11  2  0  0  0
 10 15  1  0  0  0
 11 12  1  0  0  0
 11 97  1  0  0  0
 12 13  2  0  0  0
 12 98  1  0  0  0
 13 14  1  0  0  0
 13 31  1  0  0  0
 14 15  2  0  0  0
 14 99  1  0  0  0
 15100  1  0  0  0
 16 17  2  0  0  0
 16 21  1  0  0  0
 16 31  1  0  0  0
 17 18  1  0  0  0
 17101  1  0  0  0
 18 19  2  0  0  0
 18102  1  0  0  0
 19 20  1  0  0  0
 19 24  1  0  0  0
 20 21  2  0  0  0
 20103  1  0  0  0
 21 23  1  0  0  0
 22 28  1  0  0  0
 22 32  2  0  0  0
 26 27  1  0  0  0
 28104  1  0  0  0
 28105  1  0  0  0
 29106  1  0  0  0
 29107  1  0  0  0
 33 34  1  0  0  0
 33 66  1  0  0  0
 33 70  2  0  0  0
 34 36  1  0  0  0
 34 59  1  0  0  0
 34108  1  0  0  0
 35 44  2  0  0  0
 35 45  1  0  0  0
 35 68  1  0  0  0
 36 56  1  0  0  0
 36109  1  0  0  0
 37 39  1  0  0  0
 37 47  1  0  0  0
 37 66  1  0  0  0
 37110  1  0  0  0
 38 43  2  0  0  0
 38 46  1  0  0  0
 38 47  1  0  0  0
 39 64  1  0  0  0
 39 67  2  0  0  0
 40 52  1  0  0  0
 40 53  2  0  0  0
 40 58  1  0  0  0
 41111  1  0  0  0
 41112  1  0  0  0
 41113  1  0  0  0
 41 48  1  0  0  0
 42 43  1  0  0  0
 42 66  1  0  0  0
 42114  1  0  0  0
 42115  1  0  0  0
 43 44  1  0  0  0
 44116  1  0  0  0
 45 46  2  0  0  0
 45117  1  0  0  0
 46118  1  0  0  0
 47119  1  0  0  0
 47120  1  0  0  0
 48 56  1  0  0  0
 48 65  1  0  0  0
 48121  1  0  0  0
 49 50  1  0  0  0
 49 53  1  0  0  0
 49 64  1  0  0  0
 49122  1  0  0  0
 50 51  1  0  0  0
 50123  1  0  0  0
 50124  1  0  0  0
 51 52  1  0  0  0
 51125  1  0  0  0
 51126  1  0  0  0
 52127  1  0  0  0
 52128  1  0  0  0
 53 54  1  0  0  0
 54 55  2  0  0  0
 54129  1  0  0  0
 55 57  1  0  0  0
 55130  1  0  0  0
 56 69  2  0  0  0
 57 58  2  0  0  0
 57131  1  0  0  0
 58132  1  0  0  0
 59 60  1  0  0  0
 59 61  1  0  0  0
 59 62  1  0  0  0
 60133  1  0  0  0
 60134  1  0  0  0
 60135  1  0  0  0
 61136  1  0  0  0
 61137  1  0  0  0
 61138  1  0  0  0
 62139  1  0  0  0
 62140  1  0  0  0
 62141  1  0  0  0
 63 65  1  0  0  0
 63142  1  0  0  0
 63143  1  0  0  0
 63144  1  0  0  0
 64145  1  0  0  0
 65146  1  0  0  0
 68 81  1  0  0  0
 71 73  2  0  0  0
 71 75  1  0  0  0
 71147  1  0  0  0
 72 73  1  0  0  0
 72 76  2  0  0  0
 72 77  1  0  0  0
 73 84  1  0  0  0
 74 75  2  0  0  0
 74 76  1  0  0  0
 74 83  1  0  0  0
 75 86  1  0  0  0
 76 87  1  0  0  0
 77 82  2  0  0  0
 77148  1  0  0  0
 78 79  1  0  0  0
 78 83  1  0  0  0
 78 85  2  0  0  0
 79 80  1  0  0  0
 79149  1  0  0  0
 79150  1  0  0  0
 80 81  1  0  0  0
 80151  1  0  0  0
 80152  1  0  0  0
 81153  1  0  0  0
 81154  1  0  0  0
 82155  1  0  0  0
 83156  1  0  0  0
 84157  1  0  0  0
M  ISO  4   1 100  68 101  81 101  84 100
M  END
> <chiral flag>
0

> <version>
0

> <s_m_source_file>
/data/baiqing/PycharmProjects/Reinvent-master-3.2/result/LINK_invent/BTK/process_docking_weight1_custom_product_contain_oxygen_bond_distance_aromatic_linkinvent_7_9_3/rearranged_h_0179.sdf

> <i_m_source_file_index>
59

> <r_mmod_Potential_Energy-OPLS-2005>
-51.0854988098145

> <r_mmod_Stretch_Energy-OPLS-2005>
42.8134307861328

> <r_mmod_Bend_Energy-OPLS-2005>
98.7704925537109

> <r_mmod_Torsional_Energy-OPLS-2005>
274.33056640625

> <r_mmod_Improper_Torsional_Energy-OPLS-2005>
4.24777221679688

> <r_mmod_Van_der_Waal_Energy-OPLS-2005>
164.729995727539

> <r_mmod_Electrostatic_Energy-OPLS-2005>
-410.422821044922

> <r_mmod_Solvation_Energy-OPLS-2005>
-238.727432250977

> <b_mmod_Minimization_Converged-OPLS-2005>
0

> <r_mmod_RMS_Derivative-OPLS-2005>
4.06090021133423

$$$$
59
                    3D
 Structure written by MMmdl.
151159  0  0  1  0            999 V2000
  -30.6629  -14.6004   20.4762 C   0  0  0  0  0  0
  -30.4254  -12.3620   19.4621 C   0  0  0  0  0  0
  -29.5059  -12.4959   18.2291 C   0  0  0  0  0  0
  -28.0297  -12.3396   18.6405 C   0  0  0  0  0  0
  -27.6525  -13.2197   19.8626 C   0  0  2  0  0  0
  -28.6943  -13.0905   20.9976 C   0  0  0  0  0  0
  -25.2544  -13.8184   20.5678 C   0  0  0  0  0  0
  -24.1811  -13.0446   20.9187 C   0  0  0  0  0  0
  -24.6384  -11.6919   20.8735 C   0  0  0  0  0  0
  -23.9060  -10.4299   21.0407 C   0  0  0  0  0  0
  -24.3621   -9.4206   21.9172 C   0  0  0  0  0  0
  -23.6296   -8.2241   22.0740 C   0  0  0  0  0  0
  -22.4270   -8.0283   21.3542 C   0  0  0  0  0  0
  -21.9902   -9.0259   20.4647 C   0  0  0  0  0  0
  -22.7230  -10.2141   20.3060 C   0  0  0  0  0  0
  -21.6854   -6.0732   22.5281 C   0  0  0  0  0  0
  -21.4015   -6.5637   23.8213 C   0  0  0  0  0  0
  -21.3660   -5.6785   24.9175 C   0  0  0  0  0  0
  -21.6044   -4.3048   24.7225 C   0  0  0  0  0  0
  -21.8816   -3.8141   23.4344 C   0  0  0  0  0  0
  -21.9193   -4.6958   22.3403 C   0  0  0  0  0  0
  -22.7832  -13.5234   21.1861 C   0  0  0  0  0  0
  -22.1659   -4.2145   21.0978 F   0  0  0  0  0  0
  -21.5633   -3.4532   25.7739 F   0  0  0  0  0  0
  -30.0173  -13.3956   20.4349 N   0  0  0  0  0  0
  -26.2982  -12.9375   20.3321 N   0  0  0  0  0  0
  -25.9315  -11.6528   20.5757 N   0  0  0  0  0  0
  -22.0483  -12.8243   22.0438 N   0  0  0  0  0  0
  -25.4248  -15.1905   20.4075 N   0  0  0  0  0  0
  -31.8316  -14.7131   20.0961 O   0  0  0  0  0  0
  -21.6637   -6.8876   21.4243 O   0  0  0  0  0  0
  -22.3512  -14.5533   20.6701 O   0  0  0  0  0  0
  -24.6228  -31.8623   23.2049 C   0  0  0  0  0  0
  -25.9094  -32.4791   23.8361 C   0  0  1  0  0  0
  -27.2215  -27.3616   20.1065 C   0  0  0  0  0  0
  -25.5931  -33.8587   24.2299 N   0  0  0  0  0  0
  -23.4158  -30.4862   21.5456 C   0  0  2  0  0  0
  -24.8647  -28.9519   20.1031 C   0  0  0  0  0  0
  -22.7465  -29.4624   22.4927 C   0  0  0  0  0  0
  -18.0290  -28.1387   22.8482 C   0  0  0  0  0  0
  -24.1493  -36.7300   23.2628 C   0  0  0  0  0  0
  -25.9531  -30.8070   21.3702 C   0  0  0  0  0  0
  -26.0312  -29.4391   20.7095 C   0  0  0  0  0  0
  -27.2182  -28.6522   20.7077 C   0  0  0  0  0  0
  -26.0419  -26.9184   19.4746 C   0  0  0  0  0  0
  -24.8699  -27.6960   19.4757 C   0  0  0  0  0  0
  -23.6293  -29.8254   20.1585 C   0  0  0  0  0  0
  -25.4112  -36.3088   24.0331 C   0  0  1  0  0  0
  -20.5887  -28.3685   23.1291 C   0  0  2  0  0  0
  -20.6776  -26.9409   22.5420 C   0  0  0  0  0  0
  -19.5760  -26.6389   21.5211 C   0  0  0  0  0  0
  -18.1934  -26.7939   22.1609 C   0  0  0  0  0  0
  -19.1540  -28.8855   23.2884 C   0  0  0  0  0  0
  -18.9460  -30.1458   23.8894 C   0  0  0  0  0  0
  -17.6459  -30.6582   24.0571 C   0  0  0  0  0  0
  -25.9047  -34.9456   23.5113 C   0  0  0  0  0  0
  -16.5353  -29.9082   23.6328 C   0  0  0  0  0  0
  -16.7276  -28.6507   23.0337 C   0  0  0  0  0  0
  -26.4498  -31.6583   25.0708 C   0  0  0  0  0  0
  -25.3759  -31.3761   26.1474 C   0  0  0  0  0  0
  -27.0281  -30.2985   24.6136 C   0  0  0  0  0  0
  -27.6099  -32.4283   25.7439 C   0  0  0  0  0  0
  -27.5599  -37.1783   24.8456 C   0  0  0  0  0  0
  -21.4182  -29.3034   22.3678 N   0  0  0  0  0  0
  -26.4292  -37.3783   23.9423 N   0  0  0  0  0  0
  -24.6823  -31.0666   22.0979 N   0  0  0  0  0  0
  -23.4210  -28.8165   23.2989 O   0  0  0  0  0  0
  -28.2751  -26.4566   20.1960 O   0  0  0  0  0  0
  -26.5595  -34.8920   22.4667 O   0  0  0  0  0  0
  -23.5403  -32.1401   23.7402 O   0  0  0  0  0  0
  -30.5291  -17.2604   18.9482 C   0  0  0  0  0  0
  -30.5100  -18.6491   18.6124 C   0  0  0  0  0  0
  -30.0440  -19.5168   19.5753 C   0  0  0  0  0  0
  -30.0546  -16.9703   20.2078 C   0  0  0  0  0  0
  -27.9907  -25.3791   21.0406 C   0  0  0  0  0  0
  -30.0285  -21.0062   19.4623 C   0  0  0  0  0  0
  -28.3075  -24.0427   20.9996 C   0  0  0  0  0  0
  -29.1307  -23.3494   19.9892 C   0  0  0  0  0  0
  -29.9214  -15.7111   20.7757 N   0  0  0  0  0  0
  -29.2238  -21.8810   20.1606 N   0  0  0  0  0  0
  -30.9029  -21.5106   18.5693 N   0  3  0  0  0  0
  -29.7352  -23.9115   19.0663 O   0  0  0  0  0  0
  -27.8183  -23.2727   21.9876 O   0  0  0  0  0  0
  -30.9595  -19.0519   17.4442 F   0  0  0  0  0  0
  -29.5582  -18.5188   20.9644 S   0  0  0  0  0  0
  -31.4705  -12.4571   19.1621 H   0  0  0  0  0  0
  -30.3339  -11.3697   19.9070 H   0  0  0  0  0  0
  -29.7665  -11.7459   17.4807 H   0  0  0  0  0  0
  -29.6570  -13.4678   17.7567 H   0  0  0  0  0  0
  -27.8685  -11.2878   18.8805 H   0  0  0  0  0  0
  -27.3760  -12.5621   17.7964 H   0  0  0  0  0  0
  -27.6708  -14.2523   19.5141 H   0  0  0  0  0  0
  -28.6879  -12.0809   21.4109 H   0  0  0  0  0  0
  -28.4486  -13.7564   21.8263 H   0  0  0  0  0  0
  -25.2772   -9.5675   22.4736 H   0  0  0  0  0  0
  -24.0012   -7.4625   22.7446 H   0  0  0  0  0  0
  -21.0828   -8.8779   19.8959 H   0  0  0  0  0  0
  -22.3681  -10.9681   19.6174 H   0  0  0  0  0  0
  -21.2004   -7.6145   23.9718 H   0  0  0  0  0  0
  -21.1486   -6.0513   25.9077 H   0  0  0  0  0  0
  -22.0594   -2.7603   23.2848 H   0  0  0  0  0  0
  -22.4108  -11.9934   22.4876 H   0  0  0  0  0  0
  -21.1103  -13.1278   22.2649 H   0  0  0  0  0  0
  -24.6549  -15.8433   20.5047 H   0  0  0  0  0  0
  -26.2743  -15.6296   20.0764 H   0  0  0  0  0  0
  -26.7159  -32.5487   23.1108 H   0  0  0  0  0  0
  -25.0119  -33.9734   25.0472 H   0  0  0  0  0  0
  -22.7078  -31.3053   21.4052 H   0  0  0  0  0  0
  -23.3748  -35.9640   23.3286 H   0  0  0  0  0  0
  -24.3594  -36.8913   22.2042 H   0  0  0  0  0  0
  -23.7252  -37.6508   23.6644 H   0  0  0  0  0  0
  -26.0778  -31.5748   20.6051 H   0  0  0  0  0  0
  -26.8354  -30.8551   21.9962 H   0  0  0  0  0  0
  -28.1094  -29.0083   21.2043 H   0  0  0  0  0  0
  -26.0200  -25.9410   19.0127 H   0  0  0  0  0  0
  -23.9754  -27.3168   19.0007 H   0  0  0  0  0  0
  -23.7447  -30.6040   19.4037 H   0  0  0  0  0  0
  -22.7512  -29.2515   19.8571 H   0  0  0  0  0  0
  -25.1281  -36.1941   25.0820 H   0  0  0  0  0  0
  -20.9982  -28.3274   24.1411 H   0  0  0  0  0  0
  -20.5659  -26.2293   23.3616 H   0  0  0  0  0  0
  -21.6652  -26.7441   22.1226 H   0  0  0  0  0  0
  -19.6917  -25.6301   21.1243 H   0  0  0  0  0  0
  -19.6705  -27.3197   20.6738 H   0  0  0  0  0  0
  -17.4210  -26.6687   21.4004 H   0  0  0  0  0  0
  -18.0319  -26.0084   22.8999 H   0  0  0  0  0  0
  -19.7934  -30.7289   24.2248 H   0  0  0  0  0  0
  -17.5007  -31.6257   24.5182 H   0  0  0  0  0  0
  -15.5356  -30.2979   23.7653 H   0  0  0  0  0  0
  -15.8675  -28.0837   22.7032 H   0  0  0  0  0  0
  -24.5936  -30.7074   25.7866 H   0  0  0  0  0  0
  -24.8948  -32.2942   26.4853 H   0  0  0  0  0  0
  -25.8118  -30.9014   27.0272 H   0  0  0  0  0  0
  -26.2806  -29.6757   24.1206 H   0  0  0  0  0  0
  -27.4006  -29.7229   25.4620 H   0  0  0  0  0  0
  -27.8683  -30.4227   23.9297 H   0  0  0  0  0  0
  -27.2749  -33.3576   26.2051 H   0  0  0  0  0  0
  -28.3876  -32.6847   25.0231 H   0  0  0  0  0  0
  -28.0801  -31.8381   26.5312 H   0  0  0  0  0  0
  -28.2622  -38.0077   24.7529 H   0  0  0  0  0  0
  -28.1090  -36.2621   24.6237 H   0  0  0  0  0  0
  -27.2334  -37.1392   25.8862 H   0  0  0  0  0  0
  -20.9348  -29.8758   21.6900 H   0  0  0  0  0  0
  -26.0183  -38.2853   24.1461 H   0  0  0  0  0  0
  -30.8914  -16.5285   18.2407 H   0  0  0  0  0  0
  -27.3849  -25.7310   21.8662 H   0  0  0  0  0  0
  -29.0729  -15.5459   21.2975 H   0  0  0  0  0  0
  -28.6741  -21.4453   20.8833 H   0  0  0  0  0  0
  -31.4251  -20.8871   17.9673 H   0  0  0  0  0  0
  -30.9132  -22.5080   18.3809 H   0  0  0  0  0  0
  -27.3121  -23.8296   22.5658 H   0  0  0  0  0  0
  1 25  1  0  0  0
  1 30  2  0  0  0
  1 79  1  0  0  0
  2  3  1  0  0  0
  2 25  1  0  0  0
  2 86  1  0  0  0
  2 87  1  0  0  0
  3  4  1  0  0  0
  3 88  1  0  0  0
  3 89  1  0  0  0
  4  5  1  0  0  0
  4 90  1  0  0  0
  4 91  1  0  0  0
  5  6  1  0  0  0
  5 26  1  0  0  0
  5 92  1  0  0  0
  6 25  1  0  0  0
  6 93  1  0  0  0
  6 94  1  0  0  0
  7  8  2  0  0  0
  7 26  1  0  0  0
  7 29  1  0  0  0
  8  9  1  0  0  0
  8 22  1  0  0  0
  9 10  1  0  0  0
  9 27  2  0  0  0
 10 11  2  0  0  0
 10 15  1  0  0  0
 11 12  1  0  0  0
 11 95  1  0  0  0
 12 13  2  0  0  0
 12 96  1  0  0  0
 13 14  1  0  0  0
 13 31  1  0  0  0
 14 15  2  0  0  0
 14 97  1  0  0  0
 15 98  1  0  0  0
 16 17  2  0  0  0
 16 21  1  0  0  0
 16 31  1  0  0  0
 17 18  1  0  0  0
 17 99  1  0  0  0
 18 19  2  0  0  0
 18100  1  0  0  0
 19 20  1  0  0  0
 19 24  1  0  0  0
 20 21  2  0  0  0
 20101  1  0  0  0
 21 23  1  0  0  0
 22 28  1  0  0  0
 22 32  2  0  0  0
 26 27  1  0  0  0
 28102  1  0  0  0
 28103  1  0  0  0
 29104  1  0  0  0
 29105  1  0  0  0
 33 34  1  0  0  0
 33 66  1  0  0  0
 33 70  2  0  0  0
 34 36  1  0  0  0
 34 59  1  0  0  0
 34106  1  0  0  0
 35 44  2  0  0  0
 35 45  1  0  0  0
 35 68  1  0  0  0
 36 56  1  0  0  0
 36107  1  0  0  0
 37 39  1  0  0  0
 37 47  1  0  0  0
 37 66  1  0  0  0
 37108  1  0  0  0
 38 43  2  0  0  0
 38 46  1  0  0  0
 38 47  1  0  0  0
 39 64  1  0  0  0
 39 67  2  0  0  0
 40 52  1  0  0  0
 40 53  2  0  0  0
 40 58  1  0  0  0
 41109  1  0  0  0
 41110  1  0  0  0
 41111  1  0  0  0
 41 48  1  0  0  0
 42 43  1  0  0  0
 42 66  1  0  0  0
 42112  1  0  0  0
 42113  1  0  0  0
 43 44  1  0  0  0
 44114  1  0  0  0
 45 46  2  0  0  0
 45115  1  0  0  0
 46116  1  0  0  0
 47117  1  0  0  0
 47118  1  0  0  0
 48 56  1  0  0  0
 48 65  1  0  0  0
 48119  1  0  0  0
 49 50  1  0  0  0
 49 53  1  0  0  0
 49 64  1  0  0  0
 49120  1  0  0  0
 50 51  1  0  0  0
 50121  1  0  0  0
 50122  1  0  0  0
 51 52  1  0  0  0
 51123  1  0  0  0
 51124  1  0  0  0
 52125  1  0  0  0
 52126  1  0  0  0
 53 54  1  0  0  0
 54 55  2  0  0  0
 54127  1  0  0  0
 55 57  1  0  0  0
 55128  1  0  0  0
 56 69  2  0  0  0
 57 58  2  0  0  0
 57129  1  0  0  0
 58130  1  0  0  0
 59 60  1  0  0  0
 59 61  1  0  0  0
 59 62  1  0  0  0
 60131  1  0  0  0
 60132  1  0  0  0
 60133  1  0  0  0
 61134  1  0  0  0
 61135  1  0  0  0
 61136  1  0  0  0
 62137  1  0  0  0
 62138  1  0  0  0
 62139  1  0  0  0
 63 65  1  0  0  0
 63140  1  0  0  0
 63141  1  0  0  0
 63142  1  0  0  0
 64143  1  0  0  0
 65144  1  0  0  0
 68 75  1  0  0  0
 71 72  1  0  0  0
 71 74  2  0  0  0
 71145  1  0  0  0
 72 73  2  0  0  0
 72 84  1  0  0  0
 73 76  1  0  0  0
 73 85  1  0  0  0
 74 79  1  0  0  0
 74 85  1  0  0  0
 75 77  2  0  0  0
 75146  1  0  0  0
 76 80  1  0  0  0
 76 81  2  0  0  0
 77 78  1  0  0  0
 77 83  1  0  0  0
 78 80  1  0  0  0
 78 82  2  0  0  0
 79147  1  0  0  0
 80148  1  0  0  0
 81149  1  0  0  0
 81150  1  0  0  0
 83151  1  0  0  0
M  CHG  1  81   1
M  ISO  4   1 100  68 101  75 101  79 100
M  END
> <chiral flag>
0

> <version>
0

> <s_m_source_file>
/data/baiqing/PycharmProjects/Reinvent-master-3.2/result/LINK_invent/BTK/process_docking_weight1_custom_product_contain_oxygen_bond_distance_aromatic_linkinvent_7_9_3/rearranged_h_0179.sdf

> <i_m_source_file_index>
60

> <r_mmod_Potential_Energy-OPLS-2005>
-128.222366333008

> <r_mmod_Stretch_Energy-OPLS-2005>
64.7594299316406

> <r_mmod_Bend_Energy-OPLS-2005>
147.630401611328

> <r_mmod_Torsional_Energy-OPLS-2005>
229.253982543945

> <r_mmod_Improper_Torsional_Energy-OPLS-2005>
5.6094126701355

> <r_mmod_Van_der_Waal_Energy-OPLS-2005>
146.623474121094

> <r_mmod_Electrostatic_Energy-OPLS-2005>
-308.093170166016

> <r_mmod_Solvation_Energy-OPLS-2005>
-457.818511962891

> <b_mmod_Minimization_Converged-OPLS-2005>
0

> <r_mmod_RMS_Derivative-OPLS-2005>
1.33766746520996

$$$$
60
                    3D
 Structure written by MMmdl.
149157  0  0  1  0            999 V2000
  -30.6583  -14.6015   20.4921 C   0  0  0  0  0  0
  -30.4270  -12.3654   19.4539 C   0  0  0  0  0  0
  -29.5050  -12.4979   18.2229 C   0  0  0  0  0  0
  -28.0274  -12.3449   18.6334 C   0  0  0  0  0  0
  -27.6527  -13.2178   19.8617 C   0  0  2  0  0  0
  -28.6960  -13.0799   20.9936 C   0  0  0  0  0  0
  -25.2556  -13.8176   20.5682 C   0  0  0  0  0  0
  -24.1823  -13.0439   20.9186 C   0  0  0  0  0  0
  -24.6393  -11.6912   20.8732 C   0  0  0  0  0  0
  -23.9063  -10.4295   21.0401 C   0  0  0  0  0  0
  -24.3616   -9.4210   21.9178 C   0  0  0  0  0  0
  -23.6290   -8.2247   22.0751 C   0  0  0  0  0  0
  -22.4272   -8.0284   21.3547 C   0  0  0  0  0  0
  -21.9907   -9.0256   20.4650 C   0  0  0  0  0  0
  -22.7234  -10.2134   20.3053 C   0  0  0  0  0  0
  -21.6855   -6.0733   22.5278 C   0  0  0  0  0  0
  -21.4017   -6.5634   23.8211 C   0  0  0  0  0  0
  -21.3661   -5.6788   24.9174 C   0  0  0  0  0  0
  -21.6044   -4.3051   24.7225 C   0  0  0  0  0  0
  -21.8819   -3.8143   23.4347 C   0  0  0  0  0  0
  -21.9194   -4.6961   22.3403 C   0  0  0  0  0  0
  -22.7844  -13.5231   21.1847 C   0  0  0  0  0  0
  -22.1661   -4.2144   21.0982 F   0  0  0  0  0  0
  -21.5631   -3.4538   25.7739 F   0  0  0  0  0  0
  -30.0146  -13.3962   20.4264 N   0  0  0  0  0  0
  -26.2985  -12.9360   20.3312 N   0  0  0  0  0  0
  -25.9323  -11.6513   20.5749 N   0  0  0  0  0  0
  -22.0488  -12.8229   22.0411 N   0  0  0  0  0  0
  -25.4261  -15.1899   20.4096 N   0  0  0  0  0  0
  -31.8313  -14.7163   20.1285 O   0  0  0  0  0  0
  -21.6640   -6.8878   21.4241 O   0  0  0  0  0  0
  -22.3530  -14.5538   20.6698 O   0  0  0  0  0  0
  -24.6221  -31.8625   23.2045 C   0  0  0  0  0  0
  -25.9085  -32.4791   23.8364 C   0  0  1  0  0  0
  -27.2304  -27.3666   20.1102 C   0  0  0  0  0  0
  -25.5919  -33.8587   24.2299 N   0  0  0  0  0  0
  -23.4152  -30.4842   21.5458 C   0  0  2  0  0  0
  -24.8653  -28.9447   20.1095 C   0  0  0  0  0  0
  -22.7460  -29.4622   22.4946 C   0  0  0  0  0  0
  -18.0284  -28.1380   22.8487 C   0  0  0  0  0  0
  -24.1489  -36.7296   23.2638 C   0  0  0  0  0  0
  -25.9513  -30.8077   21.3690 C   0  0  0  0  0  0
  -26.0306  -29.4380   20.7132 C   0  0  0  0  0  0
  -27.2200  -28.6569   20.7104 C   0  0  0  0  0  0
  -26.0509  -26.9099   19.4905 C   0  0  0  0  0  0
  -24.8740  -27.6832   19.4902 C   0  0  0  0  0  0
  -23.6290  -29.8178   20.1607 C   0  0  0  0  0  0
  -25.4109  -36.3085   24.0336 C   0  0  1  0  0  0
  -20.5883  -28.3672   23.1298 C   0  0  2  0  0  0
  -20.6769  -26.9398   22.5415 C   0  0  0  0  0  0
  -19.5745  -26.6383   21.5213 C   0  0  0  0  0  0
  -18.1925  -26.7927   22.1622 C   0  0  0  0  0  0
  -19.1536  -28.8843   23.2890 C   0  0  0  0  0  0
  -18.9458  -30.1451   23.8896 C   0  0  0  0  0  0
  -17.6456  -30.6583   24.0559 C   0  0  0  0  0  0
  -25.9040  -34.9456   23.5114 C   0  0  0  0  0  0
  -16.5348  -29.9076   23.6330 C   0  0  0  0  0  0
  -16.7272  -28.6497   23.0346 C   0  0  0  0  0  0
  -26.4491  -31.6584   25.0715 C   0  0  0  0  0  0
  -25.3746  -31.3711   26.1458 C   0  0  0  0  0  0
  -27.0326  -30.3016   24.6133 C   0  0  0  0  0  0
  -27.6064  -32.4307   25.7477 C   0  0  0  0  0  0
  -27.5582  -37.1799   24.8463 C   0  0  0  0  0  0
  -21.4177  -29.3030   22.3694 N   0  0  0  0  0  0
  -26.4291  -37.3778   23.9412 N   0  0  0  0  0  0
  -24.6811  -31.0667   22.0975 N   0  0  0  0  0  0
  -23.4200  -28.8163   23.3010 O   0  0  0  0  0  0
  -28.3137  -26.4958   20.1455 O   0  0  0  0  0  0
  -26.5603  -34.8918   22.4675 O   0  0  0  0  0  0
  -23.5394  -32.1399   23.7402 O   0  0  0  0  0  0
  -31.3565  -17.6412   20.2195 C   0  0  0  0  0  0
  -30.1586  -17.0385   20.5504 C   0  0  0  0  0  0
  -30.0729  -19.5717   20.0804 C   0  0  0  0  0  0
  -28.2504  -25.5332   21.1505 C   0  0  0  0  0  0
  -29.7605  -20.9766   19.5876 C   0  0  0  0  0  0
  -28.5483  -24.1911   21.1592 C   0  0  0  0  0  0
  -29.0376  -23.3756   20.0227 C   0  0  0  0  0  0
  -31.2883  -19.0186   19.9400 N   0  0  0  0  0  0
  -30.1432  -21.1182   18.3627 N   0  0  0  0  0  0
  -29.8896  -15.6963   20.7840 N   0  0  0  0  0  0
  -29.2216  -22.0502   20.3528 N   0  0  0  0  0  0
  -29.2592  -23.8506   18.9047 O   0  0  0  0  0  0
  -28.3738  -23.5455   22.3269 O   0  0  0  0  0  0
  -28.9162  -18.3171   20.6198 S   0  0  0  0  0  0
  -31.4720  -12.4653   19.1546 H   0  0  0  0  0  0
  -30.3381  -11.3715   19.8958 H   0  0  0  0  0  0
  -29.7644  -11.7476   17.4748 H   0  0  0  0  0  0
  -29.6585  -13.4684   17.7482 H   0  0  0  0  0  0
  -27.8599  -11.2920   18.8635 H   0  0  0  0  0  0
  -27.3752  -12.5791   17.7913 H   0  0  0  0  0  0
  -27.6709  -14.2522   19.5176 H   0  0  0  0  0  0
  -28.6959  -12.0652   21.3952 H   0  0  0  0  0  0
  -28.4503  -13.7337   21.8319 H   0  0  0  0  0  0
  -25.2765   -9.5684   22.4747 H   0  0  0  0  0  0
  -24.0003   -7.4638   22.7467 H   0  0  0  0  0  0
  -21.0840   -8.8777   19.8955 H   0  0  0  0  0  0
  -22.3697  -10.9672   19.6159 H   0  0  0  0  0  0
  -21.2011   -7.6143   23.9712 H   0  0  0  0  0  0
  -21.1482   -6.0520   25.9075 H   0  0  0  0  0  0
  -22.0598   -2.7606   23.2850 H   0  0  0  0  0  0
  -22.4102  -11.9894   22.4805 H   0  0  0  0  0  0
  -21.1107  -13.1257   22.2616 H   0  0  0  0  0  0
  -24.6560  -15.8414   20.5161 H   0  0  0  0  0  0
  -26.2711  -15.6317   20.0710 H   0  0  0  0  0  0
  -26.7154  -32.5483   23.1120 H   0  0  0  0  0  0
  -25.0091  -33.9737   25.0459 H   0  0  0  0  0  0
  -22.7070  -31.3029   21.4036 H   0  0  0  0  0  0
  -23.3745  -35.9635   23.3304 H   0  0  0  0  0  0
  -24.3584  -36.8904   22.2051 H   0  0  0  0  0  0
  -23.7251  -37.6507   23.6649 H   0  0  0  0  0  0
  -26.0755  -31.5727   20.6010 H   0  0  0  0  0  0
  -26.8346  -30.8594   21.9942 H   0  0  0  0  0  0
  -28.1152  -29.0241   21.1926 H   0  0  0  0  0  0
  -26.0395  -25.9329   19.0283 H   0  0  0  0  0  0
  -23.9806  -27.2979   19.0183 H   0  0  0  0  0  0
  -23.7414  -30.5938   19.4025 H   0  0  0  0  0  0
  -22.7512  -29.2419   19.8619 H   0  0  0  0  0  0
  -25.1286  -36.1944   25.0831 H   0  0  0  0  0  0
  -20.9987  -28.3246   24.1415 H   0  0  0  0  0  0
  -20.5667  -26.2274   23.3606 H   0  0  0  0  0  0
  -21.6637  -26.7429   22.1206 H   0  0  0  0  0  0
  -19.6895  -25.6295   21.1239 H   0  0  0  0  0  0
  -19.6688  -27.3198   20.6748 H   0  0  0  0  0  0
  -17.4196  -26.6676   21.4024 H   0  0  0  0  0  0
  -18.0316  -26.0077   22.9025 H   0  0  0  0  0  0
  -19.7934  -30.7272   24.2258 H   0  0  0  0  0  0
  -17.5008  -31.6263   24.5157 H   0  0  0  0  0  0
  -15.5345  -30.2969   23.7661 H   0  0  0  0  0  0
  -15.8676  -28.0818   22.7053 H   0  0  0  0  0  0
  -24.5916  -30.7060   25.7796 H   0  0  0  0  0  0
  -24.8941  -32.2872   26.4901 H   0  0  0  0  0  0
  -25.8090  -30.8883   27.0220 H   0  0  0  0  0  0
  -26.2881  -29.6770   24.1181 H   0  0  0  0  0  0
  -27.4069  -29.7265   25.4611 H   0  0  0  0  0  0
  -27.8729  -30.4312   23.9310 H   0  0  0  0  0  0
  -27.2687  -33.3604   26.2069 H   0  0  0  0  0  0
  -28.3865  -32.6872   25.0298 H   0  0  0  0  0  0
  -28.0742  -31.8423   26.5380 H   0  0  0  0  0  0
  -28.2599  -38.0097   24.7515 H   0  0  0  0  0  0
  -28.1081  -36.2630   24.6281 H   0  0  0  0  0  0
  -27.2301  -37.1444   25.8867 H   0  0  0  0  0  0
  -20.9342  -29.8754   21.6917 H   0  0  0  0  0  0
  -26.0175  -38.2854   24.1417 H   0  0  0  0  0  0
  -32.3199  -17.1635   20.1107 H   0  0  0  0  0  0
  -27.8956  -25.9997   22.0606 H   0  0  0  0  0  0
  -30.5558  -20.2276   18.0802 H   0  0  0  0  0  0
  -28.9451  -15.4783   21.0633 H   0  0  0  0  0  0
  -28.9796  -21.8563   21.3156 H   0  0  0  0  0  0
  -28.0634  -24.1782   22.9616 H   0  0  0  0  0  0
  1 25  1  0  0  0
  1 30  2  0  0  0
  1 80  1  0  0  0
  2  3  1  0  0  0
  2 25  1  0  0  0
  2 85  1  0  0  0
  2 86  1  0  0  0
  3  4  1  0  0  0
  3 87  1  0  0  0
  3 88  1  0  0  0
  4  5  1  0  0  0
  4 89  1  0  0  0
  4 90  1  0  0  0
  5  6  1  0  0  0
  5 26  1  0  0  0
  5 91  1  0  0  0
  6 25  1  0  0  0
  6 92  1  0  0  0
  6 93  1  0  0  0
  7  8  2  0  0  0
  7 26  1  0  0  0
  7 29  1  0  0  0
  8  9  1  0  0  0
  8 22  1  0  0  0
  9 10  1  0  0  0
  9 27  2  0  0  0
 10 11  2  0  0  0
 10 15  1  0  0  0
 11 12  1  0  0  0
 11 94  1  0  0  0
 12 13  2  0  0  0
 12 95  1  0  0  0
 13 14  1  0  0  0
 13 31  1  0  0  0
 14 15  2  0  0  0
 14 96  1  0  0  0
 15 97  1  0  0  0
 16 17  2  0  0  0
 16 21  1  0  0  0
 16 31  1  0  0  0
 17 18  1  0  0  0
 17 98  1  0  0  0
 18 19  2  0  0  0
 18 99  1  0  0  0
 19 20  1  0  0  0
 19 24  1  0  0  0
 20 21  2  0  0  0
 20100  1  0  0  0
 21 23  1  0  0  0
 22 28  1  0  0  0
 22 32  2  0  0  0
 26 27  1  0  0  0
 28101  1  0  0  0
 28102  1  0  0  0
 29103  1  0  0  0
 29104  1  0  0  0
 33 34  1  0  0  0
 33 66  1  0  0  0
 33 70  2  0  0  0
 34 36  1  0  0  0
 34 59  1  0  0  0
 34105  1  0  0  0
 35 44  2  0  0  0
 35 45  1  0  0  0
 35 68  1  0  0  0
 36 56  1  0  0  0
 36106  1  0  0  0
 37 39  1  0  0  0
 37 47  1  0  0  0
 37 66  1  0  0  0
 37107  1  0  0  0
 38 43  2  0  0  0
 38 46  1  0  0  0
 38 47  1  0  0  0
 39 64  1  0  0  0
 39 67  2  0  0  0
 40 52  1  0  0  0
 40 53  2  0  0  0
 40 58  1  0  0  0
 41108  1  0  0  0
 41109  1  0  0  0
 41110  1  0  0  0
 41 48  1  0  0  0
 42 43  1  0  0  0
 42 66  1  0  0  0
 42111  1  0  0  0
 42112  1  0  0  0
 43 44  1  0  0  0
 44113  1  0  0  0
 45 46  2  0  0  0
 45114  1  0  0  0
 46115  1  0  0  0
 47116  1  0  0  0
 47117  1  0  0  0
 48 56  1  0  0  0
 48 65  1  0  0  0
 48118  1  0  0  0
 49 50  1  0  0  0
 49 53  1  0  0  0
 49 64  1  0  0  0
 49119  1  0  0  0
 50 51  1  0  0  0
 50120  1  0  0  0
 50121  1  0  0  0
 51 52  1  0  0  0
 51122  1  0  0  0
 51123  1  0  0  0
 52124  1  0  0  0
 52125  1  0  0  0
 53 54  1  0  0  0
 54 55  2  0  0  0
 54126  1  0  0  0
 55 57  1  0  0  0
 55127  1  0  0  0
 56 69  2  0  0  0
 57 58  2  0  0  0
 57128  1  0  0  0
 58129  1  0  0  0
 59 60  1  0  0  0
 59 61  1  0  0  0
 59 62  1  0  0  0
 60130  1  0  0  0
 60131  1  0  0  0
 60132  1  0  0  0
 61133  1  0  0  0
 61134  1  0  0  0
 61135  1  0  0  0
 62136  1  0  0  0
 62137  1  0  0  0
 62138  1  0  0  0
 63 65  1  0  0  0
 63139  1  0  0  0
 63140  1  0  0  0
 63141  1  0  0  0
 64142  1  0  0  0
 65143  1  0  0  0
 68 74  1  0  0  0
 71 72  2  0  0  0
 71 78  1  0  0  0
 71144  1  0  0  0
 72 80  1  0  0  0
 72 84  1  0  0  0
 73 75  1  0  0  0
 73 78  2  0  0  0
 73 84  1  0  0  0
 74 76  2  0  0  0
 74145  1  0  0  0
 75 79  2  0  0  0
 75 81  1  0  0  0
 76 77  1  0  0  0
 76 83  1  0  0  0
 77 81  1  0  0  0
 77 82  2  0  0  0
 79146  1  0  0  0
 80147  1  0  0  0
 81148  1  0  0  0
 83149  1  0  0  0
M  ISO  4   1 100  68 101  74 101  80 100
M  END
> <chiral flag>
0

> <version>
0

> <s_m_source_file>
/data/baiqing/PycharmProjects/Reinvent-master-3.2/result/LINK_invent/BTK/process_docking_weight1_custom_product_contain_oxygen_bond_distance_aromatic_linkinvent_7_9_3/rearranged_h_0179.sdf

> <i_m_source_file_index>
61

> <r_mmod_Potential_Energy-OPLS-2005>
-79.7567977905273

> <r_mmod_Stretch_Energy-OPLS-2005>
62.0695953369141

> <r_mmod_Bend_Energy-OPLS-2005>
149.053024291992

> <r_mmod_Torsional_Energy-OPLS-2005>
230.681381225586

> <r_mmod_Improper_Torsional_Energy-OPLS-2005>
6.666015625

> <r_mmod_Van_der_Waal_Energy-OPLS-2005>
137.885284423828

> <r_mmod_Electrostatic_Energy-OPLS-2005>
-427.635345458984

> <r_mmod_Solvation_Energy-OPLS-2005>
-276.580505371094

> <b_mmod_Minimization_Converged-OPLS-2005>
0

> <r_mmod_RMS_Derivative-OPLS-2005>
0.761128187179565

$$$$
61
                    3D
 Structure written by MMmdl.
147155  0  0  1  0            999 V2000
  -30.5647  -14.8198   20.4499 C   0  0  0  0  0  0
  -30.4454  -12.5007   19.4848 C   0  0  0  0  0  0
  -29.5195  -12.5192   18.2462 C   0  0  0  0  0  0
  -28.0470  -12.3278   18.6592 C   0  0  0  0  0  0
  -27.6432  -13.2332   19.8525 C   0  0  2  0  0  0
  -28.6870  -13.1804   20.9901 C   0  0  0  0  0  0
  -25.2520  -13.8195   20.5698 C   0  0  0  0  0  0
  -24.1810  -13.0441   20.9210 C   0  0  0  0  0  0
  -24.6401  -11.6918   20.8745 C   0  0  0  0  0  0
  -23.9075  -10.4294   21.0404 C   0  0  0  0  0  0
  -24.3623   -9.4208   21.9183 C   0  0  0  0  0  0
  -23.6295   -8.2244   22.0754 C   0  0  0  0  0  0
  -22.4278   -8.0282   21.3543 C   0  0  0  0  0  0
  -21.9913   -9.0257   20.4647 C   0  0  0  0  0  0
  -22.7245  -10.2135   20.3055 C   0  0  0  0  0  0
  -21.6855   -6.0735   22.5278 C   0  0  0  0  0  0
  -21.4015   -6.5639   23.8212 C   0  0  0  0  0  0
  -21.3659   -5.6793   24.9174 C   0  0  0  0  0  0
  -21.6043   -4.3055   24.7226 C   0  0  0  0  0  0
  -21.8819   -3.8147   23.4347 C   0  0  0  0  0  0
  -21.9194   -4.6963   22.3403 C   0  0  0  0  0  0
  -22.7830  -13.5223   21.1867 C   0  0  0  0  0  0
  -22.1662   -4.2148   21.0981 F   0  0  0  0  0  0
  -21.5628   -3.4540   25.7739 F   0  0  0  0  0  0
  -29.9835  -13.5639   20.4129 N   0  0  0  0  0  0
  -26.2947  -12.9401   20.3282 N   0  0  0  0  0  0
  -25.9333  -11.6544   20.5748 N   0  0  0  0  0  0
  -22.0475  -12.8212   22.0423 N   0  0  0  0  0  0
  -25.4209  -15.1920   20.4114 N   0  0  0  0  0  0
  -31.7443  -14.9450   20.1035 O   0  0  0  0  0  0
  -21.6642   -6.8878   21.4240 O   0  0  0  0  0  0
  -22.3513  -14.5528   20.6713 O   0  0  0  0  0  0
  -24.6366  -31.8508   23.1949 C   0  0  0  0  0  0
  -25.9166  -32.4733   23.8314 C   0  0  1  0  0  0
  -27.2212  -27.2191   20.1370 C   0  0  0  0  0  0
  -25.5939  -33.8536   24.2232 N   0  0  0  0  0  0
  -23.4381  -30.4719   21.5384 C   0  0  2  0  0  0
  -24.8911  -28.9167   20.1054 C   0  0  0  0  0  0
  -22.7542  -29.4575   22.4881 C   0  0  0  0  0  0
  -18.0302  -28.1395   22.8481 C   0  0  0  0  0  0
  -24.1491  -36.7273   23.2641 C   0  0  0  0  0  0
  -25.9887  -30.7497   21.3847 C   0  0  0  0  0  0
  -26.0650  -29.3694   20.7243 C   0  0  0  0  0  0
  -27.2359  -28.5322   20.7328 C   0  0  0  0  0  0
  -26.0302  -26.8533   19.4753 C   0  0  0  0  0  0
  -24.8815  -27.6681   19.4667 C   0  0  0  0  0  0
  -23.6617  -29.8067   20.1548 C   0  0  0  0  0  0
  -25.4121  -36.3056   24.0322 C   0  0  1  0  0  0
  -20.5911  -28.3714   23.1251 C   0  0  2  0  0  0
  -20.6787  -26.9424   22.5407 C   0  0  0  0  0  0
  -19.5760  -26.6385   21.5215 C   0  0  0  0  0  0
  -18.1941  -26.7935   22.1626 C   0  0  0  0  0  0
  -19.1557  -28.8873   23.2859 C   0  0  0  0  0  0
  -18.9473  -30.1471   23.8881 C   0  0  0  0  0  0
  -17.6470  -30.6591   24.0564 C   0  0  0  0  0  0
  -25.9063  -34.9427   23.5083 C   0  0  0  0  0  0
  -16.5362  -29.9085   23.6336 C   0  0  0  0  0  0
  -16.7287  -28.6505   23.0354 C   0  0  0  0  0  0
  -26.4513  -31.6576   25.0725 C   0  0  0  0  0  0
  -25.3717  -31.3744   26.1433 C   0  0  0  0  0  0
  -27.0372  -30.2982   24.6257 C   0  0  0  0  0  0
  -27.6055  -32.4330   25.7503 C   0  0  0  0  0  0
  -27.5577  -37.1796   24.8468 C   0  0  0  0  0  0
  -21.4242  -29.3046   22.3627 N   0  0  0  0  0  0
  -26.4292  -37.3759   23.9405 N   0  0  0  0  0  0
  -24.7068  -31.0429   22.0951 N   0  0  0  0  0  0
  -23.4215  -28.8116   23.3002 O   0  0  0  0  0  0
  -28.2244  -26.2086   20.2196 O   0  0  0  0  0  0
  -26.5641  -34.8910   22.4657 O   0  0  0  0  0  0
  -23.5500  -32.1348   23.7208 O   0  0  0  0  0  0
  -30.4988  -19.5787   19.8801 C   0  0  0  0  0  0
  -30.7688  -18.1354   19.9051 C   0  0  0  0  0  0
  -29.3452  -20.0120   20.5135 C   0  0  0  0  0  0
  -29.8402  -17.3289   20.5464 C   0  0  0  0  0  0
  -27.8254  -25.0232   20.9253 C   0  0  0  0  0  0
  -28.0732  -23.6341   21.0061 C   0  0  0  0  0  0
  -28.9883  -22.6246   20.3184 C   0  0  0  0  0  0
  -28.7837  -21.2983   20.7362 N   0  0  0  0  0  0
  -29.7457  -15.9209   20.7287 N   0  0  0  0  0  0
  -29.8364  -22.9127   19.4725 O   0  0  0  0  0  0
  -27.2976  -23.0440   21.9365 O   0  0  0  0  0  0
  -28.5995  -18.4936   21.1374 S   0  0  0  0  0  0
  -31.4826  -12.6468   19.1786 H   0  0  0  0  0  0
  -30.4148  -11.5269   19.9762 H   0  0  0  0  0  0
  -29.8142  -11.7399   17.5421 H   0  0  0  0  0  0
  -29.6322  -13.4674   17.7182 H   0  0  0  0  0  0
  -27.9167  -11.2800   18.9324 H   0  0  0  0  0  0
  -27.3880  -12.5042   17.8084 H   0  0  0  0  0  0
  -27.6324  -14.2518   19.4639 H   0  0  0  0  0  0
  -28.7396  -12.1805   21.4234 H   0  0  0  0  0  0
  -28.4060  -13.8493   21.8050 H   0  0  0  0  0  0
  -25.2767   -9.5683   22.4760 H   0  0  0  0  0  0
  -24.0003   -7.4635   22.7475 H   0  0  0  0  0  0
  -21.0843   -8.8778   19.8954 H   0  0  0  0  0  0
  -22.3702  -10.9674   19.6166 H   0  0  0  0  0  0
  -21.2008   -7.6147   23.9714 H   0  0  0  0  0  0
  -21.1480   -6.0523   25.9077 H   0  0  0  0  0  0
  -22.0598   -2.7609   23.2850 H   0  0  0  0  0  0
  -22.4095  -11.9878   22.4814 H   0  0  0  0  0  0
  -21.1091  -13.1233   22.2627 H   0  0  0  0  0  0
  -24.6497  -15.8423   20.5168 H   0  0  0  0  0  0
  -26.2605  -15.6316   20.0568 H   0  0  0  0  0  0
  -26.7236  -32.5375   23.1057 H   0  0  0  0  0  0
  -25.0073  -33.9666   25.0368 H   0  0  0  0  0  0
  -22.7370  -31.2957   21.3897 H   0  0  0  0  0  0
  -23.3750  -35.9609   23.3309 H   0  0  0  0  0  0
  -24.3573  -36.8891   22.2053 H   0  0  0  0  0  0
  -23.7250  -37.6475   23.6668 H   0  0  0  0  0  0
  -26.1358  -31.5094   20.6157 H   0  0  0  0  0  0
  -26.8620  -30.7979   22.0235 H   0  0  0  0  0  0
  -28.1263  -28.8628   21.2487 H   0  0  0  0  0  0
  -25.9714  -25.8842   18.9996 H   0  0  0  0  0  0
  -23.9853  -27.3154   18.9749 H   0  0  0  0  0  0
  -23.7884  -30.5840   19.4004 H   0  0  0  0  0  0
  -22.7797  -29.2422   19.8469 H   0  0  0  0  0  0
  -25.1307  -36.1897   25.0814 H   0  0  0  0  0  0
  -21.0007  -28.3302   24.1371 H   0  0  0  0  0  0
  -20.5686  -26.2325   23.3619 H   0  0  0  0  0  0
  -21.6653  -26.7440   22.1201 H   0  0  0  0  0  0
  -19.6920  -25.6292   21.1253 H   0  0  0  0  0  0
  -19.6695  -27.3188   20.6738 H   0  0  0  0  0  0
  -17.4210  -26.6680   21.4028 H   0  0  0  0  0  0
  -18.0341  -26.0082   22.9026 H   0  0  0  0  0  0
  -19.7948  -30.7295   24.2238 H   0  0  0  0  0  0
  -17.5021  -31.6268   24.5170 H   0  0  0  0  0  0
  -15.5360  -30.2980   23.7669 H   0  0  0  0  0  0
  -15.8687  -28.0820   22.7076 H   0  0  0  0  0  0
  -24.5901  -30.7084   25.7757 H   0  0  0  0  0  0
  -24.8898  -32.2919   26.4823 H   0  0  0  0  0  0
  -25.8016  -30.8945   27.0233 H   0  0  0  0  0  0
  -26.2976  -29.6715   24.1263 H   0  0  0  0  0  0
  -27.4005  -29.7267   25.4806 H   0  0  0  0  0  0
  -27.8874  -30.4233   23.9550 H   0  0  0  0  0  0
  -27.2656  -33.3641   26.2051 H   0  0  0  0  0  0
  -28.3882  -32.6873   25.0344 H   0  0  0  0  0  0
  -28.0707  -31.8476   26.5444 H   0  0  0  0  0  0
  -28.2605  -38.0081   24.7498 H   0  0  0  0  0  0
  -28.1061  -36.2611   24.6320 H   0  0  0  0  0  0
  -27.2291  -37.1479   25.8870 H   0  0  0  0  0  0
  -20.9441  -29.8759   21.6815 H   0  0  0  0  0  0
  -26.0166  -38.2833   24.1394 H   0  0  0  0  0  0
  -31.1912  -20.2517   19.3942 H   0  0  0  0  0  0
  -31.6561  -17.7452   19.4264 H   0  0  0  0  0  0
  -27.0744  -25.3601   21.6290 H   0  0  0  0  0  0
  -28.0123  -21.2956   21.3941 H   0  0  0  0  0  0
  -28.8458  -15.6247   21.0763 H   0  0  0  0  0  0
  -26.7566  -23.7146   22.3314 H   0  0  0  0  0  0
  1 25  1  0  0  0
  1 30  2  0  0  0
  1 79  1  0  0  0
  2  3  1  0  0  0
  2 25  1  0  0  0
  2 83  1  0  0  0
  2 84  1  0  0  0
  3  4  1  0  0  0
  3 85  1  0  0  0
  3 86  1  0  0  0
  4  5  1  0  0  0
  4 87  1  0  0  0
  4 88  1  0  0  0
  5  6  1  0  0  0
  5 26  1  0  0  0
  5 89  1  0  0  0
  6 25  1  0  0  0
  6 90  1  0  0  0
  6 91  1  0  0  0
  7  8  2  0  0  0
  7 26  1  0  0  0
  7 29  1  0  0  0
  8  9  1  0  0  0
  8 22  1  0  0  0
  9 10  1  0  0  0
  9 27  2  0  0  0
 10 11  2  0  0  0
 10 15  1  0  0  0
 11 12  1  0  0  0
 11 92  1  0  0  0
 12 13  2  0  0  0
 12 93  1  0  0  0
 13 14  1  0  0  0
 13 31  1  0  0  0
 14 15  2  0  0  0
 14 94  1  0  0  0
 15 95  1  0  0  0
 16 17  2  0  0  0
 16 21  1  0  0  0
 16 31  1  0  0  0
 17 18  1  0  0  0
 17 96  1  0  0  0
 18 19  2  0  0  0
 18 97  1  0  0  0
 19 20  1  0  0  0
 19 24  1  0  0  0
 20 21  2  0  0  0
 20 98  1  0  0  0
 21 23  1  0  0  0
 22 28  1  0  0  0
 22 32  2  0  0  0
 26 27  1  0  0  0
 28 99  1  0  0  0
 28100  1  0  0  0
 29101  1  0  0  0
 29102  1  0  0  0
 33 34  1  0  0  0
 33 66  1  0  0  0
 33 70  2  0  0  0
 34 36  1  0  0  0
 34 59  1  0  0  0
 34103  1  0  0  0
 35 44  2  0  0  0
 35 45  1  0  0  0
 35 68  1  0  0  0
 36 56  1  0  0  0
 36104  1  0  0  0
 37 39  1  0  0  0
 37 47  1  0  0  0
 37 66  1  0  0  0
 37105  1  0  0  0
 38 43  2  0  0  0
 38 46  1  0  0  0
 38 47  1  0  0  0
 39 64  1  0  0  0
 39 67  2  0  0  0
 40 52  1  0  0  0
 40 53  2  0  0  0
 40 58  1  0  0  0
 41106  1  0  0  0
 41107  1  0  0  0
 41108  1  0  0  0
 41 48  1  0  0  0
 42 43  1  0  0  0
 42 66  1  0  0  0
 42109  1  0  0  0
 42110  1  0  0  0
 43 44  1  0  0  0
 44111  1  0  0  0
 45 46  2  0  0  0
 45112  1  0  0  0
 46113  1  0  0  0
 47114  1  0  0  0
 47115  1  0  0  0
 48 56  1  0  0  0
 48 65  1  0  0  0
 48116  1  0  0  0
 49 50  1  0  0  0
 49 53  1  0  0  0
 49 64  1  0  0  0
 49117  1  0  0  0
 50 51  1  0  0  0
 50118  1  0  0  0
 50119  1  0  0  0
 51 52  1  0  0  0
 51120  1  0  0  0
 51121  1  0  0  0
 52122  1  0  0  0
 52123  1  0  0  0
 53 54  1  0  0  0
 54 55  2  0  0  0
 54124  1  0  0  0
 55 57  1  0  0  0
 55125  1  0  0  0
 56 69  2  0  0  0
 57 58  2  0  0  0
 57126  1  0  0  0
 58127  1  0  0  0
 59 60  1  0  0  0
 59 61  1  0  0  0
 59 62  1  0  0  0
 60128  1  0  0  0
 60129  1  0  0  0
 60130  1  0  0  0
 61131  1  0  0  0
 61132  1  0  0  0
 61133  1  0  0  0
 62134  1  0  0  0
 62135  1  0  0  0
 62136  1  0  0  0
 63 65  1  0  0  0
 63137  1  0  0  0
 63138  1  0  0  0
 63139  1  0  0  0
 64140  1  0  0  0
 65141  1  0  0  0
 68 75  1  0  0  0
 71 72  1  0  0  0
 71 73  2  0  0  0
 71142  1  0  0  0
 72 74  2  0  0  0
 72143  1  0  0  0
 73 78  1  0  0  0
 73 82  1  0  0  0
 74 79  1  0  0  0
 74 82  1  0  0  0
 75 76  2  0  0  0
 75144  1  0  0  0
 76 77  1  0  0  0
 76 81  1  0  0  0
 77 78  1  0  0  0
 77 80  2  0  0  0
 78145  1  0  0  0
 79146  1  0  0  0
 81147  1  0  0  0
M  ISO  4   1 100  68 101  75 101  79 100
M  END
> <chiral flag>
0

> <version>
0

> <s_m_source_file>
/data/baiqing/PycharmProjects/Reinvent-master-3.2/result/LINK_invent/BTK/process_docking_weight1_custom_product_contain_oxygen_bond_distance_aromatic_linkinvent_7_9_3/rearranged_h_0179.sdf

> <i_m_source_file_index>
62

> <r_mmod_Potential_Energy-OPLS-2005>
258.545593261719

> <r_mmod_Stretch_Energy-OPLS-2005>
138.719772338867

> <r_mmod_Bend_Energy-OPLS-2005>
274.408508300781

> <r_mmod_Torsional_Energy-OPLS-2005>
217.986434936523

> <r_mmod_Improper_Torsional_Energy-OPLS-2005>
3.95252299308777

> <r_mmod_Van_der_Waal_Energy-OPLS-2005>
123.958618164062

> <r_mmod_Electrostatic_Energy-OPLS-2005>
-395.52099609375

> <r_mmod_Solvation_Energy-OPLS-2005>
-233.916198730469

> <b_mmod_Minimization_Converged-OPLS-2005>
0

> <r_mmod_RMS_Derivative-OPLS-2005>
0.334760069847107

$$$$
62
                    3D
 Structure written by MMmdl.
151159  0  0  1  0            999 V2000
  -30.6193  -14.8073   20.4591 C   0  0  0  0  0  0
  -30.4361  -12.5043   19.4651 C   0  0  0  0  0  0
  -29.5106  -12.5053   18.2306 C   0  0  0  0  0  0
  -28.0379  -12.3232   18.6500 C   0  0  0  0  0  0
  -27.6348  -13.2376   19.8378 C   0  0  2  0  0  0
  -28.6872  -13.2212   20.9655 C   0  0  0  0  0  0
  -25.2500  -13.8207   20.5701 C   0  0  0  0  0  0
  -24.1805  -13.0441   20.9231 C   0  0  0  0  0  0
  -24.6404  -11.6922   20.8758 C   0  0  0  0  0  0
  -23.9084  -10.4292   21.0401 C   0  0  0  0  0  0
  -24.3635   -9.4203   21.9175 C   0  0  0  0  0  0
  -23.6305   -8.2241   22.0741 C   0  0  0  0  0  0
  -22.4285   -8.0283   21.3533 C   0  0  0  0  0  0
  -21.9926   -9.0258   20.4632 C   0  0  0  0  0  0
  -22.7260  -10.2136   20.3043 C   0  0  0  0  0  0
  -21.6856   -6.0734   22.5268 C   0  0  0  0  0  0
  -21.4019   -6.5635   23.8203 C   0  0  0  0  0  0
  -21.3665   -5.6785   24.9164 C   0  0  0  0  0  0
  -21.6053   -4.3050   24.7208 C   0  0  0  0  0  0
  -21.8827   -3.8146   23.4325 C   0  0  0  0  0  0
  -21.9201   -4.6964   22.3386 C   0  0  0  0  0  0
  -22.7824  -13.5212   21.1891 C   0  0  0  0  0  0
  -22.1664   -4.2149   21.0961 F   0  0  0  0  0  0
  -21.5634   -3.4533   25.7720 F   0  0  0  0  0  0
  -29.9681  -13.5928   20.3539 N   0  0  0  0  0  0
  -26.2923  -12.9419   20.3263 N   0  0  0  0  0  0
  -25.9333  -11.6559   20.5758 N   0  0  0  0  0  0
  -22.0475  -12.8196   22.0442 N   0  0  0  0  0  0
  -25.4182  -15.1933   20.4097 N   0  0  0  0  0  0
  -31.8394  -14.8296   20.2767 O   0  0  0  0  0  0
  -21.6646   -6.8880   21.4230 O   0  0  0  0  0  0
  -22.3505  -14.5515   20.6731 O   0  0  0  0  0  0
  -24.6399  -31.8498   23.1964 C   0  0  0  0  0  0
  -25.9194  -32.4733   23.8324 C   0  0  1  0  0  0
  -27.2097  -27.2035   20.1166 C   0  0  0  0  0  0
  -25.5956  -33.8537   24.2228 N   0  0  0  0  0  0
  -23.4373  -30.4765   21.5441 C   0  0  2  0  0  0
  -24.8779  -28.9211   20.1140 C   0  0  0  0  0  0
  -22.7537  -29.4600   22.4921 C   0  0  0  0  0  0
  -18.0301  -28.1400   22.8483 C   0  0  0  0  0  0
  -24.1483  -36.7268   23.2640 C   0  0  0  0  0  0
  -25.9913  -30.7447   21.3849 C   0  0  0  0  0  0
  -26.0595  -29.3652   20.7214 C   0  0  0  0  0  0
  -27.2271  -28.5221   20.7080 C   0  0  0  0  0  0
  -25.9842  -26.8425   19.5036 C   0  0  0  0  0  0
  -24.8485  -27.6683   19.4954 C   0  0  0  0  0  0
  -23.6540  -29.8140   20.1611 C   0  0  0  0  0  0
  -25.4116  -36.3053   24.0317 C   0  0  1  0  0  0
  -20.5906  -28.3718   23.1251 C   0  0  2  0  0  0
  -20.6792  -26.9432   22.5396 C   0  0  0  0  0  0
  -19.5762  -26.6393   21.5210 C   0  0  0  0  0  0
  -18.1945  -26.7940   22.1627 C   0  0  0  0  0  0
  -19.1551  -28.8880   23.2856 C   0  0  0  0  0  0
  -18.9469  -30.1482   23.8873 C   0  0  0  0  0  0
  -17.6464  -30.6595   24.0564 C   0  0  0  0  0  0
  -25.9067  -34.9433   23.5078 C   0  0  0  0  0  0
  -16.5358  -29.9083   23.6346 C   0  0  0  0  0  0
  -16.7282  -28.6505   23.0361 C   0  0  0  0  0  0
  -26.4521  -31.6588   25.0749 C   0  0  0  0  0  0
  -25.3711  -31.3765   26.1447 C   0  0  0  0  0  0
  -27.0381  -30.2986   24.6309 C   0  0  0  0  0  0
  -27.6054  -32.4350   25.7526 C   0  0  0  0  0  0
  -27.5572  -37.1791   24.8465 C   0  0  0  0  0  0
  -21.4239  -29.3054   22.3641 N   0  0  0  0  0  0
  -26.4284  -37.3759   23.9408 N   0  0  0  0  0  0
  -24.7100  -31.0411   22.0978 N   0  0  0  0  0  0
  -23.4201  -28.8138   23.3046 O   0  0  0  0  0  0
  -28.2880  -26.2595   20.1583 O   0  0  0  0  0  0
  -26.5626  -34.8918   22.4640 O   0  0  0  0  0  0
  -23.5531  -32.1357   23.7212 O   0  0  0  0  0  0
  -29.6597  -18.6093   20.1318 C   0  0  0  0  0  0
  -29.4415  -18.7844   18.7688 C   0  0  0  0  0  0
  -29.1232  -20.9806   20.0022 C   0  0  0  0  0  0
  -30.2888  -17.2926   20.7762 C   0  0  0  0  0  0
  -29.0710  -23.6113   20.1188 C   0  0  0  0  0  0
  -28.1175  -24.8396   18.1588 C   0  0  0  0  0  0
  -28.0604  -24.8152   19.7048 C   0  0  2  0  0  0
  -29.4355  -19.8957   20.8004 N   0  0  0  0  0  0
  -29.5502  -17.8753   17.7136 N   0  0  0  0  0  0
  -28.6104  -22.3253   20.4030 N   0  0  0  0  0  0
  -29.8762  -15.9938   20.4580 N   0  0  0  0  0  0
  -31.1894  -17.4536   21.6104 O   0  0  0  0  0  0
  -30.2808  -23.8569   20.1546 O   0  0  0  0  0  0
  -29.0390  -20.4499   18.3269 S   0  0  0  0  0  0
  -31.4730  -12.6429   19.1546 H   0  0  0  0  0  0
  -30.4014  -11.5426   19.9809 H   0  0  0  0  0  0
  -29.8031  -11.7133   17.5398 H   0  0  0  0  0  0
  -29.6257  -13.4454   17.6895 H   0  0  0  0  0  0
  -27.9048  -11.2776   18.9296 H   0  0  0  0  0  0
  -27.3777  -12.4962   17.7990 H   0  0  0  0  0  0
  -27.6115  -14.2489   19.4337 H   0  0  0  0  0  0
  -28.7477  -12.2359   21.4300 H   0  0  0  0  0  0
  -28.4208  -13.9243   21.7558 H   0  0  0  0  0  0
  -25.2776   -9.5682   22.4757 H   0  0  0  0  0  0
  -24.0013   -7.4633   22.7459 H   0  0  0  0  0  0
  -21.0857   -8.8782   19.8932 H   0  0  0  0  0  0
  -22.3716  -10.9678   19.6158 H   0  0  0  0  0  0
  -21.2003   -7.6143   23.9705 H   0  0  0  0  0  0
  -21.1486   -6.0509   25.9067 H   0  0  0  0  0  0
  -22.0605   -2.7607   23.2820 H   0  0  0  0  0  0
  -22.4093  -11.9849   22.4819 H   0  0  0  0  0  0
  -21.1081  -13.1198   22.2621 H   0  0  0  0  0  0
  -24.6548  -15.8504   20.5269 H   0  0  0  0  0  0
  -26.2604  -15.6302   20.0602 H   0  0  0  0  0  0
  -26.7268  -32.5349   23.1068 H   0  0  0  0  0  0
  -25.0112  -33.9665   25.0381 H   0  0  0  0  0  0
  -22.7396  -31.3029   21.3982 H   0  0  0  0  0  0
  -23.3751  -35.9592   23.3296 H   0  0  0  0  0  0
  -24.3572  -36.8904   22.2058 H   0  0  0  0  0  0
  -23.7240  -37.6469   23.6670 H   0  0  0  0  0  0
  -26.1400  -31.5060   20.6173 H   0  0  0  0  0  0
  -26.8665  -30.7877   22.0228 H   0  0  0  0  0  0
  -28.1309  -28.8580   21.1962 H   0  0  0  0  0  0
  -25.8370  -25.8845   19.0341 H   0  0  0  0  0  0
  -23.9408  -27.3147   19.0253 H   0  0  0  0  0  0
  -23.7805  -30.5898   19.4054 H   0  0  0  0  0  0
  -22.7699  -29.2504   19.8568 H   0  0  0  0  0  0
  -25.1304  -36.1894   25.0810 H   0  0  0  0  0  0
  -20.9992  -28.3298   24.1373 H   0  0  0  0  0  0
  -20.5713  -26.2326   23.3605 H   0  0  0  0  0  0
  -21.6659  -26.7467   22.1175 H   0  0  0  0  0  0
  -19.6925  -25.6297   21.1261 H   0  0  0  0  0  0
  -19.6699  -27.3188   20.6731 H   0  0  0  0  0  0
  -17.4210  -26.6681   21.4035 H   0  0  0  0  0  0
  -18.0347  -26.0083   22.9031 H   0  0  0  0  0  0
  -19.7942  -30.7312   24.2222 H   0  0  0  0  0  0
  -17.5015  -31.6275   24.5167 H   0  0  0  0  0  0
  -15.5356  -30.2976   23.7694 H   0  0  0  0  0  0
  -15.8684  -28.0824   22.7085 H   0  0  0  0  0  0
  -24.5889  -30.7115   25.7768 H   0  0  0  0  0  0
  -24.8903  -32.2946   26.4829 H   0  0  0  0  0  0
  -25.8002  -30.8970   27.0256 H   0  0  0  0  0  0
  -26.2997  -29.6726   24.1284 H   0  0  0  0  0  0
  -27.3967  -29.7271   25.4883 H   0  0  0  0  0  0
  -27.8916  -30.4224   23.9637 H   0  0  0  0  0  0
  -27.2638  -33.3659   26.2059 H   0  0  0  0  0  0
  -28.3879  -32.6905   25.0367 H   0  0  0  0  0  0
  -28.0701  -31.8515   26.5485 H   0  0  0  0  0  0
  -28.2590  -38.0087   24.7510 H   0  0  0  0  0  0
  -28.1073  -36.2626   24.6292 H   0  0  0  0  0  0
  -27.2290  -37.1436   25.8867 H   0  0  0  0  0  0
  -20.9440  -29.8750   21.6813 H   0  0  0  0  0  0
  -26.0162  -38.2832   24.1407 H   0  0  0  0  0  0
  -27.7813  -23.8910   17.7383 H   0  0  0  0  0  0
  -29.1381  -25.0081   17.8117 H   0  0  0  0  0  0
  -27.5122  -25.6209   17.7065 H   0  0  0  0  0  0
  -27.0793  -24.4895   20.0500 H   0  0  0  0  0  0
  -29.9232  -16.9335   17.7883 H   0  0  0  0  0  0
  -29.4499  -18.1624   16.7429 H   0  0  0  0  0  0
  -27.6123  -22.3172   20.5510 H   0  0  0  0  0  0
  -28.9378  -15.9234   20.1054 H   0  0  0  0  0  0
  1 25  1  0  0  0
  1 30  2  0  0  0
  1 81  1  0  0  0
  2  3  1  0  0  0
  2 25  1  0  0  0
  2 85  1  0  0  0
  2 86  1  0  0  0
  3  4  1  0  0  0
  3 87  1  0  0  0
  3 88  1  0  0  0
  4  5  1  0  0  0
  4 89  1  0  0  0
  4 90  1  0  0  0
  5  6  1  0  0  0
  5 26  1  0  0  0
  5 91  1  0  0  0
  6 25  1  0  0  0
  6 92  1  0  0  0
  6 93  1  0  0  0
  7  8  2  0  0  0
  7 26  1  0  0  0
  7 29  1  0  0  0
  8  9  1  0  0  0
  8 22  1  0  0  0
  9 10  1  0  0  0
  9 27  2  0  0  0
 10 11  2  0  0  0
 10 15  1  0  0  0
 11 12  1  0  0  0
 11 94  1  0  0  0
 12 13  2  0  0  0
 12 95  1  0  0  0
 13 14  1  0  0  0
 13 31  1  0  0  0
 14 15  2  0  0  0
 14 96  1  0  0  0
 15 97  1  0  0  0
 16 17  2  0  0  0
 16 21  1  0  0  0
 16 31  1  0  0  0
 17 18  1  0  0  0
 17 98  1  0  0  0
 18 19  2  0  0  0
 18 99  1  0  0  0
 19 20  1  0  0  0
 19 24  1  0  0  0
 20 21  2  0  0  0
 20100  1  0  0  0
 21 23  1  0  0  0
 22 28  1  0  0  0
 22 32  2  0  0  0
 26 27  1  0  0  0
 28101  1  0  0  0
 28102  1  0  0  0
 29103  1  0  0  0
 29104  1  0  0  0
 33 34  1  0  0  0
 33 66  1  0  0  0
 33 70  2  0  0  0
 34 36  1  0  0  0
 34 59  1  0  0  0
 34105  1  0  0  0
 35 44  2  0  0  0
 35 45  1  0  0  0
 35 68  1  0  0  0
 36 56  1  0  0  0
 36106  1  0  0  0
 37 39  1  0  0  0
 37 47  1  0  0  0
 37 66  1  0  0  0
 37107  1  0  0  0
 38 43  2  0  0  0
 38 46  1  0  0  0
 38 47  1  0  0  0
 39 64  1  0  0  0
 39 67  2  0  0  0
 40 52  1  0  0  0
 40 53  2  0  0  0
 40 58  1  0  0  0
 41108  1  0  0  0
 41109  1  0  0  0
 41110  1  0  0  0
 41 48  1  0  0  0
 42 43  1  0  0  0
 42 66  1  0  0  0
 42111  1  0  0  0
 42112  1  0  0  0
 43 44  1  0  0  0
 44113  1  0  0  0
 45 46  2  0  0  0
 45114  1  0  0  0
 46115  1  0  0  0
 47116  1  0  0  0
 47117  1  0  0  0
 48 56  1  0  0  0
 48 65  1  0  0  0
 48118  1  0  0  0
 49 50  1  0  0  0
 49 53  1  0  0  0
 49 64  1  0  0  0
 49119  1  0  0  0
 50 51  1  0  0  0
 50120  1  0  0  0
 50121  1  0  0  0
 51 52  1  0  0  0
 51122  1  0  0  0
 51123  1  0  0  0
 52124  1  0  0  0
 52125  1  0  0  0
 53 54  1  0  0  0
 54 55  2  0  0  0
 54126  1  0  0  0
 55 57  1  0  0  0
 55127  1  0  0  0
 56 69  2  0  0  0
 57 58  2  0  0  0
 57128  1  0  0  0
 58129  1  0  0  0
 59 60  1  0  0  0
 59 61  1  0  0  0
 59 62  1  0  0  0
 60130  1  0  0  0
 60131  1  0  0  0
 60132  1  0  0  0
 61133  1  0  0  0
 61134  1  0  0  0
 61135  1  0  0  0
 62136  1  0  0  0
 62137  1  0  0  0
 62138  1  0  0  0
 63 65  1  0  0  0
 63139  1  0  0  0
 63140  1  0  0  0
 63141  1  0  0  0
 64142  1  0  0  0
 65143  1  0  0  0
 68 77  1  0  0  0
 71 72  2  0  0  0
 71 74  1  0  0  0
 71 78  1  0  0  0
 72 79  1  0  0  0
 72 84  1  0  0  0
 73 78  2  0  0  0
 73 80  1  0  0  0
 73 84  1  0  0  0
 74 81  1  0  0  0
 74 82  2  0  0  0
 75 77  1  0  0  0
 75 80  1  0  0  0
 75 83  2  0  0  0
 76144  1  0  0  0
 76145  1  0  0  0
 76146  1  0  0  0
 76 77  1  0  0  0
 77147  1  0  0  0
 79148  1  0  0  0
 79149  1  0  0  0
 80150  1  0  0  0
 81151  1  0  0  0
M  ISO  4   1 100  68 101  77 101  81 100
M  END
> <chiral flag>
0

> <version>
0

> <s_m_source_file>
/data/baiqing/PycharmProjects/Reinvent-master-3.2/result/LINK_invent/BTK/process_docking_weight1_custom_product_contain_oxygen_bond_distance_aromatic_linkinvent_7_9_3/rearranged_h_0179.sdf

> <i_m_source_file_index>
63

> <r_mmod_Potential_Energy-OPLS-2005>
290.439788818359

> <r_mmod_Stretch_Energy-OPLS-2005>
156.256240844727

> <r_mmod_Bend_Energy-OPLS-2005>
198.322875976562

> <r_mmod_Torsional_Energy-OPLS-2005>
298.385864257812

> <r_mmod_Improper_Torsional_Energy-OPLS-2005>
12.5217885971069

> <r_mmod_Van_der_Waal_Energy-OPLS-2005>
121.872337341309

> <r_mmod_Electrostatic_Energy-OPLS-2005>
-340.180389404297

> <r_mmod_Solvation_Energy-OPLS-2005>
-280.698089599609

> <b_mmod_Minimization_Converged-OPLS-2005>
0

> <r_mmod_RMS_Derivative-OPLS-2005>
1.49921035766602

$$$$
63
                    3D
 Structure written by MMmdl.
158166  0  0  1  0            999 V2000
  -30.7111  -14.5176   20.5598 C   0  0  0  0  0  0
  -30.4185  -12.3339   19.4313 C   0  0  0  0  0  0
  -29.4940  -12.5029   18.2099 C   0  0  0  0  0  0
  -28.0172  -12.3578   18.6240 C   0  0  0  0  0  0
  -27.6557  -13.2146   19.8669 C   0  0  2  0  0  0
  -28.7007  -13.0431   20.9927 C   0  0  0  0  0  0
  -25.2569  -13.8175   20.5690 C   0  0  0  0  0  0
  -24.1833  -13.0441   20.9193 C   0  0  0  0  0  0
  -24.6391  -11.6911   20.8744 C   0  0  0  0  0  0
  -23.9059  -10.4297   21.0407 C   0  0  0  0  0  0
  -24.3614   -9.4210   21.9182 C   0  0  0  0  0  0
  -23.6294   -8.2243   22.0747 C   0  0  0  0  0  0
  -22.4276   -8.0277   21.3539 C   0  0  0  0  0  0
  -21.9910   -9.0252   20.4645 C   0  0  0  0  0  0
  -22.7233  -10.2134   20.3056 C   0  0  0  0  0  0
  -21.6856   -6.0736   22.5280 C   0  0  0  0  0  0
  -21.4013   -6.5635   23.8216 C   0  0  0  0  0  0
  -21.3662   -5.6786   24.9177 C   0  0  0  0  0  0
  -21.6048   -4.3053   24.7225 C   0  0  0  0  0  0
  -21.8821   -3.8143   23.4346 C   0  0  0  0  0  0
  -21.9194   -4.6961   22.3403 C   0  0  0  0  0  0
  -22.7854  -13.5238   21.1852 C   0  0  0  0  0  0
  -22.1665   -4.2149   21.0981 F   0  0  0  0  0  0
  -21.5630   -3.4531   25.7739 F   0  0  0  0  0  0
  -30.0235  -13.3462   20.4265 N   0  0  0  0  0  0
  -26.3001  -12.9358   20.3345 N   0  0  0  0  0  0
  -25.9322  -11.6511   20.5763 N   0  0  0  0  0  0
  -22.0495  -12.8234   22.0413 N   0  0  0  0  0  0
  -25.4273  -15.1900   20.4095 N   0  0  0  0  0  0
  -31.8599  -14.6380   20.1176 O   0  0  0  0  0  0
  -21.6639   -6.8875   21.4240 O   0  0  0  0  0  0
  -22.3545  -14.5546   20.6697 O   0  0  0  0  0  0
  -24.6189  -31.8664   23.2091 C   0  0  0  0  0  0
  -25.9074  -32.4804   23.8394 C   0  0  1  0  0  0
  -27.2188  -27.3886   20.0984 C   0  0  0  0  0  0
  -25.5922  -33.8608   24.2320 N   0  0  0  0  0  0
  -23.4083  -30.4939   21.5500 C   0  0  2  0  0  0
  -24.8525  -28.9643   20.1086 C   0  0  0  0  0  0
  -22.7438  -29.4663   22.4956 C   0  0  0  0  0  0
  -18.0283  -28.1383   22.8490 C   0  0  0  0  0  0
  -24.1491  -36.7308   23.2635 C   0  0  0  0  0  0
  -25.9443  -30.8180   21.3718 C   0  0  0  0  0  0
  -26.0186  -29.4534   20.7110 C   0  0  0  0  0  0
  -27.2061  -28.6747   20.7020 C   0  0  0  0  0  0
  -26.0369  -26.9497   19.4559 C   0  0  0  0  0  0
  -24.8601  -27.7147   19.4741 C   0  0  0  0  0  0
  -23.6181  -29.8347   20.1627 C   0  0  0  0  0  0
  -25.4111  -36.3098   24.0330 C   0  0  1  0  0  0
  -20.5879  -28.3679   23.1294 C   0  0  2  0  0  0
  -20.6778  -26.9412   22.5406 C   0  0  0  0  0  0
  -19.5751  -26.6388   21.5209 C   0  0  0  0  0  0
  -18.1931  -26.7928   22.1622 C   0  0  0  0  0  0
  -19.1535  -28.8847   23.2890 C   0  0  0  0  0  0
  -18.9457  -30.1454   23.8901 C   0  0  0  0  0  0
  -17.6456  -30.6585   24.0569 C   0  0  0  0  0  0
  -25.9044  -34.9463   23.5114 C   0  0  0  0  0  0
  -16.5349  -29.9084   23.6332 C   0  0  0  0  0  0
  -16.7272  -28.6504   23.0349 C   0  0  0  0  0  0
  -26.4488  -31.6586   25.0729 C   0  0  0  0  0  0
  -25.3750  -31.3712   26.1474 C   0  0  0  0  0  0
  -27.0316  -30.3018   24.6134 C   0  0  0  0  0  0
  -27.6056  -32.4310   25.7496 C   0  0  0  0  0  0
  -27.5582  -37.1811   24.8461 C   0  0  0  0  0  0
  -21.4160  -29.3042   22.3696 N   0  0  0  0  0  0
  -26.4293  -37.3783   23.9408 N   0  0  0  0  0  0
  -24.6757  -31.0740   22.1011 N   0  0  0  0  0  0
  -23.4191  -28.8193   23.3004 O   0  0  0  0  0  0
  -28.3399  -26.5647   20.1683 O   0  0  0  0  0  0
  -26.5596  -34.8912   22.4672 O   0  0  0  0  0  0
  -23.5374  -32.1428   23.7467 O   0  0  0  0  0  0
  -31.9550  -18.1158   22.5402 C   0  0  0  0  0  0
  -31.3605  -19.3039   22.0958 C   0  0  0  0  0  0
  -30.2374  -19.1664   21.2538 C   0  0  0  0  0  0
  -30.4653  -16.8495   21.3485 C   0  0  0  0  0  0
  -29.0226  -22.6967   20.1925 C   0  0  0  0  0  0
  -29.1447  -21.8936   22.5839 C   0  0  0  0  0  0
  -27.4612  -25.0192   21.8531 C   0  0  0  0  0  0
  -29.3400  -24.2183   20.3193 C   0  0  0  0  0  0
  -29.7020  -21.6805   21.1613 C   0  0  1  0  0  0
  -28.0885  -25.1483   20.4476 C   0  0  2  0  0  0
  -31.5032  -16.8999   22.1770 N   0  0  0  0  0  0
  -29.7962  -17.9286   20.8962 N   0  0  0  0  0  0
  -29.5200  -20.2721   20.7354 N   0  0  0  0  0  0
  -30.0059  -15.5894   21.0034 N   0  0  0  0  0  0
  -28.2419  -22.3108   19.3172 O   0  0  0  0  0  0
  -31.8757  -20.4996   22.4748 F   0  0  0  0  0  0
  -31.4630  -12.4248   19.1271 H   0  0  0  0  0  0
  -30.3186  -11.3318   19.8517 H   0  0  0  0  0  0
  -29.7419  -11.7665   17.4449 H   0  0  0  0  0  0
  -29.6565  -13.4824   17.7567 H   0  0  0  0  0  0
  -27.8378  -11.3040   18.8367 H   0  0  0  0  0  0
  -27.3640  -12.6134   17.7886 H   0  0  0  0  0  0
  -27.6841  -14.2553   19.5437 H   0  0  0  0  0  0
  -28.6888  -12.0212   21.3755 H   0  0  0  0  0  0
  -28.4632  -13.6800   21.8459 H   0  0  0  0  0  0
  -25.2763   -9.5689   22.4750 H   0  0  0  0  0  0
  -24.0013   -7.4636   22.7461 H   0  0  0  0  0  0
  -21.0843   -8.8767   19.8955 H   0  0  0  0  0  0
  -22.3688  -10.9670   19.6164 H   0  0  0  0  0  0
  -21.2000   -7.6143   23.9720 H   0  0  0  0  0  0
  -21.1486   -6.0515   25.9082 H   0  0  0  0  0  0
  -22.0596   -2.7605   23.2845 H   0  0  0  0  0  0
  -22.4103  -11.9892   22.4810 H   0  0  0  0  0  0
  -21.1110  -13.1258   22.2612 H   0  0  0  0  0  0
  -24.6541  -15.8387   20.5094 H   0  0  0  0  0  0
  -26.2676  -15.6311   20.0577 H   0  0  0  0  0  0
  -26.7145  -32.5503   23.1158 H   0  0  0  0  0  0
  -25.0108  -33.9776   25.0487 H   0  0  0  0  0  0
  -22.6978  -31.3122   21.4145 H   0  0  0  0  0  0
  -23.3739  -35.9655   23.3296 H   0  0  0  0  0  0
  -24.3590  -36.8919   22.2051 H   0  0  0  0  0  0
  -23.7258  -37.6517   23.6652 H   0  0  0  0  0  0
  -26.0689  -31.5859   20.6072 H   0  0  0  0  0  0
  -26.8278  -30.8631   21.9974 H   0  0  0  0  0  0
  -28.0987  -29.0406   21.1899 H   0  0  0  0  0  0
  -25.9896  -26.0109   18.9285 H   0  0  0  0  0  0
  -23.9690  -27.3406   18.9887 H   0  0  0  0  0  0
  -23.7298  -30.6127   19.4068 H   0  0  0  0  0  0
  -22.7407  -29.2586   19.8633 H   0  0  0  0  0  0
  -25.1292  -36.1957   25.0824 H   0  0  0  0  0  0
  -20.9982  -28.3253   24.1410 H   0  0  0  0  0  0
  -20.5686  -26.2293   23.3599 H   0  0  0  0  0  0
  -21.6650  -26.7455   22.1201 H   0  0  0  0  0  0
  -19.6908  -25.6298   21.1241 H   0  0  0  0  0  0
  -19.6687  -27.3198   20.6741 H   0  0  0  0  0  0
  -17.4208  -26.6680   21.4020 H   0  0  0  0  0  0
  -18.0329  -26.0067   22.9017 H   0  0  0  0  0  0
  -19.7936  -30.7280   24.2256 H   0  0  0  0  0  0
  -17.5013  -31.6263   24.5177 H   0  0  0  0  0  0
  -15.5351  -30.2990   23.7649 H   0  0  0  0  0  0
  -15.8675  -28.0831   22.7047 H   0  0  0  0  0  0
  -24.5924  -30.7053   25.7818 H   0  0  0  0  0  0
  -24.8947  -32.2879   26.4913 H   0  0  0  0  0  0
  -25.8105  -30.8895   27.0239 H   0  0  0  0  0  0
  -26.2872  -29.6779   24.1176 H   0  0  0  0  0  0
  -27.4048  -29.7257   25.4610 H   0  0  0  0  0  0
  -27.8727  -30.4305   23.9317 H   0  0  0  0  0  0
  -27.2669  -33.3604   26.2090 H   0  0  0  0  0  0
  -28.3864  -32.6879   25.0324 H   0  0  0  0  0  0
  -28.0727  -31.8426   26.5404 H   0  0  0  0  0  0
  -28.2599  -38.0108   24.7508 H   0  0  0  0  0  0
  -28.1078  -36.2641   24.6285 H   0  0  0  0  0  0
  -27.2305  -37.1458   25.8864 H   0  0  0  0  0  0
  -20.9313  -29.8782   21.6940 H   0  0  0  0  0  0
  -26.0169  -38.2855   24.1406 H   0  0  0  0  0  0
  -32.8129  -18.1397   23.1952 H   0  0  0  0  0  0
  -29.3175  -22.9119   22.9347 H   0  0  0  0  0  0
  -29.6111  -21.2309   23.3122 H   0  0  0  0  0  0
  -28.0696  -21.7104   22.6218 H   0  0  0  0  0  0
  -27.1923  -23.9874   22.0754 H   0  0  0  0  0  0
  -26.5456  -25.6026   21.9534 H   0  0  0  0  0  0
  -28.1545  -25.3581   22.6237 H   0  0  0  0  0  0
  -29.8954  -24.4979   19.4249 H   0  0  0  0  0  0
  -30.0184  -24.3804   21.1564 H   0  0  0  0  0  0
  -30.7670  -21.9106   21.1510 H   0  0  0  0  0  0
  -27.3802  -24.7550   19.7228 H   0  0  0  0  0  0
  -28.7847  -20.0976   20.0611 H   0  0  0  0  0  0
  -29.0167  -15.4467   21.1115 H   0  0  0  0  0  0
  1 25  1  0  0  0
  1 30  2  0  0  0
  1 84  1  0  0  0
  2  3  1  0  0  0
  2 25  1  0  0  0
  2 87  1  0  0  0
  2 88  1  0  0  0
  3  4  1  0  0  0
  3 89  1  0  0  0
  3 90  1  0  0  0
  4  5  1  0  0  0
  4 91  1  0  0  0
  4 92  1  0  0  0
  5  6  1  0  0  0
  5 26  1  0  0  0
  5 93  1  0  0  0
  6 25  1  0  0  0
  6 94  1  0  0  0
  6 95  1  0  0  0
  7  8  2  0  0  0
  7 26  1  0  0  0
  7 29  1  0  0  0
  8  9  1  0  0  0
  8 22  1  0  0  0
  9 10  1  0  0  0
  9 27  2  0  0  0
 10 11  2  0  0  0
 10 15  1  0  0  0
 11 12  1  0  0  0
 11 96  1  0  0  0
 12 13  2  0  0  0
 12 97  1  0  0  0
 13 14  1  0  0  0
 13 31  1  0  0  0
 14 15  2  0  0  0
 14 98  1  0  0  0
 15 99  1  0  0  0
 16 17  2  0  0  0
 16 21  1  0  0  0
 16 31  1  0  0  0
 17 18  1  0  0  0
 17100  1  0  0  0
 18 19  2  0  0  0
 18101  1  0  0  0
 19 20  1  0  0  0
 19 24  1  0  0  0
 20 21  2  0  0  0
 20102  1  0  0  0
 21 23  1  0  0  0
 22 28  1  0  0  0
 22 32  2  0  0  0
 26 27  1  0  0  0
 28103  1  0  0  0
 28104  1  0  0  0
 29105  1  0  0  0
 29106  1  0  0  0
 33 34  1  0  0  0
 33 66  1  0  0  0
 33 70  2  0  0  0
 34 36  1  0  0  0
 34 59  1  0  0  0
 34107  1  0  0  0
 35 44  2  0  0  0
 35 45  1  0  0  0
 35 68  1  0  0  0
 36 56  1  0  0  0
 36108  1  0  0  0
 37 39  1  0  0  0
 37 47  1  0  0  0
 37 66  1  0  0  0
 37109  1  0  0  0
 38 43  2  0  0  0
 38 46  1  0  0  0
 38 47  1  0  0  0
 39 64  1  0  0  0
 39 67  2  0  0  0
 40 52  1  0  0  0
 40 53  2  0  0  0
 40 58  1  0  0  0
 41110  1  0  0  0
 41111  1  0  0  0
 41112  1  0  0  0
 41 48  1  0  0  0
 42 43  1  0  0  0
 42 66  1  0  0  0
 42113  1  0  0  0
 42114  1  0  0  0
 43 44  1  0  0  0
 44115  1  0  0  0
 45 46  2  0  0  0
 45116  1  0  0  0
 46117  1  0  0  0
 47118  1  0  0  0
 47119  1  0  0  0
 48 56  1  0  0  0
 48 65  1  0  0  0
 48120  1  0  0  0
 49 50  1  0  0  0
 49 53  1  0  0  0
 49 64  1  0  0  0
 49121  1  0  0  0
 50 51  1  0  0  0
 50122  1  0  0  0
 50123  1  0  0  0
 51 52  1  0  0  0
 51124  1  0  0  0
 51125  1  0  0  0
 52126  1  0  0  0
 52127  1  0  0  0
 53 54  1  0  0  0
 54 55  2  0  0  0
 54128  1  0  0  0
 55 57  1  0  0  0
 55129  1  0  0  0
 56 69  2  0  0  0
 57 58  2  0  0  0
 57130  1  0  0  0
 58131  1  0  0  0
 59 60  1  0  0  0
 59 61  1  0  0  0
 59 62  1  0  0  0
 60132  1  0  0  0
 60133  1  0  0  0
 60134  1  0  0  0
 61135  1  0  0  0
 61136  1  0  0  0
 61137  1  0  0  0
 62138  1  0  0  0
 62139  1  0  0  0
 62140  1  0  0  0
 63 65  1  0  0  0
 63141  1  0  0  0
 63142  1  0  0  0
 63143  1  0  0  0
 64144  1  0  0  0
 65145  1  0  0  0
 68 80  1  0  0  0
 71 72  2  0  0  0
 71 81  1  0  0  0
 71146  1  0  0  0
 72 73  1  0  0  0
 72 86  1  0  0  0
 73 82  2  0  0  0
 73 83  1  0  0  0
 74 81  2  0  0  0
 74 82  1  0  0  0
 74 84  1  0  0  0
 75 78  1  0  0  0
 75 79  1  0  0  0
 75 85  2  0  0  0
 76147  1  0  0  0
 76148  1  0  0  0
 76149  1  0  0  0
 76 79  1  0  0  0
 77150  1  0  0  0
 77151  1  0  0  0
 77152  1  0  0  0
 77 80  1  0  0  0
 78 80  1  0  0  0
 78153  1  0  0  0
 78154  1  0  0  0
 79 83  1  0  0  0
 79155  1  0  0  0
 80156  1  0  0  0
 83157  1  0  0  0
 84158  1  0  0  0
M  ISO  4   1 100  68 101  80 101  84 100
M  END
> <chiral flag>
0

> <version>
0

> <s_m_source_file>
/data/baiqing/PycharmProjects/Reinvent-master-3.2/result/LINK_invent/BTK/process_docking_weight1_custom_product_contain_oxygen_bond_distance_aromatic_linkinvent_7_9_3/rearranged_h_0179.sdf

> <i_m_source_file_index>
64

> <r_mmod_Potential_Energy-OPLS-2005>
-450.322814941406

> <r_mmod_Stretch_Energy-OPLS-2005>
49.5120315551758

> <r_mmod_Bend_Energy-OPLS-2005>
118.137504577637

> <r_mmod_Torsional_Energy-OPLS-2005>
212.297180175781

> <r_mmod_Improper_Torsional_Energy-OPLS-2005>
4.73627281188965

> <r_mmod_Van_der_Waal_Energy-OPLS-2005>
168.669082641602

> <r_mmod_Electrostatic_Energy-OPLS-2005>
-795.600341796875

> <r_mmod_Solvation_Energy-OPLS-2005>
-232.823348999023

> <b_mmod_Minimization_Converged-OPLS-2005>
0

> <r_mmod_RMS_Derivative-OPLS-2005>
1.25690817832947

$$$$
64
                    3D
 Structure written by MMmdl.
157165  0  0  1  0            999 V2000
  -30.7318  -14.4811   20.5085 C   0  0  0  0  0  0
  -30.4060  -12.2937   19.4383 C   0  0  0  0  0  0
  -29.4916  -12.4739   18.2104 C   0  0  0  0  0  0
  -28.0121  -12.3527   18.6236 C   0  0  0  0  0  0
  -27.6541  -13.2180   19.8635 C   0  0  2  0  0  0
  -28.6982  -13.0553   20.9919 C   0  0  0  0  0  0
  -25.2557  -13.8199   20.5691 C   0  0  0  0  0  0
  -24.1825  -13.0453   20.9183 C   0  0  0  0  0  0
  -24.6393  -11.6922   20.8734 C   0  0  0  0  0  0
  -23.9070  -10.4296   21.0407 C   0  0  0  0  0  0
  -24.3620   -9.4206   21.9182 C   0  0  0  0  0  0
  -23.6292   -8.2246   22.0752 C   0  0  0  0  0  0
  -22.4275   -8.0287   21.3545 C   0  0  0  0  0  0
  -21.9910   -9.0263   20.4652 C   0  0  0  0  0  0
  -22.7241  -10.2140   20.3058 C   0  0  0  0  0  0
  -21.6857   -6.0737   22.5277 C   0  0  0  0  0  0
  -21.4026   -6.5644   23.8211 C   0  0  0  0  0  0
  -21.3656   -5.6794   24.9170 C   0  0  0  0  0  0
  -21.6037   -4.3056   24.7224 C   0  0  0  0  0  0
  -21.8818   -3.8150   23.4346 C   0  0  0  0  0  0
  -21.9192   -4.6964   22.3401 C   0  0  0  0  0  0
  -22.7842  -13.5235   21.1840 C   0  0  0  0  0  0
  -22.1657   -4.2151   21.0978 F   0  0  0  0  0  0
  -21.5619   -3.4533   25.7735 F   0  0  0  0  0  0
  -30.0257  -13.3222   20.4213 N   0  0  0  0  0  0
  -26.2993  -12.9386   20.3344 N   0  0  0  0  0  0
  -25.9326  -11.6534   20.5783 N   0  0  0  0  0  0
  -22.0493  -12.8231   22.0407 N   0  0  0  0  0  0
  -25.4257  -15.1924   20.4132 N   0  0  0  0  0  0
  -31.9061  -14.5429   20.1480 O   0  0  0  0  0  0
  -21.6644   -6.8879   21.4240 O   0  0  0  0  0  0
  -22.3515  -14.5527   20.6671 O   0  0  0  0  0  0
  -24.6143  -31.8672   23.2084 C   0  0  0  0  0  0
  -25.9038  -32.4816   23.8388 C   0  0  1  0  0  0
  -27.2302  -27.4370   20.1054 C   0  0  0  0  0  0
  -25.5886  -33.8611   24.2316 N   0  0  0  0  0  0
  -23.4022  -30.4902   21.5494 C   0  0  2  0  0  0
  -24.8501  -28.9542   20.1157 C   0  0  0  0  0  0
  -22.7404  -29.4659   22.4985 C   0  0  0  0  0  0
  -18.0267  -28.1387   22.8493 C   0  0  0  0  0  0
  -24.1479  -36.7327   23.2642 C   0  0  0  0  0  0
  -25.9300  -30.8363   21.3589 C   0  0  0  0  0  0
  -26.0097  -29.4698   20.7085 C   0  0  0  0  0  0
  -27.2070  -28.7191   20.6984 C   0  0  0  0  0  0
  -26.0585  -26.9318   19.5065 C   0  0  0  0  0  0
  -24.8686  -27.6850   19.5101 C   0  0  0  0  0  0
  -23.6110  -29.8200   20.1648 C   0  0  0  0  0  0
  -25.4101  -36.3104   24.0330 C   0  0  1  0  0  0
  -20.5859  -28.3669   23.1320 C   0  0  2  0  0  0
  -20.6758  -26.9404   22.5423 C   0  0  0  0  0  0
  -19.5739  -26.6389   21.5218 C   0  0  0  0  0  0
  -18.1916  -26.7934   22.1626 C   0  0  0  0  0  0
  -19.1518  -28.8844   23.2905 C   0  0  0  0  0  0
  -18.9451  -30.1455   23.8913 C   0  0  0  0  0  0
  -17.6452  -30.6592   24.0574 C   0  0  0  0  0  0
  -25.9029  -34.9469   23.5121 C   0  0  0  0  0  0
  -16.5343  -29.9100   23.6331 C   0  0  0  0  0  0
  -16.7259  -28.6519   23.0347 C   0  0  0  0  0  0
  -26.4469  -31.6595   25.0715 C   0  0  0  0  0  0
  -25.3736  -31.3693   26.1460 C   0  0  0  0  0  0
  -27.0312  -30.3036   24.6098 C   0  0  0  0  0  0
  -27.6038  -32.4325   25.7481 C   0  0  0  0  0  0
  -27.5572  -37.1815   24.8458 C   0  0  0  0  0  0
  -21.4129  -29.3031   22.3717 N   0  0  0  0  0  0
  -26.4288  -37.3785   23.9397 N   0  0  0  0  0  0
  -24.6675  -31.0784   22.0982 N   0  0  0  0  0  0
  -23.4175  -28.8196   23.3023 O   0  0  0  0  0  0
  -28.3747  -26.6761   20.1117 O   0  0  0  0  0  0
  -26.5602  -34.8921   22.4690 O   0  0  0  0  0  0
  -23.5336  -32.1421   23.7483 O   0  0  0  0  0  0
  -31.6270  -17.3567   19.9562 C   0  0  0  0  0  0
  -30.4405  -16.9730   20.6370 C   0  0  0  0  0  0
  -29.6034  -18.0191   21.1180 C   0  0  0  0  0  0
  -29.9647  -19.3933   20.9357 C   0  0  0  0  0  0
  -31.2144  -19.6665   20.3130 C   0  0  0  0  0  0
  -28.5168  -22.9096   21.1823 C   0  0  0  0  0  0
  -28.4204  -24.1922   20.2923 C   0  0  0  0  0  0
  -28.7052  -21.5287   20.5014 C   0  0  0  0  0  0
  -28.3187  -25.5522   21.0151 C   0  0  0  0  0  0
  -31.9637  -18.6560   19.8367 N   0  3  0  0  0  0
  -28.4148  -17.6903   21.7849 N   0  0  0  0  0  0
  -31.7331  -20.9536   20.2128 N   0  0  0  0  0  0
  -30.0375  -15.5974   20.8215 N   0  0  0  0  0  0
  -29.1316  -20.4390   21.4146 N   0  0  0  0  0  0
  -28.4475  -22.9879   22.4150 O   0  0  0  0  0  0
  -28.4246  -24.1159   19.0565 O   0  0  0  0  0  0
  -31.4533  -12.3525   19.1389 H   0  0  0  0  0  0
  -30.2805  -11.2986   19.8679 H   0  0  0  0  0  0
  -29.7267  -11.7253   17.4525 H   0  0  0  0  0  0
  -29.6723  -13.4450   17.7477 H   0  0  0  0  0  0
  -27.8203  -11.3011   18.8400 H   0  0  0  0  0  0
  -27.3641  -12.6093   17.7846 H   0  0  0  0  0  0
  -27.6817  -14.2572   19.5349 H   0  0  0  0  0  0
  -28.6701  -12.0442   21.4000 H   0  0  0  0  0  0
  -28.4744  -13.7202   21.8273 H   0  0  0  0  0  0
  -25.2768   -9.5679   22.4751 H   0  0  0  0  0  0
  -23.9998   -7.4641   22.7474 H   0  0  0  0  0  0
  -21.0838   -8.8791   19.8963 H   0  0  0  0  0  0
  -22.3707  -10.9679   19.6166 H   0  0  0  0  0  0
  -21.2035   -7.6155   23.9716 H   0  0  0  0  0  0
  -21.1471   -6.0524   25.9073 H   0  0  0  0  0  0
  -22.0600   -2.7614   23.2845 H   0  0  0  0  0  0
  -22.4110  -11.9909   22.4824 H   0  0  0  0  0  0
  -21.1111  -13.1258   22.2608 H   0  0  0  0  0  0
  -24.6643  -15.8478   20.5502 H   0  0  0  0  0  0
  -26.2881  -15.6470   20.1384 H   0  0  0  0  0  0
  -26.7111  -32.5529   23.1156 H   0  0  0  0  0  0
  -24.9998  -33.9771   25.0437 H   0  0  0  0  0  0
  -22.6913  -31.3066   21.4091 H   0  0  0  0  0  0
  -23.3716  -35.9686   23.3312 H   0  0  0  0  0  0
  -24.3565  -36.8937   22.2054 H   0  0  0  0  0  0
  -23.7265  -37.6546   23.6660 H   0  0  0  0  0  0
  -26.0373  -31.6003   20.5876 H   0  0  0  0  0  0
  -26.8201  -30.8937   21.9734 H   0  0  0  0  0  0
  -28.1042  -29.1112   21.1574 H   0  0  0  0  0  0
  -26.0643  -25.9565   19.0407 H   0  0  0  0  0  0
  -23.9768  -27.2819   19.0505 H   0  0  0  0  0  0
  -23.7173  -30.5936   19.4037 H   0  0  0  0  0  0
  -22.7352  -29.2380   19.8718 H   0  0  0  0  0  0
  -25.1279  -36.1965   25.0822 H   0  0  0  0  0  0
  -20.9959  -28.3246   24.1439 H   0  0  0  0  0  0
  -20.5666  -26.2273   23.3606 H   0  0  0  0  0  0
  -21.6630  -26.7455   22.1214 H   0  0  0  0  0  0
  -19.6899  -25.6304   21.1239 H   0  0  0  0  0  0
  -19.6687  -27.3207   20.6754 H   0  0  0  0  0  0
  -17.4186  -26.6679   21.4027 H   0  0  0  0  0  0
  -18.0322  -26.0083   22.9028 H   0  0  0  0  0  0
  -19.7929  -30.7266   24.2280 H   0  0  0  0  0  0
  -17.5014  -31.6273   24.5179 H   0  0  0  0  0  0
  -15.5346  -30.3011   23.7653 H   0  0  0  0  0  0
  -15.8654  -28.0851   22.7047 H   0  0  0  0  0  0
  -24.5882  -30.7078   25.7778 H   0  0  0  0  0  0
  -24.8959  -32.2855   26.4941 H   0  0  0  0  0  0
  -25.8084  -30.8832   27.0205 H   0  0  0  0  0  0
  -26.2862  -29.6769   24.1179 H   0  0  0  0  0  0
  -27.4122  -29.7305   25.4563 H   0  0  0  0  0  0
  -27.8670  -30.4350   23.9225 H   0  0  0  0  0  0
  -27.2641  -33.3600   26.2106 H   0  0  0  0  0  0
  -28.3839  -32.6919   25.0311 H   0  0  0  0  0  0
  -28.0722  -31.8434   26.5369 H   0  0  0  0  0  0
  -28.2598  -38.0105   24.7486 H   0  0  0  0  0  0
  -28.1060  -36.2635   24.6300 H   0  0  0  0  0  0
  -27.2287  -37.1485   25.8862 H   0  0  0  0  0  0
  -20.9276  -29.8744   21.6937 H   0  0  0  0  0  0
  -26.0168  -38.2858   24.1402 H   0  0  0  0  0  0
  -32.3455  -16.6888   19.5034 H   0  0  0  0  0  0
  -29.3733  -21.6461   19.6481 H   0  0  0  0  0  0
  -27.7403  -21.2517   20.0748 H   0  0  0  0  0  0
  -29.1488  -25.6346   21.7163 H   0  0  0  0  0  0
  -27.4047  -25.5645   21.6110 H   0  0  0  0  0  0
  -32.8465  -18.8751   19.3690 H   0  0  0  0  0  0
  -28.5155  -16.9116   22.4200 H   0  0  0  0  0  0
  -27.9908  -18.4676   22.2661 H   0  0  0  0  0  0
  -31.3279  -21.6366   20.8321 H   0  0  0  0  0  0
  -32.7135  -21.0934   20.0384 H   0  0  0  0  0  0
  -29.0830  -15.4655   21.1176 H   0  0  0  0  0  0
  -28.3986  -20.1444   22.0468 H   0  0  0  0  0  0
  1 25  1  0  0  0
  1 30  2  0  0  0
  1 83  1  0  0  0
  2  3  1  0  0  0
  2 25  1  0  0  0
  2 87  1  0  0  0
  2 88  1  0  0  0
  3  4  1  0  0  0
  3 89  1  0  0  0
  3 90  1  0  0  0
  4  5  1  0  0  0
  4 91  1  0  0  0
  4 92  1  0  0  0
  5  6  1  0  0  0
  5 26  1  0  0  0
  5 93  1  0  0  0
  6 25  1  0  0  0
  6 94  1  0  0  0
  6 95  1  0  0  0
  7  8  2  0  0  0
  7 26  1  0  0  0
  7 29  1  0  0  0
  8  9  1  0  0  0
  8 22  1  0  0  0
  9 10  1  0  0  0
  9 27  2  0  0  0
 10 11  2  0  0  0
 10 15  1  0  0  0
 11 12  1  0  0  0
 11 96  1  0  0  0
 12 13  2  0  0  0
 12 97  1  0  0  0
 13 14  1  0  0  0
 13 31  1  0  0  0
 14 15  2  0  0  0
 14 98  1  0  0  0
 15 99  1  0  0  0
 16 17  2  0  0  0
 16 21  1  0  0  0
 16 31  1  0  0  0
 17 18  1  0  0  0
 17100  1  0  0  0
 18 19  2  0  0  0
 18101  1  0  0  0
 19 20  1  0  0  0
 19 24  1  0  0  0
 20 21  2  0  0  0
 20102  1  0  0  0
 21 23  1  0  0  0
 22 28  1  0  0  0
 22 32  2  0  0  0
 26 27  1  0  0  0
 28103  1  0  0  0
 28104  1  0  0  0
 29105  1  0  0  0
 29106  1  0  0  0
 33 34  1  0  0  0
 33 66  1  0  0  0
 33 70  2  0  0  0
 34 36  1  0  0  0
 34 59  1  0  0  0
 34107  1  0  0  0
 35 44  2  0  0  0
 35 45  1  0  0  0
 35 68  1  0  0  0
 36 56  1  0  0  0
 36108  1  0  0  0
 37 39  1  0  0  0
 37 47  1  0  0  0
 37 66  1  0  0  0
 37109  1  0  0  0
 38 43  2  0  0  0
 38 46  1  0  0  0
 38 47  1  0  0  0
 39 64  1  0  0  0
 39 67  2  0  0  0
 40 52  1  0  0  0
 40 53  2  0  0  0
 40 58  1  0  0  0
 41110  1  0  0  0
 41111  1  0  0  0
 41112  1  0  0  0
 41 48  1  0  0  0
 42 43  1  0  0  0
 42 66  1  0  0  0
 42113  1  0  0  0
 42114  1  0  0  0
 43 44  1  0  0  0
 44115  1  0  0  0
 45 46  2  0  0  0
 45116  1  0  0  0
 46117  1  0  0  0
 47118  1  0  0  0
 47119  1  0  0  0
 48 56  1  0  0  0
 48 65  1  0  0  0
 48120  1  0  0  0
 49 50  1  0  0  0
 49 53  1  0  0  0
 49 64  1  0  0  0
 49121  1  0  0  0
 50 51  1  0  0  0
 50122  1  0  0  0
 50123  1  0  0  0
 51 52  1  0  0  0
 51124  1  0  0  0
 51125  1  0  0  0
 52126  1  0  0  0
 52127  1  0  0  0
 53 54  1  0  0  0
 54 55  2  0  0  0
 54128  1  0  0  0
 55 57  1  0  0  0
 55129  1  0  0  0
 56 69  2  0  0  0
 57 58  2  0  0  0
 57130  1  0  0  0
 58131  1  0  0  0
 59 60  1  0  0  0
 59 61  1  0  0  0
 59 62  1  0  0  0
 60132  1  0  0  0
 60133  1  0  0  0
 60134  1  0  0  0
 61135  1  0  0  0
 61136  1  0  0  0
 61137  1  0  0  0
 62138  1  0  0  0
 62139  1  0  0  0
 62140  1  0  0  0
 63 65  1  0  0  0
 63141  1  0  0  0
 63142  1  0  0  0
 63143  1  0  0  0
 64144  1  0  0  0
 65145  1  0  0  0
 68 79  1  0  0  0
 71 72  2  0  0  0
 71 80  1  0  0  0
 71146  1  0  0  0
 72 73  1  0  0  0
 72 83  1  0  0  0
 73 74  2  0  0  0
 73 81  1  0  0  0
 74 75  1  0  0  0
 74 84  1  0  0  0
 75 80  2  0  0  0
 75 82  1  0  0  0
 76 77  1  0  0  0
 76 78  1  0  0  0
 76 85  2  0  0  0
 77 79  1  0  0  0
 77 86  2  0  0  0
 78 84  1  0  0  0
 78147  1  0  0  0
 78148  1  0  0  0
 79149  1  0  0  0
 79150  1  0  0  0
 80151  1  0  0  0
 81152  1  0  0  0
 81153  1  0  0  0
 82154  1  0  0  0
 82155  1  0  0  0
 83156  1  0  0  0
 84157  1  0  0  0
M  CHG  1  80   1
M  ISO  4   1 100  68 101  79 101  83 100
M  END
> <chiral flag>
0

> <version>
0

> <s_m_source_file>
/data/baiqing/PycharmProjects/Reinvent-master-3.2/result/LINK_invent/BTK/process_docking_weight1_custom_product_contain_oxygen_bond_distance_aromatic_linkinvent_7_9_3/rearranged_h_0179.sdf

> <i_m_source_file_index>
65

> <r_mmod_Potential_Energy-OPLS-2005>
-135.400238037109

> <r_mmod_Stretch_Energy-OPLS-2005>
46.400276184082

> <r_mmod_Bend_Energy-OPLS-2005>
105.70694732666

> <r_mmod_Torsional_Energy-OPLS-2005>
252.050506591797

> <r_mmod_Improper_Torsional_Energy-OPLS-2005>
16.2434673309326

> <r_mmod_Van_der_Waal_Energy-OPLS-2005>
167.644958496094

> <r_mmod_Electrostatic_Energy-OPLS-2005>
-278.498016357422

> <r_mmod_Solvation_Energy-OPLS-2005>
-464.807922363281

> <b_mmod_Minimization_Converged-OPLS-2005>
0

> <r_mmod_RMS_Derivative-OPLS-2005>
1.34299504756927

$$$$
65
                    3D
 Structure written by MMmdl.
154162  0  0  1  0            999 V2000
  -30.6559  -14.5303   20.5263 C   0  0  0  0  0  0
  -30.4316  -12.3296   19.4335 C   0  0  0  0  0  0
  -29.5012  -12.5011   18.2121 C   0  0  0  0  0  0
  -28.0214  -12.3546   18.6218 C   0  0  0  0  0  0
  -27.6581  -13.2038   19.8688 C   0  0  2  0  0  0
  -28.7009  -13.0093   20.9945 C   0  0  0  0  0  0
  -25.2578  -13.8140   20.5653 C   0  0  0  0  0  0
  -24.1833  -13.0433   20.9193 C   0  0  0  0  0  0
  -24.6382  -11.6899   20.8744 C   0  0  0  0  0  0
  -23.9045  -10.4290   21.0411 C   0  0  0  0  0  0
  -24.3602   -9.4208   21.9186 C   0  0  0  0  0  0
  -23.6284   -8.2239   22.0755 C   0  0  0  0  0  0
  -22.4268   -8.0274   21.3544 C   0  0  0  0  0  0
  -21.9897   -9.0249   20.4648 C   0  0  0  0  0  0
  -22.7219  -10.2130   20.3060 C   0  0  0  0  0  0
  -21.6851   -6.0729   22.5280 C   0  0  0  0  0  0
  -21.4012   -6.5637   23.8210 C   0  0  0  0  0  0
  -21.3660   -5.6790   24.9174 C   0  0  0  0  0  0
  -21.6047   -4.3053   24.7226 C   0  0  0  0  0  0
  -21.8819   -3.8145   23.4346 C   0  0  0  0  0  0
  -21.9191   -4.6959   22.3402 C   0  0  0  0  0  0
  -22.7857  -13.5243   21.1852 C   0  0  0  0  0  0
  -22.1660   -4.2146   21.0980 F   0  0  0  0  0  0
  -21.5630   -3.4537   25.7740 F   0  0  0  0  0  0
  -30.0283  -13.3236   20.4408 N   0  0  0  0  0  0
  -26.3000  -12.9301   20.3317 N   0  0  0  0  0  0
  -25.9307  -11.6471   20.5756 N   0  0  0  0  0  0
  -22.0485  -12.8244   22.0402 N   0  0  0  0  0  0
  -25.4298  -15.1853   20.3993 N   0  0  0  0  0  0
  -31.8087  -14.7164   20.1232 O   0  0  0  0  0  0
  -21.6637   -6.8871   21.4240 O   0  0  0  0  0  0
  -22.3556  -14.5557   20.6702 O   0  0  0  0  0  0
  -24.6180  -31.8647   23.2076 C   0  0  0  0  0  0
  -25.9063  -32.4804   23.8381 C   0  0  1  0  0  0
  -27.2367  -27.3970   20.0887 C   0  0  0  0  0  0
  -25.5901  -33.8604   24.2306 N   0  0  0  0  0  0
  -23.4073  -30.4882   21.5489 C   0  0  2  0  0  0
  -24.8516  -28.9481   20.1156 C   0  0  0  0  0  0
  -22.7428  -29.4641   22.4975 C   0  0  0  0  0  0
  -18.0274  -28.1370   22.8492 C   0  0  0  0  0  0
  -24.1485  -36.7314   23.2639 C   0  0  0  0  0  0
  -25.9404  -30.8171   21.3671 C   0  0  0  0  0  0
  -26.0147  -29.4493   20.7114 C   0  0  0  0  0  0
  -27.2054  -28.6809   20.6945 C   0  0  0  0  0  0
  -26.0416  -26.9129   19.5041 C   0  0  0  0  0  0
  -24.8619  -27.6804   19.5120 C   0  0  0  0  0  0
  -23.6166  -29.8203   20.1642 C   0  0  0  0  0  0
  -25.4108  -36.3103   24.0333 C   0  0  1  0  0  0
  -20.5866  -28.3662   23.1305 C   0  0  2  0  0  0
  -20.6761  -26.9395   22.5411 C   0  0  0  0  0  0
  -19.5741  -26.6379   21.5208 C   0  0  0  0  0  0
  -18.1921  -26.7918   22.1622 C   0  0  0  0  0  0
  -19.1523  -28.8834   23.2895 C   0  0  0  0  0  0
  -18.9450  -30.1440   23.8908 C   0  0  0  0  0  0
  -17.6452  -30.6580   24.0559 C   0  0  0  0  0  0
  -25.9036  -34.9466   23.5118 C   0  0  0  0  0  0
  -16.5342  -29.9081   23.6321 C   0  0  0  0  0  0
  -16.7263  -28.6494   23.0353 C   0  0  0  0  0  0
  -26.4472  -31.6606   25.0733 C   0  0  0  0  0  0
  -25.3727  -31.3728   26.1477 C   0  0  0  0  0  0
  -27.0303  -30.3041   24.6146 C   0  0  0  0  0  0
  -27.6044  -32.4332   25.7497 C   0  0  0  0  0  0
  -27.5581  -37.1812   24.8458 C   0  0  0  0  0  0
  -21.4152  -29.3031   22.3716 N   0  0  0  0  0  0
  -26.4293  -37.3791   23.9401 N   0  0  0  0  0  0
  -24.6737  -31.0721   22.0989 N   0  0  0  0  0  0
  -23.4189  -28.8177   23.3023 O   0  0  0  0  0  0
  -28.4218  -26.6713   20.1104 O   0  0  0  0  0  0
  -26.5606  -34.8919   22.4685 O   0  0  0  0  0  0
  -23.5366  -32.1407   23.7456 O   0  0  0  0  0  0
  -28.9649  -17.8648   20.4699 C   0  0  0  0  0  0
  -29.9992  -16.9569   20.5699 C   0  0  0  0  0  0
  -30.8480  -18.8878   19.9052 C   0  0  0  0  0  0
  -28.6535  -22.8234   19.6551 C   0  0  0  0  0  0
  -28.9314  -21.6229   20.2391 C   0  0  0  0  0  0
  -28.7319  -24.1747   20.2915 C   0  0  0  0  0  0
  -28.7717  -20.2599   19.5315 C   0  0  0  0  0  0
  -28.5609  -25.4226   19.3798 C   0  0  0  0  0  0
  -29.5144  -19.0507   20.0116 N   0  0  0  0  0  0
  -31.1517  -17.6251   20.2428 N   0  3  0  0  0  0
  -31.7219  -19.8029   19.4779 N   0  0  0  0  0  0
  -29.8608  -15.5602   20.9000 N   0  0  0  0  0  0
  -28.9417  -24.3225   21.5013 O   0  0  0  0  0  0
  -29.3588  -21.4735   21.5033 O   0  0  0  0  0  0
  -31.4756  -12.4411   19.1351 H   0  0  0  0  0  0
  -30.3438  -11.3227   19.8447 H   0  0  0  0  0  0
  -29.7506  -11.7676   17.4441 H   0  0  0  0  0  0
  -29.6596  -13.4816   17.7596 H   0  0  0  0  0  0
  -27.8386  -11.2995   18.8277 H   0  0  0  0  0  0
  -27.3710  -12.6172   17.7864 H   0  0  0  0  0  0
  -27.6924  -14.2464   19.5525 H   0  0  0  0  0  0
  -28.6876  -11.9787   21.3530 H   0  0  0  0  0  0
  -28.4599  -13.6231   21.8638 H   0  0  0  0  0  0
  -25.2747   -9.5689   22.4761 H   0  0  0  0  0  0
  -24.0001   -7.4630   22.7471 H   0  0  0  0  0  0
  -21.0830   -8.8762   19.8952 H   0  0  0  0  0  0
  -22.3677  -10.9668   19.6173 H   0  0  0  0  0  0
  -21.2004   -7.6145   23.9715 H   0  0  0  0  0  0
  -21.1483   -6.0519   25.9078 H   0  0  0  0  0  0
  -22.0598   -2.7609   23.2845 H   0  0  0  0  0  0
  -22.4091  -11.9901   22.4787 H   0  0  0  0  0  0
  -21.1108  -13.1284   22.2612 H   0  0  0  0  0  0
  -24.6487  -15.8281   20.4747 H   0  0  0  0  0  0
  -26.2434  -15.6003   19.9660 H   0  0  0  0  0  0
  -26.7136  -32.5493   23.1142 H   0  0  0  0  0  0
  -25.0050  -33.9757   25.0451 H   0  0  0  0  0  0
  -22.6975  -31.3057   21.4089 H   0  0  0  0  0  0
  -23.3738  -35.9657   23.3304 H   0  0  0  0  0  0
  -24.3580  -36.8931   22.2053 H   0  0  0  0  0  0
  -23.7249  -37.6525   23.6653 H   0  0  0  0  0  0
  -26.0613  -31.5829   20.5997 H   0  0  0  0  0  0
  -26.8253  -30.8656   21.9903 H   0  0  0  0  0  0
  -28.1042  -29.0696   21.1528 H   0  0  0  0  0  0
  -25.9738  -25.9377   19.0490 H   0  0  0  0  0  0
  -23.9644  -27.2833   19.0585 H   0  0  0  0  0  0
  -23.7284  -30.5944   19.4036 H   0  0  0  0  0  0
  -22.7388  -29.2430   19.8684 H   0  0  0  0  0  0
  -25.1288  -36.1968   25.0827 H   0  0  0  0  0  0
  -20.9957  -28.3228   24.1426 H   0  0  0  0  0  0
  -20.5645  -26.2275   23.3601 H   0  0  0  0  0  0
  -21.6633  -26.7424   22.1214 H   0  0  0  0  0  0
  -19.6894  -25.6290   21.1237 H   0  0  0  0  0  0
  -19.6679  -27.3189   20.6737 H   0  0  0  0  0  0
  -17.4188  -26.6666   21.4027 H   0  0  0  0  0  0
  -18.0319  -26.0056   22.9013 H   0  0  0  0  0  0
  -19.7925  -30.7250   24.2289 H   0  0  0  0  0  0
  -17.5004  -31.6259   24.5158 H   0  0  0  0  0  0
  -15.5341  -30.2983   23.7642 H   0  0  0  0  0  0
  -15.8660  -28.0811   22.7071 H   0  0  0  0  0  0
  -24.5885  -30.7094   25.7812 H   0  0  0  0  0  0
  -24.8930  -32.2888   26.4936 H   0  0  0  0  0  0
  -25.8066  -30.8883   27.0233 H   0  0  0  0  0  0
  -26.2860  -29.6811   24.1170 H   0  0  0  0  0  0
  -27.4018  -29.7279   25.4632 H   0  0  0  0  0  0
  -27.8722  -30.4342   23.9342 H   0  0  0  0  0  0
  -27.2660  -33.3615   26.2112 H   0  0  0  0  0  0
  -28.3838  -32.6925   25.0319 H   0  0  0  0  0  0
  -28.0732  -31.8437   26.5386 H   0  0  0  0  0  0
  -28.2601  -38.0107   24.7504 H   0  0  0  0  0  0
  -28.1076  -36.2639   24.6285 H   0  0  0  0  0  0
  -27.2296  -37.1467   25.8860 H   0  0  0  0  0  0
  -20.9311  -29.8778   21.6960 H   0  0  0  0  0  0
  -26.0180  -38.2872   24.1397 H   0  0  0  0  0  0
  -27.9012  -17.7511   20.6173 H   0  0  0  0  0  0
  -28.3286  -22.8202   18.6244 H   0  0  0  0  0  0
  -29.0354  -20.3851   18.4801 H   0  0  0  0  0  0
  -27.7108  -20.0084   19.5370 H   0  0  0  0  0  0
  -27.7823  -25.2460   18.6432 H   0  0  0  0  0  0
  -29.4772  -25.5059   18.7958 H   0  0  0  0  0  0
  -32.0784  -17.2207   20.2179 H   0  0  0  0  0  0
  -31.4424  -20.7468   19.2474 H   0  0  0  0  0  0
  -32.7159  -19.6290   19.4112 H   0  0  0  0  0  0
  -28.9528  -15.2717   21.2284 H   0  0  0  0  0  0
  -29.4029  -22.3427   21.8916 H   0  0  0  0  0  0
  1 25  1  0  0  0
  1 30  2  0  0  0
  1 82  1  0  0  0
  2  3  1  0  0  0
  2 25  1  0  0  0
  2 85  1  0  0  0
  2 86  1  0  0  0
  3  4  1  0  0  0
  3 87  1  0  0  0
  3 88  1  0  0  0
  4  5  1  0  0  0
  4 89  1  0  0  0
  4 90  1  0  0  0
  5  6  1  0  0  0
  5 26  1  0  0  0
  5 91  1  0  0  0
  6 25  1  0  0  0
  6 92  1  0  0  0
  6 93  1  0  0  0
  7  8  2  0  0  0
  7 26  1  0  0  0
  7 29  1  0  0  0
  8  9  1  0  0  0
  8 22  1  0  0  0
  9 10  1  0  0  0
  9 27  2  0  0  0
 10 11  2  0  0  0
 10 15  1  0  0  0
 11 12  1  0  0  0
 11 94  1  0  0  0
 12 13  2  0  0  0
 12 95  1  0  0  0
 13 14  1  0  0  0
 13 31  1  0  0  0
 14 15  2  0  0  0
 14 96  1  0  0  0
 15 97  1  0  0  0
 16 17  2  0  0  0
 16 21  1  0  0  0
 16 31  1  0  0  0
 17 18  1  0  0  0
 17 98  1  0  0  0
 18 19  2  0  0  0
 18 99  1  0  0  0
 19 20  1  0  0  0
 19 24  1  0  0  0
 20 21  2  0  0  0
 20100  1  0  0  0
 21 23  1  0  0  0
 22 28  1  0  0  0
 22 32  2  0  0  0
 26 27  1  0  0  0
 28101  1  0  0  0
 28102  1  0  0  0
 29103  1  0  0  0
 29104  1  0  0  0
 33 34  1  0  0  0
 33 66  1  0  0  0
 33 70  2  0  0  0
 34 36  1  0  0  0
 34 59  1  0  0  0
 34105  1  0  0  0
 35 44  2  0  0  0
 35 45  1  0  0  0
 35 68  1  0  0  0
 36 56  1  0  0  0
 36106  1  0  0  0
 37 39  1  0  0  0
 37 47  1  0  0  0
 37 66  1  0  0  0
 37107  1  0  0  0
 38 43  2  0  0  0
 38 46  1  0  0  0
 38 47  1  0  0  0
 39 64  1  0  0  0
 39 67  2  0  0  0
 40 52  1  0  0  0
 40 53  2  0  0  0
 40 58  1  0  0  0
 41108  1  0  0  0
 41109  1  0  0  0
 41110  1  0  0  0
 41 48  1  0  0  0
 42 43  1  0  0  0
 42 66  1  0  0  0
 42111  1  0  0  0
 42112  1  0  0  0
 43 44  1  0  0  0
 44113  1  0  0  0
 45 46  2  0  0  0
 45114  1  0  0  0
 46115  1  0  0  0
 47116  1  0  0  0
 47117  1  0  0  0
 48 56  1  0  0  0
 48 65  1  0  0  0
 48118  1  0  0  0
 49 50  1  0  0  0
 49 53  1  0  0  0
 49 64  1  0  0  0
 49119  1  0  0  0
 50 51  1  0  0  0
 50120  1  0  0  0
 50121  1  0  0  0
 51 52  1  0  0  0
 51122  1  0  0  0
 51123  1  0  0  0
 52124  1  0  0  0
 52125  1  0  0  0
 53 54  1  0  0  0
 54 55  2  0  0  0
 54126  1  0  0  0
 55 57  1  0  0  0
 55127  1  0  0  0
 56 69  2  0  0  0
 57 58  2  0  0  0
 57128  1  0  0  0
 58129  1  0  0  0
 59 60  1  0  0  0
 59 61  1  0  0  0
 59 62  1  0  0  0
 60130  1  0  0  0
 60131  1  0  0  0
 60132  1  0  0  0
 61133  1  0  0  0
 61134  1  0  0  0
 61135  1  0  0  0
 62136  1  0  0  0
 62137  1  0  0  0
 62138  1  0  0  0
 63 65  1  0  0  0
 63139  1  0  0  0
 63140  1  0  0  0
 63141  1  0  0  0
 64142  1  0  0  0
 65143  1  0  0  0
 68 78  1  0  0  0
 71 72  2  0  0  0
 71 79  1  0  0  0
 71144  1  0  0  0
 72 80  1  0  0  0
 72 82  1  0  0  0
 73 79  1  0  0  0
 73 80  2  0  0  0
 73 81  1  0  0  0
 74 75  2  0  0  0
 74 76  1  0  0  0
 74145  1  0  0  0
 75 77  1  0  0  0
 75 84  1  0  0  0
 76 78  1  0  0  0
 76 83  2  0  0  0
 77 79  1  0  0  0
 77146  1  0  0  0
 77147  1  0  0  0
 78148  1  0  0  0
 78149  1  0  0  0
 80150  1  0  0  0
 81151  1  0  0  0
 81152  1  0  0  0
 82153  1  0  0  0
 84154  1  0  0  0
M  CHG  1  80   1
M  ISO  4   1 100  68 101  78 101  82 100
M  END
> <chiral flag>
0

> <version>
0

> <s_m_source_file>
/data/baiqing/PycharmProjects/Reinvent-master-3.2/result/LINK_invent/BTK/process_docking_weight1_custom_product_contain_oxygen_bond_distance_aromatic_linkinvent_7_9_3/rearranged_h_0179.sdf

> <i_m_source_file_index>
66

> <r_mmod_Potential_Energy-OPLS-2005>
-141.973083496094

> <r_mmod_Stretch_Energy-OPLS-2005>
46.6144409179688

> <r_mmod_Bend_Energy-OPLS-2005>
135.913131713867

> <r_mmod_Torsional_Energy-OPLS-2005>
200.353775024414

> <r_mmod_Improper_Torsional_Energy-OPLS-2005>
6.97635984420776

> <r_mmod_Van_der_Waal_Energy-OPLS-2005>
131.270156860352

> <r_mmod_Electrostatic_Energy-OPLS-2005>
-242.430526733398

> <r_mmod_Solvation_Energy-OPLS-2005>
-441.063171386719

> <b_mmod_Minimization_Converged-OPLS-2005>
0

> <r_mmod_RMS_Derivative-OPLS-2005>
0.753634333610535

$$$$
66
                    3D
 Structure written by MMmdl.
157165  0  0  1  0            999 V2000
  -30.6870  -14.5083   20.5500 C   0  0  0  0  0  0
  -30.4226  -12.3216   19.4275 C   0  0  0  0  0  0
  -29.4927  -12.5082   18.2104 C   0  0  0  0  0  0
  -28.0134  -12.3636   18.6236 C   0  0  0  0  0  0
  -27.6576  -13.2108   19.8744 C   0  0  2  0  0  0
  -28.7010  -13.0090   20.9964 C   0  0  0  0  0  0
  -25.2579  -13.8178   20.5690 C   0  0  0  0  0  0
  -24.1835  -13.0442   20.9173 C   0  0  0  0  0  0
  -24.6402  -11.6908   20.8748 C   0  0  0  0  0  0
  -23.9073  -10.4282   21.0418 C   0  0  0  0  0  0
  -24.3616   -9.4191   21.9190 C   0  0  0  0  0  0
  -23.6286   -8.2235   22.0760 C   0  0  0  0  0  0
  -22.4281   -8.0276   21.3539 C   0  0  0  0  0  0
  -21.9910   -9.0257   20.4653 C   0  0  0  0  0  0
  -22.7245  -10.2137   20.3060 C   0  0  0  0  0  0
  -21.6856   -6.0737   22.5273 C   0  0  0  0  0  0
  -21.4015   -6.5641   23.8201 C   0  0  0  0  0  0
  -21.3654   -5.6797   24.9164 C   0  0  0  0  0  0
  -21.6045   -4.3053   24.7227 C   0  0  0  0  0  0
  -21.8819   -3.8142   23.4346 C   0  0  0  0  0  0
  -21.9194   -4.6961   22.3401 C   0  0  0  0  0  0
  -22.7847  -13.5221   21.1829 C   0  0  0  0  0  0
  -22.1662   -4.2146   21.0974 F   0  0  0  0  0  0
  -21.5628   -3.4536   25.7742 F   0  0  0  0  0  0
  -30.0286  -13.3177   20.4382 N   0  0  0  0  0  0
  -26.3019  -12.9349   20.3392 N   0  0  0  0  0  0
  -25.9330  -11.6508   20.5793 N   0  0  0  0  0  0
  -22.0513  -12.8223   22.0416 N   0  0  0  0  0  0
  -25.4299  -15.1901   20.4071 N   0  0  0  0  0  0
  -31.8342  -14.6569   20.1179 O   0  0  0  0  0  0
  -21.6642   -6.8884   21.4237 O   0  0  0  0  0  0
  -22.3528  -14.5526   20.6686 O   0  0  0  0  0  0
  -24.6140  -31.8676   23.2077 C   0  0  0  0  0  0
  -25.9034  -32.4828   23.8369 C   0  0  1  0  0  0
  -27.2363  -27.4163   20.1078 C   0  0  0  0  0  0
  -25.5882  -33.8635   24.2304 N   0  0  0  0  0  0
  -23.4052  -30.4886   21.5497 C   0  0  2  0  0  0
  -24.8569  -28.9529   20.1147 C   0  0  0  0  0  0
  -22.7406  -29.4645   22.4981 C   0  0  0  0  0  0
  -18.0259  -28.1376   22.8468 C   0  0  0  0  0  0
  -24.1496  -36.7313   23.2640 C   0  0  0  0  0  0
  -25.9350  -30.8290   21.3634 C   0  0  0  0  0  0
  -26.0194  -29.4608   20.7099 C   0  0  0  0  0  0
  -27.2174  -28.7035   20.6992 C   0  0  0  0  0  0
  -26.0619  -26.9297   19.4990 C   0  0  0  0  0  0
  -24.8740  -27.6870   19.5024 C   0  0  0  0  0  0
  -23.6184  -29.8194   20.1653 C   0  0  0  0  0  0
  -25.4121  -36.3113   24.0335 C   0  0  1  0  0  0
  -20.5851  -28.3671   23.1311 C   0  0  2  0  0  0
  -20.6750  -26.9410   22.5421 C   0  0  0  0  0  0
  -19.5727  -26.6372   21.5217 C   0  0  0  0  0  0
  -18.1894  -26.7914   22.1621 C   0  0  0  0  0  0
  -19.1510  -28.8828   23.2870 C   0  0  0  0  0  0
  -18.9454  -30.1426   23.8902 C   0  0  0  0  0  0
  -17.6467  -30.6589   24.0564 C   0  0  0  0  0  0
  -25.9044  -34.9483   23.5117 C   0  0  0  0  0  0
  -16.5355  -29.9102   23.6344 C   0  0  0  0  0  0
  -16.7255  -28.6511   23.0374 C   0  0  0  0  0  0
  -26.4458  -31.6625   25.0713 C   0  0  0  0  0  0
  -25.3713  -31.3727   26.1454 C   0  0  0  0  0  0
  -27.0320  -30.3075   24.6111 C   0  0  0  0  0  0
  -27.6022  -32.4353   25.7492 C   0  0  0  0  0  0
  -27.5591  -37.1799   24.8460 C   0  0  0  0  0  0
  -21.4145  -29.3030   22.3718 N   0  0  0  0  0  0
  -26.4301  -37.3804   23.9404 N   0  0  0  0  0  0
  -24.6704  -31.0741   22.0995 N   0  0  0  0  0  0
  -23.4169  -28.8189   23.3022 O   0  0  0  0  0  0
  -28.3592  -26.6137   20.1308 O   0  0  0  0  0  0
  -26.5628  -34.8934   22.4696 O   0  0  0  0  0  0
  -23.5334  -32.1427   23.7469 O   0  0  0  0  0  0
  -30.2223  -19.4236   21.3465 C   0  0  0  0  0  0
  -31.4542  -18.8751   21.0394 C   0  0  0  0  0  0
  -30.2087  -16.9463   21.0368 C   0  0  0  0  0  0
  -29.7996  -20.7761   21.8215 C   0  0  0  0  0  0
  -28.7298  -24.1349   20.5044 C   0  0  0  0  0  0
  -33.9362  -18.8681   20.6421 C   0  0  0  0  0  0
  -28.2454  -25.5059   21.0591 C   0  0  0  0  0  0
  -28.4723  -22.8757   21.4049 C   0  0  1  0  0  0
  -26.9647  -22.5649   21.5754 C   0  0  0  0  0  0
  -31.4179  -17.4851   20.8369 N   0  0  0  0  0  0
  -32.6848  -19.5517   20.9491 N   0  0  0  0  0  0
  -29.9334  -15.5383   21.0041 N   0  0  0  0  0  0
  -29.1892  -21.6378   20.9794 N   0  0  0  0  0  0
  -29.9978  -21.0687   23.0023 O   0  0  0  0  0  0
  -29.2960  -24.0666   19.4070 O   0  0  0  0  0  0
  -26.3832  -22.3575   20.3918 F   0  0  0  0  0  0
  -26.7589  -21.4998   22.3541 F   0  0  0  0  0  0
  -28.9883  -18.1706   21.4119 S   0  0  0  0  0  0
  -31.4653  -12.4214   19.1236 H   0  0  0  0  0  0
  -30.3280  -11.3142   19.8351 H   0  0  0  0  0  0
  -29.7314  -11.7805   17.4334 H   0  0  0  0  0  0
  -29.6543  -13.4947   17.7726 H   0  0  0  0  0  0
  -27.8235  -11.3082   18.8221 H   0  0  0  0  0  0
  -27.3618  -12.6380   17.7912 H   0  0  0  0  0  0
  -27.6932  -14.2552   19.5620 H   0  0  0  0  0  0
  -28.6872  -11.9774   21.3510 H   0  0  0  0  0  0
  -28.4653  -13.6220   21.8685 H   0  0  0  0  0  0
  -25.2760   -9.5674   22.4766 H   0  0  0  0  0  0
  -23.9990   -7.4636   22.7479 H   0  0  0  0  0  0
  -21.0835   -8.8782   19.8958 H   0  0  0  0  0  0
  -22.3697  -10.9683   19.6168 H   0  0  0  0  0  0
  -21.2008   -7.6142   23.9704 H   0  0  0  0  0  0
  -21.1481   -6.0526   25.9071 H   0  0  0  0  0  0
  -22.0608   -2.7605   23.2849 H   0  0  0  0  0  0
  -22.4119  -11.9857   22.4763 H   0  0  0  0  0  0
  -21.1153  -13.1261   22.2672 H   0  0  0  0  0  0
  -24.6578  -15.8422   20.4933 H   0  0  0  0  0  0
  -26.2776  -15.6278   20.0711 H   0  0  0  0  0  0
  -26.7117  -32.5592   23.1148 H   0  0  0  0  0  0
  -25.0013  -33.9782   25.0426 H   0  0  0  0  0  0
  -22.6970  -31.3056   21.4103 H   0  0  0  0  0  0
  -23.3767  -35.9643   23.3307 H   0  0  0  0  0  0
  -24.3560  -36.8952   22.2055 H   0  0  0  0  0  0
  -23.7244  -37.6507   23.6670 H   0  0  0  0  0  0
  -26.0460  -31.5977   20.5954 H   0  0  0  0  0  0
  -26.8214  -30.8864   21.9852 H   0  0  0  0  0  0
  -28.1141  -29.0866   21.1655 H   0  0  0  0  0  0
  -26.0666  -25.9579   19.0290 H   0  0  0  0  0  0
  -23.9848  -27.2905   19.0300 H   0  0  0  0  0  0
  -23.7183  -30.5973   19.4050 H   0  0  0  0  0  0
  -22.7415  -29.2357   19.8770 H   0  0  0  0  0  0
  -25.1291  -36.1988   25.0830 H   0  0  0  0  0  0
  -20.9928  -28.3267   24.1441 H   0  0  0  0  0  0
  -20.5690  -26.2275   23.3610 H   0  0  0  0  0  0
  -21.6616  -26.7456   22.1197 H   0  0  0  0  0  0
  -19.6914  -25.6277   21.1252 H   0  0  0  0  0  0
  -19.6699  -27.3174   20.6747 H   0  0  0  0  0  0
  -17.4174  -26.6673   21.4016 H   0  0  0  0  0  0
  -18.0271  -26.0058   22.9016 H   0  0  0  0  0  0
  -19.7963  -30.7193   24.2312 H   0  0  0  0  0  0
  -17.5065  -31.6297   24.5132 H   0  0  0  0  0  0
  -15.5365  -30.3031   23.7656 H   0  0  0  0  0  0
  -15.8642  -28.0838   22.7127 H   0  0  0  0  0  0
  -24.5870  -30.7110   25.7750 H   0  0  0  0  0  0
  -24.8908  -32.2891   26.4921 H   0  0  0  0  0  0
  -25.8015  -30.8853   27.0226 H   0  0  0  0  0  0
  -26.2882  -29.6812   24.1178 H   0  0  0  0  0  0
  -27.4113  -29.7336   25.4581 H   0  0  0  0  0  0
  -27.8702  -30.4381   23.9259 H   0  0  0  0  0  0
  -27.2624  -33.3650   26.2091 H   0  0  0  0  0  0
  -28.3825  -32.6959   25.0313 H   0  0  0  0  0  0
  -28.0717  -31.8488   26.5409 H   0  0  0  0  0  0
  -28.2578  -38.0123   24.7548 H   0  0  0  0  0  0
  -28.1106  -36.2655   24.6231 H   0  0  0  0  0  0
  -27.2286  -37.1405   25.8851 H   0  0  0  0  0  0
  -20.9291  -29.8782   21.6976 H   0  0  0  0  0  0
  -26.0204  -38.2884   24.1435 H   0  0  0  0  0  0
  -34.7196  -19.5888   20.4033 H   0  0  0  0  0  0
  -33.8240  -18.2008   19.7856 H   0  0  0  0  0  0
  -34.2756  -18.2731   21.4920 H   0  0  0  0  0  0
  -28.8385  -25.7412   21.9433 H   0  0  0  0  0  0
  -27.2145  -25.3955   21.3948 H   0  0  0  0  0  0
  -28.8371  -23.1537   22.3954 H   0  0  0  0  0  0
  -26.4308  -23.3896   22.0498 H   0  0  0  0  0  0
  -32.7318  -20.5306   21.2223 H   0  0  0  0  0  0
  -29.0014  -15.2820   21.2865 H   0  0  0  0  0  0
  -29.0907  -21.3729   20.0103 H   0  0  0  0  0  0
  1 25  1  0  0  0
  1 30  2  0  0  0
  1 82  1  0  0  0
  2  3  1  0  0  0
  2 25  1  0  0  0
  2 89  1  0  0  0
  2 90  1  0  0  0
  3  4  1  0  0  0
  3 91  1  0  0  0
  3 92  1  0  0  0
  4  5  1  0  0  0
  4 93  1  0  0  0
  4 94  1  0  0  0
  5  6  1  0  0  0
  5 26  1  0  0  0
  5 95  1  0  0  0
  6 25  1  0  0  0
  6 96  1  0  0  0
  6 97  1  0  0  0
  7  8  2  0  0  0
  7 26  1  0  0  0
  7 29  1  0  0  0
  8  9  1  0  0  0
  8 22  1  0  0  0
  9 10  1  0  0  0
  9 27  2  0  0  0
 10 11  2  0  0  0
 10 15  1  0  0  0
 11 12  1  0  0  0
 11 98  1  0  0  0
 12 13  2  0  0  0
 12 99  1  0  0  0
 13 14  1  0  0  0
 13 31  1  0  0  0
 14 15  2  0  0  0
 14100  1  0  0  0
 15101  1  0  0  0
 16 17  2  0  0  0
 16 21  1  0  0  0
 16 31  1  0  0  0
 17 18  1  0  0  0
 17102  1  0  0  0
 18 19  2  0  0  0
 18103  1  0  0  0
 19 20  1  0  0  0
 19 24  1  0  0  0
 20 21  2  0  0  0
 20104  1  0  0  0
 21 23  1  0  0  0
 22 28  1  0  0  0
 22 32  2  0  0  0
 26 27  1  0  0  0
 28105  1  0  0  0
 28106  1  0  0  0
 29107  1  0  0  0
 29108  1  0  0  0
 33 34  1  0  0  0
 33 66  1  0  0  0
 33 70  2  0  0  0
 34 36  1  0  0  0
 34 59  1  0  0  0
 34109  1  0  0  0
 35 44  2  0  0  0
 35 45  1  0  0  0
 35 68  1  0  0  0
 36 56  1  0  0  0
 36110  1  0  0  0
 37 39  1  0  0  0
 37 47  1  0  0  0
 37 66  1  0  0  0
 37111  1  0  0  0
 38 43  2  0  0  0
 38 46  1  0  0  0
 38 47  1  0  0  0
 39 64  1  0  0  0
 39 67  2  0  0  0
 40 52  1  0  0  0
 40 53  2  0  0  0
 40 58  1  0  0  0
 41112  1  0  0  0
 41113  1  0  0  0
 41114  1  0  0  0
 41 48  1  0  0  0
 42 43  1  0  0  0
 42 66  1  0  0  0
 42115  1  0  0  0
 42116  1  0  0  0
 43 44  1  0  0  0
 44117  1  0  0  0
 45 46  2  0  0  0
 45118  1  0  0  0
 46119  1  0  0  0
 47120  1  0  0  0
 47121  1  0  0  0
 48 56  1  0  0  0
 48 65  1  0  0  0
 48122  1  0  0  0
 49 50  1  0  0  0
 49 53  1  0  0  0
 49 64  1  0  0  0
 49123  1  0  0  0
 50 51  1  0  0  0
 50124  1  0  0  0
 50125  1  0  0  0
 51 52  1  0  0  0
 51126  1  0  0  0
 51127  1  0  0  0
 52128  1  0  0  0
 52129  1  0  0  0
 53 54  1  0  0  0
 54 55  2  0  0  0
 54130  1  0  0  0
 55 57  1  0  0  0
 55131  1  0  0  0
 56 69  2  0  0  0
 57 58  2  0  0  0
 57132  1  0  0  0
 58133  1  0  0  0
 59 60  1  0  0  0
 59 61  1  0  0  0
 59 62  1  0  0  0
 60134  1  0  0  0
 60135  1  0  0  0
 60136  1  0  0  0
 61137  1  0  0  0
 61138  1  0  0  0
 61139  1  0  0  0
 62140  1  0  0  0
 62141  1  0  0  0
 62142  1  0  0  0
 63 65  1  0  0  0
 63143  1  0  0  0
 63144  1  0  0  0
 63145  1  0  0  0
 64146  1  0  0  0
 65147  1  0  0  0
 68 77  1  0  0  0
 71 72  2  0  0  0
 71 74  1  0  0  0
 71 88  1  0  0  0
 72 80  1  0  0  0
 72 81  1  0  0  0
 73 80  2  0  0  0
 73 82  1  0  0  0
 73 88  1  0  0  0
 74 83  1  0  0  0
 74 84  2  0  0  0
 75 77  1  0  0  0
 75 78  1  0  0  0
 75 85  2  0  0  0
 76 81  1  0  0  0
 76148  1  0  0  0
 76149  1  0  0  0
 76150  1  0  0  0
 77151  1  0  0  0
 77152  1  0  0  0
 78 79  1  0  0  0
 78 83  1  0  0  0
 78153  1  0  0  0
 79 86  1  0  0  0
 79 87  1  0  0  0
 79154  1  0  0  0
 81155  1  0  0  0
 82156  1  0  0  0
 83157  1  0  0  0
M  ISO  4   1 100  68 101  77 101  82 100
M  END
> <chiral flag>
0

> <version>
0

> <s_m_source_file>
/data/baiqing/PycharmProjects/Reinvent-master-3.2/result/LINK_invent/BTK/process_docking_weight1_custom_product_contain_oxygen_bond_distance_aromatic_linkinvent_7_9_3/rearranged_h_0179.sdf

> <i_m_source_file_index>
67

> <r_mmod_Potential_Energy-OPLS-2005>
-169.670822143555

> <r_mmod_Stretch_Energy-OPLS-2005>
45.1505737304688

> <r_mmod_Bend_Energy-OPLS-2005>
111.086181640625

> <r_mmod_Torsional_Energy-OPLS-2005>
258.159362792969

> <r_mmod_Improper_Torsional_Energy-OPLS-2005>
5.27613115310669

> <r_mmod_Van_der_Waal_Energy-OPLS-2005>
126.356742858887

> <r_mmod_Electrostatic_Energy-OPLS-2005>
-449.473541259766

> <r_mmod_Solvation_Energy-OPLS-2005>
-284.199462890625

> <b_mmod_Minimization_Converged-OPLS-2005>
0

> <r_mmod_RMS_Derivative-OPLS-2005>
3.59840273857117

$$$$
67
                    3D
 Structure written by MMmdl.
146154  0  0  1  0            999 V2000
  -30.4883  -15.0778   20.4012 C   0  0  0  0  0  0
  -30.4455  -12.6743   19.5097 C   0  0  0  0  0  0
  -29.5305  -12.5519   18.2672 C   0  0  0  0  0  0
  -28.0685  -12.3104   18.6862 C   0  0  0  0  0  0
  -27.6239  -13.2560   19.8306 C   0  0  2  0  0  0
  -28.6636  -13.3373   20.9689 C   0  0  0  0  0  0
  -25.2437  -13.8226   20.5703 C   0  0  0  0  0  0
  -24.1769  -13.0438   20.9238 C   0  0  0  0  0  0
  -24.6396  -11.6926   20.8752 C   0  0  0  0  0  0
  -23.9085  -10.4295   21.0403 C   0  0  0  0  0  0
  -24.3632   -9.4215   21.9187 C   0  0  0  0  0  0
  -23.6306   -8.2249   22.0760 C   0  0  0  0  0  0
  -22.4287   -8.0284   21.3550 C   0  0  0  0  0  0
  -21.9921   -9.0258   20.4649 C   0  0  0  0  0  0
  -22.7251  -10.2137   20.3058 C   0  0  0  0  0  0
  -21.6863   -6.0735   22.5279 C   0  0  0  0  0  0
  -21.4018   -6.5637   23.8212 C   0  0  0  0  0  0
  -21.3665   -5.6792   24.9177 C   0  0  0  0  0  0
  -21.6048   -4.3057   24.7225 C   0  0  0  0  0  0
  -21.8815   -3.8145   23.4343 C   0  0  0  0  0  0
  -21.9194   -4.6961   22.3400 C   0  0  0  0  0  0
  -22.7787  -13.5204   21.1895 C   0  0  0  0  0  0
  -22.1660   -4.2146   21.0980 F   0  0  0  0  0  0
  -21.5637   -3.4544   25.7739 F   0  0  0  0  0  0
  -29.9248  -13.7892   20.3635 N   0  0  0  0  0  0
  -26.2858  -12.9466   20.3210 N   0  0  0  0  0  0
  -25.9329  -11.6589   20.5714 N   0  0  0  0  0  0
  -22.0442  -12.8198   22.0451 N   0  0  0  0  0  0
  -25.4073  -15.1962   20.4104 N   0  0  0  0  0  0
  -31.7020  -15.1290   20.1606 O   0  0  0  0  0  0
  -21.6648   -6.8880   21.4244 O   0  0  0  0  0  0
  -22.3471  -14.5509   20.6733 O   0  0  0  0  0  0
  -24.6524  -31.8369   23.1816 C   0  0  0  0  0  0
  -25.9256  -32.4658   23.8238 C   0  0  1  0  0  0
  -27.2170  -27.0549   20.1692 C   0  0  0  0  0  0
  -25.5967  -33.8468   24.2147 N   0  0  0  0  0  0
  -23.4604  -30.4531   21.5289 C   0  0  2  0  0  0
  -24.9136  -28.8652   20.1135 C   0  0  0  0  0  0
  -22.7615  -29.4510   22.4836 C   0  0  0  0  0  0
  -18.0310  -28.1410   22.8466 C   0  0  0  0  0  0
  -24.1494  -36.7245   23.2640 C   0  0  0  0  0  0
  -26.0231  -30.6836   21.3948 C   0  0  0  0  0  0
  -26.0947  -29.2853   20.7408 C   0  0  0  0  0  0
  -27.2485  -28.3975   20.7515 C   0  0  0  0  0  0
  -26.0122  -26.7595   19.4964 C   0  0  0  0  0  0
  -24.8892  -27.6169   19.4743 C   0  0  0  0  0  0
  -23.6932  -29.7771   20.1516 C   0  0  0  0  0  0
  -25.4129  -36.3012   24.0303 C   0  0  1  0  0  0
  -20.5931  -28.3744   23.1222 C   0  0  2  0  0  0
  -20.6805  -26.9440   22.5408 C   0  0  0  0  0  0
  -19.5774  -26.6383   21.5224 C   0  0  0  0  0  0
  -18.1952  -26.7941   22.1629 C   0  0  0  0  0  0
  -19.1571  -28.8895   23.2831 C   0  0  0  0  0  0
  -18.9486  -30.1488   23.8857 C   0  0  0  0  0  0
  -17.6480  -30.6599   24.0562 C   0  0  0  0  0  0
  -25.9085  -34.9388   23.5038 C   0  0  0  0  0  0
  -16.5370  -29.9092   23.6339 C   0  0  0  0  0  0
  -16.7294  -28.6519   23.0344 C   0  0  0  0  0  0
  -26.4537  -31.6552   25.0716 C   0  0  0  0  0  0
  -25.3687  -31.3785   26.1387 C   0  0  0  0  0  0
  -27.0395  -30.2924   24.6365 C   0  0  0  0  0  0
  -27.6044  -32.4330   25.7519 C   0  0  0  0  0  0
  -27.5575  -37.1774   24.8458 C   0  0  0  0  0  0
  -21.4298  -29.3049   22.3582 N   0  0  0  0  0  0
  -26.4285  -37.3735   23.9401 N   0  0  0  0  0  0
  -24.7322  -31.0144   22.0896 N   0  0  0  0  0  0
  -23.4215  -28.8068   23.3031 O   0  0  0  0  0  0
  -28.2097  -25.9796   20.1976 O   0  0  0  0  0  0
  -26.5683  -34.8897   22.4625 O   0  0  0  0  0  0
  -23.5624  -32.1282   23.6988 O   0  0  0  0  0  0
  -29.5641  -20.6147   20.2830 C   0  0  0  0  0  0
  -30.8234  -19.9900   20.3611 C   0  0  0  0  0  0
  -29.7768  -17.8226   20.4229 C   0  0  0  0  0  0
  -27.8363  -24.6271   20.6866 C   0  0  0  0  0  0
  -29.2384  -22.2010   20.0077 C   0  0  0  0  0  0
  -28.1733  -23.2087   20.6732 C   0  0  0  0  0  0
  -30.9200  -18.5441   20.4392 N   0  0  0  0  0  0
  -32.0462  -20.6656   20.3569 N   0  0  0  0  0  0
  -29.6590  -16.2591   20.5001 N   0  0  0  0  0  0
  -29.9753  -22.7259   19.1684 O   0  0  0  0  0  0
  -27.3603  -22.4749   21.4489 O   0  0  0  0  0  0
  -28.4442  -19.1487   20.3314 S   0  0  0  0  0  0
  -31.4732  -12.8560   19.1928 H   0  0  0  0  0  0
  -30.4700  -11.7374   20.0684 H   0  0  0  0  0  0
  -29.8735  -11.7447   17.6188 H   0  0  0  0  0  0
  -29.5953  -13.4674   17.6772 H   0  0  0  0  0  0
  -27.9892  -11.2741   19.0151 H   0  0  0  0  0  0
  -27.4047  -12.4094   17.8263 H   0  0  0  0  0  0
  -27.5681  -14.2449   19.3754 H   0  0  0  0  0  0
  -28.7825  -12.3755   21.4696 H   0  0  0  0  0  0
  -28.3369  -14.0455   21.7323 H   0  0  0  0  0  0
  -25.2771   -9.5702   22.4767 H   0  0  0  0  0  0
  -24.0017   -7.4643   22.7476 H   0  0  0  0  0  0
  -21.0856   -8.8768   19.8952 H   0  0  0  0  0  0
  -22.3699  -10.9675   19.6169 H   0  0  0  0  0  0
  -21.2005   -7.6145   23.9717 H   0  0  0  0  0  0
  -21.1499   -6.0524   25.9083 H   0  0  0  0  0  0
  -22.0587   -2.7604   23.2848 H   0  0  0  0  0  0
  -22.4057  -11.9868   22.4848 H   0  0  0  0  0  0
  -21.1053  -13.1218   22.2642 H   0  0  0  0  0  0
  -24.6267  -15.8371   20.5055 H   0  0  0  0  0  0
  -26.2288  -15.6360   20.0177 H   0  0  0  0  0  0
  -26.7322  -32.5237   23.0959 H   0  0  0  0  0  0
  -25.0060  -33.9569   25.0256 H   0  0  0  0  0  0
  -22.7664  -31.2805   21.3672 H   0  0  0  0  0  0
  -23.3757  -35.9577   23.3291 H   0  0  0  0  0  0
  -24.3574  -36.8898   22.2059 H   0  0  0  0  0  0
  -23.7252  -37.6433   23.6696 H   0  0  0  0  0  0
  -26.1880  -31.4312   20.6179 H   0  0  0  0  0  0
  -26.8899  -30.7381   22.0416 H   0  0  0  0  0  0
  -28.1450  -28.7142   21.2657 H   0  0  0  0  0  0
  -25.9179  -25.7991   19.0095 H   0  0  0  0  0  0
  -23.9904  -27.2880   18.9705 H   0  0  0  0  0  0
  -23.8374  -30.5489   19.3948 H   0  0  0  0  0  0
  -22.8060  -29.2237   19.8393 H   0  0  0  0  0  0
  -25.1326  -36.1826   25.0797 H   0  0  0  0  0  0
  -21.0014  -28.3348   24.1347 H   0  0  0  0  0  0
  -20.5724  -26.2358   23.3640 H   0  0  0  0  0  0
  -21.6670  -26.7452   22.1192 H   0  0  0  0  0  0
  -19.6944  -25.6285   21.1278 H   0  0  0  0  0  0
  -19.6718  -27.3178   20.6744 H   0  0  0  0  0  0
  -17.4229  -26.6679   21.4026 H   0  0  0  0  0  0
  -18.0340  -26.0099   22.9042 H   0  0  0  0  0  0
  -19.7961  -30.7320   24.2208 H   0  0  0  0  0  0
  -17.5031  -31.6272   24.5181 H   0  0  0  0  0  0
  -15.5370  -30.2987   23.7685 H   0  0  0  0  0  0
  -15.8693  -28.0839   22.7061 H   0  0  0  0  0  0
  -24.5860  -30.7144   25.7701 H   0  0  0  0  0  0
  -24.8884  -32.2989   26.4723 H   0  0  0  0  0  0
  -25.7936  -30.9005   27.0222 H   0  0  0  0  0  0
  -26.3028  -29.6638   24.1350 H   0  0  0  0  0  0
  -27.3925  -29.7251   25.4986 H   0  0  0  0  0  0
  -27.8980  -30.4110   23.9752 H   0  0  0  0  0  0
  -27.2610  -33.3646   26.2030 H   0  0  0  0  0  0
  -28.3905  -32.6866   25.0395 H   0  0  0  0  0  0
  -28.0653  -31.8497   26.5502 H   0  0  0  0  0  0
  -28.2586  -38.0075   24.7498 H   0  0  0  0  0  0
  -28.1075  -36.2602   24.6291 H   0  0  0  0  0  0
  -27.2291  -37.1431   25.8861 H   0  0  0  0  0  0
  -20.9537  -29.8732   21.6716 H   0  0  0  0  0  0
  -26.0146  -38.2799   24.1404 H   0  0  0  0  0  0
  -26.9798  -24.8236   21.3170 H   0  0  0  0  0  0
  -32.0689  -21.6257   20.0270 H   0  0  0  0  0  0
  -32.8940  -20.1428   20.1658 H   0  0  0  0  0  0
  -28.6990  -15.9810   20.6233 H   0  0  0  0  0  0
  -26.7351  -23.0631   21.8491 H   0  0  0  0  0  0
  1 25  1  0  0  0
  1 30  2  0  0  0
  1 79  1  0  0  0
  2  3  1  0  0  0
  2 25  1  0  0  0
  2 83  1  0  0  0
  2 84  1  0  0  0
  3  4  1  0  0  0
  3 85  1  0  0  0
  3 86  1  0  0  0
  4  5  1  0  0  0
  4 87  1  0  0  0
  4 88  1  0  0  0
  5  6  1  0  0  0
  5 26  1  0  0  0
  5 89  1  0  0  0
  6 25  1  0  0  0
  6 90  1  0  0  0
  6 91  1  0  0  0
  7  8  2  0  0  0
  7 26  1  0  0  0
  7 29  1  0  0  0
  8  9  1  0  0  0
  8 22  1  0  0  0
  9 10  1  0  0  0
  9 27  2  0  0  0
 10 11  2  0  0  0
 10 15  1  0  0  0
 11 12  1  0  0  0
 11 92  1  0  0  0
 12 13  2  0  0  0
 12 93  1  0  0  0
 13 14  1  0  0  0
 13 31  1  0  0  0
 14 15  2  0  0  0
 14 94  1  0  0  0
 15 95  1  0  0  0
 16 17  2  0  0  0
 16 21  1  0  0  0
 16 31  1  0  0  0
 17 18  1  0  0  0
 17 96  1  0  0  0
 18 19  2  0  0  0
 18 97  1  0  0  0
 19 20  1  0  0  0
 19 24  1  0  0  0
 20 21  2  0  0  0
 20 98  1  0  0  0
 21 23  1  0  0  0
 22 28  1  0  0  0
 22 32  2  0  0  0
 26 27  1  0  0  0
 28 99  1  0  0  0
 28100  1  0  0  0
 29101  1  0  0  0
 29102  1  0  0  0
 33 34  1  0  0  0
 33 66  1  0  0  0
 33 70  2  0  0  0
 34 36  1  0  0  0
 34 59  1  0  0  0
 34103  1  0  0  0
 35 44  2  0  0  0
 35 45  1  0  0  0
 35 68  1  0  0  0
 36 56  1  0  0  0
 36104  1  0  0  0
 37 39  1  0  0  0
 37 47  1  0  0  0
 37 66  1  0  0  0
 37105  1  0  0  0
 38 43  2  0  0  0
 38 46  1  0  0  0
 38 47  1  0  0  0
 39 64  1  0  0  0
 39 67  2  0  0  0
 40 52  1  0  0  0
 40 53  2  0  0  0
 40 58  1  0  0  0
 41106  1  0  0  0
 41107  1  0  0  0
 41108  1  0  0  0
 41 48  1  0  0  0
 42 43  1  0  0  0
 42 66  1  0  0  0
 42109  1  0  0  0
 42110  1  0  0  0
 43 44  1  0  0  0
 44111  1  0  0  0
 45 46  2  0  0  0
 45112  1  0  0  0
 46113  1  0  0  0
 47114  1  0  0  0
 47115  1  0  0  0
 48 56  1  0  0  0
 48 65  1  0  0  0
 48116  1  0  0  0
 49 50  1  0  0  0
 49 53  1  0  0  0
 49 64  1  0  0  0
 49117  1  0  0  0
 50 51  1  0  0  0
 50118  1  0  0  0
 50119  1  0  0  0
 51 52  1  0  0  0
 51120  1  0  0  0
 51121  1  0  0  0
 52122  1  0  0  0
 52123  1  0  0  0
 53 54  1  0  0  0
 54 55  2  0  0  0
 54124  1  0  0  0
 55 57  1  0  0  0
 55125  1  0  0  0
 56 69  2  0  0  0
 57 58  2  0  0  0
 57126  1  0  0  0
 58127  1  0  0  0
 59 60  1  0  0  0
 59 61  1  0  0  0
 59 62  1  0  0  0
 60128  1  0  0  0
 60129  1  0  0  0
 60130  1  0  0  0
 61131  1  0  0  0
 61132  1  0  0  0
 61133  1  0  0  0
 62134  1  0  0  0
 62135  1  0  0  0
 62136  1  0  0  0
 63 65  1  0  0  0
 63137  1  0  0  0
 63138  1  0  0  0
 63139  1  0  0  0
 64140  1  0  0  0
 65141  1  0  0  0
 68 74  1  0  0  0
 71 72  2  0  0  0
 71 75  1  0  0  0
 71 82  1  0  0  0
 72 77  1  0  0  0
 72 78  1  0  0  0
 73 77  2  0  0  0
 73 79  1  0  0  0
 73 82  1  0  0  0
 74 76  2  0  0  0
 74142  1  0  0  0
 75 76  1  0  0  0
 75 80  2  0  0  0
 76 81  1  0  0  0
 78143  1  0  0  0
 78144  1  0  0  0
 79145  1  0  0  0
 81146  1  0  0  0
M  ISO  4   1 100  68 101  74 101  79 100
M  END
> <chiral flag>
0

> <version>
0

> <s_m_source_file>
/data/baiqing/PycharmProjects/Reinvent-master-3.2/result/LINK_invent/BTK/process_docking_weight1_custom_product_contain_oxygen_bond_distance_aromatic_linkinvent_7_9_3/rearranged_h_0179.sdf

> <i_m_source_file_index>
68

> <r_mmod_Potential_Energy-OPLS-2005>
718.140014648438

> <r_mmod_Stretch_Energy-OPLS-2005>
323.909973144531

> <r_mmod_Bend_Energy-OPLS-2005>
399.574829101562

> <r_mmod_Torsional_Energy-OPLS-2005>
215.747268676758

> <r_mmod_Improper_Torsional_Energy-OPLS-2005>
8.14681816101074

> <r_mmod_Van_der_Waal_Energy-OPLS-2005>
108.499015808105

> <r_mmod_Electrostatic_Energy-OPLS-2005>
-374.875274658203

> <r_mmod_Solvation_Energy-OPLS-2005>
-253.550384521484

> <b_mmod_Minimization_Converged-OPLS-2005>
0

> <r_mmod_RMS_Derivative-OPLS-2005>
1.06946301460266

$$$$
68
                    3D
 Structure written by MMmdl.
148156  0  0  1  0            999 V2000
  -30.5874  -14.7461   20.4688 C   0  0  0  0  0  0
  -30.4429  -12.4533   19.4743 C   0  0  0  0  0  0
  -29.5151  -12.5099   18.2387 C   0  0  0  0  0  0
  -28.0403  -12.3334   18.6507 C   0  0  0  0  0  0
  -27.6483  -13.2258   19.8577 C   0  0  2  0  0  0
  -28.6919  -13.1324   20.9933 C   0  0  0  0  0  0
  -25.2547  -13.8186   20.5692 C   0  0  0  0  0  0
  -24.1824  -13.0442   20.9200 C   0  0  0  0  0  0
  -24.6401  -11.6916   20.8743 C   0  0  0  0  0  0
  -23.9076  -10.4295   21.0413 C   0  0  0  0  0  0
  -24.3625   -9.4209   21.9189 C   0  0  0  0  0  0
  -23.6296   -8.2246   22.0759 C   0  0  0  0  0  0
  -22.4277   -8.0287   21.3551 C   0  0  0  0  0  0
  -21.9916   -9.0261   20.4652 C   0  0  0  0  0  0
  -22.7247  -10.2137   20.3062 C   0  0  0  0  0  0
  -21.6852   -6.0741   22.5278 C   0  0  0  0  0  0
  -21.4013   -6.5644   23.8213 C   0  0  0  0  0  0
  -21.3655   -5.6796   24.9174 C   0  0  0  0  0  0
  -21.6045   -4.3060   24.7223 C   0  0  0  0  0  0
  -21.8820   -3.8152   23.4345 C   0  0  0  0  0  0
  -21.9190   -4.6969   22.3401 C   0  0  0  0  0  0
  -22.7843  -13.5231   21.1857 C   0  0  0  0  0  0
  -22.1661   -4.2156   21.0980 F   0  0  0  0  0  0
  -21.5625   -3.4544   25.7736 F   0  0  0  0  0  0
  -29.9983  -13.4995   20.4258 N   0  0  0  0  0  0
  -26.2969  -12.9379   20.3294 N   0  0  0  0  0  0
  -25.9332  -11.6529   20.5753 N   0  0  0  0  0  0
  -22.0483  -12.8224   22.0410 N   0  0  0  0  0  0
  -25.4261  -15.1909   20.4117 N   0  0  0  0  0  0
  -31.7526  -14.8846   20.0801 O   0  0  0  0  0  0
  -21.6639   -6.8886   21.4244 O   0  0  0  0  0  0
  -22.3532  -14.5539   20.6703 O   0  0  0  0  0  0
  -24.6324  -31.8534   23.1974 C   0  0  0  0  0  0
  -25.9144  -32.4742   23.8321 C   0  0  1  0  0  0
  -27.2247  -27.2482   20.1240 C   0  0  0  0  0  0
  -25.5931  -33.8545   24.2237 N   0  0  0  0  0  0
  -23.4296  -30.4765   21.5400 C   0  0  2  0  0  0
  -24.8770  -28.9219   20.1088 C   0  0  0  0  0  0
  -22.7502  -29.4596   22.4892 C   0  0  0  0  0  0
  -18.0288  -28.1390   22.8472 C   0  0  0  0  0  0
  -24.1488  -36.7276   23.2637 C   0  0  0  0  0  0
  -25.9771  -30.7601   21.3819 C   0  0  0  0  0  0
  -26.0478  -29.3829   20.7216 C   0  0  0  0  0  0
  -27.2189  -28.5576   20.7198 C   0  0  0  0  0  0
  -26.0256  -26.8606   19.4801 C   0  0  0  0  0  0
  -24.8726  -27.6696   19.4790 C   0  0  0  0  0  0
  -23.6484  -29.8099   20.1564 C   0  0  0  0  0  0
  -25.4114  -36.3060   24.0322 C   0  0  1  0  0  0
  -20.5891  -28.3705   23.1251 C   0  0  2  0  0  0
  -20.6775  -26.9417   22.5399 C   0  0  0  0  0  0
  -19.5755  -26.6384   21.5200 C   0  0  0  0  0  0
  -18.1935  -26.7930   22.1613 C   0  0  0  0  0  0
  -19.1541  -28.8865   23.2857 C   0  0  0  0  0  0
  -18.9468  -30.1462   23.8882 C   0  0  0  0  0  0
  -17.6471  -30.6592   24.0564 C   0  0  0  0  0  0
  -25.9063  -34.9432   23.5087 C   0  0  0  0  0  0
  -16.5361  -29.9089   23.6337 C   0  0  0  0  0  0
  -16.7276  -28.6509   23.0351 C   0  0  0  0  0  0
  -26.4506  -31.6583   25.0728 C   0  0  0  0  0  0
  -25.3718  -31.3744   26.1443 C   0  0  0  0  0  0
  -27.0370  -30.2993   24.6257 C   0  0  0  0  0  0
  -27.6054  -32.4340   25.7496 C   0  0  0  0  0  0
  -27.5583  -37.1777   24.8450 C   0  0  0  0  0  0
  -21.4207  -29.3054   22.3638 N   0  0  0  0  0  0
  -26.4280  -37.3770   23.9423 N   0  0  0  0  0  0
  -24.6986  -31.0482   22.0958 N   0  0  0  0  0  0
  -23.4191  -28.8127   23.2995 O   0  0  0  0  0  0
  -28.3421  -26.3769   20.2091 O   0  0  0  0  0  0
  -26.5639  -34.8915   22.4659 O   0  0  0  0  0  0
  -23.5472  -32.1366   23.7261 O   0  0  0  0  0  0
  -29.4933  -19.8884   20.6193 C   0  0  0  0  0  0
  -30.2571  -19.3454   19.5881 C   0  0  0  0  0  0
  -29.8507  -17.2864   20.6418 C   0  0  0  0  0  0
  -29.1238  -21.3144   21.1502 C   0  0  0  0  0  0
  -28.7275  -23.7845   20.7600 C   0  0  0  0  0  0
  -28.3574  -24.9433   19.7154 C   0  0  0  0  0  0
  -30.4304  -17.9259   19.6068 N   0  0  0  0  0  0
  -30.8806  -20.0515   18.5552 N   0  0  0  0  0  0
  -29.7939  -15.8165   20.8511 N   0  0  0  0  0  0
  -28.9595  -22.4583   20.3670 N   0  0  0  0  0  0
  -28.9533  -21.3770   22.3739 O   0  0  0  0  0  0
  -28.7924  -24.1384   21.9434 O   0  0  0  0  0  0
  -29.0015  -18.5033   21.6541 S   0  0  0  0  0  0
  -31.4820  -12.5879   19.1691 H   0  0  0  0  0  0
  -30.3982  -11.4695   19.9442 H   0  0  0  0  0  0
  -29.7959  -11.7379   17.5208 H   0  0  0  0  0  0
  -29.6414  -13.4645   17.7255 H   0  0  0  0  0  0
  -27.8955  -11.2832   18.9079 H   0  0  0  0  0  0
  -27.3830  -12.5302   17.8031 H   0  0  0  0  0  0
  -27.6512  -14.2519   19.4898 H   0  0  0  0  0  0
  -28.7259  -12.1213   21.4024 H   0  0  0  0  0  0
  -28.4198  -13.7826   21.8259 H   0  0  0  0  0  0
  -25.2773   -9.5677   22.4762 H   0  0  0  0  0  0
  -23.9998   -7.4641   22.7484 H   0  0  0  0  0  0
  -21.0845   -8.8789   19.8960 H   0  0  0  0  0  0
  -22.3715  -10.9681   19.6171 H   0  0  0  0  0  0
  -21.2009   -7.6153   23.9717 H   0  0  0  0  0  0
  -21.1473   -6.0528   25.9076 H   0  0  0  0  0  0
  -22.0600   -2.7614   23.2844 H   0  0  0  0  0  0
  -22.4089  -11.9882   22.4801 H   0  0  0  0  0  0
  -21.1101  -13.1256   22.2616 H   0  0  0  0  0  0
  -24.6589  -15.8449   20.5240 H   0  0  0  0  0  0
  -26.2677  -15.6270   20.0575 H   0  0  0  0  0  0
  -26.7205  -32.5377   23.1053 H   0  0  0  0  0  0
  -25.0060  -33.9678   25.0372 H   0  0  0  0  0  0
  -22.7278  -31.3002   21.3923 H   0  0  0  0  0  0
  -23.3763  -35.9591   23.3270 H   0  0  0  0  0  0
  -24.3584  -36.8937   22.2056 H   0  0  0  0  0  0
  -23.7226  -37.6459   23.6691 H   0  0  0  0  0  0
  -26.1224  -31.5211   20.6140 H   0  0  0  0  0  0
  -26.8521  -30.8047   22.0187 H   0  0  0  0  0  0
  -28.1135  -28.9068   21.2165 H   0  0  0  0  0  0
  -25.9219  -25.9145   18.9777 H   0  0  0  0  0  0
  -23.9755  -27.3118   18.9925 H   0  0  0  0  0  0
  -23.7717  -30.5860   19.4003 H   0  0  0  0  0  0
  -22.7674  -29.2423   19.8517 H   0  0  0  0  0  0
  -25.1291  -36.1894   25.0812 H   0  0  0  0  0  0
  -20.9984  -28.3294   24.1370 H   0  0  0  0  0  0
  -20.5666  -26.2317   23.3609 H   0  0  0  0  0  0
  -21.6646  -26.7434   22.1200 H   0  0  0  0  0  0
  -19.6924  -25.6291   21.1238 H   0  0  0  0  0  0
  -19.6702  -27.3187   20.6723 H   0  0  0  0  0  0
  -17.4200  -26.6662   21.4022 H   0  0  0  0  0  0
  -18.0353  -26.0075   22.9016 H   0  0  0  0  0  0
  -19.7946  -30.7275   24.2244 H   0  0  0  0  0  0
  -17.5030  -31.6271   24.5168 H   0  0  0  0  0  0
  -15.5364  -30.2992   23.7679 H   0  0  0  0  0  0
  -15.8670  -28.0835   22.7073 H   0  0  0  0  0  0
  -24.5891  -30.7101   25.7761 H   0  0  0  0  0  0
  -24.8915  -32.2917   26.4857 H   0  0  0  0  0  0
  -25.8020  -30.8918   27.0228 H   0  0  0  0  0  0
  -26.2975  -29.6718   24.1270 H   0  0  0  0  0  0
  -27.4016  -29.7286   25.4808 H   0  0  0  0  0  0
  -27.8862  -30.4249   23.9538 H   0  0  0  0  0  0
  -27.2659  -33.3649   26.2049 H   0  0  0  0  0  0
  -28.3871  -32.6891   25.0328 H   0  0  0  0  0  0
  -28.0717  -31.8486   26.5430 H   0  0  0  0  0  0
  -28.2546  -38.0127   24.7580 H   0  0  0  0  0  0
  -28.1137  -36.2666   24.6171 H   0  0  0  0  0  0
  -27.2314  -37.1291   25.8851 H   0  0  0  0  0  0
  -20.9393  -29.8779   21.6844 H   0  0  0  0  0  0
  -26.0149  -38.2827   24.1488 H   0  0  0  0  0  0
  -27.4342  -24.6270   19.2434 H   0  0  0  0  0  0
  -29.1046  -24.8992   18.9232 H   0  0  0  0  0  0
  -31.0390  -21.0499   18.6299 H   0  0  0  0  0  0
  -31.5621  -19.5728   17.9760 H   0  0  0  0  0  0
  -28.9527  -15.5168   21.3178 H   0  0  0  0  0  0
  -28.9839  -22.3025   19.3714 H   0  0  0  0  0  0
  1 25  1  0  0  0
  1 30  2  0  0  0
  1 79  1  0  0  0
  2  3  1  0  0  0
  2 25  1  0  0  0
  2 84  1  0  0  0
  2 85  1  0  0  0
  3  4  1  0  0  0
  3 86  1  0  0  0
  3 87  1  0  0  0
  4  5  1  0  0  0
  4 88  1  0  0  0
  4 89  1  0  0  0
  5  6  1  0  0  0
  5 26  1  0  0  0
  5 90  1  0  0  0
  6 25  1  0  0  0
  6 91  1  0  0  0
  6 92  1  0  0  0
  7  8  2  0  0  0
  7 26  1  0  0  0
  7 29  1  0  0  0
  8  9  1  0  0  0
  8 22  1  0  0  0
  9 10  1  0  0  0
  9 27  2  0  0  0
 10 11  2  0  0  0
 10 15  1  0  0  0
 11 12  1  0  0  0
 11 93  1  0  0  0
 12 13  2  0  0  0
 12 94  1  0  0  0
 13 14  1  0  0  0
 13 31  1  0  0  0
 14 15  2  0  0  0
 14 95  1  0  0  0
 15 96  1  0  0  0
 16 17  2  0  0  0
 16 21  1  0  0  0
 16 31  1  0  0  0
 17 18  1  0  0  0
 17 97  1  0  0  0
 18 19  2  0  0  0
 18 98  1  0  0  0
 19 20  1  0  0  0
 19 24  1  0  0  0
 20 21  2  0  0  0
 20 99  1  0  0  0
 21 23  1  0  0  0
 22 28  1  0  0  0
 22 32  2  0  0  0
 26 27  1  0  0  0
 28100  1  0  0  0
 28101  1  0  0  0
 29102  1  0  0  0
 29103  1  0  0  0
 33 34  1  0  0  0
 33 66  1  0  0  0
 33 70  2  0  0  0
 34 36  1  0  0  0
 34 59  1  0  0  0
 34104  1  0  0  0
 35 44  2  0  0  0
 35 45  1  0  0  0
 35 68  1  0  0  0
 36 56  1  0  0  0
 36105  1  0  0  0
 37 39  1  0  0  0
 37 47  1  0  0  0
 37 66  1  0  0  0
 37106  1  0  0  0
 38 43  2  0  0  0
 38 46  1  0  0  0
 38 47  1  0  0  0
 39 64  1  0  0  0
 39 67  2  0  0  0
 40 52  1  0  0  0
 40 53  2  0  0  0
 40 58  1  0  0  0
 41107  1  0  0  0
 41108  1  0  0  0
 41109  1  0  0  0
 41 48  1  0  0  0
 42 43  1  0  0  0
 42 66  1  0  0  0
 42110  1  0  0  0
 42111  1  0  0  0
 43 44  1  0  0  0
 44112  1  0  0  0
 45 46  2  0  0  0
 45113  1  0  0  0
 46114  1  0  0  0
 47115  1  0  0  0
 47116  1  0  0  0
 48 56  1  0  0  0
 48 65  1  0  0  0
 48117  1  0  0  0
 49 50  1  0  0  0
 49 53  1  0  0  0
 49 64  1  0  0  0
 49118  1  0  0  0
 50 51  1  0  0  0
 50119  1  0  0  0
 50120  1  0  0  0
 51 52  1  0  0  0
 51121  1  0  0  0
 51122  1  0  0  0
 52123  1  0  0  0
 52124  1  0  0  0
 53 54  1  0  0  0
 54 55  2  0  0  0
 54125  1  0  0  0
 55 57  1  0  0  0
 55126  1  0  0  0
 56 69  2  0  0  0
 57 58  2  0  0  0
 57127  1  0  0  0
 58128  1  0  0  0
 59 60  1  0  0  0
 59 61  1  0  0  0
 59 62  1  0  0  0
 60129  1  0  0  0
 60130  1  0  0  0
 60131  1  0  0  0
 61132  1  0  0  0
 61133  1  0  0  0
 61134  1  0  0  0
 62135  1  0  0  0
 62136  1  0  0  0
 62137  1  0  0  0
 63 65  1  0  0  0
 63138  1  0  0  0
 63139  1  0  0  0
 63140  1  0  0  0
 64141  1  0  0  0
 65142  1  0  0  0
 68 76  1  0  0  0
 71 72  2  0  0  0
 71 74  1  0  0  0
 71 83  1  0  0  0
 72 77  1  0  0  0
 72 78  1  0  0  0
 73 77  2  0  0  0
 73 79  1  0  0  0
 73 83  1  0  0  0
 74 80  1  0  0  0
 74 81  2  0  0  0
 75 76  1  0  0  0
 75 80  1  0  0  0
 75 82  2  0  0  0
 76143  1  0  0  0
 76144  1  0  0  0
 78145  1  0  0  0
 78146  1  0  0  0
 79147  1  0  0  0
 80148  1  0  0  0
M  ISO  4   1 100  68 101  76 101  79 100
M  END
> <chiral flag>
0

> <version>
0

> <s_m_source_file>
/data/baiqing/PycharmProjects/Reinvent-master-3.2/result/LINK_invent/BTK/process_docking_weight1_custom_product_contain_oxygen_bond_distance_aromatic_linkinvent_7_9_3/rearranged_h_0179.sdf

> <i_m_source_file_index>
69

> <r_mmod_Potential_Energy-OPLS-2005>
-27.9518127441406

> <r_mmod_Stretch_Energy-OPLS-2005>
123.279624938965

> <r_mmod_Bend_Energy-OPLS-2005>
192.366027832031

> <r_mmod_Torsional_Energy-OPLS-2005>
222.709701538086

> <r_mmod_Improper_Torsional_Energy-OPLS-2005>
5.82036733627319

> <r_mmod_Van_der_Waal_Energy-OPLS-2005>
124.813949584961

> <r_mmod_Electrostatic_Energy-OPLS-2005>
-464.950134277344

> <r_mmod_Solvation_Energy-OPLS-2005>
-317.956726074219

> <b_mmod_Minimization_Converged-OPLS-2005>
0

> <r_mmod_RMS_Derivative-OPLS-2005>
0.753529608249664

$$$$
69
                    3D
 Structure written by MMmdl.
162170  0  0  1  0            999 V2000
  -30.6731  -14.4698   20.5022 C   0  0  0  0  0  0
  -30.4266  -12.2802   19.4397 C   0  0  0  0  0  0
  -29.5047  -12.4528   18.2138 C   0  0  0  0  0  0
  -28.0170  -12.3468   18.6195 C   0  0  0  0  0  0
  -27.6557  -13.1924   19.8724 C   0  0  2  0  0  0
  -28.6972  -12.9943   20.9980 C   0  0  0  0  0  0
  -25.2571  -13.8141   20.5683 C   0  0  0  0  0  0
  -24.1813  -13.0432   20.9177 C   0  0  0  0  0  0
  -24.6350  -11.6894   20.8745 C   0  0  0  0  0  0
  -23.9025  -10.4286   21.0417 C   0  0  0  0  0  0
  -24.3592   -9.4203   21.9187 C   0  0  0  0  0  0
  -23.6286   -8.2231   22.0755 C   0  0  0  0  0  0
  -22.4257   -8.0274   21.3548 C   0  0  0  0  0  0
  -21.9887   -9.0246   20.4653 C   0  0  0  0  0  0
  -22.7202  -10.2130   20.3060 C   0  0  0  0  0  0
  -21.6849   -6.0723   22.5267 C   0  0  0  0  0  0
  -21.4008   -6.5636   23.8199 C   0  0  0  0  0  0
  -21.3655   -5.6785   24.9160 C   0  0  0  0  0  0
  -21.6044   -4.3048   24.7211 C   0  0  0  0  0  0
  -21.8823   -3.8147   23.4331 C   0  0  0  0  0  0
  -21.9193   -4.6957   22.3385 C   0  0  0  0  0  0
  -22.7834  -13.5244   21.1843 C   0  0  0  0  0  0
  -22.1652   -4.2146   21.0962 F   0  0  0  0  0  0
  -21.5644   -3.4537   25.7724 F   0  0  0  0  0  0
  -30.0305  -13.2773   20.4424 N   0  0  0  0  0  0
  -26.2983  -12.9260   20.3356 N   0  0  0  0  0  0
  -25.9266  -11.6446   20.5775 N   0  0  0  0  0  0
  -22.0474  -12.8247   22.0412 N   0  0  0  0  0  0
  -25.4338  -15.1867   20.4108 N   0  0  0  0  0  0
  -31.8375  -14.6394   20.1309 O   0  0  0  0  0  0
  -21.6631   -6.8867   21.4229 O   0  0  0  0  0  0
  -22.3516  -14.5542   20.6682 O   0  0  0  0  0  0
  -24.6113  -31.8692   23.2118 C   0  0  0  0  0  0
  -25.9017  -32.4829   23.8412 C   0  0  1  0  0  0
  -27.2407  -27.4678   20.0949 C   0  0  0  0  0  0
  -25.5888  -33.8623   24.2346 N   0  0  0  0  0  0
  -23.3979  -30.4928   21.5506 C   0  0  2  0  0  0
  -24.8456  -28.9634   20.1128 C   0  0  0  0  0  0
  -22.7384  -29.4667   22.4997 C   0  0  0  0  0  0
  -18.0264  -28.1371   22.8482 C   0  0  0  0  0  0
  -24.1480  -36.7308   23.2642 C   0  0  0  0  0  0
  -25.9220  -30.8500   21.3554 C   0  0  0  0  0  0
  -26.0026  -29.4864   20.7030 C   0  0  0  0  0  0
  -27.2039  -28.7476   20.6861 C   0  0  0  0  0  0
  -26.0671  -26.9509   19.4989 C   0  0  0  0  0  0
  -24.8722  -27.6952   19.5055 C   0  0  0  0  0  0
  -23.6040  -29.8233   20.1647 C   0  0  0  0  0  0
  -25.4096  -36.3111   24.0348 C   0  0  1  0  0  0
  -20.5851  -28.3654   23.1321 C   0  0  2  0  0  0
  -20.6745  -26.9386   22.5432 C   0  0  0  0  0  0
  -19.5744  -26.6378   21.5203 C   0  0  0  0  0  0
  -18.1913  -26.7929   22.1592 C   0  0  0  0  0  0
  -19.1514  -28.8826   23.2902 C   0  0  0  0  0  0
  -18.9446  -30.1423   23.8929 C   0  0  0  0  0  0
  -17.6454  -30.6576   24.0564 C   0  0  0  0  0  0
  -25.9024  -34.9474   23.5146 C   0  0  0  0  0  0
  -16.5341  -29.9081   23.6324 C   0  0  0  0  0  0
  -16.7261  -28.6498   23.0349 C   0  0  0  0  0  0
  -26.4468  -31.6597   25.0717 C   0  0  0  0  0  0
  -25.3769  -31.3676   26.1493 C   0  0  0  0  0  0
  -27.0284  -30.3057   24.6033 C   0  0  0  0  0  0
  -27.6053  -32.4313   25.7464 C   0  0  0  0  0  0
  -27.5583  -37.1796   24.8455 C   0  0  0  0  0  0
  -21.4118  -29.3030   22.3731 N   0  0  0  0  0  0
  -26.4279  -37.3798   23.9427 N   0  0  0  0  0  0
  -24.6623  -31.0833   22.0994 N   0  0  0  0  0  0
  -23.4173  -28.8214   23.3035 O   0  0  0  0  0  0
  -28.4237  -26.7675   20.1128 O   0  0  0  0  0  0
  -26.5594  -34.8928   22.4708 O   0  0  0  0  0  0
  -23.5315  -32.1416   23.7543 O   0  0  0  0  0  0
  -29.2884  -16.3176   18.4915 C   0  0  0  0  0  0
  -30.0742  -17.9059   20.1428 C   0  0  0  0  0  0
  -29.2091  -17.3214   17.5020 C   0  0  0  0  0  0
  -29.5606  -18.6615   17.8427 C   0  0  0  0  0  0
  -29.7550  -16.5822   19.7938 C   0  0  0  0  0  0
  -29.9586  -18.9478   19.1882 C   0  0  0  0  0  0
  -28.7733  -16.9252   16.1307 C   0  0  0  0  0  0
  -29.9820  -22.3930   20.4004 C   0  0  0  0  0  0
  -29.5081  -23.3392   21.2389 C   0  0  0  0  0  0
  -29.8679  -20.9605   20.6355 C   0  0  0  0  0  0
  -29.5826  -24.8343   20.9769 C   0  0  0  0  0  0
  -28.3194  -25.3560   20.2756 C   0  0  0  0  0  0
  -29.4962  -19.7525   16.7471 C   0  0  0  0  0  0
  -28.3233  -15.7896   15.7931 N   0  0  0  0  0  0
  -30.2831  -20.2803   19.5590 N   0  0  0  0  0  0
  -29.8685  -15.5213   20.7354 N   0  0  0  0  0  0
  -29.4459  -20.4354   21.6706 O   0  0  0  0  0  0
  -28.9084  -23.0999   22.4174 O   0  0  0  0  0  0
  -30.3572  -19.4477   15.7750 F   0  0  0  0  0  0
  -28.2676  -19.8240   16.2325 F   0  0  0  0  0  0
  -29.8061  -20.9878   17.1445 F   0  0  0  0  0  0
  -31.4722  -12.3808   19.1422 H   0  0  0  0  0  0
  -30.3305  -11.2776   19.8582 H   0  0  0  0  0  0
  -29.7397  -11.6977   17.4628 H   0  0  0  0  0  0
  -29.7088  -13.4049   17.7293 H   0  0  0  0  0  0
  -27.8151  -11.2943   18.8225 H   0  0  0  0  0  0
  -27.3746  -12.6181   17.7815 H   0  0  0  0  0  0
  -27.6797  -14.2343   19.5693 H   0  0  0  0  0  0
  -28.6647  -11.9690   21.3700 H   0  0  0  0  0  0
  -28.4678  -13.6265   21.8571 H   0  0  0  0  0  0
  -25.2743   -9.5687   22.4753 H   0  0  0  0  0  0
  -24.0010   -7.4612   22.7457 H   0  0  0  0  0  0
  -21.0827   -8.8756   19.8954 H   0  0  0  0  0  0
  -22.3662  -10.9668   19.6171 H   0  0  0  0  0  0
  -21.1992   -7.6134   23.9691 H   0  0  0  0  0  0
  -21.1481   -6.0518   25.9061 H   0  0  0  0  0  0
  -22.0615   -2.7610   23.2824 H   0  0  0  0  0  0
  -22.4069  -11.9906   22.4821 H   0  0  0  0  0  0
  -21.1100  -13.1296   22.2611 H   0  0  0  0  0  0
  -24.6774  -15.8501   20.5402 H   0  0  0  0  0  0
  -26.2912  -15.6290   20.1095 H   0  0  0  0  0  0
  -26.7094  -32.5563   23.1187 H   0  0  0  0  0  0
  -25.0079  -33.9794   25.0526 H   0  0  0  0  0  0
  -22.6852  -31.3083   21.4112 H   0  0  0  0  0  0
  -23.3743  -35.9636   23.3290 H   0  0  0  0  0  0
  -24.3584  -36.8937   22.2058 H   0  0  0  0  0  0
  -23.7227  -37.6507   23.6663 H   0  0  0  0  0  0
  -26.0222  -31.6186   20.5876 H   0  0  0  0  0  0
  -26.8145  -30.9093   21.9660 H   0  0  0  0  0  0
  -28.0993  -29.1501   21.1394 H   0  0  0  0  0  0
  -26.0699  -25.9801   19.0234 H   0  0  0  0  0  0
  -23.9845  -27.2875   19.0419 H   0  0  0  0  0  0
  -23.7055  -30.5948   19.4011 H   0  0  0  0  0  0
  -22.7313  -29.2355   19.8735 H   0  0  0  0  0  0
  -25.1261  -36.1971   25.0840 H   0  0  0  0  0  0
  -20.9950  -28.3234   24.1437 H   0  0  0  0  0  0
  -20.5602  -26.2274   23.3627 H   0  0  0  0  0  0
  -21.6634  -26.7403   22.1269 H   0  0  0  0  0  0
  -19.6904  -25.6289   21.1238 H   0  0  0  0  0  0
  -19.6701  -27.3183   20.6730 H   0  0  0  0  0  0
  -17.4196  -26.6700   21.3972 H   0  0  0  0  0  0
  -18.0278  -26.0056   22.8966 H   0  0  0  0  0  0
  -19.7926  -30.7212   24.2339 H   0  0  0  0  0  0
  -17.5015  -31.6265   24.5150 H   0  0  0  0  0  0
  -15.5345  -30.2992   23.7629 H   0  0  0  0  0  0
  -15.8658  -28.0814   22.7070 H   0  0  0  0  0  0
  -24.5965  -30.6978   25.7861 H   0  0  0  0  0  0
  -24.8931  -32.2813   26.4948 H   0  0  0  0  0  0
  -25.8181  -30.8875   27.0238 H   0  0  0  0  0  0
  -26.2784  -29.6819   24.1154 H   0  0  0  0  0  0
  -27.4160  -29.7287   25.4439 H   0  0  0  0  0  0
  -27.8574  -30.4405   23.9082 H   0  0  0  0  0  0
  -27.2676  -33.3597   26.2082 H   0  0  0  0  0  0
  -28.3826  -32.6903   25.0263 H   0  0  0  0  0  0
  -28.0759  -31.8421   26.5343 H   0  0  0  0  0  0
  -28.2580  -38.0114   24.7532 H   0  0  0  0  0  0
  -28.1100  -36.2649   24.6216 H   0  0  0  0  0  0
  -27.2329  -37.1383   25.8867 H   0  0  0  0  0  0
  -20.9269  -29.8756   21.6960 H   0  0  0  0  0  0
  -26.0162  -38.2868   24.1460 H   0  0  0  0  0  0
  -29.0127  -15.3128   18.2331 H   0  0  0  0  0  0
  -30.4225  -18.1175   21.1440 H   0  0  0  0  0  0
  -28.8525  -17.6774   15.3445 H   0  0  0  0  0  0
  -30.4567  -22.7316   19.4897 H   0  0  0  0  0  0
  -30.4594  -25.0498   20.3651 H   0  0  0  0  0  0
  -29.7318  -25.3667   21.9178 H   0  0  0  0  0  0
  -27.4527  -25.0975   20.8880 H   0  0  0  0  0  0
  -28.1939  -24.8780   19.3027 H   0  0  0  0  0  0
  -28.2695  -15.1413   16.5686 H   0  0  0  0  0  0
  -30.5671  -20.8735   18.7886 H   0  0  0  0  0  0
  -29.0021  -15.2637   21.1833 H   0  0  0  0  0  0
  -28.9005  -22.1549   22.5466 H   0  0  0  0  0  0
  1 25  1  0  0  0
  1 30  2  0  0  0
  1 86  1  0  0  0
  2  3  1  0  0  0
  2 25  1  0  0  0
  2 92  1  0  0  0
  2 93  1  0  0  0
  3  4  1  0  0  0
  3 94  1  0  0  0
  3 95  1  0  0  0
  4  5  1  0  0  0
  4 96  1  0  0  0
  4 97  1  0  0  0
  5  6  1  0  0  0
  5 26  1  0  0  0
  5 98  1  0  0  0
  6 25  1  0  0  0
  6 99  1  0  0  0
  6100  1  0  0  0
  7  8  2  0  0  0
  7 26  1  0  0  0
  7 29  1  0  0  0
  8  9  1  0  0  0
  8 22  1  0  0  0
  9 10  1  0  0  0
  9 27  2  0  0  0
 10 11  2  0  0  0
 10 15  1  0  0  0
 11 12  1  0  0  0
 11101  1  0  0  0
 12 13  2  0  0  0
 12102  1  0  0  0
 13 14  1  0  0  0
 13 31  1  0  0  0
 14 15  2  0  0  0
 14103  1  0  0  0
 15104  1  0  0  0
 16 17  2  0  0  0
 16 21  1  0  0  0
 16 31  1  0  0  0
 17 18  1  0  0  0
 17105  1  0  0  0
 18 19  2  0  0  0
 18106  1  0  0  0
 19 20  1  0  0  0
 19 24  1  0  0  0
 20 21  2  0  0  0
 20107  1  0  0  0
 21 23  1  0  0  0
 22 28  1  0  0  0
 22 32  2  0  0  0
 26 27  1  0  0  0
 28108  1  0  0  0
 28109  1  0  0  0
 29110  1  0  0  0
 29111  1  0  0  0
 33 34  1  0  0  0
 33 66  1  0  0  0
 33 70  2  0  0  0
 34 36  1  0  0  0
 34 59  1  0  0  0
 34112  1  0  0  0
 35 44  2  0  0  0
 35 45  1  0  0  0
 35 68  1  0  0  0
 36 56  1  0  0  0
 36113  1  0  0  0
 37 39  1  0  0  0
 37 47  1  0  0  0
 37 66  1  0  0  0
 37114  1  0  0  0
 38 43  2  0  0  0
 38 46  1  0  0  0
 38 47  1  0  0  0
 39 64  1  0  0  0
 39 67  2  0  0  0
 40 52  1  0  0  0
 40 53  2  0  0  0
 40 58  1  0  0  0
 41115  1  0  0  0
 41116  1  0  0  0
 41117  1  0  0  0
 41 48  1  0  0  0
 42 43  1  0  0  0
 42 66  1  0  0  0
 42118  1  0  0  0
 42119  1  0  0  0
 43 44  1  0  0  0
 44120  1  0  0  0
 45 46  2  0  0  0
 45121  1  0  0  0
 46122  1  0  0  0
 47123  1  0  0  0
 47124  1  0  0  0
 48 56  1  0  0  0
 48 65  1  0  0  0
 48125  1  0  0  0
 49 50  1  0  0  0
 49 53  1  0  0  0
 49 64  1  0  0  0
 49126  1  0  0  0
 50 51  1  0  0  0
 50127  1  0  0  0
 50128  1  0  0  0
 51 52  1  0  0  0
 51129  1  0  0  0
 51130  1  0  0  0
 52131  1  0  0  0
 52132  1  0  0  0
 53 54  1  0  0  0
 54 55  2  0  0  0
 54133  1  0  0  0
 55 57  1  0  0  0
 55134  1  0  0  0
 56 69  2  0  0  0
 57 58  2  0  0  0
 57135  1  0  0  0
 58136  1  0  0  0
 59 60  1  0  0  0
 59 61  1  0  0  0
 59 62  1  0  0  0
 60137  1  0  0  0
 60138  1  0  0  0
 60139  1  0  0  0
 61140  1  0  0  0
 61141  1  0  0  0
 61142  1  0  0  0
 62143  1  0  0  0
 62144  1  0  0  0
 62145  1  0  0  0
 63 65  1  0  0  0
 63146  1  0  0  0
 63147  1  0  0  0
 63148  1  0  0  0
 64149  1  0  0  0
 65150  1  0  0  0
 68 82  1  0  0  0
 71 73  2  0  0  0
 71 75  1  0  0  0
 71151  1  0  0  0
 72 75  2  0  0  0
 72 76  1  0  0  0
 72152  1  0  0  0
 73 74  1  0  0  0
 73 77  1  0  0  0
 74 76  2  0  0  0
 74 83  1  0  0  0
 75 86  1  0  0  0
 76 85  1  0  0  0
 77 84  2  0  0  0
 77153  1  0  0  0
 78 79  2  0  0  0
 78 80  1  0  0  0
 78154  1  0  0  0
 79 81  1  0  0  0
 79 88  1  0  0  0
 80 85  1  0  0  0
 80 87  2  0  0  0
 81 82  1  0  0  0
 81155  1  0  0  0
 81156  1  0  0  0
 82157  1  0  0  0
 82158  1  0  0  0
 83 89  1  0  0  0
 83 90  1  0  0  0
 83 91  1  0  0  0
 84159  1  0  0  0
 85160  1  0  0  0
 86161  1  0  0  0
 88162  1  0  0  0
M  ISO  4   1 100  68 101  82 101  86 100
M  END
> <chiral flag>
0

> <version>
0

> <s_m_source_file>
/data/baiqing/PycharmProjects/Reinvent-master-3.2/result/LINK_invent/BTK/process_docking_weight1_custom_product_contain_oxygen_bond_distance_aromatic_linkinvent_7_9_3/rearranged_h_0179.sdf

> <i_m_source_file_index>
70

> <r_mmod_Potential_Energy-OPLS-2005>
12.7897272109985

> <r_mmod_Stretch_Energy-OPLS-2005>
38.3600006103516

> <r_mmod_Bend_Energy-OPLS-2005>
100.892570495605

> <r_mmod_Torsional_Energy-OPLS-2005>
273.344879150391

> <r_mmod_Improper_Torsional_Energy-OPLS-2005>
11.1068315505981

> <r_mmod_Van_der_Waal_Energy-OPLS-2005>
179.680541992188

> <r_mmod_Electrostatic_Energy-OPLS-2005>
-359.454162597656

> <r_mmod_Solvation_Energy-OPLS-2005>
-246.029220581055

> <b_mmod_Minimization_Converged-OPLS-2005>
0

> <r_mmod_RMS_Derivative-OPLS-2005>
2.30072736740112

$$$$
70
                    3D
 Structure written by MMmdl.
149157  0  0  1  0            999 V2000
  -30.5664  -14.8411   20.4232 C   0  0  0  0  0  0
  -30.4357  -12.5108   19.4914 C   0  0  0  0  0  0
  -29.5165  -12.5220   18.2482 C   0  0  0  0  0  0
  -28.0438  -12.3328   18.6592 C   0  0  0  0  0  0
  -27.6388  -13.2412   19.8501 C   0  0  2  0  0  0
  -28.6816  -13.2060   20.9896 C   0  0  0  0  0  0
  -25.2495  -13.8214   20.5706 C   0  0  0  0  0  0
  -24.1794  -13.0443   20.9215 C   0  0  0  0  0  0
  -24.6396  -11.6925   20.8743 C   0  0  0  0  0  0
  -23.9075  -10.4298   21.0399 C   0  0  0  0  0  0
  -24.3622   -9.4207   21.9175 C   0  0  0  0  0  0
  -23.6298   -8.2243   22.0747 C   0  0  0  0  0  0
  -22.4282   -8.0278   21.3539 C   0  0  0  0  0  0
  -21.9912   -9.0255   20.4643 C   0  0  0  0  0  0
  -22.7244  -10.2134   20.3051 C   0  0  0  0  0  0
  -21.6852   -6.0735   22.5281 C   0  0  0  0  0  0
  -21.4015   -6.5635   23.8214 C   0  0  0  0  0  0
  -21.3661   -5.6788   24.9177 C   0  0  0  0  0  0
  -21.6048   -4.3053   24.7224 C   0  0  0  0  0  0
  -21.8820   -3.8141   23.4346 C   0  0  0  0  0  0
  -21.9189   -4.6963   22.3404 C   0  0  0  0  0  0
  -22.7813  -13.5214   21.1873 C   0  0  0  0  0  0
  -22.1659   -4.2149   21.0982 F   0  0  0  0  0  0
  -21.5633   -3.4536   25.7738 F   0  0  0  0  0  0
  -29.9761  -13.5863   20.4106 N   0  0  0  0  0  0
  -26.2923  -12.9434   20.3282 N   0  0  0  0  0  0
  -25.9333  -11.6568   20.5752 N   0  0  0  0  0  0
  -22.0463  -12.8211   22.0435 N   0  0  0  0  0  0
  -25.4177  -15.1940   20.4123 N   0  0  0  0  0  0
  -31.7489  -14.9306   20.0760 O   0  0  0  0  0  0
  -21.6638   -6.8880   21.4241 O   0  0  0  0  0  0
  -22.3501  -14.5514   20.6704 O   0  0  0  0  0  0
  -24.6375  -31.8500   23.1920 C   0  0  0  0  0  0
  -25.9167  -32.4731   23.8301 C   0  0  1  0  0  0
  -27.2257  -27.2036   20.1339 C   0  0  0  0  0  0
  -25.5935  -33.8534   24.2227 N   0  0  0  0  0  0
  -23.4387  -30.4698   21.5356 C   0  0  2  0  0  0
  -24.8875  -28.9065   20.1078 C   0  0  0  0  0  0
  -22.7541  -29.4576   22.4872 C   0  0  0  0  0  0
  -18.0298  -28.1391   22.8478 C   0  0  0  0  0  0
  -24.1495  -36.7278   23.2640 C   0  0  0  0  0  0
  -25.9885  -30.7441   21.3802 C   0  0  0  0  0  0
  -26.0605  -29.3608   20.7230 C   0  0  0  0  0  0
  -27.2275  -28.5213   20.7260 C   0  0  0  0  0  0
  -26.0257  -26.8321   19.4854 C   0  0  0  0  0  0
  -24.8790  -27.6538   19.4767 C   0  0  0  0  0  0
  -23.6612  -29.8002   20.1535 C   0  0  0  0  0  0
  -25.4123  -36.3058   24.0322 C   0  0  1  0  0  0
  -20.5909  -28.3719   23.1245 C   0  0  2  0  0  0
  -20.6781  -26.9430   22.5399 C   0  0  0  0  0  0
  -19.5754  -26.6383   21.5207 C   0  0  0  0  0  0
  -18.1939  -26.7927   22.1629 C   0  0  0  0  0  0
  -19.1551  -28.8873   23.2855 C   0  0  0  0  0  0
  -18.9470  -30.1463   23.8889 C   0  0  0  0  0  0
  -17.6467  -30.6593   24.0557 C   0  0  0  0  0  0
  -25.9065  -34.9428   23.5083 C   0  0  0  0  0  0
  -16.5360  -29.9091   23.6322 C   0  0  0  0  0  0
  -16.7281  -28.6504   23.0357 C   0  0  0  0  0  0
  -26.4504  -31.6570   25.0718 C   0  0  0  0  0  0
  -25.3703  -31.3750   26.1427 C   0  0  0  0  0  0
  -27.0338  -30.2969   24.6243 C   0  0  0  0  0  0
  -27.6065  -32.4304   25.7486 C   0  0  0  0  0  0
  -27.5577  -37.1806   24.8470 C   0  0  0  0  0  0
  -21.4240  -29.3057   22.3626 N   0  0  0  0  0  0
  -26.4299  -37.3756   23.9396 N   0  0  0  0  0  0
  -24.7078  -31.0407   22.0926 N   0  0  0  0  0  0
  -23.4208  -28.8117   23.3001 O   0  0  0  0  0  0
  -28.3090  -26.2770   20.2335 O   0  0  0  0  0  0
  -26.5650  -34.8912   22.4660 O   0  0  0  0  0  0
  -23.5506  -32.1345   23.7172 O   0  0  0  0  0  0
  -29.9750  -17.6596   18.8241 C   0  0  0  0  0  0
  -29.8064  -17.3943   20.1709 C   0  0  0  0  0  0
  -29.3990  -19.7981   20.0903 C   0  0  0  0  0  0
  -28.2435  -24.8916   19.8196 C   0  0  0  0  0  0
  -28.7525  -23.7354   20.4337 C   0  0  0  0  0  0
  -28.6914  -22.3328   19.8167 C   0  0  0  0  0  0
  -30.2355  -16.6968   17.7089 C   0  0  0  0  0  0
  -29.4663  -18.6426   20.8638 N   0  0  0  0  0  0
  -29.7931  -15.9818   20.7048 N   0  0  0  0  0  0
  -29.1408  -21.2149   20.5372 N   0  0  0  0  0  0
  -28.2293  -22.1668   18.6855 O   0  0  0  0  0  0
  -29.3563  -23.8587   21.6240 O   0  0  0  0  0  0
  -29.7692  -19.3718   18.4184 S   0  0  0  0  0  0
  -31.4746  -12.6451   19.1865 H   0  0  0  0  0  0
  -30.3970  -11.5401   19.9880 H   0  0  0  0  0  0
  -29.8150  -11.7388   17.5498 H   0  0  0  0  0  0
  -29.6317  -13.4654   17.7140 H   0  0  0  0  0  0
  -27.9114  -11.2859   18.9341 H   0  0  0  0  0  0
  -27.3850  -12.5084   17.8083 H   0  0  0  0  0  0
  -27.6230  -14.2585   19.4576 H   0  0  0  0  0  0
  -28.7363  -12.2122   21.4371 H   0  0  0  0  0  0
  -28.3976  -13.8878   21.7921 H   0  0  0  0  0  0
  -25.2765   -9.5689   22.4749 H   0  0  0  0  0  0
  -24.0013   -7.4626   22.7456 H   0  0  0  0  0  0
  -21.0843   -8.8766   19.8948 H   0  0  0  0  0  0
  -22.3690  -10.9668   19.6160 H   0  0  0  0  0  0
  -21.2003   -7.6141   23.9721 H   0  0  0  0  0  0
  -21.1489   -6.0514   25.9084 H   0  0  0  0  0  0
  -22.0596   -2.7604   23.2837 H   0  0  0  0  0  0
  -22.4084  -11.9881   22.4844 H   0  0  0  0  0  0
  -21.1077  -13.1237   22.2628 H   0  0  0  0  0  0
  -24.6465  -15.8444   20.5189 H   0  0  0  0  0  0
  -26.2598  -15.6359   20.0665 H   0  0  0  0  0  0
  -26.7236  -32.5361   23.1039 H   0  0  0  0  0  0
  -25.0054  -33.9654   25.0355 H   0  0  0  0  0  0
  -22.7393  -31.2945   21.3840 H   0  0  0  0  0  0
  -23.3745  -35.9626   23.3332 H   0  0  0  0  0  0
  -24.3570  -36.8871   22.2047 H   0  0  0  0  0  0
  -23.7276  -37.6500   23.6646 H   0  0  0  0  0  0
  -26.1334  -31.5003   20.6072 H   0  0  0  0  0  0
  -26.8633  -30.7963   22.0167 H   0  0  0  0  0  0
  -28.1222  -28.8614   21.2281 H   0  0  0  0  0  0
  -25.9321  -25.8701   19.0055 H   0  0  0  0  0  0
  -23.9803  -27.3007   18.9887 H   0  0  0  0  0  0
  -23.7933  -30.5744   19.3971 H   0  0  0  0  0  0
  -22.7784  -29.2370   19.8459 H   0  0  0  0  0  0
  -25.1313  -36.1906   25.0818 H   0  0  0  0  0  0
  -20.9999  -28.3301   24.1363 H   0  0  0  0  0  0
  -20.5669  -26.2339   23.3614 H   0  0  0  0  0  0
  -21.6649  -26.7435   22.1204 H   0  0  0  0  0  0
  -19.6919  -25.6288   21.1256 H   0  0  0  0  0  0
  -19.6686  -27.3176   20.6721 H   0  0  0  0  0  0
  -17.4204  -26.6652   21.4042 H   0  0  0  0  0  0
  -18.0358  -26.0075   22.9038 H   0  0  0  0  0  0
  -19.7947  -30.7270   24.2271 H   0  0  0  0  0  0
  -17.5026  -31.6272   24.5160 H   0  0  0  0  0  0
  -15.5361  -30.2999   23.7639 H   0  0  0  0  0  0
  -15.8679  -28.0812   22.7094 H   0  0  0  0  0  0
  -24.5865  -30.7121   25.7737 H   0  0  0  0  0  0
  -24.8909  -32.2932   26.4831 H   0  0  0  0  0  0
  -25.7986  -30.8922   27.0218 H   0  0  0  0  0  0
  -26.2921  -29.6720   24.1252 H   0  0  0  0  0  0
  -27.3966  -29.7236   25.4784 H   0  0  0  0  0  0
  -27.8831  -30.4207   23.9520 H   0  0  0  0  0  0
  -27.2695  -33.3626   26.2027 H   0  0  0  0  0  0
  -28.3894  -32.6822   25.0320 H   0  0  0  0  0  0
  -28.0712  -31.8445   26.5427 H   0  0  0  0  0  0
  -28.2622  -38.0073   24.7469 H   0  0  0  0  0  0
  -28.1045  -36.2605   24.6363 H   0  0  0  0  0  0
  -27.2284  -37.1536   25.8870 H   0  0  0  0  0  0
  -20.9441  -29.8787   21.6825 H   0  0  0  0  0  0
  -26.0180  -38.2838   24.1357 H   0  0  0  0  0  0
  -27.7551  -24.8035   18.8592 H   0  0  0  0  0  0
  -29.5325  -15.8648   17.7403 H   0  0  0  0  0  0
  -31.2476  -16.2956   17.7600 H   0  0  0  0  0  0
  -30.1212  -17.1800   16.7382 H   0  0  0  0  0  0
  -28.9612  -15.7657   21.2318 H   0  0  0  0  0  0
  -29.3760  -21.4191   21.4970 H   0  0  0  0  0  0
  -29.3429  -24.7818   21.8462 H   0  0  0  0  0  0
  1 25  1  0  0  0
  1 30  2  0  0  0
  1 79  1  0  0  0
  2  3  1  0  0  0
  2 25  1  0  0  0
  2 84  1  0  0  0
  2 85  1  0  0  0
  3  4  1  0  0  0
  3 86  1  0  0  0
  3 87  1  0  0  0
  4  5  1  0  0  0
  4 88  1  0  0  0
  4 89  1  0  0  0
  5  6  1  0  0  0
  5 26  1  0  0  0
  5 90  1  0  0  0
  6 25  1  0  0  0
  6 91  1  0  0  0
  6 92  1  0  0  0
  7  8  2  0  0  0
  7 26  1  0  0  0
  7 29  1  0  0  0
  8  9  1  0  0  0
  8 22  1  0  0  0
  9 10  1  0  0  0
  9 27  2  0  0  0
 10 11  2  0  0  0
 10 15  1  0  0  0
 11 12  1  0  0  0
 11 93  1  0  0  0
 12 13  2  0  0  0
 12 94  1  0  0  0
 13 14  1  0  0  0
 13 31  1  0  0  0
 14 15  2  0  0  0
 14 95  1  0  0  0
 15 96  1  0  0  0
 16 17  2  0  0  0
 16 21  1  0  0  0
 16 31  1  0  0  0
 17 18  1  0  0  0
 17 97  1  0  0  0
 18 19  2  0  0  0
 18 98  1  0  0  0
 19 20  1  0  0  0
 19 24  1  0  0  0
 20 21  2  0  0  0
 20 99  1  0  0  0
 21 23  1  0  0  0
 22 28  1  0  0  0
 22 32  2  0  0  0
 26 27  1  0  0  0
 28100  1  0  0  0
 28101  1  0  0  0
 29102  1  0  0  0
 29103  1  0  0  0
 33 34  1  0  0  0
 33 66  1  0  0  0
 33 70  2  0  0  0
 34 36  1  0  0  0
 34 59  1  0  0  0
 34104  1  0  0  0
 35 44  2  0  0  0
 35 45  1  0  0  0
 35 68  1  0  0  0
 36 56  1  0  0  0
 36105  1  0  0  0
 37 39  1  0  0  0
 37 47  1  0  0  0
 37 66  1  0  0  0
 37106  1  0  0  0
 38 43  2  0  0  0
 38 46  1  0  0  0
 38 47  1  0  0  0
 39 64  1  0  0  0
 39 67  2  0  0  0
 40 52  1  0  0  0
 40 53  2  0  0  0
 40 58  1  0  0  0
 41107  1  0  0  0
 41108  1  0  0  0
 41109  1  0  0  0
 41 48  1  0  0  0
 42 43  1  0  0  0
 42 66  1  0  0  0
 42110  1  0  0  0
 42111  1  0  0  0
 43 44  1  0  0  0
 44112  1  0  0  0
 45 46  2  0  0  0
 45113  1  0  0  0
 46114  1  0  0  0
 47115  1  0  0  0
 47116  1  0  0  0
 48 56  1  0  0  0
 48 65  1  0  0  0
 48117  1  0  0  0
 49 50  1  0  0  0
 49 53  1  0  0  0
 49 64  1  0  0  0
 49118  1  0  0  0
 50 51  1  0  0  0
 50119  1  0  0  0
 50120  1  0  0  0
 51 52  1  0  0  0
 51121  1  0  0  0
 51122  1  0  0  0
 52123  1  0  0  0
 52124  1  0  0  0
 53 54  1  0  0  0
 54 55  2  0  0  0
 54125  1  0  0  0
 55 57  1  0  0  0
 55126  1  0  0  0
 56 69  2  0  0  0
 57 58  2  0  0  0
 57127  1  0  0  0
 58128  1  0  0  0
 59 60  1  0  0  0
 59 61  1  0  0  0
 59 62  1  0  0  0
 60129  1  0  0  0
 60130  1  0  0  0
 60131  1  0  0  0
 61132  1  0  0  0
 61133  1  0  0  0
 61134  1  0  0  0
 62135  1  0  0  0
 62136  1  0  0  0
 62137  1  0  0  0
 63 65  1  0  0  0
 63138  1  0  0  0
 63139  1  0  0  0
 63140  1  0  0  0
 64141  1  0  0  0
 65142  1  0  0  0
 68 74  1  0  0  0
 71 72  2  0  0  0
 71 77  1  0  0  0
 71 83  1  0  0  0
 72 78  1  0  0  0
 72 79  1  0  0  0
 73 78  2  0  0  0
 73 80  1  0  0  0
 73 83  1  0  0  0
 74 75  2  0  0  0
 74143  1  0  0  0
 75 76  1  0  0  0
 75 82  1  0  0  0
 76 80  1  0  0  0
 76 81  2  0  0  0
 77144  1  0  0  0
 77145  1  0  0  0
 77146  1  0  0  0
 79147  1  0  0  0
 80148  1  0  0  0
 82149  1  0  0  0
M  ISO  4   1 100  68 101  74 101  79 100
M  END
> <chiral flag>
0

> <version>
0

> <s_m_source_file>
/data/baiqing/PycharmProjects/Reinvent-master-3.2/result/LINK_invent/BTK/process_docking_weight1_custom_product_contain_oxygen_bond_distance_aromatic_linkinvent_7_9_3/rearranged_h_0179.sdf

> <i_m_source_file_index>
71

> <r_mmod_Potential_Energy-OPLS-2005>
122.342506408691

> <r_mmod_Stretch_Energy-OPLS-2005>
159.775634765625

> <r_mmod_Bend_Energy-OPLS-2005>
182.341247558594

> <r_mmod_Torsional_Energy-OPLS-2005>
231.863876342773

> <r_mmod_Improper_Torsional_Energy-OPLS-2005>
5.0643048286438

> <r_mmod_Van_der_Waal_Energy-OPLS-2005>
116.254013061523

> <r_mmod_Electrostatic_Energy-OPLS-2005>
-474.477569580078

> <r_mmod_Solvation_Energy-OPLS-2005>
-227.26545715332

> <b_mmod_Minimization_Converged-OPLS-2005>
0

> <r_mmod_RMS_Derivative-OPLS-2005>
1.18828952312469

$$$$
71
                    3D
 Structure written by MMmdl.
155163  0  0  1  0            999 V2000
  -30.7153  -14.3634   20.6295 C   0  0  0  0  0  0
  -30.4579  -12.2549   19.4001 C   0  0  0  0  0  0
  -29.5305  -12.5087   18.1965 C   0  0  0  0  0  0
  -28.0421  -12.3768   18.5910 C   0  0  0  0  0  0
  -27.6910  -13.1721   19.8800 C   0  0  2  0  0  0
  -28.7223  -12.8628   20.9888 C   0  0  0  0  0  0
  -25.2790  -13.8057   20.5602 C   0  0  0  0  0  0
  -24.1930  -13.0373   20.9068 C   0  0  0  0  0  0
  -24.6455  -11.6826   20.8674 C   0  0  0  0  0  0
  -23.9077  -10.4232   21.0418 C   0  0  0  0  0  0
  -24.3600   -9.4097   21.9195 C   0  0  0  0  0  0
  -23.6228   -8.2154   22.0760 C   0  0  0  0  0  0
  -22.4219   -8.0225   21.3550 C   0  0  0  0  0  0
  -21.9888   -9.0210   20.4645 C   0  0  0  0  0  0
  -22.7254  -10.2070   20.3057 C   0  0  0  0  0  0
  -21.6774   -6.0690   22.5293 C   0  0  0  0  0  0
  -21.3952   -6.5605   23.8217 C   0  0  0  0  0  0
  -21.3679   -5.6770   24.9206 C   0  0  0  0  0  0
  -21.6033   -4.3031   24.7242 C   0  0  0  0  0  0
  -21.8809   -3.8111   23.4375 C   0  0  0  0  0  0
  -21.9140   -4.6928   22.3410 C   0  0  0  0  0  0
  -22.7982  -13.5242   21.1756 C   0  0  0  0  0  0
  -22.1609   -4.2104   21.0995 F   0  0  0  0  0  0
  -21.5642   -3.4524   25.7771 F   0  0  0  0  0  0
  -30.0672  -13.1812   20.4708 N   0  0  0  0  0  0
  -26.3180  -12.9146   20.3279 N   0  0  0  0  0  0
  -25.9371  -11.6341   20.5649 N   0  0  0  0  0  0
  -22.0547  -12.8282   22.0298 N   0  0  0  0  0  0
  -25.4716  -15.1761   20.4141 N   0  0  0  0  0  0
  -31.8028  -14.6234   20.1004 O   0  0  0  0  0  0
  -21.6551   -6.8845   21.4265 O   0  0  0  0  0  0
  -22.3649  -14.5541   20.6619 O   0  0  0  0  0  0
  -24.6148  -31.8694   23.2062 C   0  0  0  0  0  0
  -25.9040  -32.4811   23.8375 C   0  0  1  0  0  0
  -27.2387  -27.4697   20.0776 C   0  0  0  0  0  0
  -25.5899  -33.8586   24.2333 N   0  0  0  0  0  0
  -23.4010  -30.4966   21.5444 C   0  0  2  0  0  0
  -24.8425  -28.9548   20.1164 C   0  0  0  0  0  0
  -22.7416  -29.4727   22.4966 C   0  0  0  0  0  0
  -18.0329  -28.1354   22.8450 C   0  0  0  0  0  0
  -24.1502  -36.7306   23.2635 C   0  0  0  0  0  0
  -25.9276  -30.8424   21.3580 C   0  0  0  0  0  0
  -25.9999  -29.4794   20.7029 C   0  0  0  0  0  0
  -27.1986  -28.7395   20.6828 C   0  0  0  0  0  0
  -26.0613  -26.9486   19.4902 C   0  0  0  0  0  0
  -24.8613  -27.6829   19.5194 C   0  0  0  0  0  0
  -23.6051  -29.8181   20.1620 C   0  0  0  0  0  0
  -25.4127  -36.3079   24.0333 C   0  0  1  0  0  0
  -20.5919  -28.3711   23.1275 C   0  0  2  0  0  0
  -20.6910  -26.9466   22.5367 C   0  0  0  0  0  0
  -19.5856  -26.6361   21.5195 C   0  0  0  0  0  0
  -18.2011  -26.7922   22.1537 C   0  0  0  0  0  0
  -19.1563  -28.8846   23.2866 C   0  0  0  0  0  0
  -18.9430  -30.1467   23.8854 C   0  0  0  0  0  0
  -17.6424  -30.6567   24.0477 C   0  0  0  0  0  0
  -25.9028  -34.9459   23.5119 C   0  0  0  0  0  0
  -16.5331  -29.9032   23.6228 C   0  0  0  0  0  0
  -16.7312  -28.6439   23.0285 C   0  0  0  0  0  0
  -26.4483  -31.6554   25.0687 C   0  0  0  0  0  0
  -25.3792  -31.3619   26.1460 C   0  0  0  0  0  0
  -27.0316  -30.2995   24.6060 C   0  0  0  0  0  0
  -27.6075  -32.4262   25.7457 C   0  0  0  0  0  0
  -27.5594  -37.1805   24.8474 C   0  0  0  0  0  0
  -21.4168  -29.3073   22.3661 N   0  0  0  0  0  0
  -26.4335  -37.3772   23.9383 N   0  0  0  0  0  0
  -24.6649  -31.0864   22.0941 N   0  0  0  0  0  0
  -23.4164  -28.8326   23.3049 O   0  0  0  0  0  0
  -28.4490  -26.8093   20.0882 O   0  0  0  0  0  0
  -26.5608  -34.8924   22.4685 O   0  0  0  0  0  0
  -23.5334  -32.1441   23.7454 O   0  0  0  0  0  0
  -28.7842  -18.7840   20.5019 C   0  0  0  0  0  0
  -29.6878  -18.3643   19.5417 C   0  0  0  0  0  0
  -29.7275  -16.5584   20.9115 C   0  0  0  0  0  0
  -28.0487  -20.0307   20.6116 C   0  0  0  0  0  0
  -28.2242  -23.0930   20.6467 C   0  0  0  0  0  0
  -27.7323  -22.2432   19.4400 C   0  0  0  0  0  0
  -27.7516  -24.5492   20.7087 C   0  0  0  0  0  0
  -28.5084  -25.4398   19.7031 C   0  0  0  0  0  0
  -30.1795  -17.0858   19.7681 N   0  0  0  0  0  0
  -30.1288  -19.0474   18.4039 N   0  0  0  0  0  0
  -30.0409  -15.2608   21.3539 N   0  0  0  0  0  0
  -27.9626  -20.8292   19.5132 N   0  0  0  0  0  0
  -27.4194  -20.2790   21.7829 N   0  3  0  0  0  0
  -29.0395  -22.6713   21.4728 O   0  0  0  0  0  0
  -27.3149  -22.7499   18.3888 O   0  0  0  0  0  0
  -28.5877  -17.5726   21.7574 S   0  0  0  0  0  0
  -31.5010  -12.3797   19.0964 H   0  0  0  0  0  0
  -30.3710  -11.2200   19.7385 H   0  0  0  0  0  0
  -29.7831  -11.8169   17.3884 H   0  0  0  0  0  0
  -29.7243  -13.5097   17.8043 H   0  0  0  0  0  0
  -27.8231  -11.3183   18.7294 H   0  0  0  0  0  0
  -27.4178  -12.7091   17.7636 H   0  0  0  0  0  0
  -27.7772  -14.2320   19.6353 H   0  0  0  0  0  0
  -28.6828  -11.8014   21.2366 H   0  0  0  0  0  0
  -28.4836  -13.3732   21.9226 H   0  0  0  0  0  0
  -25.2788   -9.5437   22.4745 H   0  0  0  0  0  0
  -23.9889   -7.4484   22.7444 H   0  0  0  0  0  0
  -21.0824   -8.8708   19.8919 H   0  0  0  0  0  0
  -22.3755  -10.9574   19.6079 H   0  0  0  0  0  0
  -21.1919   -7.6111   23.9700 H   0  0  0  0  0  0
  -21.1553   -6.0526   25.9107 H   0  0  0  0  0  0
  -22.0594   -2.7573   23.2900 H   0  0  0  0  0  0
  -22.4056  -11.9901   22.4687 H   0  0  0  0  0  0
  -21.1201  -13.1427   22.2511 H   0  0  0  0  0  0
  -24.7459  -15.8614   20.5934 H   0  0  0  0  0  0
  -26.3630  -15.5929   20.1774 H   0  0  0  0  0  0
  -26.7143  -32.5534   23.1168 H   0  0  0  0  0  0
  -24.9985  -33.9770   25.0432 H   0  0  0  0  0  0
  -22.6896  -31.3100   21.3935 H   0  0  0  0  0  0
  -23.3723  -35.9672   23.3318 H   0  0  0  0  0  0
  -24.3615  -36.8896   22.2047 H   0  0  0  0  0  0
  -23.7322  -37.6554   23.6640 H   0  0  0  0  0  0
  -26.0490  -31.6120   20.5945 H   0  0  0  0  0  0
  -26.8114  -30.8828   21.9819 H   0  0  0  0  0  0
  -28.0987  -29.1396   21.1314 H   0  0  0  0  0  0
  -26.0422  -25.9834   19.0088 H   0  0  0  0  0  0
  -23.9595  -27.2709   19.0856 H   0  0  0  0  0  0
  -23.7175  -30.5821   19.3902 H   0  0  0  0  0  0
  -22.7297  -29.2354   19.8722 H   0  0  0  0  0  0
  -25.1305  -36.1939   25.0839 H   0  0  0  0  0  0
  -20.9966  -28.3311   24.1400 H   0  0  0  0  0  0
  -20.6012  -26.2259   23.3505 H   0  0  0  0  0  0
  -21.6771  -26.7716   22.1003 H   0  0  0  0  0  0
  -19.7037  -25.6227   21.1286 H   0  0  0  0  0  0
  -19.6847  -27.3087   20.6674 H   0  0  0  0  0  0
  -17.4317  -26.6748   21.3886 H   0  0  0  0  0  0
  -18.0443  -25.9962   22.8844 H   0  0  0  0  0  0
  -19.7837  -30.7353   24.2248 H   0  0  0  0  0  0
  -17.4936  -31.6246   24.5049 H   0  0  0  0  0  0
  -15.5324  -30.2920   23.7605 H   0  0  0  0  0  0
  -15.8726  -28.0721   22.6984 H   0  0  0  0  0  0
  -24.6020  -30.6899   25.7813 H   0  0  0  0  0  0
  -24.8927  -32.2743   26.4921 H   0  0  0  0  0  0
  -25.8211  -30.8834   27.0204 H   0  0  0  0  0  0
  -26.2848  -29.6723   24.1197 H   0  0  0  0  0  0
  -27.4169  -29.7273   25.4502 H   0  0  0  0  0  0
  -27.8643  -30.4270   23.9136 H   0  0  0  0  0  0
  -27.2711  -33.3545   26.2074 H   0  0  0  0  0  0
  -28.3879  -32.6829   25.0282 H   0  0  0  0  0  0
  -28.0744  -31.8353   26.5353 H   0  0  0  0  0  0
  -28.2612  -38.0084   24.7476 H   0  0  0  0  0  0
  -28.1080  -36.2627   24.6344 H   0  0  0  0  0  0
  -27.2306  -37.1507   25.8873 H   0  0  0  0  0  0
  -20.9403  -29.8592   21.6672 H   0  0  0  0  0  0
  -26.0185  -38.2843   24.1352 H   0  0  0  0  0  0
  -27.9126  -24.9334   21.7145 H   0  0  0  0  0  0
  -26.6759  -24.5861   20.5421 H   0  0  0  0  0  0
  -28.1555  -25.3104   18.6799 H   0  0  0  0  0  0
  -29.5663  -25.1637   19.6861 H   0  0  0  0  0  0
  -30.3121  -20.0416   18.4845 H   0  0  0  0  0  0
  -30.9054  -18.5925   17.9404 H   0  0  0  0  0  0
  -29.3568  -14.8857   21.9941 H   0  0  0  0  0  0
  -28.0534  -20.3123   18.6536 H   0  0  0  0  0  0
  -27.5723  -19.6469   22.5596 H   0  0  0  0  0  0
  -26.6825  -20.9584   21.8910 H   0  0  0  0  0  0
  1 25  1  0  0  0
  1 30  2  0  0  0
  1 81  1  0  0  0
  2  3  1  0  0  0
  2 25  1  0  0  0
  2 87  1  0  0  0
  2 88  1  0  0  0
  3  4  1  0  0  0
  3 89  1  0  0  0
  3 90  1  0  0  0
  4  5  1  0  0  0
  4 91  1  0  0  0
  4 92  1  0  0  0
  5  6  1  0  0  0
  5 26  1  0  0  0
  5 93  1  0  0  0
  6 25  1  0  0  0
  6 94  1  0  0  0
  6 95  1  0  0  0
  7  8  2  0  0  0
  7 26  1  0  0  0
  7 29  1  0  0  0
  8  9  1  0  0  0
  8 22  1  0  0  0
  9 10  1  0  0  0
  9 27  2  0  0  0
 10 11  2  0  0  0
 10 15  1  0  0  0
 11 12  1  0  0  0
 11 96  1  0  0  0
 12 13  2  0  0  0
 12 97  1  0  0  0
 13 14  1  0  0  0
 13 31  1  0  0  0
 14 15  2  0  0  0
 14 98  1  0  0  0
 15 99  1  0  0  0
 16 17  2  0  0  0
 16 21  1  0  0  0
 16 31  1  0  0  0
 17 18  1  0  0  0
 17100  1  0  0  0
 18 19  2  0  0  0
 18101  1  0  0  0
 19 20  1  0  0  0
 19 24  1  0  0  0
 20 21  2  0  0  0
 20102  1  0  0  0
 21 23  1  0  0  0
 22 28  1  0  0  0
 22 32  2  0  0  0
 26 27  1  0  0  0
 28103  1  0  0  0
 28104  1  0  0  0
 29105  1  0  0  0
 29106  1  0  0  0
 33 34  1  0  0  0
 33 66  1  0  0  0
 33 70  2  0  0  0
 34 36  1  0  0  0
 34 59  1  0  0  0
 34107  1  0  0  0
 35 44  2  0  0  0
 35 45  1  0  0  0
 35 68  1  0  0  0
 36 56  1  0  0  0
 36108  1  0  0  0
 37 39  1  0  0  0
 37 47  1  0  0  0
 37 66  1  0  0  0
 37109  1  0  0  0
 38 43  2  0  0  0
 38 46  1  0  0  0
 38 47  1  0  0  0
 39 64  1  0  0  0
 39 67  2  0  0  0
 40 52  1  0  0  0
 40 53  2  0  0  0
 40 58  1  0  0  0
 41110  1  0  0  0
 41111  1  0  0  0
 41112  1  0  0  0
 41 48  1  0  0  0
 42 43  1  0  0  0
 42 66  1  0  0  0
 42113  1  0  0  0
 42114  1  0  0  0
 43 44  1  0  0  0
 44115  1  0  0  0
 45 46  2  0  0  0
 45116  1  0  0  0
 46117  1  0  0  0
 47118  1  0  0  0
 47119  1  0  0  0
 48 56  1  0  0  0
 48 65  1  0  0  0
 48120  1  0  0  0
 49 50  1  0  0  0
 49 53  1  0  0  0
 49 64  1  0  0  0
 49121  1  0  0  0
 50 51  1  0  0  0
 50122  1  0  0  0
 50123  1  0  0  0
 51 52  1  0  0  0
 51124  1  0  0  0
 51125  1  0  0  0
 52126  1  0  0  0
 52127  1  0  0  0
 53 54  1  0  0  0
 54 55  2  0  0  0
 54128  1  0  0  0
 55 57  1  0  0  0
 55129  1  0  0  0
 56 69  2  0  0  0
 57 58  2  0  0  0
 57130  1  0  0  0
 58131  1  0  0  0
 59 60  1  0  0  0
 59 61  1  0  0  0
 59 62  1  0  0  0
 60132  1  0  0  0
 60133  1  0  0  0
 60134  1  0  0  0
 61135  1  0  0  0
 61136  1  0  0  0
 61137  1  0  0  0
 62138  1  0  0  0
 62139  1  0  0  0
 62140  1  0  0  0
 63 65  1  0  0  0
 63141  1  0  0  0
 63142  1  0  0  0
 63143  1  0  0  0
 64144  1  0  0  0
 65145  1  0  0  0
 68 78  1  0  0  0
 71 72  2  0  0  0
 71 74  1  0  0  0
 71 86  1  0  0  0
 72 79  1  0  0  0
 72 80  1  0  0  0
 73 79  2  0  0  0
 73 81  1  0  0  0
 73 86  1  0  0  0
 74 82  1  0  0  0
 74 83  2  0  0  0
 75 76  1  0  0  0
 75 77  1  0  0  0
 75 84  2  0  0  0
 76 82  1  0  0  0
 76 85  2  0  0  0
 77 78  1  0  0  0
 77146  1  0  0  0
 77147  1  0  0  0
 78148  1  0  0  0
 78149  1  0  0  0
 80150  1  0  0  0
 80151  1  0  0  0
 81152  1  0  0  0
 82153  1  0  0  0
 83154  1  0  0  0
 83155  1  0  0  0
M  CHG  1  83   1
M  ISO  4   1 100  68 101  78 101  81 100
M  END
> <chiral flag>
0

> <version>
0

> <s_m_source_file>
/data/baiqing/PycharmProjects/Reinvent-master-3.2/result/LINK_invent/BTK/process_docking_weight1_custom_product_contain_oxygen_bond_distance_aromatic_linkinvent_7_9_3/rearranged_h_0179.sdf

> <i_m_source_file_index>
72

> <r_mmod_Potential_Energy-OPLS-2005>
-297.653045654297

> <r_mmod_Stretch_Energy-OPLS-2005>
34.7918434143066

> <r_mmod_Bend_Energy-OPLS-2005>
119.861305236816

> <r_mmod_Torsional_Energy-OPLS-2005>
254.993835449219

> <r_mmod_Improper_Torsional_Energy-OPLS-2005>
13.2599468231201

> <r_mmod_Van_der_Waal_Energy-OPLS-2005>
147.408599853516

> <r_mmod_Electrostatic_Energy-OPLS-2005>
-343.621704101562

> <r_mmod_Solvation_Energy-OPLS-2005>
-535.576354980469

> <b_mmod_Minimization_Converged-OPLS-2005>
0

> <r_mmod_RMS_Derivative-OPLS-2005>
7.61489057540894

$$$$
72
                    3D
 Structure written by MMmdl.
154162  0  0  1  0            999 V2000
  -30.6240  -14.8127   20.4956 C   0  0  0  0  0  0
  -30.4411  -12.5038   19.5035 C   0  0  0  0  0  0
  -29.5214  -12.5158   18.2595 C   0  0  0  0  0  0
  -28.0571  -12.2833   18.6719 C   0  0  0  0  0  0
  -27.6388  -13.2064   19.8386 C   0  0  2  0  0  0
  -28.6794  -13.2126   20.9903 C   0  0  0  0  0  0
  -25.2400  -13.8009   20.5620 C   0  0  0  0  0  0
  -24.1743  -13.0293   20.9238 C   0  0  0  0  0  0
  -24.6364  -11.6802   20.8782 C   0  0  0  0  0  0
  -23.9044  -10.4211   21.0432 C   0  0  0  0  0  0
  -24.3599   -9.4137   21.9208 C   0  0  0  0  0  0
  -23.6273   -8.2177   22.0763 C   0  0  0  0  0  0
  -22.4257   -8.0233   21.3543 C   0  0  0  0  0  0
  -21.9893   -9.0206   20.4645 C   0  0  0  0  0  0
  -22.7221  -10.2079   20.3070 C   0  0  0  0  0  0
  -21.6836   -6.0705   22.5279 C   0  0  0  0  0  0
  -21.3997   -6.5618   23.8206 C   0  0  0  0  0  0
  -21.3658   -5.6782   24.9178 C   0  0  0  0  0  0
  -21.6056   -4.3043   24.7233 C   0  0  0  0  0  0
  -21.8829   -3.8124   23.4354 C   0  0  0  0  0  0
  -21.9187   -4.6936   22.3408 C   0  0  0  0  0  0
  -22.7775  -13.5125   21.1884 C   0  0  0  0  0  0
  -22.1666   -4.2120   21.0989 F   0  0  0  0  0  0
  -21.5638   -3.4535   25.7749 F   0  0  0  0  0  0
  -29.9962  -13.5744   20.4383 N   0  0  0  0  0  0
  -26.2887  -12.9251   20.3190 N   0  0  0  0  0  0
  -25.9289  -11.6421   20.5757 N   0  0  0  0  0  0
  -22.0409  -12.8156   22.0462 N   0  0  0  0  0  0
  -25.3743  -15.1700   20.3910 N   0  0  0  0  0  0
  -31.7501  -14.9291   20.0016 O   0  0  0  0  0  0
  -21.6618   -6.8837   21.4234 O   0  0  0  0  0  0
  -22.3485  -14.5439   20.6713 O   0  0  0  0  0  0
  -24.6339  -31.8535   23.1966 C   0  0  0  0  0  0
  -25.9155  -32.4746   23.8316 C   0  0  1  0  0  0
  -27.2305  -27.2426   20.1244 C   0  0  0  0  0  0
  -25.5948  -33.8549   24.2242 N   0  0  0  0  0  0
  -23.4335  -30.4765   21.5394 C   0  0  2  0  0  0
  -24.8830  -28.9227   20.1078 C   0  0  0  0  0  0
  -22.7526  -29.4601   22.4887 C   0  0  0  0  0  0
  -18.0303  -28.1410   22.8485 C   0  0  0  0  0  0
  -24.1485  -36.7270   23.2640 C   0  0  0  0  0  0
  -25.9818  -30.7580   21.3830 C   0  0  0  0  0  0
  -26.0537  -29.3794   20.7240 C   0  0  0  0  0  0
  -27.2242  -28.5499   20.7272 C   0  0  0  0  0  0
  -26.0337  -26.8684   19.4663 C   0  0  0  0  0  0
  -24.8792  -27.6753   19.4689 C   0  0  0  0  0  0
  -23.6546  -29.8114   20.1556 C   0  0  0  0  0  0
  -25.4113  -36.3056   24.0324 C   0  0  1  0  0  0
  -20.5911  -28.3725   23.1258 C   0  0  2  0  0  0
  -20.6798  -26.9440   22.5413 C   0  0  0  0  0  0
  -19.5768  -26.6395   21.5225 C   0  0  0  0  0  0
  -18.1944  -26.7952   22.1627 C   0  0  0  0  0  0
  -19.1559  -28.8884   23.2866 C   0  0  0  0  0  0
  -18.9478  -30.1482   23.8889 C   0  0  0  0  0  0
  -17.6476  -30.6604   24.0575 C   0  0  0  0  0  0
  -25.9061  -34.9434   23.5083 C   0  0  0  0  0  0
  -16.5366  -29.9108   23.6337 C   0  0  0  0  0  0
  -16.7288  -28.6531   23.0347 C   0  0  0  0  0  0
  -26.4517  -31.6586   25.0720 C   0  0  0  0  0  0
  -25.3736  -31.3767   26.1440 C   0  0  0  0  0  0
  -27.0384  -30.2998   24.6247 C   0  0  0  0  0  0
  -27.6053  -32.4352   25.7499 C   0  0  0  0  0  0
  -27.5573  -37.1786   24.8465 C   0  0  0  0  0  0
  -21.4230  -29.3057   22.3631 N   0  0  0  0  0  0
  -26.4281  -37.3764   23.9417 N   0  0  0  0  0  0
  -24.7022  -31.0479   22.0954 N   0  0  0  0  0  0
  -23.4211  -28.8139   23.2996 O   0  0  0  0  0  0
  -28.3271  -26.3380   20.2184 O   0  0  0  0  0  0
  -26.5630  -34.8917   22.4648 O   0  0  0  0  0  0
  -23.5481  -32.1361   23.7247 O   0  0  0  0  0  0
  -27.2161  -17.9988   19.9358 C   0  0  0  0  0  0
  -28.0942  -16.9547   20.2161 C   0  0  0  0  0  0
  -27.6373  -19.3273   20.0560 C   0  0  0  0  0  0
  -29.4120  -17.1725   20.6131 C   0  0  0  0  0  0
  -28.9914  -19.6212   20.4136 C   0  0  0  0  0  0
  -29.0381  -23.7197   20.3765 C   0  0  0  0  0  0
  -28.9473  -22.1742   19.7931 C   0  0  0  0  0  0
  -28.7341  -25.1286   18.1798 C   0  0  0  0  0  0
  -28.2616  -24.9398   19.6362 C   0  0  2  0  0  0
  -29.8283  -18.5184   20.7190 N   0  0  0  0  0  0
  -26.6449  -20.2930   19.8541 N   0  0  0  0  0  0
  -29.3192  -21.0769   20.5748 N   0  0  0  0  0  0
  -30.0036  -15.8959   21.1196 N   0  0  0  0  0  0
  -29.6919  -23.9501   21.4003 O   0  0  0  0  0  0
  -28.5626  -22.0076   18.6304 O   0  0  0  0  0  0
  -31.4805  -12.6308   19.1963 H   0  0  0  0  0  0
  -30.4014  -11.5334   20.0011 H   0  0  0  0  0  0
  -29.8360  -11.7498   17.5496 H   0  0  0  0  0  0
  -29.6124  -13.4711   17.7391 H   0  0  0  0  0  0
  -27.9553  -11.2402   18.9725 H   0  0  0  0  0  0
  -27.3927  -12.4220   17.8175 H   0  0  0  0  0  0
  -27.6086  -14.1804   19.3672 H   0  0  0  0  0  0
  -28.7263  -12.2343   21.4698 H   0  0  0  0  0  0
  -28.3729  -13.9118   21.7686 H   0  0  0  0  0  0
  -25.2733   -9.5611   22.4795 H   0  0  0  0  0  0
  -23.9963   -7.4564   22.7491 H   0  0  0  0  0  0
  -21.0815   -8.8730   19.8956 H   0  0  0  0  0  0
  -22.3678  -10.9629   19.6191 H   0  0  0  0  0  0
  -21.1978   -7.6126   23.9700 H   0  0  0  0  0  0
  -21.1484   -6.0515   25.9083 H   0  0  0  0  0  0
  -22.0610   -2.7583   23.2865 H   0  0  0  0  0  0
  -22.4007  -11.9815   22.4867 H   0  0  0  0  0  0
  -21.1043  -13.1220   22.2675 H   0  0  0  0  0  0
  -24.5709  -15.7819   20.4820 H   0  0  0  0  0  0
  -26.1615  -15.6118   19.9421 H   0  0  0  0  0  0
  -26.7229  -32.5390   23.1061 H   0  0  0  0  0  0
  -25.0115  -33.9686   25.0405 H   0  0  0  0  0  0
  -22.7317  -31.2997   21.3914 H   0  0  0  0  0  0
  -23.3752  -35.9597   23.3296 H   0  0  0  0  0  0
  -24.3577  -36.8899   22.2056 H   0  0  0  0  0  0
  -23.7231  -37.6464   23.6676 H   0  0  0  0  0  0
  -26.1275  -31.5183   20.6141 H   0  0  0  0  0  0
  -26.8566  -30.8042   22.0200 H   0  0  0  0  0  0
  -28.1148  -28.8941   21.2340 H   0  0  0  0  0  0
  -25.9396  -25.9282   18.9482 H   0  0  0  0  0  0
  -23.9861  -27.3220   18.9725 H   0  0  0  0  0  0
  -23.7840  -30.5883   19.4008 H   0  0  0  0  0  0
  -22.7729  -29.2478   19.8466 H   0  0  0  0  0  0
  -25.1297  -36.1888   25.0817 H   0  0  0  0  0  0
  -21.0010  -28.3313   24.1374 H   0  0  0  0  0  0
  -20.5713  -26.2339   23.3622 H   0  0  0  0  0  0
  -21.6662  -26.7470   22.1193 H   0  0  0  0  0  0
  -19.6930  -25.6300   21.1265 H   0  0  0  0  0  0
  -19.6706  -27.3201   20.6751 H   0  0  0  0  0  0
  -17.4220  -26.6704   21.4021 H   0  0  0  0  0  0
  -18.0329  -26.0101   22.9027 H   0  0  0  0  0  0
  -19.7955  -30.7309   24.2238 H   0  0  0  0  0  0
  -17.5033  -31.6277   24.5191 H   0  0  0  0  0  0
  -15.5369  -30.3010   23.7670 H   0  0  0  0  0  0
  -15.8685  -28.0858   22.7050 H   0  0  0  0  0  0
  -24.5890  -30.7141   25.7771 H   0  0  0  0  0  0
  -24.8960  -32.2958   26.4846 H   0  0  0  0  0  0
  -25.8035  -30.8948   27.0229 H   0  0  0  0  0  0
  -26.2992  -29.6723   24.1257 H   0  0  0  0  0  0
  -27.4038  -29.7286   25.4790 H   0  0  0  0  0  0
  -27.8878  -30.4264   23.9532 H   0  0  0  0  0  0
  -27.2636  -33.3650   26.2061 H   0  0  0  0  0  0
  -28.3868  -32.6922   25.0338 H   0  0  0  0  0  0
  -28.0725  -31.8501   26.5431 H   0  0  0  0  0  0
  -28.2585  -38.0089   24.7516 H   0  0  0  0  0  0
  -28.1072  -36.2617   24.6281 H   0  0  0  0  0  0
  -27.2298  -37.1422   25.8871 H   0  0  0  0  0  0
  -20.9420  -29.8771   21.6826 H   0  0  0  0  0  0
  -26.0147  -38.2829   24.1438 H   0  0  0  0  0  0
  -26.1909  -17.7729   19.6795 H   0  0  0  0  0  0
  -27.7143  -15.9616   20.2178 H   0  0  0  0  0  0
  -28.6326  -24.2264   17.5803 H   0  0  0  0  0  0
  -29.7795  -25.4362   18.1461 H   0  0  0  0  0  0
  -28.1508  -25.8987   17.6757 H   0  0  0  0  0  0
  -27.2309  -24.5946   19.6382 H   0  0  0  0  0  0
  -25.7741  -19.9628   19.4500 H   0  0  0  0  0  0
  -26.9817  -21.1126   19.3514 H   0  0  0  0  0  0
  -29.7931  -21.3204   21.4314 H   0  0  0  0  0  0
  -29.3684  -15.4961   21.7912 H   0  0  0  0  0  0
  1 25  1  0  0  0
  1 30  2  0  0  0
  1 83  1  0  0  0
  2  3  1  0  0  0
  2 25  1  0  0  0
  2 86  1  0  0  0
  2 87  1  0  0  0
  3  4  1  0  0  0
  3 88  1  0  0  0
  3 89  1  0  0  0
  4  5  1  0  0  0
  4 90  1  0  0  0
  4 91  1  0  0  0
  5  6  1  0  0  0
  5 26  1  0  0  0
  5 92  1  0  0  0
  6 25  1  0  0  0
  6 93  1  0  0  0
  6 94  1  0  0  0
  7  8  2  0  0  0
  7 26  1  0  0  0
  7 29  1  0  0  0
  8  9  1  0  0  0
  8 22  1  0  0  0
  9 10  1  0  0  0
  9 27  2  0  0  0
 10 11  2  0  0  0
 10 15  1  0  0  0
 11 12  1  0  0  0
 11 95  1  0  0  0
 12 13  2  0  0  0
 12 96  1  0  0  0
 13 14  1  0  0  0
 13 31  1  0  0  0
 14 15  2  0  0  0
 14 97  1  0  0  0
 15 98  1  0  0  0
 16 17  2  0  0  0
 16 21  1  0  0  0
 16 31  1  0  0  0
 17 18  1  0  0  0
 17 99  1  0  0  0
 18 19  2  0  0  0
 18100  1  0  0  0
 19 20  1  0  0  0
 19 24  1  0  0  0
 20 21  2  0  0  0
 20101  1  0  0  0
 21 23  1  0  0  0
 22 28  1  0  0  0
 22 32  2  0  0  0
 26 27  1  0  0  0
 28102  1  0  0  0
 28103  1  0  0  0
 29104  1  0  0  0
 29105  1  0  0  0
 33 34  1  0  0  0
 33 66  1  0  0  0
 33 70  2  0  0  0
 34 36  1  0  0  0
 34 59  1  0  0  0
 34106  1  0  0  0
 35 44  2  0  0  0
 35 45  1  0  0  0
 35 68  1  0  0  0
 36 56  1  0  0  0
 36107  1  0  0  0
 37 39  1  0  0  0
 37 47  1  0  0  0
 37 66  1  0  0  0
 37108  1  0  0  0
 38 43  2  0  0  0
 38 46  1  0  0  0
 38 47  1  0  0  0
 39 64  1  0  0  0
 39 67  2  0  0  0
 40 52  1  0  0  0
 40 53  2  0  0  0
 40 58  1  0  0  0
 41109  1  0  0  0
 41110  1  0  0  0
 41111  1  0  0  0
 41 48  1  0  0  0
 42 43  1  0  0  0
 42 66  1  0  0  0
 42112  1  0  0  0
 42113  1  0  0  0
 43 44  1  0  0  0
 44114  1  0  0  0
 45 46  2  0  0  0
 45115  1  0  0  0
 46116  1  0  0  0
 47117  1  0  0  0
 47118  1  0  0  0
 48 56  1  0  0  0
 48 65  1  0  0  0
 48119  1  0  0  0
 49 50  1  0  0  0
 49 53  1  0  0  0
 49 64  1  0  0  0
 49120  1  0  0  0
 50 51  1  0  0  0
 50121  1  0  0  0
 50122  1  0  0  0
 51 52  1  0  0  0
 51123  1  0  0  0
 51124  1  0  0  0
 52125  1  0  0  0
 52126  1  0  0  0
 53 54  1  0  0  0
 54 55  2  0  0  0
 54127  1  0  0  0
 55 57  1  0  0  0
 55128  1  0  0  0
 56 69  2  0  0  0
 57 58  2  0  0  0
 57129  1  0  0  0
 58130  1  0  0  0
 59 60  1  0  0  0
 59 61  1  0  0  0
 59 62  1  0  0  0
 60131  1  0  0  0
 60132  1  0  0  0
 60133  1  0  0  0
 61134  1  0  0  0
 61135  1  0  0  0
 61136  1  0  0  0
 62137  1  0  0  0
 62138  1  0  0  0
 62139  1  0  0  0
 63 65  1  0  0  0
 63140  1  0  0  0
 63141  1  0  0  0
 63142  1  0  0  0
 64143  1  0  0  0
 65144  1  0  0  0
 68 79  1  0  0  0
 71 72  2  0  0  0
 71 73  1  0  0  0
 71145  1  0  0  0
 72 74  1  0  0  0
 72146  1  0  0  0
 73 75  2  0  0  0
 73 81  1  0  0  0
 74 80  2  0  0  0
 74 83  1  0  0  0
 75 80  1  0  0  0
 75 82  1  0  0  0
 76 77  1  0  0  0
 76 79  1  0  0  0
 76 84  2  0  0  0
 77 82  1  0  0  0
 77 85  2  0  0  0
 78147  1  0  0  0
 78148  1  0  0  0
 78149  1  0  0  0
 78 79  1  0  0  0
 79150  1  0  0  0
 81151  1  0  0  0
 81152  1  0  0  0
 82153  1  0  0  0
 83154  1  0  0  0
M  ISO  4   1 100  68 101  79 101  83 100
M  END
> <chiral flag>
0

> <version>
0

> <s_m_source_file>
/data/baiqing/PycharmProjects/Reinvent-master-3.2/result/LINK_invent/BTK/process_docking_weight1_custom_product_contain_oxygen_bond_distance_aromatic_linkinvent_7_9_3/rearranged_h_0179.sdf

> <i_m_source_file_index>
73

> <r_mmod_Potential_Energy-OPLS-2005>
165.443710327148

> <r_mmod_Stretch_Energy-OPLS-2005>
165.327621459961

> <r_mmod_Bend_Energy-OPLS-2005>
209.666091918945

> <r_mmod_Torsional_Energy-OPLS-2005>
285.527313232422

> <r_mmod_Improper_Torsional_Energy-OPLS-2005>
14.8523111343384

> <r_mmod_Van_der_Waal_Energy-OPLS-2005>
161.677871704102

> <r_mmod_Electrostatic_Energy-OPLS-2005>
-524.268737792969

> <r_mmod_Solvation_Energy-OPLS-2005>
-257.386199951172

> <b_mmod_Minimization_Converged-OPLS-2005>
0

> <r_mmod_RMS_Derivative-OPLS-2005>
1.1822338104248

$$$$
73
                    3D
 Structure written by MMmdl.
157165  0  0  1  0            999 V2000
  -30.6272  -14.6027   20.5235 C   0  0  0  0  0  0
  -30.4404  -12.3691   19.4476 C   0  0  0  0  0  0
  -29.5092  -12.5023   18.2218 C   0  0  0  0  0  0
  -28.0296  -12.3482   18.6309 C   0  0  0  0  0  0
  -27.6578  -13.2094   19.8666 C   0  0  2  0  0  0
  -28.7012  -13.0366   20.9944 C   0  0  0  0  0  0
  -25.2596  -13.8155   20.5688 C   0  0  0  0  0  0
  -24.1854  -13.0431   20.9197 C   0  0  0  0  0  0
  -24.6407  -11.6901   20.8739 C   0  0  0  0  0  0
  -23.9067  -10.4290   21.0408 C   0  0  0  0  0  0
  -24.3620   -9.4206   21.9187 C   0  0  0  0  0  0
  -23.6300   -8.2239   22.0752 C   0  0  0  0  0  0
  -22.4279   -8.0281   21.3547 C   0  0  0  0  0  0
  -21.9912   -9.0253   20.4651 C   0  0  0  0  0  0
  -22.7236  -10.2135   20.3064 C   0  0  0  0  0  0
  -21.6855   -6.0743   22.5290 C   0  0  0  0  0  0
  -21.4012   -6.5644   23.8223 C   0  0  0  0  0  0
  -21.3661   -5.6799   24.9183 C   0  0  0  0  0  0
  -21.6042   -4.3061   24.7235 C   0  0  0  0  0  0
  -21.8817   -3.8152   23.4356 C   0  0  0  0  0  0
  -21.9194   -4.6970   22.3410 C   0  0  0  0  0  0
  -22.7883  -13.5236   21.1863 C   0  0  0  0  0  0
  -22.1664   -4.2158   21.0989 F   0  0  0  0  0  0
  -21.5624   -3.4543   25.7744 F   0  0  0  0  0  0
  -30.0218  -13.3776   20.4399 N   0  0  0  0  0  0
  -26.3017  -12.9323   20.3325 N   0  0  0  0  0  0
  -25.9332  -11.6486   20.5750 N   0  0  0  0  0  0
  -22.0513  -12.8235   22.0414 N   0  0  0  0  0  0
  -25.4305  -15.1876   20.4088 N   0  0  0  0  0  0
  -31.7797  -14.7804   20.1133 O   0  0  0  0  0  0
  -21.6641   -6.8882   21.4250 O   0  0  0  0  0  0
  -22.3581  -14.5545   20.6713 O   0  0  0  0  0  0
  -24.6212  -31.8632   23.2044 C   0  0  0  0  0  0
  -25.9067  -32.4808   23.8360 C   0  0  1  0  0  0
  -27.2256  -27.3605   20.1093 C   0  0  0  0  0  0
  -25.5884  -33.8610   24.2276 N   0  0  0  0  0  0
  -23.4135  -30.4884   21.5476 C   0  0  2  0  0  0
  -24.8609  -28.9411   20.1165 C   0  0  0  0  0  0
  -22.7441  -29.4664   22.4957 C   0  0  0  0  0  0
  -18.0290  -28.1401   22.8512 C   0  0  0  0  0  0
  -24.1487  -36.7313   23.2633 C   0  0  0  0  0  0
  -25.9513  -30.8037   21.3713 C   0  0  0  0  0  0
  -26.0274  -29.4316   20.7191 C   0  0  0  0  0  0
  -27.2170  -28.6503   20.7109 C   0  0  0  0  0  0
  -26.0423  -26.9036   19.4966 C   0  0  0  0  0  0
  -24.8650  -27.6777   19.5028 C   0  0  0  0  0  0
  -23.6271  -29.8208   20.1640 C   0  0  0  0  0  0
  -25.4108  -36.3105   24.0322 C   0  0  1  0  0  0
  -20.5891  -28.3693   23.1305 C   0  0  2  0  0  0
  -20.6770  -26.9417   22.5430 C   0  0  0  0  0  0
  -19.5752  -26.6394   21.5229 C   0  0  0  0  0  0
  -18.1933  -26.7959   22.1640 C   0  0  0  0  0  0
  -19.1541  -28.8862   23.2911 C   0  0  0  0  0  0
  -18.9465  -30.1470   23.8929 C   0  0  0  0  0  0
  -17.6460  -30.6598   24.0584 C   0  0  0  0  0  0
  -25.9050  -34.9479   23.5110 C   0  0  0  0  0  0
  -16.5360  -29.9101   23.6330 C   0  0  0  0  0  0
  -16.7276  -28.6516   23.0364 C   0  0  0  0  0  0
  -26.4448  -31.6608   25.0723 C   0  0  0  0  0  0
  -25.3694  -31.3772   26.1475 C   0  0  0  0  0  0
  -27.0246  -30.3023   24.6160 C   0  0  0  0  0  0
  -27.6037  -32.4307   25.7466 C   0  0  0  0  0  0
  -27.5591  -37.1793   24.8452 C   0  0  0  0  0  0
  -21.4158  -29.3050   22.3682 N   0  0  0  0  0  0
  -26.4291  -37.3792   23.9416 N   0  0  0  0  0  0
  -24.6806  -31.0680   22.0985 N   0  0  0  0  0  0
  -23.4174  -28.8213   23.3023 O   0  0  0  0  0  0
  -28.3264  -26.5121   20.0735 O   0  0  0  0  0  0
  -26.5635  -34.8937   22.4686 O   0  0  0  0  0  0
  -23.5388  -32.1411   23.7397 O   0  0  0  0  0  0
  -29.4213  -19.5754   20.8781 C   0  0  0  0  0  0
  -30.5974  -19.1751   20.2637 C   0  0  0  0  0  0
  -29.8673  -17.0581   20.8306 C   0  0  0  0  0  0
  -28.4648  -25.6131   21.1257 C   0  0  0  0  0  0
  -28.6900  -24.2545   21.1368 C   0  0  0  0  0  0
  -28.7931  -23.3837   19.9311 C   0  0  0  0  0  0
  -27.5247  -20.9466   21.9449 C   0  0  0  0  0  0
  -28.3724  -21.2862   18.7697 C   0  0  0  0  0  0
  -28.8651  -21.0134   21.1724 C   0  0  2  0  0  0
  -30.8333  -17.7802   20.2405 N   0  0  0  0  0  0
  -31.5496  -20.0226   19.7041 N   0  0  0  0  0  0
  -29.8202  -15.6126   20.9605 N   0  0  0  0  0  0
  -28.7126  -21.9881   20.0214 N   0  0  0  0  0  0
  -28.8877  -23.9053   18.8143 O   0  0  0  0  0  0
  -28.8218  -23.7174   22.3566 O   0  0  0  0  0  0
  -28.5747  -18.1144   21.4311 S   0  0  0  0  0  0
  -31.4822  -12.4929   19.1476 H   0  0  0  0  0  0
  -30.3699  -11.3681   19.8750 H   0  0  0  0  0  0
  -29.7658  -11.7534   17.4707 H   0  0  0  0  0  0
  -29.6611  -13.4746   17.7483 H   0  0  0  0  0  0
  -27.8573  -11.2940   18.8515 H   0  0  0  0  0  0
  -27.3789  -12.5923   17.7908 H   0  0  0  0  0  0
  -27.6844  -14.2478   19.5366 H   0  0  0  0  0  0
  -28.7074  -12.0070   21.3560 H   0  0  0  0  0  0
  -28.4487  -13.6471   21.8626 H   0  0  0  0  0  0
  -25.2763   -9.5692   22.4766 H   0  0  0  0  0  0
  -24.0020   -7.4631   22.7466 H   0  0  0  0  0  0
  -21.0842   -8.8775   19.8959 H   0  0  0  0  0  0
  -22.3691  -10.9682   19.6184 H   0  0  0  0  0  0
  -21.2001   -7.6155   23.9733 H   0  0  0  0  0  0
  -21.1482   -6.0527   25.9091 H   0  0  0  0  0  0
  -22.0591   -2.7619   23.2855 H   0  0  0  0  0  0
  -22.4115  -11.9887   22.4794 H   0  0  0  0  0  0
  -21.1139  -13.1285   22.2613 H   0  0  0  0  0  0
  -24.6553  -15.8339   20.5064 H   0  0  0  0  0  0
  -26.2635  -15.6256   20.0377 H   0  0  0  0  0  0
  -26.7140  -32.5482   23.1110 H   0  0  0  0  0  0
  -24.9964  -33.9758   25.0375 H   0  0  0  0  0  0
  -22.7043  -31.3067   21.4046 H   0  0  0  0  0  0
  -23.3758  -35.9640   23.3291 H   0  0  0  0  0  0
  -24.3575  -36.8949   22.2052 H   0  0  0  0  0  0
  -23.7246  -37.6512   23.6661 H   0  0  0  0  0  0
  -26.0732  -31.5653   20.6003 H   0  0  0  0  0  0
  -26.8360  -30.8571   21.9947 H   0  0  0  0  0  0
  -28.1186  -29.0269   21.1733 H   0  0  0  0  0  0
  -26.0318  -25.9327   19.0224 H   0  0  0  0  0  0
  -23.9687  -27.2941   19.0347 H   0  0  0  0  0  0
  -23.7416  -30.5979   19.4069 H   0  0  0  0  0  0
  -22.7479  -29.2486   19.8638 H   0  0  0  0  0  0
  -25.1283  -36.1951   25.0814 H   0  0  0  0  0  0
  -20.9995  -28.3293   24.1422 H   0  0  0  0  0  0
  -20.5672  -26.2299   23.3619 H   0  0  0  0  0  0
  -21.6636  -26.7435   22.1236 H   0  0  0  0  0  0
  -19.6897  -25.6299   21.1264 H   0  0  0  0  0  0
  -19.6718  -27.3196   20.6760 H   0  0  0  0  0  0
  -17.4197  -26.6727   21.4053 H   0  0  0  0  0  0
  -18.0342  -26.0085   22.9018 H   0  0  0  0  0  0
  -19.7936  -30.7298   24.2304 H   0  0  0  0  0  0
  -17.5014  -31.6290   24.5175 H   0  0  0  0  0  0
  -15.5369  -30.3018   23.7630 H   0  0  0  0  0  0
  -15.8682  -28.0843   22.7067 H   0  0  0  0  0  0
  -24.5826  -30.7153   25.7829 H   0  0  0  0  0  0
  -24.8929  -32.2963   26.4909 H   0  0  0  0  0  0
  -25.8030  -30.8938   27.0244 H   0  0  0  0  0  0
  -26.2800  -29.6825   24.1156 H   0  0  0  0  0  0
  -27.3898  -29.7235   25.4653 H   0  0  0  0  0  0
  -27.8697  -30.4289   23.9389 H   0  0  0  0  0  0
  -27.2670  -33.3606   26.2053 H   0  0  0  0  0  0
  -28.3834  -32.6861   25.0276 H   0  0  0  0  0  0
  -28.0705  -31.8414   26.5364 H   0  0  0  0  0  0
  -28.2597  -38.0108   24.7526 H   0  0  0  0  0  0
  -28.1099  -36.2637   24.6227 H   0  0  0  0  0  0
  -27.2316  -37.1398   25.8860 H   0  0  0  0  0  0
  -20.9303  -29.8734   21.6880 H   0  0  0  0  0  0
  -26.0180  -38.2866   24.1451 H   0  0  0  0  0  0
  -28.3826  -26.1463   22.0617 H   0  0  0  0  0  0
  -27.6314  -20.3972   22.8820 H   0  0  0  0  0  0
  -26.7569  -20.4449   21.3560 H   0  0  0  0  0  0
  -27.1187  -21.9239   22.1979 H   0  0  0  0  0  0
  -27.6450  -21.8400   18.1732 H   0  0  0  0  0  0
  -27.9081  -20.3160   18.9418 H   0  0  0  0  0  0
  -29.2641  -21.1390   18.1613 H   0  0  0  0  0  0
  -29.6074  -21.4465   21.8422 H   0  0  0  0  0  0
  -31.2956  -20.9788   19.4820 H   0  0  0  0  0  0
  -32.2564  -19.6291   19.0922 H   0  0  0  0  0  0
  -28.9500  -15.2724   21.3377 H   0  0  0  0  0  0
  -28.9489  -22.7864   22.2412 H   0  0  0  0  0  0
  1 25  1  0  0  0
  1 30  2  0  0  0
  1 82  1  0  0  0
  2  3  1  0  0  0
  2 25  1  0  0  0
  2 87  1  0  0  0
  2 88  1  0  0  0
  3  4  1  0  0  0
  3 89  1  0  0  0
  3 90  1  0  0  0
  4  5  1  0  0  0
  4 91  1  0  0  0
  4 92  1  0  0  0
  5  6  1  0  0  0
  5 26  1  0  0  0
  5 93  1  0  0  0
  6 25  1  0  0  0
  6 94  1  0  0  0
  6 95  1  0  0  0
  7  8  2  0  0  0
  7 26  1  0  0  0
  7 29  1  0  0  0
  8  9  1  0  0  0
  8 22  1  0  0  0
  9 10  1  0  0  0
  9 27  2  0  0  0
 10 11  2  0  0  0
 10 15  1  0  0  0
 11 12  1  0  0  0
 11 96  1  0  0  0
 12 13  2  0  0  0
 12 97  1  0  0  0
 13 14  1  0  0  0
 13 31  1  0  0  0
 14 15  2  0  0  0
 14 98  1  0  0  0
 15 99  1  0  0  0
 16 17  2  0  0  0
 16 21  1  0  0  0
 16 31  1  0  0  0
 17 18  1  0  0  0
 17100  1  0  0  0
 18 19  2  0  0  0
 18101  1  0  0  0
 19 20  1  0  0  0
 19 24  1  0  0  0
 20 21  2  0  0  0
 20102  1  0  0  0
 21 23  1  0  0  0
 22 28  1  0  0  0
 22 32  2  0  0  0
 26 27  1  0  0  0
 28103  1  0  0  0
 28104  1  0  0  0
 29105  1  0  0  0
 29106  1  0  0  0
 33 34  1  0  0  0
 33 66  1  0  0  0
 33 70  2  0  0  0
 34 36  1  0  0  0
 34 59  1  0  0  0
 34107  1  0  0  0
 35 44  2  0  0  0
 35 45  1  0  0  0
 35 68  1  0  0  0
 36 56  1  0  0  0
 36108  1  0  0  0
 37 39  1  0  0  0
 37 47  1  0  0  0
 37 66  1  0  0  0
 37109  1  0  0  0
 38 43  2  0  0  0
 38 46  1  0  0  0
 38 47  1  0  0  0
 39 64  1  0  0  0
 39 67  2  0  0  0
 40 52  1  0  0  0
 40 53  2  0  0  0
 40 58  1  0  0  0
 41110  1  0  0  0
 41111  1  0  0  0
 41112  1  0  0  0
 41 48  1  0  0  0
 42 43  1  0  0  0
 42 66  1  0  0  0
 42113  1  0  0  0
 42114  1  0  0  0
 43 44  1  0  0  0
 44115  1  0  0  0
 45 46  2  0  0  0
 45116  1  0  0  0
 46117  1  0  0  0
 47118  1  0  0  0
 47119  1  0  0  0
 48 56  1  0  0  0
 48 65  1  0  0  0
 48120  1  0  0  0
 49 50  1  0  0  0
 49 53  1  0  0  0
 49 64  1  0  0  0
 49121  1  0  0  0
 50 51  1  0  0  0
 50122  1  0  0  0
 50123  1  0  0  0
 51 52  1  0  0  0
 51124  1  0  0  0
 51125  1  0  0  0
 52126  1  0  0  0
 52127  1  0  0  0
 53 54  1  0  0  0
 54 55  2  0  0  0
 54128  1  0  0  0
 55 57  1  0  0  0
 55129  1  0  0  0
 56 69  2  0  0  0
 57 58  2  0  0  0
 57130  1  0  0  0
 58131  1  0  0  0
 59 60  1  0  0  0
 59 61  1  0  0  0
 59 62  1  0  0  0
 60132  1  0  0  0
 60133  1  0  0  0
 60134  1  0  0  0
 61135  1  0  0  0
 61136  1  0  0  0
 61137  1  0  0  0
 62138  1  0  0  0
 62139  1  0  0  0
 62140  1  0  0  0
 63 65  1  0  0  0
 63141  1  0  0  0
 63142  1  0  0  0
 63143  1  0  0  0
 64144  1  0  0  0
 65145  1  0  0  0
 68 74  1  0  0  0
 71 72  2  0  0  0
 71 79  1  0  0  0
 71 86  1  0  0  0
 72 80  1  0  0  0
 72 81  1  0  0  0
 73 80  2  0  0  0
 73 82  1  0  0  0
 73 86  1  0  0  0
 74 75  2  0  0  0
 74146  1  0  0  0
 75 76  1  0  0  0
 75 85  1  0  0  0
 76 83  1  0  0  0
 76 84  2  0  0  0
 77147  1  0  0  0
 77148  1  0  0  0
 77149  1  0  0  0
 77 79  1  0  0  0
 78 83  1  0  0  0
 78150  1  0  0  0
 78151  1  0  0  0
 78152  1  0  0  0
 79 83  1  0  0  0
 79153  1  0  0  0
 81154  1  0  0  0
 81155  1  0  0  0
 82156  1  0  0  0
 85157  1  0  0  0
M  ISO  4   1 100  68 101  74 101  82 100
M  END
> <chiral flag>
0

> <version>
0

> <s_m_source_file>
/data/baiqing/PycharmProjects/Reinvent-master-3.2/result/LINK_invent/BTK/process_docking_weight1_custom_product_contain_oxygen_bond_distance_aromatic_linkinvent_7_9_3/rearranged_h_0179.sdf

> <i_m_source_file_index>
74

> <r_mmod_Potential_Energy-OPLS-2005>
6.84062194824219

> <r_mmod_Stretch_Energy-OPLS-2005>
75.0598983764648

> <r_mmod_Bend_Energy-OPLS-2005>
173.875061035156

> <r_mmod_Torsional_Energy-OPLS-2005>
238.130844116211

> <r_mmod_Improper_Torsional_Energy-OPLS-2005>
6.47768259048462

> <r_mmod_Van_der_Waal_Energy-OPLS-2005>
136.760940551758

> <r_mmod_Electrostatic_Energy-OPLS-2005>
-399.570098876953

> <r_mmod_Solvation_Energy-OPLS-2005>
-259.008209228516

> <b_mmod_Minimization_Converged-OPLS-2005>
0

> <r_mmod_RMS_Derivative-OPLS-2005>
2.3345057964325

$$$$
74
                    3D
 Structure written by MMmdl.
149157  0  0  1  0            999 V2000
  -30.5494  -14.9034   20.4354 C   0  0  0  0  0  0
  -30.4465  -12.5632   19.4775 C   0  0  0  0  0  0
  -29.5203  -12.5310   18.2402 C   0  0  0  0  0  0
  -28.0518  -12.3196   18.6607 C   0  0  0  0  0  0
  -27.6329  -13.2402   19.8375 C   0  0  2  0  0  0
  -28.6812  -13.2409   20.9699 C   0  0  0  0  0  0
  -25.2488  -13.8195   20.5699 C   0  0  0  0  0  0
  -24.1792  -13.0428   20.9217 C   0  0  0  0  0  0
  -24.6398  -11.6911   20.8745 C   0  0  0  0  0  0
  -23.9082  -10.4286   21.0422 C   0  0  0  0  0  0
  -24.3626   -9.4199   21.9199 C   0  0  0  0  0  0
  -23.6299   -8.2235   22.0759 C   0  0  0  0  0  0
  -22.4282   -8.0287   21.3545 C   0  0  0  0  0  0
  -21.9925   -9.0269   20.4650 C   0  0  0  0  0  0
  -22.7259  -10.2139   20.3069 C   0  0  0  0  0  0
  -21.6859   -6.0745   22.5279 C   0  0  0  0  0  0
  -21.4016   -6.5643   23.8216 C   0  0  0  0  0  0
  -21.3653   -5.6788   24.9172 C   0  0  0  0  0  0
  -21.6043   -4.3054   24.7219 C   0  0  0  0  0  0
  -21.8814   -3.8151   23.4338 C   0  0  0  0  0  0
  -21.9185   -4.6968   22.3393 C   0  0  0  0  0  0
  -22.7807  -13.5214   21.1868 C   0  0  0  0  0  0
  -22.1656   -4.2158   21.0972 F   0  0  0  0  0  0
  -21.5626   -3.4529   25.7729 F   0  0  0  0  0  0
  -29.9569  -13.6475   20.3669 N   0  0  0  0  0  0
  -26.2908  -12.9411   20.3222 N   0  0  0  0  0  0
  -25.9335  -11.6551   20.5723 N   0  0  0  0  0  0
  -22.0429  -12.8233   22.0420 N   0  0  0  0  0  0
  -25.4132  -15.1929   20.4138 N   0  0  0  0  0  0
  -31.7656  -14.9775   20.2294 O   0  0  0  0  0  0
  -21.6637   -6.8895   21.4251 O   0  0  0  0  0  0
  -22.3496  -14.5518   20.6700 O   0  0  0  0  0  0
  -24.6407  -31.8479   23.1922 C   0  0  0  0  0  0
  -25.9186  -32.4722   23.8306 C   0  0  1  0  0  0
  -27.2271  -27.1772   20.1415 C   0  0  0  0  0  0
  -25.5944  -33.8535   24.2215 N   0  0  0  0  0  0
  -23.4425  -30.4684   21.5377 C   0  0  2  0  0  0
  -24.8918  -28.9046   20.1095 C   0  0  0  0  0  0
  -22.7549  -29.4562   22.4875 C   0  0  0  0  0  0
  -18.0297  -28.1382   22.8472 C   0  0  0  0  0  0
  -24.1487  -36.7281   23.2640 C   0  0  0  0  0  0
  -25.9970  -30.7351   21.3860 C   0  0  0  0  0  0
  -26.0701  -29.3523   20.7221 C   0  0  0  0  0  0
  -27.2378  -28.5048   20.7219 C   0  0  0  0  0  0
  -26.0069  -26.8082   19.5287 C   0  0  0  0  0  0
  -24.8697  -27.6419   19.5001 C   0  0  0  0  0  0
  -23.6671  -29.8034   20.1547 C   0  0  0  0  0  0
  -25.4119  -36.3056   24.0311 C   0  0  1  0  0  0
  -20.5908  -28.3715   23.1244 C   0  0  2  0  0  0
  -20.6792  -26.9425   22.5408 C   0  0  0  0  0  0
  -19.5773  -26.6371   21.5215 C   0  0  0  0  0  0
  -18.1942  -26.7922   22.1611 C   0  0  0  0  0  0
  -19.1547  -28.8865   23.2849 C   0  0  0  0  0  0
  -18.9470  -30.1455   23.8881 C   0  0  0  0  0  0
  -17.6470  -30.6591   24.0554 C   0  0  0  0  0  0
  -25.9064  -34.9426   23.5066 C   0  0  0  0  0  0
  -16.5364  -29.9079   23.6334 C   0  0  0  0  0  0
  -16.7280  -28.6489   23.0370 C   0  0  0  0  0  0
  -26.4497  -31.6590   25.0752 C   0  0  0  0  0  0
  -25.3672  -31.3807   26.1446 C   0  0  0  0  0  0
  -27.0361  -30.2975   24.6349 C   0  0  0  0  0  0
  -27.6018  -32.4355   25.7547 C   0  0  0  0  0  0
  -27.5575  -37.1802   24.8453 C   0  0  0  0  0  0
  -21.4246  -29.3043   22.3616 N   0  0  0  0  0  0
  -26.4289  -37.3761   23.9390 N   0  0  0  0  0  0
  -24.7130  -31.0363   22.0945 N   0  0  0  0  0  0
  -23.4197  -28.8122   23.3032 O   0  0  0  0  0  0
  -28.2788  -26.1925   20.2250 O   0  0  0  0  0  0
  -26.5640  -34.8911   22.4641 O   0  0  0  0  0  0
  -23.5528  -32.1346   23.7152 O   0  0  0  0  0  0
  -30.7785  -18.0497   21.6012 C   0  0  0  0  0  0
  -29.9310  -17.5475   20.6386 C   0  0  0  0  0  0
  -29.5003  -19.9685   20.5051 C   0  0  0  0  0  0
  -28.6803  -23.6991   19.3315 C   0  0  0  0  0  0
  -28.4393  -25.1114   19.2756 C   0  0  0  0  0  0
  -28.9598  -22.6364   20.4071 C   0  0  0  0  0  0
  -28.3942  -25.7421   17.8758 C   0  0  0  0  0  0
  -29.2125  -18.6829   20.0352 N   0  0  0  0  0  0
  -29.7242  -16.0550   20.4327 N   0  0  0  0  0  0
  -28.9939  -21.2901   19.9595 N   0  0  0  0  0  0
  -29.1586  -22.9116   21.5924 O   0  0  0  0  0  0
  -28.7072  -23.1275   18.1128 O   0  0  0  0  0  0
  -30.7030  -19.8180   21.7904 S   0  0  0  0  0  0
  -31.4790  -12.7328   19.1661 H   0  0  0  0  0  0
  -30.4402  -11.6026   19.9956 H   0  0  0  0  0  0
  -29.8356  -11.7477   17.5506 H   0  0  0  0  0  0
  -29.6123  -13.4722   17.6951 H   0  0  0  0  0  0
  -27.9425  -11.2764   18.9577 H   0  0  0  0  0  0
  -27.3870  -12.4622   17.8078 H   0  0  0  0  0  0
  -27.6038  -14.2483   19.4243 H   0  0  0  0  0  0
  -28.7608  -12.2566   21.4346 H   0  0  0  0  0  0
  -28.3931  -13.9324   21.7637 H   0  0  0  0  0  0
  -25.2770   -9.5676   22.4780 H   0  0  0  0  0  0
  -23.9998   -7.4630   22.7488 H   0  0  0  0  0  0
  -21.0849   -8.8813   19.8965 H   0  0  0  0  0  0
  -22.3738  -10.9689   19.6177 H   0  0  0  0  0  0
  -21.2025   -7.6153   23.9729 H   0  0  0  0  0  0
  -21.1479   -6.0511   25.9073 H   0  0  0  0  0  0
  -22.0603   -2.7618   23.2828 H   0  0  0  0  0  0
  -22.4013  -11.9898   22.4848 H   0  0  0  0  0  0
  -21.1052  -13.1311   22.2600 H   0  0  0  0  0  0
  -24.6423  -15.8410   20.5354 H   0  0  0  0  0  0
  -26.2522  -15.6428   20.0749 H   0  0  0  0  0  0
  -26.7274  -32.5328   23.1061 H   0  0  0  0  0  0
  -25.0090  -33.9668   25.0355 H   0  0  0  0  0  0
  -22.7441  -31.2944   21.3885 H   0  0  0  0  0  0
  -23.3749  -35.9616   23.3301 H   0  0  0  0  0  0
  -24.3578  -36.8913   22.2060 H   0  0  0  0  0  0
  -23.7250  -37.6479   23.6679 H   0  0  0  0  0  0
  -26.1524  -31.4981   20.6223 H   0  0  0  0  0  0
  -26.8678  -30.7778   22.0293 H   0  0  0  0  0  0
  -28.1375  -28.8447   21.2154 H   0  0  0  0  0  0
  -25.9044  -25.8221   19.1008 H   0  0  0  0  0  0
  -23.9643  -27.2809   19.0321 H   0  0  0  0  0  0
  -23.8024  -30.5838   19.4045 H   0  0  0  0  0  0
  -22.7813  -29.2467   19.8425 H   0  0  0  0  0  0
  -25.1309  -36.1900   25.0807 H   0  0  0  0  0  0
  -20.9993  -28.3307   24.1371 H   0  0  0  0  0  0
  -20.5705  -26.2332   23.3623 H   0  0  0  0  0  0
  -21.6663  -26.7456   22.1207 H   0  0  0  0  0  0
  -19.6953  -25.6270   21.1275 H   0  0  0  0  0  0
  -19.6725  -27.3158   20.6726 H   0  0  0  0  0  0
  -17.4230  -26.6669   21.3998 H   0  0  0  0  0  0
  -18.0334  -26.0060   22.9002 H   0  0  0  0  0  0
  -19.7948  -30.7260   24.2259 H   0  0  0  0  0  0
  -17.5034  -31.6281   24.5140 H   0  0  0  0  0  0
  -15.5360  -30.2993   23.7662 H   0  0  0  0  0  0
  -15.8672  -28.0804   22.7119 H   0  0  0  0  0  0
  -24.5831  -30.7174   25.7774 H   0  0  0  0  0  0
  -24.8889  -32.3015   26.4801 H   0  0  0  0  0  0
  -25.7944  -30.9025   27.0270 H   0  0  0  0  0  0
  -26.2998  -29.6712   24.1305 H   0  0  0  0  0  0
  -27.3896  -29.7266   25.4947 H   0  0  0  0  0  0
  -27.8936  -30.4194   23.9726 H   0  0  0  0  0  0
  -27.2589  -33.3658   26.2087 H   0  0  0  0  0  0
  -28.3862  -32.6912   25.0412 H   0  0  0  0  0  0
  -28.0650  -31.8513   26.5508 H   0  0  0  0  0  0
  -28.2578  -38.0108   24.7492 H   0  0  0  0  0  0
  -28.1078  -36.2637   24.6283 H   0  0  0  0  0  0
  -27.2292  -37.1458   25.8854 H   0  0  0  0  0  0
  -20.9439  -29.8744   21.6796 H   0  0  0  0  0  0
  -26.0159  -38.2832   24.1383 H   0  0  0  0  0  0
  -31.4276  -17.4870   22.2580 H   0  0  0  0  0  0
  -29.3015  -25.5037   17.3189 H   0  0  0  0  0  0
  -28.3519  -26.8309   17.8943 H   0  0  0  0  0  0
  -27.5299  -25.3903   17.3117 H   0  0  0  0  0  0
  -28.7595  -15.8118   20.2811 H   0  0  0  0  0  0
  -28.6741  -21.2372   19.0024 H   0  0  0  0  0  0
  -28.5772  -23.8267   17.4847 H   0  0  0  0  0  0
  1 25  1  0  0  0
  1 30  2  0  0  0
  1 79  1  0  0  0
  2  3  1  0  0  0
  2 25  1  0  0  0
  2 84  1  0  0  0
  2 85  1  0  0  0
  3  4  1  0  0  0
  3 86  1  0  0  0
  3 87  1  0  0  0
  4  5  1  0  0  0
  4 88  1  0  0  0
  4 89  1  0  0  0
  5  6  1  0  0  0
  5 26  1  0  0  0
  5 90  1  0  0  0
  6 25  1  0  0  0
  6 91  1  0  0  0
  6 92  1  0  0  0
  7  8  2  0  0  0
  7 26  1  0  0  0
  7 29  1  0  0  0
  8  9  1  0  0  0
  8 22  1  0  0  0
  9 10  1  0  0  0
  9 27  2  0  0  0
 10 11  2  0  0  0
 10 15  1  0  0  0
 11 12  1  0  0  0
 11 93  1  0  0  0
 12 13  2  0  0  0
 12 94  1  0  0  0
 13 14  1  0  0  0
 13 31  1  0  0  0
 14 15  2  0  0  0
 14 95  1  0  0  0
 15 96  1  0  0  0
 16 17  2  0  0  0
 16 21  1  0  0  0
 16 31  1  0  0  0
 17 18  1  0  0  0
 17 97  1  0  0  0
 18 19  2  0  0  0
 18 98  1  0  0  0
 19 20  1  0  0  0
 19 24  1  0  0  0
 20 21  2  0  0  0
 20 99  1  0  0  0
 21 23  1  0  0  0
 22 28  1  0  0  0
 22 32  2  0  0  0
 26 27  1  0  0  0
 28100  1  0  0  0
 28101  1  0  0  0
 29102  1  0  0  0
 29103  1  0  0  0
 33 34  1  0  0  0
 33 66  1  0  0  0
 33 70  2  0  0  0
 34 36  1  0  0  0
 34 59  1  0  0  0
 34104  1  0  0  0
 35 44  2  0  0  0
 35 45  1  0  0  0
 35 68  1  0  0  0
 36 56  1  0  0  0
 36105  1  0  0  0
 37 39  1  0  0  0
 37 47  1  0  0  0
 37 66  1  0  0  0
 37106  1  0  0  0
 38 43  2  0  0  0
 38 46  1  0  0  0
 38 47  1  0  0  0
 39 64  1  0  0  0
 39 67  2  0  0  0
 40 52  1  0  0  0
 40 53  2  0  0  0
 40 58  1  0  0  0
 41107  1  0  0  0
 41108  1  0  0  0
 41109  1  0  0  0
 41 48  1  0  0  0
 42 43  1  0  0  0
 42 66  1  0  0  0
 42110  1  0  0  0
 42111  1  0  0  0
 43 44  1  0  0  0
 44112  1  0  0  0
 45 46  2  0  0  0
 45113  1  0  0  0
 46114  1  0  0  0
 47115  1  0  0  0
 47116  1  0  0  0
 48 56  1  0  0  0
 48 65  1  0  0  0
 48117  1  0  0  0
 49 50  1  0  0  0
 49 53  1  0  0  0
 49 64  1  0  0  0
 49118  1  0  0  0
 50 51  1  0  0  0
 50119  1  0  0  0
 50120  1  0  0  0
 51 52  1  0  0  0
 51121  1  0  0  0
 51122  1  0  0  0
 52123  1  0  0  0
 52124  1  0  0  0
 53 54  1  0  0  0
 54 55  2  0  0  0
 54125  1  0  0  0
 55 57  1  0  0  0
 55126  1  0  0  0
 56 69  2  0  0  0
 57 58  2  0  0  0
 57127  1  0  0  0
 58128  1  0  0  0
 59 60  1  0  0  0
 59 61  1  0  0  0
 59 62  1  0  0  0
 60129  1  0  0  0
 60130  1  0  0  0
 60131  1  0  0  0
 61132  1  0  0  0
 61133  1  0  0  0
 61134  1  0  0  0
 62135  1  0  0  0
 62136  1  0  0  0
 62137  1  0  0  0
 63 65  1  0  0  0
 63138  1  0  0  0
 63139  1  0  0  0
 63140  1  0  0  0
 64141  1  0  0  0
 65142  1  0  0  0
 68 75  1  0  0  0
 71 72  2  0  0  0
 71 83  1  0  0  0
 71143  1  0  0  0
 72 78  1  0  0  0
 72 79  1  0  0  0
 73 78  2  0  0  0
 73 80  1  0  0  0
 73 83  1  0  0  0
 74 75  2  0  0  0
 74 76  1  0  0  0
 74 82  1  0  0  0
 75 77  1  0  0  0
 76 80  1  0  0  0
 76 81  2  0  0  0
 77144  1  0  0  0
 77145  1  0  0  0
 77146  1  0  0  0
 79147  1  0  0  0
 80148  1  0  0  0
 82149  1  0  0  0
M  ISO  4   1 100  68 101  75 101  79 100
M  END
> <chiral flag>
0

> <version>
0

> <s_m_source_file>
/data/baiqing/PycharmProjects/Reinvent-master-3.2/result/LINK_invent/BTK/process_docking_weight1_custom_product_contain_oxygen_bond_distance_aromatic_linkinvent_7_9_3/rearranged_h_0179.sdf

> <i_m_source_file_index>
75

> <r_mmod_Potential_Energy-OPLS-2005>
319.839385986328

> <r_mmod_Stretch_Energy-OPLS-2005>
197.0283203125

> <r_mmod_Bend_Energy-OPLS-2005>
269.517852783203

> <r_mmod_Torsional_Energy-OPLS-2005>
231.419219970703

> <r_mmod_Improper_Torsional_Energy-OPLS-2005>
8.93704414367676

> <r_mmod_Van_der_Waal_Energy-OPLS-2005>
134.119338989258

> <r_mmod_Electrostatic_Energy-OPLS-2005>
-449.050445556641

> <r_mmod_Solvation_Energy-OPLS-2005>
-237.739273071289

> <b_mmod_Minimization_Converged-OPLS-2005>
0

> <r_mmod_RMS_Derivative-OPLS-2005>
2.06308650970459

$$$$
75
                    3D
 Structure written by MMmdl.
146154  0  0  1  0            999 V2000
  -30.5912  -14.8619   20.4349 C   0  0  0  0  0  0
  -30.4386  -12.5290   19.4945 C   0  0  0  0  0  0
  -29.5198  -12.5182   18.2523 C   0  0  0  0  0  0
  -28.0480  -12.3294   18.6640 C   0  0  0  0  0  0
  -27.6371  -13.2476   19.8447 C   0  0  2  0  0  0
  -28.6816  -13.2381   20.9827 C   0  0  0  0  0  0
  -25.2497  -13.8227   20.5744 C   0  0  0  0  0  0
  -24.1796  -13.0451   20.9233 C   0  0  0  0  0  0
  -24.6410  -11.6931   20.8762 C   0  0  0  0  0  0
  -23.9100  -10.4294   21.0416 C   0  0  0  0  0  0
  -24.3641   -9.4199   21.9193 C   0  0  0  0  0  0
  -23.6302   -8.2237   22.0755 C   0  0  0  0  0  0
  -22.4279   -8.0288   21.3553 C   0  0  0  0  0  0
  -21.9928   -9.0271   20.4652 C   0  0  0  0  0  0
  -22.7273  -10.2141   20.3064 C   0  0  0  0  0  0
  -21.6847   -6.0743   22.5284 C   0  0  0  0  0  0
  -21.4010   -6.5640   23.8221 C   0  0  0  0  0  0
  -21.3658   -5.6790   24.9181 C   0  0  0  0  0  0
  -21.6040   -4.3054   24.7225 C   0  0  0  0  0  0
  -21.8818   -3.8150   23.4348 C   0  0  0  0  0  0
  -21.9190   -4.6971   22.3404 C   0  0  0  0  0  0
  -22.7808  -13.5216   21.1879 C   0  0  0  0  0  0
  -22.1664   -4.2157   21.0983 F   0  0  0  0  0  0
  -21.5628   -3.4537   25.7736 F   0  0  0  0  0  0
  -29.9729  -13.6188   20.3948 N   0  0  0  0  0  0
  -26.2925  -12.9460   20.3272 N   0  0  0  0  0  0
  -25.9339  -11.6586   20.5738 N   0  0  0  0  0  0
  -22.0453  -12.8196   22.0429 N   0  0  0  0  0  0
  -25.4181  -15.1956   20.4225 N   0  0  0  0  0  0
  -31.7900  -14.9019   20.1502 O   0  0  0  0  0  0
  -21.6639   -6.8889   21.4241 O   0  0  0  0  0  0
  -22.3492  -14.5528   20.6735 O   0  0  0  0  0  0
  -24.6376  -31.8498   23.1929 C   0  0  0  0  0  0
  -25.9175  -32.4722   23.8294 C   0  0  1  0  0  0
  -27.2169  -27.1951   20.1456 C   0  0  0  0  0  0
  -25.5942  -33.8528   24.2215 N   0  0  0  0  0  0
  -23.4398  -30.4702   21.5375 C   0  0  2  0  0  0
  -24.8927  -28.9117   20.1044 C   0  0  0  0  0  0
  -22.7550  -29.4566   22.4879 C   0  0  0  0  0  0
  -18.0310  -28.1385   22.8483 C   0  0  0  0  0  0
  -24.1489  -36.7268   23.2635 C   0  0  0  0  0  0
  -25.9913  -30.7405   21.3871 C   0  0  0  0  0  0
  -26.0667  -29.3577   20.7280 C   0  0  0  0  0  0
  -27.2329  -28.5105   20.7434 C   0  0  0  0  0  0
  -26.0283  -26.8472   19.4679 C   0  0  0  0  0  0
  -24.8830  -27.6666   19.4593 C   0  0  0  0  0  0
  -23.6641  -29.8032   20.1542 C   0  0  0  0  0  0
  -25.4119  -36.3047   24.0317 C   0  0  1  0  0  0
  -20.5919  -28.3706   23.1247 C   0  0  2  0  0  0
  -20.6798  -26.9417   22.5398 C   0  0  0  0  0  0
  -19.5766  -26.6372   21.5212 C   0  0  0  0  0  0
  -18.1950  -26.7927   22.1629 C   0  0  0  0  0  0
  -19.1565  -28.8865   23.2858 C   0  0  0  0  0  0
  -18.9481  -30.1463   23.8880 C   0  0  0  0  0  0
  -17.6479  -30.6584   24.0561 C   0  0  0  0  0  0
  -25.9065  -34.9419   23.5071 C   0  0  0  0  0  0
  -16.5370  -29.9076   23.6331 C   0  0  0  0  0  0
  -16.7295  -28.6494   23.0352 C   0  0  0  0  0  0
  -26.4512  -31.6574   25.0714 C   0  0  0  0  0  0
  -25.3710  -31.3755   26.1413 C   0  0  0  0  0  0
  -27.0366  -30.2977   24.6258 C   0  0  0  0  0  0
  -27.6050  -32.4325   25.7497 C   0  0  0  0  0  0
  -27.5583  -37.1789   24.8464 C   0  0  0  0  0  0
  -21.4250  -29.3039   22.3622 N   0  0  0  0  0  0
  -26.4286  -37.3758   23.9410 N   0  0  0  0  0  0
  -24.7087  -31.0394   22.0951 N   0  0  0  0  0  0
  -23.4216  -28.8109   23.3006 O   0  0  0  0  0  0
  -28.2111  -26.1684   20.2365 O   0  0  0  0  0  0
  -26.5641  -34.8907   22.4643 O   0  0  0  0  0  0
  -23.5508  -32.1341   23.7180 O   0  0  0  0  0  0
  -30.0534  -17.5103   20.4013 C   0  0  0  0  0  0
  -31.1327  -18.0457   19.7245 C   0  0  0  0  0  0
  -29.5870  -19.9201   20.3882 C   0  0  0  0  0  0
  -27.7727  -24.9389   20.8560 C   0  0  0  0  0  0
  -28.0425  -23.5470   20.9285 C   0  0  0  0  0  0
  -29.0495  -22.5713   20.3204 C   0  0  0  0  0  0
  -29.1826  -18.6370   20.7672 N   0  0  0  0  0  0
  -29.8224  -16.0276   20.6389 N   0  0  0  0  0  0
  -28.8642  -21.2146   20.6708 N   0  0  0  0  0  0
  -29.9673  -22.9214   19.5778 O   0  0  0  0  0  0
  -27.1886  -22.9115   21.7520 O   0  0  0  0  0  0
  -32.1467  -17.3282   19.1893 F   0  0  0  0  0  0
  -31.1268  -19.8035   19.5281 S   0  0  0  0  0  0
  -31.4763  -12.6642   19.1826 H   0  0  0  0  0  0
  -30.4105  -11.5682   20.0111 H   0  0  0  0  0  0
  -29.8208  -11.7258   17.5660 H   0  0  0  0  0  0
  -29.6303  -13.4569   17.7069 H   0  0  0  0  0  0
  -27.9202  -11.2852   18.9496 H   0  0  0  0  0  0
  -27.3915  -12.4933   17.8088 H   0  0  0  0  0  0
  -27.6122  -14.2586   19.4368 H   0  0  0  0  0  0
  -28.7417  -12.2534   21.4494 H   0  0  0  0  0  0
  -28.3967  -13.9361   21.7720 H   0  0  0  0  0  0
  -25.2781   -9.5662   22.4777 H   0  0  0  0  0  0
  -23.9998   -7.4621   22.7468 H   0  0  0  0  0  0
  -21.0857   -8.8809   19.8959 H   0  0  0  0  0  0
  -22.3744  -10.9687   19.6179 H   0  0  0  0  0  0
  -21.1998   -7.6151   23.9729 H   0  0  0  0  0  0
  -21.1485   -6.0521   25.9087 H   0  0  0  0  0  0
  -22.0599   -2.7610   23.2848 H   0  0  0  0  0  0
  -22.4051  -11.9854   22.4817 H   0  0  0  0  0  0
  -21.1072  -13.1223   22.2643 H   0  0  0  0  0  0
  -24.6542  -15.8490   20.5577 H   0  0  0  0  0  0
  -26.2636  -15.6419   20.0898 H   0  0  0  0  0  0
  -26.7246  -32.5356   23.1030 H   0  0  0  0  0  0
  -25.0092  -33.9659   25.0361 H   0  0  0  0  0  0
  -22.7384  -31.2942   21.3879 H   0  0  0  0  0  0
  -23.3755  -35.9600   23.3286 H   0  0  0  0  0  0
  -24.3574  -36.8903   22.2054 H   0  0  0  0  0  0
  -23.7240  -37.6460   23.6674 H   0  0  0  0  0  0
  -26.1388  -31.4989   20.6171 H   0  0  0  0  0  0
  -26.8641  -30.7909   22.0260 H   0  0  0  0  0  0
  -28.1199  -28.8350   21.2698 H   0  0  0  0  0  0
  -25.9651  -25.8851   18.9784 H   0  0  0  0  0  0
  -23.9890  -27.3234   18.9572 H   0  0  0  0  0  0
  -23.7867  -30.5779   19.3967 H   0  0  0  0  0  0
  -22.7824  -29.2366   19.8501 H   0  0  0  0  0  0
  -25.1303  -36.1884   25.0812 H   0  0  0  0  0  0
  -21.0011  -28.3284   24.1365 H   0  0  0  0  0  0
  -20.5699  -26.2319   23.3610 H   0  0  0  0  0  0
  -21.6665  -26.7425   22.1192 H   0  0  0  0  0  0
  -19.6923  -25.6271   21.1258 H   0  0  0  0  0  0
  -19.6699  -27.3166   20.6731 H   0  0  0  0  0  0
  -17.4219  -26.6668   21.4033 H   0  0  0  0  0  0
  -18.0360  -26.0066   22.9029 H   0  0  0  0  0  0
  -19.7955  -30.7288   24.2233 H   0  0  0  0  0  0
  -17.5028  -31.6263   24.5167 H   0  0  0  0  0  0
  -15.5366  -30.2972   23.7666 H   0  0  0  0  0  0
  -15.8697  -28.0806   22.7072 H   0  0  0  0  0  0
  -24.5888  -30.7102   25.7730 H   0  0  0  0  0  0
  -24.8891  -32.2936   26.4788 H   0  0  0  0  0  0
  -25.7993  -30.8953   27.0220 H   0  0  0  0  0  0
  -26.2973  -29.6715   24.1247 H   0  0  0  0  0  0
  -27.3978  -29.7253   25.4811 H   0  0  0  0  0  0
  -27.8881  -30.4216   23.9561 H   0  0  0  0  0  0
  -27.2650  -33.3636   26.2039 H   0  0  0  0  0  0
  -28.3881  -32.6868   25.0343 H   0  0  0  0  0  0
  -28.0694  -31.8470   26.5440 H   0  0  0  0  0  0
  -28.2585  -38.0102   24.7522 H   0  0  0  0  0  0
  -28.1089  -36.2628   24.6271 H   0  0  0  0  0  0
  -27.2296  -37.1417   25.8864 H   0  0  0  0  0  0
  -20.9451  -29.8750   21.6804 H   0  0  0  0  0  0
  -26.0154  -38.2825   24.1420 H   0  0  0  0  0  0
  -26.9405  -25.2307   21.4849 H   0  0  0  0  0  0
  -28.8862  -15.8182   20.9428 H   0  0  0  0  0  0
  -28.0557  -21.1196   21.2700 H   0  0  0  0  0  0
  -26.5894  -23.5559   22.1056 H   0  0  0  0  0  0
  1 25  1  0  0  0
  1 30  2  0  0  0
  1 78  1  0  0  0
  2  3  1  0  0  0
  2 25  1  0  0  0
  2 84  1  0  0  0
  2 85  1  0  0  0
  3  4  1  0  0  0
  3 86  1  0  0  0
  3 87  1  0  0  0
  4  5  1  0  0  0
  4 88  1  0  0  0
  4 89  1  0  0  0
  5  6  1  0  0  0
  5 26  1  0  0  0
  5 90  1  0  0  0
  6 25  1  0  0  0
  6 91  1  0  0  0
  6 92  1  0  0  0
  7  8  2  0  0  0
  7 26  1  0  0  0
  7 29  1  0  0  0
  8  9  1  0  0  0
  8 22  1  0  0  0
  9 10  1  0  0  0
  9 27  2  0  0  0
 10 11  2  0  0  0
 10 15  1  0  0  0
 11 12  1  0  0  0
 11 93  1  0  0  0
 12 13  2  0  0  0
 12 94  1  0  0  0
 13 14  1  0  0  0
 13 31  1  0  0  0
 14 15  2  0  0  0
 14 95  1  0  0  0
 15 96  1  0  0  0
 16 17  2  0  0  0
 16 21  1  0  0  0
 16 31  1  0  0  0
 17 18  1  0  0  0
 17 97  1  0  0  0
 18 19  2  0  0  0
 18 98  1  0  0  0
 19 20  1  0  0  0
 19 24  1  0  0  0
 20 21  2  0  0  0
 20 99  1  0  0  0
 21 23  1  0  0  0
 22 28  1  0  0  0
 22 32  2  0  0  0
 26 27  1  0  0  0
 28100  1  0  0  0
 28101  1  0  0  0
 29102  1  0  0  0
 29103  1  0  0  0
 33 34  1  0  0  0
 33 66  1  0  0  0
 33 70  2  0  0  0
 34 36  1  0  0  0
 34 59  1  0  0  0
 34104  1  0  0  0
 35 44  2  0  0  0
 35 45  1  0  0  0
 35 68  1  0  0  0
 36 56  1  0  0  0
 36105  1  0  0  0
 37 39  1  0  0  0
 37 47  1  0  0  0
 37 66  1  0  0  0
 37106  1  0  0  0
 38 43  2  0  0  0
 38 46  1  0  0  0
 38 47  1  0  0  0
 39 64  1  0  0  0
 39 67  2  0  0  0
 40 52  1  0  0  0
 40 53  2  0  0  0
 40 58  1  0  0  0
 41107  1  0  0  0
 41108  1  0  0  0
 41109  1  0  0  0
 41 48  1  0  0  0
 42 43  1  0  0  0
 42 66  1  0  0  0
 42110  1  0  0  0
 42111  1  0  0  0
 43 44  1  0  0  0
 44112  1  0  0  0
 45 46  2  0  0  0
 45113  1  0  0  0
 46114  1  0  0  0
 47115  1  0  0  0
 47116  1  0  0  0
 48 56  1  0  0  0
 48 65  1  0  0  0
 48117  1  0  0  0
 49 50  1  0  0  0
 49 53  1  0  0  0
 49 64  1  0  0  0
 49118  1  0  0  0
 50 51  1  0  0  0
 50119  1  0  0  0
 50120  1  0  0  0
 51 52  1  0  0  0
 51121  1  0  0  0
 51122  1  0  0  0
 52123  1  0  0  0
 52124  1  0  0  0
 53 54  1  0  0  0
 54 55  2  0  0  0
 54125  1  0  0  0
 55 57  1  0  0  0
 55126  1  0  0  0
 56 69  2  0  0  0
 57 58  2  0  0  0
 57127  1  0  0  0
 58128  1  0  0  0
 59 60  1  0  0  0
 59 61  1  0  0  0
 59 62  1  0  0  0
 60129  1  0  0  0
 60130  1  0  0  0
 60131  1  0  0  0
 61132  1  0  0  0
 61133  1  0  0  0
 61134  1  0  0  0
 62135  1  0  0  0
 62136  1  0  0  0
 62137  1  0  0  0
 63 65  1  0  0  0
 63138  1  0  0  0
 63139  1  0  0  0
 63140  1  0  0  0
 64141  1  0  0  0
 65142  1  0  0  0
 68 74  1  0  0  0
 71 72  2  0  0  0
 71 77  1  0  0  0
 71 78  1  0  0  0
 72 82  1  0  0  0
 72 83  1  0  0  0
 73 77  2  0  0  0
 73 79  1  0  0  0
 73 83  1  0  0  0
 74 75  2  0  0  0
 74143  1  0  0  0
 75 76  1  0  0  0
 75 81  1  0  0  0
 76 79  1  0  0  0
 76 80  2  0  0  0
 78144  1  0  0  0
 79145  1  0  0  0
 81146  1  0  0  0
M  ISO  4   1 100  68 101  74 101  78 100
M  END
> <chiral flag>
0

> <version>
0

> <s_m_source_file>
/data/baiqing/PycharmProjects/Reinvent-master-3.2/result/LINK_invent/BTK/process_docking_weight1_custom_product_contain_oxygen_bond_distance_aromatic_linkinvent_7_9_3/rearranged_h_0179.sdf

> <i_m_source_file_index>
76

> <r_mmod_Potential_Energy-OPLS-2005>
249.284713745117

> <r_mmod_Stretch_Energy-OPLS-2005>
173.762619018555

> <r_mmod_Bend_Energy-OPLS-2005>
272.498138427734

> <r_mmod_Torsional_Energy-OPLS-2005>
209.642761230469

> <r_mmod_Improper_Torsional_Energy-OPLS-2005>
3.69212174415588

> <r_mmod_Van_der_Waal_Energy-OPLS-2005>
128.2626953125

> <r_mmod_Electrostatic_Energy-OPLS-2005>
-446.869781494141

> <r_mmod_Solvation_Energy-OPLS-2005>
-241.788818359375

> <b_mmod_Minimization_Converged-OPLS-2005>
0

> <r_mmod_RMS_Derivative-OPLS-2005>
1.60643291473389

$$$$
76
                    3D
 Structure written by MMmdl.
155163  0  0  1  0            999 V2000
  -30.6447  -14.5889   20.5225 C   0  0  0  0  0  0
  -30.4198  -12.3777   19.4344 C   0  0  0  0  0  0
  -29.4980  -12.5633   18.2111 C   0  0  0  0  0  0
  -28.0179  -12.4069   18.6154 C   0  0  0  0  0  0
  -27.6528  -13.2299   19.8822 C   0  0  2  0  0  0
  -28.6996  -13.0386   21.0044 C   0  0  0  0  0  0
  -25.2529  -13.8173   20.5709 C   0  0  0  0  0  0
  -24.1809  -13.0429   20.9151 C   0  0  0  0  0  0
  -24.6389  -11.6892   20.8722 C   0  0  0  0  0  0
  -23.9027  -10.4296   21.0386 C   0  0  0  0  0  0
  -24.3566   -9.4225   21.9172 C   0  0  0  0  0  0
  -23.6266   -8.2258   22.0769 C   0  0  0  0  0  0
  -22.4257   -8.0274   21.3551 C   0  0  0  0  0  0
  -21.9855   -9.0228   20.4647 C   0  0  0  0  0  0
  -22.7166  -10.2122   20.3058 C   0  0  0  0  0  0
  -21.6863   -6.0711   22.5284 C   0  0  0  0  0  0
  -21.4016   -6.5639   23.8216 C   0  0  0  0  0  0
  -21.3662   -5.6781   24.9192 C   0  0  0  0  0  0
  -21.6046   -4.3036   24.7226 C   0  0  0  0  0  0
  -21.8827   -3.8115   23.4359 C   0  0  0  0  0  0
  -21.9204   -4.6923   22.3402 C   0  0  0  0  0  0
  -22.7820  -13.5225   21.1753 C   0  0  0  0  0  0
  -22.1690   -4.2120   21.0971 F   0  0  0  0  0  0
  -21.5608   -3.4523   25.7727 F   0  0  0  0  0  0
  -30.0197  -13.3734   20.4500 N   0  0  0  0  0  0
  -26.2985  -12.9401   20.3385 N   0  0  0  0  0  0
  -25.9327  -11.6513   20.5762 N   0  0  0  0  0  0
  -22.0468  -12.8295   22.0354 N   0  0  0  0  0  0
  -25.4176  -15.1930   20.4217 N   0  0  0  0  0  0
  -31.7722  -14.7648   20.0484 O   0  0  0  0  0  0
  -21.6671   -6.8848   21.4250 O   0  0  0  0  0  0
  -22.3539  -14.5557   20.6604 O   0  0  0  0  0  0
  -24.6192  -31.8640   23.2062 C   0  0  0  0  0  0
  -25.9088  -32.4805   23.8360 C   0  0  1  0  0  0
  -27.2278  -27.3775   20.0894 C   0  0  0  0  0  0
  -25.5961  -33.8621   24.2269 N   0  0  0  0  0  0
  -23.4075  -30.4941   21.5480 C   0  0  2  0  0  0
  -24.8492  -28.9567   20.1022 C   0  0  0  0  0  0
  -22.7431  -29.4673   22.4936 C   0  0  0  0  0  0
  -18.0304  -28.1413   22.8497 C   0  0  0  0  0  0
  -24.1510  -36.7307   23.2598 C   0  0  0  0  0  0
  -25.9448  -30.8134   21.3678 C   0  0  0  0  0  0
  -26.0134  -29.4443   20.7067 C   0  0  0  0  0  0
  -27.1950  -28.6612   20.7032 C   0  0  0  0  0  0
  -26.0391  -26.9218   19.4703 C   0  0  0  0  0  0
  -24.8606  -27.6972   19.4798 C   0  0  0  0  0  0
  -23.6182  -29.8380   20.1566 C   0  0  0  0  0  0
  -25.4120  -36.3107   24.0304 C   0  0  1  0  0  0
  -20.5897  -28.3715   23.1313 C   0  0  2  0  0  0
  -20.6828  -26.9449   22.5431 C   0  0  0  0  0  0
  -19.5780  -26.6396   21.5267 C   0  0  0  0  0  0
  -18.1948  -26.7964   22.1647 C   0  0  0  0  0  0
  -19.1548  -28.8886   23.2917 C   0  0  0  0  0  0
  -18.9457  -30.1499   23.8891 C   0  0  0  0  0  0
  -17.6459  -30.6617   24.0580 C   0  0  0  0  0  0
  -25.9087  -34.9476   23.5078 C   0  0  0  0  0  0
  -16.5358  -29.9111   23.6327 C   0  0  0  0  0  0
  -16.7292  -28.6560   23.0291 C   0  0  0  0  0  0
  -26.4464  -31.6553   25.0679 C   0  0  0  0  0  0
  -25.3679  -31.3733   26.1382 C   0  0  0  0  0  0
  -27.0245  -30.2937   24.6111 C   0  0  0  0  0  0
  -27.6049  -32.4208   25.7482 C   0  0  0  0  0  0
  -27.5619  -37.1781   24.8429 C   0  0  0  0  0  0
  -21.4152  -29.3054   22.3664 N   0  0  0  0  0  0
  -26.4284  -37.3816   23.9441 N   0  0  0  0  0  0
  -24.6755  -31.0755   22.0957 N   0  0  0  0  0  0
  -23.4186  -28.8195   23.2984 O   0  0  0  0  0  0
  -28.4041  -26.6263   20.1315 O   0  0  0  0  0  0
  -26.5647  -34.8919   22.4638 O   0  0  0  0  0  0
  -23.5376  -32.1480   23.7396 O   0  0  0  0  0  0
  -29.4697  -19.1866   20.0906 C   0  0  0  0  0  0
  -28.9411  -18.7284   18.8917 C   0  0  0  0  0  0
  -29.7000  -16.8864   20.3764 C   0  0  0  0  0  0
  -29.1873  -21.7375   19.8539 C   0  0  0  0  0  0
  -29.0236  -24.1970   21.9734 C   0  0  0  0  0  0
  -28.4612  -25.2286   19.6953 C   0  0  0  0  0  0
  -30.0717  -23.0323   19.9191 C   0  0  1  0  0  0
  -29.5069  -24.3908   20.5239 C   0  0  2  0  0  0
  -29.8769  -18.1115   20.9367 N   0  0  0  0  0  0
  -28.4253  -19.4332   17.8135 N   0  0  0  0  0  0
  -29.6978  -20.5900   20.3976 N   0  0  0  0  0  0
  -29.9341  -15.6265   21.0431 N   0  0  0  0  0  0
  -28.0754  -21.8015   19.3201 O   0  0  0  0  0  0
  -31.1869  -22.7221   20.5977 F   0  0  0  0  0  0
  -30.5751  -25.1987   20.5795 F   0  0  0  0  0  0
  -28.9741  -16.9818   18.7775 S   0  0  0  0  0  0
  -31.4635  -12.4774   19.1332 H   0  0  0  0  0  0
  -30.3194  -11.3713   19.8320 H   0  0  0  0  0  0
  -29.7538  -11.8642   17.4130 H   0  0  0  0  0  0
  -29.6552  -13.5607   17.7910 H   0  0  0  0  0  0
  -27.8277  -11.3468   18.7822 H   0  0  0  0  0  0
  -27.3779  -12.7042   17.7844 H   0  0  0  0  0  0
  -27.6723  -14.2773   19.5862 H   0  0  0  0  0  0
  -28.7016  -12.0092   21.3629 H   0  0  0  0  0  0
  -28.4550  -13.6477   21.8751 H   0  0  0  0  0  0
  -25.2726   -9.5744   22.4715 H   0  0  0  0  0  0
  -23.9977   -7.4676   22.7529 H   0  0  0  0  0  0
  -21.0763   -8.8738   19.8968 H   0  0  0  0  0  0
  -22.3604  -10.9648   19.6166 H   0  0  0  0  0  0
  -21.2074   -7.6145   23.9697 H   0  0  0  0  0  0
  -21.1467   -6.0538   25.9086 H   0  0  0  0  0  0
  -22.0619   -2.7570   23.2881 H   0  0  0  0  0  0
  -22.4029  -11.9963   22.4791 H   0  0  0  0  0  0
  -21.1078  -13.1390   22.2474 H   0  0  0  0  0  0
  -24.6322  -15.8288   20.5113 H   0  0  0  0  0  0
  -26.2734  -15.6551   20.1455 H   0  0  0  0  0  0
  -26.7171  -32.5498   23.1134 H   0  0  0  0  0  0
  -25.0129  -33.9804   25.0422 H   0  0  0  0  0  0
  -22.6991  -31.3162   21.4198 H   0  0  0  0  0  0
  -23.3829  -35.9592   23.3146 H   0  0  0  0  0  0
  -24.3667  -36.9039   22.2052 H   0  0  0  0  0  0
  -23.7178  -37.6422   23.6703 H   0  0  0  0  0  0
  -26.0737  -31.5822   20.6079 H   0  0  0  0  0  0
  -26.8248  -30.8528   21.9999 H   0  0  0  0  0  0
  -28.0843  -29.0262   21.1920 H   0  0  0  0  0  0
  -25.9895  -25.9690   18.9669 H   0  0  0  0  0  0
  -23.9630  -27.3191   19.0039 H   0  0  0  0  0  0
  -23.7395  -30.6305   19.4175 H   0  0  0  0  0  0
  -22.7331  -29.2831   19.8402 H   0  0  0  0  0  0
  -25.1288  -36.1960   25.0796 H   0  0  0  0  0  0
  -21.0041  -28.3318   24.1424 H   0  0  0  0  0  0
  -20.5877  -26.2303   23.3610 H   0  0  0  0  0  0
  -21.6673  -26.7584   22.1127 H   0  0  0  0  0  0
  -19.6954  -25.6315   21.1267 H   0  0  0  0  0  0
  -19.6710  -27.3243   20.6820 H   0  0  0  0  0  0
  -17.4244  -26.6747   21.4024 H   0  0  0  0  0  0
  -18.0317  -26.0135   22.9051 H   0  0  0  0  0  0
  -19.7933  -30.7360   24.2198 H   0  0  0  0  0  0
  -17.4998  -31.6274   24.5202 H   0  0  0  0  0  0
  -15.5355  -30.3002   23.7632 H   0  0  0  0  0  0
  -15.8714  -28.0919   22.6881 H   0  0  0  0  0  0
  -24.5905  -30.7021   25.7694 H   0  0  0  0  0  0
  -24.8818  -32.2916   26.4674 H   0  0  0  0  0  0
  -25.7950  -30.8998   27.0223 H   0  0  0  0  0  0
  -26.2791  -29.6777   24.1035 H   0  0  0  0  0  0
  -27.3783  -29.7111   25.4635 H   0  0  0  0  0  0
  -27.8763  -30.4170   23.9410 H   0  0  0  0  0  0
  -27.2699  -33.3490   26.2123 H   0  0  0  0  0  0
  -28.3868  -32.6742   25.0318 H   0  0  0  0  0  0
  -28.0710  -31.8261   26.5355 H   0  0  0  0  0  0
  -28.2485  -38.0222   24.7679 H   0  0  0  0  0  0
  -28.1249  -36.2754   24.5995 H   0  0  0  0  0  0
  -27.2376  -37.1121   25.8827 H   0  0  0  0  0  0
  -20.9298  -29.8767   21.6887 H   0  0  0  0  0  0
  -26.0146  -38.2855   24.1581 H   0  0  0  0  0  0
  -28.0978  -23.6193   22.0050 H   0  0  0  0  0  0
  -28.8323  -25.1597   22.4464 H   0  0  0  0  0  0
  -29.7592  -23.6615   22.5757 H   0  0  0  0  0  0
  -27.5019  -24.7172   19.7502 H   0  0  0  0  0  0
  -28.7518  -25.2294   18.6433 H   0  0  0  0  0  0
  -30.4158  -23.2164   18.9001 H   0  0  0  0  0  0
  -28.0292  -20.3298   18.1068 H   0  0  0  0  0  0
  -27.7658  -18.9249   17.2317 H   0  0  0  0  0  0
  -30.4721  -20.7746   21.0198 H   0  0  0  0  0  0
  -29.1637  -15.3310   21.6215 H   0  0  0  0  0  0
  1 25  1  0  0  0
  1 30  2  0  0  0
  1 82  1  0  0  0
  2  3  1  0  0  0
  2 25  1  0  0  0
  2 87  1  0  0  0
  2 88  1  0  0  0
  3  4  1  0  0  0
  3 89  1  0  0  0
  3 90  1  0  0  0
  4  5  1  0  0  0
  4 91  1  0  0  0
  4 92  1  0  0  0
  5  6  1  0  0  0
  5 26  1  0  0  0
  5 93  1  0  0  0
  6 25  1  0  0  0
  6 94  1  0  0  0
  6 95  1  0  0  0
  7  8  2  0  0  0
  7 26  1  0  0  0
  7 29  1  0  0  0
  8  9  1  0  0  0
  8 22  1  0  0  0
  9 10  1  0  0  0
  9 27  2  0  0  0
 10 11  2  0  0  0
 10 15  1  0  0  0
 11 12  1  0  0  0
 11 96  1  0  0  0
 12 13  2  0  0  0
 12 97  1  0  0  0
 13 14  1  0  0  0
 13 31  1  0  0  0
 14 15  2  0  0  0
 14 98  1  0  0  0
 15 99  1  0  0  0
 16 17  2  0  0  0
 16 21  1  0  0  0
 16 31  1  0  0  0
 17 18  1  0  0  0
 17100  1  0  0  0
 18 19  2  0  0  0
 18101  1  0  0  0
 19 20  1  0  0  0
 19 24  1  0  0  0
 20 21  2  0  0  0
 20102  1  0  0  0
 21 23  1  0  0  0
 22 28  1  0  0  0
 22 32  2  0  0  0
 26 27  1  0  0  0
 28103  1  0  0  0
 28104  1  0  0  0
 29105  1  0  0  0
 29106  1  0  0  0
 33 34  1  0  0  0
 33 66  1  0  0  0
 33 70  2  0  0  0
 34 36  1  0  0  0
 34 59  1  0  0  0
 34107  1  0  0  0
 35 44  2  0  0  0
 35 45  1  0  0  0
 35 68  1  0  0  0
 36 56  1  0  0  0
 36108  1  0  0  0
 37 39  1  0  0  0
 37 47  1  0  0  0
 37 66  1  0  0  0
 37109  1  0  0  0
 38 43  2  0  0  0
 38 46  1  0  0  0
 38 47  1  0  0  0
 39 64  1  0  0  0
 39 67  2  0  0  0
 40 52  1  0  0  0
 40 53  2  0  0  0
 40 58  1  0  0  0
 41110  1  0  0  0
 41111  1  0  0  0
 41112  1  0  0  0
 41 48  1  0  0  0
 42 43  1  0  0  0
 42 66  1  0  0  0
 42113  1  0  0  0
 42114  1  0  0  0
 43 44  1  0  0  0
 44115  1  0  0  0
 45 46  2  0  0  0
 45116  1  0  0  0
 46117  1  0  0  0
 47118  1  0  0  0
 47119  1  0  0  0
 48 56  1  0  0  0
 48 65  1  0  0  0
 48120  1  0  0  0
 49 50  1  0  0  0
 49 53  1  0  0  0
 49 64  1  0  0  0
 49121  1  0  0  0
 50 51  1  0  0  0
 50122  1  0  0  0
 50123  1  0  0  0
 51 52  1  0  0  0
 51124  1  0  0  0
 51125  1  0  0  0
 52126  1  0  0  0
 52127  1  0  0  0
 53 54  1  0  0  0
 54 55  2  0  0  0
 54128  1  0  0  0
 55 57  1  0  0  0
 55129  1  0  0  0
 56 69  2  0  0  0
 57 58  2  0  0  0
 57130  1  0  0  0
 58131  1  0  0  0
 59 60  1  0  0  0
 59 61  1  0  0  0
 59 62  1  0  0  0
 60132  1  0  0  0
 60133  1  0  0  0
 60134  1  0  0  0
 61135  1  0  0  0
 61136  1  0  0  0
 61137  1  0  0  0
 62138  1  0  0  0
 62139  1  0  0  0
 62140  1  0  0  0
 63 65  1  0  0  0
 63141  1  0  0  0
 63142  1  0  0  0
 63143  1  0  0  0
 64144  1  0  0  0
 65145  1  0  0  0
 68 76  1  0  0  0
 71 72  2  0  0  0
 71 79  1  0  0  0
 71 81  1  0  0  0
 72 80  1  0  0  0
 72 86  1  0  0  0
 73 79  2  0  0  0
 73 82  1  0  0  0
 73 86  1  0  0  0
 74 77  1  0  0  0
 74 81  1  0  0  0
 74 83  2  0  0  0
 75146  1  0  0  0
 75147  1  0  0  0
 75148  1  0  0  0
 75 78  1  0  0  0
 76 78  1  0  0  0
 76149  1  0  0  0
 76150  1  0  0  0
 77 78  1  0  0  0
 77 84  1  0  0  0
 77151  1  0  0  0
 78 85  1  0  0  0
 80152  1  0  0  0
 80153  1  0  0  0
 81154  1  0  0  0
 82155  1  0  0  0
M  ISO  4   1 100  68 101  76 101  82 100
M  END
> <chiral flag>
0

> <version>
0

> <s_m_source_file>
/data/baiqing/PycharmProjects/Reinvent-master-3.2/result/LINK_invent/BTK/process_docking_weight1_custom_product_contain_oxygen_bond_distance_aromatic_linkinvent_7_9_3/rearranged_h_0179.sdf

> <i_m_source_file_index>
77

> <r_mmod_Potential_Energy-OPLS-2005>
-59.123161315918

> <r_mmod_Stretch_Energy-OPLS-2005>
63.2289505004883

> <r_mmod_Bend_Energy-OPLS-2005>
139.607803344727

> <r_mmod_Torsional_Energy-OPLS-2005>
250.870971679688

> <r_mmod_Improper_Torsional_Energy-OPLS-2005>
11.9209022521973

> <r_mmod_Van_der_Waal_Energy-OPLS-2005>
126.487396240234

> <r_mmod_Electrostatic_Energy-OPLS-2005>
-447.607940673828

> <r_mmod_Solvation_Energy-OPLS-2005>
-232.609954833984

> <b_mmod_Minimization_Converged-OPLS-2005>
0

> <r_mmod_RMS_Derivative-OPLS-2005>
6.65611743927002

$$$$
77
                    3D
 Structure written by MMmdl.
160168  0  0  1  0            999 V2000
  -30.7115  -14.4113   20.6256 C   0  0  0  0  0  0
  -30.4278  -12.2825   19.4080 C   0  0  0  0  0  0
  -29.4935  -12.5074   18.2015 C   0  0  0  0  0  0
  -28.0140  -12.3727   18.6129 C   0  0  0  0  0  0
  -27.6691  -13.1974   19.8816 C   0  0  2  0  0  0
  -28.7068  -12.9303   20.9953 C   0  0  0  0  0  0
  -25.2641  -13.8153   20.5690 C   0  0  0  0  0  0
  -24.1868  -13.0439   20.9184 C   0  0  0  0  0  0
  -24.6387  -11.6894   20.8719 C   0  0  0  0  0  0
  -23.9044  -10.4291   21.0388 C   0  0  0  0  0  0
  -24.3610   -9.4214   21.9164 C   0  0  0  0  0  0
  -23.6289   -8.2249   22.0732 C   0  0  0  0  0  0
  -22.4266   -8.0285   21.3545 C   0  0  0  0  0  0
  -21.9905   -9.0249   20.4648 C   0  0  0  0  0  0
  -22.7217  -10.2130   20.3049 C   0  0  0  0  0  0
  -21.6858   -6.0736   22.5278 C   0  0  0  0  0  0
  -21.4014   -6.5633   23.8213 C   0  0  0  0  0  0
  -21.3667   -5.6781   24.9174 C   0  0  0  0  0  0
  -21.6049   -4.3045   24.7222 C   0  0  0  0  0  0
  -21.8820   -3.8146   23.4339 C   0  0  0  0  0  0
  -21.9191   -4.6964   22.3398 C   0  0  0  0  0  0
  -22.7903  -13.5253   21.1829 C   0  0  0  0  0  0
  -22.1662   -4.2157   21.0971 F   0  0  0  0  0  0
  -21.5639   -3.4522   25.7731 F   0  0  0  0  0  0
  -30.0477  -13.2355   20.4620 N   0  0  0  0  0  0
  -26.3062  -12.9304   20.3388 N   0  0  0  0  0  0
  -25.9313  -11.6458   20.5764 N   0  0  0  0  0  0
  -22.0521  -12.8272   22.0396 N   0  0  0  0  0  0
  -25.4386  -15.1866   20.4121 N   0  0  0  0  0  0
  -31.7968  -14.6579   20.0882 O   0  0  0  0  0  0
  -21.6647   -6.8875   21.4235 O   0  0  0  0  0  0
  -22.3596  -14.5542   20.6654 O   0  0  0  0  0  0
  -24.6142  -31.8692   23.2119 C   0  0  0  0  0  0
  -25.9060  -32.4819   23.8399 C   0  0  1  0  0  0
  -27.2373  -27.4610   20.0998 C   0  0  0  0  0  0
  -25.5924  -33.8624   24.2321 N   0  0  0  0  0  0
  -23.3991  -30.4924   21.5535 C   0  0  2  0  0  0
  -24.8469  -28.9604   20.1183 C   0  0  0  0  0  0
  -22.7390  -29.4678   22.5030 C   0  0  0  0  0  0
  -18.0265  -28.1375   22.8497 C   0  0  0  0  0  0
  -24.1478  -36.7296   23.2645 C   0  0  0  0  0  0
  -25.9259  -30.8442   21.3622 C   0  0  0  0  0  0
  -26.0063  -29.4827   20.7072 C   0  0  0  0  0  0
  -27.2076  -28.7434   20.6895 C   0  0  0  0  0  0
  -26.0635  -26.9432   19.5120 C   0  0  0  0  0  0
  -24.8677  -27.6878   19.5203 C   0  0  0  0  0  0
  -23.6051  -29.8208   20.1695 C   0  0  0  0  0  0
  -25.4117  -36.3109   24.0330 C   0  0  1  0  0  0
  -20.5847  -28.3656   23.1341 C   0  0  2  0  0  0
  -20.6760  -26.9390   22.5454 C   0  0  0  0  0  0
  -19.5755  -26.6376   21.5230 C   0  0  0  0  0  0
  -18.1917  -26.7932   22.1607 C   0  0  0  0  0  0
  -19.1513  -28.8837   23.2908 C   0  0  0  0  0  0
  -18.9446  -30.1443   23.8915 C   0  0  0  0  0  0
  -17.6449  -30.6581   24.0562 C   0  0  0  0  0  0
  -25.9049  -34.9472   23.5118 C   0  0  0  0  0  0
  -16.5333  -29.9097   23.6311 C   0  0  0  0  0  0
  -16.7254  -28.6510   23.0341 C   0  0  0  0  0  0
  -26.4465  -31.6612   25.0739 C   0  0  0  0  0  0
  -25.3672  -31.3787   26.1446 C   0  0  0  0  0  0
  -27.0306  -30.3030   24.6172 C   0  0  0  0  0  0
  -27.6017  -32.4306   25.7564 C   0  0  0  0  0  0
  -27.5578  -37.1775   24.8450 C   0  0  0  0  0  0
  -21.4125  -29.3011   22.3742 N   0  0  0  0  0  0
  -26.4294  -37.3797   23.9395 N   0  0  0  0  0  0
  -24.6650  -31.0823   22.1007 N   0  0  0  0  0  0
  -23.4175  -28.8231   23.3074 O   0  0  0  0  0  0
  -28.4121  -26.7470   20.0782 O   0  0  0  0  0  0
  -26.5587  -34.8916   22.4663 O   0  0  0  0  0  0
  -23.5341  -32.1472   23.7513 O   0  0  0  0  0  0
  -28.8901  -17.5104   21.2947 C   0  0  0  0  0  0
  -29.2621  -18.7824   20.9617 C   0  0  0  0  0  0
  -31.1198  -17.5156   20.8590 C   0  0  0  0  0  0
  -30.0591  -16.7163   21.1850 C   0  0  0  0  0  0
  -29.6019  -23.2347   20.5339 C   0  0  0  0  0  0
  -29.4100  -24.5154   20.1359 C   0  0  0  0  0  0
  -30.5311  -22.2908   19.9195 C   0  0  0  0  0  0
  -32.8379  -19.9952   20.9192 C   0  0  0  0  0  0
  -28.3924  -25.4776   20.7530 C   0  0  2  0  0  0
  -31.4225  -19.9848   20.3148 C   0  0  1  0  0  0
  -28.6307  -25.6936   22.2647 C   0  0  0  0  0  0
  -30.6384  -18.8144   20.7334 N   0  0  0  0  0  0
  -30.0570  -15.3128   21.3768 N   0  0  0  0  0  0
  -30.7121  -21.2088   20.6875 N   0  0  0  0  0  0
  -31.0605  -22.4077   18.8109 O   0  0  0  0  0  0
  -30.0777  -25.1248   19.1405 O   0  0  0  0  0  0
  -27.5904  -26.2961   22.8434 F   0  0  0  0  0  0
  -29.7354  -26.4065   22.4860 F   0  0  0  0  0  0
  -31.4695  -12.3923   19.1040 H   0  0  0  0  0  0
  -30.3335  -11.2593   19.7760 H   0  0  0  0  0  0
  -29.7244  -11.7917   17.4102 H   0  0  0  0  0  0
  -29.6747  -13.4969   17.7804 H   0  0  0  0  0  0
  -27.8201  -11.3153   18.7948 H   0  0  0  0  0  0
  -27.3678  -12.6650   17.7847 H   0  0  0  0  0  0
  -27.7279  -14.2509   19.6074 H   0  0  0  0  0  0
  -28.6771  -11.8800   21.2876 H   0  0  0  0  0  0
  -28.4583  -13.4847   21.9009 H   0  0  0  0  0  0
  -25.2751   -9.5717   22.4739 H   0  0  0  0  0  0
  -24.0013   -7.4657   22.7446 H   0  0  0  0  0  0
  -21.0838   -8.8751   19.8973 H   0  0  0  0  0  0
  -22.3641  -10.9663   19.6183 H   0  0  0  0  0  0
  -21.1985   -7.6138   23.9723 H   0  0  0  0  0  0
  -21.1506   -6.0508   25.9083 H   0  0  0  0  0  0
  -22.0589   -2.7609   23.2829 H   0  0  0  0  0  0
  -22.4101  -11.9946   22.4830 H   0  0  0  0  0  0
  -21.1151  -13.1339   22.2558 H   0  0  0  0  0  0
  -24.6773  -15.8450   20.5340 H   0  0  0  0  0  0
  -26.2963  -15.6280   20.1051 H   0  0  0  0  0  0
  -26.7148  -32.5516   23.1189 H   0  0  0  0  0  0
  -25.0126  -33.9817   25.0495 H   0  0  0  0  0  0
  -22.6853  -31.3082   21.4147 H   0  0  0  0  0  0
  -23.3753  -35.9615   23.3348 H   0  0  0  0  0  0
  -24.3550  -36.8893   22.2046 H   0  0  0  0  0  0
  -23.7218  -37.6504   23.6661 H   0  0  0  0  0  0
  -26.0360  -31.6134   20.5960 H   0  0  0  0  0  0
  -26.8138  -30.8918   21.9819 H   0  0  0  0  0  0
  -28.1047  -29.1455   21.1396 H   0  0  0  0  0  0
  -26.0733  -25.9702   19.0425 H   0  0  0  0  0  0
  -23.9744  -27.2806   19.0666 H   0  0  0  0  0  0
  -23.7028  -30.5965   19.4104 H   0  0  0  0  0  0
  -22.7281  -29.2401   19.8782 H   0  0  0  0  0  0
  -25.1306  -36.1977   25.0829 H   0  0  0  0  0  0
  -20.9915  -28.3229   24.1470 H   0  0  0  0  0  0
  -20.5649  -26.2260   23.3646 H   0  0  0  0  0  0
  -21.6623  -26.7441   22.1222 H   0  0  0  0  0  0
  -19.6909  -25.6290   21.1254 H   0  0  0  0  0  0
  -19.6710  -27.3176   20.6757 H   0  0  0  0  0  0
  -17.4193  -26.6693   21.4000 H   0  0  0  0  0  0
  -18.0283  -26.0072   22.8993 H   0  0  0  0  0  0
  -19.7936  -30.7246   24.2281 H   0  0  0  0  0  0
  -17.5019  -31.6260   24.5154 H   0  0  0  0  0  0
  -15.5336  -30.2996   23.7670 H   0  0  0  0  0  0
  -15.8644  -28.0842   22.7053 H   0  0  0  0  0  0
  -24.5854  -30.7100   25.7810 H   0  0  0  0  0  0
  -24.8835  -32.2983   26.4765 H   0  0  0  0  0  0
  -25.7925  -30.9062   27.0304 H   0  0  0  0  0  0
  -26.2878  -29.6755   24.1232 H   0  0  0  0  0  0
  -27.4046  -29.7319   25.4680 H   0  0  0  0  0  0
  -27.8713  -30.4325   23.9351 H   0  0  0  0  0  0
  -27.2610  -33.3634   26.2048 H   0  0  0  0  0  0
  -28.3927  -32.6785   25.0472 H   0  0  0  0  0  0
  -28.0548  -31.8450   26.5583 H   0  0  0  0  0  0
  -28.2602  -38.0060   24.7498 H   0  0  0  0  0  0
  -28.1064  -36.2596   24.6284 H   0  0  0  0  0  0
  -27.2295  -37.1415   25.8851 H   0  0  0  0  0  0
  -20.9288  -29.8709   21.6934 H   0  0  0  0  0  0
  -26.0187  -38.2874   24.1415 H   0  0  0  0  0  0
  -27.8834  -17.1914   21.5368 H   0  0  0  0  0  0
  -28.6555  -19.6728   20.8704 H   0  0  0  0  0  0
  -32.1620  -17.2786   20.6914 H   0  0  0  0  0  0
  -29.0002  -22.8830   21.3604 H   0  0  0  0  0  0
  -33.4267  -19.1370   20.5934 H   0  0  0  0  0  0
  -32.8093  -19.9958   22.0097 H   0  0  0  0  0  0
  -33.3854  -20.8817   20.5997 H   0  0  0  0  0  0
  -27.4269  -24.9835   20.6352 H   0  0  0  0  0  0
  -31.5153  -19.9252   19.2287 H   0  0  0  0  0  0
  -28.7543  -24.7465   22.7902 H   0  0  0  0  0  0
  -29.2336  -14.9362   21.8217 H   0  0  0  0  0  0
  -30.2642  -21.2011   21.5917 H   0  0  0  0  0  0
  -29.7445  -26.0173   19.1052 H   0  0  0  0  0  0
  1 25  1  0  0  0
  1 30  2  0  0  0
  1 83  1  0  0  0
  2  3  1  0  0  0
  2 25  1  0  0  0
  2 89  1  0  0  0
  2 90  1  0  0  0
  3  4  1  0  0  0
  3 91  1  0  0  0
  3 92  1  0  0  0
  4  5  1  0  0  0
  4 93  1  0  0  0
  4 94  1  0  0  0
  5  6  1  0  0  0
  5 26  1  0  0  0
  5 95  1  0  0  0
  6 25  1  0  0  0
  6 96  1  0  0  0
  6 97  1  0  0  0
  7  8  2  0  0  0
  7 26  1  0  0  0
  7 29  1  0  0  0
  8  9  1  0  0  0
  8 22  1  0  0  0
  9 10  1  0  0  0
  9 27  2  0  0  0
 10 11  2  0  0  0
 10 15  1  0  0  0
 11 12  1  0  0  0
 11 98  1  0  0  0
 12 13  2  0  0  0
 12 99  1  0  0  0
 13 14  1  0  0  0
 13 31  1  0  0  0
 14 15  2  0  0  0
 14100  1  0  0  0
 15101  1  0  0  0
 16 17  2  0  0  0
 16 21  1  0  0  0
 16 31  1  0  0  0
 17 18  1  0  0  0
 17102  1  0  0  0
 18 19  2  0  0  0
 18103  1  0  0  0
 19 20  1  0  0  0
 19 24  1  0  0  0
 20 21  2  0  0  0
 20104  1  0  0  0
 21 23  1  0  0  0
 22 28  1  0  0  0
 22 32  2  0  0  0
 26 27  1  0  0  0
 28105  1  0  0  0
 28106  1  0  0  0
 29107  1  0  0  0
 29108  1  0  0  0
 33 34  1  0  0  0
 33 66  1  0  0  0
 33 70  2  0  0  0
 34 36  1  0  0  0
 34 59  1  0  0  0
 34109  1  0  0  0
 35 44  2  0  0  0
 35 45  1  0  0  0
 35 68  1  0  0  0
 36 56  1  0  0  0
 36110  1  0  0  0
 37 39  1  0  0  0
 37 47  1  0  0  0
 37 66  1  0  0  0
 37111  1  0  0  0
 38 43  2  0  0  0
 38 46  1  0  0  0
 38 47  1  0  0  0
 39 64  1  0  0  0
 39 67  2  0  0  0
 40 52  1  0  0  0
 40 53  2  0  0  0
 40 58  1  0  0  0
 41112  1  0  0  0
 41113  1  0  0  0
 41114  1  0  0  0
 41 48  1  0  0  0
 42 43  1  0  0  0
 42 66  1  0  0  0
 42115  1  0  0  0
 42116  1  0  0  0
 43 44  1  0  0  0
 44117  1  0  0  0
 45 46  2  0  0  0
 45118  1  0  0  0
 46119  1  0  0  0
 47120  1  0  0  0
 47121  1  0  0  0
 48 56  1  0  0  0
 48 65  1  0  0  0
 48122  1  0  0  0
 49 50  1  0  0  0
 49 53  1  0  0  0
 49 64  1  0  0  0
 49123  1  0  0  0
 50 51  1  0  0  0
 50124  1  0  0  0
 50125  1  0  0  0
 51 52  1  0  0  0
 51126  1  0  0  0
 51127  1  0  0  0
 52128  1  0  0  0
 52129  1  0  0  0
 53 54  1  0  0  0
 54 55  2  0  0  0
 54130  1  0  0  0
 55 57  1  0  0  0
 55131  1  0  0  0
 56 69  2  0  0  0
 57 58  2  0  0  0
 57132  1  0  0  0
 58133  1  0  0  0
 59 60  1  0  0  0
 59 61  1  0  0  0
 59 62  1  0  0  0
 60134  1  0  0  0
 60135  1  0  0  0
 60136  1  0  0  0
 61137  1  0  0  0
 61138  1  0  0  0
 61139  1  0  0  0
 62140  1  0  0  0
 62141  1  0  0  0
 62142  1  0  0  0
 63 65  1  0  0  0
 63143  1  0  0  0
 63144  1  0  0  0
 63145  1  0  0  0
 64146  1  0  0  0
 65147  1  0  0  0
 68 79  1  0  0  0
 71 72  2  0  0  0
 71 74  1  0  0  0
 71148  1  0  0  0
 72 82  1  0  0  0
 72149  1  0  0  0
 73 74  2  0  0  0
 73 82  1  0  0  0
 73150  1  0  0  0
 74 83  1  0  0  0
 75 76  2  0  0  0
 75 77  1  0  0  0
 75151  1  0  0  0
 76 79  1  0  0  0
 76 86  1  0  0  0
 77 84  1  0  0  0
 77 85  2  0  0  0
 78152  1  0  0  0
 78153  1  0  0  0
 78154  1  0  0  0
 78 80  1  0  0  0
 79 81  1  0  0  0
 79155  1  0  0  0
 80 82  1  0  0  0
 80 84  1  0  0  0
 80156  1  0  0  0
 81 87  1  0  0  0
 81 88  1  0  0  0
 81157  1  0  0  0
 83158  1  0  0  0
 84159  1  0  0  0
 86160  1  0  0  0
M  ISO  4   1 100  68 101  79 101  83 100
M  END
> <chiral flag>
0

> <version>
0

> <s_m_source_file>
/data/baiqing/PycharmProjects/Reinvent-master-3.2/result/LINK_invent/BTK/process_docking_weight1_custom_product_contain_oxygen_bond_distance_aromatic_linkinvent_7_9_3/rearranged_h_0179.sdf

> <i_m_source_file_index>
78

> <r_mmod_Potential_Energy-OPLS-2005>
-145.34228515625

> <r_mmod_Stretch_Energy-OPLS-2005>
34.4519233703613

> <r_mmod_Bend_Energy-OPLS-2005>
102.188957214355

> <r_mmod_Torsional_Energy-OPLS-2005>
242.525390625

> <r_mmod_Improper_Torsional_Energy-OPLS-2005>
4.69829082489014

> <r_mmod_Van_der_Waal_Energy-OPLS-2005>
142.490844726562

> <r_mmod_Electrostatic_Energy-OPLS-2005>
-432.240203857422

> <r_mmod_Solvation_Energy-OPLS-2005>
-247.516662597656

> <b_mmod_Minimization_Converged-OPLS-2005>
0

> <r_mmod_RMS_Derivative-OPLS-2005>
3.10680222511292

$$$$
78
                    3D
 Structure written by MMmdl.
150158  0  0  1  0            999 V2000
  -30.6352  -14.7562   20.4579 C   0  0  0  0  0  0
  -30.4218  -12.4668   19.4690 C   0  0  0  0  0  0
  -29.5031  -12.5039   18.2303 C   0  0  0  0  0  0
  -28.0307  -12.3285   18.6475 C   0  0  0  0  0  0
  -27.6335  -13.2383   19.8410 C   0  0  2  0  0  0
  -28.6804  -13.2014   20.9747 C   0  0  0  0  0  0
  -25.2472  -13.8209   20.5700 C   0  0  0  0  0  0
  -24.1783  -13.0439   20.9228 C   0  0  0  0  0  0
  -24.6387  -11.6922   20.8757 C   0  0  0  0  0  0
  -23.9071  -10.4292   21.0408 C   0  0  0  0  0  0
  -24.3623   -9.4207   21.9183 C   0  0  0  0  0  0
  -23.6297   -8.2242   22.0753 C   0  0  0  0  0  0
  -22.4279   -8.0280   21.3542 C   0  0  0  0  0  0
  -21.9915   -9.0254   20.4645 C   0  0  0  0  0  0
  -22.7244  -10.2133   20.3056 C   0  0  0  0  0  0
  -21.6855   -6.0735   22.5278 C   0  0  0  0  0  0
  -21.4015   -6.5639   23.8210 C   0  0  0  0  0  0
  -21.3659   -5.6791   24.9172 C   0  0  0  0  0  0
  -21.6045   -4.3054   24.7223 C   0  0  0  0  0  0
  -21.8820   -3.8146   23.4343 C   0  0  0  0  0  0
  -21.9193   -4.6962   22.3400 C   0  0  0  0  0  0
  -22.7803  -13.5214   21.1879 C   0  0  0  0  0  0
  -22.1662   -4.2147   21.0978 F   0  0  0  0  0  0
  -21.5628   -3.4540   25.7735 F   0  0  0  0  0  0
  -29.9739  -13.5489   20.3777 N   0  0  0  0  0  0
  -26.2895  -12.9431   20.3249 N   0  0  0  0  0  0
  -25.9316  -11.6566   20.5744 N   0  0  0  0  0  0
  -22.0455  -12.8200   22.0437 N   0  0  0  0  0  0
  -25.4112  -15.1935   20.4101 N   0  0  0  0  0  0
  -31.8420  -14.7688   20.1982 O   0  0  0  0  0  0
  -21.6643   -6.8878   21.4238 O   0  0  0  0  0  0
  -22.3484  -14.5514   20.6717 O   0  0  0  0  0  0
  -24.6309  -31.8545   23.1969 C   0  0  0  0  0  0
  -25.9134  -32.4749   23.8321 C   0  0  1  0  0  0
  -27.2172  -27.2599   20.1434 C   0  0  0  0  0  0
  -25.5928  -33.8552   24.2247 N   0  0  0  0  0  0
  -23.4278  -30.4749   21.5401 C   0  0  2  0  0  0
  -24.8753  -28.9139   20.1149 C   0  0  0  0  0  0
  -22.7499  -29.4597   22.4918 C   0  0  0  0  0  0
  -18.0292  -28.1387   22.8485 C   0  0  0  0  0  0
  -24.1488  -36.7281   23.2642 C   0  0  0  0  0  0
  -25.9719  -30.7675   21.3750 C   0  0  0  0  0  0
  -26.0458  -29.3870   20.7232 C   0  0  0  0  0  0
  -27.2234  -28.5736   20.7216 C   0  0  0  0  0  0
  -26.0297  -26.8479   19.5085 C   0  0  0  0  0  0
  -24.8714  -27.6522   19.4966 C   0  0  0  0  0  0
  -23.6467  -29.8031   20.1582 C   0  0  0  0  0  0
  -25.4116  -36.3066   24.0325 C   0  0  1  0  0  0
  -20.5894  -28.3695   23.1273 C   0  0  2  0  0  0
  -20.6778  -26.9413   22.5410 C   0  0  0  0  0  0
  -19.5754  -26.6383   21.5213 C   0  0  0  0  0  0
  -18.1935  -26.7929   22.1625 C   0  0  0  0  0  0
  -19.1545  -28.8859   23.2873 C   0  0  0  0  0  0
  -18.9466  -30.1460   23.8890 C   0  0  0  0  0  0
  -17.6465  -30.6588   24.0562 C   0  0  0  0  0  0
  -25.9056  -34.9437   23.5091 C   0  0  0  0  0  0
  -16.5357  -29.9084   23.6332 C   0  0  0  0  0  0
  -16.7279  -28.6502   23.0353 C   0  0  0  0  0  0
  -26.4500  -31.6576   25.0713 C   0  0  0  0  0  0
  -25.3720  -31.3729   26.1432 C   0  0  0  0  0  0
  -27.0352  -30.2993   24.6202 C   0  0  0  0  0  0
  -27.6052  -32.4320   25.7489 C   0  0  0  0  0  0
  -27.5576  -37.1797   24.8466 C   0  0  0  0  0  0
  -21.4206  -29.3041   22.3661 N   0  0  0  0  0  0
  -26.4290  -37.3767   23.9408 N   0  0  0  0  0  0
  -24.6960  -31.0509   22.0940 N   0  0  0  0  0  0
  -23.4197  -28.8149   23.3028 O   0  0  0  0  0  0
  -28.3162  -26.3748   20.1373 O   0  0  0  0  0  0
  -26.5633  -34.8915   22.4663 O   0  0  0  0  0  0
  -23.5459  -32.1366   23.7267 O   0  0  0  0  0  0
  -28.0815  -20.3240   19.8251 C   0  0  0  0  0  0
  -28.4012  -18.8983   19.8249 C   0  0  0  0  0  0
  -29.5403  -18.5419   20.5190 C   0  0  0  0  0  0
  -28.9429  -21.1722   20.5033 C   0  0  0  0  0  0
  -30.3808  -17.2442   20.7046 C   0  0  0  0  0  0
  -28.3239  -23.6608   20.1619 C   0  0  0  0  0  0
  -27.2480  -25.0765   22.0392 C   0  0  0  0  0  0
  -28.3120  -25.0835   20.9233 C   0  0  2  0  0  0
  -28.9098  -22.5575   20.7729 N   0  0  0  0  0  0
  -29.9004  -15.9399   20.5800 N   0  0  0  0  0  0
  -31.5635  -17.4376   21.0075 O   0  0  0  0  0  0
  -27.8161  -23.5822   19.0414 O   0  0  0  0  0  0
  -26.9989  -20.7629   19.2233 F   0  0  0  0  0  0
  -30.2020  -20.0830   21.1660 S   0  0  0  0  0  0
  -27.3947  -17.8139   18.9789 Cl  0  0  0  0  0  0
  -31.4626  -12.5786   19.1610 H   0  0  0  0  0  0
  -30.3619  -11.4981   19.9681 H   0  0  0  0  0  0
  -29.7873  -11.7223   17.5246 H   0  0  0  0  0  0
  -29.6280  -13.4524   17.7055 H   0  0  0  0  0  0
  -27.8911  -11.2817   18.9195 H   0  0  0  0  0  0
  -27.3726  -12.5103   17.7969 H   0  0  0  0  0  0
  -27.6172  -14.2543   19.4462 H   0  0  0  0  0  0
  -28.7224  -12.2138   21.4365 H   0  0  0  0  0  0
  -28.4164  -13.9033   21.7675 H   0  0  0  0  0  0
  -25.2767   -9.5683   22.4760 H   0  0  0  0  0  0
  -24.0004   -7.4635   22.7474 H   0  0  0  0  0  0
  -21.0845   -8.8772   19.8956 H   0  0  0  0  0  0
  -22.3697  -10.9672   19.6168 H   0  0  0  0  0  0
  -21.2011   -7.6147   23.9710 H   0  0  0  0  0  0
  -21.1481   -6.0523   25.9073 H   0  0  0  0  0  0
  -22.0600   -2.7608   23.2844 H   0  0  0  0  0  0
  -22.4084  -11.9871   22.4831 H   0  0  0  0  0  0
  -21.1069  -13.1212   22.2639 H   0  0  0  0  0  0
  -24.6292  -15.8317   20.5062 H   0  0  0  0  0  0
  -26.2281  -15.6356   20.0103 H   0  0  0  0  0  0
  -26.7200  -32.5398   23.1063 H   0  0  0  0  0  0
  -25.0067  -33.9686   25.0387 H   0  0  0  0  0  0
  -22.7244  -31.2968   21.3914 H   0  0  0  0  0  0
  -23.3751  -35.9613   23.3304 H   0  0  0  0  0  0
  -24.3577  -36.8906   22.2056 H   0  0  0  0  0  0
  -23.7241  -37.6481   23.6669 H   0  0  0  0  0  0
  -26.1082  -31.5253   20.6023 H   0  0  0  0  0  0
  -26.8505  -30.8202   22.0064 H   0  0  0  0  0  0
  -28.1247  -28.9339   21.1974 H   0  0  0  0  0  0
  -25.9944  -25.8762   19.0357 H   0  0  0  0  0  0
  -23.9752  -27.2848   19.0157 H   0  0  0  0  0  0
  -23.7728  -30.5767   19.3998 H   0  0  0  0  0  0
  -22.7646  -29.2367   19.8541 H   0  0  0  0  0  0
  -25.1300  -36.1912   25.0818 H   0  0  0  0  0  0
  -20.9987  -28.3271   24.1393 H   0  0  0  0  0  0
  -20.5674  -26.2307   23.3613 H   0  0  0  0  0  0
  -21.6646  -26.7434   22.1207 H   0  0  0  0  0  0
  -19.6913  -25.6291   21.1246 H   0  0  0  0  0  0
  -19.6690  -27.3190   20.6739 H   0  0  0  0  0  0
  -17.4203  -26.6678   21.4028 H   0  0  0  0  0  0
  -18.0335  -26.0071   22.9022 H   0  0  0  0  0  0
  -19.7943  -30.7280   24.2254 H   0  0  0  0  0  0
  -17.5019  -31.6267   24.5165 H   0  0  0  0  0  0
  -15.5357  -30.2983   23.7658 H   0  0  0  0  0  0
  -15.8679  -28.0818   22.7071 H   0  0  0  0  0  0
  -24.5898  -30.7076   25.7756 H   0  0  0  0  0  0
  -24.8907  -32.2900   26.4839 H   0  0  0  0  0  0
  -25.8031  -30.8916   27.0219 H   0  0  0  0  0  0
  -26.2938  -29.6735   24.1218 H   0  0  0  0  0  0
  -27.4026  -29.7261   25.4724 H   0  0  0  0  0  0
  -27.8816  -30.4270   23.9452 H   0  0  0  0  0  0
  -27.2658  -33.3626   26.2051 H   0  0  0  0  0  0
  -28.3870  -32.6871   25.0323 H   0  0  0  0  0  0
  -28.0711  -31.8455   26.5418 H   0  0  0  0  0  0
  -28.2596  -38.0091   24.7508 H   0  0  0  0  0  0
  -28.1069  -36.2622   24.6300 H   0  0  0  0  0  0
  -27.2294  -37.1456   25.8870 H   0  0  0  0  0  0
  -20.9394  -29.8753   21.6853 H   0  0  0  0  0  0
  -26.0166  -38.2841   24.1405 H   0  0  0  0  0  0
  -27.3485  -24.1960   22.6747 H   0  0  0  0  0  0
  -26.2369  -25.0649   21.6332 H   0  0  0  0  0  0
  -27.3463  -25.9506   22.6827 H   0  0  0  0  0  0
  -29.2746  -25.1107   21.4351 H   0  0  0  0  0  0
  -29.4101  -22.8125   21.6135 H   0  0  0  0  0  0
  -28.9012  -15.8440   20.5297 H   0  0  0  0  0  0
  1 25  1  0  0  0
  1 30  2  0  0  0
  1 80  1  0  0  0
  2  3  1  0  0  0
  2 25  1  0  0  0
  2 86  1  0  0  0
  2 87  1  0  0  0
  3  4  1  0  0  0
  3 88  1  0  0  0
  3 89  1  0  0  0
  4  5  1  0  0  0
  4 90  1  0  0  0
  4 91  1  0  0  0
  5  6  1  0  0  0
  5 26  1  0  0  0
  5 92  1  0  0  0
  6 25  1  0  0  0
  6 93  1  0  0  0
  6 94  1  0  0  0
  7  8  2  0  0  0
  7 26  1  0  0  0
  7 29  1  0  0  0
  8  9  1  0  0  0
  8 22  1  0  0  0
  9 10  1  0  0  0
  9 27  2  0  0  0
 10 11  2  0  0  0
 10 15  1  0  0  0
 11 12  1  0  0  0
 11 95  1  0  0  0
 12 13  2  0  0  0
 12 96  1  0  0  0
 13 14  1  0  0  0
 13 31  1  0  0  0
 14 15  2  0  0  0
 14 97  1  0  0  0
 15 98  1  0  0  0
 16 17  2  0  0  0
 16 21  1  0  0  0
 16 31  1  0  0  0
 17 18  1  0  0  0
 17 99  1  0  0  0
 18 19  2  0  0  0
 18100  1  0  0  0
 19 20  1  0  0  0
 19 24  1  0  0  0
 20 21  2  0  0  0
 20101  1  0  0  0
 21 23  1  0  0  0
 22 28  1  0  0  0
 22 32  2  0  0  0
 26 27  1  0  0  0
 28102  1  0  0  0
 28103  1  0  0  0
 29104  1  0  0  0
 29105  1  0  0  0
 33 34  1  0  0  0
 33 66  1  0  0  0
 33 70  2  0  0  0
 34 36  1  0  0  0
 34 59  1  0  0  0
 34106  1  0  0  0
 35 44  2  0  0  0
 35 45  1  0  0  0
 35 68  1  0  0  0
 36 56  1  0  0  0
 36107  1  0  0  0
 37 39  1  0  0  0
 37 47  1  0  0  0
 37 66  1  0  0  0
 37108  1  0  0  0
 38 43  2  0  0  0
 38 46  1  0  0  0
 38 47  1  0  0  0
 39 64  1  0  0  0
 39 67  2  0  0  0
 40 52  1  0  0  0
 40 53  2  0  0  0
 40 58  1  0  0  0
 41109  1  0  0  0
 41110  1  0  0  0
 41111  1  0  0  0
 41 48  1  0  0  0
 42 43  1  0  0  0
 42 66  1  0  0  0
 42112  1  0  0  0
 42113  1  0  0  0
 43 44  1  0  0  0
 44114  1  0  0  0
 45 46  2  0  0  0
 45115  1  0  0  0
 46116  1  0  0  0
 47117  1  0  0  0
 47118  1  0  0  0
 48 56  1  0  0  0
 48 65  1  0  0  0
 48119  1  0  0  0
 49 50  1  0  0  0
 49 53  1  0  0  0
 49 64  1  0  0  0
 49120  1  0  0  0
 50 51  1  0  0  0
 50121  1  0  0  0
 50122  1  0  0  0
 51 52  1  0  0  0
 51123  1  0  0  0
 51124  1  0  0  0
 52125  1  0  0  0
 52126  1  0  0  0
 53 54  1  0  0  0
 54 55  2  0  0  0
 54127  1  0  0  0
 55 57  1  0  0  0
 55128  1  0  0  0
 56 69  2  0  0  0
 57 58  2  0  0  0
 57129  1  0  0  0
 58130  1  0  0  0
 59 60  1  0  0  0
 59 61  1  0  0  0
 59 62  1  0  0  0
 60131  1  0  0  0
 60132  1  0  0  0
 60133  1  0  0  0
 61134  1  0  0  0
 61135  1  0  0  0
 61136  1  0  0  0
 62137  1  0  0  0
 62138  1  0  0  0
 62139  1  0  0  0
 63 65  1  0  0  0
 63140  1  0  0  0
 63141  1  0  0  0
 63142  1  0  0  0
 64143  1  0  0  0
 65144  1  0  0  0
 68 78  1  0  0  0
 71 72  1  0  0  0
 71 74  2  0  0  0
 71 83  1  0  0  0
 72 73  2  0  0  0
 72 85  1  0  0  0
 73 75  1  0  0  0
 73 84  1  0  0  0
 74 79  1  0  0  0
 74 84  1  0  0  0
 75 80  1  0  0  0
 75 81  2  0  0  0
 76 78  1  0  0  0
 76 79  1  0  0  0
 76 82  2  0  0  0
 77145  1  0  0  0
 77146  1  0  0  0
 77147  1  0  0  0
 77 78  1  0  0  0
 78148  1  0  0  0
 79149  1  0  0  0
 80150  1  0  0  0
M  ISO  4   1 100  68 101  78 101  80 100
M  END
> <chiral flag>
0

> <version>
0

> <s_m_source_file>
/data/baiqing/PycharmProjects/Reinvent-master-3.2/result/LINK_invent/BTK/process_docking_weight1_custom_product_contain_oxygen_bond_distance_aromatic_linkinvent_7_9_3/rearranged_h_0179.sdf

> <i_m_source_file_index>
79

> <r_mmod_Potential_Energy-OPLS-2005>
49.6544723510742

> <r_mmod_Stretch_Energy-OPLS-2005>
118.151885986328

> <r_mmod_Bend_Energy-OPLS-2005>
185.103393554688

> <r_mmod_Torsional_Energy-OPLS-2005>
264.366455078125

> <r_mmod_Improper_Torsional_Energy-OPLS-2005>
6.41161680221558

> <r_mmod_Van_der_Waal_Energy-OPLS-2005>
114.32137298584

> <r_mmod_Electrostatic_Energy-OPLS-2005>
-476.300201416016

> <r_mmod_Solvation_Energy-OPLS-2005>
-251.000595092773

> <b_mmod_Minimization_Converged-OPLS-2005>
0

> <r_mmod_RMS_Derivative-OPLS-2005>
0.357860893011093

$$$$
79
                    3D
 Structure written by MMmdl.
159167  0  0  1  0            999 V2000
  -30.6433  -14.5095   20.6169 C   0  0  0  0  0  0
  -30.4427  -12.3352   19.4233 C   0  0  0  0  0  0
  -29.5038  -12.5043   18.2084 C   0  0  0  0  0  0
  -28.0250  -12.3448   18.6158 C   0  0  0  0  0  0
  -27.6644  -13.1877   19.8674 C   0  0  2  0  0  0
  -28.6985  -12.9431   20.9867 C   0  0  0  0  0  0
  -25.2633  -13.8118   20.5601 C   0  0  0  0  0  0
  -24.1864  -13.0422   20.9084 C   0  0  0  0  0  0
  -24.6376  -11.6871   20.8659 C   0  0  0  0  0  0
  -23.9031  -10.4294   21.0364 C   0  0  0  0  0  0
  -24.3595   -9.4237   21.9164 C   0  0  0  0  0  0
  -23.6278   -8.2278   22.0778 C   0  0  0  0  0  0
  -22.4272   -8.0292   21.3548 C   0  0  0  0  0  0
  -21.9867   -9.0258   20.4653 C   0  0  0  0  0  0
  -22.7182  -10.2143   20.3036 C   0  0  0  0  0  0
  -21.6866   -6.0729   22.5261 C   0  0  0  0  0  0
  -21.4021   -6.5658   23.8190 C   0  0  0  0  0  0
  -21.3647   -5.6810   24.9146 C   0  0  0  0  0  0
  -21.6046   -4.3068   24.7208 C   0  0  0  0  0  0
  -21.8829   -3.8151   23.4328 C   0  0  0  0  0  0
  -21.9203   -4.6964   22.3376 C   0  0  0  0  0  0
  -22.7899  -13.5257   21.1764 C   0  0  0  0  0  0
  -22.1675   -4.2144   21.0949 F   0  0  0  0  0  0
  -21.5605   -3.4564   25.7720 F   0  0  0  0  0  0
  -30.0337  -13.2973   20.4604 N   0  0  0  0  0  0
  -26.3029  -12.9243   20.3260 N   0  0  0  0  0  0
  -25.9301  -11.6426   20.5694 N   0  0  0  0  0  0
  -22.0538  -12.8283   22.0332 N   0  0  0  0  0  0
  -25.4368  -15.1850   20.4104 N   0  0  0  0  0  0
  -31.7158  -14.7950   20.0713 O   0  0  0  0  0  0
  -21.6657   -6.8877   21.4223 O   0  0  0  0  0  0
  -22.3597  -14.5559   20.6592 O   0  0  0  0  0  0
  -24.6150  -31.8711   23.2179 C   0  0  0  0  0  0
  -25.9048  -32.4841   23.8446 C   0  0  1  0  0  0
  -27.2147  -27.4101   20.0994 C   0  0  0  0  0  0
  -25.5901  -33.8644   24.2349 N   0  0  0  0  0  0
  -23.3997  -30.5055   21.5591 C   0  0  2  0  0  0
  -24.8408  -28.9846   20.1066 C   0  0  0  0  0  0
  -22.7393  -29.4685   22.4968 C   0  0  0  0  0  0
  -18.0277  -28.1356   22.8488 C   0  0  0  0  0  0
  -24.1465  -36.7309   23.2623 C   0  0  0  0  0  0
  -25.9358  -30.8252   21.3820 C   0  0  0  0  0  0
  -26.0057  -29.4651   20.7195 C   0  0  0  0  0  0
  -27.1905  -28.6850   20.7225 C   0  0  0  0  0  0
  -26.0361  -26.9888   19.4300 C   0  0  0  0  0  0
  -24.8539  -27.7444   19.4566 C   0  0  0  0  0  0
  -23.6068  -29.8587   20.1666 C   0  0  0  0  0  0
  -25.4090  -36.3122   24.0332 C   0  0  1  0  0  0
  -20.5868  -28.3646   23.1292 C   0  0  2  0  0  0
  -20.6764  -26.9380   22.5397 C   0  0  0  0  0  0
  -19.5751  -26.6376   21.5179 C   0  0  0  0  0  0
  -18.1931  -26.7909   22.1599 C   0  0  0  0  0  0
  -19.1532  -28.8815   23.2899 C   0  0  0  0  0  0
  -18.9461  -30.1411   23.8935 C   0  0  0  0  0  0
  -17.6469  -30.6569   24.0563 C   0  0  0  0  0  0
  -25.9040  -34.9488   23.5141 C   0  0  0  0  0  0
  -16.5356  -29.9078   23.6318 C   0  0  0  0  0  0
  -16.7267  -28.6479   23.0366 C   0  0  0  0  0  0
  -26.4453  -31.6636   25.0789 C   0  0  0  0  0  0
  -25.3706  -31.3803   26.1543 C   0  0  0  0  0  0
  -27.0257  -30.3069   24.6182 C   0  0  0  0  0  0
  -27.6043  -32.4347   25.7532 C   0  0  0  0  0  0
  -27.5589  -37.1782   24.8437 C   0  0  0  0  0  0
  -21.4125  -29.3022   22.3691 N   0  0  0  0  0  0
  -26.4266  -37.3819   23.9439 N   0  0  0  0  0  0
  -24.6684  -31.0809   22.1095 N   0  0  0  0  0  0
  -23.4176  -28.8206   23.2988 O   0  0  0  0  0  0
  -28.3473  -26.5995   20.1773 O   0  0  0  0  0  0
  -26.5611  -34.8931   22.4711 O   0  0  0  0  0  0
  -23.5349  -32.1472   23.7566 O   0  0  0  0  0  0
  -28.7851  -18.7530   22.1377 C   0  0  0  0  0  0
  -29.0009  -17.3511   22.3934 C   0  0  0  0  0  0
  -29.4752  -19.2321   21.0437 C   0  0  0  0  0  0
  -29.7901  -16.7107   21.4615 C   0  0  0  0  0  0
  -28.7993  -22.7684   20.2807 C   0  0  0  0  0  0
  -28.9966  -24.1089   20.4979 C   0  0  0  0  0  0
  -29.5639  -21.7032   20.9765 C   0  0  0  0  0  0
  -27.8082  -19.5771   22.9388 C   0  0  0  0  0  0
  -28.3517  -16.6409   23.5521 C   0  0  0  0  0  0
  -27.7063  -22.3093   19.3113 C   0  0  0  0  0  0
  -28.1299  -25.2041   19.8466 C   0  0  0  0  0  0
  -29.3506  -20.4654   20.4584 N   0  0  0  0  0  0
  -29.9797  -15.3489   21.4426 N   0  0  0  0  0  0
  -30.3208  -21.8944   21.9334 O   0  0  0  0  0  0
  -29.9198  -24.6468   21.3151 O   0  0  0  0  0  0
  -30.3649  -17.9007   20.2925 S   0  0  0  0  0  0
  -31.4838  -12.4720   19.1256 H   0  0  0  0  0  0
  -30.3784  -11.3189   19.8150 H   0  0  0  0  0  0
  -29.7556  -11.7765   17.4359 H   0  0  0  0  0  0
  -29.6534  -13.4874   17.7610 H   0  0  0  0  0  0
  -27.8487  -11.2865   18.8191 H   0  0  0  0  0  0
  -27.3739  -12.6030   17.7817 H   0  0  0  0  0  0
  -27.7184  -14.2360   19.5740 H   0  0  0  0  0  0
  -28.6925  -11.8905   21.2771 H   0  0  0  0  0  0
  -28.4207  -13.4805   21.8935 H   0  0  0  0  0  0
  -25.2748   -9.5764   22.4714 H   0  0  0  0  0  0
  -23.9982   -7.4715   22.7558 H   0  0  0  0  0  0
  -21.0776   -8.8791   19.8997 H   0  0  0  0  0  0
  -22.3627  -10.9682   19.6159 H   0  0  0  0  0  0
  -21.2047   -7.6173   23.9685 H   0  0  0  0  0  0
  -21.1426   -6.0537   25.9045 H   0  0  0  0  0  0
  -22.0611   -2.7609   23.2826 H   0  0  0  0  0  0
  -22.4142  -11.9931   22.4685 H   0  0  0  0  0  0
  -21.1180  -13.1380   22.2582 H   0  0  0  0  0  0
  -24.6666  -15.8350   20.5303 H   0  0  0  0  0  0
  -26.3006  -15.6381   20.1376 H   0  0  0  0  0  0
  -26.7101  -32.5535   23.1190 H   0  0  0  0  0  0
  -25.0038  -33.9807   25.0484 H   0  0  0  0  0  0
  -22.6904  -31.3273   21.4364 H   0  0  0  0  0  0
  -23.3747  -35.9616   23.3248 H   0  0  0  0  0  0
  -24.3560  -36.8966   22.2041 H   0  0  0  0  0  0
  -23.7163  -37.6483   23.6661 H   0  0  0  0  0  0
  -26.0693  -31.5934   20.6191 H   0  0  0  0  0  0
  -26.8187  -30.8606   22.0087 H   0  0  0  0  0  0
  -28.0781  -29.0461   21.2236 H   0  0  0  0  0  0
  -25.9909  -26.0694   18.8657 H   0  0  0  0  0  0
  -23.9711  -27.3736   18.9529 H   0  0  0  0  0  0
  -23.7155  -30.6511   19.4248 H   0  0  0  0  0  0
  -22.7214  -29.2969   19.8621 H   0  0  0  0  0  0
  -25.1236  -36.1991   25.0815 H   0  0  0  0  0  0
  -20.9983  -28.3212   24.1400 H   0  0  0  0  0  0
  -20.5600  -26.2255   23.3581 H   0  0  0  0  0  0
  -21.6646  -26.7374   22.1235 H   0  0  0  0  0  0
  -19.6916  -25.6290   21.1191 H   0  0  0  0  0  0
  -19.6713  -27.3196   20.6723 H   0  0  0  0  0  0
  -17.4187  -26.6635   21.4016 H   0  0  0  0  0  0
  -18.0365  -26.0041   22.8991 H   0  0  0  0  0  0
  -19.7945  -30.7198   24.2344 H   0  0  0  0  0  0
  -17.5033  -31.6263   24.5146 H   0  0  0  0  0  0
  -15.5365  -30.3000   23.7625 H   0  0  0  0  0  0
  -15.8653  -28.0792   22.7108 H   0  0  0  0  0  0
  -24.5855  -30.7151   25.7922 H   0  0  0  0  0  0
  -24.8918  -32.2987   26.4964 H   0  0  0  0  0  0
  -25.8044  -30.9012   27.0327 H   0  0  0  0  0  0
  -26.2811  -29.6886   24.1149 H   0  0  0  0  0  0
  -27.3914  -29.7265   25.4660 H   0  0  0  0  0  0
  -27.8711  -30.4388   23.9423 H   0  0  0  0  0  0
  -27.2678  -33.3638   26.2152 H   0  0  0  0  0  0
  -28.3837  -32.6918   25.0342 H   0  0  0  0  0  0
  -28.0723  -31.8440   26.5416 H   0  0  0  0  0  0
  -28.2544  -38.0144   24.7599 H   0  0  0  0  0  0
  -28.1148  -36.2686   24.6104 H   0  0  0  0  0  0
  -27.2333  -37.1240   25.8841 H   0  0  0  0  0  0
  -20.9256  -29.8773   21.6956 H   0  0  0  0  0  0
  -26.0152  -38.2873   24.1557 H   0  0  0  0  0  0
  -26.8110  -19.4985   22.5077 H   0  0  0  0  0  0
  -28.0558  -20.6350   22.9690 H   0  0  0  0  0  0
  -27.7386  -19.2527   23.9766 H   0  0  0  0  0  0
  -28.5870  -17.1405   24.4916 H   0  0  0  0  0  0
  -28.6850  -15.6101   23.6636 H   0  0  0  0  0  0
  -27.2668  -16.6242   23.4455 H   0  0  0  0  0  0
  -28.1468  -21.7921   18.4606 H   0  0  0  0  0  0
  -27.1062  -23.1139   18.8947 H   0  0  0  0  0  0
  -27.0022  -21.6485   19.8227 H   0  0  0  0  0  0
  -27.1393  -24.9100   20.1948 H   0  0  0  0  0  0
  -28.1560  -25.0995   18.7605 H   0  0  0  0  0  0
  -28.8541  -20.4773   19.5788 H   0  0  0  0  0  0
  -29.2895  -14.8487   21.9846 H   0  0  0  0  0  0
  -30.3777  -23.9311   21.7450 H   0  0  0  0  0  0
  1 25  1  0  0  0
  1 30  2  0  0  0
  1 83  1  0  0  0
  2  3  1  0  0  0
  2 25  1  0  0  0
  2 87  1  0  0  0
  2 88  1  0  0  0
  3  4  1  0  0  0
  3 89  1  0  0  0
  3 90  1  0  0  0
  4  5  1  0  0  0
  4 91  1  0  0  0
  4 92  1  0  0  0
  5  6  1  0  0  0
  5 26  1  0  0  0
  5 93  1  0  0  0
  6 25  1  0  0  0
  6 94  1  0  0  0
  6 95  1  0  0  0
  7  8  2  0  0  0
  7 26  1  0  0  0
  7 29  1  0  0  0
  8  9  1  0  0  0
  8 22  1  0  0  0
  9 10  1  0  0  0
  9 27  2  0  0  0
 10 11  2  0  0  0
 10 15  1  0  0  0
 11 12  1  0  0  0
 11 96  1  0  0  0
 12 13  2  0  0  0
 12 97  1  0  0  0
 13 14  1  0  0  0
 13 31  1  0  0  0
 14 15  2  0  0  0
 14 98  1  0  0  0
 15 99  1  0  0  0
 16 17  2  0  0  0
 16 21  1  0  0  0
 16 31  1  0  0  0
 17 18  1  0  0  0
 17100  1  0  0  0
 18 19  2  0  0  0
 18101  1  0  0  0
 19 20  1  0  0  0
 19 24  1  0  0  0
 20 21  2  0  0  0
 20102  1  0  0  0
 21 23  1  0  0  0
 22 28  1  0  0  0
 22 32  2  0  0  0
 26 27  1  0  0  0
 28103  1  0  0  0
 28104  1  0  0  0
 29105  1  0  0  0
 29106  1  0  0  0
 33 34  1  0  0  0
 33 66  1  0  0  0
 33 70  2  0  0  0
 34 36  1  0  0  0
 34 59  1  0  0  0
 34107  1  0  0  0
 35 44  2  0  0  0
 35 45  1  0  0  0
 35 68  1  0  0  0
 36 56  1  0  0  0
 36108  1  0  0  0
 37 39  1  0  0  0
 37 47  1  0  0  0
 37 66  1  0  0  0
 37109  1  0  0  0
 38 43  2  0  0  0
 38 46  1  0  0  0
 38 47  1  0  0  0
 39 64  1  0  0  0
 39 67  2  0  0  0
 40 52  1  0  0  0
 40 53  2  0  0  0
 40 58  1  0  0  0
 41110  1  0  0  0
 41111  1  0  0  0
 41112  1  0  0  0
 41 48  1  0  0  0
 42 43  1  0  0  0
 42 66  1  0  0  0
 42113  1  0  0  0
 42114  1  0  0  0
 43 44  1  0  0  0
 44115  1  0  0  0
 45 46  2  0  0  0
 45116  1  0  0  0
 46117  1  0  0  0
 47118  1  0  0  0
 47119  1  0  0  0
 48 56  1  0  0  0
 48 65  1  0  0  0
 48120  1  0  0  0
 49 50  1  0  0  0
 49 53  1  0  0  0
 49 64  1  0  0  0
 49121  1  0  0  0
 50 51  1  0  0  0
 50122  1  0  0  0
 50123  1  0  0  0
 51 52  1  0  0  0
 51124  1  0  0  0
 51125  1  0  0  0
 52126  1  0  0  0
 52127  1  0  0  0
 53 54  1  0  0  0
 54 55  2  0  0  0
 54128  1  0  0  0
 55 57  1  0  0  0
 55129  1  0  0  0
 56 69  2  0  0  0
 57 58  2  0  0  0
 57130  1  0  0  0
 58131  1  0  0  0
 59 60  1  0  0  0
 59 61  1  0  0  0
 59 62  1  0  0  0
 60132  1  0  0  0
 60133  1  0  0  0
 60134  1  0  0  0
 61135  1  0  0  0
 61136  1  0  0  0
 61137  1  0  0  0
 62138  1  0  0  0
 62139  1  0  0  0
 62140  1  0  0  0
 63 65  1  0  0  0
 63141  1  0  0  0
 63142  1  0  0  0
 63143  1  0  0  0
 64144  1  0  0  0
 65145  1  0  0  0
 68 81  1  0  0  0
 71 72  1  0  0  0
 71 73  2  0  0  0
 71 78  1  0  0  0
 72 74  2  0  0  0
 72 79  1  0  0  0
 73 82  1  0  0  0
 73 86  1  0  0  0
 74 83  1  0  0  0
 74 86  1  0  0  0
 75 76  2  0  0  0
 75 77  1  0  0  0
 75 80  1  0  0  0
 76 81  1  0  0  0
 76 85  1  0  0  0
 77 82  1  0  0  0
 77 84  2  0  0  0
 78146  1  0  0  0
 78147  1  0  0  0
 78148  1  0  0  0
 79149  1  0  0  0
 79150  1  0  0  0
 79151  1  0  0  0
 80152  1  0  0  0
 80153  1  0  0  0
 80154  1  0  0  0
 81155  1  0  0  0
 81156  1  0  0  0
 82157  1  0  0  0
 83158  1  0  0  0
 85159  1  0  0  0
M  ISO  4   1 100  68 101  81 101  83 100
M  END
> <chiral flag>
0

> <version>
0

> <s_m_source_file>
/data/baiqing/PycharmProjects/Reinvent-master-3.2/result/LINK_invent/BTK/process_docking_weight1_custom_product_contain_oxygen_bond_distance_aromatic_linkinvent_7_9_3/rearranged_h_0179.sdf

> <i_m_source_file_index>
80

> <r_mmod_Potential_Energy-OPLS-2005>
-17.885913848877

> <r_mmod_Stretch_Energy-OPLS-2005>
49.0726356506348

> <r_mmod_Bend_Energy-OPLS-2005>
143.663970947266

> <r_mmod_Torsional_Energy-OPLS-2005>
239.000595092773

> <r_mmod_Improper_Torsional_Energy-OPLS-2005>
5.24377965927124

> <r_mmod_Van_der_Waal_Energy-OPLS-2005>
159.427749633789

> <r_mmod_Electrostatic_Energy-OPLS-2005>
-401.468627929688

> <r_mmod_Solvation_Energy-OPLS-2005>
-236.39372253418

> <b_mmod_Minimization_Converged-OPLS-2005>
0

> <r_mmod_RMS_Derivative-OPLS-2005>
4.04506492614746

$$$$
80
                    3D
 Structure written by MMmdl.
153161  0  0  1  0            999 V2000
  -30.6473  -14.5563   20.5563 C   0  0  0  0  0  0
  -30.4351  -12.3526   19.4437 C   0  0  0  0  0  0
  -29.5032  -12.5185   18.2228 C   0  0  0  0  0  0
  -28.0251  -12.3529   18.6314 C   0  0  0  0  0  0
  -27.6587  -13.2057   19.8743 C   0  0  2  0  0  0
  -28.6971  -13.0152   21.0015 C   0  0  0  0  0  0
  -25.2582  -13.8157   20.5692 C   0  0  0  0  0  0
  -24.1824  -13.0446   20.9200 C   0  0  0  0  0  0
  -24.6389  -11.6914   20.8764 C   0  0  0  0  0  0
  -23.9067  -10.4302   21.0429 C   0  0  0  0  0  0
  -24.3633   -9.4211   21.9196 C   0  0  0  0  0  0
  -23.6312   -8.2244   22.0749 C   0  0  0  0  0  0
  -22.4280   -8.0306   21.3557 C   0  0  0  0  0  0
  -21.9926   -9.0274   20.4644 C   0  0  0  0  0  0
  -22.7249  -10.2157   20.3061 C   0  0  0  0  0  0
  -21.6844   -6.0754   22.5278 C   0  0  0  0  0  0
  -21.3998   -6.5651   23.8216 C   0  0  0  0  0  0
  -21.3655   -5.6802   24.9180 C   0  0  0  0  0  0
  -21.6050   -4.3066   24.7226 C   0  0  0  0  0  0
  -21.8819   -3.8163   23.4340 C   0  0  0  0  0  0
  -21.9197   -4.6984   22.3405 C   0  0  0  0  0  0
  -22.7852  -13.5248   21.1872 C   0  0  0  0  0  0
  -22.1667   -4.2168   21.0979 F   0  0  0  0  0  0
  -21.5646   -3.4546   25.7737 F   0  0  0  0  0  0
  -30.0235  -13.3459   20.4520 N   0  0  0  0  0  0
  -26.3001  -12.9316   20.3350 N   0  0  0  0  0  0
  -25.9303  -11.6487   20.5771 N   0  0  0  0  0  0
  -22.0510  -12.8229   22.0439 N   0  0  0  0  0  0
  -25.4368  -15.1877   20.4135 N   0  0  0  0  0  0
  -31.7914  -14.7369   20.1285 O   0  0  0  0  0  0
  -21.6644   -6.8902   21.4247 O   0  0  0  0  0  0
  -22.3538  -14.5565   20.6731 O   0  0  0  0  0  0
  -24.6227  -31.8621   23.1991 C   0  0  0  0  0  0
  -25.9075  -32.4795   23.8324 C   0  0  1  0  0  0
  -27.2364  -27.3789   20.0855 C   0  0  0  0  0  0
  -25.5876  -33.8590   24.2252 N   0  0  0  0  0  0
  -23.4142  -30.4832   21.5432 C   0  0  2  0  0  0
  -24.8602  -28.9409   20.1096 C   0  0  0  0  0  0
  -22.7442  -29.4630   22.4947 C   0  0  0  0  0  0
  -18.0293  -28.1389   22.8466 C   0  0  0  0  0  0
  -24.1508  -36.7326   23.2636 C   0  0  0  0  0  0
  -25.9507  -30.8087   21.3627 C   0  0  0  0  0  0
  -26.0267  -29.4410   20.7044 C   0  0  0  0  0  0
  -27.2172  -28.6662   20.6892 C   0  0  0  0  0  0
  -26.0442  -26.9066   19.4922 C   0  0  0  0  0  0
  -24.8677  -27.6769   19.4988 C   0  0  0  0  0  0
  -23.6232  -29.8093   20.1628 C   0  0  0  0  0  0
  -25.4133  -36.3105   24.0325 C   0  0  1  0  0  0
  -20.5879  -28.3668   23.1297 C   0  0  2  0  0  0
  -20.6782  -26.9392   22.5415 C   0  0  0  0  0  0
  -19.5760  -26.6397   21.5190 C   0  0  0  0  0  0
  -18.1947  -26.7932   22.1609 C   0  0  0  0  0  0
  -19.1533  -28.8849   23.2878 C   0  0  0  0  0  0
  -18.9462  -30.1461   23.8872 C   0  0  0  0  0  0
  -17.6452  -30.6585   24.0568 C   0  0  0  0  0  0
  -25.9059  -34.9468   23.5105 C   0  0  0  0  0  0
  -16.5354  -29.9073   23.6331 C   0  0  0  0  0  0
  -16.7274  -28.6513   23.0322 C   0  0  0  0  0  0
  -26.4469  -31.6583   25.0676 C   0  0  0  0  0  0
  -25.3712  -31.3692   26.1400 C   0  0  0  0  0  0
  -27.0309  -30.3009   24.6112 C   0  0  0  0  0  0
  -27.6043  -32.4308   25.7442 C   0  0  0  0  0  0
  -27.5602  -37.1814   24.8457 C   0  0  0  0  0  0
  -21.4166  -29.3024   22.3682 N   0  0  0  0  0  0
  -26.4314  -37.3793   23.9390 N   0  0  0  0  0  0
  -24.6812  -31.0668   22.0912 N   0  0  0  0  0  0
  -23.4188  -28.8173   23.3012 O   0  0  0  0  0  0
  -28.3620  -26.5635   20.1420 O   0  0  0  0  0  0
  -26.5655  -34.8935   22.4692 O   0  0  0  0  0  0
  -23.5401  -32.1386   23.7353 O   0  0  0  0  0  0
  -30.8422  -19.1458   21.0770 C   0  0  0  0  0  0
  -31.0646  -17.7385   21.2868 C   0  0  0  0  0  0
  -29.5942  -19.4588   20.5895 C   0  0  0  0  0  0
  -30.0138  -16.9292   20.9141 C   0  0  0  0  0  0
  -28.5704  -25.6142   19.1514 C   0  0  0  0  0  0
  -28.8848  -24.2866   19.2824 C   0  0  0  0  0  0
  -29.0143  -23.5251   20.5789 C   0  0  0  0  0  0
  -28.9639  -20.8290   20.2640 C   0  0  1  0  0  0
  -29.7574  -22.1355   20.6660 C   0  0  0  0  0  0
  -32.2569  -17.2948   21.8706 N   0  0  0  0  0  0
  -29.8601  -15.5642   21.0116 N   0  0  0  0  0  0
  -28.5656  -24.0010   21.6283 O   0  0  0  0  0  0
  -29.1071  -23.5863   18.1571 O   0  0  0  0  0  0
  -27.7261  -20.9111   20.7544 F   0  0  0  0  0  0
  -30.8562  -22.1941   19.9111 F   0  0  0  0  0  0
  -30.1521  -21.9645   21.9312 F   0  0  0  0  0  0
  -28.6934  -17.9602   20.3648 S   0  0  0  0  0  0
  -31.4780  -12.4713   19.1432 H   0  0  0  0  0  0
  -30.3636  -11.3447   19.8540 H   0  0  0  0  0  0
  -29.7604  -11.7958   17.4466 H   0  0  0  0  0  0
  -29.6479  -13.5050   17.7795 H   0  0  0  0  0  0
  -27.8538  -11.2968   18.8445 H   0  0  0  0  0  0
  -27.3713  -12.6033   17.7968 H   0  0  0  0  0  0
  -27.6952  -14.2474   19.5551 H   0  0  0  0  0  0
  -28.6888  -11.9853   21.3608 H   0  0  0  0  0  0
  -28.4435  -13.6250   21.8700 H   0  0  0  0  0  0
  -25.2792   -9.5683   22.4747 H   0  0  0  0  0  0
  -24.0035   -7.4625   22.7441 H   0  0  0  0  0  0
  -21.0867   -8.8801   19.8930 H   0  0  0  0  0  0
  -22.3735  -10.9703   19.6161 H   0  0  0  0  0  0
  -21.1961   -7.6153   23.9724 H   0  0  0  0  0  0
  -21.1479   -6.0531   25.9090 H   0  0  0  0  0  0
  -22.0600   -2.7618   23.2837 H   0  0  0  0  0  0
  -22.4145  -11.9860   22.4735 H   0  0  0  0  0  0
  -21.1123  -13.1208   22.2676 H   0  0  0  0  0  0
  -24.6841  -15.8538   20.5454 H   0  0  0  0  0  0
  -26.2977  -15.6214   20.1050 H   0  0  0  0  0  0
  -26.7150  -32.5482   23.1088 H   0  0  0  0  0  0
  -24.9933  -33.9739   25.0331 H   0  0  0  0  0  0
  -22.7058  -31.2997   21.3975 H   0  0  0  0  0  0
  -23.3764  -35.9668   23.3312 H   0  0  0  0  0  0
  -24.3596  -36.8936   22.2047 H   0  0  0  0  0  0
  -23.7271  -37.6538   23.6654 H   0  0  0  0  0  0
  -26.0814  -31.5735   20.5957 H   0  0  0  0  0  0
  -26.8305  -30.8531   21.9923 H   0  0  0  0  0  0
  -28.1184  -29.0406   21.1562 H   0  0  0  0  0  0
  -26.0070  -25.9244   19.0420 H   0  0  0  0  0  0
  -23.9700  -27.2804   19.0447 H   0  0  0  0  0  0
  -23.7228  -30.5757   19.3932 H   0  0  0  0  0  0
  -22.7475  -29.2232   19.8786 H   0  0  0  0  0  0
  -25.1329  -36.1972   25.0820 H   0  0  0  0  0  0
  -20.9963  -28.3250   24.1424 H   0  0  0  0  0  0
  -20.5642  -26.2287   23.3607 H   0  0  0  0  0  0
  -21.6671  -26.7402   22.1266 H   0  0  0  0  0  0
  -19.6933  -25.6337   21.1166 H   0  0  0  0  0  0
  -19.6688  -27.3272   20.6763 H   0  0  0  0  0  0
  -17.4201  -26.6665   21.4032 H   0  0  0  0  0  0
  -18.0328  -26.0087   22.9020 H   0  0  0  0  0  0
  -19.7929  -30.7307   24.2222 H   0  0  0  0  0  0
  -17.5005  -31.6257   24.5176 H   0  0  0  0  0  0
  -15.5361  -30.2980   23.7651 H   0  0  0  0  0  0
  -15.8685  -28.0846   22.6998 H   0  0  0  0  0  0
  -24.5886  -30.7058   25.7690 H   0  0  0  0  0  0
  -24.8911  -32.2852   26.4854 H   0  0  0  0  0  0
  -25.8029  -30.8821   27.0147 H   0  0  0  0  0  0
  -26.2874  -29.6757   24.1156 H   0  0  0  0  0  0
  -27.4025  -29.7258   25.4599 H   0  0  0  0  0  0
  -27.8731  -30.4290   23.9312 H   0  0  0  0  0  0
  -27.2653  -33.3579   26.2073 H   0  0  0  0  0  0
  -28.3816  -32.6909   25.0245 H   0  0  0  0  0  0
  -28.0762  -31.8400   26.5304 H   0  0  0  0  0  0
  -28.2627  -38.0105   24.7510 H   0  0  0  0  0  0
  -28.1092  -36.2639   24.6295 H   0  0  0  0  0  0
  -27.2311  -37.1479   25.8854 H   0  0  0  0  0  0
  -20.9326  -29.8716   21.6885 H   0  0  0  0  0  0
  -26.0219  -38.2887   24.1337 H   0  0  0  0  0  0
  -31.5984  -19.8825   21.3083 H   0  0  0  0  0  0
  -28.4761  -26.0709   18.1730 H   0  0  0  0  0  0
  -28.8108  -20.8587   19.1852 H   0  0  0  0  0  0
  -32.2763  -16.3430   22.2189 H   0  0  0  0  0  0
  -32.7493  -17.9430   22.4753 H   0  0  0  0  0  0
  -28.9261  -15.2598   21.2348 H   0  0  0  0  0  0
  -29.6412  -22.8344   18.3777 H   0  0  0  0  0  0
  1 25  1  0  0  0
  1 30  2  0  0  0
  1 81  1  0  0  0
  2  3  1  0  0  0
  2 25  1  0  0  0
  2 88  1  0  0  0
  2 89  1  0  0  0
  3  4  1  0  0  0
  3 90  1  0  0  0
  3 91  1  0  0  0
  4  5  1  0  0  0
  4 92  1  0  0  0
  4 93  1  0  0  0
  5  6  1  0  0  0
  5 26  1  0  0  0
  5 94  1  0  0  0
  6 25  1  0  0  0
  6 95  1  0  0  0
  6 96  1  0  0  0
  7  8  2  0  0  0
  7 26  1  0  0  0
  7 29  1  0  0  0
  8  9  1  0  0  0
  8 22  1  0  0  0
  9 10  1  0  0  0
  9 27  2  0  0  0
 10 11  2  0  0  0
 10 15  1  0  0  0
 11 12  1  0  0  0
 11 97  1  0  0  0
 12 13  2  0  0  0
 12 98  1  0  0  0
 13 14  1  0  0  0
 13 31  1  0  0  0
 14 15  2  0  0  0
 14 99  1  0  0  0
 15100  1  0  0  0
 16 17  2  0  0  0
 16 21  1  0  0  0
 16 31  1  0  0  0
 17 18  1  0  0  0
 17101  1  0  0  0
 18 19  2  0  0  0
 18102  1  0  0  0
 19 20  1  0  0  0
 19 24  1  0  0  0
 20 21  2  0  0  0
 20103  1  0  0  0
 21 23  1  0  0  0
 22 28  1  0  0  0
 22 32  2  0  0  0
 26 27  1  0  0  0
 28104  1  0  0  0
 28105  1  0  0  0
 29106  1  0  0  0
 29107  1  0  0  0
 33 34  1  0  0  0
 33 66  1  0  0  0
 33 70  2  0  0  0
 34 36  1  0  0  0
 34 59  1  0  0  0
 34108  1  0  0  0
 35 44  2  0  0  0
 35 45  1  0  0  0
 35 68  1  0  0  0
 36 56  1  0  0  0
 36109  1  0  0  0
 37 39  1  0  0  0
 37 47  1  0  0  0
 37 66  1  0  0  0
 37110  1  0  0  0
 38 43  2  0  0  0
 38 46  1  0  0  0
 38 47  1  0  0  0
 39 64  1  0  0  0
 39 67  2  0  0  0
 40 52  1  0  0  0
 40 53  2  0  0  0
 40 58  1  0  0  0
 41111  1  0  0  0
 41112  1  0  0  0
 41113  1  0  0  0
 41 48  1  0  0  0
 42 43  1  0  0  0
 42 66  1  0  0  0
 42114  1  0  0  0
 42115  1  0  0  0
 43 44  1  0  0  0
 44116  1  0  0  0
 45 46  2  0  0  0
 45117  1  0  0  0
 46118  1  0  0  0
 47119  1  0  0  0
 47120  1  0  0  0
 48 56  1  0  0  0
 48 65  1  0  0  0
 48121  1  0  0  0
 49 50  1  0  0  0
 49 53  1  0  0  0
 49 64  1  0  0  0
 49122  1  0  0  0
 50 51  1  0  0  0
 50123  1  0  0  0
 50124  1  0  0  0
 51 52  1  0  0  0
 51125  1  0  0  0
 51126  1  0  0  0
 52127  1  0  0  0
 52128  1  0  0  0
 53 54  1  0  0  0
 54 55  2  0  0  0
 54129  1  0  0  0
 55 57  1  0  0  0
 55130  1  0  0  0
 56 69  2  0  0  0
 57 58  2  0  0  0
 57131  1  0  0  0
 58132  1  0  0  0
 59 60  1  0  0  0
 59 61  1  0  0  0
 59 62  1  0  0  0
 60133  1  0  0  0
 60134  1  0  0  0
 60135  1  0  0  0
 61136  1  0  0  0
 61137  1  0  0  0
 61138  1  0  0  0
 62139  1  0  0  0
 62140  1  0  0  0
 62141  1  0  0  0
 63 65  1  0  0  0
 63142  1  0  0  0
 63143  1  0  0  0
 63144  1  0  0  0
 64145  1  0  0  0
 65146  1  0  0  0
 68 75  1  0  0  0
 71 72  1  0  0  0
 71 73  2  0  0  0
 71147  1  0  0  0
 72 74  2  0  0  0
 72 80  1  0  0  0
 73 78  1  0  0  0
 73 87  1  0  0  0
 74 81  1  0  0  0
 74 87  1  0  0  0
 75 76  2  0  0  0
 75148  1  0  0  0
 76 77  1  0  0  0
 76 83  1  0  0  0
 77 79  1  0  0  0
 77 82  2  0  0  0
 78 79  1  0  0  0
 78 84  1  0  0  0
 78149  1  0  0  0
 79 85  1  0  0  0
 79 86  1  0  0  0
 80150  1  0  0  0
 80151  1  0  0  0
 81152  1  0  0  0
 83153  1  0  0  0
M  ISO  4   1 100  68 101  75 101  81 100
M  END
> <chiral flag>
0

> <version>
0

> <s_m_source_file>
/data/baiqing/PycharmProjects/Reinvent-master-3.2/result/LINK_invent/BTK/process_docking_weight1_custom_product_contain_oxygen_bond_distance_aromatic_linkinvent_7_9_3/rearranged_h_0179.sdf

> <i_m_source_file_index>
81

> <r_mmod_Potential_Energy-OPLS-2005>
-38.5958709716797

> <r_mmod_Stretch_Energy-OPLS-2005>
54.9559364318848

> <r_mmod_Bend_Energy-OPLS-2005>
126.537963867188

> <r_mmod_Torsional_Energy-OPLS-2005>
229.787826538086

> <r_mmod_Improper_Torsional_Energy-OPLS-2005>
8.53018951416016

> <r_mmod_Van_der_Waal_Energy-OPLS-2005>
125.690856933594

> <r_mmod_Electrostatic_Energy-OPLS-2005>
-368.013702392578

> <r_mmod_Solvation_Energy-OPLS-2005>
-243.222839355469

> <b_mmod_Minimization_Converged-OPLS-2005>
0

> <r_mmod_RMS_Derivative-OPLS-2005>
3.52684640884399

$$$$
81
                    3D
 Structure written by MMmdl.
157165  0  0  1  0            999 V2000
  -30.6602  -14.5100   20.5276 C   0  0  0  0  0  0
  -30.4267  -12.3096   19.4383 C   0  0  0  0  0  0
  -29.5078  -12.5050   18.2112 C   0  0  0  0  0  0
  -28.0206  -12.3823   18.6061 C   0  0  0  0  0  0
  -27.6638  -13.2087   19.8731 C   0  0  2  0  0  0
  -28.7031  -12.9869   20.9972 C   0  0  0  0  0  0
  -25.2614  -13.8145   20.5690 C   0  0  0  0  0  0
  -24.1837  -13.0431   20.9147 C   0  0  0  0  0  0
  -24.6371  -11.6898   20.8694 C   0  0  0  0  0  0
  -23.9000  -10.4296   21.0380 C   0  0  0  0  0  0
  -24.3561   -9.4227   21.9175 C   0  0  0  0  0  0
  -23.6274   -8.2244   22.0751 C   0  0  0  0  0  0
  -22.4254   -8.0264   21.3537 C   0  0  0  0  0  0
  -21.9854   -9.0216   20.4620 C   0  0  0  0  0  0
  -22.7164  -10.2115   20.3025 C   0  0  0  0  0  0
  -21.6848   -6.0703   22.5273 C   0  0  0  0  0  0
  -21.4021   -6.5609   23.8210 C   0  0  0  0  0  0
  -21.3675   -5.6761   24.9185 C   0  0  0  0  0  0
  -21.6055   -4.3026   24.7231 C   0  0  0  0  0  0
  -21.8834   -3.8108   23.4356 C   0  0  0  0  0  0
  -21.9198   -4.6932   22.3409 C   0  0  0  0  0  0
  -22.7864  -13.5255   21.1813 C   0  0  0  0  0  0
  -22.1657   -4.2113   21.0996 F   0  0  0  0  0  0
  -21.5640   -3.4513   25.7763 F   0  0  0  0  0  0
  -30.0358  -13.3007   20.4541 N   0  0  0  0  0  0
  -26.3041  -12.9319   20.3339 N   0  0  0  0  0  0
  -25.9318  -11.6474   20.5716 N   0  0  0  0  0  0
  -22.0452  -12.8286   22.0362 N   0  0  0  0  0  0
  -25.4341  -15.1856   20.4193 N   0  0  0  0  0  0
  -31.7844  -14.7063   20.0537 O   0  0  0  0  0  0
  -21.6615   -6.8861   21.4241 O   0  0  0  0  0  0
  -22.3582  -14.5577   20.6678 O   0  0  0  0  0  0
  -24.6178  -31.8637   23.2053 C   0  0  0  0  0  0
  -25.9041  -32.4806   23.8384 C   0  0  1  0  0  0
  -27.2296  -27.4010   20.1051 C   0  0  0  0  0  0
  -25.5885  -33.8609   24.2307 N   0  0  0  0  0  0
  -23.4101  -30.4851   21.5463 C   0  0  2  0  0  0
  -24.8571  -28.9459   20.1136 C   0  0  0  0  0  0
  -22.7449  -29.4615   22.4956 C   0  0  0  0  0  0
  -18.0278  -28.1386   22.8490 C   0  0  0  0  0  0
  -24.1487  -36.7301   23.2642 C   0  0  0  0  0  0
  -25.9427  -30.8207   21.3632 C   0  0  0  0  0  0
  -26.0191  -29.4528   20.7089 C   0  0  0  0  0  0
  -27.2138  -28.6906   20.6944 C   0  0  0  0  0  0
  -26.0513  -26.9144   19.5024 C   0  0  0  0  0  0
  -24.8690  -27.6790   19.5039 C   0  0  0  0  0  0
  -23.6213  -29.8152   20.1622 C   0  0  0  0  0  0
  -25.4106  -36.3105   24.0348 C   0  0  1  0  0  0
  -20.5881  -28.3660   23.1314 C   0  0  2  0  0  0
  -20.6769  -26.9393   22.5419 C   0  0  0  0  0  0
  -19.5738  -26.6378   21.5221 C   0  0  0  0  0  0
  -18.1921  -26.7935   22.1623 C   0  0  0  0  0  0
  -19.1537  -28.8834   23.2900 C   0  0  0  0  0  0
  -18.9447  -30.1452   23.8899 C   0  0  0  0  0  0
  -17.6447  -30.6585   24.0559 C   0  0  0  0  0  0
  -25.9032  -34.9473   23.5126 C   0  0  0  0  0  0
  -16.5336  -29.9086   23.6335 C   0  0  0  0  0  0
  -16.7265  -28.6509   23.0336 C   0  0  0  0  0  0
  -26.4452  -31.6602   25.0731 C   0  0  0  0  0  0
  -25.3725  -31.3725   26.1487 C   0  0  0  0  0  0
  -27.0270  -30.3042   24.6116 C   0  0  0  0  0  0
  -27.6019  -32.4343   25.7488 C   0  0  0  0  0  0
  -27.5592  -37.1807   24.8460 C   0  0  0  0  0  0
  -21.4165  -29.3025   22.3723 N   0  0  0  0  0  0
  -26.4283  -37.3796   23.9430 N   0  0  0  0  0  0
  -24.6755  -31.0728   22.0955 N   0  0  0  0  0  0
  -23.4210  -28.8153   23.2997 O   0  0  0  0  0  0
  -28.3686  -26.6172   20.0995 O   0  0  0  0  0  0
  -26.5589  -34.8924   22.4686 O   0  0  0  0  0  0
  -23.5355  -32.1372   23.7432 O   0  0  0  0  0  0
  -29.4267  -17.9841   21.4189 C   0  0  0  0  0  0
  -30.1476  -17.3572   19.3767 C   0  0  0  0  0  0
  -29.8718  -16.8834   20.6291 C   0  0  0  0  0  0
  -29.4883  -19.1302   20.6516 C   0  0  0  0  0  0
  -29.1998  -20.5441   21.1073 C   0  0  0  0  0  0
  -28.6549  -24.1066   20.0105 C   0  0  0  0  0  0
  -30.0836  -19.5535   18.1823 C   0  0  0  0  0  0
  -28.2511  -25.3679   20.8281 C   0  0  0  0  0  0
  -29.4814  -23.0132   20.7569 C   0  0  2  0  0  0
  -30.9902  -23.3476   20.7802 C   0  0  0  0  0  0
  -29.9076  -18.7319   19.3701 N   0  0  0  0  0  0
  -29.9284  -15.5148   21.0633 N   0  0  0  0  0  0
  -29.2887  -21.6100   20.2792 N   0  0  0  0  0  0
  -28.9166  -20.7091   22.2946 O   0  0  0  0  0  0
  -28.3051  -23.9950   18.8295 O   0  0  0  0  0  0
  -31.6532  -22.4726   21.5375 F   0  0  0  0  0  0
  -31.2051  -24.5702   21.2709 F   0  0  0  0  0  0
  -31.4900  -23.3031   19.5428 F   0  0  0  0  0  0
  -31.4755  -12.4076   19.1503 H   0  0  0  0  0  0
  -30.3228  -11.2997   19.8382 H   0  0  0  0  0  0
  -29.7544  -11.7765   17.4363 H   0  0  0  0  0  0
  -29.6887  -13.4879   17.7717 H   0  0  0  0  0  0
  -27.8089  -11.3273   18.7762 H   0  0  0  0  0  0
  -27.3827  -12.6869   17.7735 H   0  0  0  0  0  0
  -27.7051  -14.2592   19.5804 H   0  0  0  0  0  0
  -28.6756  -11.9514   21.3366 H   0  0  0  0  0  0
  -28.4623  -13.5881   21.8753 H   0  0  0  0  0  0
  -25.2694   -9.5729   22.4748 H   0  0  0  0  0  0
  -23.9981   -7.4647   22.7495 H   0  0  0  0  0  0
  -21.0770   -8.8695   19.8959 H   0  0  0  0  0  0
  -22.3585  -10.9630   19.6127 H   0  0  0  0  0  0
  -21.2000   -7.6119   23.9716 H   0  0  0  0  0  0
  -21.1496   -6.0487   25.9085 H   0  0  0  0  0  0
  -22.0609   -2.7571   23.2868 H   0  0  0  0  0  0
  -22.3984  -11.9924   22.4783 H   0  0  0  0  0  0
  -21.1095  -13.1412   22.2552 H   0  0  0  0  0  0
  -24.6768  -15.8465   20.5473 H   0  0  0  0  0  0
  -26.3024  -15.6259   20.1418 H   0  0  0  0  0  0
  -26.7114  -32.5500   23.1149 H   0  0  0  0  0  0
  -25.0096  -33.9773   25.0492 H   0  0  0  0  0  0
  -22.7002  -31.3021   21.4027 H   0  0  0  0  0  0
  -23.3768  -35.9611   23.3273 H   0  0  0  0  0  0
  -24.3599  -36.8935   22.2063 H   0  0  0  0  0  0
  -23.7199  -37.6484   23.6661 H   0  0  0  0  0  0
  -26.0651  -31.5875   20.5966 H   0  0  0  0  0  0
  -26.8272  -30.8698   21.9871 H   0  0  0  0  0  0
  -28.1146  -29.0769   21.1519 H   0  0  0  0  0  0
  -26.0469  -25.9411   19.0293 H   0  0  0  0  0  0
  -23.9770  -27.2874   19.0355 H   0  0  0  0  0  0
  -23.7332  -30.5867   19.3998 H   0  0  0  0  0  0
  -22.7463  -29.2343   19.8659 H   0  0  0  0  0  0
  -25.1290  -36.1963   25.0838 H   0  0  0  0  0  0
  -20.9971  -28.3210   24.1433 H   0  0  0  0  0  0
  -20.5668  -26.2257   23.3605 H   0  0  0  0  0  0
  -21.6630  -26.7432   22.1194 H   0  0  0  0  0  0
  -19.6894  -25.6291   21.1245 H   0  0  0  0  0  0
  -19.6697  -27.3193   20.6759 H   0  0  0  0  0  0
  -17.4201  -26.6688   21.4019 H   0  0  0  0  0  0
  -18.0304  -26.0085   22.9017 H   0  0  0  0  0  0
  -19.7925  -30.7278   24.2258 H   0  0  0  0  0  0
  -17.4995  -31.6267   24.5158 H   0  0  0  0  0  0
  -15.5337  -30.2969   23.7668 H   0  0  0  0  0  0
  -15.8661  -28.0831   22.7024 H   0  0  0  0  0  0
  -24.5865  -30.7101   25.7840 H   0  0  0  0  0  0
  -24.8948  -32.2881   26.4985 H   0  0  0  0  0  0
  -25.8080  -30.8861   27.0222 H   0  0  0  0  0  0
  -26.2808  -29.6831   24.1138 H   0  0  0  0  0  0
  -27.3994  -29.7261   25.4581 H   0  0  0  0  0  0
  -27.8668  -30.4359   23.9292 H   0  0  0  0  0  0
  -27.2633  -33.3666   26.2021 H   0  0  0  0  0  0
  -28.3839  -32.6865   25.0317 H   0  0  0  0  0  0
  -28.0653  -31.8495   26.5437 H   0  0  0  0  0  0
  -28.2573  -38.0143   24.7566 H   0  0  0  0  0  0
  -28.1127  -36.2683   24.6207 H   0  0  0  0  0  0
  -27.2328  -37.1347   25.8862 H   0  0  0  0  0  0
  -20.9326  -29.8760   21.6959 H   0  0  0  0  0  0
  -26.0176  -38.2869   24.1453 H   0  0  0  0  0  0
  -29.1156  -17.9593   22.4540 H   0  0  0  0  0  0
  -30.4775  -16.8435   18.4831 H   0  0  0  0  0  0
  -30.4354  -18.9450   17.3462 H   0  0  0  0  0  0
  -30.8173  -20.3400   18.3629 H   0  0  0  0  0  0
  -29.1286  -19.9960   17.8942 H   0  0  0  0  0  0
  -28.8739  -25.4382   21.7198 H   0  0  0  0  0  0
  -27.2325  -25.2164   21.1885 H   0  0  0  0  0  0
  -29.1526  -23.0702   21.7942 H   0  0  0  0  0  0
  -29.1810  -15.2109   21.6704 H   0  0  0  0  0  0
  -29.4745  -21.4467   19.3023 H   0  0  0  0  0  0
  1 25  1  0  0  0
  1 30  2  0  0  0
  1 82  1  0  0  0
  2  3  1  0  0  0
  2 25  1  0  0  0
  2 89  1  0  0  0
  2 90  1  0  0  0
  3  4  1  0  0  0
  3 91  1  0  0  0
  3 92  1  0  0  0
  4  5  1  0  0  0
  4 93  1  0  0  0
  4 94  1  0  0  0
  5  6  1  0  0  0
  5 26  1  0  0  0
  5 95  1  0  0  0
  6 25  1  0  0  0
  6 96  1  0  0  0
  6 97  1  0  0  0
  7  8  2  0  0  0
  7 26  1  0  0  0
  7 29  1  0  0  0
  8  9  1  0  0  0
  8 22  1  0  0  0
  9 10  1  0  0  0
  9 27  2  0  0  0
 10 11  2  0  0  0
 10 15  1  0  0  0
 11 12  1  0  0  0
 11 98  1  0  0  0
 12 13  2  0  0  0
 12 99  1  0  0  0
 13 14  1  0  0  0
 13 31  1  0  0  0
 14 15  2  0  0  0
 14100  1  0  0  0
 15101  1  0  0  0
 16 17  2  0  0  0
 16 21  1  0  0  0
 16 31  1  0  0  0
 17 18  1  0  0  0
 17102  1  0  0  0
 18 19  2  0  0  0
 18103  1  0  0  0
 19 20  1  0  0  0
 19 24  1  0  0  0
 20 21  2  0  0  0
 20104  1  0  0  0
 21 23  1  0  0  0
 22 28  1  0  0  0
 22 32  2  0  0  0
 26 27  1  0  0  0
 28105  1  0  0  0
 28106  1  0  0  0
 29107  1  0  0  0
 29108  1  0  0  0
 33 34  1  0  0  0
 33 66  1  0  0  0
 33 70  2  0  0  0
 34 36  1  0  0  0
 34 59  1  0  0  0
 34109  1  0  0  0
 35 44  2  0  0  0
 35 45  1  0  0  0
 35 68  1  0  0  0
 36 56  1  0  0  0
 36110  1  0  0  0
 37 39  1  0  0  0
 37 47  1  0  0  0
 37 66  1  0  0  0
 37111  1  0  0  0
 38 43  2  0  0  0
 38 46  1  0  0  0
 38 47  1  0  0  0
 39 64  1  0  0  0
 39 67  2  0  0  0
 40 52  1  0  0  0
 40 53  2  0  0  0
 40 58  1  0  0  0
 41112  1  0  0  0
 41113  1  0  0  0
 41114  1  0  0  0
 41 48  1  0  0  0
 42 43  1  0  0  0
 42 66  1  0  0  0
 42115  1  0  0  0
 42116  1  0  0  0
 43 44  1  0  0  0
 44117  1  0  0  0
 45 46  2  0  0  0
 45118  1  0  0  0
 46119  1  0  0  0
 47120  1  0  0  0
 47121  1  0  0  0
 48 56  1  0  0  0
 48 65  1  0  0  0
 48122  1  0  0  0
 49 50  1  0  0  0
 49 53  1  0  0  0
 49 64  1  0  0  0
 49123  1  0  0  0
 50 51  1  0  0  0
 50124  1  0  0  0
 50125  1  0  0  0
 51 52  1  0  0  0
 51126  1  0  0  0
 51127  1  0  0  0
 52128  1  0  0  0
 52129  1  0  0  0
 53 54  1  0  0  0
 54 55  2  0  0  0
 54130  1  0  0  0
 55 57  1  0  0  0
 55131  1  0  0  0
 56 69  2  0  0  0
 57 58  2  0  0  0
 57132  1  0  0  0
 58133  1  0  0  0
 59 60  1  0  0  0
 59 61  1  0  0  0
 59 62  1  0  0  0
 60134  1  0  0  0
 60135  1  0  0  0
 60136  1  0  0  0
 61137  1  0  0  0
 61138  1  0  0  0
 61139  1  0  0  0
 62140  1  0  0  0
 62141  1  0  0  0
 62142  1  0  0  0
 63 65  1  0  0  0
 63143  1  0  0  0
 63144  1  0  0  0
 63145  1  0  0  0
 64146  1  0  0  0
 65147  1  0  0  0
 68 78  1  0  0  0
 71 73  1  0  0  0
 71 74  2  0  0  0
 71148  1  0  0  0
 72 73  2  0  0  0
 72 81  1  0  0  0
 72149  1  0  0  0
 73 82  1  0  0  0
 74 75  1  0  0  0
 74 81  1  0  0  0
 75 83  1  0  0  0
 75 84  2  0  0  0
 76 78  1  0  0  0
 76 79  1  0  0  0
 76 85  2  0  0  0
 77 81  1  0  0  0
 77150  1  0  0  0
 77151  1  0  0  0
 77152  1  0  0  0
 78153  1  0  0  0
 78154  1  0  0  0
 79 80  1  0  0  0
 79 83  1  0  0  0
 79155  1  0  0  0
 80 86  1  0  0  0
 80 87  1  0  0  0
 80 88  1  0  0  0
 82156  1  0  0  0
 83157  1  0  0  0
M  ISO  4   1 100  68 101  78 101  82 100
M  END
> <chiral flag>
0

> <version>
0

> <s_m_source_file>
/data/baiqing/PycharmProjects/Reinvent-master-3.2/result/LINK_invent/BTK/process_docking_weight1_custom_product_contain_oxygen_bond_distance_aromatic_linkinvent_7_9_3/rearranged_h_0179.sdf

> <i_m_source_file_index>
82

> <r_mmod_Potential_Energy-OPLS-2005>
-165.175155639648

> <r_mmod_Stretch_Energy-OPLS-2005>
48.7138786315918

> <r_mmod_Bend_Energy-OPLS-2005>
119.485458374023

> <r_mmod_Torsional_Energy-OPLS-2005>
257.620544433594

> <r_mmod_Improper_Torsional_Energy-OPLS-2005>
4.52144050598145

> <r_mmod_Van_der_Waal_Energy-OPLS-2005>
129.182205200195

> <r_mmod_Electrostatic_Energy-OPLS-2005>
-503.109527587891

> <r_mmod_Solvation_Energy-OPLS-2005>
-240.069900512695

> <b_mmod_Minimization_Converged-OPLS-2005>
0

> <r_mmod_RMS_Derivative-OPLS-2005>
3.38291716575623

$$$$
82
                    3D
 Structure written by MMmdl.
156164  0  0  1  0            999 V2000
  -30.6802  -14.5243   20.5209 C   0  0  0  0  0  0
  -30.4204  -12.3230   19.4368 C   0  0  0  0  0  0
  -29.4979  -12.4984   18.2122 C   0  0  0  0  0  0
  -28.0182  -12.3573   18.6217 C   0  0  0  0  0  0
  -27.6558  -13.2123   19.8663 C   0  0  2  0  0  0
  -28.6964  -13.0303   20.9939 C   0  0  0  0  0  0
  -25.2567  -13.8175   20.5677 C   0  0  0  0  0  0
  -24.1831  -13.0447   20.9194 C   0  0  0  0  0  0
  -24.6393  -11.6919   20.8749 C   0  0  0  0  0  0
  -23.9075  -10.4293   21.0411 C   0  0  0  0  0  0
  -24.3630   -9.4208   21.9185 C   0  0  0  0  0  0
  -23.6304   -8.2243   22.0752 C   0  0  0  0  0  0
  -22.4284   -8.0281   21.3545 C   0  0  0  0  0  0
  -21.9919   -9.0257   20.4649 C   0  0  0  0  0  0
  -22.7247  -10.2134   20.3058 C   0  0  0  0  0  0
  -21.6851   -6.0744   22.5288 C   0  0  0  0  0  0
  -21.4007   -6.5653   23.8225 C   0  0  0  0  0  0
  -21.3655   -5.6797   24.9182 C   0  0  0  0  0  0
  -21.6042   -4.3058   24.7228 C   0  0  0  0  0  0
  -21.8818   -3.8154   23.4352 C   0  0  0  0  0  0
  -21.9190   -4.6972   22.3411 C   0  0  0  0  0  0
  -22.7855  -13.5240   21.1856 C   0  0  0  0  0  0
  -22.1661   -4.2164   21.0989 F   0  0  0  0  0  0
  -21.5625   -3.4539   25.7736 F   0  0  0  0  0  0
  -30.0248  -13.3311   20.4369 N   0  0  0  0  0  0
  -26.2997  -12.9357   20.3323 N   0  0  0  0  0  0
  -25.9318  -11.6516   20.5766 N   0  0  0  0  0  0
  -22.0493  -12.8230   22.0410 N   0  0  0  0  0  0
  -25.4303  -15.1892   20.4075 N   0  0  0  0  0  0
  -31.8401  -14.6521   20.1153 O   0  0  0  0  0  0
  -21.6641   -6.8883   21.4243 O   0  0  0  0  0  0
  -22.3544  -14.5552   20.6713 O   0  0  0  0  0  0
  -24.6165  -31.8654   23.2074 C   0  0  0  0  0  0
  -25.9043  -32.4806   23.8381 C   0  0  1  0  0  0
  -27.2317  -27.4136   20.1070 C   0  0  0  0  0  0
  -25.5905  -33.8611   24.2322 N   0  0  0  0  0  0
  -23.4066  -30.4877   21.5472 C   0  0  2  0  0  0
  -24.8551  -28.9490   20.1146 C   0  0  0  0  0  0
  -22.7427  -29.4645   22.4972 C   0  0  0  0  0  0
  -18.0267  -28.1374   22.8483 C   0  0  0  0  0  0
  -24.1491  -36.7310   23.2644 C   0  0  0  0  0  0
  -25.9377  -30.8261   21.3618 C   0  0  0  0  0  0
  -26.0166  -29.4579   20.7108 C   0  0  0  0  0  0
  -27.2122  -28.6986   20.7007 C   0  0  0  0  0  0
  -26.0569  -26.9223   19.5023 C   0  0  0  0  0  0
  -24.8712  -27.6813   19.5054 C   0  0  0  0  0  0
  -23.6167  -29.8172   20.1632 C   0  0  0  0  0  0
  -25.4111  -36.3105   24.0349 C   0  0  1  0  0  0
  -20.5861  -28.3662   23.1316 C   0  0  2  0  0  0
  -20.6755  -26.9393   22.5428 C   0  0  0  0  0  0
  -19.5745  -26.6374   21.5211 C   0  0  0  0  0  0
  -18.1917  -26.7924   22.1608 C   0  0  0  0  0  0
  -19.1516  -28.8833   23.2894 C   0  0  0  0  0  0
  -18.9447  -30.1441   23.8900 C   0  0  0  0  0  0
  -17.6449  -30.6580   24.0562 C   0  0  0  0  0  0
  -25.9037  -34.9469   23.5128 C   0  0  0  0  0  0
  -16.5338  -29.9082   23.6332 C   0  0  0  0  0  0
  -16.7257  -28.6502   23.0344 C   0  0  0  0  0  0
  -26.4468  -31.6595   25.0716 C   0  0  0  0  0  0
  -25.3741  -31.3724   26.1478 C   0  0  0  0  0  0
  -27.0287  -30.3029   24.6099 C   0  0  0  0  0  0
  -27.6058  -32.4313   25.7463 C   0  0  0  0  0  0
  -27.5589  -37.1803   24.8459 C   0  0  0  0  0  0
  -21.4150  -29.3031   22.3723 N   0  0  0  0  0  0
  -26.4287  -37.3794   23.9419 N   0  0  0  0  0  0
  -24.6719  -31.0745   22.0972 N   0  0  0  0  0  0
  -23.4200  -28.8182   23.3006 O   0  0  0  0  0  0
  -28.3633  -26.6244   20.1147 O   0  0  0  0  0  0
  -26.5583  -34.8924   22.4679 O   0  0  0  0  0  0
  -23.5351  -32.1398   23.7465 O   0  0  0  0  0  0
  -30.2174  -19.4919   20.7440 C   0  0  0  0  0  0
  -31.1913  -18.8869   19.9718 C   0  0  0  0  0  0
  -30.1634  -16.9873   20.7455 C   0  0  0  0  0  0
  -30.0289  -20.9062   21.1946 C   0  0  0  0  0  0
  -27.0787  -22.6612   21.9387 C   0  0  0  0  0  0
  -28.5457  -24.1199   20.4221 C   0  0  0  0  0  0
  -26.6830  -23.3656   23.2322 C   0  0  0  0  0  0
  -28.2918  -25.5220   21.0502 C   0  0  0  0  0  0
  -28.4969  -22.8907   21.3900 C   0  0  2  0  0  0
  -31.1306  -17.4885   19.9653 N   0  0  0  0  0  0
  -32.2077  -19.5036   19.2365 N   0  0  0  0  0  0
  -29.9344  -15.5790   20.9356 N   0  0  0  0  0  0
  -28.9561  -21.6097   20.7861 N   0  0  0  0  0  0
  -30.8667  -21.4063   21.9474 O   0  0  0  0  0  0
  -26.2605  -21.9141   21.3915 O   0  0  0  0  0  0
  -28.7907  -24.0150   19.2135 O   0  0  0  0  0  0
  -29.1803  -18.2695   21.4780 S   0  0  0  0  0  0
  -31.4669  -12.4147   19.1389 H   0  0  0  0  0  0
  -30.3185  -11.3198   19.8538 H   0  0  0  0  0  0
  -29.7457  -11.7637   17.4451 H   0  0  0  0  0  0
  -29.6642  -13.4779   17.7609 H   0  0  0  0  0  0
  -27.8301  -11.3032   18.8296 H   0  0  0  0  0  0
  -27.3696  -12.6191   17.7853 H   0  0  0  0  0  0
  -27.6881  -14.2541   19.5466 H   0  0  0  0  0  0
  -28.6770  -12.0064   21.3701 H   0  0  0  0  0  0
  -28.4561  -13.6617   21.8508 H   0  0  0  0  0  0
  -25.2778   -9.5684   22.4762 H   0  0  0  0  0  0
  -24.0016   -7.4625   22.7468 H   0  0  0  0  0  0
  -21.0851   -8.8773   19.8958 H   0  0  0  0  0  0
  -22.3710  -10.9673   19.6171 H   0  0  0  0  0  0
  -21.2002   -7.6164   23.9730 H   0  0  0  0  0  0
  -21.1473   -6.0529   25.9085 H   0  0  0  0  0  0
  -22.0600   -2.7618   23.2839 H   0  0  0  0  0  0
  -22.4094  -11.9882   22.4789 H   0  0  0  0  0  0
  -21.1114  -13.1256   22.2619 H   0  0  0  0  0  0
  -24.6629  -15.8442   20.5093 H   0  0  0  0  0  0
  -26.2763  -15.6241   20.0622 H   0  0  0  0  0  0
  -26.7119  -32.5508   23.1154 H   0  0  0  0  0  0
  -25.0087  -33.9771   25.0486 H   0  0  0  0  0  0
  -22.6968  -31.3049   21.4056 H   0  0  0  0  0  0
  -23.3755  -35.9640   23.3299 H   0  0  0  0  0  0
  -24.3602  -36.8919   22.2062 H   0  0  0  0  0  0
  -23.7233  -37.6515   23.6647 H   0  0  0  0  0  0
  -26.0524  -31.5917   20.5927 H   0  0  0  0  0  0
  -26.8257  -30.8810   21.9802 H   0  0  0  0  0  0
  -28.1088  -29.0863   21.1638 H   0  0  0  0  0  0
  -26.0609  -25.9482   19.0332 H   0  0  0  0  0  0
  -23.9794  -27.2851   19.0401 H   0  0  0  0  0  0
  -23.7256  -30.5911   19.4027 H   0  0  0  0  0  0
  -22.7420  -29.2353   19.8670 H   0  0  0  0  0  0
  -25.1293  -36.1966   25.0840 H   0  0  0  0  0  0
  -20.9950  -28.3206   24.1438 H   0  0  0  0  0  0
  -20.5643  -26.2261   23.3606 H   0  0  0  0  0  0
  -21.6624  -26.7415   22.1224 H   0  0  0  0  0  0
  -19.6905  -25.6287   21.1235 H   0  0  0  0  0  0
  -19.6711  -27.3190   20.6750 H   0  0  0  0  0  0
  -17.4201  -26.6684   21.3992 H   0  0  0  0  0  0
  -18.0301  -26.0062   22.8996 H   0  0  0  0  0  0
  -19.7928  -30.7251   24.2271 H   0  0  0  0  0  0
  -17.5009  -31.6266   24.5155 H   0  0  0  0  0  0
  -15.5343  -30.2988   23.7664 H   0  0  0  0  0  0
  -15.8652  -28.0833   22.7047 H   0  0  0  0  0  0
  -24.5908  -30.7066   25.7841 H   0  0  0  0  0  0
  -24.8928  -32.2878   26.4931 H   0  0  0  0  0  0
  -25.8098  -30.8908   27.0240 H   0  0  0  0  0  0
  -26.2820  -29.6794   24.1163 H   0  0  0  0  0  0
  -27.4060  -29.7275   25.4564 H   0  0  0  0  0  0
  -27.8660  -30.4354   23.9244 H   0  0  0  0  0  0
  -27.2692  -33.3616   26.2055 H   0  0  0  0  0  0
  -28.3849  -32.6865   25.0267 H   0  0  0  0  0  0
  -28.0741  -31.8419   26.5357 H   0  0  0  0  0  0
  -28.2596  -38.0111   24.7518 H   0  0  0  0  0  0
  -28.1087  -36.2642   24.6253 H   0  0  0  0  0  0
  -27.2312  -37.1412   25.8860 H   0  0  0  0  0  0
  -20.9296  -29.8768   21.6967 H   0  0  0  0  0  0
  -26.0177  -38.2869   24.1425 H   0  0  0  0  0  0
  -27.4904  -23.9938   23.6070 H   0  0  0  0  0  0
  -26.4428  -22.6270   23.9971 H   0  0  0  0  0  0
  -25.8058  -23.9904   23.0682 H   0  0  0  0  0  0
  -29.0402  -25.6871   21.8259 H   0  0  0  0  0  0
  -27.3245  -25.5085   21.5543 H   0  0  0  0  0  0
  -29.1337  -23.1389   22.2400 H   0  0  0  0  0  0
  -32.4234  -20.4856   19.3712 H   0  0  0  0  0  0
  -32.9728  -18.9497   18.8657 H   0  0  0  0  0  0
  -29.0423  -15.3394   21.3385 H   0  0  0  0  0  0
  -28.3017  -21.1648   20.1573 H   0  0  0  0  0  0
  1 25  1  0  0  0
  1 30  2  0  0  0
  1 82  1  0  0  0
  2  3  1  0  0  0
  2 25  1  0  0  0
  2 88  1  0  0  0
  2 89  1  0  0  0
  3  4  1  0  0  0
  3 90  1  0  0  0
  3 91  1  0  0  0
  4  5  1  0  0  0
  4 92  1  0  0  0
  4 93  1  0  0  0
  5  6  1  0  0  0
  5 26  1  0  0  0
  5 94  1  0  0  0
  6 25  1  0  0  0
  6 95  1  0  0  0
  6 96  1  0  0  0
  7  8  2  0  0  0
  7 26  1  0  0  0
  7 29  1  0  0  0
  8  9  1  0  0  0
  8 22  1  0  0  0
  9 10  1  0  0  0
  9 27  2  0  0  0
 10 11  2  0  0  0
 10 15  1  0  0  0
 11 12  1  0  0  0
 11 97  1  0  0  0
 12 13  2  0  0  0
 12 98  1  0  0  0
 13 14  1  0  0  0
 13 31  1  0  0  0
 14 15  2  0  0  0
 14 99  1  0  0  0
 15100  1  0  0  0
 16 17  2  0  0  0
 16 21  1  0  0  0
 16 31  1  0  0  0
 17 18  1  0  0  0
 17101  1  0  0  0
 18 19  2  0  0  0
 18102  1  0  0  0
 19 20  1  0  0  0
 19 24  1  0  0  0
 20 21  2  0  0  0
 20103  1  0  0  0
 21 23  1  0  0  0
 22 28  1  0  0  0
 22 32  2  0  0  0
 26 27  1  0  0  0
 28104  1  0  0  0
 28105  1  0  0  0
 29106  1  0  0  0
 29107  1  0  0  0
 33 34  1  0  0  0
 33 66  1  0  0  0
 33 70  2  0  0  0
 34 36  1  0  0  0
 34 59  1  0  0  0
 34108  1  0  0  0
 35 44  2  0  0  0
 35 45  1  0  0  0
 35 68  1  0  0  0
 36 56  1  0  0  0
 36109  1  0  0  0
 37 39  1  0  0  0
 37 47  1  0  0  0
 37 66  1  0  0  0
 37110  1  0  0  0
 38 43  2  0  0  0
 38 46  1  0  0  0
 38 47  1  0  0  0
 39 64  1  0  0  0
 39 67  2  0  0  0
 40 52  1  0  0  0
 40 53  2  0  0  0
 40 58  1  0  0  0
 41111  1  0  0  0
 41112  1  0  0  0
 41113  1  0  0  0
 41 48  1  0  0  0
 42 43  1  0  0  0
 42 66  1  0  0  0
 42114  1  0  0  0
 42115  1  0  0  0
 43 44  1  0  0  0
 44116  1  0  0  0
 45 46  2  0  0  0
 45117  1  0  0  0
 46118  1  0  0  0
 47119  1  0  0  0
 47120  1  0  0  0
 48 56  1  0  0  0
 48 65  1  0  0  0
 48121  1  0  0  0
 49 50  1  0  0  0
 49 53  1  0  0  0
 49 64  1  0  0  0
 49122  1  0  0  0
 50 51  1  0  0  0
 50123  1  0  0  0
 50124  1  0  0  0
 51 52  1  0  0  0
 51125  1  0  0  0
 51126  1  0  0  0
 52127  1  0  0  0
 52128  1  0  0  0
 53 54  1  0  0  0
 54 55  2  0  0  0
 54129  1  0  0  0
 55 57  1  0  0  0
 55130  1  0  0  0
 56 69  2  0  0  0
 57 58  2  0  0  0
 57131  1  0  0  0
 58132  1  0  0  0
 59 60  1  0  0  0
 59 61  1  0  0  0
 59 62  1  0  0  0
 60133  1  0  0  0
 60134  1  0  0  0
 60135  1  0  0  0
 61136  1  0  0  0
 61137  1  0  0  0
 61138  1  0  0  0
 62139  1  0  0  0
 62140  1  0  0  0
 62141  1  0  0  0
 63 65  1  0  0  0
 63142  1  0  0  0
 63143  1  0  0  0
 63144  1  0  0  0
 64145  1  0  0  0
 65146  1  0  0  0
 68 78  1  0  0  0
 71 72  2  0  0  0
 71 74  1  0  0  0
 71 87  1  0  0  0
 72 80  1  0  0  0
 72 81  1  0  0  0
 73 80  2  0  0  0
 73 82  1  0  0  0
 73 87  1  0  0  0
 74 83  1  0  0  0
 74 84  2  0  0  0
 75 77  1  0  0  0
 75 79  1  0  0  0
 75 85  2  0  0  0
 76 78  1  0  0  0
 76 79  1  0  0  0
 76 86  2  0  0  0
 77147  1  0  0  0
 77148  1  0  0  0
 77149  1  0  0  0
 78150  1  0  0  0
 78151  1  0  0  0
 79 83  1  0  0  0
 79152  1  0  0  0
 81153  1  0  0  0
 81154  1  0  0  0
 82155  1  0  0  0
 83156  1  0  0  0
M  ISO  4   1 100  68 101  78 101  82 100
M  END
> <chiral flag>
0

> <version>
0

> <s_m_source_file>
/data/baiqing/PycharmProjects/Reinvent-master-3.2/result/LINK_invent/BTK/process_docking_weight1_custom_product_contain_oxygen_bond_distance_aromatic_linkinvent_7_9_3/rearranged_h_0179.sdf

> <i_m_source_file_index>
83

> <r_mmod_Potential_Energy-OPLS-2005>
-275.718536376953

> <r_mmod_Stretch_Energy-OPLS-2005>
44.4220924377441

> <r_mmod_Bend_Energy-OPLS-2005>
108.960342407227

> <r_mmod_Torsional_Energy-OPLS-2005>
242.106185913086

> <r_mmod_Improper_Torsional_Energy-OPLS-2005>
6.32902050018311

> <r_mmod_Van_der_Waal_Energy-OPLS-2005>
121.785690307617

> <r_mmod_Electrostatic_Energy-OPLS-2005>
-532.630187988281

> <r_mmod_Solvation_Energy-OPLS-2005>
-286.632415771484

> <b_mmod_Minimization_Converged-OPLS-2005>
0

> <r_mmod_RMS_Derivative-OPLS-2005>
1.52313029766083

$$$$
83
                    3D
 Structure written by MMmdl.
157165  0  0  1  0            999 V2000
  -30.5763  -14.7144   20.4760 C   0  0  0  0  0  0
  -30.4445  -12.4333   19.4625 C   0  0  0  0  0  0
  -29.5130  -12.5084   18.2310 C   0  0  0  0  0  0
  -28.0376  -12.3301   18.6448 C   0  0  0  0  0  0
  -27.6470  -13.2167   19.8568 C   0  0  2  0  0  0
  -28.6907  -13.1053   20.9904 C   0  0  0  0  0  0
  -25.2540  -13.8170   20.5696 C   0  0  0  0  0  0
  -24.1818  -13.0430   20.9218 C   0  0  0  0  0  0
  -24.6396  -11.6904   20.8751 C   0  0  0  0  0  0
  -23.9068  -10.4288   21.0422 C   0  0  0  0  0  0
  -24.3616   -9.4200   21.9199 C   0  0  0  0  0  0
  -23.6291   -8.2234   22.0749 C   0  0  0  0  0  0
  -22.4275   -8.0281   21.3537 C   0  0  0  0  0  0
  -21.9914   -9.0261   20.4641 C   0  0  0  0  0  0
  -22.7246  -10.2142   20.3062 C   0  0  0  0  0  0
  -21.6847   -6.0740   22.5288 C   0  0  0  0  0  0
  -21.4015   -6.5640   23.8223 C   0  0  0  0  0  0
  -21.3658   -5.6792   24.9185 C   0  0  0  0  0  0
  -21.6041   -4.3053   24.7234 C   0  0  0  0  0  0
  -21.8816   -3.8150   23.4352 C   0  0  0  0  0  0
  -21.9192   -4.6969   22.3411 C   0  0  0  0  0  0
  -22.7848  -13.5228   21.1881 C   0  0  0  0  0  0
  -22.1660   -4.2152   21.0988 F   0  0  0  0  0  0
  -21.5623   -3.4537   25.7746 F   0  0  0  0  0  0
  -29.9980  -13.4675   20.4214 N   0  0  0  0  0  0
  -26.2952  -12.9348   20.3286 N   0  0  0  0  0  0
  -25.9313  -11.6508   20.5743 N   0  0  0  0  0  0
  -22.0492  -12.8203   22.0442 N   0  0  0  0  0  0
  -25.4245  -15.1896   20.4105 N   0  0  0  0  0  0
  -31.7591  -14.8679   20.1499 O   0  0  0  0  0  0
  -21.6630   -6.8887   21.4248 O   0  0  0  0  0  0
  -22.3539  -14.5552   20.6760 O   0  0  0  0  0  0
  -24.6291  -31.8567   23.1974 C   0  0  0  0  0  0
  -25.9131  -32.4760   23.8314 C   0  0  1  0  0  0
  -27.2219  -27.2713   20.1487 C   0  0  0  0  0  0
  -25.5940  -33.8560   24.2244 N   0  0  0  0  0  0
  -23.4254  -30.4740   21.5416 C   0  0  2  0  0  0
  -24.8734  -28.9159   20.1137 C   0  0  0  0  0  0
  -22.7493  -29.4588   22.4942 C   0  0  0  0  0  0
  -18.0276  -28.1395   22.8482 C   0  0  0  0  0  0
  -24.1499  -36.7290   23.2634 C   0  0  0  0  0  0
  -25.9665  -30.7740   21.3747 C   0  0  0  0  0  0
  -26.0428  -29.3938   20.7222 C   0  0  0  0  0  0
  -27.2210  -28.5848   20.7230 C   0  0  0  0  0  0
  -26.0371  -26.8505   19.5114 C   0  0  0  0  0  0
  -24.8752  -27.6520   19.4965 C   0  0  0  0  0  0
  -23.6428  -29.8018   20.1594 C   0  0  0  0  0  0
  -25.4126  -36.3068   24.0307 C   0  0  1  0  0  0
  -20.5883  -28.3698   23.1295 C   0  0  2  0  0  0
  -20.6776  -26.9424   22.5424 C   0  0  0  0  0  0
  -19.5752  -26.6382   21.5229 C   0  0  0  0  0  0
  -18.1920  -26.7940   22.1621 C   0  0  0  0  0  0
  -19.1530  -28.8862   23.2882 C   0  0  0  0  0  0
  -18.9460  -30.1466   23.8898 C   0  0  0  0  0  0
  -17.6466  -30.6610   24.0556 C   0  0  0  0  0  0
  -25.9068  -34.9439   23.5076 C   0  0  0  0  0  0
  -16.5353  -29.9107   23.6323 C   0  0  0  0  0  0
  -16.7269  -28.6516   23.0355 C   0  0  0  0  0  0
  -26.4505  -31.6593   25.0708 C   0  0  0  0  0  0
  -25.3714  -31.3739   26.1423 C   0  0  0  0  0  0
  -27.0360  -30.3012   24.6187 C   0  0  0  0  0  0
  -27.6054  -32.4343   25.7483 C   0  0  0  0  0  0
  -27.5593  -37.1789   24.8449 C   0  0  0  0  0  0
  -21.4202  -29.3051   22.3695 N   0  0  0  0  0  0
  -26.4291  -37.3774   23.9400 N   0  0  0  0  0  0
  -24.6917  -31.0532   22.0953 N   0  0  0  0  0  0
  -23.4190  -28.8124   23.3041 O   0  0  0  0  0  0
  -28.3432  -26.4192   20.1601 O   0  0  0  0  0  0
  -26.5643  -34.8922   22.4646 O   0  0  0  0  0  0
  -23.5449  -32.1392   23.7282 O   0  0  0  0  0  0
  -29.3335  -19.7974   20.3276 C   0  0  0  0  0  0
  -30.6278  -19.4088   20.6660 C   0  0  0  0  0  0
  -29.7803  -17.2335   20.5685 C   0  0  0  0  0  0
  -28.6315  -21.1168   19.8954 C   0  0  0  0  0  0
  -32.9371  -20.2288   21.1580 C   0  0  0  0  0  0
  -33.7948  -21.4871   21.1058 C   0  0  0  0  0  0
  -27.2463  -24.8576   21.8291 C   0  0  0  0  0  0
  -28.4286  -23.7121   19.8149 C   0  0  0  0  0  0
  -28.3262  -25.0282   20.7426 C   0  0  1  0  0  0
  -30.8580  -17.9995   20.8072 N   0  0  0  0  0  0
  -31.6571  -20.3805   20.7810 N   0  0  0  0  0  0
  -29.7066  -15.7646   20.6967 N   0  0  0  0  0  0
  -28.9021  -22.3751   20.4024 N   0  0  0  0  0  0
  -27.7804  -21.0239   19.0092 O   0  0  0  0  0  0
  -33.4420  -19.1742   21.5517 O   0  0  0  0  0  0
  -28.3808  -18.2879   20.1752 S   0  0  0  0  0  0
  -31.4832  -12.5756   19.1576 H   0  0  0  0  0  0
  -30.4007  -11.4436   19.9195 H   0  0  0  0  0  0
  -29.7895  -11.7477   17.4992 H   0  0  0  0  0  0
  -29.6398  -13.4713   17.7323 H   0  0  0  0  0  0
  -27.8910  -11.2790   18.8973 H   0  0  0  0  0  0
  -27.3791  -12.5321   17.7991 H   0  0  0  0  0  0
  -27.6523  -14.2434   19.4928 H   0  0  0  0  0  0
  -28.7175  -12.0904   21.3902 H   0  0  0  0  0  0
  -28.4280  -13.7487   21.8317 H   0  0  0  0  0  0
  -25.2761   -9.5672   22.4772 H   0  0  0  0  0  0
  -24.0003   -7.4619   22.7453 H   0  0  0  0  0  0
  -21.0847   -8.8789   19.8936 H   0  0  0  0  0  0
  -22.3718  -10.9686   19.6166 H   0  0  0  0  0  0
  -21.2007   -7.6150   23.9733 H   0  0  0  0  0  0
  -21.1482   -6.0518   25.9089 H   0  0  0  0  0  0
  -22.0595   -2.7609   23.2856 H   0  0  0  0  0  0
  -22.4097  -11.9843   22.4798 H   0  0  0  0  0  0
  -21.1117  -13.1227   22.2676 H   0  0  0  0  0  0
  -24.6493  -15.8354   20.5161 H   0  0  0  0  0  0
  -26.2531  -15.6301   20.0326 H   0  0  0  0  0  0
  -26.7191  -32.5430   23.1052 H   0  0  0  0  0  0
  -25.0067  -33.9695   25.0373 H   0  0  0  0  0  0
  -22.7205  -31.2951   21.3936 H   0  0  0  0  0  0
  -23.3776  -35.9615   23.3273 H   0  0  0  0  0  0
  -24.3587  -36.8955   22.2061 H   0  0  0  0  0  0
  -23.7253  -37.6465   23.6701 H   0  0  0  0  0  0
  -26.0987  -31.5359   20.6043 H   0  0  0  0  0  0
  -26.8435  -30.8274   22.0073 H   0  0  0  0  0  0
  -28.1208  -28.9485   21.2001 H   0  0  0  0  0  0
  -26.0056  -25.8815   19.0332 H   0  0  0  0  0  0
  -23.9803  -27.2826   19.0140 H   0  0  0  0  0  0
  -23.7623  -30.5750   19.4002 H   0  0  0  0  0  0
  -22.7632  -29.2288   19.8602 H   0  0  0  0  0  0
  -25.1307  -36.1909   25.0795 H   0  0  0  0  0  0
  -20.9948  -28.3318   24.1432 H   0  0  0  0  0  0
  -20.5725  -26.2316   23.3631 H   0  0  0  0  0  0
  -21.6637  -26.7491   22.1194 H   0  0  0  0  0  0
  -19.6916  -25.6281   21.1295 H   0  0  0  0  0  0
  -19.6705  -27.3163   20.6739 H   0  0  0  0  0  0
  -17.4192  -26.6703   21.4007 H   0  0  0  0  0  0
  -18.0286  -26.0085   22.9014 H   0  0  0  0  0  0
  -19.7947  -30.7255   24.2298 H   0  0  0  0  0  0
  -17.5033  -31.6299   24.5147 H   0  0  0  0  0  0
  -15.5355  -30.3013   23.7664 H   0  0  0  0  0  0
  -15.8665  -28.0849   22.7081 H   0  0  0  0  0  0
  -24.5894  -30.7095   25.7733 H   0  0  0  0  0  0
  -24.8887  -32.2898   26.4840 H   0  0  0  0  0  0
  -25.8000  -30.8915   27.0216 H   0  0  0  0  0  0
  -26.2938  -29.6746   24.1228 H   0  0  0  0  0  0
  -27.4066  -29.7300   25.4708 H   0  0  0  0  0  0
  -27.8805  -30.4281   23.9410 H   0  0  0  0  0  0
  -27.2660  -33.3659   26.2029 H   0  0  0  0  0  0
  -28.3875  -32.6888   25.0316 H   0  0  0  0  0  0
  -28.0709  -31.8488   26.5423 H   0  0  0  0  0  0
  -28.2562  -38.0141   24.7557 H   0  0  0  0  0  0
  -28.1140  -36.2663   24.6196 H   0  0  0  0  0  0
  -27.2303  -37.1333   25.8849 H   0  0  0  0  0  0
  -20.9397  -29.8804   21.6919 H   0  0  0  0  0  0
  -26.0182  -38.2833   24.1454 H   0  0  0  0  0  0
  -33.5100  -22.1756   21.9018 H   0  0  0  0  0  0
  -33.6816  -21.9962   20.1482 H   0  0  0  0  0  0
  -34.8496  -21.2407   21.2303 H   0  0  0  0  0  0
  -27.4046  -23.9399   22.3951 H   0  0  0  0  0  0
  -26.2461  -24.8022   21.4018 H   0  0  0  0  0  0
  -27.2615  -25.6841   22.5400 H   0  0  0  0  0  0
  -29.1191  -23.9365   19.0020 H   0  0  0  0  0  0
  -27.4603  -23.5662   19.3365 H   0  0  0  0  0  0
  -29.2710  -25.0227   21.2870 H   0  0  0  0  0  0
  -31.4050  -21.3203   20.5143 H   0  0  0  0  0  0
  -28.7712  -15.4298   20.8577 H   0  0  0  0  0  0
  -29.5229  -22.4318   21.1979 H   0  0  0  0  0  0
  1 25  1  0  0  0
  1 30  2  0  0  0
  1 82  1  0  0  0
  2  3  1  0  0  0
  2 25  1  0  0  0
  2 87  1  0  0  0
  2 88  1  0  0  0
  3  4  1  0  0  0
  3 89  1  0  0  0
  3 90  1  0  0  0
  4  5  1  0  0  0
  4 91  1  0  0  0
  4 92  1  0  0  0
  5  6  1  0  0  0
  5 26  1  0  0  0
  5 93  1  0  0  0
  6 25  1  0  0  0
  6 94  1  0  0  0
  6 95  1  0  0  0
  7  8  2  0  0  0
  7 26  1  0  0  0
  7 29  1  0  0  0
  8  9  1  0  0  0
  8 22  1  0  0  0
  9 10  1  0  0  0
  9 27  2  0  0  0
 10 11  2  0  0  0
 10 15  1  0  0  0
 11 12  1  0  0  0
 11 96  1  0  0  0
 12 13  2  0  0  0
 12 97  1  0  0  0
 13 14  1  0  0  0
 13 31  1  0  0  0
 14 15  2  0  0  0
 14 98  1  0  0  0
 15 99  1  0  0  0
 16 17  2  0  0  0
 16 21  1  0  0  0
 16 31  1  0  0  0
 17 18  1  0  0  0
 17100  1  0  0  0
 18 19  2  0  0  0
 18101  1  0  0  0
 19 20  1  0  0  0
 19 24  1  0  0  0
 20 21  2  0  0  0
 20102  1  0  0  0
 21 23  1  0  0  0
 22 28  1  0  0  0
 22 32  2  0  0  0
 26 27  1  0  0  0
 28103  1  0  0  0
 28104  1  0  0  0
 29105  1  0  0  0
 29106  1  0  0  0
 33 34  1  0  0  0
 33 66  1  0  0  0
 33 70  2  0  0  0
 34 36  1  0  0  0
 34 59  1  0  0  0
 34107  1  0  0  0
 35 44  2  0  0  0
 35 45  1  0  0  0
 35 68  1  0  0  0
 36 56  1  0  0  0
 36108  1  0  0  0
 37 39  1  0  0  0
 37 47  1  0  0  0
 37 66  1  0  0  0
 37109  1  0  0  0
 38 43  2  0  0  0
 38 46  1  0  0  0
 38 47  1  0  0  0
 39 64  1  0  0  0
 39 67  2  0  0  0
 40 52  1  0  0  0
 40 53  2  0  0  0
 40 58  1  0  0  0
 41110  1  0  0  0
 41111  1  0  0  0
 41112  1  0  0  0
 41 48  1  0  0  0
 42 43  1  0  0  0
 42 66  1  0  0  0
 42113  1  0  0  0
 42114  1  0  0  0
 43 44  1  0  0  0
 44115  1  0  0  0
 45 46  2  0  0  0
 45116  1  0  0  0
 46117  1  0  0  0
 47118  1  0  0  0
 47119  1  0  0  0
 48 56  1  0  0  0
 48 65  1  0  0  0
 48120  1  0  0  0
 49 50  1  0  0  0
 49 53  1  0  0  0
 49 64  1  0  0  0
 49121  1  0  0  0
 50 51  1  0  0  0
 50122  1  0  0  0
 50123  1  0  0  0
 51 52  1  0  0  0
 51124  1  0  0  0
 51125  1  0  0  0
 52126  1  0  0  0
 52127  1  0  0  0
 53 54  1  0  0  0
 54 55  2  0  0  0
 54128  1  0  0  0
 55 57  1  0  0  0
 55129  1  0  0  0
 56 69  2  0  0  0
 57 58  2  0  0  0
 57130  1  0  0  0
 58131  1  0  0  0
 59 60  1  0  0  0
 59 61  1  0  0  0
 59 62  1  0  0  0
 60132  1  0  0  0
 60133  1  0  0  0
 60134  1  0  0  0
 61135  1  0  0  0
 61136  1  0  0  0
 61137  1  0  0  0
 62138  1  0  0  0
 62139  1  0  0  0
 62140  1  0  0  0
 63 65  1  0  0  0
 63141  1  0  0  0
 63142  1  0  0  0
 63143  1  0  0  0
 64144  1  0  0  0
 65145  1  0  0  0
 68 79  1  0  0  0
 71 72  2  0  0  0
 71 74  1  0  0  0
 71 86  1  0  0  0
 72 80  1  0  0  0
 72 81  1  0  0  0
 73 80  2  0  0  0
 73 82  1  0  0  0
 73 86  1  0  0  0
 74 83  1  0  0  0
 74 84  2  0  0  0
 75 76  1  0  0  0
 75 81  1  0  0  0
 75 85  2  0  0  0
 76146  1  0  0  0
 76147  1  0  0  0
 76148  1  0  0  0
 77149  1  0  0  0
 77150  1  0  0  0
 77151  1  0  0  0
 77 79  1  0  0  0
 78 79  1  0  0  0
 78 83  1  0  0  0
 78152  1  0  0  0
 78153  1  0  0  0
 79154  1  0  0  0
 81155  1  0  0  0
 82156  1  0  0  0
 83157  1  0  0  0
M  ISO  4   1 100  68 101  79 101  82 100
M  END
> <chiral flag>
0

> <version>
0

> <s_m_source_file>
/data/baiqing/PycharmProjects/Reinvent-master-3.2/result/LINK_invent/BTK/process_docking_weight1_custom_product_contain_oxygen_bond_distance_aromatic_linkinvent_7_9_3/rearranged_h_0179.sdf

> <i_m_source_file_index>
84

> <r_mmod_Potential_Energy-OPLS-2005>
-35.5672607421875

> <r_mmod_Stretch_Energy-OPLS-2005>
108.283874511719

> <r_mmod_Bend_Energy-OPLS-2005>
185.94905090332

> <r_mmod_Torsional_Energy-OPLS-2005>
249.850479125977

> <r_mmod_Improper_Torsional_Energy-OPLS-2005>
6.42379522323608

> <r_mmod_Van_der_Waal_Energy-OPLS-2005>
112.810394287109

> <r_mmod_Electrostatic_Energy-OPLS-2005>
-476.239166259766

> <r_mmod_Solvation_Energy-OPLS-2005>
-294.941375732422

> <b_mmod_Minimization_Converged-OPLS-2005>
0

> <r_mmod_RMS_Derivative-OPLS-2005>
2.17876720428467

$$$$
84
                    3D
 Structure written by MMmdl.
153161  0  0  1  0            999 V2000
  -30.5550  -14.8408   20.4464 C   0  0  0  0  0  0
  -30.4435  -12.5147   19.4884 C   0  0  0  0  0  0
  -29.5188  -12.5274   18.2485 C   0  0  0  0  0  0
  -28.0456  -12.3382   18.6582 C   0  0  0  0  0  0
  -27.6423  -13.2381   19.8554 C   0  0  2  0  0  0
  -28.6866  -13.1871   20.9923 C   0  0  0  0  0  0
  -25.2506  -13.8205   20.5694 C   0  0  0  0  0  0
  -24.1804  -13.0443   20.9213 C   0  0  0  0  0  0
  -24.6406  -11.6921   20.8756 C   0  0  0  0  0  0
  -23.9083  -10.4294   21.0409 C   0  0  0  0  0  0
  -24.3630   -9.4207   21.9184 C   0  0  0  0  0  0
  -23.6302   -8.2243   22.0751 C   0  0  0  0  0  0
  -22.4283   -8.0282   21.3544 C   0  0  0  0  0  0
  -21.9921   -9.0259   20.4646 C   0  0  0  0  0  0
  -22.7255  -10.2138   20.3058 C   0  0  0  0  0  0
  -21.6857   -6.0739   22.5277 C   0  0  0  0  0  0
  -21.4014   -6.5641   23.8211 C   0  0  0  0  0  0
  -21.3660   -5.6794   24.9174 C   0  0  0  0  0  0
  -21.6044   -4.3057   24.7223 C   0  0  0  0  0  0
  -21.8822   -3.8150   23.4346 C   0  0  0  0  0  0
  -21.9193   -4.6965   22.3400 C   0  0  0  0  0  0
  -22.7825  -13.5216   21.1873 C   0  0  0  0  0  0
  -22.1664   -4.2151   21.0977 F   0  0  0  0  0  0
  -21.5629   -3.4540   25.7736 F   0  0  0  0  0  0
  -29.9798  -13.5794   20.4159 N   0  0  0  0  0  0
  -26.2943  -12.9422   20.3302 N   0  0  0  0  0  0
  -25.9342  -11.6560   20.5766 N   0  0  0  0  0  0
  -22.0477  -12.8200   22.0428 N   0  0  0  0  0  0
  -25.4190  -15.1928   20.4082 N   0  0  0  0  0  0
  -31.7311  -14.9614   20.0897 O   0  0  0  0  0  0
  -21.6643   -6.8882   21.4238 O   0  0  0  0  0  0
  -22.3500  -14.5521   20.6721 O   0  0  0  0  0  0
  -24.6365  -31.8501   23.1916 C   0  0  0  0  0  0
  -25.9166  -32.4727   23.8292 C   0  0  1  0  0  0
  -27.2224  -27.2135   20.1421 C   0  0  0  0  0  0
  -25.5933  -33.8532   24.2219 N   0  0  0  0  0  0
  -23.4380  -30.4690   21.5363 C   0  0  2  0  0  0
  -24.8914  -28.9115   20.1024 C   0  0  0  0  0  0
  -22.7547  -29.4576   22.4887 C   0  0  0  0  0  0
  -18.0312  -28.1409   22.8491 C   0  0  0  0  0  0
  -24.1487  -36.7262   23.2639 C   0  0  0  0  0  0
  -25.9876  -30.7515   21.3771 C   0  0  0  0  0  0
  -26.0660  -29.3727   20.7122 C   0  0  0  0  0  0
  -27.2398  -28.5410   20.7124 C   0  0  0  0  0  0
  -26.0309  -26.8358   19.4928 C   0  0  0  0  0  0
  -24.8839  -27.6558   19.4739 C   0  0  0  0  0  0
  -23.6595  -29.7990   20.1541 C   0  0  0  0  0  0
  -25.4117  -36.3052   24.0321 C   0  0  1  0  0  0
  -20.5922  -28.3727   23.1262 C   0  0  2  0  0  0
  -20.6791  -26.9435   22.5418 C   0  0  0  0  0  0
  -19.5760  -26.6396   21.5228 C   0  0  0  0  0  0
  -18.1948  -26.7949   22.1641 C   0  0  0  0  0  0
  -19.1567  -28.8885   23.2868 C   0  0  0  0  0  0
  -18.9474  -30.1483   23.8890 C   0  0  0  0  0  0
  -17.6467  -30.6596   24.0573 C   0  0  0  0  0  0
  -25.9062  -34.9427   23.5079 C   0  0  0  0  0  0
  -16.5362  -29.9090   23.6341 C   0  0  0  0  0  0
  -16.7294  -28.6516   23.0354 C   0  0  0  0  0  0
  -26.4504  -31.6561   25.0701 C   0  0  0  0  0  0
  -25.3704  -31.3735   26.1410 C   0  0  0  0  0  0
  -27.0364  -30.2966   24.6226 C   0  0  0  0  0  0
  -27.6047  -32.4310   25.7484 C   0  0  0  0  0  0
  -27.5579  -37.1784   24.8462 C   0  0  0  0  0  0
  -21.4248  -29.3050   22.3629 N   0  0  0  0  0  0
  -26.4282  -37.3761   23.9414 N   0  0  0  0  0  0
  -24.7070  -31.0419   22.0913 N   0  0  0  0  0  0
  -23.4223  -28.8136   23.3018 O   0  0  0  0  0  0
  -28.2220  -26.1982   20.2651 O   0  0  0  0  0  0
  -26.5647  -34.8914   22.4657 O   0  0  0  0  0  0
  -23.5503  -32.1345   23.7178 O   0  0  0  0  0  0
  -30.1734  -19.5614   19.5386 C   0  0  0  0  0  0
  -30.4249  -18.1147   19.5576 C   0  0  0  0  0  0
  -29.3221  -20.0550   20.5156 C   0  0  0  0  0  0
  -29.7983  -17.3475   20.5288 C   0  0  0  0  0  0
  -28.3191  -23.7322   21.2669 C   0  0  0  0  0  0
  -28.0580  -25.1379   21.2397 C   0  0  0  0  0  0
  -28.8854  -22.6734   20.3167 C   0  0  0  0  0  0
  -28.6538  -26.1089   23.5288 C   0  0  0  0  0  0
  -27.5173  -25.7540   22.5593 C   0  0  0  0  0  0
  -28.8794  -21.3677   20.8516 N   0  0  0  0  0  0
  -29.7494  -15.9421   20.7726 N   0  0  0  0  0  0
  -29.3194  -22.9033   19.1868 O   0  0  0  0  0  0
  -28.0116  -23.1546   22.4459 O   0  0  0  0  0  0
  -31.1960  -17.5739   18.6430 F   0  0  0  0  0  0
  -28.8491  -18.5776   21.4502 S   0  0  0  0  0  0
  -31.4798  -12.6628   19.1818 H   0  0  0  0  0  0
  -30.4162  -11.5416   19.9817 H   0  0  0  0  0  0
  -29.8146  -11.7467   17.5469 H   0  0  0  0  0  0
  -29.6315  -13.4739   17.7175 H   0  0  0  0  0  0
  -27.9097  -11.2896   18.9237 H   0  0  0  0  0  0
  -27.3890  -12.5241   17.8079 H   0  0  0  0  0  0
  -27.6308  -14.2582   19.4707 H   0  0  0  0  0  0
  -28.7446  -12.1866   21.4234 H   0  0  0  0  0  0
  -28.4034  -13.8523   21.8093 H   0  0  0  0  0  0
  -25.2773   -9.5681   22.4758 H   0  0  0  0  0  0
  -24.0012   -7.4632   22.7467 H   0  0  0  0  0  0
  -21.0852   -8.8786   19.8947 H   0  0  0  0  0  0
  -22.3714  -10.9683   19.6167 H   0  0  0  0  0  0
  -21.2005   -7.6150   23.9714 H   0  0  0  0  0  0
  -21.1478   -6.0523   25.9075 H   0  0  0  0  0  0
  -22.0599   -2.7611   23.2847 H   0  0  0  0  0  0
  -22.4110  -11.9861   22.4808 H   0  0  0  0  0  0
  -21.1092  -13.1213   22.2643 H   0  0  0  0  0  0
  -24.6466  -15.8431   20.5019 H   0  0  0  0  0  0
  -26.2562  -15.6266   20.0409 H   0  0  0  0  0  0
  -26.7241  -32.5367   23.1036 H   0  0  0  0  0  0
  -25.0055  -33.9650   25.0350 H   0  0  0  0  0  0
  -22.7370  -31.2928   21.3872 H   0  0  0  0  0  0
  -23.3754  -35.9589   23.3294 H   0  0  0  0  0  0
  -24.3573  -36.8896   22.2054 H   0  0  0  0  0  0
  -23.7237  -37.6454   23.6676 H   0  0  0  0  0  0
  -26.1323  -31.5131   20.6096 H   0  0  0  0  0  0
  -26.8603  -30.7994   22.0164 H   0  0  0  0  0  0
  -28.1312  -28.8766   21.2231 H   0  0  0  0  0  0
  -25.9705  -25.8543   19.0439 H   0  0  0  0  0  0
  -23.9857  -27.2962   18.9917 H   0  0  0  0  0  0
  -23.7809  -30.5743   19.3970 H   0  0  0  0  0  0
  -22.7774  -29.2312   19.8515 H   0  0  0  0  0  0
  -25.1303  -36.1883   25.0812 H   0  0  0  0  0  0
  -21.0024  -28.3314   24.1378 H   0  0  0  0  0  0
  -20.5709  -26.2334   23.3630 H   0  0  0  0  0  0
  -21.6654  -26.7461   22.1200 H   0  0  0  0  0  0
  -19.6914  -25.6304   21.1257 H   0  0  0  0  0  0
  -19.6683  -27.3208   20.6755 H   0  0  0  0  0  0
  -17.4217  -26.6712   21.4045 H   0  0  0  0  0  0
  -18.0332  -26.0093   22.9033 H   0  0  0  0  0  0
  -19.7945  -30.7315   24.2244 H   0  0  0  0  0  0
  -17.5016  -31.6274   24.5179 H   0  0  0  0  0  0
  -15.5361  -30.2983   23.7663 H   0  0  0  0  0  0
  -15.8700  -28.0824   22.7064 H   0  0  0  0  0  0
  -24.5874  -30.7095   25.7726 H   0  0  0  0  0  0
  -24.8898  -32.2915   26.4804 H   0  0  0  0  0  0
  -25.7990  -30.8921   27.0209 H   0  0  0  0  0  0
  -26.2978  -29.6699   24.1212 H   0  0  0  0  0  0
  -27.3989  -29.7238   25.4771 H   0  0  0  0  0  0
  -27.8875  -30.4219   23.9529 H   0  0  0  0  0  0
  -27.2648  -33.3615   26.2042 H   0  0  0  0  0  0
  -28.3865  -32.6861   25.0318 H   0  0  0  0  0  0
  -28.0707  -31.8447   26.5411 H   0  0  0  0  0  0
  -28.2583  -38.0097   24.7536 H   0  0  0  0  0  0
  -28.1095  -36.2629   24.6256 H   0  0  0  0  0  0
  -27.2304  -37.1394   25.8867 H   0  0  0  0  0  0
  -20.9450  -29.8747   21.6800 H   0  0  0  0  0  0
  -26.0152  -38.2828   24.1430 H   0  0  0  0  0  0
  -30.6446  -20.1853   18.7944 H   0  0  0  0  0  0
  -28.2608  -26.5735   24.4339 H   0  0  0  0  0  0
  -29.3512  -26.8128   23.0730 H   0  0  0  0  0  0
  -29.2218  -25.2285   23.8288 H   0  0  0  0  0  0
  -26.7966  -25.0964   23.0452 H   0  0  0  0  0  0
  -26.9087  -26.6433   22.4387 H   0  0  0  0  0  0
  -28.4302  -21.4208   21.7592 H   0  0  0  0  0  0
  -28.8941  -15.6496   21.2193 H   0  0  0  0  0  0
  -27.7107  -23.8502   23.0166 H   0  0  0  0  0  0
  1 25  1  0  0  0
  1 30  2  0  0  0
  1 81  1  0  0  0
  2  3  1  0  0  0
  2 25  1  0  0  0
  2 86  1  0  0  0
  2 87  1  0  0  0
  3  4  1  0  0  0
  3 88  1  0  0  0
  3 89  1  0  0  0
  4  5  1  0  0  0
  4 90  1  0  0  0
  4 91  1  0  0  0
  5  6  1  0  0  0
  5 26  1  0  0  0
  5 92  1  0  0  0
  6 25  1  0  0  0
  6 93  1  0  0  0
  6 94  1  0  0  0
  7  8  2  0  0  0
  7 26  1  0  0  0
  7 29  1  0  0  0
  8  9  1  0  0  0
  8 22  1  0  0  0
  9 10  1  0  0  0
  9 27  2  0  0  0
 10 11  2  0  0  0
 10 15  1  0  0  0
 11 12  1  0  0  0
 11 95  1  0  0  0
 12 13  2  0  0  0
 12 96  1  0  0  0
 13 14  1  0  0  0
 13 31  1  0  0  0
 14 15  2  0  0  0
 14 97  1  0  0  0
 15 98  1  0  0  0
 16 17  2  0  0  0
 16 21  1  0  0  0
 16 31  1  0  0  0
 17 18  1  0  0  0
 17 99  1  0  0  0
 18 19  2  0  0  0
 18100  1  0  0  0
 19 20  1  0  0  0
 19 24  1  0  0  0
 20 21  2  0  0  0
 20101  1  0  0  0
 21 23  1  0  0  0
 22 28  1  0  0  0
 22 32  2  0  0  0
 26 27  1  0  0  0
 28102  1  0  0  0
 28103  1  0  0  0
 29104  1  0  0  0
 29105  1  0  0  0
 33 34  1  0  0  0
 33 66  1  0  0  0
 33 70  2  0  0  0
 34 36  1  0  0  0
 34 59  1  0  0  0
 34106  1  0  0  0
 35 44  2  0  0  0
 35 45  1  0  0  0
 35 68  1  0  0  0
 36 56  1  0  0  0
 36107  1  0  0  0
 37 39  1  0  0  0
 37 47  1  0  0  0
 37 66  1  0  0  0
 37108  1  0  0  0
 38 43  2  0  0  0
 38 46  1  0  0  0
 38 47  1  0  0  0
 39 64  1  0  0  0
 39 67  2  0  0  0
 40 52  1  0  0  0
 40 53  2  0  0  0
 40 58  1  0  0  0
 41109  1  0  0  0
 41110  1  0  0  0
 41111  1  0  0  0
 41 48  1  0  0  0
 42 43  1  0  0  0
 42 66  1  0  0  0
 42112  1  0  0  0
 42113  1  0  0  0
 43 44  1  0  0  0
 44114  1  0  0  0
 45 46  2  0  0  0
 45115  1  0  0  0
 46116  1  0  0  0
 47117  1  0  0  0
 47118  1  0  0  0
 48 56  1  0  0  0
 48 65  1  0  0  0
 48119  1  0  0  0
 49 50  1  0  0  0
 49 53  1  0  0  0
 49 64  1  0  0  0
 49120  1  0  0  0
 50 51  1  0  0  0
 50121  1  0  0  0
 50122  1  0  0  0
 51 52  1  0  0  0
 51123  1  0  0  0
 51124  1  0  0  0
 52125  1  0  0  0
 52126  1  0  0  0
 53 54  1  0  0  0
 54 55  2  0  0  0
 54127  1  0  0  0
 55 57  1  0  0  0
 55128  1  0  0  0
 56 69  2  0  0  0
 57 58  2  0  0  0
 57129  1  0  0  0
 58130  1  0  0  0
 59 60  1  0  0  0
 59 61  1  0  0  0
 59 62  1  0  0  0
 60131  1  0  0  0
 60132  1  0  0  0
 60133  1  0  0  0
 61134  1  0  0  0
 61135  1  0  0  0
 61136  1  0  0  0
 62137  1  0  0  0
 62138  1  0  0  0
 62139  1  0  0  0
 63 65  1  0  0  0
 63140  1  0  0  0
 63141  1  0  0  0
 63142  1  0  0  0
 64143  1  0  0  0
 65144  1  0  0  0
 68 76  1  0  0  0
 71 72  1  0  0  0
 71 73  2  0  0  0
 71145  1  0  0  0
 72 74  2  0  0  0
 72 84  1  0  0  0
 73 80  1  0  0  0
 73 85  1  0  0  0
 74 81  1  0  0  0
 74 85  1  0  0  0
 75 76  2  0  0  0
 75 77  1  0  0  0
 75 83  1  0  0  0
 76 79  1  0  0  0
 77 80  1  0  0  0
 77 82  2  0  0  0
 78 79  1  0  0  0
 78146  1  0  0  0
 78147  1  0  0  0
 78148  1  0  0  0
 79149  1  0  0  0
 79150  1  0  0  0
 80151  1  0  0  0
 81152  1  0  0  0
 83153  1  0  0  0
M  ISO  4   1 100  68 101  76 101  81 100
M  END
> <chiral flag>
0

> <version>
0

> <s_m_source_file>
/data/baiqing/PycharmProjects/Reinvent-master-3.2/result/LINK_invent/BTK/process_docking_weight1_custom_product_contain_oxygen_bond_distance_aromatic_linkinvent_7_9_3/rearranged_h_0179.sdf

> <i_m_source_file_index>
85

> <r_mmod_Potential_Energy-OPLS-2005>
297.634521484375

> <r_mmod_Stretch_Energy-OPLS-2005>
162.198394775391

> <r_mmod_Bend_Energy-OPLS-2005>
268.936401367188

> <r_mmod_Torsional_Energy-OPLS-2005>
233.380905151367

> <r_mmod_Improper_Torsional_Energy-OPLS-2005>
3.93451380729675

> <r_mmod_Van_der_Waal_Energy-OPLS-2005>
138.514419555664

> <r_mmod_Electrostatic_Energy-OPLS-2005>
-416.613372802734

> <r_mmod_Solvation_Energy-OPLS-2005>
-230.889266967773

> <b_mmod_Minimization_Converged-OPLS-2005>
0

> <r_mmod_RMS_Derivative-OPLS-2005>
1.28773963451385

$$$$
85
                    3D
 Structure written by MMmdl.
151159  0  0  1  0            999 V2000
  -30.7027  -14.4918   20.5503 C   0  0  0  0  0  0
  -30.4140  -12.3124   19.4276 C   0  0  0  0  0  0
  -29.4944  -12.5132   18.2049 C   0  0  0  0  0  0
  -28.0150  -12.3726   18.6180 C   0  0  0  0  0  0
  -27.6588  -13.2134   19.8745 C   0  0  2  0  0  0
  -28.7022  -13.0154   20.9982 C   0  0  0  0  0  0
  -25.2565  -13.8157   20.5692 C   0  0  0  0  0  0
  -24.1822  -13.0429   20.9164 C   0  0  0  0  0  0
  -24.6396  -11.6894   20.8716 C   0  0  0  0  0  0
  -23.9063  -10.4284   21.0390 C   0  0  0  0  0  0
  -24.3627   -9.4209   21.9170 C   0  0  0  0  0  0
  -23.6300   -8.2249   22.0743 C   0  0  0  0  0  0
  -22.4280   -8.0282   21.3543 C   0  0  0  0  0  0
  -21.9914   -9.0245   20.4641 C   0  0  0  0  0  0
  -22.7234  -10.2127   20.3032 C   0  0  0  0  0  0
  -21.6855   -6.0741   22.5273 C   0  0  0  0  0  0
  -21.4002   -6.5638   23.8214 C   0  0  0  0  0  0
  -21.3667   -5.6792   24.9173 C   0  0  0  0  0  0
  -21.6053   -4.3052   24.7224 C   0  0  0  0  0  0
  -21.8814   -3.8150   23.4345 C   0  0  0  0  0  0
  -21.9192   -4.6972   22.3395 C   0  0  0  0  0  0
  -22.7842  -13.5229   21.1859 C   0  0  0  0  0  0
  -22.1656   -4.2161   21.0970 F   0  0  0  0  0  0
  -21.5661   -3.4532   25.7739 F   0  0  0  0  0  0
  -30.0258  -13.3152   20.4343 N   0  0  0  0  0  0
  -26.3023  -12.9351   20.3401 N   0  0  0  0  0  0
  -25.9339  -11.6492   20.5774 N   0  0  0  0  0  0
  -22.0503  -12.8207   22.0414 N   0  0  0  0  0  0
  -25.4287  -15.1878   20.4177 N   0  0  0  0  0  0
  -31.8471  -14.6392   20.1153 O   0  0  0  0  0  0
  -21.6647   -6.8881   21.4232 O   0  0  0  0  0  0
  -22.3512  -14.5549   20.6736 O   0  0  0  0  0  0
  -24.6195  -31.8693   23.2121 C   0  0  0  0  0  0
  -25.9083  -32.4824   23.8410 C   0  0  1  0  0  0
  -27.2109  -27.3896   20.0909 C   0  0  0  0  0  0
  -25.5937  -33.8628   24.2336 N   0  0  0  0  0  0
  -23.4075  -30.4986   21.5545 C   0  0  2  0  0  0
  -24.8488  -28.9727   20.1111 C   0  0  0  0  0  0
  -22.7435  -29.4687   22.4980 C   0  0  0  0  0  0
  -18.0285  -28.1383   22.8501 C   0  0  0  0  0  0
  -24.1470  -36.7287   23.2598 C   0  0  0  0  0  0
  -25.9461  -30.8170   21.3798 C   0  0  0  0  0  0
  -26.0168  -29.4536   20.7170 C   0  0  0  0  0  0
  -27.2016  -28.6695   20.7081 C   0  0  0  0  0  0
  -26.0196  -26.9577   19.4542 C   0  0  0  0  0  0
  -24.8474  -27.7254   19.4769 C   0  0  0  0  0  0
  -23.6149  -29.8419   20.1664 C   0  0  0  0  0  0
  -25.4070  -36.3103   24.0337 C   0  0  1  0  0  0
  -20.5883  -28.3701   23.1297 C   0  0  2  0  0  0
  -20.6787  -26.9430   22.5418 C   0  0  0  0  0  0
  -19.5747  -26.6393   21.5236 C   0  0  0  0  0  0
  -18.1925  -26.7929   22.1638 C   0  0  0  0  0  0
  -19.1536  -28.8855   23.2893 C   0  0  0  0  0  0
  -18.9457  -30.1467   23.8900 C   0  0  0  0  0  0
  -17.6457  -30.6593   24.0575 C   0  0  0  0  0  0
  -25.9061  -34.9485   23.5138 C   0  0  0  0  0  0
  -16.5345  -29.9091   23.6335 C   0  0  0  0  0  0
  -16.7270  -28.6509   23.0358 C   0  0  0  0  0  0
  -26.4488  -31.6602   25.0757 C   0  0  0  0  0  0
  -25.3730  -31.3732   26.1492 C   0  0  0  0  0  0
  -27.0319  -30.3014   24.6198 C   0  0  0  0  0  0
  -27.6073  -32.4322   25.7517 C   0  0  0  0  0  0
  -27.5649  -37.1657   24.8342 C   0  0  0  0  0  0
  -21.4167  -29.3067   22.3701 N   0  0  0  0  0  0
  -26.4179  -37.3871   23.9575 N   0  0  0  0  0  0
  -24.6762  -31.0755   22.1057 N   0  0  0  0  0  0
  -23.4195  -28.8222   23.3024 O   0  0  0  0  0  0
  -28.3310  -26.5626   20.1365 O   0  0  0  0  0  0
  -26.5627  -34.8948   22.4704 O   0  0  0  0  0  0
  -23.5377  -32.1495   23.7475 O   0  0  0  0  0  0
  -29.5873  -18.0821   21.2473 C   0  0  0  0  0  0
  -28.3675  -18.0974   21.8957 C   0  0  0  0  0  0
  -29.0533  -20.3237   21.0334 C   0  0  0  0  0  0
  -29.1079  -24.1410   20.4144 C   0  0  0  0  0  0
  -28.5830  -22.7842   21.0136 C   0  0  0  0  0  0
  -30.5649  -16.9243   21.0734 C   0  0  0  0  0  0
  -28.0137  -25.1477   19.9866 C   0  0  0  0  0  0
  -29.9433  -19.3573   20.7485 N   0  0  0  0  0  0
  -27.7028  -17.0562   22.5405 N   0  0  0  0  0  0
  -29.2870  -21.6865   20.6471 N   0  0  0  0  0  0
  -30.0137  -15.5518   21.0204 N   0  0  0  0  0  0
  -30.3129  -24.3765   20.2549 O   0  0  0  0  0  0
  -27.6011  -22.7634   21.7647 O   0  0  0  0  0  0
  -27.6538  -19.6971   21.9113 S   0  0  0  0  0  0
  -31.4625  -12.3880   19.1365 H   0  0  0  0  0  0
  -30.2892  -11.3054   19.8273 H   0  0  0  0  0  0
  -29.7350  -11.7880   17.4256 H   0  0  0  0  0  0
  -29.6653  -13.4985   17.7654 H   0  0  0  0  0  0
  -27.8329  -11.3160   18.8188 H   0  0  0  0  0  0
  -27.3607  -12.6413   17.7863 H   0  0  0  0  0  0
  -27.6958  -14.2609   19.5743 H   0  0  0  0  0  0
  -28.6820  -11.9880   21.3644 H   0  0  0  0  0  0
  -28.4735  -13.6402   21.8631 H   0  0  0  0  0  0
  -25.2784   -9.5702   22.4748 H   0  0  0  0  0  0
  -24.0030   -7.4635   22.7454 H   0  0  0  0  0  0
  -21.0848   -8.8732   19.8947 H   0  0  0  0  0  0
  -22.3680  -10.9650   19.6138 H   0  0  0  0  0  0
  -21.1958   -7.6138   23.9710 H   0  0  0  0  0  0
  -21.1511   -6.0528   25.9082 H   0  0  0  0  0  0
  -22.0592   -2.7615   23.2837 H   0  0  0  0  0  0
  -22.4119  -11.9863   22.4779 H   0  0  0  0  0  0
  -21.1117  -13.1209   22.2605 H   0  0  0  0  0  0
  -24.6765  -15.8461   20.5873 H   0  0  0  0  0  0
  -26.3267  -15.6405   20.2917 H   0  0  0  0  0  0
  -26.7151  -32.5513   23.1164 H   0  0  0  0  0  0
  -25.0057  -33.9795   25.0459 H   0  0  0  0  0  0
  -22.6988  -31.3188   21.4185 H   0  0  0  0  0  0
  -23.3871  -35.9457   23.2919 H   0  0  0  0  0  0
  -24.3685  -36.9263   22.2099 H   0  0  0  0  0  0
  -23.6979  -37.6276   23.6832 H   0  0  0  0  0  0
  -26.0755  -31.5848   20.6162 H   0  0  0  0  0  0
  -26.8266  -30.8564   22.0091 H   0  0  0  0  0  0
  -28.0943  -29.0286   21.2021 H   0  0  0  0  0  0
  -25.9504  -26.0175   18.9291 H   0  0  0  0  0  0
  -23.9517  -27.3554   18.9977 H   0  0  0  0  0  0
  -23.7228  -30.6195   19.4093 H   0  0  0  0  0  0
  -22.7380  -29.2636   19.8690 H   0  0  0  0  0  0
  -25.1174  -36.1893   25.0798 H   0  0  0  0  0  0
  -20.9971  -28.3273   24.1420 H   0  0  0  0  0  0
  -20.5737  -26.2313   23.3623 H   0  0  0  0  0  0
  -21.6649  -26.7507   22.1172 H   0  0  0  0  0  0
  -19.6919  -25.6313   21.1250 H   0  0  0  0  0  0
  -19.6658  -27.3226   20.6784 H   0  0  0  0  0  0
  -17.4211  -26.6718   21.4021 H   0  0  0  0  0  0
  -18.0289  -26.0059   22.9011 H   0  0  0  0  0  0
  -19.7938  -30.7294   24.2243 H   0  0  0  0  0  0
  -17.5015  -31.6269   24.5177 H   0  0  0  0  0  0
  -15.5352  -30.2995   23.7658 H   0  0  0  0  0  0
  -15.8674  -28.0833   22.7063 H   0  0  0  0  0  0
  -24.5891  -30.7106   25.7807 H   0  0  0  0  0  0
  -24.8948  -32.2900   26.4939 H   0  0  0  0  0  0
  -25.8049  -30.8877   27.0248 H   0  0  0  0  0  0
  -26.2892  -29.6778   24.1204 H   0  0  0  0  0  0
  -27.3986  -29.7253   25.4705 H   0  0  0  0  0  0
  -27.8780  -30.4281   23.9442 H   0  0  0  0  0  0
  -27.2692  -33.3607   26.2122 H   0  0  0  0  0  0
  -28.3857  -32.6900   25.0327 H   0  0  0  0  0  0
  -28.0762  -31.8431   26.5405 H   0  0  0  0  0  0
  -28.2174  -38.0399   24.8213 H   0  0  0  0  0  0
  -28.1618  -36.3102   24.5138 H   0  0  0  0  0  0
  -27.2553  -36.9998   25.8677 H   0  0  0  0  0  0
  -20.9346  -29.8771   21.6899 H   0  0  0  0  0  0
  -26.0031  -38.2809   24.2069 H   0  0  0  0  0  0
  -31.2802  -16.9459   21.8970 H   0  0  0  0  0  0
  -31.1514  -17.1023   20.1704 H   0  0  0  0  0  0
  -27.1215  -24.9228   20.5728 H   0  0  0  0  0  0
  -27.7800  -24.9379   18.9429 H   0  0  0  0  0  0
  -28.2217  -16.3153   22.9987 H   0  0  0  0  0  0
  -26.8327  -17.2444   23.0301 H   0  0  0  0  0  0
  -30.0829  -21.8620   20.0503 H   0  0  0  0  0  0
  -29.0585  -15.4230   21.3171 H   0  0  0  0  0  0
  1 25  1  0  0  0
  1 30  2  0  0  0
  1 81  1  0  0  0
  2  3  1  0  0  0
  2 25  1  0  0  0
  2 85  1  0  0  0
  2 86  1  0  0  0
  3  4  1  0  0  0
  3 87  1  0  0  0
  3 88  1  0  0  0
  4  5  1  0  0  0
  4 89  1  0  0  0
  4 90  1  0  0  0
  5  6  1  0  0  0
  5 26  1  0  0  0
  5 91  1  0  0  0
  6 25  1  0  0  0
  6 92  1  0  0  0
  6 93  1  0  0  0
  7  8  2  0  0  0
  7 26  1  0  0  0
  7 29  1  0  0  0
  8  9  1  0  0  0
  8 22  1  0  0  0
  9 10  1  0  0  0
  9 27  2  0  0  0
 10 11  2  0  0  0
 10 15  1  0  0  0
 11 12  1  0  0  0
 11 94  1  0  0  0
 12 13  2  0  0  0
 12 95  1  0  0  0
 13 14  1  0  0  0
 13 31  1  0  0  0
 14 15  2  0  0  0
 14 96  1  0  0  0
 15 97  1  0  0  0
 16 17  2  0  0  0
 16 21  1  0  0  0
 16 31  1  0  0  0
 17 18  1  0  0  0
 17 98  1  0  0  0
 18 19  2  0  0  0
 18 99  1  0  0  0
 19 20  1  0  0  0
 19 24  1  0  0  0
 20 21  2  0  0  0
 20100  1  0  0  0
 21 23  1  0  0  0
 22 28  1  0  0  0
 22 32  2  0  0  0
 26 27  1  0  0  0
 28101  1  0  0  0
 28102  1  0  0  0
 29103  1  0  0  0
 29104  1  0  0  0
 33 34  1  0  0  0
 33 66  1  0  0  0
 33 70  2  0  0  0
 34 36  1  0  0  0
 34 59  1  0  0  0
 34105  1  0  0  0
 35 44  2  0  0  0
 35 45  1  0  0  0
 35 68  1  0  0  0
 36 56  1  0  0  0
 36106  1  0  0  0
 37 39  1  0  0  0
 37 47  1  0  0  0
 37 66  1  0  0  0
 37107  1  0  0  0
 38 43  2  0  0  0
 38 46  1  0  0  0
 38 47  1  0  0  0
 39 64  1  0  0  0
 39 67  2  0  0  0
 40 52  1  0  0  0
 40 53  2  0  0  0
 40 58  1  0  0  0
 41108  1  0  0  0
 41109  1  0  0  0
 41110  1  0  0  0
 41 48  1  0  0  0
 42 43  1  0  0  0
 42 66  1  0  0  0
 42111  1  0  0  0
 42112  1  0  0  0
 43 44  1  0  0  0
 44113  1  0  0  0
 45 46  2  0  0  0
 45114  1  0  0  0
 46115  1  0  0  0
 47116  1  0  0  0
 47117  1  0  0  0
 48 56  1  0  0  0
 48 65  1  0  0  0
 48118  1  0  0  0
 49 50  1  0  0  0
 49 53  1  0  0  0
 49 64  1  0  0  0
 49119  1  0  0  0
 50 51  1  0  0  0
 50120  1  0  0  0
 50121  1  0  0  0
 51 52  1  0  0  0
 51122  1  0  0  0
 51123  1  0  0  0
 52124  1  0  0  0
 52125  1  0  0  0
 53 54  1  0  0  0
 54 55  2  0  0  0
 54126  1  0  0  0
 55 57  1  0  0  0
 55127  1  0  0  0
 56 69  2  0  0  0
 57 58  2  0  0  0
 57128  1  0  0  0
 58129  1  0  0  0
 59 60  1  0  0  0
 59 61  1  0  0  0
 59 62  1  0  0  0
 60130  1  0  0  0
 60131  1  0  0  0
 60132  1  0  0  0
 61133  1  0  0  0
 61134  1  0  0  0
 61135  1  0  0  0
 62136  1  0  0  0
 62137  1  0  0  0
 62138  1  0  0  0
 63 65  1  0  0  0
 63139  1  0  0  0
 63140  1  0  0  0
 63141  1  0  0  0
 64142  1  0  0  0
 65143  1  0  0  0
 68 77  1  0  0  0
 71 72  2  0  0  0
 71 76  1  0  0  0
 71 78  1  0  0  0
 72 79  1  0  0  0
 72 84  1  0  0  0
 73 78  2  0  0  0
 73 80  1  0  0  0
 73 84  1  0  0  0
 74 75  1  0  0  0
 74 77  1  0  0  0
 74 82  2  0  0  0
 75 80  1  0  0  0
 75 83  2  0  0  0
 76 81  1  0  0  0
 76144  1  0  0  0
 76145  1  0  0  0
 77146  1  0  0  0
 77147  1  0  0  0
 79148  1  0  0  0
 79149  1  0  0  0
 80150  1  0  0  0
 81151  1  0  0  0
M  ISO  4   1 100  68 101  77 101  81 100
M  END
> <chiral flag>
0

> <version>
0

> <s_m_source_file>
/data/baiqing/PycharmProjects/Reinvent-master-3.2/result/LINK_invent/BTK/process_docking_weight1_custom_product_contain_oxygen_bond_distance_aromatic_linkinvent_7_9_3/rearranged_h_0179.sdf

> <i_m_source_file_index>
86

> <r_mmod_Potential_Energy-OPLS-2005>
-124.345359802246

> <r_mmod_Stretch_Energy-OPLS-2005>
45.7907867431641

> <r_mmod_Bend_Energy-OPLS-2005>
107.658111572266

> <r_mmod_Torsional_Energy-OPLS-2005>
203.146011352539

> <r_mmod_Improper_Torsional_Energy-OPLS-2005>
6.6712760925293

> <r_mmod_Van_der_Waal_Energy-OPLS-2005>
137.916809082031

> <r_mmod_Electrostatic_Energy-OPLS-2005>
-402.436889648438

> <r_mmod_Solvation_Energy-OPLS-2005>
-245.871658325195

> <b_mmod_Minimization_Converged-OPLS-2005>
0

> <r_mmod_RMS_Derivative-OPLS-2005>
2.90633630752563

$$$$
86
                    3D
 Structure written by MMmdl.
175183  0  0  1  0            999 V2000
  -30.7151  -14.4386   20.5454 C   0  0  0  0  0  0
  -30.4209  -12.2818   19.4162 C   0  0  0  0  0  0
  -29.4982  -12.5154   18.2033 C   0  0  0  0  0  0
  -28.0212  -12.3695   18.6135 C   0  0  0  0  0  0
  -27.6663  -13.2039   19.8736 C   0  0  2  0  0  0
  -28.7074  -12.9792   20.9955 C   0  0  0  0  0  0
  -25.2617  -13.8157   20.5649 C   0  0  0  0  0  0
  -24.1855  -13.0446   20.9136 C   0  0  0  0  0  0
  -24.6389  -11.6906   20.8699 C   0  0  0  0  0  0
  -23.9052  -10.4301   21.0379 C   0  0  0  0  0  0
  -24.3585   -9.4218   21.9166 C   0  0  0  0  0  0
  -23.6264   -8.2252   22.0743 C   0  0  0  0  0  0
  -22.4242   -8.0278   21.3547 C   0  0  0  0  0  0
  -21.9870   -9.0249   20.4651 C   0  0  0  0  0  0
  -22.7205  -10.2124   20.3056 C   0  0  0  0  0  0
  -21.6861   -6.0719   22.5275 C   0  0  0  0  0  0
  -21.4013   -6.5611   23.8204 C   0  0  0  0  0  0
  -21.3667   -5.6758   24.9167 C   0  0  0  0  0  0
  -21.6041   -4.3026   24.7220 C   0  0  0  0  0  0
  -21.8830   -3.8127   23.4340 C   0  0  0  0  0  0
  -21.9203   -4.6946   22.3391 C   0  0  0  0  0  0
  -22.7898  -13.5277   21.1817 C   0  0  0  0  0  0
  -22.1670   -4.2142   21.0976 F   0  0  0  0  0  0
  -21.5632   -3.4505   25.7730 F   0  0  0  0  0  0
  -30.0481  -13.2581   20.4495 N   0  0  0  0  0  0
  -26.3048  -12.9321   20.3318 N   0  0  0  0  0  0
  -25.9313  -11.6476   20.5694 N   0  0  0  0  0  0
  -22.0494  -12.8307   22.0363 N   0  0  0  0  0  0
  -25.4355  -15.1857   20.4076 N   0  0  0  0  0  0
  -31.8548  -14.6062   20.1004 O   0  0  0  0  0  0
  -21.6638   -6.8851   21.4230 O   0  0  0  0  0  0
  -22.3612  -14.5599   20.6676 O   0  0  0  0  0  0
  -24.6103  -31.8700   23.2137 C   0  0  0  0  0  0
  -25.9011  -32.4832   23.8421 C   0  0  1  0  0  0
  -27.2435  -27.4737   20.0981 C   0  0  0  0  0  0
  -25.5887  -33.8626   24.2358 N   0  0  0  0  0  0
  -23.3984  -30.4932   21.5510 C   0  0  2  0  0  0
  -24.8502  -28.9588   20.1229 C   0  0  0  0  0  0
  -22.7395  -29.4659   22.4982 C   0  0  0  0  0  0
  -18.0270  -28.1379   22.8485 C   0  0  0  0  0  0
  -24.1485  -36.7320   23.2635 C   0  0  0  0  0  0
  -25.9210  -30.8471   21.3619 C   0  0  0  0  0  0
  -26.0037  -29.4772   20.7267 C   0  0  0  0  0  0
  -27.2045  -28.7359   20.7271 C   0  0  0  0  0  0
  -26.0814  -26.9601   19.4914 C   0  0  0  0  0  0
  -24.8790  -27.6929   19.5098 C   0  0  0  0  0  0
  -23.6112  -29.8248   20.1655 C   0  0  0  0  0  0
  -25.4094  -36.3108   24.0345 C   0  0  1  0  0  0
  -20.5860  -28.3656   23.1322 C   0  0  2  0  0  0
  -20.6760  -26.9393   22.5418 C   0  0  0  0  0  0
  -19.5737  -26.6391   21.5207 C   0  0  0  0  0  0
  -18.1915  -26.7928   22.1615 C   0  0  0  0  0  0
  -19.1520  -28.8833   23.2907 C   0  0  0  0  0  0
  -18.9449  -30.1440   23.8919 C   0  0  0  0  0  0
  -17.6454  -30.6579   24.0572 C   0  0  0  0  0  0
  -25.9018  -34.9473   23.5145 C   0  0  0  0  0  0
  -16.5345  -29.9086   23.6323 C   0  0  0  0  0  0
  -16.7262  -28.6510   23.0332 C   0  0  0  0  0  0
  -26.4476  -31.6573   25.0709 C   0  0  0  0  0  0
  -25.3795  -31.3662   26.1499 C   0  0  0  0  0  0
  -27.0250  -30.3015   24.6002 C   0  0  0  0  0  0
  -27.6097  -32.4248   25.7442 C   0  0  0  0  0  0
  -27.5577  -37.1801   24.8459 C   0  0  0  0  0  0
  -21.4123  -29.3032   22.3737 N   0  0  0  0  0  0
  -26.4280  -37.3792   23.9418 N   0  0  0  0  0  0
  -24.6612  -31.0836   22.1021 N   0  0  0  0  0  0
  -23.4181  -28.8184   23.3004 O   0  0  0  0  0  0
  -28.4040  -26.7569   19.9865 O   0  0  0  0  0  0
  -26.5575  -34.8916   22.4701 O   0  0  0  0  0  0
  -23.5306  -32.1434   23.7553 O   0  0  0  0  0  0
  -29.7393  -16.8884   19.0677 C   0  0  0  0  0  0
  -29.6538  -18.1611   18.4777 C   0  0  0  0  0  0
  -29.7919  -19.2975   19.3105 C   0  0  0  0  0  0
  -29.9811  -16.7632   20.4517 C   0  0  0  0  0  0
  -30.0572  -19.0976   20.6897 C   0  0  0  0  0  0
  -29.5358  -24.8569   20.9212 C   0  0  0  0  0  0
  -30.4023  -24.2010   22.0169 C   0  0  0  0  0  0
  -28.2835  -22.1743   17.4672 C   0  0  0  0  0  0
  -30.6109  -20.5146   22.6868 C   0  0  0  0  0  0
  -29.4039  -18.2646   16.9809 C   0  0  0  0  0  0
  -26.9291  -22.7517   17.0829 C   0  0  0  0  0  0
  -27.4777  -21.3333   19.7361 C   0  0  0  0  0  0
  -30.3862  -22.2391   24.6190 C   0  0  0  0  0  0
  -28.9465  -26.2456   21.2027 C   0  0  0  0  0  0
  -28.2959  -21.0023   18.4734 C   0  0  2  0  0  0
  -30.7346  -21.9867   23.1394 C   0  0  2  0  0  0
  -30.1191  -17.8560   21.2349 N   0  0  0  0  0  0
  -29.6668  -20.6060   18.8026 N   0  0  0  0  0  0
  -30.2484  -20.3002   21.4126 N   0  0  0  0  0  0
  -29.9900  -15.4631   21.0173 N   0  0  0  0  0  0
  -30.0315  -22.9361   22.2706 N   0  0  0  0  0  0
  -29.3174  -24.2739   19.8534 O   0  0  0  0  0  0
  -31.3594  -24.7685   22.5506 O   0  0  0  0  0  0
  -29.3092  -22.6215   16.9470 O   0  0  0  0  0  0
  -30.8502  -19.6140   23.4975 O   0  0  0  0  0  0
  -31.4665  -12.3608   19.1107 H   0  0  0  0  0  0
  -30.2983  -11.2672   19.7981 H   0  0  0  0  0  0
  -29.7356  -11.8157   17.4011 H   0  0  0  0  0  0
  -29.6721  -13.5123   17.7943 H   0  0  0  0  0  0
  -27.8320  -11.3132   18.8018 H   0  0  0  0  0  0
  -27.3763  -12.6464   17.7802 H   0  0  0  0  0  0
  -27.7160  -14.2516   19.5763 H   0  0  0  0  0  0
  -28.6684  -11.9490   21.3498 H   0  0  0  0  0  0
  -28.4759  -13.5945   21.8666 H   0  0  0  0  0  0
  -25.2723   -9.5717   22.4739 H   0  0  0  0  0  0
  -23.9991   -7.4655   22.7450 H   0  0  0  0  0  0
  -21.0804   -8.8754   19.8962 H   0  0  0  0  0  0
  -22.3635  -10.9648   19.6171 H   0  0  0  0  0  0
  -21.1983   -7.6112   23.9710 H   0  0  0  0  0  0
  -21.1479   -6.0480   25.9068 H   0  0  0  0  0  0
  -22.0600   -2.7586   23.2857 H   0  0  0  0  0  0
  -22.4048  -11.9974   22.4820 H   0  0  0  0  0  0
  -21.1126  -13.1411   22.2516 H   0  0  0  0  0  0
  -24.6672  -15.8397   20.5085 H   0  0  0  0  0  0
  -26.2864  -15.6232   20.0808 H   0  0  0  0  0  0
  -26.7090  -32.5582   23.1202 H   0  0  0  0  0  0
  -25.0052  -33.9796   25.0512 H   0  0  0  0  0  0
  -22.6851  -31.3083   21.4120 H   0  0  0  0  0  0
  -23.3745  -35.9655   23.3278 H   0  0  0  0  0  0
  -24.3596  -36.8950   22.2054 H   0  0  0  0  0  0
  -23.7239  -37.6521   23.6660 H   0  0  0  0  0  0
  -26.0173  -31.6051   20.5830 H   0  0  0  0  0  0
  -26.8154  -30.9174   21.9684 H   0  0  0  0  0  0
  -28.0997  -29.1393   21.1792 H   0  0  0  0  0  0
  -26.1132  -25.9976   19.0000 H   0  0  0  0  0  0
  -23.9937  -27.2856   19.0409 H   0  0  0  0  0  0
  -23.7279  -30.6011   19.4081 H   0  0  0  0  0  0
  -22.7356  -29.2482   19.8628 H   0  0  0  0  0  0
  -25.1263  -36.1975   25.0841 H   0  0  0  0  0  0
  -20.9956  -28.3227   24.1439 H   0  0  0  0  0  0
  -20.5649  -26.2263   23.3601 H   0  0  0  0  0  0
  -21.6636  -26.7432   22.1222 H   0  0  0  0  0  0
  -19.6893  -25.6310   21.1214 H   0  0  0  0  0  0
  -19.6669  -27.3225   20.6754 H   0  0  0  0  0  0
  -17.4180  -26.6682   21.4017 H   0  0  0  0  0  0
  -18.0309  -26.0071   22.9008 H   0  0  0  0  0  0
  -19.7927  -30.7250   24.2297 H   0  0  0  0  0  0
  -17.5009  -31.6255   24.5182 H   0  0  0  0  0  0
  -15.5345  -30.2991   23.7630 H   0  0  0  0  0  0
  -15.8665  -28.0835   22.7018 H   0  0  0  0  0  0
  -24.5927  -30.7043   25.7858 H   0  0  0  0  0  0
  -24.9045  -32.2816   26.5040 H   0  0  0  0  0  0
  -25.8204  -30.8765   27.0193 H   0  0  0  0  0  0
  -26.2709  -29.6782   24.1178 H   0  0  0  0  0  0
  -27.4164  -29.7238   25.4386 H   0  0  0  0  0  0
  -27.8506  -30.4320   23.9001 H   0  0  0  0  0  0
  -27.2769  -33.3557   26.2041 H   0  0  0  0  0  0
  -28.3896  -32.6769   25.0246 H   0  0  0  0  0  0
  -28.0769  -31.8339   26.5328 H   0  0  0  0  0  0
  -28.2595  -38.0097   24.7512 H   0  0  0  0  0  0
  -28.1068  -36.2633   24.6262 H   0  0  0  0  0  0
  -27.2307  -37.1444   25.8865 H   0  0  0  0  0  0
  -20.9264  -29.8799   21.7010 H   0  0  0  0  0  0
  -26.0167  -38.2865   24.1441 H   0  0  0  0  0  0
  -29.6144  -16.0117   18.4471 H   0  0  0  0  0  0
  -29.8709  -17.4330   16.4526 H   0  0  0  0  0  0
  -29.8085  -19.1851   16.5591 H   0  0  0  0  0  0
  -28.3351  -18.2312   16.7740 H   0  0  0  0  0  0
  -26.1733  -21.9660   17.0770 H   0  0  0  0  0  0
  -26.9708  -23.1996   16.0910 H   0  0  0  0  0  0
  -26.6336  -23.5146   17.8028 H   0  0  0  0  0  0
  -26.4322  -21.5154   19.4880 H   0  0  0  0  0  0
  -27.8473  -22.2199   20.2465 H   0  0  0  0  0  0
  -27.4820  -20.5094   20.4489 H   0  0  0  0  0  0
  -30.9253  -21.5607   25.2808 H   0  0  0  0  0  0
  -29.3196  -22.1031   24.8042 H   0  0  0  0  0  0
  -30.6511  -23.2530   24.9202 H   0  0  0  0  0  0
  -29.7196  -26.9158   21.5786 H   0  0  0  0  0  0
  -28.1784  -26.1507   21.9708 H   0  0  0  0  0  0
  -27.8051  -20.1641   17.9814 H   0  0  0  0  0  0
  -31.8025  -22.1941   23.0346 H   0  0  0  0  0  0
  -30.2630  -20.8023   17.9997 H   0  0  0  0  0  0
  -30.1403  -21.1112   20.8199 H   0  0  0  0  0  0
  -29.1517  -15.2021   21.5121 H   0  0  0  0  0  0
  -29.2050  -22.6085   21.7894 H   0  0  0  0  0  0
  1 25  1  0  0  0
  1 30  2  0  0  0
  1 90  1  0  0  0
  2  3  1  0  0  0
  2 25  1  0  0  0
  2 96  1  0  0  0
  2 97  1  0  0  0
  3  4  1  0  0  0
  3 98  1  0  0  0
  3 99  1  0  0  0
  4  5  1  0  0  0
  4100  1  0  0  0
  4101  1  0  0  0
  5  6  1  0  0  0
  5 26  1  0  0  0
  5102  1  0  0  0
  6 25  1  0  0  0
  6103  1  0  0  0
  6104  1  0  0  0
  7  8  2  0  0  0
  7 26  1  0  0  0
  7 29  1  0  0  0
  8  9  1  0  0  0
  8 22  1  0  0  0
  9 10  1  0  0  0
  9 27  2  0  0  0
 10 11  2  0  0  0
 10 15  1  0  0  0
 11 12  1  0  0  0
 11105  1  0  0  0
 12 13  2  0  0  0
 12106  1  0  0  0
 13 14  1  0  0  0
 13 31  1  0  0  0
 14 15  2  0  0  0
 14107  1  0  0  0
 15108  1  0  0  0
 16 17  2  0  0  0
 16 21  1  0  0  0
 16 31  1  0  0  0
 17 18  1  0  0  0
 17109  1  0  0  0
 18 19  2  0  0  0
 18110  1  0  0  0
 19 20  1  0  0  0
 19 24  1  0  0  0
 20 21  2  0  0  0
 20111  1  0  0  0
 21 23  1  0  0  0
 22 28  1  0  0  0
 22 32  2  0  0  0
 26 27  1  0  0  0
 28112  1  0  0  0
 28113  1  0  0  0
 29114  1  0  0  0
 29115  1  0  0  0
 33 34  1  0  0  0
 33 66  1  0  0  0
 33 70  2  0  0  0
 34 36  1  0  0  0
 34 59  1  0  0  0
 34116  1  0  0  0
 35 44  2  0  0  0
 35 45  1  0  0  0
 35 68  1  0  0  0
 36 56  1  0  0  0
 36117  1  0  0  0
 37 39  1  0  0  0
 37 47  1  0  0  0
 37 66  1  0  0  0
 37118  1  0  0  0
 38 43  2  0  0  0
 38 46  1  0  0  0
 38 47  1  0  0  0
 39 64  1  0  0  0
 39 67  2  0  0  0
 40 52  1  0  0  0
 40 53  2  0  0  0
 40 58  1  0  0  0
 41119  1  0  0  0
 41120  1  0  0  0
 41121  1  0  0  0
 41 48  1  0  0  0
 42 43  1  0  0  0
 42 66  1  0  0  0
 42122  1  0  0  0
 42123  1  0  0  0
 43 44  1  0  0  0
 44124  1  0  0  0
 45 46  2  0  0  0
 45125  1  0  0  0
 46126  1  0  0  0
 47127  1  0  0  0
 47128  1  0  0  0
 48 56  1  0  0  0
 48 65  1  0  0  0
 48129  1  0  0  0
 49 50  1  0  0  0
 49 53  1  0  0  0
 49 64  1  0  0  0
 49130  1  0  0  0
 50 51  1  0  0  0
 50131  1  0  0  0
 50132  1  0  0  0
 51 52  1  0  0  0
 51133  1  0  0  0
 51134  1  0  0  0
 52135  1  0  0  0
 52136  1  0  0  0
 53 54  1  0  0  0
 54 55  2  0  0  0
 54137  1  0  0  0
 55 57  1  0  0  0
 55138  1  0  0  0
 56 69  2  0  0  0
 57 58  2  0  0  0
 57139  1  0  0  0
 58140  1  0  0  0
 59 60  1  0  0  0
 59 61  1  0  0  0
 59 62  1  0  0  0
 60141  1  0  0  0
 60142  1  0  0  0
 60143  1  0  0  0
 61144  1  0  0  0
 61145  1  0  0  0
 61146  1  0  0  0
 62147  1  0  0  0
 62148  1  0  0  0
 62149  1  0  0  0
 63 65  1  0  0  0
 63150  1  0  0  0
 63151  1  0  0  0
 63152  1  0  0  0
 64153  1  0  0  0
 65154  1  0  0  0
 68 84  1  0  0  0
 71 72  2  0  0  0
 71 74  1  0  0  0
 71155  1  0  0  0
 72 73  1  0  0  0
 72 80  1  0  0  0
 73 75  2  0  0  0
 73 88  1  0  0  0
 74 87  2  0  0  0
 74 90  1  0  0  0
 75 87  1  0  0  0
 75 89  1  0  0  0
 76 77  1  0  0  0
 76 84  1  0  0  0
 76 92  2  0  0  0
 77 91  1  0  0  0
 77 93  2  0  0  0
 78 81  1  0  0  0
 78 85  1  0  0  0
 78 94  2  0  0  0
 79 86  1  0  0  0
 79 89  1  0  0  0
 79 95  2  0  0  0
 80156  1  0  0  0
 80157  1  0  0  0
 80158  1  0  0  0
 81159  1  0  0  0
 81160  1  0  0  0
 81161  1  0  0  0
 82162  1  0  0  0
 82163  1  0  0  0
 82164  1  0  0  0
 82 85  1  0  0  0
 83165  1  0  0  0
 83166  1  0  0  0
 83167  1  0  0  0
 83 86  1  0  0  0
 84168  1  0  0  0
 84169  1  0  0  0
 85 88  1  0  0  0
 85170  1  0  0  0
 86 91  1  0  0  0
 86171  1  0  0  0
 88172  1  0  0  0
 89173  1  0  0  0
 90174  1  0  0  0
 91175  1  0  0  0
M  ISO  4   1 100  68 101  84 101  90 100
M  END
> <chiral flag>
0

> <version>
0

> <s_m_source_file>
/data/baiqing/PycharmProjects/Reinvent-master-3.2/result/LINK_invent/BTK/process_docking_weight1_custom_product_contain_oxygen_bond_distance_aromatic_linkinvent_7_9_3/rearranged_h_0179.sdf

> <i_m_source_file_index>
87

> <r_mmod_Potential_Energy-OPLS-2005>
-289.037139892578

> <r_mmod_Stretch_Energy-OPLS-2005>
36.0054893493652

> <r_mmod_Bend_Energy-OPLS-2005>
112.17692565918

> <r_mmod_Torsional_Energy-OPLS-2005>
293.625762939453

> <r_mmod_Improper_Torsional_Energy-OPLS-2005>
11.608512878418

> <r_mmod_Van_der_Waal_Energy-OPLS-2005>
150.044189453125

> <r_mmod_Electrostatic_Energy-OPLS-2005>
-606.758544921875

> <r_mmod_Solvation_Energy-OPLS-2005>
-295.5224609375

> <b_mmod_Minimization_Converged-OPLS-2005>
0

> <r_mmod_RMS_Derivative-OPLS-2005>
2.94466328620911

$$$$
87
                    3D
 Structure written by MMmdl.
154162  0  0  1  0            999 V2000
  -30.6850  -14.5883   20.5989 C   0  0  0  0  0  0
  -30.4154  -12.3907   19.4767 C   0  0  0  0  0  0
  -29.5005  -12.5087   18.2429 C   0  0  0  0  0  0
  -28.0298  -12.3276   18.6538 C   0  0  0  0  0  0
  -27.6430  -13.2182   19.8626 C   0  0  2  0  0  0
  -28.6715  -13.1021   21.0077 C   0  0  0  0  0  0
  -25.2511  -13.8190   20.5692 C   0  0  0  0  0  0
  -24.1793  -13.0446   20.9210 C   0  0  0  0  0  0
  -24.6364  -11.6931   20.8767 C   0  0  0  0  0  0
  -23.9036  -10.4320   21.0450 C   0  0  0  0  0  0
  -24.3610   -9.4221   21.9208 C   0  0  0  0  0  0
  -23.6285   -8.2256   22.0747 C   0  0  0  0  0  0
  -22.4271   -8.0301   21.3534 C   0  0  0  0  0  0
  -21.9916   -9.0280   20.4638 C   0  0  0  0  0  0
  -22.7232  -10.2160   20.3060 C   0  0  0  0  0  0
  -21.6844   -6.0756   22.5283 C   0  0  0  0  0  0
  -21.4011   -6.5649   23.8222 C   0  0  0  0  0  0
  -21.3661   -5.6793   24.9169 C   0  0  0  0  0  0
  -21.6046   -4.3061   24.7213 C   0  0  0  0  0  0
  -21.8808   -3.8164   23.4328 C   0  0  0  0  0  0
  -21.9182   -4.6987   22.3389 C   0  0  0  0  0  0
  -22.7828  -13.5262   21.1874 C   0  0  0  0  0  0
  -22.1651   -4.2193   21.0960 F   0  0  0  0  0  0
  -21.5637   -3.4520   25.7714 F   0  0  0  0  0  0
  -29.9967  -13.4137   20.4568 N   0  0  0  0  0  0
  -26.2902  -12.9367   20.3295 N   0  0  0  0  0  0
  -25.9261  -11.6518   20.5762 N   0  0  0  0  0  0
  -22.0409  -12.8290   22.0416 N   0  0  0  0  0  0
  -25.4232  -15.1902   20.4128 N   0  0  0  0  0  0
  -31.7995  -14.7065   20.0864 O   0  0  0  0  0  0
  -21.6621   -6.8904   21.4247 O   0  0  0  0  0  0
  -22.3557  -14.5568   20.6699 O   0  0  0  0  0  0
  -24.6211  -31.8640   23.2052 C   0  0  0  0  0  0
  -25.9078  -32.4794   23.8357 C   0  0  1  0  0  0
  -27.2283  -27.3526   20.1238 C   0  0  0  0  0  0
  -25.5931  -33.8590   24.2309 N   0  0  0  0  0  0
  -23.4120  -30.4867   21.5464 C   0  0  2  0  0  0
  -24.8616  -28.9514   20.1043 C   0  0  0  0  0  0
  -22.7442  -29.4633   22.4947 C   0  0  0  0  0  0
  -18.0280  -28.1364   22.8481 C   0  0  0  0  0  0
  -24.1496  -36.7290   23.2642 C   0  0  0  0  0  0
  -25.9477  -30.8123   21.3641 C   0  0  0  0  0  0
  -26.0267  -29.4411   20.7075 C   0  0  0  0  0  0
  -27.2122  -28.6526   20.7104 C   0  0  0  0  0  0
  -26.0401  -26.9056   19.5022 C   0  0  0  0  0  0
  -24.8701  -27.6875   19.4917 C   0  0  0  0  0  0
  -23.6221  -29.8212   20.1601 C   0  0  0  0  0  0
  -25.4124  -36.3091   24.0335 C   0  0  1  0  0  0
  -20.5876  -28.3662   23.1295 C   0  0  2  0  0  0
  -20.6754  -26.9388   22.5405 C   0  0  0  0  0  0
  -19.5733  -26.6376   21.5196 C   0  0  0  0  0  0
  -18.1923  -26.7911   22.1616 C   0  0  0  0  0  0
  -19.1527  -28.8828   23.2891 C   0  0  0  0  0  0
  -18.9444  -30.1434   23.8904 C   0  0  0  0  0  0
  -17.6442  -30.6563   24.0554 C   0  0  0  0  0  0
  -25.9052  -34.9460   23.5120 C   0  0  0  0  0  0
  -16.5341  -29.9061   23.6313 C   0  0  0  0  0  0
  -16.7263  -28.6478   23.0336 C   0  0  0  0  0  0
  -26.4501  -31.6572   25.0685 C   0  0  0  0  0  0
  -25.3766  -31.3663   26.1432 C   0  0  0  0  0  0
  -27.0326  -30.3007   24.6072 C   0  0  0  0  0  0
  -27.6087  -32.4280   25.7461 C   0  0  0  0  0  0
  -27.5570  -37.1810   24.8480 C   0  0  0  0  0  0
  -21.4161  -29.3036   22.3691 N   0  0  0  0  0  0
  -26.4301  -37.3765   23.9396 N   0  0  0  0  0  0
  -24.6789  -31.0697   22.0968 N   0  0  0  0  0  0
  -23.4190  -28.8180   23.3000 O   0  0  0  0  0  0
  -28.3257  -26.4900   20.2360 O   0  0  0  0  0  0
  -26.5587  -34.8916   22.4670 O   0  0  0  0  0  0
  -23.5384  -32.1396   23.7423 O   0  0  0  0  0  0
  -29.8313  -18.8365   22.0813 C   0  0  0  0  0  0
  -29.6050  -20.2803   21.9759 C   0  0  0  0  0  0
  -29.5727  -18.1380   20.9109 C   0  0  0  0  0  0
  -29.2339  -20.7139   20.7045 C   0  0  0  0  0  0
  -29.7585  -16.6969   20.5153 C   0  0  0  0  0  0
  -28.5395  -25.5262   19.2569 C   0  0  0  0  0  0
  -28.7909  -24.1712   19.3108 C   0  0  0  0  0  0
  -28.8766  -23.2651   20.4959 C   0  0  0  0  0  0
  -30.3547  -18.1614   23.3299 C   0  0  0  0  0  0
  -29.8175  -21.2276   23.1312 C   0  0  0  0  0  0
  -30.0636  -15.6726   21.2504 N   0  0  0  0  0  0
  -29.0622  -21.9585   20.1109 N   0  0  0  0  0  0
  -28.7713  -23.6270   21.6676 O   0  0  0  0  0  0
  -28.9780  -23.5889   18.1120 O   0  0  0  0  0  0
  -29.0623  -19.2847   19.6802 S   0  0  0  0  0  0
  -31.4589  -12.4910   19.1780 H   0  0  0  0  0  0
  -30.3346  -11.3993   19.9238 H   0  0  0  0  0  0
  -29.7789  -11.7563   17.5048 H   0  0  0  0  0  0
  -29.6332  -13.4820   17.7670 H   0  0  0  0  0  0
  -27.8914  -11.2765   18.9092 H   0  0  0  0  0  0
  -27.3687  -12.5241   17.8109 H   0  0  0  0  0  0
  -27.6609  -14.2464   19.5053 H   0  0  0  0  0  0
  -28.6666  -12.0993   21.4356 H   0  0  0  0  0  0
  -28.3983  -13.7758   21.8223 H   0  0  0  0  0  0
  -25.2740   -9.5721   22.4801 H   0  0  0  0  0  0
  -24.0008   -7.4640   22.7446 H   0  0  0  0  0  0
  -21.0860   -8.8816   19.8930 H   0  0  0  0  0  0
  -22.3706  -10.9720   19.6206 H   0  0  0  0  0  0
  -21.2005   -7.6154   23.9752 H   0  0  0  0  0  0
  -21.1494   -6.0500   25.9084 H   0  0  0  0  0  0
  -22.0585   -2.7627   23.2786 H   0  0  0  0  0  0
  -22.3964  -11.9964   22.4889 H   0  0  0  0  0  0
  -21.1024  -13.1384   22.2515 H   0  0  0  0  0  0
  -24.6611  -15.8485   20.5341 H   0  0  0  0  0  0
  -26.2862  -15.6333   20.1206 H   0  0  0  0  0  0
  -26.7145  -32.5480   23.1106 H   0  0  0  0  0  0
  -25.0101  -33.9742   25.0473 H   0  0  0  0  0  0
  -22.7024  -31.3054   21.4082 H   0  0  0  0  0  0
  -23.3729  -35.9644   23.3352 H   0  0  0  0  0  0
  -24.3568  -36.8844   22.2040 H   0  0  0  0  0  0
  -23.7281  -37.6527   23.6615 H   0  0  0  0  0  0
  -26.0647  -31.5790   20.5967 H   0  0  0  0  0  0
  -26.8326  -30.8683   21.9845 H   0  0  0  0  0  0
  -28.1043  -29.0246   21.1935 H   0  0  0  0  0  0
  -25.9931  -25.9243   19.0534 H   0  0  0  0  0  0
  -23.9738  -27.2998   19.0285 H   0  0  0  0  0  0
  -23.7252  -30.5980   19.4023 H   0  0  0  0  0  0
  -22.7441  -29.2436   19.8659 H   0  0  0  0  0  0
  -25.1307  -36.1957   25.0817 H   0  0  0  0  0  0
  -20.9979  -28.3229   24.1410 H   0  0  0  0  0  0
  -20.5632  -26.2274   23.3595 H   0  0  0  0  0  0
  -21.6632  -26.7404   22.1221 H   0  0  0  0  0  0
  -19.6897  -25.6296   21.1202 H   0  0  0  0  0  0
  -19.6672  -27.3200   20.6736 H   0  0  0  0  0  0
  -17.4193  -26.6647   21.4022 H   0  0  0  0  0  0
  -18.0333  -26.0045   22.9005 H   0  0  0  0  0  0
  -19.7919  -30.7236   24.2288 H   0  0  0  0  0  0
  -17.4995  -31.6241   24.5154 H   0  0  0  0  0  0
  -15.5341  -30.2960   23.7619 H   0  0  0  0  0  0
  -15.8667  -28.0793   22.7047 H   0  0  0  0  0  0
  -24.5989  -30.6947   25.7781 H   0  0  0  0  0  0
  -24.8884  -32.2790   26.4853 H   0  0  0  0  0  0
  -25.8130  -30.8872   27.0209 H   0  0  0  0  0  0
  -26.2846  -29.6755   24.1169 H   0  0  0  0  0  0
  -27.4144  -29.7263   25.4526 H   0  0  0  0  0  0
  -27.8675  -30.4309   23.9175 H   0  0  0  0  0  0
  -27.2728  -33.3603   26.2017 H   0  0  0  0  0  0
  -28.3911  -32.6794   25.0290 H   0  0  0  0  0  0
  -28.0722  -31.8390   26.5389 H   0  0  0  0  0  0
  -28.2658  -38.0038   24.7443 H   0  0  0  0  0  0
  -28.0996  -36.2569   24.6428 H   0  0  0  0  0  0
  -27.2260  -37.1612   25.8875 H   0  0  0  0  0  0
  -20.9311  -29.8778   21.6934 H   0  0  0  0  0  0
  -26.0198  -38.2851   24.1327 H   0  0  0  0  0  0
  -29.6360  -16.5359   19.4381 H   0  0  0  0  0  0
  -28.4899  -26.0147   18.2923 H   0  0  0  0  0  0
  -31.0461  -18.7890   23.8927 H   0  0  0  0  0  0
  -30.9230  -17.2624   23.1010 H   0  0  0  0  0  0
  -29.5488  -17.8631   24.0017 H   0  0  0  0  0  0
  -28.8698  -21.6258   23.4967 H   0  0  0  0  0  0
  -30.4467  -22.0669   22.8372 H   0  0  0  0  0  0
  -30.3092  -20.7724   23.9876 H   0  0  0  0  0  0
  -29.0740  -21.9357   19.0965 H   0  0  0  0  0  0
  -28.9357  -24.2704   17.4525 H   0  0  0  0  0  0
  1 25  1  0  0  0
  1 30  2  0  0  0
  1 81  1  0  0  0
  2  3  1  0  0  0
  2 25  1  0  0  0
  2 86  1  0  0  0
  2 87  1  0  0  0
  3  4  1  0  0  0
  3 88  1  0  0  0
  3 89  1  0  0  0
  4  5  1  0  0  0
  4 90  1  0  0  0
  4 91  1  0  0  0
  5  6  1  0  0  0
  5 26  1  0  0  0
  5 92  1  0  0  0
  6 25  1  0  0  0
  6 93  1  0  0  0
  6 94  1  0  0  0
  7  8  2  0  0  0
  7 26  1  0  0  0
  7 29  1  0  0  0
  8  9  1  0  0  0
  8 22  1  0  0  0
  9 10  1  0  0  0
  9 27  2  0  0  0
 10 11  2  0  0  0
 10 15  1  0  0  0
 11 12  1  0  0  0
 11 95  1  0  0  0
 12 13  2  0  0  0
 12 96  1  0  0  0
 13 14  1  0  0  0
 13 31  1  0  0  0
 14 15  2  0  0  0
 14 97  1  0  0  0
 15 98  1  0  0  0
 16 17  2  0  0  0
 16 21  1  0  0  0
 16 31  1  0  0  0
 17 18  1  0  0  0
 17 99  1  0  0  0
 18 19  2  0  0  0
 18100  1  0  0  0
 19 20  1  0  0  0
 19 24  1  0  0  0
 20 21  2  0  0  0
 20101  1  0  0  0
 21 23  1  0  0  0
 22 28  1  0  0  0
 22 32  2  0  0  0
 26 27  1  0  0  0
 28102  1  0  0  0
 28103  1  0  0  0
 29104  1  0  0  0
 29105  1  0  0  0
 33 34  1  0  0  0
 33 66  1  0  0  0
 33 70  2  0  0  0
 34 36  1  0  0  0
 34 59  1  0  0  0
 34106  1  0  0  0
 35 44  2  0  0  0
 35 45  1  0  0  0
 35 68  1  0  0  0
 36 56  1  0  0  0
 36107  1  0  0  0
 37 39  1  0  0  0
 37 47  1  0  0  0
 37 66  1  0  0  0
 37108  1  0  0  0
 38 43  2  0  0  0
 38 46  1  0  0  0
 38 47  1  0  0  0
 39 64  1  0  0  0
 39 67  2  0  0  0
 40 52  1  0  0  0
 40 53  2  0  0  0
 40 58  1  0  0  0
 41109  1  0  0  0
 41110  1  0  0  0
 41111  1  0  0  0
 41 48  1  0  0  0
 42 43  1  0  0  0
 42 66  1  0  0  0
 42112  1  0  0  0
 42113  1  0  0  0
 43 44  1  0  0  0
 44114  1  0  0  0
 45 46  2  0  0  0
 45115  1  0  0  0
 46116  1  0  0  0
 47117  1  0  0  0
 47118  1  0  0  0
 48 56  1  0  0  0
 48 65  1  0  0  0
 48119  1  0  0  0
 49 50  1  0  0  0
 49 53  1  0  0  0
 49 64  1  0  0  0
 49120  1  0  0  0
 50 51  1  0  0  0
 50121  1  0  0  0
 50122  1  0  0  0
 51 52  1  0  0  0
 51123  1  0  0  0
 51124  1  0  0  0
 52125  1  0  0  0
 52126  1  0  0  0
 53 54  1  0  0  0
 54 55  2  0  0  0
 54127  1  0  0  0
 55 57  1  0  0  0
 55128  1  0  0  0
 56 69  2  0  0  0
 57 58  2  0  0  0
 57129  1  0  0  0
 58130  1  0  0  0
 59 60  1  0  0  0
 59 61  1  0  0  0
 59 62  1  0  0  0
 60131  1  0  0  0
 60132  1  0  0  0
 60133  1  0  0  0
 61134  1  0  0  0
 61135  1  0  0  0
 61136  1  0  0  0
 62137  1  0  0  0
 62138  1  0  0  0
 62139  1  0  0  0
 63 65  1  0  0  0
 63140  1  0  0  0
 63141  1  0  0  0
 63142  1  0  0  0
 64143  1  0  0  0
 65144  1  0  0  0
 68 76  1  0  0  0
 71 72  1  0  0  0
 71 73  2  0  0  0
 71 79  1  0  0  0
 72 74  2  0  0  0
 72 80  1  0  0  0
 73 75  1  0  0  0
 73 85  1  0  0  0
 74 82  1  0  0  0
 74 85  1  0  0  0
 75 81  2  0  0  0
 75145  1  0  0  0
 76 77  2  0  0  0
 76146  1  0  0  0
 77 78  1  0  0  0
 77 84  1  0  0  0
 78 82  1  0  0  0
 78 83  2  0  0  0
 79147  1  0  0  0
 79148  1  0  0  0
 79149  1  0  0  0
 80150  1  0  0  0
 80151  1  0  0  0
 80152  1  0  0  0
 82153  1  0  0  0
 84154  1  0  0  0
M  ISO  4   1 100  68 101  76 101  81 100
M  END
> <chiral flag>
0

> <version>
0

> <s_m_source_file>
/data/baiqing/PycharmProjects/Reinvent-master-3.2/result/LINK_invent/BTK/process_docking_weight1_custom_product_contain_oxygen_bond_distance_aromatic_linkinvent_7_9_3/rearranged_h_0179.sdf

> <i_m_source_file_index>
88

> <r_mmod_Potential_Energy-OPLS-2005>
21.2382621765137

> <r_mmod_Stretch_Energy-OPLS-2005>
68.4971542358398

> <r_mmod_Bend_Energy-OPLS-2005>
180.872253417969

> <r_mmod_Torsional_Energy-OPLS-2005>
186.68815612793

> <r_mmod_Improper_Torsional_Energy-OPLS-2005>
2.98194766044617

> <r_mmod_Van_der_Waal_Energy-OPLS-2005>
141.684112548828

> <r_mmod_Electrostatic_Energy-OPLS-2005>
-391.014526367188

> <r_mmod_Solvation_Energy-OPLS-2005>
-208.593643188477

> <b_mmod_Minimization_Converged-OPLS-2005>
0

> <r_mmod_RMS_Derivative-OPLS-2005>
4.21085071563721

$$$$
88
                    3D
 Structure written by MMmdl.
146154  0  0  1  0            999 V2000
  -30.5632  -14.8156   20.4522 C   0  0  0  0  0  0
  -30.4464  -12.4985   19.4829 C   0  0  0  0  0  0
  -29.5194  -12.5202   18.2450 C   0  0  0  0  0  0
  -28.0468  -12.3288   18.6580 C   0  0  0  0  0  0
  -27.6438  -13.2320   19.8531 C   0  0  2  0  0  0
  -28.6882  -13.1739   20.9900 C   0  0  0  0  0  0
  -25.2524  -13.8193   20.5698 C   0  0  0  0  0  0
  -24.1812  -13.0440   20.9207 C   0  0  0  0  0  0
  -24.6401  -11.6917   20.8744 C   0  0  0  0  0  0
  -23.9074  -10.4294   21.0403 C   0  0  0  0  0  0
  -24.3622   -9.4209   21.9181 C   0  0  0  0  0  0
  -23.6295   -8.2245   22.0754 C   0  0  0  0  0  0
  -22.4276   -8.0283   21.3546 C   0  0  0  0  0  0
  -21.9913   -9.0257   20.4648 C   0  0  0  0  0  0
  -22.7244  -10.2135   20.3055 C   0  0  0  0  0  0
  -21.6855   -6.0735   22.5278 C   0  0  0  0  0  0
  -21.4015   -6.5639   23.8212 C   0  0  0  0  0  0
  -21.3660   -5.6792   24.9174 C   0  0  0  0  0  0
  -21.6043   -4.3055   24.7225 C   0  0  0  0  0  0
  -21.8819   -3.8147   23.4347 C   0  0  0  0  0  0
  -21.9193   -4.6963   22.3403 C   0  0  0  0  0  0
  -22.7832  -13.5223   21.1865 C   0  0  0  0  0  0
  -22.1662   -4.2148   21.0981 F   0  0  0  0  0  0
  -21.5628   -3.4539   25.7739 F   0  0  0  0  0  0
  -29.9852  -13.5588   20.4142 N   0  0  0  0  0  0
  -26.2951  -12.9396   20.3285 N   0  0  0  0  0  0
  -25.9333  -11.6540   20.5747 N   0  0  0  0  0  0
  -22.0476  -12.8214   22.0421 N   0  0  0  0  0  0
  -25.4218  -15.1918   20.4118 N   0  0  0  0  0  0
  -31.7404  -14.9448   20.1050 O   0  0  0  0  0  0
  -21.6642   -6.8879   21.4241 O   0  0  0  0  0  0
  -22.3517  -14.5530   20.6713 O   0  0  0  0  0  0
  -24.6363  -31.8511   23.1950 C   0  0  0  0  0  0
  -25.9164  -32.4735   23.8316 C   0  0  1  0  0  0
  -27.2225  -27.2232   20.1365 C   0  0  0  0  0  0
  -25.5939  -33.8538   24.2234 N   0  0  0  0  0  0
  -23.4375  -30.4721   21.5383 C   0  0  2  0  0  0
  -24.8906  -28.9164   20.1063 C   0  0  0  0  0  0
  -22.7540  -29.4577   22.4882 C   0  0  0  0  0  0
  -18.0301  -28.1394   22.8481 C   0  0  0  0  0  0
  -24.1490  -36.7275   23.2641 C   0  0  0  0  0  0
  -25.9878  -30.7514   21.3838 C   0  0  0  0  0  0
  -26.0644  -29.3710   20.7241 C   0  0  0  0  0  0
  -27.2363  -28.5363   20.7314 C   0  0  0  0  0  0
  -26.0311  -26.8524   19.4792 C   0  0  0  0  0  0
  -24.8814  -27.6662   19.4701 C   0  0  0  0  0  0
  -23.6610  -29.8060   20.1551 C   0  0  0  0  0  0
  -25.4119  -36.3057   24.0322 C   0  0  1  0  0  0
  -20.5910  -28.3713   23.1250 C   0  0  2  0  0  0
  -20.6786  -26.9423   22.5407 C   0  0  0  0  0  0
  -19.5760  -26.6384   21.5214 C   0  0  0  0  0  0
  -18.1941  -26.7935   22.1625 C   0  0  0  0  0  0
  -19.1556  -28.8872   23.2859 C   0  0  0  0  0  0
  -18.9473  -30.1470   23.8882 C   0  0  0  0  0  0
  -17.6469  -30.6591   24.0563 C   0  0  0  0  0  0
  -25.9062  -34.9428   23.5083 C   0  0  0  0  0  0
  -16.5361  -29.9086   23.6335 C   0  0  0  0  0  0
  -16.7286  -28.6505   23.0354 C   0  0  0  0  0  0
  -26.4513  -31.6576   25.0726 C   0  0  0  0  0  0
  -25.3717  -31.3743   26.1434 C   0  0  0  0  0  0
  -27.0370  -30.2983   24.6254 C   0  0  0  0  0  0
  -27.6056  -32.4329   25.7503 C   0  0  0  0  0  0
  -27.5576  -37.1797   24.8468 C   0  0  0  0  0  0
  -21.4239  -29.3048   22.3628 N   0  0  0  0  0  0
  -26.4292  -37.3759   23.9404 N   0  0  0  0  0  0
  -24.7062  -31.0435   22.0950 N   0  0  0  0  0  0
  -23.4214  -28.8119   23.3003 O   0  0  0  0  0  0
  -28.2304  -26.2188   20.2137 O   0  0  0  0  0  0
  -26.5641  -34.8909   22.4657 O   0  0  0  0  0  0
  -23.5497  -32.1349   23.7212 O   0  0  0  0  0  0
  -30.6540  -18.1469   19.8395 C   0  0  0  0  0  0
  -29.8062  -17.3144   20.5688 C   0  0  0  0  0  0
  -29.3100  -19.9389   20.5499 C   0  0  0  0  0  0
  -27.8602  -25.0514   20.9595 C   0  0  0  0  0  0
  -28.1053  -23.6632   21.0474 C   0  0  0  0  0  0
  -28.9734  -22.6400   20.3202 C   0  0  0  0  0  0
  -30.3853  -19.5624   19.8286 N   0  0  0  0  0  0
  -29.7401  -15.9045   20.7525 N   0  0  0  0  0  0
  -28.7858  -21.3279   20.7810 N   0  0  0  0  0  0
  -29.7637  -22.9138   19.4152 O   0  0  0  0  0  0
  -27.3816  -23.0914   22.0297 O   0  0  0  0  0  0
  -31.6607  -17.6688   19.1473 F   0  0  0  0  0  0
  -28.5953  -18.4401   21.2815 S   0  0  0  0  0  0
  -31.4833  -12.6466   19.1765 H   0  0  0  0  0  0
  -30.4169  -11.5233   19.9715 H   0  0  0  0  0  0
  -29.8137  -11.7426   17.5387 H   0  0  0  0  0  0
  -29.6320  -13.4695   17.7190 H   0  0  0  0  0  0
  -27.9159  -11.2807   18.9297 H   0  0  0  0  0  0
  -27.3877  -12.5067   17.8076 H   0  0  0  0  0  0
  -27.6343  -14.2515   19.4669 H   0  0  0  0  0  0
  -28.7402  -12.1721   21.4188 H   0  0  0  0  0  0
  -28.4071  -13.8381   21.8086 H   0  0  0  0  0  0
  -25.2766   -9.5683   22.4758 H   0  0  0  0  0  0
  -24.0003   -7.4636   22.7474 H   0  0  0  0  0  0
  -21.0843   -8.8777   19.8954 H   0  0  0  0  0  0
  -22.3701  -10.9674   19.6166 H   0  0  0  0  0  0
  -21.2008   -7.6147   23.9714 H   0  0  0  0  0  0
  -21.1481   -6.0523   25.9077 H   0  0  0  0  0  0
  -22.0597   -2.7609   23.2849 H   0  0  0  0  0  0
  -22.4096  -11.9879   22.4813 H   0  0  0  0  0  0
  -21.1094  -13.1238   22.2625 H   0  0  0  0  0  0
  -24.6503  -15.8418   20.5171 H   0  0  0  0  0  0
  -26.2611  -15.6312   20.0565 H   0  0  0  0  0  0
  -26.7234  -32.5376   23.1058 H   0  0  0  0  0  0
  -25.0072  -33.9667   25.0370 H   0  0  0  0  0  0
  -22.7364  -31.2958   21.3893 H   0  0  0  0  0  0
  -23.3749  -35.9611   23.3310 H   0  0  0  0  0  0
  -24.3575  -36.8894   22.2054 H   0  0  0  0  0  0
  -23.7249  -37.6477   23.6667 H   0  0  0  0  0  0
  -26.1337  -31.5110   20.6146 H   0  0  0  0  0  0
  -26.8616  -30.8005   22.0218 H   0  0  0  0  0  0
  -28.1275  -28.8691   21.2445 H   0  0  0  0  0  0
  -25.9747  -25.8819   19.0059 H   0  0  0  0  0  0
  -23.9848  -27.3116   18.9804 H   0  0  0  0  0  0
  -23.7876  -30.5829   19.4003 H   0  0  0  0  0  0
  -22.7793  -29.2410   19.8474 H   0  0  0  0  0  0
  -25.1306  -36.1901   25.0815 H   0  0  0  0  0  0
  -21.0004  -28.3301   24.1370 H   0  0  0  0  0  0
  -20.5684  -26.2326   23.3619 H   0  0  0  0  0  0
  -21.6653  -26.7440   22.1202 H   0  0  0  0  0  0
  -19.6920  -25.6292   21.1254 H   0  0  0  0  0  0
  -19.6695  -27.3186   20.6737 H   0  0  0  0  0  0
  -17.4210  -26.6680   21.4028 H   0  0  0  0  0  0
  -18.0342  -26.0082   22.9026 H   0  0  0  0  0  0
  -19.7948  -30.7294   24.2241 H   0  0  0  0  0  0
  -17.5022  -31.6269   24.5169 H   0  0  0  0  0  0
  -15.5360  -30.2981   23.7668 H   0  0  0  0  0  0
  -15.8687  -28.0820   22.7076 H   0  0  0  0  0  0
  -24.5901  -30.7083   25.7756 H   0  0  0  0  0  0
  -24.8898  -32.2918   26.4824 H   0  0  0  0  0  0
  -25.8018  -30.8943   27.0233 H   0  0  0  0  0  0
  -26.2972  -29.6717   24.1258 H   0  0  0  0  0  0
  -27.4004  -29.7265   25.4802 H   0  0  0  0  0  0
  -27.8870  -30.4236   23.9544 H   0  0  0  0  0  0
  -27.2659  -33.3639   26.2052 H   0  0  0  0  0  0
  -28.3882  -32.6871   25.0342 H   0  0  0  0  0  0
  -28.0709  -31.8473   26.5442 H   0  0  0  0  0  0
  -28.2605  -38.0082   24.7497 H   0  0  0  0  0  0
  -28.1061  -36.2612   24.6320 H   0  0  0  0  0  0
  -27.2292  -37.1478   25.8871 H   0  0  0  0  0  0
  -20.9438  -29.8762   21.6816 H   0  0  0  0  0  0
  -26.0168  -38.2834   24.1393 H   0  0  0  0  0  0
  -27.1503  -25.4070   21.6961 H   0  0  0  0  0  0
  -28.8547  -15.5968   21.1238 H   0  0  0  0  0  0
  -28.0641  -21.3576   21.4906 H   0  0  0  0  0  0
  -26.8677  -23.7712   22.4452 H   0  0  0  0  0  0
  1 25  1  0  0  0
  1 30  2  0  0  0
  1 78  1  0  0  0
  2  3  1  0  0  0
  2 25  1  0  0  0
  2 84  1  0  0  0
  2 85  1  0  0  0
  3  4  1  0  0  0
  3 86  1  0  0  0
  3 87  1  0  0  0
  4  5  1  0  0  0
  4 88  1  0  0  0
  4 89  1  0  0  0
  5  6  1  0  0  0
  5 26  1  0  0  0
  5 90  1  0  0  0
  6 25  1  0  0  0
  6 91  1  0  0  0
  6 92  1  0  0  0
  7  8  2  0  0  0
  7 26  1  0  0  0
  7 29  1  0  0  0
  8  9  1  0  0  0
  8 22  1  0  0  0
  9 10  1  0  0  0
  9 27  2  0  0  0
 10 11  2  0  0  0
 10 15  1  0  0  0
 11 12  1  0  0  0
 11 93  1  0  0  0
 12 13  2  0  0  0
 12 94  1  0  0  0
 13 14  1  0  0  0
 13 31  1  0  0  0
 14 15  2  0  0  0
 14 95  1  0  0  0
 15 96  1  0  0  0
 16 17  2  0  0  0
 16 21  1  0  0  0
 16 31  1  0  0  0
 17 18  1  0  0  0
 17 97  1  0  0  0
 18 19  2  0  0  0
 18 98  1  0  0  0
 19 20  1  0  0  0
 19 24  1  0  0  0
 20 21  2  0  0  0
 20 99  1  0  0  0
 21 23  1  0  0  0
 22 28  1  0  0  0
 22 32  2  0  0  0
 26 27  1  0  0  0
 28100  1  0  0  0
 28101  1  0  0  0
 29102  1  0  0  0
 29103  1  0  0  0
 33 34  1  0  0  0
 33 66  1  0  0  0
 33 70  2  0  0  0
 34 36  1  0  0  0
 34 59  1  0  0  0
 34104  1  0  0  0
 35 44  2  0  0  0
 35 45  1  0  0  0
 35 68  1  0  0  0
 36 56  1  0  0  0
 36105  1  0  0  0
 37 39  1  0  0  0
 37 47  1  0  0  0
 37 66  1  0  0  0
 37106  1  0  0  0
 38 43  2  0  0  0
 38 46  1  0  0  0
 38 47  1  0  0  0
 39 64  1  0  0  0
 39 67  2  0  0  0
 40 52  1  0  0  0
 40 53  2  0  0  0
 40 58  1  0  0  0
 41107  1  0  0  0
 41108  1  0  0  0
 41109  1  0  0  0
 41 48  1  0  0  0
 42 43  1  0  0  0
 42 66  1  0  0  0
 42110  1  0  0  0
 42111  1  0  0  0
 43 44  1  0  0  0
 44112  1  0  0  0
 45 46  2  0  0  0
 45113  1  0  0  0
 46114  1  0  0  0
 47115  1  0  0  0
 47116  1  0  0  0
 48 56  1  0  0  0
 48 65  1  0  0  0
 48117  1  0  0  0
 49 50  1  0  0  0
 49 53  1  0  0  0
 49 64  1  0  0  0
 49118  1  0  0  0
 50 51  1  0  0  0
 50119  1  0  0  0
 50120  1  0  0  0
 51 52  1  0  0  0
 51121  1  0  0  0
 51122  1  0  0  0
 52123  1  0  0  0
 52124  1  0  0  0
 53 54  1  0  0  0
 54 55  2  0  0  0
 54125  1  0  0  0
 55 57  1  0  0  0
 55126  1  0  0  0
 56 69  2  0  0  0
 57 58  2  0  0  0
 57127  1  0  0  0
 58128  1  0  0  0
 59 60  1  0  0  0
 59 61  1  0  0  0
 59 62  1  0  0  0
 60129  1  0  0  0
 60130  1  0  0  0
 60131  1  0  0  0
 61132  1  0  0  0
 61133  1  0  0  0
 61134  1  0  0  0
 62135  1  0  0  0
 62136  1  0  0  0
 62137  1  0  0  0
 63 65  1  0  0  0
 63138  1  0  0  0
 63139  1  0  0  0
 63140  1  0  0  0
 64141  1  0  0  0
 65142  1  0  0  0
 68 74  1  0  0  0
 71 72  2  0  0  0
 71 77  1  0  0  0
 71 82  1  0  0  0
 72 78  1  0  0  0
 72 83  1  0  0  0
 73 77  2  0  0  0
 73 79  1  0  0  0
 73 83  1  0  0  0
 74 75  2  0  0  0
 74143  1  0  0  0
 75 76  1  0  0  0
 75 81  1  0  0  0
 76 79  1  0  0  0
 76 80  2  0  0  0
 78144  1  0  0  0
 79145  1  0  0  0
 81146  1  0  0  0
M  ISO  4   1 100  68 101  74 101  78 100
M  END
> <chiral flag>
0

> <version>
0

> <s_m_source_file>
/data/baiqing/PycharmProjects/Reinvent-master-3.2/result/LINK_invent/BTK/process_docking_weight1_custom_product_contain_oxygen_bond_distance_aromatic_linkinvent_7_9_3/rearranged_h_0179.sdf

> <i_m_source_file_index>
89

> <r_mmod_Potential_Energy-OPLS-2005>
173.10285949707

> <r_mmod_Stretch_Energy-OPLS-2005>
138.74739074707

> <r_mmod_Bend_Energy-OPLS-2005>
277.188262939453

> <r_mmod_Torsional_Energy-OPLS-2005>
211.067138671875

> <r_mmod_Improper_Torsional_Energy-OPLS-2005>
3.68532681465149

> <r_mmod_Van_der_Waal_Energy-OPLS-2005>
123.981216430664

> <r_mmod_Electrostatic_Energy-OPLS-2005>
-449.121704101562

> <r_mmod_Solvation_Energy-OPLS-2005>
-257.974975585938

> <b_mmod_Minimization_Converged-OPLS-2005>
0

> <r_mmod_RMS_Derivative-OPLS-2005>
0.295644760131836

$$$$
89
                    3D
 Structure written by MMmdl.
157165  0  0  1  0            999 V2000
  -30.7116  -14.5540   20.4853 C   0  0  0  0  0  0
  -30.4045  -12.3342   19.4552 C   0  0  0  0  0  0
  -29.4941  -12.4861   18.2206 C   0  0  0  0  0  0
  -28.0169  -12.3451   18.6318 C   0  0  0  0  0  0
  -27.6474  -13.2238   19.8580 C   0  0  2  0  0  0
  -28.6908  -13.1025   20.9918 C   0  0  0  0  0  0
  -25.2529  -13.8198   20.5691 C   0  0  0  0  0  0
  -24.1811  -13.0448   20.9204 C   0  0  0  0  0  0
  -24.6390  -11.6924   20.8755 C   0  0  0  0  0  0
  -23.9071  -10.4298   21.0413 C   0  0  0  0  0  0
  -24.3624   -9.4209   21.9185 C   0  0  0  0  0  0
  -23.6300   -8.2245   22.0752 C   0  0  0  0  0  0
  -22.4282   -8.0283   21.3544 C   0  0  0  0  0  0
  -21.9916   -9.0259   20.4647 C   0  0  0  0  0  0
  -22.7247  -10.2137   20.3057 C   0  0  0  0  0  0
  -21.6852   -6.0741   22.5280 C   0  0  0  0  0  0
  -21.4018   -6.5643   23.8216 C   0  0  0  0  0  0
  -21.3660   -5.6793   24.9175 C   0  0  0  0  0  0
  -21.6042   -4.3056   24.7226 C   0  0  0  0  0  0
  -21.8818   -3.8151   23.4345 C   0  0  0  0  0  0
  -21.9195   -4.6970   22.3402 C   0  0  0  0  0  0
  -22.7833  -13.5233   21.1862 C   0  0  0  0  0  0
  -22.1660   -4.2156   21.0980 F   0  0  0  0  0  0
  -21.5627   -3.4537   25.7737 F   0  0  0  0  0  0
  -30.0124  -13.3823   20.4176 N   0  0  0  0  0  0
  -26.2959  -12.9395   20.3316 N   0  0  0  0  0  0
  -25.9318  -11.6543   20.5775 N   0  0  0  0  0  0
  -22.0481  -12.8225   22.0419 N   0  0  0  0  0  0
  -25.4227  -15.1919   20.4093 N   0  0  0  0  0  0
  -31.9005  -14.5743   20.1575 O   0  0  0  0  0  0
  -21.6641   -6.8884   21.4242 O   0  0  0  0  0  0
  -22.3519  -14.5540   20.6708 O   0  0  0  0  0  0
  -24.6181  -31.8645   23.2066 C   0  0  0  0  0  0
  -25.9060  -32.4801   23.8371 C   0  0  1  0  0  0
  -27.2244  -27.3851   20.1025 C   0  0  0  0  0  0
  -25.5901  -33.8602   24.2299 N   0  0  0  0  0  0
  -23.4072  -30.4885   21.5480 C   0  0  2  0  0  0
  -24.8508  -28.9499   20.1100 C   0  0  0  0  0  0
  -22.7424  -29.4643   22.4967 C   0  0  0  0  0  0
  -18.0272  -28.1383   22.8495 C   0  0  0  0  0  0
  -24.1485  -36.7313   23.2639 C   0  0  0  0  0  0
  -25.9405  -30.8145   21.3667 C   0  0  0  0  0  0
  -26.0130  -29.4460   20.7123 C   0  0  0  0  0  0
  -27.1998  -28.6708   20.7053 C   0  0  0  0  0  0
  -26.0408  -26.9182   19.4862 C   0  0  0  0  0  0
  -24.8624  -27.6882   19.4924 C   0  0  0  0  0  0
  -23.6166  -29.8239   20.1612 C   0  0  0  0  0  0
  -25.4107  -36.3100   24.0332 C   0  0  1  0  0  0
  -20.5867  -28.3671   23.1314 C   0  0  2  0  0  0
  -20.6766  -26.9403   22.5422 C   0  0  0  0  0  0
  -19.5744  -26.6389   21.5218 C   0  0  0  0  0  0
  -18.1922  -26.7929   22.1626 C   0  0  0  0  0  0
  -19.1524  -28.8844   23.2901 C   0  0  0  0  0  0
  -18.9447  -30.1450   23.8911 C   0  0  0  0  0  0
  -17.6448  -30.6586   24.0568 C   0  0  0  0  0  0
  -25.9040  -34.9466   23.5118 C   0  0  0  0  0  0
  -16.5340  -29.9088   23.6329 C   0  0  0  0  0  0
  -16.7258  -28.6507   23.0346 C   0  0  0  0  0  0
  -26.4474  -31.6590   25.0714 C   0  0  0  0  0  0
  -25.3733  -31.3712   26.1460 C   0  0  0  0  0  0
  -27.0304  -30.3023   24.6120 C   0  0  0  0  0  0
  -27.6046  -32.4312   25.7478 C   0  0  0  0  0  0
  -27.5579  -37.1809   24.8463 C   0  0  0  0  0  0
  -21.4148  -29.3031   22.3713 N   0  0  0  0  0  0
  -26.4292  -37.3788   23.9408 N   0  0  0  0  0  0
  -24.6739  -31.0713   22.0983 N   0  0  0  0  0  0
  -23.4182  -28.8186   23.3018 O   0  0  0  0  0  0
  -28.3866  -26.6272   20.1559 O   0  0  0  0  0  0
  -26.5607  -34.8927   22.4683 O   0  0  0  0  0  0
  -23.5366  -32.1412   23.7441 O   0  0  0  0  0  0
  -29.5768  -18.1750   20.8220 C   0  0  0  0  0  0
  -31.2722  -19.7282   20.0109 C   0  0  0  0  0  0
  -29.9802  -19.5263   20.5671 C   0  0  0  0  0  0
  -30.4233  -17.0742   20.4727 C   0  0  0  0  0  0
  -32.0205  -18.5941   19.6565 C   0  0  0  0  0  0
  -28.4900  -23.0195   21.0022 C   0  0  0  0  0  0
  -28.7775  -21.7014   20.1901 C   0  0  0  0  0  0
  -31.8668  -21.1256   19.8235 C   0  0  0  0  0  0
  -27.6550  -24.1538   20.3461 C   0  0  0  0  0  0
  -28.4374  -25.2861   19.5983 C   0  0  0  0  0  0
  -31.6089  -17.3425   19.8732 N   0  0  0  0  0  0
  -33.2707  -18.6915   19.0654 N   0  0  0  0  0  0
  -29.1811  -20.6590   20.9648 N   0  0  0  0  0  0
  -30.0117  -15.7022   20.7371 N   0  0  0  0  0  0
  -28.9069  -23.1562   22.1587 O   0  0  0  0  0  0
  -28.6374  -21.6432   18.9629 O   0  0  0  0  0  0
  -31.4528  -12.3961   19.1586 H   0  0  0  0  0  0
  -30.2836  -11.3472   19.9038 H   0  0  0  0  0  0
  -29.7465  -11.7356   17.4705 H   0  0  0  0  0  0
  -29.6585  -13.4573   17.7517 H   0  0  0  0  0  0
  -27.8432  -11.2940   18.8652 H   0  0  0  0  0  0
  -27.3649  -12.5795   17.7895 H   0  0  0  0  0  0
  -27.6617  -14.2561   19.5078 H   0  0  0  0  0  0
  -28.6773  -12.1006   21.4231 H   0  0  0  0  0  0
  -28.4577  -13.7869   21.8090 H   0  0  0  0  0  0
  -25.2768   -9.5686   22.4760 H   0  0  0  0  0  0
  -24.0011   -7.4634   22.7466 H   0  0  0  0  0  0
  -21.0848   -8.8781   19.8952 H   0  0  0  0  0  0
  -22.3706  -10.9679   19.6169 H   0  0  0  0  0  0
  -21.2009   -7.6151   23.9724 H   0  0  0  0  0  0
  -21.1481   -6.0520   25.9080 H   0  0  0  0  0  0
  -22.0598   -2.7616   23.2843 H   0  0  0  0  0  0
  -22.4097  -11.9883   22.4804 H   0  0  0  0  0  0
  -21.1096  -13.1248   22.2623 H   0  0  0  0  0  0
  -24.6519  -15.8433   20.5108 H   0  0  0  0  0  0
  -26.2667  -15.6318   20.0654 H   0  0  0  0  0  0
  -26.7125  -32.5488   23.1124 H   0  0  0  0  0  0
  -25.0046  -33.9763   25.0440 H   0  0  0  0  0  0
  -22.6972  -31.3064   21.4095 H   0  0  0  0  0  0
  -23.3742  -35.9651   23.3305 H   0  0  0  0  0  0
  -24.3583  -36.8929   22.2054 H   0  0  0  0  0  0
  -23.7245  -37.6523   23.6652 H   0  0  0  0  0  0
  -26.0603  -31.5788   20.5975 H   0  0  0  0  0  0
  -26.8267  -30.8658   21.9875 H   0  0  0  0  0  0
  -28.0945  -29.0486   21.1800 H   0  0  0  0  0  0
  -25.9998  -25.9533   19.0035 H   0  0  0  0  0  0
  -23.9689  -27.3024   19.0203 H   0  0  0  0  0  0
  -23.7292  -30.6011   19.4043 H   0  0  0  0  0  0
  -22.7380  -29.2489   19.8630 H   0  0  0  0  0  0
  -25.1285  -36.1964   25.0824 H   0  0  0  0  0  0
  -20.9952  -28.3230   24.1437 H   0  0  0  0  0  0
  -20.5676  -26.2274   23.3609 H   0  0  0  0  0  0
  -21.6637  -26.7448   22.1210 H   0  0  0  0  0  0
  -19.6905  -25.6304   21.1238 H   0  0  0  0  0  0
  -19.6685  -27.3213   20.6761 H   0  0  0  0  0  0
  -17.4195  -26.6681   21.4024 H   0  0  0  0  0  0
  -18.0312  -26.0069   22.9020 H   0  0  0  0  0  0
  -19.7921  -30.7264   24.2288 H   0  0  0  0  0  0
  -17.5003  -31.6268   24.5166 H   0  0  0  0  0  0
  -15.5345  -30.2994   23.7650 H   0  0  0  0  0  0
  -15.8657  -28.0837   22.7047 H   0  0  0  0  0  0
  -24.5901  -30.7061   25.7803 H   0  0  0  0  0  0
  -24.8931  -32.2876   26.4900 H   0  0  0  0  0  0
  -25.8082  -30.8886   27.0221 H   0  0  0  0  0  0
  -26.2856  -29.6787   24.1160 H   0  0  0  0  0  0
  -27.4046  -29.7259   25.4593 H   0  0  0  0  0  0
  -27.8704  -30.4333   23.9293 H   0  0  0  0  0  0
  -27.2658  -33.3600   26.2081 H   0  0  0  0  0  0
  -28.3841  -32.6894   25.0298 H   0  0  0  0  0  0
  -28.0728  -31.8422   26.5375 H   0  0  0  0  0  0
  -28.2601  -38.0103   24.7506 H   0  0  0  0  0  0
  -28.1070  -36.2637   24.6285 H   0  0  0  0  0  0
  -27.2302  -37.1459   25.8868 H   0  0  0  0  0  0
  -20.9302  -29.8754   21.6942 H   0  0  0  0  0  0
  -26.0177  -38.2867   24.1401 H   0  0  0  0  0  0
  -28.6206  -17.9882   21.2913 H   0  0  0  0  0  0
  -31.5863  -21.7916   20.6390 H   0  0  0  0  0  0
  -31.5288  -21.5607   18.8829 H   0  0  0  0  0  0
  -32.9558  -21.1167   19.8160 H   0  0  0  0  0  0
  -27.0254  -24.5940   21.1185 H   0  0  0  0  0  0
  -26.9668  -23.6823   19.6445 H   0  0  0  0  0  0
  -28.1253  -25.3203   18.5537 H   0  0  0  0  0  0
  -29.4931  -25.0159   19.5515 H   0  0  0  0  0  0
  -33.5676  -19.5717   18.6631 H   0  0  0  0  0  0
  -33.6863  -17.8681   18.6466 H   0  0  0  0  0  0
  -29.1083  -20.8336   21.9584 H   0  0  0  0  0  0
  -29.0606  -15.5737   21.0410 H   0  0  0  0  0  0
  1 25  1  0  0  0
  1 30  2  0  0  0
  1 84  1  0  0  0
  2  3  1  0  0  0
  2 25  1  0  0  0
  2 87  1  0  0  0
  2 88  1  0  0  0
  3  4  1  0  0  0
  3 89  1  0  0  0
  3 90  1  0  0  0
  4  5  1  0  0  0
  4 91  1  0  0  0
  4 92  1  0  0  0
  5  6  1  0  0  0
  5 26  1  0  0  0
  5 93  1  0  0  0
  6 25  1  0  0  0
  6 94  1  0  0  0
  6 95  1  0  0  0
  7  8  2  0  0  0
  7 26  1  0  0  0
  7 29  1  0  0  0
  8  9  1  0  0  0
  8 22  1  0  0  0
  9 10  1  0  0  0
  9 27  2  0  0  0
 10 11  2  0  0  0
 10 15  1  0  0  0
 11 12  1  0  0  0
 11 96  1  0  0  0
 12 13  2  0  0  0
 12 97  1  0  0  0
 13 14  1  0  0  0
 13 31  1  0  0  0
 14 15  2  0  0  0
 14 98  1  0  0  0
 15 99  1  0  0  0
 16 17  2  0  0  0
 16 21  1  0  0  0
 16 31  1  0  0  0
 17 18  1  0  0  0
 17100  1  0  0  0
 18 19  2  0  0  0
 18101  1  0  0  0
 19 20  1  0  0  0
 19 24  1  0  0  0
 20 21  2  0  0  0
 20102  1  0  0  0
 21 23  1  0  0  0
 22 28  1  0  0  0
 22 32  2  0  0  0
 26 27  1  0  0  0
 28103  1  0  0  0
 28104  1  0  0  0
 29105  1  0  0  0
 29106  1  0  0  0
 33 34  1  0  0  0
 33 66  1  0  0  0
 33 70  2  0  0  0
 34 36  1  0  0  0
 34 59  1  0  0  0
 34107  1  0  0  0
 35 44  2  0  0  0
 35 45  1  0  0  0
 35 68  1  0  0  0
 36 56  1  0  0  0
 36108  1  0  0  0
 37 39  1  0  0  0
 37 47  1  0  0  0
 37 66  1  0  0  0
 37109  1  0  0  0
 38 43  2  0  0  0
 38 46  1  0  0  0
 38 47  1  0  0  0
 39 64  1  0  0  0
 39 67  2  0  0  0
 40 52  1  0  0  0
 40 53  2  0  0  0
 40 58  1  0  0  0
 41110  1  0  0  0
 41111  1  0  0  0
 41112  1  0  0  0
 41 48  1  0  0  0
 42 43  1  0  0  0
 42 66  1  0  0  0
 42113  1  0  0  0
 42114  1  0  0  0
 43 44  1  0  0  0
 44115  1  0  0  0
 45 46  2  0  0  0
 45116  1  0  0  0
 46117  1  0  0  0
 47118  1  0  0  0
 47119  1  0  0  0
 48 56  1  0  0  0
 48 65  1  0  0  0
 48120  1  0  0  0
 49 50  1  0  0  0
 49 53  1  0  0  0
 49 64  1  0  0  0
 49121  1  0  0  0
 50 51  1  0  0  0
 50122  1  0  0  0
 50123  1  0  0  0
 51 52  1  0  0  0
 51124  1  0  0  0
 51125  1  0  0  0
 52126  1  0  0  0
 52127  1  0  0  0
 53 54  1  0  0  0
 54 55  2  0  0  0
 54128  1  0  0  0
 55 57  1  0  0  0
 55129  1  0  0  0
 56 69  2  0  0  0
 57 58  2  0  0  0
 57130  1  0  0  0
 58131  1  0  0  0
 59 60  1  0  0  0
 59 61  1  0  0  0
 59 62  1  0  0  0
 60132  1  0  0  0
 60133  1  0  0  0
 60134  1  0  0  0
 61135  1  0  0  0
 61136  1  0  0  0
 61137  1  0  0  0
 62138  1  0  0  0
 62139  1  0  0  0
 62140  1  0  0  0
 63 65  1  0  0  0
 63141  1  0  0  0
 63142  1  0  0  0
 63143  1  0  0  0
 64144  1  0  0  0
 65145  1  0  0  0
 68 80  1  0  0  0
 71 73  2  0  0  0
 71 74  1  0  0  0
 71146  1  0  0  0
 72 73  1  0  0  0
 72 75  2  0  0  0
 72 78  1  0  0  0
 73 83  1  0  0  0
 74 81  2  0  0  0
 74 84  1  0  0  0
 75 81  1  0  0  0
 75 82  1  0  0  0
 76 77  1  0  0  0
 76 79  1  0  0  0
 76 85  2  0  0  0
 77 83  1  0  0  0
 77 86  2  0  0  0
 78147  1  0  0  0
 78148  1  0  0  0
 78149  1  0  0  0
 79 80  1  0  0  0
 79150  1  0  0  0
 79151  1  0  0  0
 80152  1  0  0  0
 80153  1  0  0  0
 82154  1  0  0  0
 82155  1  0  0  0
 83156  1  0  0  0
 84157  1  0  0  0
M  ISO  4   1 100  68 101  80 101  84 100
M  END
> <chiral flag>
0

> <version>
0

> <s_m_source_file>
/data/baiqing/PycharmProjects/Reinvent-master-3.2/result/LINK_invent/BTK/process_docking_weight1_custom_product_contain_oxygen_bond_distance_aromatic_linkinvent_7_9_3/rearranged_h_0179.sdf

> <i_m_source_file_index>
90

> <r_mmod_Potential_Energy-OPLS-2005>
-248.280059814453

> <r_mmod_Stretch_Energy-OPLS-2005>
56.5077514648438

> <r_mmod_Bend_Energy-OPLS-2005>
128.652359008789

> <r_mmod_Torsional_Energy-OPLS-2005>
245.258499145508

> <r_mmod_Improper_Torsional_Energy-OPLS-2005>
7.30429840087891

> <r_mmod_Van_der_Waal_Energy-OPLS-2005>
162.508102416992

> <r_mmod_Electrostatic_Energy-OPLS-2005>
-606.0234375

> <r_mmod_Solvation_Energy-OPLS-2005>
-273.669067382812

> <b_mmod_Minimization_Converged-OPLS-2005>
0

> <r_mmod_RMS_Derivative-OPLS-2005>
0.74057137966156

$$$$
90
                    3D
 Structure written by MMmdl.
149157  0  0  1  0            999 V2000
  -30.6202  -14.8445   20.4498 C   0  0  0  0  0  0
  -30.4279  -12.5211   19.4891 C   0  0  0  0  0  0
  -29.5138  -12.5108   18.2451 C   0  0  0  0  0  0
  -28.0435  -12.3202   18.6607 C   0  0  0  0  0  0
  -27.6311  -13.2460   19.8368 C   0  0  2  0  0  0
  -28.6747  -13.2555   20.9741 C   0  0  0  0  0  0
  -25.2464  -13.8209   20.5716 C   0  0  0  0  0  0
  -24.1777  -13.0439   20.9226 C   0  0  0  0  0  0
  -24.6394  -11.6924   20.8753 C   0  0  0  0  0  0
  -23.9079  -10.4292   21.0419 C   0  0  0  0  0  0
  -24.3623   -9.4200   21.9197 C   0  0  0  0  0  0
  -23.6292   -8.2237   22.0760 C   0  0  0  0  0  0
  -22.4273   -8.0281   21.3550 C   0  0  0  0  0  0
  -21.9921   -9.0261   20.4658 C   0  0  0  0  0  0
  -22.7250  -10.2138   20.3069 C   0  0  0  0  0  0
  -21.6849   -6.0748   22.5286 C   0  0  0  0  0  0
  -21.4016   -6.5649   23.8228 C   0  0  0  0  0  0
  -21.3668   -5.6792   24.9188 C   0  0  0  0  0  0
  -21.6033   -4.3057   24.7221 C   0  0  0  0  0  0
  -21.8813   -3.8156   23.4344 C   0  0  0  0  0  0
  -21.9184   -4.6976   22.3405 C   0  0  0  0  0  0
  -22.7791  -13.5208   21.1883 C   0  0  0  0  0  0
  -22.1646   -4.2168   21.0981 F   0  0  0  0  0  0
  -21.5629   -3.4542   25.7737 F   0  0  0  0  0  0
  -29.9677  -13.6211   20.3795 N   0  0  0  0  0  0
  -26.2899  -12.9457   20.3243 N   0  0  0  0  0  0
  -25.9330  -11.6588   20.5733 N   0  0  0  0  0  0
  -22.0428  -12.8216   22.0437 N   0  0  0  0  0  0
  -25.4075  -15.1946   20.4162 N   0  0  0  0  0  0
  -31.8248  -14.8547   20.1727 O   0  0  0  0  0  0
  -21.6622   -6.8884   21.4247 O   0  0  0  0  0  0
  -22.3487  -14.5512   20.6714 O   0  0  0  0  0  0
  -24.6390  -31.8498   23.1911 C   0  0  0  0  0  0
  -25.9189  -32.4722   23.8285 C   0  0  1  0  0  0
  -27.2230  -27.2090   20.1317 C   0  0  0  0  0  0
  -25.5955  -33.8515   24.2197 N   0  0  0  0  0  0
  -23.4400  -30.4712   21.5355 C   0  0  2  0  0  0
  -24.8904  -28.9106   20.1057 C   0  0  0  0  0  0
  -22.7541  -29.4578   22.4860 C   0  0  0  0  0  0
  -18.0298  -28.1403   22.8479 C   0  0  0  0  0  0
  -24.1490  -36.7272   23.2639 C   0  0  0  0  0  0
  -25.9912  -30.7472   21.3789 C   0  0  0  0  0  0
  -26.0673  -29.3639   20.7203 C   0  0  0  0  0  0
  -27.2383  -28.5250   20.7247 C   0  0  0  0  0  0
  -26.0273  -26.8445   19.4765 C   0  0  0  0  0  0
  -24.8775  -27.6589   19.4730 C   0  0  0  0  0  0
  -23.6632  -29.8053   20.1527 C   0  0  0  0  0  0
  -25.4118  -36.3036   24.0309 C   0  0  1  0  0  0
  -20.5904  -28.3712   23.1245 C   0  0  2  0  0  0
  -20.6788  -26.9421   22.5402 C   0  0  0  0  0  0
  -19.5764  -26.6385   21.5211 C   0  0  0  0  0  0
  -18.1942  -26.7941   22.1624 C   0  0  0  0  0  0
  -19.1555  -28.8874   23.2852 C   0  0  0  0  0  0
  -18.9481  -30.1472   23.8880 C   0  0  0  0  0  0
  -17.6479  -30.6595   24.0564 C   0  0  0  0  0  0
  -25.9064  -34.9414   23.5047 C   0  0  0  0  0  0
  -16.5367  -29.9093   23.6341 C   0  0  0  0  0  0
  -16.7284  -28.6513   23.0353 C   0  0  0  0  0  0
  -26.4512  -31.6563   25.0695 C   0  0  0  0  0  0
  -25.3725  -31.3759   26.1414 C   0  0  0  0  0  0
  -27.0347  -30.2965   24.6217 C   0  0  0  0  0  0
  -27.6043  -32.4319   25.7500 C   0  0  0  0  0  0
  -27.5565  -37.1792   24.8463 C   0  0  0  0  0  0
  -21.4231  -29.3053   22.3618 N   0  0  0  0  0  0
  -26.4282  -37.3749   23.9397 N   0  0  0  0  0  0
  -24.7100  -31.0407   22.0926 N   0  0  0  0  0  0
  -23.4214  -28.8118   23.2982 O   0  0  0  0  0  0
  -28.2309  -26.1983   20.2053 O   0  0  0  0  0  0
  -26.5637  -34.8915   22.4613 O   0  0  0  0  0  0
  -23.5525  -32.1352   23.7158 O   0  0  0  0  0  0
  -32.0842  -19.0097   21.0029 C   0  0  0  0  0  0
  -29.9012  -20.0576   20.6415 C   0  0  0  0  0  0
  -29.4381  -18.6587   20.5350 C   0  0  0  0  0  0
  -31.2903  -20.1720   20.9283 C   0  0  0  0  0  0
  -30.3294  -17.4847   20.6520 C   0  0  0  0  0  0
  -27.8254  -24.9766   20.8509 C   0  0  0  0  0  0
  -28.1316  -23.5971   20.9374 C   0  0  0  0  0  0
  -29.1521  -22.6474   20.3161 C   0  0  0  0  0  0
  -31.6383  -17.7406   20.8733 N   0  0  0  0  0  0
  -28.9981  -21.2744   20.6278 N   0  0  0  0  0  0
  -29.8903  -16.0426   20.5861 N   0  0  0  0  0  0
  -30.0292  -23.0332   19.5429 O   0  0  0  0  0  0
  -27.3444  -22.9726   21.8308 O   0  0  0  0  0  0
  -28.1163  -18.4429   20.3280 F   0  0  0  0  0  0
  -32.0757  -21.6712   21.2938 Cl  0  0  0  0  0  0
  -31.4670  -12.6452   19.1768 H   0  0  0  0  0  0
  -30.3835  -11.5638   20.0095 H   0  0  0  0  0  0
  -29.8200  -11.7182   17.5611 H   0  0  0  0  0  0
  -29.6215  -13.4459   17.6946 H   0  0  0  0  0  0
  -27.9212  -11.2775   18.9542 H   0  0  0  0  0  0
  -27.3842  -12.4755   17.8059 H   0  0  0  0  0  0
  -27.5994  -14.2533   19.4195 H   0  0  0  0  0  0
  -28.7340  -12.2841   21.4661 H   0  0  0  0  0  0
  -28.3877  -13.9736   21.7456 H   0  0  0  0  0  0
  -25.2767   -9.5669   22.4775 H   0  0  0  0  0  0
  -24.0000   -7.4625   22.7484 H   0  0  0  0  0  0
  -21.0845   -8.8782   19.8966 H   0  0  0  0  0  0
  -22.3701  -10.9686   19.6178 H   0  0  0  0  0  0
  -21.2008   -7.6161   23.9731 H   0  0  0  0  0  0
  -21.1500   -6.0531   25.9089 H   0  0  0  0  0  0
  -22.0581   -2.7619   23.2834 H   0  0  0  0  0  0
  -22.4033  -11.9896   22.4867 H   0  0  0  0  0  0
  -21.1055  -13.1279   22.2638 H   0  0  0  0  0  0
  -24.6280  -15.8334   20.5317 H   0  0  0  0  0  0
  -26.2433  -15.6528   20.0779 H   0  0  0  0  0  0
  -26.7249  -32.5358   23.1023 H   0  0  0  0  0  0
  -25.0101  -33.9631   25.0339 H   0  0  0  0  0  0
  -22.7414  -31.2964   21.3844 H   0  0  0  0  0  0
  -23.3737  -35.9619   23.3308 H   0  0  0  0  0  0
  -24.3593  -36.8896   22.2055 H   0  0  0  0  0  0
  -23.7268  -37.6480   23.6674 H   0  0  0  0  0  0
  -26.1299  -31.5076   20.6084 H   0  0  0  0  0  0
  -26.8686  -30.8036   22.0115 H   0  0  0  0  0  0
  -28.1330  -28.8570   21.2309 H   0  0  0  0  0  0
  -25.9691  -25.8759   18.9996 H   0  0  0  0  0  0
  -23.9793  -27.3043   18.9857 H   0  0  0  0  0  0
  -23.7905  -30.5847   19.3998 H   0  0  0  0  0  0
  -22.7813  -29.2424   19.8425 H   0  0  0  0  0  0
  -25.1306  -36.1865   25.0803 H   0  0  0  0  0  0
  -21.0002  -28.3313   24.1361 H   0  0  0  0  0  0
  -20.5686  -26.2328   23.3613 H   0  0  0  0  0  0
  -21.6657  -26.7428   22.1202 H   0  0  0  0  0  0
  -19.6925  -25.6287   21.1264 H   0  0  0  0  0  0
  -19.6718  -27.3176   20.6728 H   0  0  0  0  0  0
  -17.4204  -26.6667   21.4034 H   0  0  0  0  0  0
  -18.0348  -26.0098   22.9039 H   0  0  0  0  0  0
  -19.7959  -30.7289   24.2249 H   0  0  0  0  0  0
  -17.5033  -31.6283   24.5155 H   0  0  0  0  0  0
  -15.5366  -30.2989   23.7673 H   0  0  0  0  0  0
  -15.8684  -28.0829   22.7073 H   0  0  0  0  0  0
  -24.5896  -30.7100   25.7769 H   0  0  0  0  0  0
  -24.8924  -32.2942   26.4802 H   0  0  0  0  0  0
  -25.8050  -30.8983   27.0212 H   0  0  0  0  0  0
  -26.2928  -29.6730   24.1213 H   0  0  0  0  0  0
  -27.3961  -29.7231   25.4759 H   0  0  0  0  0  0
  -27.8844  -30.4202   23.9504 H   0  0  0  0  0  0
  -27.2611  -33.3620   26.2050 H   0  0  0  0  0  0
  -28.3896  -32.6879   25.0374 H   0  0  0  0  0  0
  -28.0658  -31.8463   26.5461 H   0  0  0  0  0  0
  -28.2574  -38.0091   24.7476 H   0  0  0  0  0  0
  -28.1063  -36.2611   24.6326 H   0  0  0  0  0  0
  -27.2281  -37.1494   25.8869 H   0  0  0  0  0  0
  -20.9419  -29.8796   21.6831 H   0  0  0  0  0  0
  -26.0147  -38.2811   24.1416 H   0  0  0  0  0  0
  -33.1400  -19.0967   21.2237 H   0  0  0  0  0  0
  -27.0045  -25.2565   21.4984 H   0  0  0  0  0  0
  -28.0634  -21.0505   20.9318 H   0  0  0  0  0  0
  -28.8938  -15.9169   20.6410 H   0  0  0  0  0  0
  -27.8251  -22.2192   22.1501 H   0  0  0  0  0  0
  1 25  1  0  0  0
  1 30  2  0  0  0
  1 81  1  0  0  0
  2  3  1  0  0  0
  2 25  1  0  0  0
  2 86  1  0  0  0
  2 87  1  0  0  0
  3  4  1  0  0  0
  3 88  1  0  0  0
  3 89  1  0  0  0
  4  5  1  0  0  0
  4 90  1  0  0  0
  4 91  1  0  0  0
  5  6  1  0  0  0
  5 26  1  0  0  0
  5 92  1  0  0  0
  6 25  1  0  0  0
  6 93  1  0  0  0
  6 94  1  0  0  0
  7  8  2  0  0  0
  7 26  1  0  0  0
  7 29  1  0  0  0
  8  9  1  0  0  0
  8 22  1  0  0  0
  9 10  1  0  0  0
  9 27  2  0  0  0
 10 11  2  0  0  0
 10 15  1  0  0  0
 11 12  1  0  0  0
 11 95  1  0  0  0
 12 13  2  0  0  0
 12 96  1  0  0  0
 13 14  1  0  0  0
 13 31  1  0  0  0
 14 15  2  0  0  0
 14 97  1  0  0  0
 15 98  1  0  0  0
 16 17  2  0  0  0
 16 21  1  0  0  0
 16 31  1  0  0  0
 17 18  1  0  0  0
 17 99  1  0  0  0
 18 19  2  0  0  0
 18100  1  0  0  0
 19 20  1  0  0  0
 19 24  1  0  0  0
 20 21  2  0  0  0
 20101  1  0  0  0
 21 23  1  0  0  0
 22 28  1  0  0  0
 22 32  2  0  0  0
 26 27  1  0  0  0
 28102  1  0  0  0
 28103  1  0  0  0
 29104  1  0  0  0
 29105  1  0  0  0
 33 34  1  0  0  0
 33 66  1  0  0  0
 33 70  2  0  0  0
 34 36  1  0  0  0
 34 59  1  0  0  0
 34106  1  0  0  0
 35 44  2  0  0  0
 35 45  1  0  0  0
 35 68  1  0  0  0
 36 56  1  0  0  0
 36107  1  0  0  0
 37 39  1  0  0  0
 37 47  1  0  0  0
 37 66  1  0  0  0
 37108  1  0  0  0
 38 43  2  0  0  0
 38 46  1  0  0  0
 38 47  1  0  0  0
 39 64  1  0  0  0
 39 67  2  0  0  0
 40 52  1  0  0  0
 40 53  2  0  0  0
 40 58  1  0  0  0
 41109  1  0  0  0
 41110  1  0  0  0
 41111  1  0  0  0
 41 48  1  0  0  0
 42 43  1  0  0  0
 42 66  1  0  0  0
 42112  1  0  0  0
 42113  1  0  0  0
 43 44  1  0  0  0
 44114  1  0  0  0
 45 46  2  0  0  0
 45115  1  0  0  0
 46116  1  0  0  0
 47117  1  0  0  0
 47118  1  0  0  0
 48 56  1  0  0  0
 48 65  1  0  0  0
 48119  1  0  0  0
 49 50  1  0  0  0
 49 53  1  0  0  0
 49 64  1  0  0  0
 49120  1  0  0  0
 50 51  1  0  0  0
 50121  1  0  0  0
 50122  1  0  0  0
 51 52  1  0  0  0
 51123  1  0  0  0
 51124  1  0  0  0
 52125  1  0  0  0
 52126  1  0  0  0
 53 54  1  0  0  0
 54 55  2  0  0  0
 54127  1  0  0  0
 55 57  1  0  0  0
 55128  1  0  0  0
 56 69  2  0  0  0
 57 58  2  0  0  0
 57129  1  0  0  0
 58130  1  0  0  0
 59 60  1  0  0  0
 59 61  1  0  0  0
 59 62  1  0  0  0
 60131  1  0  0  0
 60132  1  0  0  0
 60133  1  0  0  0
 61134  1  0  0  0
 61135  1  0  0  0
 61136  1  0  0  0
 62137  1  0  0  0
 62138  1  0  0  0
 62139  1  0  0  0
 63 65  1  0  0  0
 63140  1  0  0  0
 63141  1  0  0  0
 63142  1  0  0  0
 64143  1  0  0  0
 65144  1  0  0  0
 68 76  1  0  0  0
 71 74  2  0  0  0
 71 79  1  0  0  0
 71145  1  0  0  0
 72 73  2  0  0  0
 72 74  1  0  0  0
 72 80  1  0  0  0
 73 75  1  0  0  0
 73 84  1  0  0  0
 74 85  1  0  0  0
 75 79  2  0  0  0
 75 81  1  0  0  0
 76 77  2  0  0  0
 76146  1  0  0  0
 77 78  1  0  0  0
 77 83  1  0  0  0
 78 80  1  0  0  0
 78 82  2  0  0  0
 80147  1  0  0  0
 81148  1  0  0  0
 83149  1  0  0  0
M  ISO  4   1 100  68 101  76 101  81 100
M  END
> <chiral flag>
0

> <version>
0

> <s_m_source_file>
/data/baiqing/PycharmProjects/Reinvent-master-3.2/result/LINK_invent/BTK/process_docking_weight1_custom_product_contain_oxygen_bond_distance_aromatic_linkinvent_7_9_3/rearranged_h_0179.sdf

> <i_m_source_file_index>
91

> <r_mmod_Potential_Energy-OPLS-2005>
223.789077758789

> <r_mmod_Stretch_Energy-OPLS-2005>
174.873229980469

> <r_mmod_Bend_Energy-OPLS-2005>
258.786895751953

> <r_mmod_Torsional_Energy-OPLS-2005>
239.680313110352

> <r_mmod_Improper_Torsional_Energy-OPLS-2005>
6.71701002120972

> <r_mmod_Van_der_Waal_Energy-OPLS-2005>
151.148239135742

> <r_mmod_Electrostatic_Energy-OPLS-2005>
-477.461029052734

> <r_mmod_Solvation_Energy-OPLS-2005>
-269.12451171875

> <b_mmod_Minimization_Converged-OPLS-2005>
0

> <r_mmod_RMS_Derivative-OPLS-2005>
2.76957178115845

$$$$
91
                    3D
 Structure written by MMmdl.
152160  0  0  1  0            999 V2000
  -30.5952  -14.7779   20.4924 C   0  0  0  0  0  0
  -30.4386  -12.4760   19.5031 C   0  0  0  0  0  0
  -29.5245  -12.5300   18.2565 C   0  0  0  0  0  0
  -28.0519  -12.3356   18.6599 C   0  0  0  0  0  0
  -27.6473  -13.2350   19.8581 C   0  0  2  0  0  0
  -28.6814  -13.1678   21.0043 C   0  0  0  0  0  0
  -25.2527  -13.8205   20.5662 C   0  0  0  0  0  0
  -24.1818  -13.0445   20.9177 C   0  0  0  0  0  0
  -24.6408  -11.6927   20.8723 C   0  0  0  0  0  0
  -23.9086  -10.4298   21.0394 C   0  0  0  0  0  0
  -24.3641   -9.4222   21.9170 C   0  0  0  0  0  0
  -23.6318   -8.2252   22.0752 C   0  0  0  0  0  0
  -22.4298   -8.0279   21.3542 C   0  0  0  0  0  0
  -21.9929   -9.0252   20.4641 C   0  0  0  0  0  0
  -22.7261  -10.2130   20.3048 C   0  0  0  0  0  0
  -21.6858   -6.0741   22.5283 C   0  0  0  0  0  0
  -21.4009   -6.5644   23.8218 C   0  0  0  0  0  0
  -21.3666   -5.6792   24.9179 C   0  0  0  0  0  0
  -21.6054   -4.3056   24.7233 C   0  0  0  0  0  0
  -21.8817   -3.8146   23.4356 C   0  0  0  0  0  0
  -21.9195   -4.6962   22.3408 C   0  0  0  0  0  0
  -22.7835  -13.5218   21.1854 C   0  0  0  0  0  0
  -22.1662   -4.2153   21.0985 F   0  0  0  0  0  0
  -21.5637   -3.4536   25.7745 F   0  0  0  0  0  0
  -29.9934  -13.5324   20.4490 N   0  0  0  0  0  0
  -26.2957  -12.9410   20.3259 N   0  0  0  0  0  0
  -25.9336  -11.6552   20.5707 N   0  0  0  0  0  0
  -22.0481  -12.8198   22.0411 N   0  0  0  0  0  0
  -25.4233  -15.1928   20.4109 N   0  0  0  0  0  0
  -31.7399  -14.9081   20.0468 O   0  0  0  0  0  0
  -21.6651   -6.8889   21.4249 O   0  0  0  0  0  0
  -22.3519  -14.5515   20.6702 O   0  0  0  0  0  0
  -24.6359  -31.8554   23.1986 C   0  0  0  0  0  0
  -25.9180  -32.4744   23.8330 C   0  0  1  0  0  0
  -27.1953  -27.1932   20.1401 C   0  0  0  0  0  0
  -25.5969  -33.8553   24.2232 N   0  0  0  0  0  0
  -23.4346  -30.4806   21.5436 C   0  0  2  0  0  0
  -24.8834  -28.9325   20.1118 C   0  0  0  0  0  0
  -22.7524  -29.4615   22.4903 C   0  0  0  0  0  0
  -18.0294  -28.1392   22.8482 C   0  0  0  0  0  0
  -24.1512  -36.7281   23.2629 C   0  0  0  0  0  0
  -25.9897  -30.7394   21.4035 C   0  0  0  0  0  0
  -26.0568  -29.3575   20.7481 C   0  0  0  0  0  0
  -27.2122  -28.4967   20.7662 C   0  0  0  0  0  0
  -26.0299  -26.9193   19.3934 C   0  0  0  0  0  0
  -24.8791  -27.7200   19.4200 C   0  0  0  0  0  0
  -23.6583  -29.8237   20.1586 C   0  0  0  0  0  0
  -25.4131  -36.3058   24.0315 C   0  0  1  0  0  0
  -20.5904  -28.3715   23.1241 C   0  0  2  0  0  0
  -20.6789  -26.9431   22.5392 C   0  0  0  0  0  0
  -19.5760  -26.6391   21.5205 C   0  0  0  0  0  0
  -18.1944  -26.7936   22.1626 C   0  0  0  0  0  0
  -19.1552  -28.8868   23.2862 C   0  0  0  0  0  0
  -18.9475  -30.1462   23.8885 C   0  0  0  0  0  0
  -17.6478  -30.6590   24.0557 C   0  0  0  0  0  0
  -25.9088  -34.9435   23.5073 C   0  0  0  0  0  0
  -16.5368  -29.9085   23.6326 C   0  0  0  0  0  0
  -16.7285  -28.6504   23.0351 C   0  0  0  0  0  0
  -26.4506  -31.6561   25.0737 C   0  0  0  0  0  0
  -25.3677  -31.3772   26.1412 C   0  0  0  0  0  0
  -27.0343  -30.2935   24.6300 C   0  0  0  0  0  0
  -27.6055  -32.4297   25.7524 C   0  0  0  0  0  0
  -27.5591  -37.1784   24.8452 C   0  0  0  0  0  0
  -21.4234  -29.3059   22.3625 N   0  0  0  0  0  0
  -26.4296  -37.3763   23.9408 N   0  0  0  0  0  0
  -24.7048  -31.0464   22.1021 N   0  0  0  0  0  0
  -23.4200  -28.8154   23.3022 O   0  0  0  0  0  0
  -28.2298  -26.2030   20.1940 O   0  0  0  0  0  0
  -26.5665  -34.8913   22.4642 O   0  0  0  0  0  0
  -23.5491  -32.1429   23.7222 O   0  0  0  0  0  0
  -29.8854  -18.4601   21.2108 C   0  0  0  0  0  0
  -29.5884  -19.7092   20.4558 C   0  0  0  0  0  0
  -29.7957  -17.2163   20.5400 C   0  0  0  0  0  0
  -29.2278  -19.3482   19.1712 C   0  0  0  0  0  0
  -29.7841  -21.2017   20.9672 C   0  0  0  0  0  0
  -29.1136  -23.6620   20.7458 C   0  0  0  0  0  0
  -26.8617  -24.0091   19.5479 C   0  0  0  0  0  0
  -27.9028  -24.7087   20.4623 C   0  0  2  0  0  0
  -28.8773  -20.1452   18.0833 N   0  0  0  0  0  0
  -29.8859  -15.8738   20.9840 N   0  0  0  0  0  0
  -28.9950  -22.2738   20.5364 N   0  0  0  0  0  0
  -30.6748  -21.3822   21.8052 O   0  0  0  0  0  0
  -30.1513  -24.1547   21.2023 O   0  0  0  0  0  0
  -29.2922  -17.5978   18.9064 S   0  0  0  0  0  0
  -31.4843  -12.5942   19.2147 H   0  0  0  0  0  0
  -30.3754  -11.4962   19.9785 H   0  0  0  0  0  0
  -29.8189  -11.7656   17.5349 H   0  0  0  0  0  0
  -29.6464  -13.4908   17.7527 H   0  0  0  0  0  0
  -27.9196  -11.2848   18.9227 H   0  0  0  0  0  0
  -27.3960  -12.5170   17.8085 H   0  0  0  0  0  0
  -27.6445  -14.2580   19.4789 H   0  0  0  0  0  0
  -28.7154  -12.1659   21.4333 H   0  0  0  0  0  0
  -28.3955  -13.8336   21.8192 H   0  0  0  0  0  0
  -25.2788   -9.5690   22.4749 H   0  0  0  0  0  0
  -24.0030   -7.4637   22.7464 H   0  0  0  0  0  0
  -21.0864   -8.8778   19.8943 H   0  0  0  0  0  0
  -22.3729  -10.9667   19.6158 H   0  0  0  0  0  0
  -21.1998   -7.6149   23.9728 H   0  0  0  0  0  0
  -21.1488   -6.0517   25.9085 H   0  0  0  0  0  0
  -22.0592   -2.7609   23.2855 H   0  0  0  0  0  0
  -22.4103  -11.9885   22.4838 H   0  0  0  0  0  0
  -21.1084  -13.1194   22.2572 H   0  0  0  0  0  0
  -24.6570  -15.8473   20.5241 H   0  0  0  0  0  0
  -26.2784  -15.6344   20.0965 H   0  0  0  0  0  0
  -26.7238  -32.5348   23.1054 H   0  0  0  0  0  0
  -25.0057  -33.9691   25.0334 H   0  0  0  0  0  0
  -22.7321  -31.3040   21.3963 H   0  0  0  0  0  0
  -23.3791  -35.9601   23.3277 H   0  0  0  0  0  0
  -24.3610  -36.8936   22.2051 H   0  0  0  0  0  0
  -23.7259  -37.6472   23.6672 H   0  0  0  0  0  0
  -26.1493  -31.4970   20.6343 H   0  0  0  0  0  0
  -26.8585  -30.7780   22.0477 H   0  0  0  0  0  0
  -28.0966  -28.8088   21.3046 H   0  0  0  0  0  0
  -25.9760  -26.0822   18.7270 H   0  0  0  0  0  0
  -24.0053  -27.4150   18.8608 H   0  0  0  0  0  0
  -23.7877  -30.6026   19.4062 H   0  0  0  0  0  0
  -22.7744  -29.2628   19.8486 H   0  0  0  0  0  0
  -25.1316  -36.1902   25.0807 H   0  0  0  0  0  0
  -20.9975  -28.3309   24.1371 H   0  0  0  0  0  0
  -20.5696  -26.2345   23.3614 H   0  0  0  0  0  0
  -21.6658  -26.7466   22.1185 H   0  0  0  0  0  0
  -19.6939  -25.6296   21.1246 H   0  0  0  0  0  0
  -19.6690  -27.3190   20.6726 H   0  0  0  0  0  0
  -17.4212  -26.6682   21.4033 H   0  0  0  0  0  0
  -18.0353  -26.0070   22.9016 H   0  0  0  0  0  0
  -19.7952  -30.7271   24.2274 H   0  0  0  0  0  0
  -17.5032  -31.6269   24.5160 H   0  0  0  0  0  0
  -15.5365  -30.2985   23.7648 H   0  0  0  0  0  0
  -15.8695  -28.0811   22.7073 H   0  0  0  0  0  0
  -24.5835  -30.7164   25.7702 H   0  0  0  0  0  0
  -24.8893  -32.2975   26.4772 H   0  0  0  0  0  0
  -25.7899  -30.8939   27.0227 H   0  0  0  0  0  0
  -26.2913  -29.6690   24.1313 H   0  0  0  0  0  0
  -27.3941  -29.7213   25.4868 H   0  0  0  0  0  0
  -27.8878  -30.4168   23.9626 H   0  0  0  0  0  0
  -27.2627  -33.3595   26.2075 H   0  0  0  0  0  0
  -28.3869  -32.6855   25.0354 H   0  0  0  0  0  0
  -28.0702  -31.8421   26.5454 H   0  0  0  0  0  0
  -28.2566  -38.0119   24.7522 H   0  0  0  0  0  0
  -28.1127  -36.2643   24.6238 H   0  0  0  0  0  0
  -27.2315  -37.1385   25.8855 H   0  0  0  0  0  0
  -20.9436  -29.8776   21.6813 H   0  0  0  0  0  0
  -26.0187  -38.2846   24.1387 H   0  0  0  0  0  0
  -30.1682  -18.5399   22.2517 H   0  0  0  0  0  0
  -25.8488  -24.3361   19.7794 H   0  0  0  0  0  0
  -26.7868  -22.9351   19.7027 H   0  0  0  0  0  0
  -27.0740  -24.1650   18.4903 H   0  0  0  0  0  0
  -27.4213  -24.7465   21.4406 H   0  0  0  0  0  0
  -29.2090  -21.0961   17.9506 H   0  0  0  0  0  0
  -28.6549  -19.7135   17.1895 H   0  0  0  0  0  0
  -29.1113  -15.5895   21.5658 H   0  0  0  0  0  0
  -28.1922  -21.9930   19.9957 H   0  0  0  0  0  0
  1 25  1  0  0  0
  1 30  2  0  0  0
  1 80  1  0  0  0
  2  3  1  0  0  0
  2 25  1  0  0  0
  2 85  1  0  0  0
  2 86  1  0  0  0
  3  4  1  0  0  0
  3 87  1  0  0  0
  3 88  1  0  0  0
  4  5  1  0  0  0
  4 89  1  0  0  0
  4 90  1  0  0  0
  5  6  1  0  0  0
  5 26  1  0  0  0
  5 91  1  0  0  0
  6 25  1  0  0  0
  6 92  1  0  0  0
  6 93  1  0  0  0
  7  8  2  0  0  0
  7 26  1  0  0  0
  7 29  1  0  0  0
  8  9  1  0  0  0
  8 22  1  0  0  0
  9 10  1  0  0  0
  9 27  2  0  0  0
 10 11  2  0  0  0
 10 15  1  0  0  0
 11 12  1  0  0  0
 11 94  1  0  0  0
 12 13  2  0  0  0
 12 95  1  0  0  0
 13 14  1  0  0  0
 13 31  1  0  0  0
 14 15  2  0  0  0
 14 96  1  0  0  0
 15 97  1  0  0  0
 16 17  2  0  0  0
 16 21  1  0  0  0
 16 31  1  0  0  0
 17 18  1  0  0  0
 17 98  1  0  0  0
 18 19  2  0  0  0
 18 99  1  0  0  0
 19 20  1  0  0  0
 19 24  1  0  0  0
 20 21  2  0  0  0
 20100  1  0  0  0
 21 23  1  0  0  0
 22 28  1  0  0  0
 22 32  2  0  0  0
 26 27  1  0  0  0
 28101  1  0  0  0
 28102  1  0  0  0
 29103  1  0  0  0
 29104  1  0  0  0
 33 34  1  0  0  0
 33 66  1  0  0  0
 33 70  2  0  0  0
 34 36  1  0  0  0
 34 59  1  0  0  0
 34105  1  0  0  0
 35 44  2  0  0  0
 35 45  1  0  0  0
 35 68  1  0  0  0
 36 56  1  0  0  0
 36106  1  0  0  0
 37 39  1  0  0  0
 37 47  1  0  0  0
 37 66  1  0  0  0
 37107  1  0  0  0
 38 43  2  0  0  0
 38 46  1  0  0  0
 38 47  1  0  0  0
 39 64  1  0  0  0
 39 67  2  0  0  0
 40 52  1  0  0  0
 40 53  2  0  0  0
 40 58  1  0  0  0
 41108  1  0  0  0
 41109  1  0  0  0
 41110  1  0  0  0
 41 48  1  0  0  0
 42 43  1  0  0  0
 42 66  1  0  0  0
 42111  1  0  0  0
 42112  1  0  0  0
 43 44  1  0  0  0
 44113  1  0  0  0
 45 46  2  0  0  0
 45114  1  0  0  0
 46115  1  0  0  0
 47116  1  0  0  0
 47117  1  0  0  0
 48 56  1  0  0  0
 48 65  1  0  0  0
 48118  1  0  0  0
 49 50  1  0  0  0
 49 53  1  0  0  0
 49 64  1  0  0  0
 49119  1  0  0  0
 50 51  1  0  0  0
 50120  1  0  0  0
 50121  1  0  0  0
 51 52  1  0  0  0
 51122  1  0  0  0
 51123  1  0  0  0
 52124  1  0  0  0
 52125  1  0  0  0
 53 54  1  0  0  0
 54 55  2  0  0  0
 54126  1  0  0  0
 55 57  1  0  0  0
 55127  1  0  0  0
 56 69  2  0  0  0
 57 58  2  0  0  0
 57128  1  0  0  0
 58129  1  0  0  0
 59 60  1  0  0  0
 59 61  1  0  0  0
 59 62  1  0  0  0
 60130  1  0  0  0
 60131  1  0  0  0
 60132  1  0  0  0
 61133  1  0  0  0
 61134  1  0  0  0
 61135  1  0  0  0
 62136  1  0  0  0
 62137  1  0  0  0
 62138  1  0  0  0
 63 65  1  0  0  0
 63139  1  0  0  0
 63140  1  0  0  0
 63141  1  0  0  0
 64142  1  0  0  0
 65143  1  0  0  0
 68 78  1  0  0  0
 71 72  1  0  0  0
 71 73  2  0  0  0
 71144  1  0  0  0
 72 74  2  0  0  0
 72 75  1  0  0  0
 73 80  1  0  0  0
 73 84  1  0  0  0
 74 79  1  0  0  0
 74 84  1  0  0  0
 75 81  1  0  0  0
 75 82  2  0  0  0
 76 78  1  0  0  0
 76 81  1  0  0  0
 76 83  2  0  0  0
 77145  1  0  0  0
 77146  1  0  0  0
 77147  1  0  0  0
 77 78  1  0  0  0
 78148  1  0  0  0
 79149  1  0  0  0
 79150  1  0  0  0
 80151  1  0  0  0
 81152  1  0  0  0
M  ISO  4   1 100  68 101  78 101  80 100
M  END
> <chiral flag>
0

> <version>
0

> <s_m_source_file>
/data/baiqing/PycharmProjects/Reinvent-master-3.2/result/LINK_invent/BTK/process_docking_weight1_custom_product_contain_oxygen_bond_distance_aromatic_linkinvent_7_9_3/rearranged_h_0179.sdf

> <i_m_source_file_index>
92

> <r_mmod_Potential_Energy-OPLS-2005>
224.464019775391

> <r_mmod_Stretch_Energy-OPLS-2005>
160.939056396484

> <r_mmod_Bend_Energy-OPLS-2005>
202.981246948242

> <r_mmod_Torsional_Energy-OPLS-2005>
277.242004394531

> <r_mmod_Improper_Torsional_Energy-OPLS-2005>
6.34369373321533

> <r_mmod_Van_der_Waal_Energy-OPLS-2005>
132.482833862305

> <r_mmod_Electrostatic_Energy-OPLS-2005>
-386.455932617188

> <r_mmod_Solvation_Energy-OPLS-2005>
-290.038208007812

> <b_mmod_Minimization_Converged-OPLS-2005>
0

> <r_mmod_RMS_Derivative-OPLS-2005>
2.1997058391571

$$$$
92
                    3D
 Structure written by MMmdl.
149157  0  0  1  0            999 V2000
  -30.6132  -14.8246   20.4035 C   0  0  0  0  0  0
  -30.4328  -12.4959   19.4900 C   0  0  0  0  0  0
  -29.5198  -12.5214   18.2434 C   0  0  0  0  0  0
  -28.0436  -12.3490   18.6517 C   0  0  0  0  0  0
  -27.6398  -13.2489   19.8505 C   0  0  2  0  0  0
  -28.6897  -13.2291   20.9859 C   0  0  0  0  0  0
  -25.2506  -13.8209   20.5791 C   0  0  0  0  0  0
  -24.1812  -13.0413   20.9271 C   0  0  0  0  0  0
  -24.6417  -11.6901   20.8732 C   0  0  0  0  0  0
  -23.9085  -10.4264   21.0355 C   0  0  0  0  0  0
  -24.3619   -9.4188   21.9149 C   0  0  0  0  0  0
  -23.6287   -8.2238   22.0737 C   0  0  0  0  0  0
  -22.4275   -8.0266   21.3538 C   0  0  0  0  0  0
  -21.9899   -9.0226   20.4639 C   0  0  0  0  0  0
  -22.7242  -10.2105   20.3011 C   0  0  0  0  0  0
  -21.6846   -6.0716   22.5281 C   0  0  0  0  0  0
  -21.4008   -6.5621   23.8219 C   0  0  0  0  0  0
  -21.3660   -5.6789   24.9193 C   0  0  0  0  0  0
  -21.6035   -4.3057   24.7247 C   0  0  0  0  0  0
  -21.8799   -3.8147   23.4363 C   0  0  0  0  0  0
  -21.9187   -4.6949   22.3409 C   0  0  0  0  0  0
  -22.7814  -13.5178   21.1919 C   0  0  0  0  0  0
  -22.1665   -4.2143   21.1004 F   0  0  0  0  0  0
  -21.5628   -3.4524   25.7743 F   0  0  0  0  0  0
  -29.9878  -13.5881   20.3954 N   0  0  0  0  0  0
  -26.2950  -12.9451   20.3321 N   0  0  0  0  0  0
  -25.9358  -11.6580   20.5743 N   0  0  0  0  0  0
  -22.0444  -12.8181   22.0459 N   0  0  0  0  0  0
  -25.4143  -15.1948   20.4281 N   0  0  0  0  0  0
  -31.8107  -14.8702   20.0958 O   0  0  0  0  0  0
  -21.6633   -6.8865   21.4241 O   0  0  0  0  0  0
  -22.3490  -14.5498   20.6783 O   0  0  0  0  0  0
  -24.6365  -31.8481   23.1938 C   0  0  0  0  0  0
  -25.9195  -32.4707   23.8285 C   0  0  1  0  0  0
  -27.2270  -27.2060   20.1320 C   0  0  0  0  0  0
  -25.5994  -33.8512   24.2215 N   0  0  0  0  0  0
  -23.4373  -30.4689   21.5342 C   0  0  2  0  0  0
  -24.8856  -28.9063   20.1124 C   0  0  0  0  0  0
  -22.7528  -29.4580   22.4876 C   0  0  0  0  0  0
  -18.0310  -28.1393   22.8490 C   0  0  0  0  0  0
  -24.1509  -36.7246   23.2640 C   0  0  0  0  0  0
  -25.9876  -30.7450   21.3871 C   0  0  0  0  0  0
  -26.0576  -29.3621   20.7280 C   0  0  0  0  0  0
  -27.2280  -28.5251   20.7283 C   0  0  0  0  0  0
  -26.0203  -26.8311   19.4972 C   0  0  0  0  0  0
  -24.8746  -27.6487   19.4928 C   0  0  0  0  0  0
  -23.6600  -29.7981   20.1523 C   0  0  0  0  0  0
  -25.4143  -36.3020   24.0314 C   0  0  1  0  0  0
  -20.5907  -28.3706   23.1244 C   0  0  2  0  0  0
  -20.6803  -26.9414   22.5402 C   0  0  0  0  0  0
  -19.5784  -26.6378   21.5213 C   0  0  0  0  0  0
  -18.1957  -26.7933   22.1615 C   0  0  0  0  0  0
  -19.1562  -28.8878   23.2857 C   0  0  0  0  0  0
  -18.9479  -30.1476   23.8877 C   0  0  0  0  0  0
  -17.6480  -30.6596   24.0558 C   0  0  0  0  0  0
  -25.9095  -34.9401   23.5063 C   0  0  0  0  0  0
  -16.5369  -29.9084   23.6343 C   0  0  0  0  0  0
  -16.7292  -28.6496   23.0370 C   0  0  0  0  0  0
  -26.4528  -31.6563   25.0708 C   0  0  0  0  0  0
  -25.3755  -31.3752   26.1433 C   0  0  0  0  0  0
  -27.0393  -30.2962   24.6287 C   0  0  0  0  0  0
  -27.6060  -32.4315   25.7494 C   0  0  0  0  0  0
  -27.5568  -37.1798   24.8477 C   0  0  0  0  0  0
  -21.4230  -29.3044   22.3626 N   0  0  0  0  0  0
  -26.4303  -37.3735   23.9380 N   0  0  0  0  0  0
  -24.7056  -31.0416   22.0925 N   0  0  0  0  0  0
  -23.4204  -28.8156   23.3022 O   0  0  0  0  0  0
  -28.3163  -26.2814   20.2020 O   0  0  0  0  0  0
  -26.5627  -34.8903   22.4609 O   0  0  0  0  0  0
  -23.5501  -32.1356   23.7182 O   0  0  0  0  0  0
  -30.2477  -19.8552   18.5990 C   0  0  0  0  0  0
  -30.6170  -17.4463   18.7358 C   0  0  0  0  0  0
  -30.7234  -18.6610   18.0412 C   0  0  0  0  0  0
  -29.6583  -19.8707   19.8775 C   0  0  0  0  0  0
  -30.0328  -17.3907   20.0173 C   0  0  0  0  0  0
  -28.2375  -24.8930   19.8026 C   0  0  0  0  0  0
  -28.8651  -23.7566   20.3394 C   0  0  0  0  0  0
  -28.7370  -22.3524   19.7407 C   0  0  0  0  0  0
  -29.5727  -18.6233   20.5509 N   0  0  0  0  0  0
  -29.3176  -21.2491   20.3850 N   0  0  0  0  0  0
  -29.8737  -16.0043   20.5931 N   0  0  0  0  0  0
  -28.1051  -22.1677   18.6964 O   0  0  0  0  0  0
  -29.6499  -23.9012   21.4169 O   0  0  0  0  0  0
  -31.2907  -18.6766   16.8093 F   0  0  0  0  0  0
  -31.4760  -12.5946   19.1898 H   0  0  0  0  0  0
  -30.3705  -11.5281   19.9941 H   0  0  0  0  0  0
  -29.8136  -11.7363   17.5442 H   0  0  0  0  0  0
  -29.6541  -13.4610   17.7050 H   0  0  0  0  0  0
  -27.9078  -11.3019   18.9191 H   0  0  0  0  0  0
  -27.3895  -12.5280   17.7964 H   0  0  0  0  0  0
  -27.6128  -14.2661   19.4607 H   0  0  0  0  0  0
  -28.7444  -12.2464   21.4585 H   0  0  0  0  0  0
  -28.4276  -13.9391   21.7716 H   0  0  0  0  0  0
  -25.2742   -9.5667   22.4746 H   0  0  0  0  0  0
  -23.9939   -7.4624   22.7488 H   0  0  0  0  0  0
  -21.0780   -8.8709   19.9018 H   0  0  0  0  0  0
  -22.3631  -10.9607   19.6111 H   0  0  0  0  0  0
  -21.2018   -7.6144   23.9701 H   0  0  0  0  0  0
  -21.1516   -6.0550   25.9076 H   0  0  0  0  0  0
  -22.0601   -2.7593   23.2856 H   0  0  0  0  0  0
  -22.3947  -11.9840   22.4894 H   0  0  0  0  0  0
  -21.1074  -13.1227   22.2608 H   0  0  0  0  0  0
  -24.6509  -15.8433   20.5801 H   0  0  0  0  0  0
  -26.2625  -15.6468   20.1174 H   0  0  0  0  0  0
  -26.7244  -32.5316   23.0999 H   0  0  0  0  0  0
  -25.0226  -33.9634   25.0411 H   0  0  0  0  0  0
  -22.7369  -31.2917   21.3780 H   0  0  0  0  0  0
  -23.3753  -35.9607   23.3367 H   0  0  0  0  0  0
  -24.3572  -36.8808   22.2043 H   0  0  0  0  0  0
  -23.7313  -37.6486   23.6625 H   0  0  0  0  0  0
  -26.1505  -31.5043   20.6209 H   0  0  0  0  0  0
  -26.8549  -30.7795   22.0362 H   0  0  0  0  0  0
  -28.1236  -28.8727   21.2317 H   0  0  0  0  0  0
  -25.9059  -25.8684   19.0300 H   0  0  0  0  0  0
  -23.9766  -27.2820   19.0160 H   0  0  0  0  0  0
  -23.7896  -30.5706   19.3913 H   0  0  0  0  0  0
  -22.7821  -29.2265   19.8444 H   0  0  0  0  0  0
  -25.1337  -36.1849   25.0814 H   0  0  0  0  0  0
  -21.0000  -28.3299   24.1362 H   0  0  0  0  0  0
  -20.5717  -26.2322   23.3625 H   0  0  0  0  0  0
  -21.6666  -26.7463   22.1168 H   0  0  0  0  0  0
  -19.6939  -25.6286   21.1261 H   0  0  0  0  0  0
  -19.6721  -27.3167   20.6737 H   0  0  0  0  0  0
  -17.4230  -26.6707   21.4012 H   0  0  0  0  0  0
  -18.0344  -26.0074   22.9006 H   0  0  0  0  0  0
  -19.7953  -30.7292   24.2225 H   0  0  0  0  0  0
  -17.5028  -31.6273   24.5141 H   0  0  0  0  0  0
  -15.5358  -30.2971   23.7686 H   0  0  0  0  0  0
  -15.8701  -28.0786   22.7114 H   0  0  0  0  0  0
  -24.5924  -30.7113   25.7750 H   0  0  0  0  0  0
  -24.8983  -32.2953   26.4817 H   0  0  0  0  0  0
  -25.8079  -30.8944   27.0226 H   0  0  0  0  0  0
  -26.3009  -29.6685   24.1299 H   0  0  0  0  0  0
  -27.4008  -29.7255   25.4848 H   0  0  0  0  0  0
  -27.8917  -30.4185   23.9612 H   0  0  0  0  0  0
  -27.2635  -33.3616   26.2042 H   0  0  0  0  0  0
  -28.3903  -32.6882   25.0355 H   0  0  0  0  0  0
  -28.0715  -31.8482   26.5455 H   0  0  0  0  0  0
  -28.2622  -38.0052   24.7419 H   0  0  0  0  0  0
  -28.1035  -36.2571   24.6442 H   0  0  0  0  0  0
  -27.2266  -37.1600   25.8881 H   0  0  0  0  0  0
  -20.9437  -29.8722   21.6770 H   0  0  0  0  0  0
  -26.0173  -38.2817   24.1328 H   0  0  0  0  0  0
  -30.3663  -20.7627   18.0194 H   0  0  0  0  0  0
  -30.9777  -16.5569   18.2429 H   0  0  0  0  0  0
  -27.6171  -24.7727   18.9287 H   0  0  0  0  0  0
  -29.6851  -21.4755   21.2995 H   0  0  0  0  0  0
  -28.9862  -15.8560   21.0482 H   0  0  0  0  0  0
  -29.6600  -24.8254   21.6317 H   0  0  0  0  0  0
  1 25  1  0  0  0
  1 30  2  0  0  0
  1 81  1  0  0  0
  2  3  1  0  0  0
  2 25  1  0  0  0
  2 85  1  0  0  0
  2 86  1  0  0  0
  3  4  1  0  0  0
  3 87  1  0  0  0
  3 88  1  0  0  0
  4  5  1  0  0  0
  4 89  1  0  0  0
  4 90  1  0  0  0
  5  6  1  0  0  0
  5 26  1  0  0  0
  5 91  1  0  0  0
  6 25  1  0  0  0
  6 92  1  0  0  0
  6 93  1  0  0  0
  7  8  2  0  0  0
  7 26  1  0  0  0
  7 29  1  0  0  0
  8  9  1  0  0  0
  8 22  1  0  0  0
  9 10  1  0  0  0
  9 27  2  0  0  0
 10 11  2  0  0  0
 10 15  1  0  0  0
 11 12  1  0  0  0
 11 94  1  0  0  0
 12 13  2  0  0  0
 12 95  1  0  0  0
 13 14  1  0  0  0
 13 31  1  0  0  0
 14 15  2  0  0  0
 14 96  1  0  0  0
 15 97  1  0  0  0
 16 17  2  0  0  0
 16 21  1  0  0  0
 16 31  1  0  0  0
 17 18  1  0  0  0
 17 98  1  0  0  0
 18 19  2  0  0  0
 18 99  1  0  0  0
 19 20  1  0  0  0
 19 24  1  0  0  0
 20 21  2  0  0  0
 20100  1  0  0  0
 21 23  1  0  0  0
 22 28  1  0  0  0
 22 32  2  0  0  0
 26 27  1  0  0  0
 28101  1  0  0  0
 28102  1  0  0  0
 29103  1  0  0  0
 29104  1  0  0  0
 33 34  1  0  0  0
 33 66  1  0  0  0
 33 70  2  0  0  0
 34 36  1  0  0  0
 34 59  1  0  0  0
 34105  1  0  0  0
 35 44  2  0  0  0
 35 45  1  0  0  0
 35 68  1  0  0  0
 36 56  1  0  0  0
 36106  1  0  0  0
 37 39  1  0  0  0
 37 47  1  0  0  0
 37 66  1  0  0  0
 37107  1  0  0  0
 38 43  2  0  0  0
 38 46  1  0  0  0
 38 47  1  0  0  0
 39 64  1  0  0  0
 39 67  2  0  0  0
 40 52  1  0  0  0
 40 53  2  0  0  0
 40 58  1  0  0  0
 41108  1  0  0  0
 41109  1  0  0  0
 41110  1  0  0  0
 41 48  1  0  0  0
 42 43  1  0  0  0
 42 66  1  0  0  0
 42111  1  0  0  0
 42112  1  0  0  0
 43 44  1  0  0  0
 44113  1  0  0  0
 45 46  2  0  0  0
 45114  1  0  0  0
 46115  1  0  0  0
 47116  1  0  0  0
 47117  1  0  0  0
 48 56  1  0  0  0
 48 65  1  0  0  0
 48118  1  0  0  0
 49 50  1  0  0  0
 49 53  1  0  0  0
 49 64  1  0  0  0
 49119  1  0  0  0
 50 51  1  0  0  0
 50120  1  0  0  0
 50121  1  0  0  0
 51 52  1  0  0  0
 51122  1  0  0  0
 51123  1  0  0  0
 52124  1  0  0  0
 52125  1  0  0  0
 53 54  1  0  0  0
 54 55  2  0  0  0
 54126  1  0  0  0
 55 57  1  0  0  0
 55127  1  0  0  0
 56 69  2  0  0  0
 57 58  2  0  0  0
 57128  1  0  0  0
 58129  1  0  0  0
 59 60  1  0  0  0
 59 61  1  0  0  0
 59 62  1  0  0  0
 60130  1  0  0  0
 60131  1  0  0  0
 60132  1  0  0  0
 61133  1  0  0  0
 61134  1  0  0  0
 61135  1  0  0  0
 62136  1  0  0  0
 62137  1  0  0  0
 62138  1  0  0  0
 63 65  1  0  0  0
 63139  1  0  0  0
 63140  1  0  0  0
 63141  1  0  0  0
 64142  1  0  0  0
 65143  1  0  0  0
 68 76  1  0  0  0
 71 73  2  0  0  0
 71 74  1  0  0  0
 71144  1  0  0  0
 72 73  1  0  0  0
 72 75  2  0  0  0
 72145  1  0  0  0
 73 84  1  0  0  0
 74 79  2  0  0  0
 74 80  1  0  0  0
 75 79  1  0  0  0
 75 81  1  0  0  0
 76 77  2  0  0  0
 76146  1  0  0  0
 77 78  1  0  0  0
 77 83  1  0  0  0
 78 80  1  0  0  0
 78 82  2  0  0  0
 80147  1  0  0  0
 81148  1  0  0  0
 83149  1  0  0  0
M  ISO  4   1 100  68 101  76 101  81 100
M  END
> <chiral flag>
0

> <version>
0

> <s_m_source_file>
/data/baiqing/PycharmProjects/Reinvent-master-3.2/result/LINK_invent/BTK/process_docking_weight1_custom_product_contain_oxygen_bond_distance_aromatic_linkinvent_7_9_3/rearranged_h_0179.sdf

> <i_m_source_file_index>
93

> <r_mmod_Potential_Energy-OPLS-2005>
32.6753425598145

> <r_mmod_Stretch_Energy-OPLS-2005>
169.0439453125

> <r_mmod_Bend_Energy-OPLS-2005>
180.913543701172

> <r_mmod_Torsional_Energy-OPLS-2005>
244.457672119141

> <r_mmod_Improper_Torsional_Energy-OPLS-2005>
5.22393798828125

> <r_mmod_Van_der_Waal_Energy-OPLS-2005>
144.74739074707

> <r_mmod_Electrostatic_Energy-OPLS-2005>
-603.628356933594

> <r_mmod_Solvation_Energy-OPLS-2005>
-230.207931518555

> <b_mmod_Minimization_Converged-OPLS-2005>
0

> <r_mmod_RMS_Derivative-OPLS-2005>
5.97175073623657

$$$$
93
                    3D
 Structure written by MMmdl.
165173  0  0  1  0            999 V2000
  -30.6162  -14.7375   20.4729 C   0  0  0  0  0  0
  -30.4360  -12.4491   19.4753 C   0  0  0  0  0  0
  -29.5113  -12.5115   18.2385 C   0  0  0  0  0  0
  -28.0373  -12.3357   18.6508 C   0  0  0  0  0  0
  -27.6464  -13.2298   19.8571 C   0  0  2  0  0  0
  -28.6918  -13.1502   20.9928 C   0  0  0  0  0  0
  -25.2529  -13.8196   20.5700 C   0  0  0  0  0  0
  -24.1812  -13.0441   20.9207 C   0  0  0  0  0  0
  -24.6399  -11.6919   20.8745 C   0  0  0  0  0  0
  -23.9072  -10.4294   21.0405 C   0  0  0  0  0  0
  -24.3620   -9.4208   21.9181 C   0  0  0  0  0  0
  -23.6294   -8.2243   22.0752 C   0  0  0  0  0  0
  -22.4277   -8.0279   21.3543 C   0  0  0  0  0  0
  -21.9916   -9.0253   20.4644 C   0  0  0  0  0  0
  -22.7245  -10.2133   20.3054 C   0  0  0  0  0  0
  -21.6856   -6.0734   22.5275 C   0  0  0  0  0  0
  -21.4018   -6.5639   23.8209 C   0  0  0  0  0  0
  -21.3659   -5.6791   24.9171 C   0  0  0  0  0  0
  -21.6044   -4.3053   24.7224 C   0  0  0  0  0  0
  -21.8818   -3.8146   23.4345 C   0  0  0  0  0  0
  -21.9193   -4.6961   22.3401 C   0  0  0  0  0  0
  -22.7832  -13.5225   21.1863 C   0  0  0  0  0  0
  -22.1660   -4.2147   21.0978 F   0  0  0  0  0  0
  -21.5629   -3.4537   25.7737 F   0  0  0  0  0  0
  -29.9985  -13.5050   20.4193 N   0  0  0  0  0  0
  -26.2961  -12.9398   20.3309 N   0  0  0  0  0  0
  -25.9335  -11.6543   20.5766 N   0  0  0  0  0  0
  -22.0482  -12.8207   22.0420 N   0  0  0  0  0  0
  -25.4225  -15.1918   20.4107 N   0  0  0  0  0  0
  -31.7945  -14.8396   20.1157 O   0  0  0  0  0  0
  -21.6641   -6.8877   21.4238 O   0  0  0  0  0  0
  -22.3512  -14.5529   20.6713 O   0  0  0  0  0  0
  -24.6335  -31.8561   23.2023 C   0  0  0  0  0  0
  -25.9158  -32.4753   23.8359 C   0  0  1  0  0  0
  -27.2064  -27.2320   20.1140 C   0  0  0  0  0  0
  -25.5961  -33.8561   24.2267 N   0  0  0  0  0  0
  -23.4295  -30.4841   21.5476 C   0  0  2  0  0  0
  -24.8732  -28.9405   20.1113 C   0  0  0  0  0  0
  -22.7509  -29.4613   22.4915 C   0  0  0  0  0  0
  -18.0294  -28.1388   22.8485 C   0  0  0  0  0  0
  -24.1495  -36.7277   23.2637 C   0  0  0  0  0  0
  -25.9822  -30.7542   21.3960 C   0  0  0  0  0  0
  -26.0479  -29.3772   20.7353 C   0  0  0  0  0  0
  -27.2102  -28.5319   20.7384 C   0  0  0  0  0  0
  -26.0201  -26.9192   19.4153 C   0  0  0  0  0  0
  -24.8665  -27.7164   19.4403 C   0  0  0  0  0  0
  -23.6477  -29.8297   20.1612 C   0  0  0  0  0  0
  -25.4123  -36.3064   24.0321 C   0  0  1  0  0  0
  -20.5900  -28.3704   23.1256 C   0  0  2  0  0  0
  -20.6786  -26.9418   22.5401 C   0  0  0  0  0  0
  -19.5760  -26.6384   21.5208 C   0  0  0  0  0  0
  -18.1940  -26.7930   22.1623 C   0  0  0  0  0  0
  -19.1549  -28.8863   23.2864 C   0  0  0  0  0  0
  -18.9472  -30.1463   23.8884 C   0  0  0  0  0  0
  -17.6471  -30.6592   24.0561 C   0  0  0  0  0  0
  -25.9072  -34.9440   23.5092 C   0  0  0  0  0  0
  -16.5361  -29.9089   23.6333 C   0  0  0  0  0  0
  -16.7279  -28.6504   23.0359 C   0  0  0  0  0  0
  -26.4517  -31.6581   25.0752 C   0  0  0  0  0  0
  -25.3724  -31.3749   26.1458 C   0  0  0  0  0  0
  -27.0370  -30.2986   24.6273 C   0  0  0  0  0  0
  -27.6054  -32.4340   25.7526 C   0  0  0  0  0  0
  -27.5582  -37.1791   24.8464 C   0  0  0  0  0  0
  -21.4215  -29.3055   22.3648 N   0  0  0  0  0  0
  -26.4295  -37.3764   23.9407 N   0  0  0  0  0  0
  -24.7007  -31.0498   22.1031 N   0  0  0  0  0  0
  -23.4200  -28.8137   23.3008 O   0  0  0  0  0  0
  -28.2932  -26.3089   20.1989 O   0  0  0  0  0  0
  -26.5636  -34.8919   22.4656 O   0  0  0  0  0  0
  -23.5476  -32.1410   23.7291 O   0  0  0  0  0  0
  -30.9647  -19.2864   19.7894 C   0  0  0  0  0  0
  -29.8237  -19.9028   20.2860 C   0  0  0  0  0  0
  -30.0073  -17.3040   20.5731 C   0  0  0  0  0  0
  -29.3803  -23.9775   20.7370 C   0  0  0  0  0  0
  -32.0836  -19.9853   19.0791 C   0  0  0  0  0  0
  -27.8094  -25.1706   17.3134 C   0  0  0  0  0  0
  -30.7394  -22.1871   21.9711 C   0  0  0  0  0  0
  -28.2937  -22.0580   22.1858 C   0  0  0  0  0  0
  -26.8967  -24.0912   20.2474 C   0  0  0  0  0  0
  -28.6701  -24.5746   18.4356 C   0  0  0  0  0  0
  -29.4188  -22.3776   21.1705 C   0  0  0  0  0  0
  -28.2435  -24.7917   19.9213 C   0  0  1  0  0  0
  -31.0576  -17.8746   19.9597 N   0  0  0  0  0  0
  -29.4420  -21.3033   20.1050 N   0  0  0  0  0  0
  -29.8359  -15.8418   20.7813 N   0  0  0  0  0  0
  -30.3619  -24.6623   21.0469 O   0  0  0  0  0  0
  -28.8267  -18.6079   21.0228 S   0  0  0  0  0  0
  -31.4766  -12.5713   19.1707 H   0  0  0  0  0  0
  -30.3791  -11.4682   19.9500 H   0  0  0  0  0  0
  -29.7914  -11.7430   17.5168 H   0  0  0  0  0  0
  -29.6384  -13.4689   17.7306 H   0  0  0  0  0  0
  -27.8918  -11.2860   18.9084 H   0  0  0  0  0  0
  -27.3798  -12.5340   17.8034 H   0  0  0  0  0  0
  -27.6452  -14.2540   19.4838 H   0  0  0  0  0  0
  -28.7235  -12.1469   21.4204 H   0  0  0  0  0  0
  -28.4247  -13.8186   21.8127 H   0  0  0  0  0  0
  -25.2766   -9.5682   22.4754 H   0  0  0  0  0  0
  -24.0003   -7.4637   22.7473 H   0  0  0  0  0  0
  -21.0848   -8.8774   19.8952 H   0  0  0  0  0  0
  -22.3703  -10.9670   19.6162 H   0  0  0  0  0  0
  -21.2012   -7.6147   23.9712 H   0  0  0  0  0  0
  -21.1482   -6.0521   25.9073 H   0  0  0  0  0  0
  -22.0599   -2.7608   23.2846 H   0  0  0  0  0  0
  -22.4108  -11.9869   22.4799 H   0  0  0  0  0  0
  -21.1098  -13.1222   22.2632 H   0  0  0  0  0  0
  -24.6518  -15.8433   20.5132 H   0  0  0  0  0  0
  -26.2621  -15.6293   20.0538 H   0  0  0  0  0  0
  -26.7212  -32.5386   23.1086 H   0  0  0  0  0  0
  -25.0100  -33.9705   25.0405 H   0  0  0  0  0  0
  -22.7269  -31.3081   21.4064 H   0  0  0  0  0  0
  -23.3765  -35.9599   23.3287 H   0  0  0  0  0  0
  -24.3584  -36.8918   22.2056 H   0  0  0  0  0  0
  -23.7250  -37.6474   23.6672 H   0  0  0  0  0  0
  -26.1338  -31.5146   20.6283 H   0  0  0  0  0  0
  -26.8552  -30.7951   22.0354 H   0  0  0  0  0  0
  -28.0998  -28.8540   21.2618 H   0  0  0  0  0  0
  -25.9323  -26.0562   18.7947 H   0  0  0  0  0  0
  -23.9833  -27.3903   18.9082 H   0  0  0  0  0  0
  -23.7755  -30.6112   19.4114 H   0  0  0  0  0  0
  -22.7646  -29.2685   19.8498 H   0  0  0  0  0  0
  -25.1302  -36.1903   25.0812 H   0  0  0  0  0  0
  -20.9993  -28.3285   24.1375 H   0  0  0  0  0  0
  -20.5691  -26.2312   23.3610 H   0  0  0  0  0  0
  -21.6653  -26.7442   22.1188 H   0  0  0  0  0  0
  -19.6924  -25.6291   21.1249 H   0  0  0  0  0  0
  -19.6698  -27.3185   20.6730 H   0  0  0  0  0  0
  -17.4206  -26.6673   21.4032 H   0  0  0  0  0  0
  -18.0341  -26.0070   22.9016 H   0  0  0  0  0  0
  -19.7948  -30.7282   24.2249 H   0  0  0  0  0  0
  -17.5029  -31.6271   24.5167 H   0  0  0  0  0  0
  -15.5364  -30.2996   23.7662 H   0  0  0  0  0  0
  -15.8675  -28.0822   22.7087 H   0  0  0  0  0  0
  -24.5906  -30.7087   25.7790 H   0  0  0  0  0  0
  -24.8911  -32.2928   26.4841 H   0  0  0  0  0  0
  -25.8031  -30.8960   27.0259 H   0  0  0  0  0  0
  -26.2969  -29.6728   24.1269 H   0  0  0  0  0  0
  -27.4001  -29.7253   25.4813 H   0  0  0  0  0  0
  -27.8874  -30.4242   23.9567 H   0  0  0  0  0  0
  -27.2642  -33.3655   26.2056 H   0  0  0  0  0  0
  -28.3886  -32.6882   25.0369 H   0  0  0  0  0  0
  -28.0691  -31.8502   26.5486 H   0  0  0  0  0  0
  -28.2579  -38.0105   24.7521 H   0  0  0  0  0  0
  -28.1100  -36.2636   24.6274 H   0  0  0  0  0  0
  -27.2299  -37.1415   25.8867 H   0  0  0  0  0  0
  -20.9400  -29.8792   21.6864 H   0  0  0  0  0  0
  -26.0169  -38.2832   24.1418 H   0  0  0  0  0  0
  -31.7124  -20.7862   18.4402 H   0  0  0  0  0  0
  -32.6509  -19.3034   18.4455 H   0  0  0  0  0  0
  -32.7781  -20.4294   19.7915 H   0  0  0  0  0  0
  -28.2530  -24.9497   16.3423 H   0  0  0  0  0  0
  -27.7446  -26.2559   17.3866 H   0  0  0  0  0  0
  -26.8062  -24.7458   17.3038 H   0  0  0  0  0  0
  -30.8135  -22.8855   22.8069 H   0  0  0  0  0  0
  -31.6174  -22.3373   21.3408 H   0  0  0  0  0  0
  -30.8297  -21.1918   22.4068 H   0  0  0  0  0  0
  -28.0390  -22.9263   22.7951 H   0  0  0  0  0  0
  -28.5828  -21.2680   22.8798 H   0  0  0  0  0  0
  -27.3810  -21.7023   21.7110 H   0  0  0  0  0  0
  -26.0604  -24.3030   19.5983 H   0  0  0  0  0  0
  -26.9884  -23.0189   20.1004 H   0  0  0  0  0  0
  -26.5817  -24.2777   21.2736 H   0  0  0  0  0  0
  -29.6818  -24.9631   18.3050 H   0  0  0  0  0  0
  -28.7487  -23.5036   18.2415 H   0  0  0  0  0  0
  -29.8680  -21.6661   19.2569 H   0  0  0  0  0  0
  -28.9241  -15.5892   21.1274 H   0  0  0  0  0  0
  1 25  1  0  0  0
  1 30  2  0  0  0
  1 85  1  0  0  0
  2  3  1  0  0  0
  2 25  1  0  0  0
  2 88  1  0  0  0
  2 89  1  0  0  0
  3  4  1  0  0  0
  3 90  1  0  0  0
  3 91  1  0  0  0
  4  5  1  0  0  0
  4 92  1  0  0  0
  4 93  1  0  0  0
  5  6  1  0  0  0
  5 26  1  0  0  0
  5 94  1  0  0  0
  6 25  1  0  0  0
  6 95  1  0  0  0
  6 96  1  0  0  0
  7  8  2  0  0  0
  7 26  1  0  0  0
  7 29  1  0  0  0
  8  9  1  0  0  0
  8 22  1  0  0  0
  9 10  1  0  0  0
  9 27  2  0  0  0
 10 11  2  0  0  0
 10 15  1  0  0  0
 11 12  1  0  0  0
 11 97  1  0  0  0
 12 13  2  0  0  0
 12 98  1  0  0  0
 13 14  1  0  0  0
 13 31  1  0  0  0
 14 15  2  0  0  0
 14 99  1  0  0  0
 15100  1  0  0  0
 16 17  2  0  0  0
 16 21  1  0  0  0
 16 31  1  0  0  0
 17 18  1  0  0  0
 17101  1  0  0  0
 18 19  2  0  0  0
 18102  1  0  0  0
 19 20  1  0  0  0
 19 24  1  0  0  0
 20 21  2  0  0  0
 20103  1  0  0  0
 21 23  1  0  0  0
 22 28  1  0  0  0
 22 32  2  0  0  0
 26 27  1  0  0  0
 28104  1  0  0  0
 28105  1  0  0  0
 29106  1  0  0  0
 29107  1  0  0  0
 33 34  1  0  0  0
 33 66  1  0  0  0
 33 70  2  0  0  0
 34 36  1  0  0  0
 34 59  1  0  0  0
 34108  1  0  0  0
 35 44  2  0  0  0
 35 45  1  0  0  0
 35 68  1  0  0  0
 36 56  1  0  0  0
 36109  1  0  0  0
 37 39  1  0  0  0
 37 47  1  0  0  0
 37 66  1  0  0  0
 37110  1  0  0  0
 38 43  2  0  0  0
 38 46  1  0  0  0
 38 47  1  0  0  0
 39 64  1  0  0  0
 39 67  2  0  0  0
 40 52  1  0  0  0
 40 53  2  0  0  0
 40 58  1  0  0  0
 41111  1  0  0  0
 41112  1  0  0  0
 41113  1  0  0  0
 41 48  1  0  0  0
 42 43  1  0  0  0
 42 66  1  0  0  0
 42114  1  0  0  0
 42115  1  0  0  0
 43 44  1  0  0  0
 44116  1  0  0  0
 45 46  2  0  0  0
 45117  1  0  0  0
 46118  1  0  0  0
 47119  1  0  0  0
 47120  1  0  0  0
 48 56  1  0  0  0
 48 65  1  0  0  0
 48121  1  0  0  0
 49 50  1  0  0  0
 49 53  1  0  0  0
 49 64  1  0  0  0
 49122  1  0  0  0
 50 51  1  0  0  0
 50123  1  0  0  0
 50124  1  0  0  0
 51 52  1  0  0  0
 51125  1  0  0  0
 51126  1  0  0  0
 52127  1  0  0  0
 52128  1  0  0  0
 53 54  1  0  0  0
 54 55  2  0  0  0
 54129  1  0  0  0
 55 57  1  0  0  0
 55130  1  0  0  0
 56 69  2  0  0  0
 57 58  2  0  0  0
 57131  1  0  0  0
 58132  1  0  0  0
 59 60  1  0  0  0
 59 61  1  0  0  0
 59 62  1  0  0  0
 60133  1  0  0  0
 60134  1  0  0  0
 60135  1  0  0  0
 61136  1  0  0  0
 61137  1  0  0  0
 61138  1  0  0  0
 62139  1  0  0  0
 62140  1  0  0  0
 62141  1  0  0  0
 63 65  1  0  0  0
 63142  1  0  0  0
 63143  1  0  0  0
 63144  1  0  0  0
 64145  1  0  0  0
 65146  1  0  0  0
 68 82  1  0  0  0
 71 72  2  0  0  0
 71 75  1  0  0  0
 71 83  1  0  0  0
 72 84  1  0  0  0
 72 87  1  0  0  0
 73 83  2  0  0  0
 73 85  1  0  0  0
 73 87  1  0  0  0
 74 81  1  0  0  0
 74 86  2  0  0  0
 74 82  1  0  0  0
 75147  1  0  0  0
 75148  1  0  0  0
 75149  1  0  0  0
 76 80  1  0  0  0
 76150  1  0  0  0
 76151  1  0  0  0
 76152  1  0  0  0
 77153  1  0  0  0
 77154  1  0  0  0
 77155  1  0  0  0
 77 81  1  0  0  0
 78 81  1  0  0  0
 78156  1  0  0  0
 78157  1  0  0  0
 78158  1  0  0  0
 79159  1  0  0  0
 79160  1  0  0  0
 79161  1  0  0  0
 79 82  1  0  0  0
 80 82  1  0  0  0
 80162  1  0  0  0
 80163  1  0  0  0
 81 84  1  0  0  0
 84164  1  0  0  0
 85165  1  0  0  0
M  ISO  4   1 100  68 101  82 101  85 100
M  END
> <chiral flag>
0

> <version>
0

> <s_m_source_file>
/data/baiqing/PycharmProjects/Reinvent-master-3.2/result/LINK_invent/BTK/process_docking_weight1_custom_product_contain_oxygen_bond_distance_aromatic_linkinvent_7_9_3/rearranged_h_0179.sdf

> <i_m_source_file_index>
94

> <r_mmod_Potential_Energy-OPLS-2005>
342.559906005859

> <r_mmod_Stretch_Energy-OPLS-2005>
152.66081237793

> <r_mmod_Bend_Energy-OPLS-2005>
225.918197631836

> <r_mmod_Torsional_Energy-OPLS-2005>
242.321502685547

> <r_mmod_Improper_Torsional_Energy-OPLS-2005>
8.2875280380249

> <r_mmod_Van_der_Waal_Energy-OPLS-2005>
139.430969238281

> <r_mmod_Electrostatic_Energy-OPLS-2005>
-281.065704345703

> <r_mmod_Solvation_Energy-OPLS-2005>
-237.106414794922

> <b_mmod_Minimization_Converged-OPLS-2005>
0

> <r_mmod_RMS_Derivative-OPLS-2005>
0.727635025978088

$$$$
94
                    3D
 Structure written by MMmdl.
149157  0  0  1  0            999 V2000
  -30.5896  -14.7002   20.4907 C   0  0  0  0  0  0
  -30.4470  -12.4300   19.4615 C   0  0  0  0  0  0
  -29.5142  -12.5143   18.2311 C   0  0  0  0  0  0
  -28.0380  -12.3400   18.6425 C   0  0  0  0  0  0
  -27.6525  -13.2179   19.8622 C   0  0  2  0  0  0
  -28.6974  -13.0917   20.9944 C   0  0  0  0  0  0
  -25.2562  -13.8167   20.5681 C   0  0  0  0  0  0
  -24.1832  -13.0435   20.9198 C   0  0  0  0  0  0
  -24.6399  -11.6905   20.8742 C   0  0  0  0  0  0
  -23.9066  -10.4290   21.0405 C   0  0  0  0  0  0
  -24.3617   -9.4205   21.9183 C   0  0  0  0  0  0
  -23.6289   -8.2244   22.0755 C   0  0  0  0  0  0
  -22.4272   -8.0281   21.3546 C   0  0  0  0  0  0
  -21.9905   -9.0256   20.4649 C   0  0  0  0  0  0
  -22.7236  -10.2134   20.3057 C   0  0  0  0  0  0
  -21.6855   -6.0732   22.5277 C   0  0  0  0  0  0
  -21.4017   -6.5637   23.8209 C   0  0  0  0  0  0
  -21.3658   -5.6790   24.9172 C   0  0  0  0  0  0
  -21.6042   -4.3053   24.7224 C   0  0  0  0  0  0
  -21.8820   -3.8144   23.4345 C   0  0  0  0  0  0
  -21.9193   -4.6960   22.3401 C   0  0  0  0  0  0
  -22.7855  -13.5232   21.1854 C   0  0  0  0  0  0
  -22.1662   -4.2146   21.0979 F   0  0  0  0  0  0
  -21.5626   -3.4537   25.7737 F   0  0  0  0  0  0
  -30.0074  -13.4562   20.4311 N   0  0  0  0  0  0
  -26.2986  -12.9347   20.3307 N   0  0  0  0  0  0
  -25.9328  -11.6503   20.5753 N   0  0  0  0  0  0
  -22.0492  -12.8231   22.0409 N   0  0  0  0  0  0
  -25.4272  -15.1889   20.4071 N   0  0  0  0  0  0
  -31.7477  -14.8804   20.1035 O   0  0  0  0  0  0
  -21.6640   -6.8876   21.4239 O   0  0  0  0  0  0
  -22.3543  -14.5536   20.6694 O   0  0  0  0  0  0
  -24.6283  -31.8571   23.2004 C   0  0  0  0  0  0
  -25.9119  -32.4765   23.8344 C   0  0  1  0  0  0
  -27.2270  -27.2915   20.1278 C   0  0  0  0  0  0
  -25.5923  -33.8566   24.2270 N   0  0  0  0  0  0
  -23.4248  -30.4788   21.5430 C   0  0  2  0  0  0
  -24.8745  -28.9283   20.1118 C   0  0  0  0  0  0
  -22.7491  -29.4604   22.4924 C   0  0  0  0  0  0
  -18.0288  -28.1387   22.8486 C   0  0  0  0  0  0
  -24.1489  -36.7290   23.2637 C   0  0  0  0  0  0
  -25.9678  -30.7784   21.3775 C   0  0  0  0  0  0
  -26.0434  -29.4018   20.7228 C   0  0  0  0  0  0
  -27.2232  -28.5941   20.7235 C   0  0  0  0  0  0
  -26.0394  -26.8805   19.4840 C   0  0  0  0  0  0
  -24.8751  -27.6732   19.4831 C   0  0  0  0  0  0
  -23.6430  -29.8116   20.1592 C   0  0  0  0  0  0
  -25.4112  -36.3076   24.0329 C   0  0  1  0  0  0
  -20.5889  -28.3693   23.1277 C   0  0  2  0  0  0
  -20.6777  -26.9413   22.5408 C   0  0  0  0  0  0
  -19.5752  -26.6383   21.5212 C   0  0  0  0  0  0
  -18.1932  -26.7929   22.1626 C   0  0  0  0  0  0
  -19.1541  -28.8858   23.2875 C   0  0  0  0  0  0
  -18.9463  -30.1458   23.8894 C   0  0  0  0  0  0
  -17.6462  -30.6588   24.0561 C   0  0  0  0  0  0
  -25.9051  -34.9445   23.5103 C   0  0  0  0  0  0
  -16.5353  -29.9085   23.6329 C   0  0  0  0  0  0
  -16.7274  -28.6502   23.0353 C   0  0  0  0  0  0
  -26.4496  -31.6582   25.0722 C   0  0  0  0  0  0
  -25.3725  -31.3736   26.1450 C   0  0  0  0  0  0
  -27.0334  -30.2997   24.6196 C   0  0  0  0  0  0
  -27.6056  -32.4316   25.7491 C   0  0  0  0  0  0
  -27.5582  -37.1795   24.8460 C   0  0  0  0  0  0
  -21.4200  -29.3042   22.3669 N   0  0  0  0  0  0
  -26.4288  -37.3774   23.9412 N   0  0  0  0  0  0
  -24.6924  -31.0554   22.0971 N   0  0  0  0  0  0
  -23.4199  -28.8145   23.3017 O   0  0  0  0  0  0
  -28.3239  -26.4076   20.1485 O   0  0  0  0  0  0
  -26.5623  -34.8917   22.4672 O   0  0  0  0  0  0
  -23.5439  -32.1383   23.7311 O   0  0  0  0  0  0
  -30.8256  -17.9884   20.0999 C   0  0  0  0  0  0
  -28.6807  -17.9878   21.1175 C   0  0  0  0  0  0
  -29.7907  -17.2101   20.6858 C   0  0  0  0  0  0
  -30.6985  -19.4125   19.9790 C   0  0  0  0  0  0
  -29.5374  -20.1040   20.4383 C   0  0  0  0  0  0
  -28.1001  -25.0329   20.4384 C   0  0  0  0  0  0
  -28.9377  -23.9592   20.1961 C   0  0  0  0  0  0
  -28.5742  -22.5405   20.5605 C   0  0  0  0  0  0
  -28.5526  -19.3483   21.0048 N   0  0  0  0  0  0
  -29.7592  -15.7382   20.8546 N   0  0  0  0  0  0
  -29.5046  -21.5691   20.2582 N   0  0  0  0  0  0
  -27.5023  -22.2552   21.1008 O   0  0  0  0  0  0
  -30.1240  -24.1831   19.6120 O   0  0  0  0  0  0
  -31.7048  -20.1217   19.4100 F   0  0  0  0  0  0
  -31.4855  -12.5721   19.1576 H   0  0  0  0  0  0
  -30.4009  -11.4380   19.9135 H   0  0  0  0  0  0
  -29.7894  -11.7566   17.4961 H   0  0  0  0  0  0
  -29.6448  -13.4791   17.7382 H   0  0  0  0  0  0
  -27.8852  -11.2873   18.8834 H   0  0  0  0  0  0
  -27.3824  -12.5563   17.7980 H   0  0  0  0  0  0
  -27.6639  -14.2496   19.5105 H   0  0  0  0  0  0
  -28.7242  -12.0719   21.3814 H   0  0  0  0  0  0
  -28.4320  -13.7231   21.8438 H   0  0  0  0  0  0
  -25.2763   -9.5679   22.4754 H   0  0  0  0  0  0
  -23.9998   -7.4635   22.7475 H   0  0  0  0  0  0
  -21.0835   -8.8775   19.8957 H   0  0  0  0  0  0
  -22.3695  -10.9672   19.6165 H   0  0  0  0  0  0
  -21.2013   -7.6145   23.9711 H   0  0  0  0  0  0
  -21.1478   -6.0521   25.9073 H   0  0  0  0  0  0
  -22.0601   -2.7605   23.2849 H   0  0  0  0  0  0
  -22.4102  -11.9894   22.4806 H   0  0  0  0  0  0
  -21.1110  -13.1264   22.2609 H   0  0  0  0  0  0
  -24.6516  -15.8365   20.4955 H   0  0  0  0  0  0
  -26.2569  -15.6182   20.0194 H   0  0  0  0  0  0
  -26.7186  -32.5430   23.1090 H   0  0  0  0  0  0
  -25.0059  -33.9706   25.0408 H   0  0  0  0  0  0
  -22.7198  -31.2998   21.3972 H   0  0  0  0  0  0
  -23.3755  -35.9618   23.3286 H   0  0  0  0  0  0
  -24.3584  -36.8925   22.2055 H   0  0  0  0  0  0
  -23.7235  -37.6485   23.6669 H   0  0  0  0  0  0
  -26.1015  -31.5390   20.6071 H   0  0  0  0  0  0
  -26.8471  -30.8300   22.0079 H   0  0  0  0  0  0
  -28.1200  -28.9503   21.2110 H   0  0  0  0  0  0
  -26.0013  -25.9189   18.9922 H   0  0  0  0  0  0
  -23.9815  -27.3060   18.9973 H   0  0  0  0  0  0
  -23.7643  -30.5873   19.4022 H   0  0  0  0  0  0
  -22.7627  -29.2420   19.8559 H   0  0  0  0  0  0
  -25.1289  -36.1927   25.0822 H   0  0  0  0  0  0
  -20.9976  -28.3270   24.1399 H   0  0  0  0  0  0
  -20.5680  -26.2300   23.3609 H   0  0  0  0  0  0
  -21.6647  -26.7444   22.1201 H   0  0  0  0  0  0
  -19.6913  -25.6293   21.1243 H   0  0  0  0  0  0
  -19.6686  -27.3192   20.6741 H   0  0  0  0  0  0
  -17.4199  -26.6669   21.4033 H   0  0  0  0  0  0
  -18.0337  -26.0074   22.9027 H   0  0  0  0  0  0
  -19.7938  -30.7276   24.2262 H   0  0  0  0  0  0
  -17.5016  -31.6269   24.5161 H   0  0  0  0  0  0
  -15.5354  -30.2987   23.7656 H   0  0  0  0  0  0
  -15.8673  -28.0819   22.7073 H   0  0  0  0  0  0
  -24.5872  -30.7120   25.7776 H   0  0  0  0  0  0
  -24.8953  -32.2912   26.4899 H   0  0  0  0  0  0
  -25.8037  -30.8881   27.0213 H   0  0  0  0  0  0
  -26.2910  -29.6747   24.1216 H   0  0  0  0  0  0
  -27.4013  -29.7256   25.4712 H   0  0  0  0  0  0
  -27.8792  -30.4270   23.9435 H   0  0  0  0  0  0
  -27.2669  -33.3621   26.2063 H   0  0  0  0  0  0
  -28.3867  -32.6868   25.0317 H   0  0  0  0  0  0
  -28.0720  -31.8443   26.5411 H   0  0  0  0  0  0
  -28.2583  -38.0109   24.7530 H   0  0  0  0  0  0
  -28.1094  -36.2642   24.6252 H   0  0  0  0  0  0
  -27.2305  -37.1405   25.8863 H   0  0  0  0  0  0
  -20.9382  -29.8763   21.6874 H   0  0  0  0  0  0
  -26.0169  -38.2845   24.1425 H   0  0  0  0  0  0
  -31.7207  -17.5108   19.7313 H   0  0  0  0  0  0
  -27.8365  -17.4918   21.5740 H   0  0  0  0  0  0
  -27.1390  -24.8821   20.9139 H   0  0  0  0  0  0
  -28.8836  -15.3906   21.2182 H   0  0  0  0  0  0
  -30.3338  -21.9437   19.8186 H   0  0  0  0  0  0
  -30.1808  -25.1182   19.4581 H   0  0  0  0  0  0
  1 25  1  0  0  0
  1 30  2  0  0  0
  1 80  1  0  0  0
  2  3  1  0  0  0
  2 25  1  0  0  0
  2 85  1  0  0  0
  2 86  1  0  0  0
  3  4  1  0  0  0
  3 87  1  0  0  0
  3 88  1  0  0  0
  4  5  1  0  0  0
  4 89  1  0  0  0
  4 90  1  0  0  0
  5  6  1  0  0  0
  5 26  1  0  0  0
  5 91  1  0  0  0
  6 25  1  0  0  0
  6 92  1  0  0  0
  6 93  1  0  0  0
  7  8  2  0  0  0
  7 26  1  0  0  0
  7 29  1  0  0  0
  8  9  1  0  0  0
  8 22  1  0  0  0
  9 10  1  0  0  0
  9 27  2  0  0  0
 10 11  2  0  0  0
 10 15  1  0  0  0
 11 12  1  0  0  0
 11 94  1  0  0  0
 12 13  2  0  0  0
 12 95  1  0  0  0
 13 14  1  0  0  0
 13 31  1  0  0  0
 14 15  2  0  0  0
 14 96  1  0  0  0
 15 97  1  0  0  0
 16 17  2  0  0  0
 16 21  1  0  0  0
 16 31  1  0  0  0
 17 18  1  0  0  0
 17 98  1  0  0  0
 18 19  2  0  0  0
 18 99  1  0  0  0
 19 20  1  0  0  0
 19 24  1  0  0  0
 20 21  2  0  0  0
 20100  1  0  0  0
 21 23  1  0  0  0
 22 28  1  0  0  0
 22 32  2  0  0  0
 26 27  1  0  0  0
 28101  1  0  0  0
 28102  1  0  0  0
 29103  1  0  0  0
 29104  1  0  0  0
 33 34  1  0  0  0
 33 66  1  0  0  0
 33 70  2  0  0  0
 34 36  1  0  0  0
 34 59  1  0  0  0
 34105  1  0  0  0
 35 44  2  0  0  0
 35 45  1  0  0  0
 35 68  1  0  0  0
 36 56  1  0  0  0
 36106  1  0  0  0
 37 39  1  0  0  0
 37 47  1  0  0  0
 37 66  1  0  0  0
 37107  1  0  0  0
 38 43  2  0  0  0
 38 46  1  0  0  0
 38 47  1  0  0  0
 39 64  1  0  0  0
 39 67  2  0  0  0
 40 52  1  0  0  0
 40 53  2  0  0  0
 40 58  1  0  0  0
 41108  1  0  0  0
 41109  1  0  0  0
 41110  1  0  0  0
 41 48  1  0  0  0
 42 43  1  0  0  0
 42 66  1  0  0  0
 42111  1  0  0  0
 42112  1  0  0  0
 43 44  1  0  0  0
 44113  1  0  0  0
 45 46  2  0  0  0
 45114  1  0  0  0
 46115  1  0  0  0
 47116  1  0  0  0
 47117  1  0  0  0
 48 56  1  0  0  0
 48 65  1  0  0  0
 48118  1  0  0  0
 49 50  1  0  0  0
 49 53  1  0  0  0
 49 64  1  0  0  0
 49119  1  0  0  0
 50 51  1  0  0  0
 50120  1  0  0  0
 50121  1  0  0  0
 51 52  1  0  0  0
 51122  1  0  0  0
 51123  1  0  0  0
 52124  1  0  0  0
 52125  1  0  0  0
 53 54  1  0  0  0
 54 55  2  0  0  0
 54126  1  0  0  0
 55 57  1  0  0  0
 55127  1  0  0  0
 56 69  2  0  0  0
 57 58  2  0  0  0
 57128  1  0  0  0
 58129  1  0  0  0
 59 60  1  0  0  0
 59 61  1  0  0  0
 59 62  1  0  0  0
 60130  1  0  0  0
 60131  1  0  0  0
 60132  1  0  0  0
 61133  1  0  0  0
 61134  1  0  0  0
 61135  1  0  0  0
 62136  1  0  0  0
 62137  1  0  0  0
 62138  1  0  0  0
 63 65  1  0  0  0
 63139  1  0  0  0
 63140  1  0  0  0
 63141  1  0  0  0
 64142  1  0  0  0
 65143  1  0  0  0
 68 76  1  0  0  0
 71 73  2  0  0  0
 71 74  1  0  0  0
 71144  1  0  0  0
 72 73  1  0  0  0
 72 79  2  0  0  0
 72145  1  0  0  0
 73 80  1  0  0  0
 74 75  2  0  0  0
 74 84  1  0  0  0
 75 79  1  0  0  0
 75 81  1  0  0  0
 76 77  2  0  0  0
 76146  1  0  0  0
 77 78  1  0  0  0
 77 83  1  0  0  0
 78 81  1  0  0  0
 78 82  2  0  0  0
 80147  1  0  0  0
 81148  1  0  0  0
 83149  1  0  0  0
M  ISO  4   1 100  68 101  76 101  80 100
M  END
> <chiral flag>
0

> <version>
0

> <s_m_source_file>
/data/baiqing/PycharmProjects/Reinvent-master-3.2/result/LINK_invent/BTK/process_docking_weight1_custom_product_contain_oxygen_bond_distance_aromatic_linkinvent_7_9_3/rearranged_h_0179.sdf

> <i_m_source_file_index>
95

> <r_mmod_Potential_Energy-OPLS-2005>
-153.889251708984

> <r_mmod_Stretch_Energy-OPLS-2005>
92.8927536010742

> <r_mmod_Bend_Energy-OPLS-2005>
146.847702026367

> <r_mmod_Torsional_Energy-OPLS-2005>
197.890487670898

> <r_mmod_Improper_Torsional_Energy-OPLS-2005>
3.99383687973022

> <r_mmod_Van_der_Waal_Energy-OPLS-2005>
145.466796875

> <r_mmod_Electrostatic_Energy-OPLS-2005>
-571.767456054688

> <r_mmod_Solvation_Energy-OPLS-2005>
-236.277984619141

> <b_mmod_Minimization_Converged-OPLS-2005>
0

> <r_mmod_RMS_Derivative-OPLS-2005>
0.38497605919838

$$$$
95
                    3D
 Structure written by MMmdl.
159168  0  0  1  0            999 V2000
  -30.6852  -14.5282   20.5303 C   0  0  0  0  0  0
  -30.4204  -12.3264   19.4385 C   0  0  0  0  0  0
  -29.4967  -12.4973   18.2143 C   0  0  0  0  0  0
  -28.0183  -12.3545   18.6251 C   0  0  0  0  0  0
  -27.6560  -13.2122   19.8670 C   0  0  2  0  0  0
  -28.6985  -13.0333   20.9944 C   0  0  0  0  0  0
  -25.2570  -13.8173   20.5676 C   0  0  0  0  0  0
  -24.1831  -13.0441   20.9184 C   0  0  0  0  0  0
  -24.6393  -11.6908   20.8739 C   0  0  0  0  0  0
  -23.9061  -10.4293   21.0404 C   0  0  0  0  0  0
  -24.3614   -9.4210   21.9183 C   0  0  0  0  0  0
  -23.6289   -8.2243   22.0759 C   0  0  0  0  0  0
  -22.4273   -8.0280   21.3543 C   0  0  0  0  0  0
  -21.9903   -9.0255   20.4643 C   0  0  0  0  0  0
  -22.7232  -10.2133   20.3053 C   0  0  0  0  0  0
  -21.6855   -6.0735   22.5279 C   0  0  0  0  0  0
  -21.4011   -6.5640   23.8212 C   0  0  0  0  0  0
  -21.3659   -5.6793   24.9175 C   0  0  0  0  0  0
  -21.6042   -4.3056   24.7225 C   0  0  0  0  0  0
  -21.8819   -3.8147   23.4345 C   0  0  0  0  0  0
  -21.9192   -4.6962   22.3401 C   0  0  0  0  0  0
  -22.7852  -13.5237   21.1840 C   0  0  0  0  0  0
  -22.1662   -4.2148   21.0979 F   0  0  0  0  0  0
  -21.5627   -3.4539   25.7737 F   0  0  0  0  0  0
  -30.0251  -13.3370   20.4361 N   0  0  0  0  0  0
  -26.3000  -12.9348   20.3334 N   0  0  0  0  0  0
  -25.9318  -11.6504   20.5760 N   0  0  0  0  0  0
  -22.0491  -12.8235   22.0397 N   0  0  0  0  0  0
  -25.4288  -15.1893   20.4073 N   0  0  0  0  0  0
  -31.8397  -14.6547   20.1111 O   0  0  0  0  0  0
  -21.6639   -6.8875   21.4237 O   0  0  0  0  0  0
  -22.3541  -14.5543   20.6690 O   0  0  0  0  0  0
  -24.6173  -31.8659   23.2062 C   0  0  0  0  0  0
  -25.9055  -32.4814   23.8368 C   0  0  1  0  0  0
  -27.2346  -27.4134   20.1081 C   0  0  0  0  0  0
  -25.5908  -33.8611   24.2309 N   0  0  0  0  0  0
  -23.4067  -30.4876   21.5465 C   0  0  2  0  0  0
  -24.8566  -28.9473   20.1158 C   0  0  0  0  0  0
  -22.7424  -29.4648   22.4972 C   0  0  0  0  0  0
  -18.0271  -28.1390   22.8483 C   0  0  0  0  0  0
  -24.1496  -36.7297   23.2641 C   0  0  0  0  0  0
  -25.9378  -30.8261   21.3621 C   0  0  0  0  0  0
  -26.0171  -29.4566   20.7138 C   0  0  0  0  0  0
  -27.2125  -28.6979   20.7050 C   0  0  0  0  0  0
  -26.0616  -26.9212   19.5034 C   0  0  0  0  0  0
  -24.8747  -27.6800   19.5060 C   0  0  0  0  0  0
  -23.6183  -29.8154   20.1631 C   0  0  0  0  0  0
  -25.4114  -36.3099   24.0338 C   0  0  1  0  0  0
  -20.5866  -28.3670   23.1311 C   0  0  2  0  0  0
  -20.6767  -26.9406   22.5418 C   0  0  0  0  0  0
  -19.5748  -26.6389   21.5218 C   0  0  0  0  0  0
  -18.1922  -26.7939   22.1616 C   0  0  0  0  0  0
  -19.1525  -28.8843   23.2897 C   0  0  0  0  0  0
  -18.9456  -30.1450   23.8905 C   0  0  0  0  0  0
  -17.6459  -30.6593   24.0567 C   0  0  0  0  0  0
  -25.9033  -34.9467   23.5115 C   0  0  0  0  0  0
  -16.5345  -29.9098   23.6332 C   0  0  0  0  0  0
  -16.7258  -28.6518   23.0345 C   0  0  0  0  0  0
  -26.4477  -31.6598   25.0702 C   0  0  0  0  0  0
  -25.3733  -31.3712   26.1444 C   0  0  0  0  0  0
  -27.0310  -30.3040   24.6071 C   0  0  0  0  0  0
  -27.6045  -32.4322   25.7475 C   0  0  0  0  0  0
  -27.5582  -37.1804   24.8467 C   0  0  0  0  0  0
  -21.4148  -29.3040   22.3718 N   0  0  0  0  0  0
  -26.4296  -37.3788   23.9408 N   0  0  0  0  0  0
  -24.6723  -31.0745   22.0967 N   0  0  0  0  0  0
  -23.4196  -28.8189   23.3015 O   0  0  0  0  0  0
  -28.3712  -26.6331   20.0935 O   0  0  0  0  0  0
  -26.5598  -34.8924   22.4679 O   0  0  0  0  0  0
  -23.5358  -32.1415   23.7443 O   0  0  0  0  0  0
  -28.3559  -20.8640   25.6119 C   0  0  0  0  0  0
  -27.7319  -20.8844   24.3336 C   0  0  0  0  0  0
  -31.3595  -18.9136   20.3820 C   0  0  0  0  0  0
  -28.8808  -22.1112   25.7974 C   0  0  0  0  0  0
  -30.2833  -19.4917   21.0124 C   0  0  0  0  0  0
  -27.9251  -22.1416   23.8305 C   0  0  0  0  0  0
  -30.2108  -16.9933   20.8769 C   0  0  0  0  0  0
  -30.1195  -20.8904   21.4994 C   0  0  0  0  0  0
  -28.5210  -24.1477   20.5393 C   0  0  0  0  0  0
  -27.5578  -22.8093   22.5433 C   0  0  0  0  0  0
  -28.3905  -25.5952   21.1012 C   0  0  0  0  0  0
  -28.7548  -23.0033   21.5785 C   0  0  1  0  0  0
  -31.2992  -17.5125   20.2907 N   0  0  0  0  0  0
  -29.9479  -15.5801   20.9696 N   0  0  0  0  0  0
  -29.1497  -21.6856   20.9995 N   0  0  0  0  0  0
  -30.9063  -21.2981   22.3549 O   0  0  0  0  0  0
  -28.4344  -23.9346   19.3245 O   0  0  0  0  0  0
  -28.6277  -22.9013   24.7180 O   0  0  0  0  0  0
  -29.1325  -18.2571   21.5149 S   0  0  0  0  0  0
  -31.4655  -12.4169   19.1375 H   0  0  0  0  0  0
  -30.3197  -11.3238   19.8573 H   0  0  0  0  0  0
  -29.7433  -11.7595   17.4495 H   0  0  0  0  0  0
  -29.6612  -13.4759   17.7596 H   0  0  0  0  0  0
  -27.8372  -11.3003   18.8391 H   0  0  0  0  0  0
  -27.3672  -12.6095   17.7878 H   0  0  0  0  0  0
  -27.6869  -14.2533   19.5452 H   0  0  0  0  0  0
  -28.6818  -12.0086   21.3688 H   0  0  0  0  0  0
  -28.4577  -13.6625   21.8523 H   0  0  0  0  0  0
  -25.2762   -9.5685   22.4755 H   0  0  0  0  0  0
  -24.0000   -7.4634   22.7479 H   0  0  0  0  0  0
  -21.0839   -8.8768   19.8948 H   0  0  0  0  0  0
  -22.3696  -10.9668   19.6160 H   0  0  0  0  0  0
  -21.2005   -7.6150   23.9713 H   0  0  0  0  0  0
  -21.1477   -6.0526   25.9076 H   0  0  0  0  0  0
  -22.0597   -2.7607   23.2847 H   0  0  0  0  0  0
  -22.4096  -11.9892   22.4791 H   0  0  0  0  0  0
  -21.1107  -13.1266   22.2591 H   0  0  0  0  0  0
  -24.6581  -15.8413   20.5046 H   0  0  0  0  0  0
  -26.2719  -15.6253   20.0569 H   0  0  0  0  0  0
  -26.7129  -32.5516   23.1135 H   0  0  0  0  0  0
  -25.0108  -33.9779   25.0489 H   0  0  0  0  0  0
  -22.6956  -31.3039   21.4026 H   0  0  0  0  0  0
  -23.3765  -35.9624   23.3310 H   0  0  0  0  0  0
  -24.3591  -36.8901   22.2054 H   0  0  0  0  0  0
  -23.7242  -37.6499   23.6646 H   0  0  0  0  0  0
  -26.0514  -31.5885   20.5900 H   0  0  0  0  0  0
  -26.8260  -30.8827   21.9795 H   0  0  0  0  0  0
  -28.1099  -29.0881   21.1649 H   0  0  0  0  0  0
  -26.0676  -25.9475   19.0335 H   0  0  0  0  0  0
  -23.9836  -27.2822   19.0406 H   0  0  0  0  0  0
  -23.7271  -30.5871   19.4005 H   0  0  0  0  0  0
  -22.7429  -29.2340   19.8673 H   0  0  0  0  0  0
  -25.1302  -36.1953   25.0833 H   0  0  0  0  0  0
  -20.9949  -28.3236   24.1433 H   0  0  0  0  0  0
  -20.5678  -26.2279   23.3605 H   0  0  0  0  0  0
  -21.6635  -26.7458   22.1199 H   0  0  0  0  0  0
  -19.6910  -25.6306   21.1236 H   0  0  0  0  0  0
  -19.6692  -27.3204   20.6756 H   0  0  0  0  0  0
  -17.4197  -26.6688   21.4013 H   0  0  0  0  0  0
  -18.0306  -26.0085   22.9010 H   0  0  0  0  0  0
  -19.7937  -30.7263   24.2273 H   0  0  0  0  0  0
  -17.5022  -31.6274   24.5171 H   0  0  0  0  0  0
  -15.5350  -30.3009   23.7665 H   0  0  0  0  0  0
  -15.8655  -28.0850   22.7054 H   0  0  0  0  0  0
  -24.5908  -30.7058   25.7783 H   0  0  0  0  0  0
  -24.8927  -32.2877   26.4875 H   0  0  0  0  0  0
  -25.8083  -30.8892   27.0209 H   0  0  0  0  0  0
  -26.2852  -29.6801   24.1131 H   0  0  0  0  0  0
  -27.4110  -29.7266   25.4510 H   0  0  0  0  0  0
  -27.8671  -30.4383   23.9204 H   0  0  0  0  0  0
  -27.2653  -33.3619   26.2059 H   0  0  0  0  0  0
  -28.3854  -32.6890   25.0303 H   0  0  0  0  0  0
  -28.0711  -31.8440   26.5388 H   0  0  0  0  0  0
  -28.2603  -38.0103   24.7519 H   0  0  0  0  0  0
  -28.1083  -36.2631   24.6293 H   0  0  0  0  0  0
  -27.2299  -37.1444   25.8873 H   0  0  0  0  0  0
  -20.9306  -29.8763   21.6942 H   0  0  0  0  0  0
  -26.0182  -38.2867   24.1410 H   0  0  0  0  0  0
  -28.4177  -20.0397   26.3091 H   0  0  0  0  0  0
  -27.2148  -20.0748   23.8367 H   0  0  0  0  0  0
  -32.2409  -19.4236   20.0190 H   0  0  0  0  0  0
  -29.4386  -22.5799   26.5978 H   0  0  0  0  0  0
  -27.1030  -23.7682   22.7895 H   0  0  0  0  0  0
  -26.7697  -22.2405   22.0485 H   0  0  0  0  0  0
  -29.2329  -25.7841   21.7672 H   0  0  0  0  0  0
  -27.4917  -25.6520   21.7165 H   0  0  0  0  0  0
  -29.5823  -23.3692   22.1883 H   0  0  0  0  0  0
  -29.0404  -15.3368   21.3327 H   0  0  0  0  0  0
  -28.5849  -21.3323   20.2395 H   0  0  0  0  0  0
  1 25  1  0  0  0
  1 30  2  0  0  0
  1 84  1  0  0  0
  2  3  1  0  0  0
  2 25  1  0  0  0
  2 90  1  0  0  0
  2 91  1  0  0  0
  3  4  1  0  0  0
  3 92  1  0  0  0
  3 93  1  0  0  0
  4  5  1  0  0  0
  4 94  1  0  0  0
  4 95  1  0  0  0
  5  6  1  0  0  0
  5 26  1  0  0  0
  5 96  1  0  0  0
  6 25  1  0  0  0
  6 97  1  0  0  0
  6 98  1  0  0  0
  7  8  2  0  0  0
  7 26  1  0  0  0
  7 29  1  0  0  0
  8  9  1  0  0  0
  8 22  1  0  0  0
  9 10  1  0  0  0
  9 27  2  0  0  0
 10 11  2  0  0  0
 10 15  1  0  0  0
 11 12  1  0  0  0
 11 99  1  0  0  0
 12 13  2  0  0  0
 12100  1  0  0  0
 13 14  1  0  0  0
 13 31  1  0  0  0
 14 15  2  0  0  0
 14101  1  0  0  0
 15102  1  0  0  0
 16 17  2  0  0  0
 16 21  1  0  0  0
 16 31  1  0  0  0
 17 18  1  0  0  0
 17103  1  0  0  0
 18 19  2  0  0  0
 18104  1  0  0  0
 19 20  1  0  0  0
 19 24  1  0  0  0
 20 21  2  0  0  0
 20105  1  0  0  0
 21 23  1  0  0  0
 22 28  1  0  0  0
 22 32  2  0  0  0
 26 27  1  0  0  0
 28106  1  0  0  0
 28107  1  0  0  0
 29108  1  0  0  0
 29109  1  0  0  0
 33 34  1  0  0  0
 33 66  1  0  0  0
 33 70  2  0  0  0
 34 36  1  0  0  0
 34 59  1  0  0  0
 34110  1  0  0  0
 35 44  2  0  0  0
 35 45  1  0  0  0
 35 68  1  0  0  0
 36 56  1  0  0  0
 36111  1  0  0  0
 37 39  1  0  0  0
 37 47  1  0  0  0
 37 66  1  0  0  0
 37112  1  0  0  0
 38 43  2  0  0  0
 38 46  1  0  0  0
 38 47  1  0  0  0
 39 64  1  0  0  0
 39 67  2  0  0  0
 40 52  1  0  0  0
 40 53  2  0  0  0
 40 58  1  0  0  0
 41113  1  0  0  0
 41114  1  0  0  0
 41115  1  0  0  0
 41 48  1  0  0  0
 42 43  1  0  0  0
 42 66  1  0  0  0
 42116  1  0  0  0
 42117  1  0  0  0
 43 44  1  0  0  0
 44118  1  0  0  0
 45 46  2  0  0  0
 45119  1  0  0  0
 46120  1  0  0  0
 47121  1  0  0  0
 47122  1  0  0  0
 48 56  1  0  0  0
 48 65  1  0  0  0
 48123  1  0  0  0
 49 50  1  0  0  0
 49 53  1  0  0  0
 49 64  1  0  0  0
 49124  1  0  0  0
 50 51  1  0  0  0
 50125  1  0  0  0
 50126  1  0  0  0
 51 52  1  0  0  0
 51127  1  0  0  0
 51128  1  0  0  0
 52129  1  0  0  0
 52130  1  0  0  0
 53 54  1  0  0  0
 54 55  2  0  0  0
 54131  1  0  0  0
 55 57  1  0  0  0
 55132  1  0  0  0
 56 69  2  0  0  0
 57 58  2  0  0  0
 57133  1  0  0  0
 58134  1  0  0  0
 59 60  1  0  0  0
 59 61  1  0  0  0
 59 62  1  0  0  0
 60135  1  0  0  0
 60136  1  0  0  0
 60137  1  0  0  0
 61138  1  0  0  0
 61139  1  0  0  0
 61140  1  0  0  0
 62141  1  0  0  0
 62142  1  0  0  0
 62143  1  0  0  0
 63 65  1  0  0  0
 63144  1  0  0  0
 63145  1  0  0  0
 63146  1  0  0  0
 64147  1  0  0  0
 65148  1  0  0  0
 68 81  1  0  0  0
 71 72  1  0  0  0
 71 74  2  0  0  0
 71149  1  0  0  0
 72 76  2  0  0  0
 72150  1  0  0  0
 73 75  2  0  0  0
 73 83  1  0  0  0
 73151  1  0  0  0
 74 88  1  0  0  0
 74152  1  0  0  0
 75 78  1  0  0  0
 75 89  1  0  0  0
 76 80  1  0  0  0
 76 88  1  0  0  0
 77 83  2  0  0  0
 77 84  1  0  0  0
 77 89  1  0  0  0
 78 85  1  0  0  0
 78 86  2  0  0  0
 79 81  1  0  0  0
 79 82  1  0  0  0
 79 87  2  0  0  0
 80153  1  0  0  0
 80154  1  0  0  0
 80 82  1  0  0  0
 81155  1  0  0  0
 81156  1  0  0  0
 82 85  1  0  0  0
 82157  1  0  0  0
 84158  1  0  0  0
 85159  1  0  0  0
M  ISO  4   1 100  68 101  81 101  84 100
M  END
> <chiral flag>
0

> <version>
0

> <s_m_source_file>
/data/baiqing/PycharmProjects/Reinvent-master-3.2/result/LINK_invent/BTK/process_docking_weight1_custom_product_contain_oxygen_bond_distance_aromatic_linkinvent_7_9_3/rearranged_h_0179.sdf

> <i_m_source_file_index>
96

> <r_mmod_Potential_Energy-OPLS-2005>
-189.610290527344

> <r_mmod_Stretch_Energy-OPLS-2005>
44.7039756774902

> <r_mmod_Bend_Energy-OPLS-2005>
107.162818908691

> <r_mmod_Torsional_Energy-OPLS-2005>
269.932373046875

> <r_mmod_Improper_Torsional_Energy-OPLS-2005>
4.82116985321045

> <r_mmod_Van_der_Waal_Energy-OPLS-2005>
114.404190063477

> <r_mmod_Electrostatic_Energy-OPLS-2005>
-471.340698242188

> <r_mmod_Solvation_Energy-OPLS-2005>
-278.583801269531

> <b_mmod_Minimization_Converged-OPLS-2005>
0

> <r_mmod_RMS_Derivative-OPLS-2005>
1.18756890296936

$$$$
96
                    3D
 Structure written by MMmdl.
156164  0  0  1  0            999 V2000
  -30.6162  -14.7939   20.5139 C   0  0  0  0  0  0
  -30.4341  -12.4995   19.4845 C   0  0  0  0  0  0
  -29.5134  -12.5423   18.2453 C   0  0  0  0  0  0
  -28.0376  -12.3514   18.6459 C   0  0  0  0  0  0
  -27.6431  -13.2277   19.8636 C   0  0  2  0  0  0
  -28.6883  -13.1426   20.9968 C   0  0  0  0  0  0
  -25.2506  -13.8156   20.5711 C   0  0  0  0  0  0
  -24.1798  -13.0405   20.9205 C   0  0  0  0  0  0
  -24.6388  -11.6889   20.8740 C   0  0  0  0  0  0
  -23.9067  -10.4266   21.0413 C   0  0  0  0  0  0
  -24.3615   -9.4185   21.9188 C   0  0  0  0  0  0
  -23.6285   -8.2225   22.0756 C   0  0  0  0  0  0
  -22.4267   -8.0263   21.3548 C   0  0  0  0  0  0
  -21.9907   -9.0242   20.4654 C   0  0  0  0  0  0
  -22.7231  -10.2125   20.3070 C   0  0  0  0  0  0
  -21.6862   -6.0723   22.5283 C   0  0  0  0  0  0
  -21.4023   -6.5628   23.8219 C   0  0  0  0  0  0
  -21.3656   -5.6779   24.9181 C   0  0  0  0  0  0
  -21.6053   -4.3048   24.7228 C   0  0  0  0  0  0
  -21.8830   -3.8140   23.4351 C   0  0  0  0  0  0
  -21.9200   -4.6953   22.3404 C   0  0  0  0  0  0
  -22.7820  -13.5194   21.1862 C   0  0  0  0  0  0
  -22.1667   -4.2147   21.0978 F   0  0  0  0  0  0
  -21.5631   -3.4523   25.7732 F   0  0  0  0  0  0
  -29.9841  -13.5569   20.4346 N   0  0  0  0  0  0
  -26.2947  -12.9360   20.3353 N   0  0  0  0  0  0
  -25.9319  -11.6498   20.5755 N   0  0  0  0  0  0
  -22.0456  -12.8192   22.0410 N   0  0  0  0  0  0
  -25.4133  -15.1892   20.4142 N   0  0  0  0  0  0
  -31.7502  -14.8627   20.0226 O   0  0  0  0  0  0
  -21.6635   -6.8865   21.4240 O   0  0  0  0  0  0
  -22.3516  -14.5510   20.6722 O   0  0  0  0  0  0
  -24.6338  -31.8531   23.1953 C   0  0  0  0  0  0
  -25.9177  -32.4722   23.8279 C   0  0  1  0  0  0
  -27.2078  -27.2294   20.1483 C   0  0  0  0  0  0
  -25.5982  -33.8524   24.2200 N   0  0  0  0  0  0
  -23.4277  -30.4744   21.5404 C   0  0  2  0  0  0
  -24.8745  -28.9155   20.1070 C   0  0  0  0  0  0
  -22.7498  -29.4586   22.4916 C   0  0  0  0  0  0
  -18.0300  -28.1416   22.8474 C   0  0  0  0  0  0
  -24.1484  -36.7271   23.2625 C   0  0  0  0  0  0
  -25.9730  -30.7546   21.3772 C   0  0  0  0  0  0
  -26.0459  -29.3727   20.7272 C   0  0  0  0  0  0
  -27.2155  -28.5425   20.7382 C   0  0  0  0  0  0
  -26.0199  -26.8524   19.4849 C   0  0  0  0  0  0
  -24.8697  -27.6657   19.4701 C   0  0  0  0  0  0
  -23.6472  -29.8083   20.1546 C   0  0  0  0  0  0
  -25.4113  -36.3033   24.0294 C   0  0  1  0  0  0
  -20.5892  -28.3710   23.1270 C   0  0  2  0  0  0
  -20.6782  -26.9437   22.5398 C   0  0  0  0  0  0
  -19.5763  -26.6404   21.5196 C   0  0  0  0  0  0
  -18.1945  -26.7956   22.1616 C   0  0  0  0  0  0
  -19.1554  -28.8885   23.2860 C   0  0  0  0  0  0
  -18.9473  -30.1482   23.8879 C   0  0  0  0  0  0
  -17.6473  -30.6609   24.0567 C   0  0  0  0  0  0
  -25.9069  -34.9415   23.5034 C   0  0  0  0  0  0
  -16.5362  -29.9101   23.6344 C   0  0  0  0  0  0
  -16.7283  -28.6528   23.0342 C   0  0  0  0  0  0
  -26.4543  -31.6563   25.0679 C   0  0  0  0  0  0
  -25.3756  -31.3759   26.1393 C   0  0  0  0  0  0
  -27.0379  -30.2969   24.6181 C   0  0  0  0  0  0
  -27.6083  -32.4313   25.7482 C   0  0  0  0  0  0
  -27.5567  -37.1786   24.8467 C   0  0  0  0  0  0
  -21.4208  -29.3043   22.3656 N   0  0  0  0  0  0
  -26.4278  -37.3745   23.9410 N   0  0  0  0  0  0
  -24.6985  -31.0456   22.0948 N   0  0  0  0  0  0
  -23.4198  -28.8157   23.3041 O   0  0  0  0  0  0
  -28.2755  -26.2951   20.1925 O   0  0  0  0  0  0
  -26.5635  -34.8906   22.4598 O   0  0  0  0  0  0
  -23.5494  -32.1384   23.7242 O   0  0  0  0  0  0
  -28.6486  -17.1804   19.2731 C   0  0  0  0  0  0
  -29.5204  -17.4345   20.3442 C   0  0  0  0  0  0
  -28.0691  -19.4488   19.0690 C   0  0  0  0  0  0
  -29.0026  -19.8330   20.0926 C   0  0  0  0  0  0
  -28.0008  -24.9043   20.4440 C   0  0  0  0  0  0
  -28.8161  -23.7871   20.2619 C   0  0  0  0  0  0
  -28.3682  -22.3595   20.5497 C   0  0  0  0  0  0
  -25.9528  -20.4329   18.2992 C   0  0  0  0  0  0
  -25.2800  -21.7630   17.9772 C   0  0  0  0  0  0
  -30.0591  -16.1754   21.1946 C   0  0  0  0  0  0
  -27.9402  -18.1558   18.6633 N   0  0  0  0  0  0
  -29.7028  -18.7831   20.7198 N   0  0  0  0  0  0
  -29.2443  -21.3024   20.3008 N   0  0  0  0  0  0
  -27.2876  -20.4530   18.4436 N   0  0  0  0  0  0
  -27.2475  -22.1129   20.9971 O   0  0  0  0  0  0
  -25.2576  -19.4179   18.4011 O   0  0  0  0  0  0
  -30.0534  -23.9726   19.7835 O   0  0  0  0  0  0
  -31.0629  -16.6549   21.9329 F   0  0  0  0  0  0
  -29.0824  -15.8814   22.0507 F   0  0  0  0  0  0
  -31.4719  -12.6255   19.1762 H   0  0  0  0  0  0
  -30.3961  -11.5182   19.9592 H   0  0  0  0  0  0
  -29.8085  -11.7776   17.5254 H   0  0  0  0  0  0
  -29.6331  -13.5006   17.7378 H   0  0  0  0  0  0
  -27.8886  -11.2968   18.8807 H   0  0  0  0  0  0
  -27.3850  -12.5710   17.8004 H   0  0  0  0  0  0
  -27.6330  -14.2515   19.5013 H   0  0  0  0  0  0
  -28.7472  -12.1204   21.3748 H   0  0  0  0  0  0
  -28.3850  -13.7370   21.8542 H   0  0  0  0  0  0
  -25.2749   -9.5655   22.4770 H   0  0  0  0  0  0
  -23.9991   -7.4626   22.7485 H   0  0  0  0  0  0
  -21.0830   -8.8768   19.8961 H   0  0  0  0  0  0
  -22.3681  -10.9677   19.6197 H   0  0  0  0  0  0
  -21.2023   -7.6135   23.9727 H   0  0  0  0  0  0
  -21.1460   -6.0497   25.9084 H   0  0  0  0  0  0
  -22.0609   -2.7594   23.2850 H   0  0  0  0  0  0
  -22.4083  -11.9875   22.4839 H   0  0  0  0  0  0
  -21.1060  -13.1242   22.2561 H   0  0  0  0  0  0
  -26.2503  -15.6517   20.0897 H   0  0  0  0  0  0
  -24.6239  -15.8191   20.5029 H   0  0  0  0  0  0
  -26.7223  -32.5357   23.0993 H   0  0  0  0  0  0
  -25.0147  -33.9653   25.0359 H   0  0  0  0  0  0
  -22.7227  -31.2965   21.3967 H   0  0  0  0  0  0
  -23.3731  -35.9622   23.3292 H   0  0  0  0  0  0
  -24.3561  -36.8906   22.2042 H   0  0  0  0  0  0
  -23.7264  -37.6473   23.6667 H   0  0  0  0  0  0
  -26.1029  -31.5064   20.5984 H   0  0  0  0  0  0
  -26.8537  -30.8122   22.0047 H   0  0  0  0  0  0
  -28.1091  -28.8846   21.2398 H   0  0  0  0  0  0
  -25.9634  -25.8918   18.9924 H   0  0  0  0  0  0
  -23.9780  -27.3156   18.9679 H   0  0  0  0  0  0
  -23.7713  -30.5871   19.3998 H   0  0  0  0  0  0
  -22.7627  -29.2464   19.8486 H   0  0  0  0  0  0
  -25.1299  -36.1830   25.0784 H   0  0  0  0  0  0
  -20.9966  -28.3290   24.1398 H   0  0  0  0  0  0
  -20.5684  -26.2327   23.3597 H   0  0  0  0  0  0
  -21.6654  -26.7474   22.1203 H   0  0  0  0  0  0
  -19.6928  -25.6305   21.1253 H   0  0  0  0  0  0
  -19.6713  -27.3189   20.6706 H   0  0  0  0  0  0
  -17.4210  -26.6682   21.4026 H   0  0  0  0  0  0
  -18.0378  -26.0100   22.9025 H   0  0  0  0  0  0
  -19.7940  -30.7306   24.2242 H   0  0  0  0  0  0
  -17.5024  -31.6287   24.5174 H   0  0  0  0  0  0
  -15.5360  -30.3001   23.7684 H   0  0  0  0  0  0
  -15.8677  -28.0846   22.7061 H   0  0  0  0  0  0
  -24.5943  -30.7086   25.7742 H   0  0  0  0  0  0
  -24.8944  -32.2955   26.4737 H   0  0  0  0  0  0
  -25.8067  -30.9007   27.0210 H   0  0  0  0  0  0
  -26.2956  -29.6722   24.1198 H   0  0  0  0  0  0
  -27.4045  -29.7228   25.4699 H   0  0  0  0  0  0
  -27.8842  -30.4229   23.9420 H   0  0  0  0  0  0
  -27.2673  -33.3619   26.2035 H   0  0  0  0  0  0
  -28.3933  -32.6869   25.0351 H   0  0  0  0  0  0
  -28.0705  -31.8452   26.5436 H   0  0  0  0  0  0
  -28.2580  -38.0087   24.7490 H   0  0  0  0  0  0
  -28.1063  -36.2611   24.6308 H   0  0  0  0  0  0
  -27.2289  -37.1455   25.8873 H   0  0  0  0  0  0
  -20.9411  -29.8746   21.6830 H   0  0  0  0  0  0
  -26.0129  -38.2799   24.1444 H   0  0  0  0  0  0
  -28.4566  -16.1729   18.9425 H   0  0  0  0  0  0
  -26.9986  -24.7710   20.8342 H   0  0  0  0  0  0
  -25.6999  -22.5657   18.5842 H   0  0  0  0  0  0
  -24.2140  -21.7139   18.2008 H   0  0  0  0  0  0
  -25.3948  -22.0218   16.9250 H   0  0  0  0  0  0
  -30.1891  -21.6065   20.1150 H   0  0  0  0  0  0
  -27.7260  -21.3565   18.3573 H   0  0  0  0  0  0
  -30.1512  -24.9046   19.6317 H   0  0  0  0  0  0
  1 25  1  0  0  0
  1 30  2  0  0  0
  1 80  1  0  0  0
  2  3  1  0  0  0
  2 25  1  0  0  0
  2 90  1  0  0  0
  2 91  1  0  0  0
  3  4  1  0  0  0
  3 92  1  0  0  0
  3 93  1  0  0  0
  4  5  1  0  0  0
  4 94  1  0  0  0
  4 95  1  0  0  0
  5  6  1  0  0  0
  5 26  1  0  0  0
  5 96  1  0  0  0
  6 25  1  0  0  0
  6 97  1  0  0  0
  6 98  1  0  0  0
  7  8  2  0  0  0
  7 26  1  0  0  0
  7 29  1  0  0  0
  8  9  1  0  0  0
  8 22  1  0  0  0
  9 10  1  0  0  0
  9 27  2  0  0  0
 10 11  2  0  0  0
 10 15  1  0  0  0
 11 12  1  0  0  0
 11 99  1  0  0  0
 12 13  2  0  0  0
 12100  1  0  0  0
 13 14  1  0  0  0
 13 31  1  0  0  0
 14 15  2  0  0  0
 14101  1  0  0  0
 15102  1  0  0  0
 16 17  2  0  0  0
 16 21  1  0  0  0
 16 31  1  0  0  0
 17 18  1  0  0  0
 17103  1  0  0  0
 18 19  2  0  0  0
 18104  1  0  0  0
 19 20  1  0  0  0
 19 24  1  0  0  0
 20 21  2  0  0  0
 20105  1  0  0  0
 21 23  1  0  0  0
 22 28  1  0  0  0
 22 32  2  0  0  0
 26 27  1  0  0  0
 28106  1  0  0  0
 28107  1  0  0  0
 29108  1  0  0  0
 29109  1  0  0  0
 33 34  1  0  0  0
 33 66  1  0  0  0
 33 70  2  0  0  0
 34 36  1  0  0  0
 34 59  1  0  0  0
 34110  1  0  0  0
 35 44  2  0  0  0
 35 45  1  0  0  0
 35 68  1  0  0  0
 36 56  1  0  0  0
 36111  1  0  0  0
 37 39  1  0  0  0
 37 47  1  0  0  0
 37 66  1  0  0  0
 37112  1  0  0  0
 38 43  2  0  0  0
 38 46  1  0  0  0
 38 47  1  0  0  0
 39 64  1  0  0  0
 39 67  2  0  0  0
 40 52  1  0  0  0
 40 53  2  0  0  0
 40 58  1  0  0  0
 41113  1  0  0  0
 41114  1  0  0  0
 41115  1  0  0  0
 41 48  1  0  0  0
 42 43  1  0  0  0
 42 66  1  0  0  0
 42116  1  0  0  0
 42117  1  0  0  0
 43 44  1  0  0  0
 44118  1  0  0  0
 45 46  2  0  0  0
 45119  1  0  0  0
 46120  1  0  0  0
 47121  1  0  0  0
 47122  1  0  0  0
 48 56  1  0  0  0
 48 65  1  0  0  0
 48123  1  0  0  0
 49 50  1  0  0  0
 49 53  1  0  0  0
 49 64  1  0  0  0
 49124  1  0  0  0
 50 51  1  0  0  0
 50125  1  0  0  0
 50126  1  0  0  0
 51 52  1  0  0  0
 51127  1  0  0  0
 51128  1  0  0  0
 52129  1  0  0  0
 52130  1  0  0  0
 53 54  1  0  0  0
 54 55  2  0  0  0
 54131  1  0  0  0
 55 57  1  0  0  0
 55132  1  0  0  0
 56 69  2  0  0  0
 57 58  2  0  0  0
 57133  1  0  0  0
 58134  1  0  0  0
 59 60  1  0  0  0
 59 61  1  0  0  0
 59 62  1  0  0  0
 60135  1  0  0  0
 60136  1  0  0  0
 60137  1  0  0  0
 61138  1  0  0  0
 61139  1  0  0  0
 61140  1  0  0  0
 62141  1  0  0  0
 62142  1  0  0  0
 62143  1  0  0  0
 63 65  1  0  0  0
 63144  1  0  0  0
 63145  1  0  0  0
 63146  1  0  0  0
 64147  1  0  0  0
 65148  1  0  0  0
 68 75  1  0  0  0
 71 72  2  0  0  0
 71 81  1  0  0  0
 71149  1  0  0  0
 72 80  1  0  0  0
 72 82  1  0  0  0
 73 74  1  0  0  0
 73 81  2  0  0  0
 73 84  1  0  0  0
 74 82  2  0  0  0
 74 83  1  0  0  0
 75 76  2  0  0  0
 75150  1  0  0  0
 76 77  1  0  0  0
 76 87  1  0  0  0
 77 83  1  0  0  0
 77 85  2  0  0  0
 78 79  1  0  0  0
 78 84  1  0  0  0
 78 86  2  0  0  0
 79151  1  0  0  0
 79152  1  0  0  0
 79153  1  0  0  0
 80 88  1  0  0  0
 80 89  1  0  0  0
 83154  1  0  0  0
 84155  1  0  0  0
 87156  1  0  0  0
M  ISO  4   1 100  68 101  75 101  80 100
M  END
> <chiral flag>
0

> <version>
0

> <s_m_source_file>
/data/baiqing/PycharmProjects/Reinvent-master-3.2/result/LINK_invent/BTK/process_docking_weight1_custom_product_contain_oxygen_bond_distance_aromatic_linkinvent_7_9_3/rearranged_h_0179.sdf

> <i_m_source_file_index>
97

> <r_mmod_Potential_Energy-OPLS-2005>
196.961242675781

> <r_mmod_Stretch_Energy-OPLS-2005>
157.481399536133

> <r_mmod_Bend_Energy-OPLS-2005>
189.781372070312

> <r_mmod_Torsional_Energy-OPLS-2005>
221.919235229492

> <r_mmod_Improper_Torsional_Energy-OPLS-2005>
4.44478321075439

> <r_mmod_Van_der_Waal_Energy-OPLS-2005>
147.100997924805

> <r_mmod_Electrostatic_Energy-OPLS-2005>
-382.546752929688

> <r_mmod_Solvation_Energy-OPLS-2005>
-243.762542724609

> <b_mmod_Minimization_Converged-OPLS-2005>
0

> <r_mmod_RMS_Derivative-OPLS-2005>
2.53297281265259

$$$$
