0
                    3D
 Structure written by MMmdl.
160169  0  0  1  0            999 V2000
  -30.6779  -14.5733   20.4778 C   0  0  0  0  0  0
  -30.4145  -12.3456   19.4568 C   0  0  0  0  0  0
  -29.5000  -12.4914   18.2221 C   0  0  0  0  0  0
  -28.0206  -12.3468   18.6300 C   0  0  0  0  0  0
  -27.6470  -13.2219   19.8575 C   0  0  2  0  0  0
  -28.6892  -13.0920   20.9911 C   0  0  0  0  0  0
  -25.2525  -13.8187   20.5698 C   0  0  0  0  0  0
  -24.1804  -13.0437   20.9200 C   0  0  0  0  0  0
  -24.6381  -11.6912   20.8740 C   0  0  0  0  0  0
  -23.9059  -10.4292   21.0397 C   0  0  0  0  0  0
  -24.3619   -9.4212   21.9173 C   0  0  0  0  0  0
  -23.6297   -8.2245   22.0750 C   0  0  0  0  0  0
  -22.4278   -8.0273   21.3544 C   0  0  0  0  0  0
  -21.9909   -9.0241   20.4648 C   0  0  0  0  0  0
  -22.7231  -10.2125   20.3052 C   0  0  0  0  0  0
  -21.6857   -6.0740   22.5281 C   0  0  0  0  0  0
  -21.4018   -6.5642   23.8214 C   0  0  0  0  0  0
  -21.3662   -5.6791   24.9173 C   0  0  0  0  0  0
  -21.6038   -4.3051   24.7225 C   0  0  0  0  0  0
  -21.8816   -3.8147   23.4346 C   0  0  0  0  0  0
  -21.9198   -4.6968   22.3407 C   0  0  0  0  0  0
  -22.7823  -13.5222   21.1856 C   0  0  0  0  0  0
  -22.1656   -4.2151   21.0981 F   0  0  0  0  0  0
  -21.5634   -3.4535   25.7740 F   0  0  0  0  0  0
  -30.0091  -13.3852   20.4215 N   0  0  0  0  0  0
  -26.2951  -12.9379   20.3307 N   0  0  0  0  0  0
  -25.9312  -11.6527   20.5760 N   0  0  0  0  0  0
  -22.0469  -12.8213   22.0414 N   0  0  0  0  0  0
  -25.4216  -15.1920   20.4144 N   0  0  0  0  0  0
  -31.8747  -14.6375   20.1868 O   0  0  0  0  0  0
  -21.6641   -6.8875   21.4241 O   0  0  0  0  0  0
  -22.3505  -14.5529   20.6705 O   0  0  0  0  0  0
  -24.6220  -31.8645   23.2073 C   0  0  0  0  0  0
  -25.9089  -32.4803   23.8384 C   0  0  1  0  0  0
  -27.2248  -27.3739   20.0952 C   0  0  0  0  0  0
  -25.5914  -33.8602   24.2306 N   0  0  0  0  0  0
  -23.4126  -30.4911   21.5494 C   0  0  2  0  0  0
  -24.8571  -28.9548   20.1125 C   0  0  0  0  0  0
  -22.7444  -29.4657   22.4951 C   0  0  0  0  0  0
  -18.0278  -28.1400   22.8493 C   0  0  0  0  0  0
  -24.1487  -36.7305   23.2636 C   0  0  0  0  0  0
  -25.9501  -30.8116   21.3702 C   0  0  0  0  0  0
  -26.0249  -29.4437   20.7117 C   0  0  0  0  0  0
  -27.2122  -28.6614   20.7004 C   0  0  0  0  0  0
  -26.0257  -26.9142   19.5015 C   0  0  0  0  0  0
  -24.8551  -27.6916   19.5039 C   0  0  0  0  0  0
  -23.6247  -29.8305   20.1625 C   0  0  0  0  0  0
  -25.4109  -36.3098   24.0331 C   0  0  1  0  0  0
  -20.5879  -28.3698   23.1297 C   0  0  2  0  0  0
  -20.6775  -26.9424   22.5424 C   0  0  0  0  0  0
  -19.5752  -26.6402   21.5223 C   0  0  0  0  0  0
  -18.1925  -26.7953   22.1622 C   0  0  0  0  0  0
  -19.1530  -28.8863   23.2900 C   0  0  0  0  0  0
  -18.9456  -30.1464   23.8925 C   0  0  0  0  0  0
  -17.6456  -30.6600   24.0578 C   0  0  0  0  0  0
  -25.9043  -34.9464   23.5117 C   0  0  0  0  0  0
  -16.5349  -29.9104   23.6331 C   0  0  0  0  0  0
  -16.7268  -28.6520   23.0356 C   0  0  0  0  0  0
  -26.4493  -31.6594   25.0732 C   0  0  0  0  0  0
  -25.3741  -31.3720   26.1467 C   0  0  0  0  0  0
  -27.0319  -30.3021   24.6156 C   0  0  0  0  0  0
  -27.6067  -32.4314   25.7493 C   0  0  0  0  0  0
  -27.5584  -37.1803   24.8454 C   0  0  0  0  0  0
  -21.4164  -29.3055   22.3688 N   0  0  0  0  0  0
  -26.4286  -37.3789   23.9413 N   0  0  0  0  0  0
  -24.6804  -31.0701   22.1001 N   0  0  0  0  0  0
  -23.4182  -28.8186   23.3011 O   0  0  0  0  0  0
  -28.3458  -26.5455   20.1385 O   0  0  0  0  0  0
  -26.5611  -34.8921   22.4681 O   0  0  0  0  0  0
  -23.5395  -32.1411   23.7438 O   0  0  0  0  0  0
  -30.9882  -19.6223   19.1347 C   0  0  0  0  0  0
  -29.6748  -18.2512   20.6733 C   0  0  0  0  0  0
  -31.1346  -17.1949   19.0350 C   0  0  0  0  0  0
  -30.0278  -19.5506   20.1637 C   0  0  0  0  0  0
  -31.5106  -18.4611   18.5482 C   0  0  0  0  0  0
  -30.2534  -17.0476   20.1391 C   0  0  0  0  0  0
  -28.6999  -24.2307   19.2799 C   0  0  0  0  0  0
  -28.4775  -25.5730   19.1577 C   0  0  0  0  0  0
  -29.5443  -20.8506   20.7316 C   0  0  0  0  0  0
  -28.7461  -23.3433   18.0582 C   0  0  0  0  0  0
  -28.9008  -23.3426   20.5175 C   0  0  0  0  0  0
  -28.8470  -21.8956   18.5492 C   0  0  0  0  0  0
  -29.1451  -21.9475   19.9979 N   0  0  0  0  0  0
  -32.4091  -18.5715   17.4861 N   0  0  0  0  0  0
  -29.9377  -15.7117   20.6478 N   0  0  0  0  0  0
  -29.5552  -20.9765   22.0546 N   0  3  0  0  0  0
  -31.4622  -12.4293   19.1610 H   0  0  0  0  0  0
  -30.3079  -11.3555   19.9028 H   0  0  0  0  0  0
  -29.7570  -11.7418   17.4724 H   0  0  0  0  0  0
  -29.6606  -13.4638   17.7534 H   0  0  0  0  0  0
  -27.8459  -11.2946   18.8576 H   0  0  0  0  0  0
  -27.3716  -12.5846   17.7859 H   0  0  0  0  0  0
  -27.6621  -14.2555   19.5112 H   0  0  0  0  0  0
  -28.6796  -12.0842   21.4097 H   0  0  0  0  0  0
  -28.4539  -13.7668   21.8153 H   0  0  0  0  0  0
  -25.2762   -9.5695   22.4747 H   0  0  0  0  0  0
  -24.0013   -7.4642   22.7469 H   0  0  0  0  0  0
  -21.0845   -8.8749   19.8955 H   0  0  0  0  0  0
  -22.3676  -10.9659   19.6160 H   0  0  0  0  0  0
  -21.1998   -7.6147   23.9723 H   0  0  0  0  0  0
  -21.1487   -6.0518   25.9079 H   0  0  0  0  0  0
  -22.0596   -2.7612   23.2852 H   0  0  0  0  0  0
  -22.4084  -11.9880   22.4813 H   0  0  0  0  0  0
  -21.1086  -13.1231   22.2613 H   0  0  0  0  0  0
  -24.6511  -15.8423   20.5256 H   0  0  0  0  0  0
  -26.2690  -15.6375   20.0864 H   0  0  0  0  0  0
  -26.7158  -32.5490   23.1140 H   0  0  0  0  0  0
  -25.0048  -33.9757   25.0441 H   0  0  0  0  0  0
  -22.7047  -31.3109   21.4088 H   0  0  0  0  0  0
  -23.3753  -35.9632   23.3283 H   0  0  0  0  0  0
  -24.3588  -36.8944   22.2055 H   0  0  0  0  0  0
  -23.7230  -37.6496   23.6673 H   0  0  0  0  0  0
  -26.0717  -31.5781   20.6034 H   0  0  0  0  0  0
  -26.8340  -30.8613   21.9947 H   0  0  0  0  0  0
  -28.1103  -29.0308   21.1752 H   0  0  0  0  0  0
  -25.9676  -25.9354   19.0479 H   0  0  0  0  0  0
  -23.9555  -27.3040   19.0467 H   0  0  0  0  0  0
  -23.7441  -30.6088   19.4074 H   0  0  0  0  0  0
  -22.7454  -29.2601   19.8584 H   0  0  0  0  0  0
  -25.1292  -36.1953   25.0818 H   0  0  0  0  0  0
  -20.9976  -28.3284   24.1418 H   0  0  0  0  0  0
  -20.5686  -26.2310   23.3624 H   0  0  0  0  0  0
  -21.6641  -26.7476   22.1209 H   0  0  0  0  0  0
  -19.6915  -25.6312   21.1253 H   0  0  0  0  0  0
  -19.6698  -27.3217   20.6756 H   0  0  0  0  0  0
  -17.4204  -26.6723   21.4011 H   0  0  0  0  0  0
  -18.0307  -26.0090   22.9006 H   0  0  0  0  0  0
  -19.7926  -30.7282   24.2308 H   0  0  0  0  0  0
  -17.5006  -31.6285   24.5173 H   0  0  0  0  0  0
  -15.5353  -30.3020   23.7639 H   0  0  0  0  0  0
  -15.8664  -28.0851   22.7066 H   0  0  0  0  0  0
  -24.5919  -30.7067   25.7796 H   0  0  0  0  0  0
  -24.8932  -32.2883   26.4904 H   0  0  0  0  0  0
  -25.8075  -30.8890   27.0234 H   0  0  0  0  0  0
  -26.2877  -29.6783   24.1194 H   0  0  0  0  0  0
  -27.4033  -29.7266   25.4645 H   0  0  0  0  0  0
  -27.8739  -30.4307   23.9352 H   0  0  0  0  0  0
  -27.2693  -33.3602   26.2109 H   0  0  0  0  0  0
  -28.3861  -32.6898   25.0309 H   0  0  0  0  0  0
  -28.0763  -31.8419   26.5381 H   0  0  0  0  0  0
  -28.2587  -38.0118   24.7524 H   0  0  0  0  0  0
  -28.1100  -36.2651   24.6246 H   0  0  0  0  0  0
  -27.2313  -37.1401   25.8859 H   0  0  0  0  0  0
  -20.9328  -29.8779   21.6909 H   0  0  0  0  0  0
  -26.0172  -38.2858   24.1446 H   0  0  0  0  0  0
  -31.3359  -20.5872   18.7947 H   0  0  0  0  0  0
  -28.9745  -18.1848   21.4950 H   0  0  0  0  0  0
  -31.5512  -16.3321   18.5395 H   0  0  0  0  0  0
  -28.3520  -26.0146   18.1778 H   0  0  0  0  0  0
  -29.6097  -23.6035   17.4454 H   0  0  0  0  0  0
  -27.8519  -23.4876   17.4503 H   0  0  0  0  0  0
  -28.0118  -23.3748   21.1489 H   0  0  0  0  0  0
  -29.7519  -23.7061   21.0957 H   0  0  0  0  0  0
  -29.5777  -21.3608   17.9476 H   0  0  0  0  0  0
  -27.8918  -21.3864   18.4080 H   0  0  0  0  0  0
  -32.4363  -19.4406   16.9620 H   0  0  0  0  0  0
  -32.5598  -17.7583   16.8968 H   0  0  0  0  0  0
  -29.0140  -15.5800   21.0314 H   0  0  0  0  0  0
  -29.9083  -20.2183   22.6186 H   0  0  0  0  0  0
  -29.2116  -21.8002   22.5175 H   0  0  0  0  0  0
  1 25  1  0  0  0
  1 30  2  0  0  0
  1 85  1  0  0  0
  2  3  1  0  0  0
  2 25  1  0  0  0
  2 87  1  0  0  0
  2 88  1  0  0  0
  3  4  1  0  0  0
  3 89  1  0  0  0
  3 90  1  0  0  0
  4  5  1  0  0  0
  4 91  1  0  0  0
  4 92  1  0  0  0
  5  6  1  0  0  0
  5 26  1  0  0  0
  5 93  1  0  0  0
  6 25  1  0  0  0
  6 94  1  0  0  0
  6 95  1  0  0  0
  7  8  2  0  0  0
  7 26  1  0  0  0
  7 29  1  0  0  0
  8  9  1  0  0  0
  8 22  1  0  0  0
  9 10  1  0  0  0
  9 27  2  0  0  0
 10 11  2  0  0  0
 10 15  1  0  0  0
 11 12  1  0  0  0
 11 96  1  0  0  0
 12 13  2  0  0  0
 12 97  1  0  0  0
 13 14  1  0  0  0
 13 31  1  0  0  0
 14 15  2  0  0  0
 14 98  1  0  0  0
 15 99  1  0  0  0
 16 17  2  0  0  0
 16 21  1  0  0  0
 16 31  1  0  0  0
 17 18  1  0  0  0
 17100  1  0  0  0
 18 19  2  0  0  0
 18101  1  0  0  0
 19 20  1  0  0  0
 19 24  1  0  0  0
 20 21  2  0  0  0
 20102  1  0  0  0
 21 23  1  0  0  0
 22 28  1  0  0  0
 22 32  2  0  0  0
 26 27  1  0  0  0
 28103  1  0  0  0
 28104  1  0  0  0
 29105  1  0  0  0
 29106  1  0  0  0
 33 34  1  0  0  0
 33 66  1  0  0  0
 33 70  2  0  0  0
 34 36  1  0  0  0
 34 59  1  0  0  0
 34107  1  0  0  0
 35 44  2  0  0  0
 35 45  1  0  0  0
 35 68  1  0  0  0
 36 56  1  0  0  0
 36108  1  0  0  0
 37 39  1  0  0  0
 37 47  1  0  0  0
 37 66  1  0  0  0
 37109  1  0  0  0
 38 43  2  0  0  0
 38 46  1  0  0  0
 38 47  1  0  0  0
 39 64  1  0  0  0
 39 67  2  0  0  0
 40 52  1  0  0  0
 40 53  2  0  0  0
 40 58  1  0  0  0
 41110  1  0  0  0
 41111  1  0  0  0
 41112  1  0  0  0
 41 48  1  0  0  0
 42 43  1  0  0  0
 42 66  1  0  0  0
 42113  1  0  0  0
 42114  1  0  0  0
 43 44  1  0  0  0
 44115  1  0  0  0
 45 46  2  0  0  0
 45116  1  0  0  0
 46117  1  0  0  0
 47118  1  0  0  0
 47119  1  0  0  0
 48 56  1  0  0  0
 48 65  1  0  0  0
 48120  1  0  0  0
 49 50  1  0  0  0
 49 53  1  0  0  0
 49 64  1  0  0  0
 49121  1  0  0  0
 50 51  1  0  0  0
 50122  1  0  0  0
 50123  1  0  0  0
 51 52  1  0  0  0
 51124  1  0  0  0
 51125  1  0  0  0
 52126  1  0  0  0
 52127  1  0  0  0
 53 54  1  0  0  0
 54 55  2  0  0  0
 54128  1  0  0  0
 55 57  1  0  0  0
 55129  1  0  0  0
 56 69  2  0  0  0
 57 58  2  0  0  0
 57130  1  0  0  0
 58131  1  0  0  0
 59 60  1  0  0  0
 59 61  1  0  0  0
 59 62  1  0  0  0
 60132  1  0  0  0
 60133  1  0  0  0
 60134  1  0  0  0
 61135  1  0  0  0
 61136  1  0  0  0
 61137  1  0  0  0
 62138  1  0  0  0
 62139  1  0  0  0
 62140  1  0  0  0
 63 65  1  0  0  0
 63141  1  0  0  0
 63142  1  0  0  0
 63143  1  0  0  0
 64144  1  0  0  0
 65145  1  0  0  0
 68 78  1  0  0  0
 71 74  2  0  0  0
 71 75  1  0  0  0
 71146  1  0  0  0
 72 74  1  0  0  0
 72 76  2  0  0  0
 72147  1  0  0  0
 73 75  2  0  0  0
 73 76  1  0  0  0
 73148  1  0  0  0
 74 79  1  0  0  0
 75 84  1  0  0  0
 76 85  1  0  0  0
 77 78  2  0  0  0
 77 80  1  0  0  0
 77 81  1  0  0  0
 78149  1  0  0  0
 79 83  1  0  0  0
 79 86  2  0  0  0
 80 82  1  0  0  0
 80150  1  0  0  0
 80151  1  0  0  0
 81 83  1  0  0  0
 81152  1  0  0  0
 81153  1  0  0  0
 82 83  1  0  0  0
 82154  1  0  0  0
 82155  1  0  0  0
 84156  1  0  0  0
 84157  1  0  0  0
 85158  1  0  0  0
 86159  1  0  0  0
 86160  1  0  0  0
M  CHG  1  86   1
M  ISO  4   1 100  68 101  78 101  85 100
M  END
> <chiral flag>
0

> <version>
0

> <s_m_source_file>
/data/baiqing/PycharmProjects/Reinvent-master-3.2/result/LINK_invent/BTK/process_docking_weight1_custom_product_contain_oxygen_bond_distance_aromatic_linkinvent_7_9_3/rearranged_h_0148.sdf

> <i_m_source_file_index>
1

> <r_mmod_Potential_Energy-OPLS-2005>
-143.128570556641

> <r_mmod_Stretch_Energy-OPLS-2005>
61.5303611755371

> <r_mmod_Bend_Energy-OPLS-2005>
140.988159179688

> <r_mmod_Torsional_Energy-OPLS-2005>
262.379425048828

> <r_mmod_Improper_Torsional_Energy-OPLS-2005>
9.15755844116211

> <r_mmod_Van_der_Waal_Energy-OPLS-2005>
159.705535888672

> <r_mmod_Electrostatic_Energy-OPLS-2005>
-400.101501464844

> <r_mmod_Solvation_Energy-OPLS-2005>
-412.138916015625

> <b_mmod_Minimization_Converged-OPLS-2005>
0

> <r_mmod_RMS_Derivative-OPLS-2005>
1.304931640625

$$$$
1
                    3D
 Structure written by MMmdl.
154163  0  0  1  0            999 V2000
  -30.5816  -14.7220   20.4626 C   0  0  0  0  0  0
  -30.4400  -12.4424   19.4693 C   0  0  0  0  0  0
  -29.5188  -12.5068   18.2281 C   0  0  0  0  0  0
  -28.0388  -12.3322   18.6302 C   0  0  0  0  0  0
  -27.6387  -13.2230   19.8373 C   0  0  2  0  0  0
  -28.6752  -13.1459   20.9796 C   0  0  0  0  0  0
  -25.2506  -13.8190   20.5605 C   0  0  0  0  0  0
  -24.1808  -13.0438   20.9171 C   0  0  0  0  0  0
  -24.6358  -11.6904   20.8688 C   0  0  0  0  0  0
  -23.9066  -10.4275   21.0381 C   0  0  0  0  0  0
  -24.3624   -9.4199   21.9178 C   0  0  0  0  0  0
  -23.6282   -8.2248   22.0740 C   0  0  0  0  0  0
  -22.4274   -8.0285   21.3535 C   0  0  0  0  0  0
  -21.9876   -9.0266   20.4660 C   0  0  0  0  0  0
  -22.7204  -10.2143   20.3040 C   0  0  0  0  0  0
  -21.6850   -6.0712   22.5269 C   0  0  0  0  0  0
  -21.4030   -6.5644   23.8213 C   0  0  0  0  0  0
  -21.3635   -5.6801   24.9178 C   0  0  0  0  0  0
  -21.6028   -4.3075   24.7247 C   0  0  0  0  0  0
  -21.8820   -3.8133   23.4387 C   0  0  0  0  0  0
  -21.9204   -4.6922   22.3412 C   0  0  0  0  0  0
  -22.7838  -13.5248   21.1867 C   0  0  0  0  0  0
  -22.1674   -4.2095   21.0995 F   0  0  0  0  0  0
  -21.5583   -3.4577   25.7775 F   0  0  0  0  0  0
  -29.9912  -13.4844   20.4151 N   0  0  0  0  0  0
  -26.2893  -12.9365   20.3154 N   0  0  0  0  0  0
  -25.9292  -11.6524   20.5667 N   0  0  0  0  0  0
  -22.0486  -12.8249   22.0441 N   0  0  0  0  0  0
  -25.4219  -15.1903   20.3931 N   0  0  0  0  0  0
  -31.7713  -14.8665   20.1524 O   0  0  0  0  0  0
  -21.6642   -6.8867   21.4245 O   0  0  0  0  0  0
  -22.3543  -14.5557   20.6715 O   0  0  0  0  0  0
  -24.6273  -31.8537   23.1951 C   0  0  0  0  0  0
  -25.9121  -32.4757   23.8273 C   0  0  1  0  0  0
  -27.2132  -27.2799   20.1198 C   0  0  0  0  0  0
  -25.5900  -33.8555   24.2204 N   0  0  0  0  0  0
  -23.4224  -30.4762   21.5399 C   0  0  2  0  0  0
  -24.8675  -28.9183   20.1123 C   0  0  0  0  0  0
  -22.7481  -29.4588   22.4891 C   0  0  0  0  0  0
  -18.0287  -28.1398   22.8466 C   0  0  0  0  0  0
  -24.1471  -36.7304   23.2630 C   0  0  0  0  0  0
  -25.9670  -30.7730   21.3677 C   0  0  0  0  0  0
  -26.0405  -29.3959   20.7132 C   0  0  0  0  0  0
  -27.2237  -28.5919   20.6969 C   0  0  0  0  0  0
  -26.0186  -26.8502   19.5108 C   0  0  0  0  0  0
  -24.8602  -27.6542   19.4983 C   0  0  0  0  0  0
  -23.6409  -29.8088   20.1571 C   0  0  0  0  0  0
  -25.4095  -36.3071   24.0306 C   0  0  1  0  0  0
  -20.5884  -28.3689   23.1266 C   0  0  2  0  0  0
  -20.6759  -26.9391   22.5434 C   0  0  0  0  0  0
  -19.5769  -26.6399   21.5178 C   0  0  0  0  0  0
  -18.1933  -26.7944   22.1562 C   0  0  0  0  0  0
  -19.1547  -28.8849   23.2874 C   0  0  0  0  0  0
  -18.9473  -30.1438   23.8914 C   0  0  0  0  0  0
  -17.6468  -30.6576   24.0581 C   0  0  0  0  0  0
  -25.9045  -34.9452   23.5072 C   0  0  0  0  0  0
  -16.5369  -29.9069   23.6329 C   0  0  0  0  0  0
  -16.7272  -28.6503   23.0329 C   0  0  0  0  0  0
  -26.4476  -31.6598   25.0679 C   0  0  0  0  0  0
  -25.3703  -31.3867   26.1430 C   0  0  0  0  0  0
  -27.0240  -30.2959   24.6221 C   0  0  0  0  0  0
  -27.6039  -32.4337   25.7422 C   0  0  0  0  0  0
  -27.5587  -37.1772   24.8419 C   0  0  0  0  0  0
  -21.4194  -29.3008   22.3634 N   0  0  0  0  0  0
  -26.4257  -37.3788   23.9431 N   0  0  0  0  0  0
  -24.6925  -31.0515   22.0930 N   0  0  0  0  0  0
  -23.4167  -28.8142   23.3019 O   0  0  0  0  0  0
  -28.3213  -26.4225   20.0817 O   0  0  0  0  0  0
  -26.5677  -34.8929   22.4668 O   0  0  0  0  0  0
  -23.5444  -32.1372   23.7272 O   0  0  0  0  0  0
  -30.5902  -19.4175   20.1925 C   0  0  0  0  0  0
  -30.8972  -18.0081   20.3751 C   0  0  0  0  0  0
  -29.2489  -19.7415   20.1518 C   0  0  0  0  0  0
  -29.8114  -17.1678   20.4881 C   0  0  0  0  0  0
  -27.1183  -21.3393   20.3041 C   0  0  0  0  0  0
  -26.8113  -22.8714   20.2807 C   0  0  0  0  0  0
  -29.1954  -22.5174   20.2296 C   0  0  0  0  0  0
  -28.5648  -21.1240   19.8172 C   0  0  1  0  0  0
  -28.1168  -23.6613   19.9608 C   0  0  2  0  0  0
  -28.2418  -25.0816   20.7287 C   0  0  0  0  0  0
  -29.7206  -15.7810   20.6602 N   0  0  0  0  0  0
  -28.3638  -18.2137   20.3979 S   0  0  0  0  0  0
  -31.4816  -12.5795   19.1735 H   0  0  0  0  0  0
  -30.3872  -11.4633   19.9463 H   0  0  0  0  0  0
  -29.7999  -11.7347   17.5087 H   0  0  0  0  0  0
  -29.6544  -13.4622   17.7173 H   0  0  0  0  0  0
  -27.8851  -11.2798   18.8761 H   0  0  0  0  0  0
  -27.3965  -12.5447   17.7769 H   0  0  0  0  0  0
  -27.6306  -14.2440   19.4543 H   0  0  0  0  0  0
  -28.6963  -12.1522   21.4278 H   0  0  0  0  0  0
  -28.3972  -13.8344   21.7810 H   0  0  0  0  0  0
  -25.2781   -9.5677   22.4760 H   0  0  0  0  0  0
  -23.9966   -7.4640   22.7458 H   0  0  0  0  0  0
  -21.0776   -8.8817   19.9007 H   0  0  0  0  0  0
  -22.3657  -10.9699   19.6158 H   0  0  0  0  0  0
  -21.2063   -7.6153   23.9710 H   0  0  0  0  0  0
  -21.1419   -6.0546   25.9088 H   0  0  0  0  0  0
  -22.0606   -2.7576   23.2941 H   0  0  0  0  0  0
  -22.4135  -11.9954   22.4901 H   0  0  0  0  0  0
  -21.1097  -13.1266   22.2616 H   0  0  0  0  0  0
  -24.6470  -15.8402   20.4764 H   0  0  0  0  0  0
  -26.2463  -15.6172   19.9904 H   0  0  0  0  0  0
  -26.7181  -32.5421   23.1006 H   0  0  0  0  0  0
  -24.9889  -33.9656   25.0234 H   0  0  0  0  0  0
  -22.7201  -31.2991   21.3936 H   0  0  0  0  0  0
  -23.3737  -35.9631   23.3251 H   0  0  0  0  0  0
  -24.3553  -36.8992   22.2057 H   0  0  0  0  0  0
  -23.7216  -37.6473   23.6713 H   0  0  0  0  0  0
  -26.0941  -31.5288   20.5914 H   0  0  0  0  0  0
  -26.8481  -30.8264   21.9972 H   0  0  0  0  0  0
  -28.1328  -28.9588   21.1537 H   0  0  0  0  0  0
  -25.9774  -25.8747   19.0448 H   0  0  0  0  0  0
  -23.9613  -27.2862   19.0218 H   0  0  0  0  0  0
  -23.7736  -30.5857   19.4044 H   0  0  0  0  0  0
  -22.7548  -29.2511   19.8470 H   0  0  0  0  0  0
  -25.1256  -36.1890   25.0791 H   0  0  0  0  0  0
  -20.9982  -28.3316   24.1382 H   0  0  0  0  0  0
  -20.5545  -26.2309   23.3646 H   0  0  0  0  0  0
  -21.6643  -26.7356   22.1307 H   0  0  0  0  0  0
  -19.6942  -25.6311   21.1164 H   0  0  0  0  0  0
  -19.6742  -27.3241   20.6741 H   0  0  0  0  0  0
  -17.4212  -26.6724   21.3966 H   0  0  0  0  0  0
  -18.0335  -26.0060   22.8922 H   0  0  0  0  0  0
  -19.7942  -30.7259   24.2309 H   0  0  0  0  0  0
  -17.5004  -31.6221   24.5241 H   0  0  0  0  0  0
  -15.5358  -30.2972   23.7649 H   0  0  0  0  0  0
  -15.8666  -28.0812   22.7037 H   0  0  0  0  0  0
  -24.5830  -30.7238   25.7837 H   0  0  0  0  0  0
  -24.8945  -32.3094   26.4767 H   0  0  0  0  0  0
  -25.7989  -30.9126   27.0267 H   0  0  0  0  0  0
  -26.2799  -29.6765   24.1207 H   0  0  0  0  0  0
  -27.3783  -29.7200   25.4783 H   0  0  0  0  0  0
  -27.8749  -30.4116   23.9504 H   0  0  0  0  0  0
  -27.2611  -33.3574   26.2092 H   0  0  0  0  0  0
  -28.3775  -32.7023   25.0218 H   0  0  0  0  0  0
  -28.0802  -31.8436   26.5263 H   0  0  0  0  0  0
  -28.2569  -38.0106   24.7498 H   0  0  0  0  0  0
  -28.1106  -36.2642   24.6134 H   0  0  0  0  0  0
  -27.2347  -37.1305   25.8831 H   0  0  0  0  0  0
  -20.9405  -29.8657   21.6760 H   0  0  0  0  0  0
  -26.0129  -38.2833   24.1549 H   0  0  0  0  0  0
  -31.3833  -20.1415   20.0625 H   0  0  0  0  0  0
  -31.9224  -17.6683   20.4042 H   0  0  0  0  0  0
  -26.4033  -20.7682   19.7067 H   0  0  0  0  0  0
  -27.0204  -20.9801   21.3304 H   0  0  0  0  0  0
  -26.4167  -23.1548   21.2587 H   0  0  0  0  0  0
  -26.0204  -23.1048   19.5638 H   0  0  0  0  0  0
  -30.1230  -22.7041   19.6853 H   0  0  0  0  0  0
  -29.4547  -22.5025   21.2904 H   0  0  0  0  0  0
  -28.5030  -21.1498   18.7275 H   0  0  0  0  0  0
  -28.1250  -23.8619   18.8858 H   0  0  0  0  0  0
  -29.1722  -25.0238   21.2932 H   0  0  0  0  0  0
  -27.4843  -25.1255   21.5123 H   0  0  0  0  0  0
  -28.7852  -15.4627   20.8505 H   0  0  0  0  0  0
  1 25  1  0  0  0
  1 30  2  0  0  0
  1 81  1  0  0  0
  2  3  1  0  0  0
  2 25  1  0  0  0
  2 83  1  0  0  0
  2 84  1  0  0  0
  3  4  1  0  0  0
  3 85  1  0  0  0
  3 86  1  0  0  0
  4  5  1  0  0  0
  4 87  1  0  0  0
  4 88  1  0  0  0
  5  6  1  0  0  0
  5 26  1  0  0  0
  5 89  1  0  0  0
  6 25  1  0  0  0
  6 90  1  0  0  0
  6 91  1  0  0  0
  7  8  2  0  0  0
  7 26  1  0  0  0
  7 29  1  0  0  0
  8  9  1  0  0  0
  8 22  1  0  0  0
  9 10  1  0  0  0
  9 27  2  0  0  0
 10 11  2  0  0  0
 10 15  1  0  0  0
 11 12  1  0  0  0
 11 92  1  0  0  0
 12 13  2  0  0  0
 12 93  1  0  0  0
 13 14  1  0  0  0
 13 31  1  0  0  0
 14 15  2  0  0  0
 14 94  1  0  0  0
 15 95  1  0  0  0
 16 17  2  0  0  0
 16 21  1  0  0  0
 16 31  1  0  0  0
 17 18  1  0  0  0
 17 96  1  0  0  0
 18 19  2  0  0  0
 18 97  1  0  0  0
 19 20  1  0  0  0
 19 24  1  0  0  0
 20 21  2  0  0  0
 20 98  1  0  0  0
 21 23  1  0  0  0
 22 28  1  0  0  0
 22 32  2  0  0  0
 26 27  1  0  0  0
 28 99  1  0  0  0
 28100  1  0  0  0
 29101  1  0  0  0
 29102  1  0  0  0
 33 34  1  0  0  0
 33 66  1  0  0  0
 33 70  2  0  0  0
 34 36  1  0  0  0
 34 59  1  0  0  0
 34103  1  0  0  0
 35 44  2  0  0  0
 35 45  1  0  0  0
 35 68  1  0  0  0
 36 56  1  0  0  0
 36104  1  0  0  0
 37 39  1  0  0  0
 37 47  1  0  0  0
 37 66  1  0  0  0
 37105  1  0  0  0
 38 43  2  0  0  0
 38 46  1  0  0  0
 38 47  1  0  0  0
 39 64  1  0  0  0
 39 67  2  0  0  0
 40 52  1  0  0  0
 40 53  2  0  0  0
 40 58  1  0  0  0
 41106  1  0  0  0
 41107  1  0  0  0
 41108  1  0  0  0
 41 48  1  0  0  0
 42 43  1  0  0  0
 42 66  1  0  0  0
 42109  1  0  0  0
 42110  1  0  0  0
 43 44  1  0  0  0
 44111  1  0  0  0
 45 46  2  0  0  0
 45112  1  0  0  0
 46113  1  0  0  0
 47114  1  0  0  0
 47115  1  0  0  0
 48 56  1  0  0  0
 48 65  1  0  0  0
 48116  1  0  0  0
 49 50  1  0  0  0
 49 53  1  0  0  0
 49 64  1  0  0  0
 49117  1  0  0  0
 50 51  1  0  0  0
 50118  1  0  0  0
 50119  1  0  0  0
 51 52  1  0  0  0
 51120  1  0  0  0
 51121  1  0  0  0
 52122  1  0  0  0
 52123  1  0  0  0
 53 54  1  0  0  0
 54 55  2  0  0  0
 54124  1  0  0  0
 55 57  1  0  0  0
 55125  1  0  0  0
 56 69  2  0  0  0
 57 58  2  0  0  0
 57126  1  0  0  0
 58127  1  0  0  0
 59 60  1  0  0  0
 59 61  1  0  0  0
 59 62  1  0  0  0
 60128  1  0  0  0
 60129  1  0  0  0
 60130  1  0  0  0
 61131  1  0  0  0
 61132  1  0  0  0
 61133  1  0  0  0
 62134  1  0  0  0
 62135  1  0  0  0
 62136  1  0  0  0
 63 65  1  0  0  0
 63137  1  0  0  0
 63138  1  0  0  0
 63139  1  0  0  0
 64140  1  0  0  0
 65141  1  0  0  0
 68 80  1  0  0  0
 71 72  1  0  0  0
 71 73  2  0  0  0
 71142  1  0  0  0
 72 74  2  0  0  0
 72143  1  0  0  0
 73 82  1  0  0  0
 73 78  1  0  0  0
 74 81  1  0  0  0
 74 82  1  0  0  0
 75 76  1  0  0  0
 75 78  1  0  0  0
 75144  1  0  0  0
 75145  1  0  0  0
 76 79  1  0  0  0
 76146  1  0  0  0
 76147  1  0  0  0
 77 78  1  0  0  0
 77 79  1  0  0  0
 77148  1  0  0  0
 77149  1  0  0  0
 78150  1  0  0  0
 79 80  1  0  0  0
 79151  1  0  0  0
 80152  1  0  0  0
 80153  1  0  0  0
 81154  1  0  0  0
M  ISO  4   1 100  68 101  80 101  81 100
M  END
> <chiral flag>
0

> <version>
0

> <s_m_source_file>
/data/baiqing/PycharmProjects/Reinvent-master-3.2/result/LINK_invent/BTK/process_docking_weight1_custom_product_contain_oxygen_bond_distance_aromatic_linkinvent_7_9_3/rearranged_h_0148.sdf

> <i_m_source_file_index>
2

> <r_mmod_Potential_Energy-OPLS-2005>
191.710372924805

> <r_mmod_Stretch_Energy-OPLS-2005>
93.3689346313477

> <r_mmod_Bend_Energy-OPLS-2005>
192.894012451172

> <r_mmod_Torsional_Energy-OPLS-2005>
281.347961425781

> <r_mmod_Improper_Torsional_Energy-OPLS-2005>
5.92706203460693

> <r_mmod_Van_der_Waal_Energy-OPLS-2005>
106.976135253906

> <r_mmod_Electrostatic_Energy-OPLS-2005>
-366.571929931641

> <r_mmod_Solvation_Energy-OPLS-2005>
-197.049133300781

> <b_mmod_Minimization_Converged-OPLS-2005>
0

> <r_mmod_RMS_Derivative-OPLS-2005>
5.33656024932861

$$$$
2
                    3D
 Structure written by MMmdl.
160169  0  0  1  0            999 V2000
  -30.6836  -14.5136   20.5693 C   0  0  0  0  0  0
  -30.4267  -12.3275   19.4315 C   0  0  0  0  0  0
  -29.5105  -12.5327   18.2090 C   0  0  0  0  0  0
  -28.0252  -12.3960   18.6092 C   0  0  0  0  0  0
  -27.6658  -13.2171   19.8780 C   0  0  2  0  0  0
  -28.7081  -12.9962   20.9988 C   0  0  0  0  0  0
  -25.2593  -13.8166   20.5690 C   0  0  0  0  0  0
  -24.1849  -13.0429   20.9173 C   0  0  0  0  0  0
  -24.6417  -11.6922   20.8716 C   0  0  0  0  0  0
  -23.9087  -10.4303   21.0393 C   0  0  0  0  0  0
  -24.3631   -9.4210   21.9179 C   0  0  0  0  0  0
  -23.6306   -8.2261   22.0759 C   0  0  0  0  0  0
  -22.4282   -8.0303   21.3558 C   0  0  0  0  0  0
  -21.9937   -9.0272   20.4652 C   0  0  0  0  0  0
  -22.7272  -10.2143   20.3032 C   0  0  0  0  0  0
  -21.6853   -6.0744   22.5298 C   0  0  0  0  0  0
  -21.4021   -6.5638   23.8231 C   0  0  0  0  0  0
  -21.3646   -5.6778   24.9193 C   0  0  0  0  0  0
  -21.6046   -4.3054   24.7224 C   0  0  0  0  0  0
  -21.8812   -3.8153   23.4340 C   0  0  0  0  0  0
  -21.9197   -4.6976   22.3408 C   0  0  0  0  0  0
  -22.7856  -13.5238   21.1838 C   0  0  0  0  0  0
  -22.1655   -4.2173   21.0983 F   0  0  0  0  0  0
  -21.5630   -3.4526   25.7719 F   0  0  0  0  0  0
  -30.0380  -13.3155   20.4520 N   0  0  0  0  0  0
  -26.3059  -12.9372   20.3357 N   0  0  0  0  0  0
  -25.9351  -11.6519   20.5711 N   0  0  0  0  0  0
  -22.0462  -12.8229   22.0360 N   0  0  0  0  0  0
  -25.4285  -15.1902   20.4129 N   0  0  0  0  0  0
  -31.8065  -14.7070   20.0923 O   0  0  0  0  0  0
  -21.6649   -6.8898   21.4255 O   0  0  0  0  0  0
  -22.3549  -14.5558   20.6704 O   0  0  0  0  0  0
  -24.6192  -31.8657   23.2086 C   0  0  0  0  0  0
  -25.9087  -32.4799   23.8376 C   0  0  1  0  0  0
  -27.2301  -27.3985   20.1086 C   0  0  0  0  0  0
  -25.5941  -33.8589   24.2324 N   0  0  0  0  0  0
  -23.4079  -30.4925   21.5493 C   0  0  2  0  0  0
  -24.8550  -28.9530   20.1170 C   0  0  0  0  0  0
  -22.7417  -29.4659   22.4957 C   0  0  0  0  0  0
  -18.0276  -28.1364   22.8478 C   0  0  0  0  0  0
  -24.1485  -36.7260   23.2644 C   0  0  0  0  0  0
  -25.9416  -30.8208   21.3685 C   0  0  0  0  0  0
  -26.0168  -29.4505   20.7210 C   0  0  0  0  0  0
  -27.2083  -28.6790   20.7180 C   0  0  0  0  0  0
  -26.0551  -26.9359   19.4836 C   0  0  0  0  0  0
  -24.8691  -27.6926   19.4975 C   0  0  0  0  0  0
  -23.6187  -29.8254   20.1643 C   0  0  0  0  0  0
  -25.4109  -36.3072   24.0351 C   0  0  1  0  0  0
  -20.5876  -28.3655   23.1297 C   0  0  2  0  0  0
  -20.6750  -26.9379   22.5427 C   0  0  0  0  0  0
  -19.5745  -26.6369   21.5203 C   0  0  0  0  0  0
  -18.1908  -26.7926   22.1594 C   0  0  0  0  0  0
  -19.1536  -28.8824   23.2891 C   0  0  0  0  0  0
  -18.9460  -30.1439   23.8891 C   0  0  0  0  0  0
  -17.6466  -30.6577   24.0542 C   0  0  0  0  0  0
  -25.9039  -34.9455   23.5121 C   0  0  0  0  0  0
  -16.5354  -29.9069   23.6337 C   0  0  0  0  0  0
  -16.7274  -28.6486   23.0357 C   0  0  0  0  0  0
  -26.4509  -31.6572   25.0706 C   0  0  0  0  0  0
  -25.3799  -31.3662   26.1478 C   0  0  0  0  0  0
  -27.0340  -30.3017   24.6076 C   0  0  0  0  0  0
  -27.6067  -32.4298   25.7495 C   0  0  0  0  0  0
  -27.5585  -37.1774   24.8453 C   0  0  0  0  0  0
  -21.4148  -29.3028   22.3684 N   0  0  0  0  0  0
  -26.4261  -37.3786   23.9449 N   0  0  0  0  0  0
  -24.6749  -31.0743   22.0996 N   0  0  0  0  0  0
  -23.4176  -28.8194   23.2991 O   0  0  0  0  0  0
  -28.3731  -26.6167   20.0541 O   0  0  0  0  0  0
  -26.5564  -34.8916   22.4659 O   0  0  0  0  0  0
  -23.5382  -32.1407   23.7478 O   0  0  0  0  0  0
  -30.9527  -19.0697   20.8260 C   0  0  0  0  0  0
  -31.1387  -17.6590   20.6160 C   0  0  0  0  0  0
  -29.8015  -19.3882   21.5065 C   0  0  0  0  0  0
  -30.1336  -16.8662   21.1355 C   0  0  0  0  0  0
  -29.2938  -20.6750   22.0114 C   0  0  0  0  0  0
  -29.6482  -23.6329   19.7389 C   0  0  0  0  0  0
  -29.7811  -22.1063   19.9649 C   0  0  0  0  0  0
  -28.7582  -23.1446   21.8711 C   0  0  0  0  0  0
  -28.4946  -24.0879   20.6609 C   0  0  2  0  0  0
  -27.1271  -23.7349   20.0305 C   0  0  0  0  0  0
  -28.5317  -25.6106   21.0842 C   0  0  0  0  0  0
  -29.2783  -21.8640   21.3264 N   0  0  0  0  0  0
  -29.9599  -15.5032   21.1444 N   0  0  0  0  0  0
  -28.8066  -20.6669   23.2661 N   0  3  0  0  0  0
  -28.9264  -17.9069   21.8738 S   0  0  0  0  0  0
  -31.4761  -12.4173   19.1426 H   0  0  0  0  0  0
  -30.3086  -11.3184   19.8264 H   0  0  0  0  0  0
  -29.7600  -11.8178   17.4230 H   0  0  0  0  0  0
  -29.6908  -13.5202   17.7805 H   0  0  0  0  0  0
  -27.8174  -11.3395   18.7746 H   0  0  0  0  0  0
  -27.3894  -12.7022   17.7776 H   0  0  0  0  0  0
  -27.7106  -14.2686   19.5946 H   0  0  0  0  0  0
  -28.6897  -11.9579   21.3333 H   0  0  0  0  0  0
  -28.4605  -13.5863   21.8818 H   0  0  0  0  0  0
  -25.2786   -9.5691   22.4742 H   0  0  0  0  0  0
  -24.0026   -7.4650   22.7477 H   0  0  0  0  0  0
  -21.0887   -8.8802   19.8950 H   0  0  0  0  0  0
  -22.3769  -10.9666   19.6114 H   0  0  0  0  0  0
  -21.2012   -7.6130   23.9731 H   0  0  0  0  0  0
  -21.1462   -6.0507   25.9092 H   0  0  0  0  0  0
  -22.0592   -2.7623   23.2828 H   0  0  0  0  0  0
  -22.4025  -11.9854   22.4726 H   0  0  0  0  0  0
  -21.1075  -13.1272   22.2527 H   0  0  0  0  0  0
  -24.6632  -15.8433   20.5394 H   0  0  0  0  0  0
  -26.2855  -15.6381   20.1116 H   0  0  0  0  0  0
  -26.7147  -32.5509   23.1123 H   0  0  0  0  0  0
  -25.0203  -33.9727   25.0549 H   0  0  0  0  0  0
  -22.6992  -31.3126   21.4089 H   0  0  0  0  0  0
  -23.3779  -35.9551   23.3242 H   0  0  0  0  0  0
  -24.3614  -36.8924   22.2076 H   0  0  0  0  0  0
  -23.7178  -37.6429   23.6679 H   0  0  0  0  0  0
  -26.0643  -31.5844   20.5982 H   0  0  0  0  0  0
  -26.8297  -30.8733   21.9873 H   0  0  0  0  0  0
  -28.1059  -29.0630   21.1807 H   0  0  0  0  0  0
  -26.0488  -25.9886   18.9688 H   0  0  0  0  0  0
  -23.9778  -27.3053   19.0213 H   0  0  0  0  0  0
  -23.7282  -30.5979   19.4036 H   0  0  0  0  0  0
  -22.7412  -29.2457   19.8716 H   0  0  0  0  0  0
  -25.1275  -36.1906   25.0841 H   0  0  0  0  0  0
  -21.0012  -28.3230   24.1410 H   0  0  0  0  0  0
  -20.5645  -26.2243   23.3615 H   0  0  0  0  0  0
  -21.6619  -26.7420   22.1222 H   0  0  0  0  0  0
  -19.6891  -25.6285   21.1210 H   0  0  0  0  0  0
  -19.6709  -27.3192   20.6739 H   0  0  0  0  0  0
  -17.4215  -26.6742   21.3950 H   0  0  0  0  0  0
  -18.0268  -26.0072   22.8985 H   0  0  0  0  0  0
  -19.7941  -30.7247   24.2265 H   0  0  0  0  0  0
  -17.5031  -31.6271   24.5120 H   0  0  0  0  0  0
  -15.5350  -30.2960   23.7687 H   0  0  0  0  0  0
  -15.8661  -28.0810   22.7078 H   0  0  0  0  0  0
  -24.5984  -30.6978   25.7852 H   0  0  0  0  0  0
  -24.8985  -32.2809   26.4939 H   0  0  0  0  0  0
  -25.8228  -30.8859   27.0214 H   0  0  0  0  0  0
  -26.2862  -29.6766   24.1196 H   0  0  0  0  0  0
  -27.4182  -29.7267   25.4507 H   0  0  0  0  0  0
  -27.8662  -30.4328   23.9163 H   0  0  0  0  0  0
  -27.2680  -33.3616   26.2034 H   0  0  0  0  0  0
  -28.3920  -32.6831   25.0362 H   0  0  0  0  0  0
  -28.0681  -31.8443   26.5455 H   0  0  0  0  0  0
  -28.2529  -38.0146   24.7607 H   0  0  0  0  0  0
  -28.1138  -36.2671   24.6111 H   0  0  0  0  0  0
  -27.2319  -37.1252   25.8855 H   0  0  0  0  0  0
  -20.9265  -29.8751   21.6936 H   0  0  0  0  0  0
  -26.0120  -38.2829   24.1543 H   0  0  0  0  0  0
  -31.6936  -19.7838   20.4972 H   0  0  0  0  0  0
  -32.0170  -17.2925   20.1017 H   0  0  0  0  0  0
  -29.4566  -23.8677   18.6911 H   0  0  0  0  0  0
  -30.5870  -24.1225   20.0059 H   0  0  0  0  0  0
  -30.8127  -21.7736   19.8462 H   0  0  0  0  0  0
  -29.1637  -21.5541   19.2566 H   0  0  0  0  0  0
  -27.8446  -22.9877   22.4451 H   0  0  0  0  0  0
  -29.5088  -23.5620   22.5438 H   0  0  0  0  0  0
  -26.9480  -22.6589   19.9883 H   0  0  0  0  0  0
  -27.0595  -24.0993   19.0057 H   0  0  0  0  0  0
  -26.3048  -24.1690   20.6011 H   0  0  0  0  0  0
  -29.5039  -25.8084   21.5381 H   0  0  0  0  0  0
  -27.8102  -25.7798   21.8877 H   0  0  0  0  0  0
  -29.0922  -15.1813   21.5465 H   0  0  0  0  0  0
  -28.8612  -19.8296   23.8255 H   0  0  0  0  0  0
  -28.4170  -21.4881   23.7030 H   0  0  0  0  0  0
  1 25  1  0  0  0
  1 30  2  0  0  0
  1 83  1  0  0  0
  2  3  1  0  0  0
  2 25  1  0  0  0
  2 86  1  0  0  0
  2 87  1  0  0  0
  3  4  1  0  0  0
  3 88  1  0  0  0
  3 89  1  0  0  0
  4  5  1  0  0  0
  4 90  1  0  0  0
  4 91  1  0  0  0
  5  6  1  0  0  0
  5 26  1  0  0  0
  5 92  1  0  0  0
  6 25  1  0  0  0
  6 93  1  0  0  0
  6 94  1  0  0  0
  7  8  2  0  0  0
  7 26  1  0  0  0
  7 29  1  0  0  0
  8  9  1  0  0  0
  8 22  1  0  0  0
  9 10  1  0  0  0
  9 27  2  0  0  0
 10 11  2  0  0  0
 10 15  1  0  0  0
 11 12  1  0  0  0
 11 95  1  0  0  0
 12 13  2  0  0  0
 12 96  1  0  0  0
 13 14  1  0  0  0
 13 31  1  0  0  0
 14 15  2  0  0  0
 14 97  1  0  0  0
 15 98  1  0  0  0
 16 17  2  0  0  0
 16 21  1  0  0  0
 16 31  1  0  0  0
 17 18  1  0  0  0
 17 99  1  0  0  0
 18 19  2  0  0  0
 18100  1  0  0  0
 19 20  1  0  0  0
 19 24  1  0  0  0
 20 21  2  0  0  0
 20101  1  0  0  0
 21 23  1  0  0  0
 22 28  1  0  0  0
 22 32  2  0  0  0
 26 27  1  0  0  0
 28102  1  0  0  0
 28103  1  0  0  0
 29104  1  0  0  0
 29105  1  0  0  0
 33 34  1  0  0  0
 33 66  1  0  0  0
 33 70  2  0  0  0
 34 36  1  0  0  0
 34 59  1  0  0  0
 34106  1  0  0  0
 35 44  2  0  0  0
 35 45  1  0  0  0
 35 68  1  0  0  0
 36 56  1  0  0  0
 36107  1  0  0  0
 37 39  1  0  0  0
 37 47  1  0  0  0
 37 66  1  0  0  0
 37108  1  0  0  0
 38 43  2  0  0  0
 38 46  1  0  0  0
 38 47  1  0  0  0
 39 64  1  0  0  0
 39 67  2  0  0  0
 40 52  1  0  0  0
 40 53  2  0  0  0
 40 58  1  0  0  0
 41109  1  0  0  0
 41110  1  0  0  0
 41111  1  0  0  0
 41 48  1  0  0  0
 42 43  1  0  0  0
 42 66  1  0  0  0
 42112  1  0  0  0
 42113  1  0  0  0
 43 44  1  0  0  0
 44114  1  0  0  0
 45 46  2  0  0  0
 45115  1  0  0  0
 46116  1  0  0  0
 47117  1  0  0  0
 47118  1  0  0  0
 48 56  1  0  0  0
 48 65  1  0  0  0
 48119  1  0  0  0
 49 50  1  0  0  0
 49 53  1  0  0  0
 49 64  1  0  0  0
 49120  1  0  0  0
 50 51  1  0  0  0
 50121  1  0  0  0
 50122  1  0  0  0
 51 52  1  0  0  0
 51123  1  0  0  0
 51124  1  0  0  0
 52125  1  0  0  0
 52126  1  0  0  0
 53 54  1  0  0  0
 54 55  2  0  0  0
 54127  1  0  0  0
 55 57  1  0  0  0
 55128  1  0  0  0
 56 69  2  0  0  0
 57 58  2  0  0  0
 57129  1  0  0  0
 58130  1  0  0  0
 59 60  1  0  0  0
 59 61  1  0  0  0
 59 62  1  0  0  0
 60131  1  0  0  0
 60132  1  0  0  0
 60133  1  0  0  0
 61134  1  0  0  0
 61135  1  0  0  0
 61136  1  0  0  0
 62137  1  0  0  0
 62138  1  0  0  0
 62139  1  0  0  0
 63 65  1  0  0  0
 63140  1  0  0  0
 63141  1  0  0  0
 63142  1  0  0  0
 64143  1  0  0  0
 65144  1  0  0  0
 68 81  1  0  0  0
 71 72  1  0  0  0
 71 73  2  0  0  0
 71145  1  0  0  0
 72 74  2  0  0  0
 72146  1  0  0  0
 73 75  1  0  0  0
 73 85  1  0  0  0
 74 83  1  0  0  0
 74 85  1  0  0  0
 75 82  1  0  0  0
 75 84  2  0  0  0
 76 77  1  0  0  0
 76 79  1  0  0  0
 76147  1  0  0  0
 76148  1  0  0  0
 77 82  1  0  0  0
 77149  1  0  0  0
 77150  1  0  0  0
 78 79  1  0  0  0
 78 82  1  0  0  0
 78151  1  0  0  0
 78152  1  0  0  0
 79 80  1  0  0  0
 79 81  1  0  0  0
 80153  1  0  0  0
 80154  1  0  0  0
 80155  1  0  0  0
 81156  1  0  0  0
 81157  1  0  0  0
 83158  1  0  0  0
 84159  1  0  0  0
 84160  1  0  0  0
M  CHG  1  84   1
M  ISO  4   1 100  68 101  81 101  83 100
M  END
> <chiral flag>
0

> <version>
0

> <s_m_source_file>
/data/baiqing/PycharmProjects/Reinvent-master-3.2/result/LINK_invent/BTK/process_docking_weight1_custom_product_contain_oxygen_bond_distance_aromatic_linkinvent_7_9_3/rearranged_h_0148.sdf

> <i_m_source_file_index>
3

> <r_mmod_Potential_Energy-OPLS-2005>
-45.8264808654785

> <r_mmod_Stretch_Energy-OPLS-2005>
47.3418731689453

> <r_mmod_Bend_Energy-OPLS-2005>
151.567611694336

> <r_mmod_Torsional_Energy-OPLS-2005>
308.912933349609

> <r_mmod_Improper_Torsional_Energy-OPLS-2005>
3.15526485443115

> <r_mmod_Van_der_Waal_Energy-OPLS-2005>
126.675834655762

> <r_mmod_Electrostatic_Energy-OPLS-2005>
-256.290252685547

> <r_mmod_Solvation_Energy-OPLS-2005>
-444.079681396484

> <b_mmod_Minimization_Converged-OPLS-2005>
0

> <r_mmod_RMS_Derivative-OPLS-2005>
3.58441424369812

$$$$
3
                    3D
 Structure written by MMmdl.
165174  0  0  1  0            999 V2000
  -30.6649  -14.5993   20.5231 C   0  0  0  0  0  0
  -30.4380  -12.3793   19.4431 C   0  0  0  0  0  0
  -29.5058  -12.5173   18.2197 C   0  0  0  0  0  0
  -28.0317  -12.3475   18.6367 C   0  0  0  0  0  0
  -27.6602  -13.2013   19.8781 C   0  0  2  0  0  0
  -28.7096  -13.0572   21.0049 C   0  0  0  0  0  0
  -25.2598  -13.8125   20.5713 C   0  0  0  0  0  0
  -24.1835  -13.0417   20.9185 C   0  0  0  0  0  0
  -24.6392  -11.6884   20.8750 C   0  0  0  0  0  0
  -23.9056  -10.4275   21.0408 C   0  0  0  0  0  0
  -24.3615   -9.4197   21.9179 C   0  0  0  0  0  0
  -23.6291   -8.2232   22.0755 C   0  0  0  0  0  0
  -22.4267   -8.0283   21.3554 C   0  0  0  0  0  0
  -21.9890   -9.0259   20.4652 C   0  0  0  0  0  0
  -22.7230  -10.2128   20.3054 C   0  0  0  0  0  0
  -21.6843   -6.0730   22.5269 C   0  0  0  0  0  0
  -21.4000   -6.5625   23.8201 C   0  0  0  0  0  0
  -21.3660   -5.6783   24.9164 C   0  0  0  0  0  0
  -21.6055   -4.3051   24.7210 C   0  0  0  0  0  0
  -21.8825   -3.8148   23.4322 C   0  0  0  0  0  0
  -21.9187   -4.6961   22.3386 C   0  0  0  0  0  0
  -22.7859  -13.5228   21.1845 C   0  0  0  0  0  0
  -22.1660   -4.2156   21.0962 F   0  0  0  0  0  0
  -21.5639   -3.4533   25.7713 F   0  0  0  0  0  0
  -30.0307  -13.3879   20.4424 N   0  0  0  0  0  0
  -26.3028  -12.9274   20.3406 N   0  0  0  0  0  0
  -25.9318  -11.6449   20.5784 N   0  0  0  0  0  0
  -22.0496  -12.8230   22.0409 N   0  0  0  0  0  0
  -25.4361  -15.1840   20.4128 N   0  0  0  0  0  0
  -31.7928  -14.7747   20.0577 O   0  0  0  0  0  0
  -21.6639   -6.8881   21.4234 O   0  0  0  0  0  0
  -22.3556  -14.5561   20.6727 O   0  0  0  0  0  0
  -24.6232  -31.8628   23.2061 C   0  0  0  0  0  0
  -25.9099  -32.4791   23.8370 C   0  0  1  0  0  0
  -27.2300  -27.3547   20.1153 C   0  0  0  0  0  0
  -25.5943  -33.8586   24.2311 N   0  0  0  0  0  0
  -23.4138  -30.4866   21.5490 C   0  0  2  0  0  0
  -24.8615  -28.9461   20.1130 C   0  0  0  0  0  0
  -22.7458  -29.4622   22.4968 C   0  0  0  0  0  0
  -18.0291  -28.1390   22.8465 C   0  0  0  0  0  0
  -24.1487  -36.7292   23.2630 C   0  0  0  0  0  0
  -25.9510  -30.8042   21.3721 C   0  0  0  0  0  0
  -26.0272  -29.4335   20.7183 C   0  0  0  0  0  0
  -27.2141  -28.6488   20.7094 C   0  0  0  0  0  0
  -26.0466  -26.9172   19.4762 C   0  0  0  0  0  0
  -24.8716  -27.6933   19.4821 C   0  0  0  0  0  0
  -23.6265  -29.8216   20.1635 C   0  0  0  0  0  0
  -25.4103  -36.3079   24.0332 C   0  0  1  0  0  0
  -20.5880  -28.3680   23.1296 C   0  0  2  0  0  0
  -20.6778  -26.9408   22.5413 C   0  0  0  0  0  0
  -19.5766  -26.6380   21.5203 C   0  0  0  0  0  0
  -18.1939  -26.7939   22.1601 C   0  0  0  0  0  0
  -19.1535  -28.8854   23.2875 C   0  0  0  0  0  0
  -18.9458  -30.1455   23.8892 C   0  0  0  0  0  0
  -17.6457  -30.6585   24.0560 C   0  0  0  0  0  0
  -25.9038  -34.9453   23.5117 C   0  0  0  0  0  0
  -16.5354  -29.9077   23.6325 C   0  0  0  0  0  0
  -16.7276  -28.6503   23.0334 C   0  0  0  0  0  0
  -26.4504  -31.6579   25.0715 C   0  0  0  0  0  0
  -25.3754  -31.3729   26.1454 C   0  0  0  0  0  0
  -27.0316  -30.2997   24.6132 C   0  0  0  0  0  0
  -27.6082  -32.4288   25.7494 C   0  0  0  0  0  0
  -27.5582  -37.1794   24.8455 C   0  0  0  0  0  0
  -21.4179  -29.3041   22.3706 N   0  0  0  0  0  0
  -26.4287  -37.3763   23.9417 N   0  0  0  0  0  0
  -24.6810  -31.0666   22.1000 N   0  0  0  0  0  0
  -23.4198  -28.8155   23.3017 O   0  0  0  0  0  0
  -28.3658  -26.5414   20.1353 O   0  0  0  0  0  0
  -26.5579  -34.8913   22.4660 O   0  0  0  0  0  0
  -23.5406  -32.1413   23.7425 O   0  0  0  0  0  0
  -29.0949  -19.4684   19.2670 C   0  0  0  0  0  0
  -30.3819  -18.1495   20.8777 C   0  0  0  0  0  0
  -28.7758  -17.0488   19.4248 C   0  0  0  0  0  0
  -30.0739  -19.4241   20.2772 C   0  0  0  0  0  0
  -28.4390  -18.2946   18.8517 C   0  0  0  0  0  0
  -29.7498  -16.9388   20.4417 C   0  0  0  0  0  0
  -30.8732  -20.6544   20.5549 C   0  0  0  0  0  0
  -30.6303  -24.3963   20.8784 C   0  0  0  0  0  0
  -31.4315  -23.0820   20.8321 C   0  0  0  0  0  0
  -29.1062  -22.6098   20.5352 C   0  0  0  0  0  0
  -29.3337  -24.1135   20.1103 C   0  0  2  0  0  0
  -29.5689  -24.1845   18.5855 C   0  0  0  0  0  0
  -28.1763  -25.1231   20.4840 C   0  0  0  0  0  0
  -30.4640  -21.9766   20.6103 N   0  0  0  0  0  0
  -27.4614  -18.3728   17.8606 N   0  0  0  0  0  0
  -29.9553  -15.6340   21.0515 N   0  0  0  0  0  0
  -32.1788  -20.4329   20.7151 N   0  3  0  0  0  0
  -31.4796  -12.4925   19.1350 H   0  0  0  0  0  0
  -30.3645  -11.3800   19.8732 H   0  0  0  0  0  0
  -29.7652  -11.7778   17.4599 H   0  0  0  0  0  0
  -29.6465  -13.4943   17.7529 H   0  0  0  0  0  0
  -27.8687  -11.2912   18.8525 H   0  0  0  0  0  0
  -27.3762  -12.5918   17.8013 H   0  0  0  0  0  0
  -27.6749  -14.2333   19.5483 H   0  0  0  0  0  0
  -28.7155  -12.0357   21.3892 H   0  0  0  0  0  0
  -28.4544  -13.6917   21.8559 H   0  0  0  0  0  0
  -25.2765   -9.5656   22.4748 H   0  0  0  0  0  0
  -24.0008   -7.4598   22.7440 H   0  0  0  0  0  0
  -21.0838   -8.8772   19.8933 H   0  0  0  0  0  0
  -22.3714  -10.9667   19.6155 H   0  0  0  0  0  0
  -21.1992   -7.6130   23.9701 H   0  0  0  0  0  0
  -21.1484   -6.0515   25.9071 H   0  0  0  0  0  0
  -22.0610   -2.7607   23.2822 H   0  0  0  0  0  0
  -22.4089  -11.9872   22.4778 H   0  0  0  0  0  0
  -21.1113  -13.1258   22.2599 H   0  0  0  0  0  0
  -24.6815  -15.8489   20.5367 H   0  0  0  0  0  0
  -26.2923  -15.6194   20.1012 H   0  0  0  0  0  0
  -26.7167  -32.5476   23.1124 H   0  0  0  0  0  0
  -25.0172  -33.9737   25.0515 H   0  0  0  0  0  0
  -22.7043  -31.3048   21.4098 H   0  0  0  0  0  0
  -23.3754  -35.9617   23.3271 H   0  0  0  0  0  0
  -24.3592  -36.8923   22.2047 H   0  0  0  0  0  0
  -23.7232  -37.6489   23.6655 H   0  0  0  0  0  0
  -26.0728  -31.5660   20.6011 H   0  0  0  0  0  0
  -26.8347  -30.8580   21.9952 H   0  0  0  0  0  0
  -28.1114  -29.0185   21.1849 H   0  0  0  0  0  0
  -26.0116  -25.9732   18.9534 H   0  0  0  0  0  0
  -23.9829  -27.3225   18.9894 H   0  0  0  0  0  0
  -23.7435  -30.5986   19.4074 H   0  0  0  0  0  0
  -22.7467  -29.2499   19.8610 H   0  0  0  0  0  0
  -25.1272  -36.1937   25.0821 H   0  0  0  0  0  0
  -20.9960  -28.3264   24.1418 H   0  0  0  0  0  0
  -20.5680  -26.2283   23.3605 H   0  0  0  0  0  0
  -21.6651  -26.7448   22.1214 H   0  0  0  0  0  0
  -19.6922  -25.6284   21.1247 H   0  0  0  0  0  0
  -19.6721  -27.3177   20.6724 H   0  0  0  0  0  0
  -17.4205  -26.6681   21.4006 H   0  0  0  0  0  0
  -18.0340  -26.0102   22.9016 H   0  0  0  0  0  0
  -19.7926  -30.7276   24.2267 H   0  0  0  0  0  0
  -17.5002  -31.6265   24.5162 H   0  0  0  0  0  0
  -15.5351  -30.2962   23.7660 H   0  0  0  0  0  0
  -15.8683  -28.0814   22.7054 H   0  0  0  0  0  0
  -24.5959  -30.7024   25.7813 H   0  0  0  0  0  0
  -24.8913  -32.2900   26.4817 H   0  0  0  0  0  0
  -25.8097  -30.8979   27.0261 H   0  0  0  0  0  0
  -26.2862  -29.6780   24.1155 H   0  0  0  0  0  0
  -27.4023  -29.7207   25.4604 H   0  0  0  0  0  0
  -27.8731  -30.4275   23.9319 H   0  0  0  0  0  0
  -27.2719  -33.3600   26.2065 H   0  0  0  0  0  0
  -28.3911  -32.6822   25.0334 H   0  0  0  0  0  0
  -28.0725  -31.8409   26.5425 H   0  0  0  0  0  0
  -28.2573  -38.0114   24.7518 H   0  0  0  0  0  0
  -28.1106  -36.2647   24.6251 H   0  0  0  0  0  0
  -27.2314  -37.1405   25.8860 H   0  0  0  0  0  0
  -20.9357  -29.8771   21.6931 H   0  0  0  0  0  0
  -26.0175  -38.2836   24.1431 H   0  0  0  0  0  0
  -28.8808  -20.3971   18.7620 H   0  0  0  0  0  0
  -31.1278  -18.0991   21.6594 H   0  0  0  0  0  0
  -28.2702  -16.1695   19.0654 H   0  0  0  0  0  0
  -31.1889  -25.2249   20.4422 H   0  0  0  0  0  0
  -30.4241  -24.6534   21.9187 H   0  0  0  0  0  0
  -32.0007  -22.9468   21.7530 H   0  0  0  0  0  0
  -32.1430  -23.1137   20.0041 H   0  0  0  0  0  0
  -28.4285  -22.1115   19.8452 H   0  0  0  0  0  0
  -28.6455  -22.5555   21.5240 H   0  0  0  0  0  0
  -30.3767  -23.5308   18.2574 H   0  0  0  0  0  0
  -29.8204  -25.1977   18.2714 H   0  0  0  0  0  0
  -28.6735  -23.8882   18.0379 H   0  0  0  0  0  0
  -28.0082  -25.0796   21.5614 H   0  0  0  0  0  0
  -27.2696  -24.7151   20.0421 H   0  0  0  0  0  0
  -27.3373  -19.2209   17.3175 H   0  0  0  0  0  0
  -27.0900  -17.5361   17.4209 H   0  0  0  0  0  0
  -29.1374  -15.2894   21.5320 H   0  0  0  0  0  0
  -32.5305  -19.4956   20.5979 H   0  0  0  0  0  0
  -32.8425  -21.1734   20.8532 H   0  0  0  0  0  0
  1 25  1  0  0  0
  1 30  2  0  0  0
  1 86  1  0  0  0
  2  3  1  0  0  0
  2 25  1  0  0  0
  2 88  1  0  0  0
  2 89  1  0  0  0
  3  4  1  0  0  0
  3 90  1  0  0  0
  3 91  1  0  0  0
  4  5  1  0  0  0
  4 92  1  0  0  0
  4 93  1  0  0  0
  5  6  1  0  0  0
  5 26  1  0  0  0
  5 94  1  0  0  0
  6 25  1  0  0  0
  6 95  1  0  0  0
  6 96  1  0  0  0
  7  8  2  0  0  0
  7 26  1  0  0  0
  7 29  1  0  0  0
  8  9  1  0  0  0
  8 22  1  0  0  0
  9 10  1  0  0  0
  9 27  2  0  0  0
 10 11  2  0  0  0
 10 15  1  0  0  0
 11 12  1  0  0  0
 11 97  1  0  0  0
 12 13  2  0  0  0
 12 98  1  0  0  0
 13 14  1  0  0  0
 13 31  1  0  0  0
 14 15  2  0  0  0
 14 99  1  0  0  0
 15100  1  0  0  0
 16 17  2  0  0  0
 16 21  1  0  0  0
 16 31  1  0  0  0
 17 18  1  0  0  0
 17101  1  0  0  0
 18 19  2  0  0  0
 18102  1  0  0  0
 19 20  1  0  0  0
 19 24  1  0  0  0
 20 21  2  0  0  0
 20103  1  0  0  0
 21 23  1  0  0  0
 22 28  1  0  0  0
 22 32  2  0  0  0
 26 27  1  0  0  0
 28104  1  0  0  0
 28105  1  0  0  0
 29106  1  0  0  0
 29107  1  0  0  0
 33 34  1  0  0  0
 33 66  1  0  0  0
 33 70  2  0  0  0
 34 36  1  0  0  0
 34 59  1  0  0  0
 34108  1  0  0  0
 35 44  2  0  0  0
 35 45  1  0  0  0
 35 68  1  0  0  0
 36 56  1  0  0  0
 36109  1  0  0  0
 37 39  1  0  0  0
 37 47  1  0  0  0
 37 66  1  0  0  0
 37110  1  0  0  0
 38 43  2  0  0  0
 38 46  1  0  0  0
 38 47  1  0  0  0
 39 64  1  0  0  0
 39 67  2  0  0  0
 40 52  1  0  0  0
 40 53  2  0  0  0
 40 58  1  0  0  0
 41111  1  0  0  0
 41112  1  0  0  0
 41113  1  0  0  0
 41 48  1  0  0  0
 42 43  1  0  0  0
 42 66  1  0  0  0
 42114  1  0  0  0
 42115  1  0  0  0
 43 44  1  0  0  0
 44116  1  0  0  0
 45 46  2  0  0  0
 45117  1  0  0  0
 46118  1  0  0  0
 47119  1  0  0  0
 47120  1  0  0  0
 48 56  1  0  0  0
 48 65  1  0  0  0
 48121  1  0  0  0
 49 50  1  0  0  0
 49 53  1  0  0  0
 49 64  1  0  0  0
 49122  1  0  0  0
 50 51  1  0  0  0
 50123  1  0  0  0
 50124  1  0  0  0
 51 52  1  0  0  0
 51125  1  0  0  0
 51126  1  0  0  0
 52127  1  0  0  0
 52128  1  0  0  0
 53 54  1  0  0  0
 54 55  2  0  0  0
 54129  1  0  0  0
 55 57  1  0  0  0
 55130  1  0  0  0
 56 69  2  0  0  0
 57 58  2  0  0  0
 57131  1  0  0  0
 58132  1  0  0  0
 59 60  1  0  0  0
 59 61  1  0  0  0
 59 62  1  0  0  0
 60133  1  0  0  0
 60134  1  0  0  0
 60135  1  0  0  0
 61136  1  0  0  0
 61137  1  0  0  0
 61138  1  0  0  0
 62139  1  0  0  0
 62140  1  0  0  0
 62141  1  0  0  0
 63 65  1  0  0  0
 63142  1  0  0  0
 63143  1  0  0  0
 63144  1  0  0  0
 64145  1  0  0  0
 65146  1  0  0  0
 68 83  1  0  0  0
 71 74  2  0  0  0
 71 75  1  0  0  0
 71147  1  0  0  0
 72 74  1  0  0  0
 72 76  2  0  0  0
 72148  1  0  0  0
 73 75  2  0  0  0
 73 76  1  0  0  0
 73149  1  0  0  0
 74 77  1  0  0  0
 75 85  1  0  0  0
 76 86  1  0  0  0
 77 84  1  0  0  0
 77 87  2  0  0  0
 78 79  1  0  0  0
 78 81  1  0  0  0
 78150  1  0  0  0
 78151  1  0  0  0
 79 84  1  0  0  0
 79152  1  0  0  0
 79153  1  0  0  0
 80 81  1  0  0  0
 80 84  1  0  0  0
 80154  1  0  0  0
 80155  1  0  0  0
 81 82  1  0  0  0
 81 83  1  0  0  0
 82156  1  0  0  0
 82157  1  0  0  0
 82158  1  0  0  0
 83159  1  0  0  0
 83160  1  0  0  0
 85161  1  0  0  0
 85162  1  0  0  0
 86163  1  0  0  0
 87164  1  0  0  0
 87165  1  0  0  0
M  CHG  1  87   1
M  ISO  4   1 100  68 101  83 101  86 100
M  END
> <chiral flag>
0

> <version>
0

> <s_m_source_file>
/data/baiqing/PycharmProjects/Reinvent-master-3.2/result/LINK_invent/BTK/process_docking_weight1_custom_product_contain_oxygen_bond_distance_aromatic_linkinvent_7_9_3/rearranged_h_0148.sdf

> <i_m_source_file_index>
4

> <r_mmod_Potential_Energy-OPLS-2005>
-52.3391227722168

> <r_mmod_Stretch_Energy-OPLS-2005>
67.5427322387695

> <r_mmod_Bend_Energy-OPLS-2005>
169.881988525391

> <r_mmod_Torsional_Energy-OPLS-2005>
331.629913330078

> <r_mmod_Improper_Torsional_Energy-OPLS-2005>
8.3803653717041

> <r_mmod_Van_der_Waal_Energy-OPLS-2005>
146.293762207031

> <r_mmod_Electrostatic_Energy-OPLS-2005>
-398.888671875

> <r_mmod_Solvation_Energy-OPLS-2005>
-411.249298095703

> <b_mmod_Minimization_Converged-OPLS-2005>
0

> <r_mmod_RMS_Derivative-OPLS-2005>
2.7831768989563

$$$$
4
                    3D
 Structure written by MMmdl.
157166  0  0  1  0            999 V2000
  -30.6610  -14.6247   20.4720 C   0  0  0  0  0  0
  -30.4212  -12.3751   19.4673 C   0  0  0  0  0  0
  -29.5055  -12.4985   18.2306 C   0  0  0  0  0  0
  -28.0282  -12.3447   18.6389 C   0  0  0  0  0  0
  -27.6492  -13.2262   19.8597 C   0  0  2  0  0  0
  -28.6913  -13.1112   20.9950 C   0  0  0  0  0  0
  -25.2536  -13.8199   20.5691 C   0  0  0  0  0  0
  -24.1813  -13.0450   20.9191 C   0  0  0  0  0  0
  -24.6394  -11.6924   20.8738 C   0  0  0  0  0  0
  -23.9063  -10.4304   21.0401 C   0  0  0  0  0  0
  -24.3616   -9.4222   21.9182 C   0  0  0  0  0  0
  -23.6299   -8.2255   22.0755 C   0  0  0  0  0  0
  -22.4283   -8.0282   21.3542 C   0  0  0  0  0  0
  -21.9913   -9.0257   20.4646 C   0  0  0  0  0  0
  -22.7232  -10.2144   20.3058 C   0  0  0  0  0  0
  -21.6857   -6.0733   22.5274 C   0  0  0  0  0  0
  -21.4011   -6.5637   23.8207 C   0  0  0  0  0  0
  -21.3665   -5.6789   24.9169 C   0  0  0  0  0  0
  -21.6048   -4.3052   24.7222 C   0  0  0  0  0  0
  -21.8819   -3.8143   23.4343 C   0  0  0  0  0  0
  -21.9196   -4.6960   22.3399 C   0  0  0  0  0  0
  -22.7833  -13.5232   21.1854 C   0  0  0  0  0  0
  -22.1660   -4.2143   21.0979 F   0  0  0  0  0  0
  -21.5642   -3.4539   25.7737 F   0  0  0  0  0  0
  -30.0101  -13.4205   20.4272 N   0  0  0  0  0  0
  -26.2970  -12.9398   20.3312 N   0  0  0  0  0  0
  -25.9327  -11.6543   20.5761 N   0  0  0  0  0  0
  -22.0479  -12.8228   22.0413 N   0  0  0  0  0  0
  -25.4243  -15.1920   20.4116 N   0  0  0  0  0  0
  -31.8430  -14.7093   20.1265 O   0  0  0  0  0  0
  -21.6649   -6.8877   21.4236 O   0  0  0  0  0  0
  -22.3515  -14.5537   20.6700 O   0  0  0  0  0  0
  -24.6254  -31.8610   23.2054 C   0  0  0  0  0  0
  -25.9109  -32.4783   23.8369 C   0  0  1  0  0  0
  -27.2192  -27.3213   20.0999 C   0  0  0  0  0  0
  -25.5929  -33.8585   24.2292 N   0  0  0  0  0  0
  -23.4173  -30.4876   21.5489 C   0  0  2  0  0  0
  -24.8601  -28.9484   20.1097 C   0  0  0  0  0  0
  -22.7466  -29.4632   22.4948 C   0  0  0  0  0  0
  -18.0284  -28.1383   22.8489 C   0  0  0  0  0  0
  -24.1489  -36.7296   23.2638 C   0  0  0  0  0  0
  -25.9596  -30.7899   21.3785 C   0  0  0  0  0  0
  -26.0291  -29.4191   20.7181 C   0  0  0  0  0  0
  -27.2057  -28.6141   20.7110 C   0  0  0  0  0  0
  -26.0209  -26.9082   19.4666 C   0  0  0  0  0  0
  -24.8580  -27.6977   19.4796 C   0  0  0  0  0  0
  -23.6297  -29.8285   20.1619 C   0  0  0  0  0  0
  -25.4115  -36.3089   24.0330 C   0  0  1  0  0  0
  -20.5883  -28.3685   23.1288 C   0  0  2  0  0  0
  -20.6774  -26.9410   22.5410 C   0  0  0  0  0  0
  -19.5751  -26.6385   21.5212 C   0  0  0  0  0  0
  -18.1931  -26.7926   22.1625 C   0  0  0  0  0  0
  -19.1536  -28.8851   23.2884 C   0  0  0  0  0  0
  -18.9459  -30.1454   23.8900 C   0  0  0  0  0  0
  -17.6459  -30.6586   24.0564 C   0  0  0  0  0  0
  -25.9052  -34.9456   23.5110 C   0  0  0  0  0  0
  -16.5350  -29.9086   23.6329 C   0  0  0  0  0  0
  -16.7272  -28.6502   23.0352 C   0  0  0  0  0  0
  -26.4496  -31.6591   25.0735 C   0  0  0  0  0  0
  -25.3732  -31.3729   26.1463 C   0  0  0  0  0  0
  -27.0334  -30.3014   24.6187 C   0  0  0  0  0  0
  -27.6060  -32.4324   25.7496 C   0  0  0  0  0  0
  -27.5581  -37.1804   24.8467 C   0  0  0  0  0  0
  -21.4182  -29.3042   22.3685 N   0  0  0  0  0  0
  -26.4296  -37.3781   23.9407 N   0  0  0  0  0  0
  -24.6864  -31.0626   22.1007 N   0  0  0  0  0  0
  -23.4195  -28.8166   23.3018 O   0  0  0  0  0  0
  -28.3567  -26.4985   20.1767 O   0  0  0  0  0  0
  -26.5617  -34.8918   22.4674 O   0  0  0  0  0  0
  -23.5420  -32.1413   23.7384 O   0  0  0  0  0  0
  -29.6372  -18.2802   20.7195 C   0  0  0  0  0  0
  -30.7289  -19.0382   18.8198 C   0  0  0  0  0  0
  -30.0146  -19.4451   19.9161 C   0  0  0  0  0  0
  -30.1084  -17.0394   20.2570 C   0  0  0  0  0  0
  -30.1170  -23.2029   19.2915 C   0  0  0  0  0  0
  -28.1170  -22.7743   20.6824 C   0  0  0  0  0  0
  -30.7275  -21.8706   19.8198 C   0  0  0  0  0  0
  -28.7362  -21.3856   21.1166 C   0  0  0  0  0  0
  -29.1117  -23.9092   20.2451 C   0  0  0  0  0  0
  -28.4288  -25.1700   19.5255 C   0  0  0  0  0  0
  -29.7203  -20.8494   20.1609 N   0  0  0  0  0  0
  -29.9234  -15.7500   20.7527 N   0  0  0  0  0  0
  -29.8291  -24.3920   21.3712 O   0  0  0  0  0  0
  -30.9806  -17.3185   18.7602 S   0  0  0  0  0  0
  -31.4680  -12.4646   19.1714 H   0  0  0  0  0  0
  -30.3248  -11.3873   19.9208 H   0  0  0  0  0  0
  -29.7684  -11.7439   17.4883 H   0  0  0  0  0  0
  -29.6579  -13.4668   17.7511 H   0  0  0  0  0  0
  -27.8643  -11.2935   18.8782 H   0  0  0  0  0  0
  -27.3763  -12.5685   17.7938 H   0  0  0  0  0  0
  -27.6603  -14.2574   19.5062 H   0  0  0  0  0  0
  -28.6917  -12.1058   21.4179 H   0  0  0  0  0  0
  -28.4451  -13.7847   21.8173 H   0  0  0  0  0  0
  -25.2763   -9.5709   22.4750 H   0  0  0  0  0  0
  -24.0015   -7.4651   22.7479 H   0  0  0  0  0  0
  -21.0846   -8.8770   19.8952 H   0  0  0  0  0  0
  -22.3679  -10.9684   19.6172 H   0  0  0  0  0  0
  -21.1991   -7.6143   23.9707 H   0  0  0  0  0  0
  -21.1492   -6.0520   25.9073 H   0  0  0  0  0  0
  -22.0593   -2.7605   23.2845 H   0  0  0  0  0  0
  -22.4099  -11.9892   22.4806 H   0  0  0  0  0  0
  -21.1097  -13.1255   22.2619 H   0  0  0  0  0  0
  -24.6572  -15.8468   20.5198 H   0  0  0  0  0  0
  -26.2750  -15.6321   20.0833 H   0  0  0  0  0  0
  -26.7169  -32.5448   23.1109 H   0  0  0  0  0  0
  -25.0073  -33.9734   25.0434 H   0  0  0  0  0  0
  -22.7109  -31.3086   21.4102 H   0  0  0  0  0  0
  -23.3748  -35.9632   23.3311 H   0  0  0  0  0  0
  -24.3578  -36.8904   22.2050 H   0  0  0  0  0  0
  -23.7245  -37.6504   23.6650 H   0  0  0  0  0  0
  -26.0940  -31.5545   20.6122 H   0  0  0  0  0  0
  -26.8396  -30.8342   22.0084 H   0  0  0  0  0  0
  -28.1008  -28.9704   21.2013 H   0  0  0  0  0  0
  -25.9115  -25.9669   18.9574 H   0  0  0  0  0  0
  -23.9607  -27.3320   18.9991 H   0  0  0  0  0  0
  -23.7492  -30.6083   19.4089 H   0  0  0  0  0  0
  -22.7485  -29.2604   19.8580 H   0  0  0  0  0  0
  -25.1293  -36.1946   25.0824 H   0  0  0  0  0  0
  -20.9974  -28.3258   24.1409 H   0  0  0  0  0  0
  -20.5678  -26.2294   23.3608 H   0  0  0  0  0  0
  -21.6643  -26.7444   22.1203 H   0  0  0  0  0  0
  -19.6914  -25.6298   21.1239 H   0  0  0  0  0  0
  -19.6689  -27.3199   20.6744 H   0  0  0  0  0  0
  -17.4198  -26.6670   21.4029 H   0  0  0  0  0  0
  -18.0336  -26.0068   22.9024 H   0  0  0  0  0  0
  -19.7934  -30.7268   24.2274 H   0  0  0  0  0  0
  -17.5013  -31.6266   24.5166 H   0  0  0  0  0  0
  -15.5351  -30.2988   23.7653 H   0  0  0  0  0  0
  -15.8672  -28.0823   22.7066 H   0  0  0  0  0  0
  -24.5913  -30.7067   25.7798 H   0  0  0  0  0  0
  -24.8914  -32.2892   26.4883 H   0  0  0  0  0  0
  -25.8061  -30.8916   27.0241 H   0  0  0  0  0  0
  -26.2904  -29.6767   24.1215 H   0  0  0  0  0  0
  -27.4033  -29.7268   25.4689 H   0  0  0  0  0  0
  -27.8776  -30.4298   23.9409 H   0  0  0  0  0  0
  -27.2676  -33.3624   26.2075 H   0  0  0  0  0  0
  -28.3864  -32.6884   25.0316 H   0  0  0  0  0  0
  -28.0734  -31.8448   26.5406 H   0  0  0  0  0  0
  -28.2608  -38.0093   24.7504 H   0  0  0  0  0  0
  -28.1067  -36.2624   24.6304 H   0  0  0  0  0  0
  -27.2296  -37.1466   25.8870 H   0  0  0  0  0  0
  -20.9358  -29.8767   21.6899 H   0  0  0  0  0  0
  -26.0179  -38.2857   24.1405 H   0  0  0  0  0  0
  -29.0527  -18.3963   21.6205 H   0  0  0  0  0  0
  -31.1304  -19.6387   18.0149 H   0  0  0  0  0  0
  -29.6139  -22.9896   18.3467 H   0  0  0  0  0  0
  -30.9263  -23.8894   19.0375 H   0  0  0  0  0  0
  -27.4653  -23.1452   21.4749 H   0  0  0  0  0  0
  -27.4512  -22.5716   19.8423 H   0  0  0  0  0  0
  -31.3277  -22.0712   20.7087 H   0  0  0  0  0  0
  -31.4328  -21.5017   19.0766 H   0  0  0  0  0  0
  -27.9327  -20.6607   21.2548 H   0  0  0  0  0  0
  -29.2206  -21.4907   22.0887 H   0  0  0  0  0  0
  -27.4781  -24.8028   19.1625 H   0  0  0  0  0  0
  -28.9831  -25.3708   18.6080 H   0  0  0  0  0  0
  -29.0441  -15.5786   21.2170 H   0  0  0  0  0  0
  -30.2385  -23.6476   21.7960 H   0  0  0  0  0  0
  1 25  1  0  0  0
  1 30  2  0  0  0
  1 82  1  0  0  0
  2  3  1  0  0  0
  2 25  1  0  0  0
  2 85  1  0  0  0
  2 86  1  0  0  0
  3  4  1  0  0  0
  3 87  1  0  0  0
  3 88  1  0  0  0
  4  5  1  0  0  0
  4 89  1  0  0  0
  4 90  1  0  0  0
  5  6  1  0  0  0
  5 26  1  0  0  0
  5 91  1  0  0  0
  6 25  1  0  0  0
  6 92  1  0  0  0
  6 93  1  0  0  0
  7  8  2  0  0  0
  7 26  1  0  0  0
  7 29  1  0  0  0
  8  9  1  0  0  0
  8 22  1  0  0  0
  9 10  1  0  0  0
  9 27  2  0  0  0
 10 11  2  0  0  0
 10 15  1  0  0  0
 11 12  1  0  0  0
 11 94  1  0  0  0
 12 13  2  0  0  0
 12 95  1  0  0  0
 13 14  1  0  0  0
 13 31  1  0  0  0
 14 15  2  0  0  0
 14 96  1  0  0  0
 15 97  1  0  0  0
 16 17  2  0  0  0
 16 21  1  0  0  0
 16 31  1  0  0  0
 17 18  1  0  0  0
 17 98  1  0  0  0
 18 19  2  0  0  0
 18 99  1  0  0  0
 19 20  1  0  0  0
 19 24  1  0  0  0
 20 21  2  0  0  0
 20100  1  0  0  0
 21 23  1  0  0  0
 22 28  1  0  0  0
 22 32  2  0  0  0
 26 27  1  0  0  0
 28101  1  0  0  0
 28102  1  0  0  0
 29103  1  0  0  0
 29104  1  0  0  0
 33 34  1  0  0  0
 33 66  1  0  0  0
 33 70  2  0  0  0
 34 36  1  0  0  0
 34 59  1  0  0  0
 34105  1  0  0  0
 35 44  2  0  0  0
 35 45  1  0  0  0
 35 68  1  0  0  0
 36 56  1  0  0  0
 36106  1  0  0  0
 37 39  1  0  0  0
 37 47  1  0  0  0
 37 66  1  0  0  0
 37107  1  0  0  0
 38 43  2  0  0  0
 38 46  1  0  0  0
 38 47  1  0  0  0
 39 64  1  0  0  0
 39 67  2  0  0  0
 40 52  1  0  0  0
 40 53  2  0  0  0
 40 58  1  0  0  0
 41108  1  0  0  0
 41109  1  0  0  0
 41110  1  0  0  0
 41 48  1  0  0  0
 42 43  1  0  0  0
 42 66  1  0  0  0
 42111  1  0  0  0
 42112  1  0  0  0
 43 44  1  0  0  0
 44113  1  0  0  0
 45 46  2  0  0  0
 45114  1  0  0  0
 46115  1  0  0  0
 47116  1  0  0  0
 47117  1  0  0  0
 48 56  1  0  0  0
 48 65  1  0  0  0
 48118  1  0  0  0
 49 50  1  0  0  0
 49 53  1  0  0  0
 49 64  1  0  0  0
 49119  1  0  0  0
 50 51  1  0  0  0
 50120  1  0  0  0
 50121  1  0  0  0
 51 52  1  0  0  0
 51122  1  0  0  0
 51123  1  0  0  0
 52124  1  0  0  0
 52125  1  0  0  0
 53 54  1  0  0  0
 54 55  2  0  0  0
 54126  1  0  0  0
 55 57  1  0  0  0
 55127  1  0  0  0
 56 69  2  0  0  0
 57 58  2  0  0  0
 57128  1  0  0  0
 58129  1  0  0  0
 59 60  1  0  0  0
 59 61  1  0  0  0
 59 62  1  0  0  0
 60130  1  0  0  0
 60131  1  0  0  0
 60132  1  0  0  0
 61133  1  0  0  0
 61134  1  0  0  0
 61135  1  0  0  0
 62136  1  0  0  0
 62137  1  0  0  0
 62138  1  0  0  0
 63 65  1  0  0  0
 63139  1  0  0  0
 63140  1  0  0  0
 63141  1  0  0  0
 64142  1  0  0  0
 65143  1  0  0  0
 68 80  1  0  0  0
 71 73  1  0  0  0
 71 74  2  0  0  0
 71144  1  0  0  0
 72 73  2  0  0  0
 72 84  1  0  0  0
 72145  1  0  0  0
 73 81  1  0  0  0
 74 82  1  0  0  0
 74 84  1  0  0  0
 75 77  1  0  0  0
 75 79  1  0  0  0
 75146  1  0  0  0
 75147  1  0  0  0
 76 78  1  0  0  0
 76 79  1  0  0  0
 76148  1  0  0  0
 76149  1  0  0  0
 77 81  1  0  0  0
 77150  1  0  0  0
 77151  1  0  0  0
 78 81  1  0  0  0
 78152  1  0  0  0
 78153  1  0  0  0
 79 80  1  0  0  0
 79 83  1  0  0  0
 80154  1  0  0  0
 80155  1  0  0  0
 82156  1  0  0  0
 83157  1  0  0  0
M  ISO  4   1 100  68 101  80 101  82 100
M  END
> <chiral flag>
0

> <version>
0

> <s_m_source_file>
/data/baiqing/PycharmProjects/Reinvent-master-3.2/result/LINK_invent/BTK/process_docking_weight1_custom_product_contain_oxygen_bond_distance_aromatic_linkinvent_7_9_3/rearranged_h_0148.sdf

> <i_m_source_file_index>
5

> <r_mmod_Potential_Energy-OPLS-2005>
95.8453216552734

> <r_mmod_Stretch_Energy-OPLS-2005>
78.1498260498047

> <r_mmod_Bend_Energy-OPLS-2005>
156.506484985352

> <r_mmod_Torsional_Energy-OPLS-2005>
297.272003173828

> <r_mmod_Improper_Torsional_Energy-OPLS-2005>
5.37843894958496

> <r_mmod_Van_der_Waal_Energy-OPLS-2005>
140.543930053711

> <r_mmod_Electrostatic_Energy-OPLS-2005>
-377.208282470703

> <r_mmod_Solvation_Energy-OPLS-2005>
-251.79655456543

> <b_mmod_Minimization_Converged-OPLS-2005>
0

> <r_mmod_RMS_Derivative-OPLS-2005>
0.578839242458344

$$$$
5
                    3D
 Structure written by MMmdl.
169178  0  0  1  0            999 V2000
  -30.6641  -14.6001   20.4956 C   0  0  0  0  0  0
  -30.4291  -12.3669   19.4527 C   0  0  0  0  0  0
  -29.5025  -12.5085   18.2251 C   0  0  0  0  0  0
  -28.0260  -12.3493   18.6351 C   0  0  0  0  0  0
  -27.6544  -13.2110   19.8707 C   0  0  2  0  0  0
  -28.7021  -13.0709   21.0006 C   0  0  0  0  0  0
  -25.2583  -13.8149   20.5719 C   0  0  0  0  0  0
  -24.1834  -13.0437   20.9210 C   0  0  0  0  0  0
  -24.6380  -11.6899   20.8747 C   0  0  0  0  0  0
  -23.9037  -10.4295   21.0419 C   0  0  0  0  0  0
  -24.3587   -9.4203   21.9186 C   0  0  0  0  0  0
  -23.6262   -8.2235   22.0755 C   0  0  0  0  0  0
  -22.4241   -8.0271   21.3546 C   0  0  0  0  0  0
  -21.9891   -9.0245   20.4637 C   0  0  0  0  0  0
  -22.7221  -10.2129   20.3046 C   0  0  0  0  0  0
  -21.6847   -6.0713   22.5277 C   0  0  0  0  0  0
  -21.4018   -6.5628   23.8210 C   0  0  0  0  0  0
  -21.3662   -5.6783   24.9173 C   0  0  0  0  0  0
  -21.6046   -4.3048   24.7230 C   0  0  0  0  0  0
  -21.8829   -3.8129   23.4357 C   0  0  0  0  0  0
  -21.9201   -4.6938   22.3406 C   0  0  0  0  0  0
  -22.7856  -13.5233   21.1872 C   0  0  0  0  0  0
  -22.1671   -4.2116   21.0987 F   0  0  0  0  0  0
  -21.5626   -3.4537   25.7748 F   0  0  0  0  0  0
  -30.0249  -13.3901   20.4377 N   0  0  0  0  0  0
  -26.2996  -12.9312   20.3365 N   0  0  0  0  0  0
  -25.9310  -11.6476   20.5779 N   0  0  0  0  0  0
  -22.0518  -12.8187   22.0412 N   0  0  0  0  0  0
  -25.4338  -15.1874   20.4148 N   0  0  0  0  0  0
  -31.8114  -14.7495   20.0679 O   0  0  0  0  0  0
  -21.6628   -6.8850   21.4233 O   0  0  0  0  0  0
  -22.3534  -14.5548   20.6738 O   0  0  0  0  0  0
  -24.6240  -31.8637   23.2098 C   0  0  0  0  0  0
  -25.9104  -32.4796   23.8410 C   0  0  1  0  0  0
  -27.2163  -27.3416   20.1047 C   0  0  0  0  0  0
  -25.5929  -33.8598   24.2322 N   0  0  0  0  0  0
  -23.4159  -30.4928   21.5520 C   0  0  2  0  0  0
  -24.8602  -28.9619   20.1079 C   0  0  0  0  0  0
  -22.7467  -29.4647   22.4946 C   0  0  0  0  0  0
  -18.0293  -28.1380   22.8504 C   0  0  0  0  0  0
  -24.1486  -36.7298   23.2643 C   0  0  0  0  0  0
  -25.9576  -30.7973   21.3844 C   0  0  0  0  0  0
  -26.0283  -29.4299   20.7218 C   0  0  0  0  0  0
  -27.2067  -28.6276   20.7219 C   0  0  0  0  0  0
  -26.0340  -26.9514   19.4265 C   0  0  0  0  0  0
  -24.8635  -27.7246   19.4535 C   0  0  0  0  0  0
  -23.6274  -29.8378   20.1641 C   0  0  0  0  0  0
  -25.4112  -36.3100   24.0340 C   0  0  1  0  0  0
  -20.5889  -28.3690   23.1285 C   0  0  2  0  0  0
  -20.6770  -26.9414   22.5412 C   0  0  0  0  0  0
  -19.5740  -26.6383   21.5214 C   0  0  0  0  0  0
  -18.1922  -26.7931   22.1630 C   0  0  0  0  0  0
  -19.1543  -28.8856   23.2887 C   0  0  0  0  0  0
  -18.9465  -30.1458   23.8906 C   0  0  0  0  0  0
  -17.6465  -30.6582   24.0573 C   0  0  0  0  0  0
  -25.9048  -34.9463   23.5129 C   0  0  0  0  0  0
  -16.5356  -29.9085   23.6326 C   0  0  0  0  0  0
  -16.7283  -28.6495   23.0367 C   0  0  0  0  0  0
  -26.4494  -31.6599   25.0769 C   0  0  0  0  0  0
  -25.3731  -31.3707   26.1493 C   0  0  0  0  0  0
  -27.0347  -30.3035   24.6202 C   0  0  0  0  0  0
  -27.6055  -32.4341   25.7532 C   0  0  0  0  0  0
  -27.5584  -37.1804   24.8470 C   0  0  0  0  0  0
  -21.4187  -29.3048   22.3682 N   0  0  0  0  0  0
  -26.4297  -37.3793   23.9413 N   0  0  0  0  0  0
  -24.6843  -31.0673   22.1045 N   0  0  0  0  0  0
  -23.4200  -28.8170   23.3007 O   0  0  0  0  0  0
  -28.3229  -26.4797   20.1922 O   0  0  0  0  0  0
  -26.5602  -34.8922   22.4686 O   0  0  0  0  0  0
  -23.5410  -32.1431   23.7433 O   0  0  0  0  0  0
  -28.7885  -17.9297   18.1355 C   0  0  0  0  0  0
  -29.0804  -16.7899   18.8994 C   0  0  0  0  0  0
  -30.1006  -18.2162   20.5863 C   0  0  0  0  0  0
  -29.8325  -19.4018   19.8068 C   0  0  0  0  0  0
  -29.1684  -19.2218   18.5543 C   0  0  0  0  0  0
  -29.7458  -16.8971   20.1364 C   0  0  0  0  0  0
  -30.4097  -20.7420   20.2000 C   0  0  0  0  0  0
  -28.4106  -22.4600   20.0271 C   0  0  0  0  0  0
  -28.8444  -23.8569   20.5666 C   0  0  2  0  0  0
  -30.2896  -23.4074   20.1721 C   0  0  0  0  0  0
  -28.8899  -20.3451   17.5644 C   0  0  0  0  0  0
  -28.5913  -24.0428   22.0704 C   0  0  0  0  0  0
  -31.4208  -23.7080   21.1717 C   0  0  0  0  0  0
  -30.7541  -23.7830   18.7550 C   0  0  0  0  0  0
  -28.1045  -25.0578   19.8594 C   0  0  0  0  0  0
  -29.7916  -21.9822   20.2243 N   0  0  0  0  0  0
  -29.9329  -15.6764   20.9026 N   0  0  0  0  0  0
  -31.7088  -20.7482   20.4904 N   0  3  0  0  0  0
  -31.4722  -12.4703   19.1501 H   0  0  0  0  0  0
  -30.3419  -11.3712   19.8891 H   0  0  0  0  0  0
  -29.7615  -11.7659   17.4691 H   0  0  0  0  0  0
  -29.6498  -13.4830   17.7556 H   0  0  0  0  0  0
  -27.8576  -11.2945   18.8554 H   0  0  0  0  0  0
  -27.3716  -12.5914   17.7972 H   0  0  0  0  0  0
  -27.6657  -14.2450   19.5351 H   0  0  0  0  0  0
  -28.7027  -12.0540   21.3964 H   0  0  0  0  0  0
  -28.4521  -13.7190   21.8417 H   0  0  0  0  0  0
  -25.2744   -9.5656   22.4742 H   0  0  0  0  0  0
  -23.9979   -7.4613   22.7466 H   0  0  0  0  0  0
  -21.0841   -8.8753   19.8915 H   0  0  0  0  0  0
  -22.3702  -10.9654   19.6126 H   0  0  0  0  0  0
  -21.2012   -7.6132   23.9698 H   0  0  0  0  0  0
  -21.1477   -6.0519   25.9076 H   0  0  0  0  0  0
  -22.0605   -2.7582   23.2871 H   0  0  0  0  0  0
  -22.4153  -11.9810   22.4713 H   0  0  0  0  0  0
  -21.1137  -13.1175   22.2677 H   0  0  0  0  0  0
  -24.6701  -15.8459   20.5237 H   0  0  0  0  0  0
  -26.2897  -15.6247   20.0991 H   0  0  0  0  0  0
  -26.7165  -32.5474   23.1156 H   0  0  0  0  0  0
  -25.0102  -33.9752   25.0482 H   0  0  0  0  0  0
  -22.7084  -31.3136   21.4168 H   0  0  0  0  0  0
  -23.3758  -35.9618   23.3305 H   0  0  0  0  0  0
  -24.3582  -36.8920   22.2058 H   0  0  0  0  0  0
  -23.7209  -37.6491   23.6660 H   0  0  0  0  0  0
  -26.0929  -31.5640   20.6205 H   0  0  0  0  0  0
  -26.8371  -30.8392   22.0150 H   0  0  0  0  0  0
  -28.0972  -28.9746   21.2268 H   0  0  0  0  0  0
  -25.9668  -26.0337   18.8617 H   0  0  0  0  0  0
  -23.9749  -27.3672   18.9496 H   0  0  0  0  0  0
  -23.7452  -30.6194   19.4139 H   0  0  0  0  0  0
  -22.7463  -29.2715   19.8581 H   0  0  0  0  0  0
  -25.1278  -36.1978   25.0832 H   0  0  0  0  0  0
  -20.9990  -28.3270   24.1401 H   0  0  0  0  0  0
  -20.5670  -26.2306   23.3612 H   0  0  0  0  0  0
  -21.6636  -26.7436   22.1206 H   0  0  0  0  0  0
  -19.6897  -25.6293   21.1242 H   0  0  0  0  0  0
  -19.6664  -27.3192   20.6742 H   0  0  0  0  0  0
  -17.4190  -26.6710   21.4025 H   0  0  0  0  0  0
  -18.0308  -26.0058   22.9008 H   0  0  0  0  0  0
  -19.7935  -30.7272   24.2274 H   0  0  0  0  0  0
  -17.5014  -31.6258   24.5183 H   0  0  0  0  0  0
  -15.5357  -30.2992   23.7629 H   0  0  0  0  0  0
  -15.8685  -28.0804   22.7092 H   0  0  0  0  0  0
  -24.5932  -30.7023   25.7820 H   0  0  0  0  0  0
  -24.8885  -32.2859   26.4914 H   0  0  0  0  0  0
  -25.8078  -30.8902   27.0272 H   0  0  0  0  0  0
  -26.2923  -29.6783   24.1228 H   0  0  0  0  0  0
  -27.4064  -29.7289   25.4697 H   0  0  0  0  0  0
  -27.8787  -30.4346   23.9423 H   0  0  0  0  0  0
  -27.2656  -33.3628   26.2133 H   0  0  0  0  0  0
  -28.3848  -32.6931   25.0348 H   0  0  0  0  0  0
  -28.0747  -31.8460   26.5432 H   0  0  0  0  0  0
  -28.2603  -38.0102   24.7539 H   0  0  0  0  0  0
  -28.1085  -36.2638   24.6283 H   0  0  0  0  0  0
  -27.2305  -37.1437   25.8874 H   0  0  0  0  0  0
  -20.9365  -29.8807   21.6926 H   0  0  0  0  0  0
  -26.0191  -38.2874   24.1425 H   0  0  0  0  0  0
  -28.2856  -17.7944   17.1874 H   0  0  0  0  0  0
  -28.7850  -15.8278   18.5090 H   0  0  0  0  0  0
  -30.6137  -18.3235   21.5317 H   0  0  0  0  0  0
  -28.1064  -22.4929   18.9825 H   0  0  0  0  0  0
  -27.6709  -21.9509   20.6462 H   0  0  0  0  0  0
  -28.9103  -19.9688   16.5405 H   0  0  0  0  0  0
  -29.6248  -21.1467   17.6031 H   0  0  0  0  0  0
  -27.8926  -20.7521   17.7297 H   0  0  0  0  0  0
  -28.9777  -23.2111   22.6594 H   0  0  0  0  0  0
  -27.5264  -24.1181   22.2933 H   0  0  0  0  0  0
  -29.0606  -24.9527   22.4450 H   0  0  0  0  0  0
  -31.3830  -24.7487   21.4978 H   0  0  0  0  0  0
  -32.4112  -23.5569   20.7400 H   0  0  0  0  0  0
  -31.3587  -23.0951   22.0722 H   0  0  0  0  0  0
  -30.8591  -24.8642   18.6554 H   0  0  0  0  0  0
  -30.0517  -23.4635   17.9854 H   0  0  0  0  0  0
  -31.7205  -23.3430   18.5068 H   0  0  0  0  0  0
  -27.0645  -24.8106   20.0610 H   0  0  0  0  0  0
  -28.2119  -24.9705   18.7775 H   0  0  0  0  0  0
  -29.1089  -15.3969   21.4145 H   0  0  0  0  0  0
  -32.2538  -19.9072   20.3914 H   0  0  0  0  0  0
  -32.1587  -21.6182   20.7147 H   0  0  0  0  0  0
  1 25  1  0  0  0
  1 30  2  0  0  0
  1 87  1  0  0  0
  2  3  1  0  0  0
  2 25  1  0  0  0
  2 89  1  0  0  0
  2 90  1  0  0  0
  3  4  1  0  0  0
  3 91  1  0  0  0
  3 92  1  0  0  0
  4  5  1  0  0  0
  4 93  1  0  0  0
  4 94  1  0  0  0
  5  6  1  0  0  0
  5 26  1  0  0  0
  5 95  1  0  0  0
  6 25  1  0  0  0
  6 96  1  0  0  0
  6 97  1  0  0  0
  7  8  2  0  0  0
  7 26  1  0  0  0
  7 29  1  0  0  0
  8  9  1  0  0  0
  8 22  1  0  0  0
  9 10  1  0  0  0
  9 27  2  0  0  0
 10 11  2  0  0  0
 10 15  1  0  0  0
 11 12  1  0  0  0
 11 98  1  0  0  0
 12 13  2  0  0  0
 12 99  1  0  0  0
 13 14  1  0  0  0
 13 31  1  0  0  0
 14 15  2  0  0  0
 14100  1  0  0  0
 15101  1  0  0  0
 16 17  2  0  0  0
 16 21  1  0  0  0
 16 31  1  0  0  0
 17 18  1  0  0  0
 17102  1  0  0  0
 18 19  2  0  0  0
 18103  1  0  0  0
 19 20  1  0  0  0
 19 24  1  0  0  0
 20 21  2  0  0  0
 20104  1  0  0  0
 21 23  1  0  0  0
 22 28  1  0  0  0
 22 32  2  0  0  0
 26 27  1  0  0  0
 28105  1  0  0  0
 28106  1  0  0  0
 29107  1  0  0  0
 29108  1  0  0  0
 33 34  1  0  0  0
 33 66  1  0  0  0
 33 70  2  0  0  0
 34 36  1  0  0  0
 34 59  1  0  0  0
 34109  1  0  0  0
 35 44  2  0  0  0
 35 45  1  0  0  0
 35 68  1  0  0  0
 36 56  1  0  0  0
 36110  1  0  0  0
 37 39  1  0  0  0
 37 47  1  0  0  0
 37 66  1  0  0  0
 37111  1  0  0  0
 38 43  2  0  0  0
 38 46  1  0  0  0
 38 47  1  0  0  0
 39 64  1  0  0  0
 39 67  2  0  0  0
 40 52  1  0  0  0
 40 53  2  0  0  0
 40 58  1  0  0  0
 41112  1  0  0  0
 41113  1  0  0  0
 41114  1  0  0  0
 41 48  1  0  0  0
 42 43  1  0  0  0
 42 66  1  0  0  0
 42115  1  0  0  0
 42116  1  0  0  0
 43 44  1  0  0  0
 44117  1  0  0  0
 45 46  2  0  0  0
 45118  1  0  0  0
 46119  1  0  0  0
 47120  1  0  0  0
 47121  1  0  0  0
 48 56  1  0  0  0
 48 65  1  0  0  0
 48122  1  0  0  0
 49 50  1  0  0  0
 49 53  1  0  0  0
 49 64  1  0  0  0
 49123  1  0  0  0
 50 51  1  0  0  0
 50124  1  0  0  0
 50125  1  0  0  0
 51 52  1  0  0  0
 51126  1  0  0  0
 51127  1  0  0  0
 52128  1  0  0  0
 52129  1  0  0  0
 53 54  1  0  0  0
 54 55  2  0  0  0
 54130  1  0  0  0
 55 57  1  0  0  0
 55131  1  0  0  0
 56 69  2  0  0  0
 57 58  2  0  0  0
 57132  1  0  0  0
 58133  1  0  0  0
 59 60  1  0  0  0
 59 61  1  0  0  0
 59 62  1  0  0  0
 60134  1  0  0  0
 60135  1  0  0  0
 60136  1  0  0  0
 61137  1  0  0  0
 61138  1  0  0  0
 61139  1  0  0  0
 62140  1  0  0  0
 62141  1  0  0  0
 62142  1  0  0  0
 63 65  1  0  0  0
 63143  1  0  0  0
 63144  1  0  0  0
 63145  1  0  0  0
 64146  1  0  0  0
 65147  1  0  0  0
 68 85  1  0  0  0
 71 72  2  0  0  0
 71 75  1  0  0  0
 71148  1  0  0  0
 72 76  1  0  0  0
 72149  1  0  0  0
 73 74  1  0  0  0
 73 76  2  0  0  0
 73150  1  0  0  0
 74 75  2  0  0  0
 74 77  1  0  0  0
 75 81  1  0  0  0
 76 87  1  0  0  0
 77 86  1  0  0  0
 77 88  2  0  0  0
 78 79  1  0  0  0
 78 86  1  0  0  0
 78151  1  0  0  0
 78152  1  0  0  0
 79 80  1  0  0  0
 79 82  1  0  0  0
 79 85  1  0  0  0
 80 83  1  0  0  0
 80 84  1  0  0  0
 80 86  1  0  0  0
 81153  1  0  0  0
 81154  1  0  0  0
 81155  1  0  0  0
 82156  1  0  0  0
 82157  1  0  0  0
 82158  1  0  0  0
 83159  1  0  0  0
 83160  1  0  0  0
 83161  1  0  0  0
 84162  1  0  0  0
 84163  1  0  0  0
 84164  1  0  0  0
 85165  1  0  0  0
 85166  1  0  0  0
 87167  1  0  0  0
 88168  1  0  0  0
 88169  1  0  0  0
M  CHG  1  88   1
M  ISO  4   1 100  68 101  85 101  87 100
M  END
> <chiral flag>
0

> <version>
0

> <s_m_source_file>
/data/baiqing/PycharmProjects/Reinvent-master-3.2/result/LINK_invent/BTK/process_docking_weight1_custom_product_contain_oxygen_bond_distance_aromatic_linkinvent_7_9_3/rearranged_h_0148.sdf

> <i_m_source_file_index>
6

> <r_mmod_Potential_Energy-OPLS-2005>
93.2796020507812

> <r_mmod_Stretch_Energy-OPLS-2005>
76.7146987915039

> <r_mmod_Bend_Energy-OPLS-2005>
171.381698608398

> <r_mmod_Torsional_Energy-OPLS-2005>
323.773040771484

> <r_mmod_Improper_Torsional_Energy-OPLS-2005>
8.87424564361572

> <r_mmod_Van_der_Waal_Energy-OPLS-2005>
156.857269287109

> <r_mmod_Electrostatic_Energy-OPLS-2005>
-293.459320068359

> <r_mmod_Solvation_Energy-OPLS-2005>
-392.992767333984

> <b_mmod_Minimization_Converged-OPLS-2005>
0

> <r_mmod_RMS_Derivative-OPLS-2005>
1.78867554664612

$$$$
6
                    3D
 Structure written by MMmdl.
170179  0  0  1  0            999 V2000
  -30.7915  -14.3655   20.6595 C   0  0  0  0  0  0
  -30.4061  -12.2815   19.4033 C   0  0  0  0  0  0
  -29.4904  -12.5275   18.1903 C   0  0  0  0  0  0
  -28.0095  -12.3936   18.5941 C   0  0  0  0  0  0
  -27.6611  -13.2107   19.8657 C   0  0  2  0  0  0
  -28.6931  -12.9549   20.9803 C   0  0  0  0  0  0
  -25.2569  -13.8167   20.5648 C   0  0  0  0  0  0
  -24.1839  -13.0424   20.9189 C   0  0  0  0  0  0
  -24.6424  -11.6895   20.8756 C   0  0  0  0  0  0
  -23.9097  -10.4291   21.0436 C   0  0  0  0  0  0
  -24.3648   -9.4199   21.9199 C   0  0  0  0  0  0
  -23.6333   -8.2228   22.0752 C   0  0  0  0  0  0
  -22.4308   -8.0290   21.3549 C   0  0  0  0  0  0
  -21.9953   -9.0266   20.4652 C   0  0  0  0  0  0
  -22.7278  -10.2141   20.3082 C   0  0  0  0  0  0
  -21.6870   -6.0753   22.5289 C   0  0  0  0  0  0
  -21.4020   -6.5647   23.8222 C   0  0  0  0  0  0
  -21.3661   -5.6799   24.9182 C   0  0  0  0  0  0
  -21.6058   -4.3064   24.7234 C   0  0  0  0  0  0
  -21.8821   -3.8155   23.4352 C   0  0  0  0  0  0
  -21.9205   -4.6979   22.3415 C   0  0  0  0  0  0
  -22.7862  -13.5205   21.1875 C   0  0  0  0  0  0
  -22.1654   -4.2170   21.0992 F   0  0  0  0  0  0
  -21.5649   -3.4535   25.7744 F   0  0  0  0  0  0
  -30.0421  -13.2447   20.4570 N   0  0  0  0  0  0
  -26.3010  -12.9350   20.3280 N   0  0  0  0  0  0
  -25.9342  -11.6495   20.5712 N   0  0  0  0  0  0
  -22.0507  -12.8204   22.0443 N   0  0  0  0  0  0
  -25.4276  -15.1896   20.4046 N   0  0  0  0  0  0
  -31.8355  -14.5744   20.0303 O   0  0  0  0  0  0
  -21.6653   -6.8900   21.4253 O   0  0  0  0  0  0
  -22.3540  -14.5507   20.6732 O   0  0  0  0  0  0
  -24.6076  -31.8727   23.2126 C   0  0  0  0  0  0
  -25.8992  -32.4854   23.8421 C   0  0  1  0  0  0
  -27.2614  -27.4842   20.0958 C   0  0  0  0  0  0
  -25.5867  -33.8652   24.2353 N   0  0  0  0  0  0
  -23.3953  -30.4928   21.5528 C   0  0  2  0  0  0
  -24.8472  -28.9599   20.1215 C   0  0  0  0  0  0
  -22.7380  -29.4676   22.5026 C   0  0  0  0  0  0
  -18.0264  -28.1377   22.8497 C   0  0  0  0  0  0
  -24.1487  -36.7320   23.2644 C   0  0  0  0  0  0
  -25.9163  -30.8531   21.3595 C   0  0  0  0  0  0
  -25.9980  -29.4873   20.7168 C   0  0  0  0  0  0
  -27.2022  -28.7579   20.7111 C   0  0  0  0  0  0
  -26.0895  -26.9585   19.5117 C   0  0  0  0  0  0
  -24.8823  -27.6862   19.5221 C   0  0  0  0  0  0
  -23.6040  -29.8178   20.1691 C   0  0  0  0  0  0
  -25.4114  -36.3136   24.0349 C   0  0  1  0  0  0
  -20.5855  -28.3659   23.1337 C   0  0  2  0  0  0
  -20.6763  -26.9407   22.5429 C   0  0  0  0  0  0
  -19.5741  -26.6397   21.5215 C   0  0  0  0  0  0
  -18.1910  -26.7934   22.1614 C   0  0  0  0  0  0
  -19.1516  -28.8834   23.2919 C   0  0  0  0  0  0
  -18.9446  -30.1443   23.8925 C   0  0  0  0  0  0
  -17.6451  -30.6589   24.0576 C   0  0  0  0  0  0
  -25.9036  -34.9501   23.5151 C   0  0  0  0  0  0
  -16.5343  -29.9102   23.6326 C   0  0  0  0  0  0
  -16.7260  -28.6520   23.0351 C   0  0  0  0  0  0
  -26.4438  -31.6614   25.0725 C   0  0  0  0  0  0
  -25.3705  -31.3699   26.1466 C   0  0  0  0  0  0
  -27.0275  -30.3077   24.6052 C   0  0  0  0  0  0
  -27.6026  -32.4324   25.7467 C   0  0  0  0  0  0
  -27.5595  -37.1813   24.8466 C   0  0  0  0  0  0
  -21.4113  -29.3029   22.3749 N   0  0  0  0  0  0
  -26.4308  -37.3810   23.9408 N   0  0  0  0  0  0
  -24.6573  -31.0866   22.1004 N   0  0  0  0  0  0
  -23.4165  -28.8251   23.3070 O   0  0  0  0  0  0
  -28.4030  -26.7142   20.0203 O   0  0  0  0  0  0
  -26.5602  -34.8940   22.4719 O   0  0  0  0  0  0
  -23.5285  -32.1455   23.7556 O   0  0  0  0  0  0
  -29.6955  -20.0786   20.5354 C   0  0  0  0  0  0
  -31.2465  -19.5601   22.3340 C   0  0  0  0  0  0
  -30.3035  -21.3455   20.3775 C   0  0  0  0  0  0
  -31.8469  -20.8220   22.1807 C   0  0  0  0  0  0
  -30.1705  -19.1696   21.5079 C   0  0  0  0  0  0
  -31.3991  -21.7211   21.1936 C   0  0  0  0  0  0
  -31.1051  -25.2065   20.8136 C   0  0  0  0  0  0
  -30.1029  -15.1802   22.8803 C   0  0  0  0  0  0
  -30.6376  -16.7350   21.1185 C   0  0  0  0  0  0
  -28.9158  -16.0522   23.3321 C   0  0  0  0  0  0
  -29.5971  -17.7574   21.6314 C   0  0  1  0  0  0
  -33.0585  -24.4174   19.3871 C   0  0  0  0  0  0
  -30.8138  -26.4275   19.9349 C   0  0  0  0  0  0
  -29.6434  -27.3154   20.3875 C   0  0  0  0  0  0
  -31.7732  -23.9920   20.1231 C   0  0  1  0  0  0
  -30.2724  -15.3445   21.4323 N   0  0  0  0  0  0
  -32.1000  -22.9302   21.0753 N   0  0  0  0  0  0
  -29.1661  -17.4806   23.0238 N   0  3  0  0  0  0
  -30.8423  -25.2264   22.0210 O   0  0  0  0  0  0
  -31.4545  -12.3451   19.1037 H   0  0  0  0  0  0
  -30.2732  -11.2641   19.7718 H   0  0  0  0  0  0
  -29.7229  -11.8244   17.3885 H   0  0  0  0  0  0
  -29.6748  -13.5239   17.7866 H   0  0  0  0  0  0
  -27.8051  -11.3366   18.7659 H   0  0  0  0  0  0
  -27.3683  -12.7000   17.7681 H   0  0  0  0  0  0
  -27.7170  -14.2657   19.5955 H   0  0  0  0  0  0
  -28.6491  -11.9125   21.3000 H   0  0  0  0  0  0
  -28.4052  -13.5348   21.8511 H   0  0  0  0  0  0
  -25.2802   -9.5672   22.4759 H   0  0  0  0  0  0
  -24.0092   -7.4609   22.7430 H   0  0  0  0  0  0
  -21.0909   -8.8787   19.8928 H   0  0  0  0  0  0
  -22.3767  -10.9695   19.6202 H   0  0  0  0  0  0
  -21.1978   -7.6145   23.9717 H   0  0  0  0  0  0
  -21.1490   -6.0522   25.9088 H   0  0  0  0  0  0
  -22.0600   -2.7610   23.2829 H   0  0  0  0  0  0
  -22.4148  -11.9916   22.4920 H   0  0  0  0  0  0
  -21.1078  -13.1159   22.2562 H   0  0  0  0  0  0
  -24.6441  -15.8300   20.4728 H   0  0  0  0  0  0
  -26.2521  -15.6185   20.0047 H   0  0  0  0  0  0
  -26.7072  -32.5607   23.1206 H   0  0  0  0  0  0
  -24.9998  -33.9819   25.0485 H   0  0  0  0  0  0
  -22.6807  -31.3069   21.4113 H   0  0  0  0  0  0
  -23.3757  -35.9643   23.3316 H   0  0  0  0  0  0
  -24.3578  -36.8923   22.2053 H   0  0  0  0  0  0
  -23.7221  -37.6528   23.6641 H   0  0  0  0  0  0
  -26.0183  -31.6162   20.5872 H   0  0  0  0  0  0
  -26.8078  -30.9153   21.9724 H   0  0  0  0  0  0
  -28.0728  -29.1938   21.1796 H   0  0  0  0  0  0
  -26.1191  -25.9863   19.0392 H   0  0  0  0  0  0
  -23.9951  -27.2660   19.0685 H   0  0  0  0  0  0
  -23.7051  -30.5897   19.4045 H   0  0  0  0  0  0
  -22.7302  -29.2311   19.8787 H   0  0  0  0  0  0
  -25.1281  -36.2027   25.0842 H   0  0  0  0  0  0
  -20.9937  -28.3226   24.1460 H   0  0  0  0  0  0
  -20.5664  -26.2271   23.3609 H   0  0  0  0  0  0
  -21.6637  -26.7445   22.1231 H   0  0  0  0  0  0
  -19.6912  -25.6315   21.1234 H   0  0  0  0  0  0
  -19.6697  -27.3223   20.6751 H   0  0  0  0  0  0
  -17.4199  -26.6702   21.4002 H   0  0  0  0  0  0
  -18.0293  -26.0067   22.8987 H   0  0  0  0  0  0
  -19.7927  -30.7249   24.2318 H   0  0  0  0  0  0
  -17.5012  -31.6264   24.5181 H   0  0  0  0  0  0
  -15.5356  -30.3016   23.7621 H   0  0  0  0  0  0
  -15.8658  -28.0846   22.7046 H   0  0  0  0  0  0
  -24.5909  -30.7003   25.7806 H   0  0  0  0  0  0
  -24.8841  -32.2840   26.4880 H   0  0  0  0  0  0
  -25.8060  -30.8909   27.0241 H   0  0  0  0  0  0
  -26.2817  -29.6853   24.1088 H   0  0  0  0  0  0
  -27.4058  -29.7285   25.4482 H   0  0  0  0  0  0
  -27.8633  -30.4429   23.9184 H   0  0  0  0  0  0
  -27.2647  -33.3594   26.2113 H   0  0  0  0  0  0
  -28.3781  -32.6939   25.0254 H   0  0  0  0  0  0
  -28.0753  -31.8411   26.5316 H   0  0  0  0  0  0
  -28.2618  -38.0106   24.7527 H   0  0  0  0  0  0
  -28.1082  -36.2637   24.6270 H   0  0  0  0  0  0
  -27.2309  -37.1459   25.8869 H   0  0  0  0  0  0
  -20.9283  -29.8730   21.6957 H   0  0  0  0  0  0
  -26.0211  -38.2899   24.1402 H   0  0  0  0  0  0
  -28.8818  -19.8032   19.8778 H   0  0  0  0  0  0
  -31.6483  -18.8864   23.0758 H   0  0  0  0  0  0
  -29.9143  -21.9963   19.6080 H   0  0  0  0  0  0
  -32.6812  -21.0789   22.8191 H   0  0  0  0  0  0
  -29.9657  -14.1393   23.1778 H   0  0  0  0  0  0
  -31.0142  -15.4930   23.3945 H   0  0  0  0  0  0
  -31.6210  -16.9307   21.5525 H   0  0  0  0  0  0
  -30.7521  -16.8787   20.0407 H   0  0  0  0  0  0
  -28.7436  -15.9308   24.4020 H   0  0  0  0  0  0
  -27.9996  -15.7343   22.8303 H   0  0  0  0  0  0
  -28.7082  -17.6820   21.0031 H   0  0  0  0  0  0
  -32.8597  -25.1705   18.6245 H   0  0  0  0  0  0
  -33.5123  -23.5691   18.8735 H   0  0  0  0  0  0
  -33.8045  -24.8311   20.0675 H   0  0  0  0  0  0
  -30.6557  -26.1010   18.9087 H   0  0  0  0  0  0
  -31.7221  -27.0305   19.9306 H   0  0  0  0  0  0
  -29.7472  -28.2761   19.8805 H   0  0  0  0  0  0
  -29.6775  -27.5127   21.4603 H   0  0  0  0  0  0
  -31.0859  -23.6265   19.3645 H   0  0  0  0  0  0
  -32.7223  -23.1901   21.8357 H   0  0  0  0  0  0
  -29.8886  -17.8072   23.6432 H   0  0  0  0  0  0
  -28.3398  -18.0219   23.2206 H   0  0  0  0  0  0
  1 25  1  0  0  0
  1 30  2  0  0  0
  1 86  1  0  0  0
  2  3  1  0  0  0
  2 25  1  0  0  0
  2 90  1  0  0  0
  2 91  1  0  0  0
  3  4  1  0  0  0
  3 92  1  0  0  0
  3 93  1  0  0  0
  4  5  1  0  0  0
  4 94  1  0  0  0
  4 95  1  0  0  0
  5  6  1  0  0  0
  5 26  1  0  0  0
  5 96  1  0  0  0
  6 25  1  0  0  0
  6 97  1  0  0  0
  6 98  1  0  0  0
  7  8  2  0  0  0
  7 26  1  0  0  0
  7 29  1  0  0  0
  8  9  1  0  0  0
  8 22  1  0  0  0
  9 10  1  0  0  0
  9 27  2  0  0  0
 10 11  2  0  0  0
 10 15  1  0  0  0
 11 12  1  0  0  0
 11 99  1  0  0  0
 12 13  2  0  0  0
 12100  1  0  0  0
 13 14  1  0  0  0
 13 31  1  0  0  0
 14 15  2  0  0  0
 14101  1  0  0  0
 15102  1  0  0  0
 16 17  2  0  0  0
 16 21  1  0  0  0
 16 31  1  0  0  0
 17 18  1  0  0  0
 17103  1  0  0  0
 18 19  2  0  0  0
 18104  1  0  0  0
 19 20  1  0  0  0
 19 24  1  0  0  0
 20 21  2  0  0  0
 20105  1  0  0  0
 21 23  1  0  0  0
 22 28  1  0  0  0
 22 32  2  0  0  0
 26 27  1  0  0  0
 28106  1  0  0  0
 28107  1  0  0  0
 29108  1  0  0  0
 29109  1  0  0  0
 33 34  1  0  0  0
 33 66  1  0  0  0
 33 70  2  0  0  0
 34 36  1  0  0  0
 34 59  1  0  0  0
 34110  1  0  0  0
 35 44  2  0  0  0
 35 45  1  0  0  0
 35 68  1  0  0  0
 36 56  1  0  0  0
 36111  1  0  0  0
 37 39  1  0  0  0
 37 47  1  0  0  0
 37 66  1  0  0  0
 37112  1  0  0  0
 38 43  2  0  0  0
 38 46  1  0  0  0
 38 47  1  0  0  0
 39 64  1  0  0  0
 39 67  2  0  0  0
 40 52  1  0  0  0
 40 53  2  0  0  0
 40 58  1  0  0  0
 41113  1  0  0  0
 41114  1  0  0  0
 41115  1  0  0  0
 41 48  1  0  0  0
 42 43  1  0  0  0
 42 66  1  0  0  0
 42116  1  0  0  0
 42117  1  0  0  0
 43 44  1  0  0  0
 44118  1  0  0  0
 45 46  2  0  0  0
 45119  1  0  0  0
 46120  1  0  0  0
 47121  1  0  0  0
 47122  1  0  0  0
 48 56  1  0  0  0
 48 65  1  0  0  0
 48123  1  0  0  0
 49 50  1  0  0  0
 49 53  1  0  0  0
 49 64  1  0  0  0
 49124  1  0  0  0
 50 51  1  0  0  0
 50125  1  0  0  0
 50126  1  0  0  0
 51 52  1  0  0  0
 51127  1  0  0  0
 51128  1  0  0  0
 52129  1  0  0  0
 52130  1  0  0  0
 53 54  1  0  0  0
 54 55  2  0  0  0
 54131  1  0  0  0
 55 57  1  0  0  0
 55132  1  0  0  0
 56 69  2  0  0  0
 57 58  2  0  0  0
 57133  1  0  0  0
 58134  1  0  0  0
 59 60  1  0  0  0
 59 61  1  0  0  0
 59 62  1  0  0  0
 60135  1  0  0  0
 60136  1  0  0  0
 60137  1  0  0  0
 61138  1  0  0  0
 61139  1  0  0  0
 61140  1  0  0  0
 62141  1  0  0  0
 62142  1  0  0  0
 62143  1  0  0  0
 63 65  1  0  0  0
 63144  1  0  0  0
 63145  1  0  0  0
 63146  1  0  0  0
 64147  1  0  0  0
 65148  1  0  0  0
 68 84  1  0  0  0
 71 73  2  0  0  0
 71 75  1  0  0  0
 71149  1  0  0  0
 72 74  1  0  0  0
 72 75  2  0  0  0
 72150  1  0  0  0
 73 76  1  0  0  0
 73151  1  0  0  0
 74 76  2  0  0  0
 74152  1  0  0  0
 75 81  1  0  0  0
 76 87  1  0  0  0
 77 83  1  0  0  0
 77 85  1  0  0  0
 77 89  2  0  0  0
 78 80  1  0  0  0
 78 86  1  0  0  0
 78153  1  0  0  0
 78154  1  0  0  0
 79 81  1  0  0  0
 79 86  1  0  0  0
 79155  1  0  0  0
 79156  1  0  0  0
 80 88  1  0  0  0
 80157  1  0  0  0
 80158  1  0  0  0
 81 88  1  0  0  0
 81159  1  0  0  0
 82160  1  0  0  0
 82161  1  0  0  0
 82162  1  0  0  0
 82 85  1  0  0  0
 83 84  1  0  0  0
 83163  1  0  0  0
 83164  1  0  0  0
 84165  1  0  0  0
 84166  1  0  0  0
 85 87  1  0  0  0
 85167  1  0  0  0
 87168  1  0  0  0
 88169  1  0  0  0
 88170  1  0  0  0
M  CHG  1  88   1
M  ISO  4   1 100  68 101  84 101  86 100
M  END
> <chiral flag>
0

> <version>
0

> <s_m_source_file>
/data/baiqing/PycharmProjects/Reinvent-master-3.2/result/LINK_invent/BTK/process_docking_weight1_custom_product_contain_oxygen_bond_distance_aromatic_linkinvent_7_9_3/rearranged_h_0148.sdf

> <i_m_source_file_index>
7

> <r_mmod_Potential_Energy-OPLS-2005>
-121.083763122559

> <r_mmod_Stretch_Energy-OPLS-2005>
36.5910606384277

> <r_mmod_Bend_Energy-OPLS-2005>
123.653366088867

> <r_mmod_Torsional_Energy-OPLS-2005>
335.551788330078

> <r_mmod_Improper_Torsional_Energy-OPLS-2005>
8.3546667098999

> <r_mmod_Van_der_Waal_Energy-OPLS-2005>
170.808090209961

> <r_mmod_Electrostatic_Energy-OPLS-2005>
-314.112091064453

> <r_mmod_Solvation_Energy-OPLS-2005>
-488.911163330078

> <b_mmod_Minimization_Converged-OPLS-2005>
0

> <r_mmod_RMS_Derivative-OPLS-2005>
3.00830078125

$$$$
7
                    3D
 Structure written by MMmdl.
158167  0  0  1  0            999 V2000
  -30.7058  -14.4542   20.4485 C   0  0  0  0  0  0
  -30.4134  -12.2572   19.4230 C   0  0  0  0  0  0
  -29.4868  -12.4425   18.2032 C   0  0  0  0  0  0
  -28.0019  -12.3500   18.6148 C   0  0  0  0  0  0
  -27.6512  -13.1959   19.8711 C   0  0  2  0  0  0
  -28.7076  -13.0235   20.9862 C   0  0  0  0  0  0
  -25.2561  -13.8119   20.5744 C   0  0  0  0  0  0
  -24.1799  -13.0416   20.9209 C   0  0  0  0  0  0
  -24.6353  -11.6879   20.8768 C   0  0  0  0  0  0
  -23.9038  -10.4275   21.0414 C   0  0  0  0  0  0
  -24.3603   -9.4189   21.9186 C   0  0  0  0  0  0
  -23.6275   -8.2229   22.0760 C   0  0  0  0  0  0
  -22.4256   -8.0286   21.3553 C   0  0  0  0  0  0
  -21.9895   -9.0259   20.4659 C   0  0  0  0  0  0
  -22.7226  -10.2134   20.3055 C   0  0  0  0  0  0
  -21.6848   -6.0733   22.5284 C   0  0  0  0  0  0
  -21.4010   -6.5638   23.8221 C   0  0  0  0  0  0
  -21.3655   -5.6796   24.9182 C   0  0  0  0  0  0
  -21.6041   -4.3061   24.7232 C   0  0  0  0  0  0
  -21.8814   -3.8146   23.4359 C   0  0  0  0  0  0
  -21.9192   -4.6962   22.3411 C   0  0  0  0  0  0
  -22.7825  -13.5234   21.1859 C   0  0  0  0  0  0
  -22.1667   -4.2153   21.0990 F   0  0  0  0  0  0
  -21.5630   -3.4550   25.7748 F   0  0  0  0  0  0
  -30.0349  -13.2758   20.4051 N   0  0  0  0  0  0
  -26.2982  -12.9251   20.3434 N   0  0  0  0  0  0
  -25.9281  -11.6435   20.5833 N   0  0  0  0  0  0
  -22.0459  -12.8237   22.0414 N   0  0  0  0  0  0
  -25.4290  -15.1838   20.4184 N   0  0  0  0  0  0
  -31.9167  -14.5649   20.2394 O   0  0  0  0  0  0
  -21.6628   -6.8884   21.4250 O   0  0  0  0  0  0
  -22.3522  -14.5547   20.6732 O   0  0  0  0  0  0
  -24.6098  -31.8706   23.2134 C   0  0  0  0  0  0
  -25.9013  -32.4836   23.8411 C   0  0  1  0  0  0
  -27.2433  -27.4855   20.0706 C   0  0  0  0  0  0
  -25.5892  -33.8631   24.2353 N   0  0  0  0  0  0
  -23.3949  -30.4936   21.5526 C   0  0  2  0  0  0
  -24.8419  -28.9626   20.1164 C   0  0  0  0  0  0
  -22.7373  -29.4671   22.5018 C   0  0  0  0  0  0
  -18.0265  -28.1368   22.8500 C   0  0  0  0  0  0
  -24.1485  -36.7322   23.2637 C   0  0  0  0  0  0
  -25.9191  -30.8469   21.3617 C   0  0  0  0  0  0
  -25.9965  -29.4828   20.7136 C   0  0  0  0  0  0
  -27.1959  -28.7433   20.7023 C   0  0  0  0  0  0
  -26.0676  -26.9565   19.4928 C   0  0  0  0  0  0
  -24.8681  -27.6930   19.5118 C   0  0  0  0  0  0
  -23.6010  -29.8224   20.1676 C   0  0  0  0  0  0
  -25.4105  -36.3121   24.0342 C   0  0  1  0  0  0
  -20.5850  -28.3650   23.1333 C   0  0  2  0  0  0
  -20.6750  -26.9389   22.5421 C   0  0  0  0  0  0
  -19.5735  -26.6382   21.5211 C   0  0  0  0  0  0
  -18.1915  -26.7921   22.1620 C   0  0  0  0  0  0
  -19.1511  -28.8826   23.2912 C   0  0  0  0  0  0
  -18.9443  -30.1436   23.8918 C   0  0  0  0  0  0
  -17.6447  -30.6581   24.0566 C   0  0  0  0  0  0
  -25.9024  -34.9485   23.5144 C   0  0  0  0  0  0
  -16.5339  -29.9083   23.6327 C   0  0  0  0  0  0
  -16.7254  -28.6494   23.0357 C   0  0  0  0  0  0
  -26.4470  -31.6596   25.0719 C   0  0  0  0  0  0
  -25.3762  -31.3664   26.1481 C   0  0  0  0  0  0
  -27.0303  -30.3051   24.6059 C   0  0  0  0  0  0
  -27.6056  -32.4306   25.7481 C   0  0  0  0  0  0
  -27.5586  -37.1814   24.8465 C   0  0  0  0  0  0
  -21.4107  -29.3025   22.3748 N   0  0  0  0  0  0
  -26.4297  -37.3801   23.9410 N   0  0  0  0  0  0
  -24.6591  -31.0840   22.1016 N   0  0  0  0  0  0
  -23.4165  -28.8221   23.3049 O   0  0  0  0  0  0
  -28.4299  -26.7975   20.0703 O   0  0  0  0  0  0
  -26.5581  -34.8926   22.4701 O   0  0  0  0  0  0
  -23.5307  -32.1441   23.7557 O   0  0  0  0  0  0
  -29.3478  -19.8097   21.2986 C   0  0  0  0  0  0
  -29.3241  -21.2345   21.2487 C   0  0  0  0  0  0
  -30.3083  -19.2673   20.4858 C   0  0  0  0  0  0
  -30.2653  -21.7678   20.3983 C   0  0  0  0  0  0
  -29.5059  -23.9373   19.7089 C   0  0  0  0  0  0
  -29.7536  -17.4847   18.8384 C   0  0  0  0  0  0
  -29.7366  -15.9668   18.8642 C   0  0  0  0  0  0
  -30.1104  -16.7466   21.0781 C   0  0  0  0  0  0
  -30.5247  -17.8444   20.0907 C   0  0  2  0  0  0
  -29.9879  -25.2517   19.0850 C   0  0  0  0  0  0
  -28.8641  -26.2669   18.8221 C   0  0  0  0  0  0
  -29.9155  -15.5339   20.2686 N   0  0  0  0  0  0
  -30.4639  -23.0512   20.0190 N   0  0  0  0  0  0
  -28.3034  -23.7263   19.8944 O   0  0  0  0  0  0
  -31.2841  -20.5107   19.7556 S   0  0  0  0  0  0
  -31.4602  -12.3367   19.1241 H   0  0  0  0  0  0
  -30.2916  -11.2617   19.8531 H   0  0  0  0  0  0
  -29.7073  -11.6819   17.4531 H   0  0  0  0  0  0
  -29.6842  -13.3976   17.7186 H   0  0  0  0  0  0
  -27.7823  -11.3001   18.8076 H   0  0  0  0  0  0
  -27.3624  -12.6386   17.7793 H   0  0  0  0  0  0
  -27.6591  -14.2353   19.5633 H   0  0  0  0  0  0
  -28.6703  -12.0133   21.3960 H   0  0  0  0  0  0
  -28.5032  -13.7034   21.8159 H   0  0  0  0  0  0
  -25.2750   -9.5649   22.4765 H   0  0  0  0  0  0
  -23.9996   -7.4612   22.7459 H   0  0  0  0  0  0
  -21.0833   -8.8765   19.8952 H   0  0  0  0  0  0
  -22.3689  -10.9676   19.6157 H   0  0  0  0  0  0
  -21.1997   -7.6145   23.9728 H   0  0  0  0  0  0
  -21.1478   -6.0526   25.9089 H   0  0  0  0  0  0
  -22.0588   -2.7613   23.2862 H   0  0  0  0  0  0
  -22.4088  -11.9903   22.4807 H   0  0  0  0  0  0
  -21.1069  -13.1254   22.2617 H   0  0  0  0  0  0
  -24.6731  -15.8478   20.5508 H   0  0  0  0  0  0
  -26.3014  -15.6247   20.1522 H   0  0  0  0  0  0
  -26.7087  -32.5563   23.1182 H   0  0  0  0  0  0
  -25.0074  -33.9799   25.0520 H   0  0  0  0  0  0
  -22.6822  -31.3091   21.4131 H   0  0  0  0  0  0
  -23.3744  -35.9659   23.3308 H   0  0  0  0  0  0
  -24.3582  -36.8921   22.2050 H   0  0  0  0  0  0
  -23.7239  -37.6531   23.6640 H   0  0  0  0  0  0
  -26.0240  -31.6126   20.5915 H   0  0  0  0  0  0
  -26.8095  -30.9036   21.9754 H   0  0  0  0  0  0
  -28.0907  -29.1430   21.1587 H   0  0  0  0  0  0
  -26.0644  -25.9746   19.0410 H   0  0  0  0  0  0
  -23.9754  -27.2791   19.0633 H   0  0  0  0  0  0
  -23.7013  -30.5944   19.4036 H   0  0  0  0  0  0
  -22.7277  -29.2357   19.8768 H   0  0  0  0  0  0
  -25.1283  -36.1999   25.0837 H   0  0  0  0  0  0
  -20.9939  -28.3205   24.1451 H   0  0  0  0  0  0
  -20.5654  -26.2255   23.3599 H   0  0  0  0  0  0
  -21.6625  -26.7441   22.1208 H   0  0  0  0  0  0
  -19.6894  -25.6295   21.1230 H   0  0  0  0  0  0
  -19.6682  -27.3201   20.6747 H   0  0  0  0  0  0
  -17.4188  -26.6688   21.4009 H   0  0  0  0  0  0
  -18.0303  -26.0048   22.9000 H   0  0  0  0  0  0
  -19.7919  -30.7249   24.2290 H   0  0  0  0  0  0
  -17.5002  -31.6267   24.5152 H   0  0  0  0  0  0
  -15.5339  -30.2992   23.7639 H   0  0  0  0  0  0
  -15.8654  -28.0820   22.7070 H   0  0  0  0  0  0
  -24.5938  -30.7010   25.7816 H   0  0  0  0  0  0
  -24.8954  -32.2802   26.4978 H   0  0  0  0  0  0
  -25.8139  -30.8802   27.0207 H   0  0  0  0  0  0
  -26.2827  -29.6795   24.1166 H   0  0  0  0  0  0
  -27.4151  -29.7297   25.4489 H   0  0  0  0  0  0
  -27.8625  -30.4391   23.9145 H   0  0  0  0  0  0
  -27.2686  -33.3589   26.2102 H   0  0  0  0  0  0
  -28.3845  -32.6884   25.0295 H   0  0  0  0  0  0
  -28.0745  -31.8400   26.5360 H   0  0  0  0  0  0
  -28.2602  -38.0114   24.7525 H   0  0  0  0  0  0
  -28.1085  -36.2646   24.6280 H   0  0  0  0  0  0
  -27.2303  -37.1447   25.8867 H   0  0  0  0  0  0
  -20.9261  -29.8748   21.6977 H   0  0  0  0  0  0
  -26.0192  -38.2882   24.1413 H   0  0  0  0  0  0
  -28.6252  -19.2483   21.8730 H   0  0  0  0  0  0
  -28.5893  -21.8074   21.7982 H   0  0  0  0  0  0
  -28.7300  -17.8555   18.9049 H   0  0  0  0  0  0
  -30.1990  -17.8957   17.9310 H   0  0  0  0  0  0
  -30.5496  -15.6076   18.2280 H   0  0  0  0  0  0
  -28.8166  -15.5946   18.4191 H   0  0  0  0  0  0
  -29.1540  -16.9777   21.5481 H   0  0  0  0  0  0
  -30.8476  -16.6298   21.8746 H   0  0  0  0  0  0
  -31.5865  -17.7043   19.8767 H   0  0  0  0  0  0
  -30.4710  -25.0104   18.1374 H   0  0  0  0  0  0
  -30.7538  -25.6997   19.7190 H   0  0  0  0  0  0
  -28.0720  -25.7979   18.2388 H   0  0  0  0  0  0
  -29.2464  -27.0883   18.2146 H   0  0  0  0  0  0
  -31.4049  -23.3016   19.7439 H   0  0  0  0  0  0
  1 25  1  0  0  0
  1 30  2  0  0  0
  1 82  1  0  0  0
  2  3  1  0  0  0
  2 25  1  0  0  0
  2 86  1  0  0  0
  2 87  1  0  0  0
  3  4  1  0  0  0
  3 88  1  0  0  0
  3 89  1  0  0  0
  4  5  1  0  0  0
  4 90  1  0  0  0
  4 91  1  0  0  0
  5  6  1  0  0  0
  5 26  1  0  0  0
  5 92  1  0  0  0
  6 25  1  0  0  0
  6 93  1  0  0  0
  6 94  1  0  0  0
  7  8  2  0  0  0
  7 26  1  0  0  0
  7 29  1  0  0  0
  8  9  1  0  0  0
  8 22  1  0  0  0
  9 10  1  0  0  0
  9 27  2  0  0  0
 10 11  2  0  0  0
 10 15  1  0  0  0
 11 12  1  0  0  0
 11 95  1  0  0  0
 12 13  2  0  0  0
 12 96  1  0  0  0
 13 14  1  0  0  0
 13 31  1  0  0  0
 14 15  2  0  0  0
 14 97  1  0  0  0
 15 98  1  0  0  0
 16 17  2  0  0  0
 16 21  1  0  0  0
 16 31  1  0  0  0
 17 18  1  0  0  0
 17 99  1  0  0  0
 18 19  2  0  0  0
 18100  1  0  0  0
 19 20  1  0  0  0
 19 24  1  0  0  0
 20 21  2  0  0  0
 20101  1  0  0  0
 21 23  1  0  0  0
 22 28  1  0  0  0
 22 32  2  0  0  0
 26 27  1  0  0  0
 28102  1  0  0  0
 28103  1  0  0  0
 29104  1  0  0  0
 29105  1  0  0  0
 33 34  1  0  0  0
 33 66  1  0  0  0
 33 70  2  0  0  0
 34 36  1  0  0  0
 34 59  1  0  0  0
 34106  1  0  0  0
 35 44  2  0  0  0
 35 45  1  0  0  0
 35 68  1  0  0  0
 36 56  1  0  0  0
 36107  1  0  0  0
 37 39  1  0  0  0
 37 47  1  0  0  0
 37 66  1  0  0  0
 37108  1  0  0  0
 38 43  2  0  0  0
 38 46  1  0  0  0
 38 47  1  0  0  0
 39 64  1  0  0  0
 39 67  2  0  0  0
 40 52  1  0  0  0
 40 53  2  0  0  0
 40 58  1  0  0  0
 41109  1  0  0  0
 41110  1  0  0  0
 41111  1  0  0  0
 41 48  1  0  0  0
 42 43  1  0  0  0
 42 66  1  0  0  0
 42112  1  0  0  0
 42113  1  0  0  0
 43 44  1  0  0  0
 44114  1  0  0  0
 45 46  2  0  0  0
 45115  1  0  0  0
 46116  1  0  0  0
 47117  1  0  0  0
 47118  1  0  0  0
 48 56  1  0  0  0
 48 65  1  0  0  0
 48119  1  0  0  0
 49 50  1  0  0  0
 49 53  1  0  0  0
 49 64  1  0  0  0
 49120  1  0  0  0
 50 51  1  0  0  0
 50121  1  0  0  0
 50122  1  0  0  0
 51 52  1  0  0  0
 51123  1  0  0  0
 51124  1  0  0  0
 52125  1  0  0  0
 52126  1  0  0  0
 53 54  1  0  0  0
 54 55  2  0  0  0
 54127  1  0  0  0
 55 57  1  0  0  0
 55128  1  0  0  0
 56 69  2  0  0  0
 57 58  2  0  0  0
 57129  1  0  0  0
 58130  1  0  0  0
 59 60  1  0  0  0
 59 61  1  0  0  0
 59 62  1  0  0  0
 60131  1  0  0  0
 60132  1  0  0  0
 60133  1  0  0  0
 61134  1  0  0  0
 61135  1  0  0  0
 61136  1  0  0  0
 62137  1  0  0  0
 62138  1  0  0  0
 62139  1  0  0  0
 63 65  1  0  0  0
 63140  1  0  0  0
 63141  1  0  0  0
 63142  1  0  0  0
 64143  1  0  0  0
 65144  1  0  0  0
 68 81  1  0  0  0
 71 72  1  0  0  0
 71 73  2  0  0  0
 71145  1  0  0  0
 72 74  2  0  0  0
 72146  1  0  0  0
 73 85  1  0  0  0
 73 79  1  0  0  0
 74 83  1  0  0  0
 74 85  1  0  0  0
 75 80  1  0  0  0
 75 83  1  0  0  0
 75 84  2  0  0  0
 76 77  1  0  0  0
 76 79  1  0  0  0
 76147  1  0  0  0
 76148  1  0  0  0
 77 82  1  0  0  0
 77149  1  0  0  0
 77150  1  0  0  0
 78 79  1  0  0  0
 78 82  1  0  0  0
 78151  1  0  0  0
 78152  1  0  0  0
 79153  1  0  0  0
 80 81  1  0  0  0
 80154  1  0  0  0
 80155  1  0  0  0
 81156  1  0  0  0
 81157  1  0  0  0
 83158  1  0  0  0
M  ISO  4   1 100  68 101  81 101  82 100
M  END
> <chiral flag>
0

> <version>
0

> <s_m_source_file>
/data/baiqing/PycharmProjects/Reinvent-master-3.2/result/LINK_invent/BTK/process_docking_weight1_custom_product_contain_oxygen_bond_distance_aromatic_linkinvent_7_9_3/rearranged_h_0148.sdf

> <i_m_source_file_index>
8

> <r_mmod_Potential_Energy-OPLS-2005>
124.167587280273

> <r_mmod_Stretch_Energy-OPLS-2005>
31.4470405578613

> <r_mmod_Bend_Energy-OPLS-2005>
124.320335388184

> <r_mmod_Torsional_Energy-OPLS-2005>
352.123382568359

> <r_mmod_Improper_Torsional_Energy-OPLS-2005>
18.9100551605225

> <r_mmod_Van_der_Waal_Energy-OPLS-2005>
130.654541015625

> <r_mmod_Electrostatic_Energy-OPLS-2005>
-335.431488037109

> <r_mmod_Solvation_Energy-OPLS-2005>
-219.162826538086

> <b_mmod_Minimization_Converged-OPLS-2005>
0

> <r_mmod_RMS_Derivative-OPLS-2005>
1.80146300792694

$$$$
8
                    3D
 Structure written by MMmdl.
161170  0  0  1  0            999 V2000
  -30.6167  -14.7399   20.4911 C   0  0  0  0  0  0
  -30.4357  -12.4627   19.4648 C   0  0  0  0  0  0
  -29.5115  -12.5145   18.2297 C   0  0  0  0  0  0
  -28.0358  -12.3380   18.6427 C   0  0  0  0  0  0
  -27.6415  -13.2327   19.8480 C   0  0  2  0  0  0
  -28.6870  -13.1630   20.9813 C   0  0  0  0  0  0
  -25.2500  -13.8199   20.5693 C   0  0  0  0  0  0
  -24.1795  -13.0442   20.9219 C   0  0  0  0  0  0
  -24.6392  -11.6923   20.8751 C   0  0  0  0  0  0
  -23.9071  -10.4295   21.0404 C   0  0  0  0  0  0
  -24.3623   -9.4208   21.9175 C   0  0  0  0  0  0
  -23.6301   -8.2240   22.0745 C   0  0  0  0  0  0
  -22.4282   -8.0277   21.3535 C   0  0  0  0  0  0
  -21.9915   -9.0254   20.4640 C   0  0  0  0  0  0
  -22.7246  -10.2133   20.3051 C   0  0  0  0  0  0
  -21.6857   -6.0737   22.5277 C   0  0  0  0  0  0
  -21.4014   -6.5638   23.8210 C   0  0  0  0  0  0
  -21.3661   -5.6789   24.9172 C   0  0  0  0  0  0
  -21.6051   -4.3053   24.7218 C   0  0  0  0  0  0
  -21.8818   -3.8145   23.4338 C   0  0  0  0  0  0
  -21.9188   -4.6964   22.3398 C   0  0  0  0  0  0
  -22.7812  -13.5215   21.1874 C   0  0  0  0  0  0
  -22.1659   -4.2153   21.0974 F   0  0  0  0  0  0
  -21.5634   -3.4535   25.7729 F   0  0  0  0  0  0
  -29.9845  -13.5208   20.3957 N   0  0  0  0  0  0
  -26.2933  -12.9411   20.3265 N   0  0  0  0  0  0
  -25.9321  -11.6556   20.5733 N   0  0  0  0  0  0
  -22.0451  -12.8216   22.0436 N   0  0  0  0  0  0
  -25.4162  -15.1925   20.4093 N   0  0  0  0  0  0
  -31.8119  -14.8333   20.1948 O   0  0  0  0  0  0
  -21.6638   -6.8880   21.4238 O   0  0  0  0  0  0
  -22.3494  -14.5517   20.6712 O   0  0  0  0  0  0
  -24.6306  -31.8558   23.1978 C   0  0  0  0  0  0
  -25.9132  -32.4757   23.8329 C   0  0  1  0  0  0
  -27.2174  -27.2646   20.1330 C   0  0  0  0  0  0
  -25.5927  -33.8560   24.2254 N   0  0  0  0  0  0
  -23.4280  -30.4786   21.5415 C   0  0  2  0  0  0
  -24.8752  -28.9232   20.1111 C   0  0  0  0  0  0
  -22.7502  -29.4608   22.4906 C   0  0  0  0  0  0
  -18.0295  -28.1386   22.8487 C   0  0  0  0  0  0
  -24.1489  -36.7289   23.2637 C   0  0  0  0  0  0
  -25.9735  -30.7696   21.3773 C   0  0  0  0  0  0
  -26.0472  -29.3916   20.7206 C   0  0  0  0  0  0
  -27.2247  -28.5762   20.7174 C   0  0  0  0  0  0
  -26.0272  -26.8641   19.4916 C   0  0  0  0  0  0
  -24.8697  -27.6671   19.4849 C   0  0  0  0  0  0
  -23.6466  -29.8119   20.1581 C   0  0  0  0  0  0
  -25.4113  -36.3074   24.0325 C   0  0  1  0  0  0
  -20.5900  -28.3698   23.1266 C   0  0  2  0  0  0
  -20.6784  -26.9415   22.5407 C   0  0  0  0  0  0
  -19.5758  -26.6380   21.5212 C   0  0  0  0  0  0
  -18.1938  -26.7929   22.1623 C   0  0  0  0  0  0
  -19.1549  -28.8858   23.2876 C   0  0  0  0  0  0
  -18.9467  -30.1457   23.8897 C   0  0  0  0  0  0
  -17.6466  -30.6586   24.0560 C   0  0  0  0  0  0
  -25.9059  -34.9444   23.5095 C   0  0  0  0  0  0
  -16.5360  -29.9084   23.6323 C   0  0  0  0  0  0
  -16.7282  -28.6501   23.0351 C   0  0  0  0  0  0
  -26.4489  -31.6582   25.0719 C   0  0  0  0  0  0
  -25.3709  -31.3736   26.1437 C   0  0  0  0  0  0
  -27.0330  -30.2994   24.6207 C   0  0  0  0  0  0
  -27.6046  -32.4312   25.7503 C   0  0  0  0  0  0
  -27.5581  -37.1801   24.8459 C   0  0  0  0  0  0
  -21.4209  -29.3046   22.3652 N   0  0  0  0  0  0
  -26.4288  -37.3773   23.9410 N   0  0  0  0  0  0
  -24.6966  -31.0522   22.0955 N   0  0  0  0  0  0
  -23.4198  -28.8137   23.2999 O   0  0  0  0  0  0
  -28.3023  -26.3610   20.1488 O   0  0  0  0  0  0
  -26.5637  -34.8919   22.4665 O   0  0  0  0  0  0
  -23.5454  -32.1381   23.7270 O   0  0  0  0  0  0
  -30.8174  -19.9800   21.8334 C   0  0  0  0  0  0
  -31.4369  -18.8666   22.4275 C   0  0  0  0  0  0
  -29.5471  -18.4698   20.4249 C   0  0  0  0  0  0
  -29.8439  -19.8455   20.8195 C   0  0  0  0  0  0
  -31.1428  -17.5481   22.0277 C   0  0  0  0  0  0
  -30.1929  -17.2887   21.0017 C   0  0  0  0  0  0
  -29.4908  -23.8223   18.9477 C   0  0  0  0  0  0
  -28.7949  -23.6973   20.0917 C   0  0  0  0  0  0
  -30.1394  -22.6704   18.3059 C   0  0  0  0  0  0
  -30.3734  -21.3811   19.1116 C   0  0  0  0  0  0
  -28.6559  -22.2565   20.7821 C   0  0  2  0  0  0
  -28.8515  -22.3608   22.3035 C   0  0  0  0  0  0
  -28.0578  -24.9789   20.6950 C   0  0  0  0  0  0
  -29.3878  -21.0630   20.1556 N   0  0  0  0  0  0
  -31.8072  -16.5199   22.6926 N   0  0  0  0  0  0
  -29.8395  -15.8763   20.6762 N   0  0  0  0  0  0
  -30.5321  -22.7168   17.1376 O   0  0  0  0  0  0
  -31.4757  -12.5978   19.1625 H   0  0  0  0  0  0
  -30.3869  -11.4847   19.9457 H   0  0  0  0  0  0
  -29.7981  -11.7446   17.5129 H   0  0  0  0  0  0
  -29.6355  -13.4697   17.7183 H   0  0  0  0  0  0
  -27.8901  -11.2885   18.8994 H   0  0  0  0  0  0
  -27.3779  -12.5370   17.7959 H   0  0  0  0  0  0
  -27.6349  -14.2549   19.4684 H   0  0  0  0  0  0
  -28.7227  -12.1631   21.4166 H   0  0  0  0  0  0
  -28.4236  -13.8430   21.7934 H   0  0  0  0  0  0
  -25.2766   -9.5694   22.4748 H   0  0  0  0  0  0
  -24.0018   -7.4633   22.7460 H   0  0  0  0  0  0
  -21.0849   -8.8775   19.8947 H   0  0  0  0  0  0
  -22.3699  -10.9672   19.6164 H   0  0  0  0  0  0
  -21.2004   -7.6144   23.9724 H   0  0  0  0  0  0
  -21.1492   -6.0509   25.9080 H   0  0  0  0  0  0
  -22.0594   -2.7608   23.2829 H   0  0  0  0  0  0
  -22.4060  -11.9897   22.4868 H   0  0  0  0  0  0
  -21.1055  -13.1232   22.2607 H   0  0  0  0  0  0
  -24.6429  -15.8396   20.5166 H   0  0  0  0  0  0
  -26.2531  -15.6355   20.0539 H   0  0  0  0  0  0
  -26.7200  -32.5411   23.1075 H   0  0  0  0  0  0
  -25.0054  -33.9693   25.0384 H   0  0  0  0  0  0
  -22.7249  -31.3014   21.3948 H   0  0  0  0  0  0
  -23.3757  -35.9617   23.3290 H   0  0  0  0  0  0
  -24.3583  -36.8922   22.2055 H   0  0  0  0  0  0
  -23.7239  -37.6483   23.6670 H   0  0  0  0  0  0
  -26.1120  -31.5299   20.6070 H   0  0  0  0  0  0
  -26.8512  -30.8192   22.0105 H   0  0  0  0  0  0
  -28.1243  -28.9308   21.2005 H   0  0  0  0  0  0
  -25.9831  -25.9036   18.9984 H   0  0  0  0  0  0
  -23.9735  -27.3061   18.9980 H   0  0  0  0  0  0
  -23.7741  -30.5885   19.4031 H   0  0  0  0  0  0
  -22.7650  -29.2469   19.8501 H   0  0  0  0  0  0
  -25.1296  -36.1923   25.0819 H   0  0  0  0  0  0
  -20.9998  -28.3280   24.1382 H   0  0  0  0  0  0
  -20.5681  -26.2308   23.3612 H   0  0  0  0  0  0
  -21.6653  -26.7439   22.1202 H   0  0  0  0  0  0
  -19.6918  -25.6286   21.1252 H   0  0  0  0  0  0
  -19.6697  -27.3180   20.6733 H   0  0  0  0  0  0
  -17.4210  -26.6677   21.4026 H   0  0  0  0  0  0
  -18.0342  -26.0070   22.9017 H   0  0  0  0  0  0
  -19.7942  -30.7270   24.2269 H   0  0  0  0  0  0
  -17.5022  -31.6268   24.5158 H   0  0  0  0  0  0
  -15.5359  -30.2988   23.7640 H   0  0  0  0  0  0
  -15.8686  -28.0816   22.7066 H   0  0  0  0  0  0
  -24.5881  -30.7090   25.7758 H   0  0  0  0  0  0
  -24.8898  -32.2906   26.4853 H   0  0  0  0  0  0
  -25.8012  -30.8913   27.0226 H   0  0  0  0  0  0
  -26.2909  -29.6755   24.1207 H   0  0  0  0  0  0
  -27.3977  -29.7241   25.4730 H   0  0  0  0  0  0
  -27.8808  -30.4259   23.9469 H   0  0  0  0  0  0
  -27.2655  -33.3609   26.2089 H   0  0  0  0  0  0
  -28.3863  -32.6881   25.0340 H   0  0  0  0  0  0
  -28.0716  -31.8434   26.5420 H   0  0  0  0  0  0
  -28.2587  -38.0108   24.7518 H   0  0  0  0  0  0
  -28.1089  -36.2641   24.6269 H   0  0  0  0  0  0
  -27.2305  -37.1429   25.8862 H   0  0  0  0  0  0
  -20.9383  -29.8778   21.6871 H   0  0  0  0  0  0
  -26.0170  -38.2847   24.1414 H   0  0  0  0  0  0
  -31.1408  -20.9586   22.1512 H   0  0  0  0  0  0
  -32.1748  -19.0476   23.1978 H   0  0  0  0  0  0
  -28.8210  -18.3190   19.6396 H   0  0  0  0  0  0
  -29.5673  -24.7779   18.4517 H   0  0  0  0  0  0
  -31.3628  -21.4673   19.5643 H   0  0  0  0  0  0
  -30.4286  -20.5495   18.4080 H   0  0  0  0  0  0
  -27.6021  -22.0082   20.6419 H   0  0  0  0  0  0
  -29.8490  -22.7175   22.5602 H   0  0  0  0  0  0
  -28.6779  -21.4075   22.8036 H   0  0  0  0  0  0
  -28.1384  -23.0549   22.7475 H   0  0  0  0  0  0
  -28.3471  -25.0487   21.7422 H   0  0  0  0  0  0
  -26.9925  -24.7468   20.7111 H   0  0  0  0  0  0
  -32.0617  -15.7391   22.0930 H   0  0  0  0  0  0
  -32.5964  -16.8009   23.2658 H   0  0  0  0  0  0
  -28.8502  -15.6919   20.6525 H   0  0  0  0  0  0
  1 25  1  0  0  0
  1 30  2  0  0  0
  1 86  1  0  0  0
  2  3  1  0  0  0
  2 25  1  0  0  0
  2 88  1  0  0  0
  2 89  1  0  0  0
  3  4  1  0  0  0
  3 90  1  0  0  0
  3 91  1  0  0  0
  4  5  1  0  0  0
  4 92  1  0  0  0
  4 93  1  0  0  0
  5  6  1  0  0  0
  5 26  1  0  0  0
  5 94  1  0  0  0
  6 25  1  0  0  0
  6 95  1  0  0  0
  6 96  1  0  0  0
  7  8  2  0  0  0
  7 26  1  0  0  0
  7 29  1  0  0  0
  8  9  1  0  0  0
  8 22  1  0  0  0
  9 10  1  0  0  0
  9 27  2  0  0  0
 10 11  2  0  0  0
 10 15  1  0  0  0
 11 12  1  0  0  0
 11 97  1  0  0  0
 12 13  2  0  0  0
 12 98  1  0  0  0
 13 14  1  0  0  0
 13 31  1  0  0  0
 14 15  2  0  0  0
 14 99  1  0  0  0
 15100  1  0  0  0
 16 17  2  0  0  0
 16 21  1  0  0  0
 16 31  1  0  0  0
 17 18  1  0  0  0
 17101  1  0  0  0
 18 19  2  0  0  0
 18102  1  0  0  0
 19 20  1  0  0  0
 19 24  1  0  0  0
 20 21  2  0  0  0
 20103  1  0  0  0
 21 23  1  0  0  0
 22 28  1  0  0  0
 22 32  2  0  0  0
 26 27  1  0  0  0
 28104  1  0  0  0
 28105  1  0  0  0
 29106  1  0  0  0
 29107  1  0  0  0
 33 34  1  0  0  0
 33 66  1  0  0  0
 33 70  2  0  0  0
 34 36  1  0  0  0
 34 59  1  0  0  0
 34108  1  0  0  0
 35 44  2  0  0  0
 35 45  1  0  0  0
 35 68  1  0  0  0
 36 56  1  0  0  0
 36109  1  0  0  0
 37 39  1  0  0  0
 37 47  1  0  0  0
 37 66  1  0  0  0
 37110  1  0  0  0
 38 43  2  0  0  0
 38 46  1  0  0  0
 38 47  1  0  0  0
 39 64  1  0  0  0
 39 67  2  0  0  0
 40 52  1  0  0  0
 40 53  2  0  0  0
 40 58  1  0  0  0
 41111  1  0  0  0
 41112  1  0  0  0
 41113  1  0  0  0
 41 48  1  0  0  0
 42 43  1  0  0  0
 42 66  1  0  0  0
 42114  1  0  0  0
 42115  1  0  0  0
 43 44  1  0  0  0
 44116  1  0  0  0
 45 46  2  0  0  0
 45117  1  0  0  0
 46118  1  0  0  0
 47119  1  0  0  0
 47120  1  0  0  0
 48 56  1  0  0  0
 48 65  1  0  0  0
 48121  1  0  0  0
 49 50  1  0  0  0
 49 53  1  0  0  0
 49 64  1  0  0  0
 49122  1  0  0  0
 50 51  1  0  0  0
 50123  1  0  0  0
 50124  1  0  0  0
 51 52  1  0  0  0
 51125  1  0  0  0
 51126  1  0  0  0
 52127  1  0  0  0
 52128  1  0  0  0
 53 54  1  0  0  0
 54 55  2  0  0  0
 54129  1  0  0  0
 55 57  1  0  0  0
 55130  1  0  0  0
 56 69  2  0  0  0
 57 58  2  0  0  0
 57131  1  0  0  0
 58132  1  0  0  0
 59 60  1  0  0  0
 59 61  1  0  0  0
 59 62  1  0  0  0
 60133  1  0  0  0
 60134  1  0  0  0
 60135  1  0  0  0
 61136  1  0  0  0
 61137  1  0  0  0
 61138  1  0  0  0
 62139  1  0  0  0
 62140  1  0  0  0
 62141  1  0  0  0
 63 65  1  0  0  0
 63142  1  0  0  0
 63143  1  0  0  0
 63144  1  0  0  0
 64145  1  0  0  0
 65146  1  0  0  0
 68 83  1  0  0  0
 71 72  2  0  0  0
 71 74  1  0  0  0
 71147  1  0  0  0
 72 75  1  0  0  0
 72148  1  0  0  0
 73 74  2  0  0  0
 73 76  1  0  0  0
 73149  1  0  0  0
 74 84  1  0  0  0
 75 76  2  0  0  0
 75 85  1  0  0  0
 76 86  1  0  0  0
 77 78  2  0  0  0
 77 79  1  0  0  0
 77150  1  0  0  0
 78 81  1  0  0  0
 78 83  1  0  0  0
 79 80  1  0  0  0
 79 87  2  0  0  0
 80 84  1  0  0  0
 80151  1  0  0  0
 80152  1  0  0  0
 81 82  1  0  0  0
 81 84  1  0  0  0
 81153  1  0  0  0
 82154  1  0  0  0
 82155  1  0  0  0
 82156  1  0  0  0
 83157  1  0  0  0
 83158  1  0  0  0
 85159  1  0  0  0
 85160  1  0  0  0
 86161  1  0  0  0
M  ISO  4   1 100  68 101  83 101  86 100
M  END
> <chiral flag>
0

> <version>
0

> <s_m_source_file>
/data/baiqing/PycharmProjects/Reinvent-master-3.2/result/LINK_invent/BTK/process_docking_weight1_custom_product_contain_oxygen_bond_distance_aromatic_linkinvent_7_9_3/rearranged_h_0148.sdf

> <i_m_source_file_index>
9

> <r_mmod_Potential_Energy-OPLS-2005>
112.508842468262

> <r_mmod_Stretch_Energy-OPLS-2005>
132.723388671875

> <r_mmod_Bend_Energy-OPLS-2005>
173.408233642578

> <r_mmod_Torsional_Energy-OPLS-2005>
283.908630371094

> <r_mmod_Improper_Torsional_Energy-OPLS-2005>
14.5856266021729

> <r_mmod_Van_der_Waal_Energy-OPLS-2005>
154.927307128906

> <r_mmod_Electrostatic_Energy-OPLS-2005>
-496.735748291016

> <r_mmod_Solvation_Energy-OPLS-2005>
-234.377197265625

> <b_mmod_Minimization_Converged-OPLS-2005>
0

> <r_mmod_RMS_Derivative-OPLS-2005>
1.54968118667603

$$$$
9
                    3D
 Structure written by MMmdl.
159168  0  0  1  0            999 V2000
  -30.5867  -14.8399   20.3749 C   0  0  0  0  0  0
  -30.4357  -12.5048   19.4630 C   0  0  0  0  0  0
  -29.5036  -12.4509   18.2324 C   0  0  0  0  0  0
  -28.0309  -12.2959   18.6621 C   0  0  0  0  0  0
  -27.6293  -13.2276   19.8383 C   0  0  2  0  0  0
  -28.6864  -13.2405   20.9594 C   0  0  0  0  0  0
  -25.2508  -13.8178   20.5750 C   0  0  0  0  0  0
  -24.1792  -13.0432   20.9230 C   0  0  0  0  0  0
  -24.6373  -11.6906   20.8775 C   0  0  0  0  0  0
  -23.9054  -10.4284   21.0422 C   0  0  0  0  0  0
  -24.3605   -9.4200   21.9198 C   0  0  0  0  0  0
  -23.6284   -8.2236   22.0756 C   0  0  0  0  0  0
  -22.4273   -8.0275   21.3538 C   0  0  0  0  0  0
  -21.9907   -9.0250   20.4644 C   0  0  0  0  0  0
  -22.7232  -10.2133   20.3063 C   0  0  0  0  0  0
  -21.6852   -6.0732   22.5272 C   0  0  0  0  0  0
  -21.4009   -6.5638   23.8205 C   0  0  0  0  0  0
  -21.3649   -5.6794   24.9168 C   0  0  0  0  0  0
  -21.6041   -4.3058   24.7221 C   0  0  0  0  0  0
  -21.8822   -3.8149   23.4343 C   0  0  0  0  0  0
  -21.9197   -4.6961   22.3395 C   0  0  0  0  0  0
  -22.7817  -13.5226   21.1873 C   0  0  0  0  0  0
  -22.1672   -4.2146   21.0975 F   0  0  0  0  0  0
  -21.5622   -3.4543   25.7735 F   0  0  0  0  0  0
  -29.9598  -13.6069   20.3317 N   0  0  0  0  0  0
  -26.2905  -12.9359   20.3329 N   0  0  0  0  0  0
  -25.9303  -11.6513   20.5815 N   0  0  0  0  0  0
  -22.0456  -12.8211   22.0413 N   0  0  0  0  0  0
  -25.4238  -15.1903   20.4177 N   0  0  0  0  0  0
  -31.8184  -14.8682   20.2840 O   0  0  0  0  0  0
  -21.6639   -6.8873   21.4234 O   0  0  0  0  0  0
  -22.3510  -14.5539   20.6725 O   0  0  0  0  0  0
  -24.6346  -31.8518   23.1951 C   0  0  0  0  0  0
  -25.9157  -32.4731   23.8317 C   0  0  1  0  0  0
  -27.2165  -27.2263   20.1535 C   0  0  0  0  0  0
  -25.5931  -33.8535   24.2236 N   0  0  0  0  0  0
  -23.4339  -30.4716   21.5378 C   0  0  2  0  0  0
  -24.8832  -28.9093   20.1133 C   0  0  0  0  0  0
  -22.7524  -29.4576   22.4891 C   0  0  0  0  0  0
  -18.0290  -28.1395   22.8484 C   0  0  0  0  0  0
  -24.1472  -36.7247   23.2647 C   0  0  0  0  0  0
  -25.9820  -30.7547   21.3801 C   0  0  0  0  0  0
  -26.0555  -29.3731   20.7249 C   0  0  0  0  0  0
  -27.2287  -28.5460   20.7279 C   0  0  0  0  0  0
  -26.0253  -26.8356   19.5094 C   0  0  0  0  0  0
  -24.8748  -27.6509   19.4912 C   0  0  0  0  0  0
  -23.6560  -29.8016   20.1557 C   0  0  0  0  0  0
  -25.4105  -36.3046   24.0330 C   0  0  1  0  0  0
  -20.5902  -28.3704   23.1255 C   0  0  2  0  0  0
  -20.6775  -26.9414   22.5406 C   0  0  0  0  0  0
  -19.5746  -26.6378   21.5215 C   0  0  0  0  0  0
  -18.1924  -26.7936   22.1623 C   0  0  0  0  0  0
  -19.1550  -28.8863   23.2863 C   0  0  0  0  0  0
  -18.9472  -30.1462   23.8886 C   0  0  0  0  0  0
  -17.6477  -30.6596   24.0562 C   0  0  0  0  0  0
  -25.9056  -34.9423   23.5089 C   0  0  0  0  0  0
  -16.5360  -29.9089   23.6352 C   0  0  0  0  0  0
  -16.7277  -28.6508   23.0374 C   0  0  0  0  0  0
  -26.4517  -31.6577   25.0725 C   0  0  0  0  0  0
  -25.3727  -31.3730   26.1436 C   0  0  0  0  0  0
  -27.0396  -30.2997   24.6240 C   0  0  0  0  0  0
  -27.6062  -32.4339   25.7494 C   0  0  0  0  0  0
  -27.5564  -37.1773   24.8474 C   0  0  0  0  0  0
  -21.4227  -29.3037   22.3633 N   0  0  0  0  0  0
  -26.4270  -37.3758   23.9426 N   0  0  0  0  0  0
  -24.7023  -31.0452   22.0938 N   0  0  0  0  0  0
  -23.4208  -28.8127   23.3010 O   0  0  0  0  0  0
  -28.2935  -26.3042   20.1722 O   0  0  0  0  0  0
  -26.5636  -34.8909   22.4659 O   0  0  0  0  0  0
  -23.5484  -32.1345   23.7229 O   0  0  0  0  0  0
  -29.1953  -19.0564   21.7998 C   0  0  0  0  0  0
  -29.4472  -17.6261   21.7580 C   0  0  0  0  0  0
  -29.3465  -19.5650   20.5316 C   0  0  0  0  0  0
  -29.7261  -17.2712   20.4588 C   0  0  0  0  0  0
  -28.8297  -23.6073   18.7160 C   0  0  0  0  0  0
  -28.6416  -23.5871   20.0481 C   0  0  0  0  0  0
  -29.2866  -22.4211   17.9729 C   0  0  0  0  0  0
  -29.8486  -21.2120   18.7406 C   0  0  0  0  0  0
  -28.9008  -22.2102   20.8543 C   0  0  2  0  0  0
  -30.0125  -22.4554   21.8893 C   0  0  0  0  0  0
  -29.7317  -15.9503   18.4387 C   0  0  0  0  0  0
  -28.0729  -24.9173   20.7519 C   0  0  0  0  0  0
  -29.2287  -20.9502   20.0431 N   0  0  0  0  0  0
  -29.8685  -15.9655   19.9110 N   0  0  0  0  0  0
  -29.2469  -22.3754   16.7412 O   0  0  0  0  0  0
  -29.6651  -18.4723   19.7014 O   0  0  0  0  0  0
  -31.4679  -12.6535   19.1417 H   0  0  0  0  0  0
  -30.4195  -11.5571   20.0036 H   0  0  0  0  0  0
  -29.7871  -11.6185   17.5867 H   0  0  0  0  0  0
  -29.6190  -13.3433   17.6208 H   0  0  0  0  0  0
  -27.8960  -11.2556   18.9625 H   0  0  0  0  0  0
  -27.3686  -12.4521   17.8101 H   0  0  0  0  0  0
  -27.5855  -14.2320   19.4259 H   0  0  0  0  0  0
  -28.7578  -12.2675   21.4475 H   0  0  0  0  0  0
  -28.4185  -13.9645   21.7312 H   0  0  0  0  0  0
  -25.2743   -9.5685   22.4783 H   0  0  0  0  0  0
  -23.9989   -7.4624   22.7481 H   0  0  0  0  0  0
  -21.0838   -8.8767   19.8947 H   0  0  0  0  0  0
  -22.3690  -10.9676   19.6175 H   0  0  0  0  0  0
  -21.1999   -7.6146   23.9707 H   0  0  0  0  0  0
  -21.1465   -6.0526   25.9068 H   0  0  0  0  0  0
  -22.0611   -2.7614   23.2848 H   0  0  0  0  0  0
  -22.4072  -11.9860   22.4784 H   0  0  0  0  0  0
  -21.1074  -13.1233   22.2617 H   0  0  0  0  0  0
  -24.6624  -15.8507   20.5305 H   0  0  0  0  0  0
  -26.2895  -15.6287   20.1290 H   0  0  0  0  0  0
  -26.7218  -32.5377   23.1055 H   0  0  0  0  0  0
  -25.0095  -33.9670   25.0390 H   0  0  0  0  0  0
  -22.7318  -31.2943   21.3865 H   0  0  0  0  0  0
  -23.3756  -35.9561   23.3307 H   0  0  0  0  0  0
  -24.3553  -36.8876   22.2063 H   0  0  0  0  0  0
  -23.7205  -37.6432   23.6683 H   0  0  0  0  0  0
  -26.1261  -31.5129   20.6094 H   0  0  0  0  0  0
  -26.8573  -30.8046   22.0165 H   0  0  0  0  0  0
  -28.1270  -28.8948   21.2170 H   0  0  0  0  0  0
  -25.9747  -25.8680   19.0303 H   0  0  0  0  0  0
  -23.9780  -27.2922   19.0046 H   0  0  0  0  0  0
  -23.7862  -30.5771   19.3994 H   0  0  0  0  0  0
  -22.7737  -29.2382   19.8470 H   0  0  0  0  0  0
  -25.1286  -36.1875   25.0822 H   0  0  0  0  0  0
  -20.9992  -28.3278   24.1380 H   0  0  0  0  0  0
  -20.5679  -26.2306   23.3618 H   0  0  0  0  0  0
  -21.6636  -26.7426   22.1190 H   0  0  0  0  0  0
  -19.6908  -25.6288   21.1244 H   0  0  0  0  0  0
  -19.6690  -27.3184   20.6748 H   0  0  0  0  0  0
  -17.4195  -26.6700   21.4020 H   0  0  0  0  0  0
  -18.0308  -26.0075   22.9014 H   0  0  0  0  0  0
  -19.7952  -30.7279   24.2249 H   0  0  0  0  0  0
  -17.5031  -31.6279   24.5156 H   0  0  0  0  0  0
  -15.5365  -30.2994   23.7699 H   0  0  0  0  0  0
  -15.8669  -28.0819   22.7120 H   0  0  0  0  0  0
  -24.5908  -30.7078   25.7748 H   0  0  0  0  0  0
  -24.8914  -32.2903   26.4847 H   0  0  0  0  0  0
  -25.8031  -30.8912   27.0222 H   0  0  0  0  0  0
  -26.2999  -29.6710   24.1278 H   0  0  0  0  0  0
  -27.4089  -29.7304   25.4775 H   0  0  0  0  0  0
  -27.8858  -30.4278   23.9492 H   0  0  0  0  0  0
  -27.2666  -33.3671   26.2003 H   0  0  0  0  0  0
  -28.3909  -32.6851   25.0343 H   0  0  0  0  0  0
  -28.0690  -31.8508   26.5465 H   0  0  0  0  0  0
  -28.2579  -38.0072   24.7531 H   0  0  0  0  0  0
  -28.1063  -36.2606   24.6293 H   0  0  0  0  0  0
  -27.2280  -37.1400   25.8876 H   0  0  0  0  0  0
  -20.9423  -29.8736   21.6813 H   0  0  0  0  0  0
  -26.0139  -38.2818   24.1468 H   0  0  0  0  0  0
  -28.9305  -19.6354   22.6725 H   0  0  0  0  0  0
  -29.3858  -16.9395   22.5906 H   0  0  0  0  0  0
  -28.6242  -24.5031   18.1502 H   0  0  0  0  0  0
  -30.9179  -21.3689   18.8847 H   0  0  0  0  0  0
  -29.7470  -20.3355   18.1000 H   0  0  0  0  0  0
  -27.9764  -21.9941   21.3933 H   0  0  0  0  0  0
  -30.9488  -22.7380   21.4066 H   0  0  0  0  0  0
  -30.2129  -21.5768   22.5004 H   0  0  0  0  0  0
  -29.7468  -23.2539   22.5818 H   0  0  0  0  0  0
  -28.8020  -15.4694   18.1445 H   0  0  0  0  0  0
  -30.5505  -15.4221   17.9450 H   0  0  0  0  0  0
  -29.7136  -16.9340   17.9740 H   0  0  0  0  0  0
  -28.5087  -24.9601   21.7489 H   0  0  0  0  0  0
  -27.0100  -24.7480   20.9271 H   0  0  0  0  0  0
  1 25  1  0  0  0
  1 30  2  0  0  0
  1 84  1  0  0  0
  2  3  1  0  0  0
  2 25  1  0  0  0
  2 87  1  0  0  0
  2 88  1  0  0  0
  3  4  1  0  0  0
  3 89  1  0  0  0
  3 90  1  0  0  0
  4  5  1  0  0  0
  4 91  1  0  0  0
  4 92  1  0  0  0
  5  6  1  0  0  0
  5 26  1  0  0  0
  5 93  1  0  0  0
  6 25  1  0  0  0
  6 94  1  0  0  0
  6 95  1  0  0  0
  7  8  2  0  0  0
  7 26  1  0  0  0
  7 29  1  0  0  0
  8  9  1  0  0  0
  8 22  1  0  0  0
  9 10  1  0  0  0
  9 27  2  0  0  0
 10 11  2  0  0  0
 10 15  1  0  0  0
 11 12  1  0  0  0
 11 96  1  0  0  0
 12 13  2  0  0  0
 12 97  1  0  0  0
 13 14  1  0  0  0
 13 31  1  0  0  0
 14 15  2  0  0  0
 14 98  1  0  0  0
 15 99  1  0  0  0
 16 17  2  0  0  0
 16 21  1  0  0  0
 16 31  1  0  0  0
 17 18  1  0  0  0
 17100  1  0  0  0
 18 19  2  0  0  0
 18101  1  0  0  0
 19 20  1  0  0  0
 19 24  1  0  0  0
 20 21  2  0  0  0
 20102  1  0  0  0
 21 23  1  0  0  0
 22 28  1  0  0  0
 22 32  2  0  0  0
 26 27  1  0  0  0
 28103  1  0  0  0
 28104  1  0  0  0
 29105  1  0  0  0
 29106  1  0  0  0
 33 34  1  0  0  0
 33 66  1  0  0  0
 33 70  2  0  0  0
 34 36  1  0  0  0
 34 59  1  0  0  0
 34107  1  0  0  0
 35 44  2  0  0  0
 35 45  1  0  0  0
 35 68  1  0  0  0
 36 56  1  0  0  0
 36108  1  0  0  0
 37 39  1  0  0  0
 37 47  1  0  0  0
 37 66  1  0  0  0
 37109  1  0  0  0
 38 43  2  0  0  0
 38 46  1  0  0  0
 38 47  1  0  0  0
 39 64  1  0  0  0
 39 67  2  0  0  0
 40 52  1  0  0  0
 40 53  2  0  0  0
 40 58  1  0  0  0
 41110  1  0  0  0
 41111  1  0  0  0
 41112  1  0  0  0
 41 48  1  0  0  0
 42 43  1  0  0  0
 42 66  1  0  0  0
 42113  1  0  0  0
 42114  1  0  0  0
 43 44  1  0  0  0
 44115  1  0  0  0
 45 46  2  0  0  0
 45116  1  0  0  0
 46117  1  0  0  0
 47118  1  0  0  0
 47119  1  0  0  0
 48 56  1  0  0  0
 48 65  1  0  0  0
 48120  1  0  0  0
 49 50  1  0  0  0
 49 53  1  0  0  0
 49 64  1  0  0  0
 49121  1  0  0  0
 50 51  1  0  0  0
 50122  1  0  0  0
 50123  1  0  0  0
 51 52  1  0  0  0
 51124  1  0  0  0
 51125  1  0  0  0
 52126  1  0  0  0
 52127  1  0  0  0
 53 54  1  0  0  0
 54 55  2  0  0  0
 54128  1  0  0  0
 55 57  1  0  0  0
 55129  1  0  0  0
 56 69  2  0  0  0
 57 58  2  0  0  0
 57130  1  0  0  0
 58131  1  0  0  0
 59 60  1  0  0  0
 59 61  1  0  0  0
 59 62  1  0  0  0
 60132  1  0  0  0
 60133  1  0  0  0
 60134  1  0  0  0
 61135  1  0  0  0
 61136  1  0  0  0
 61137  1  0  0  0
 62138  1  0  0  0
 62139  1  0  0  0
 62140  1  0  0  0
 63 65  1  0  0  0
 63141  1  0  0  0
 63142  1  0  0  0
 63143  1  0  0  0
 64144  1  0  0  0
 65145  1  0  0  0
 68 82  1  0  0  0
 71 72  1  0  0  0
 71 73  2  0  0  0
 71146  1  0  0  0
 72 74  2  0  0  0
 72147  1  0  0  0
 73 83  1  0  0  0
 73 86  1  0  0  0
 74 84  1  0  0  0
 74 86  1  0  0  0
 75 76  2  0  0  0
 75 77  1  0  0  0
 75148  1  0  0  0
 76 79  1  0  0  0
 76 82  1  0  0  0
 77 78  1  0  0  0
 77 85  2  0  0  0
 78 83  1  0  0  0
 78149  1  0  0  0
 78150  1  0  0  0
 79 80  1  0  0  0
 79 83  1  0  0  0
 79151  1  0  0  0
 80152  1  0  0  0
 80153  1  0  0  0
 80154  1  0  0  0
 81 84  1  0  0  0
 81155  1  0  0  0
 81156  1  0  0  0
 81157  1  0  0  0
 82158  1  0  0  0
 82159  1  0  0  0
M  ISO  4   1 100  68 101  82 101  84 100
M  END
> <chiral flag>
0

> <version>
0

> <s_m_source_file>
/data/baiqing/PycharmProjects/Reinvent-master-3.2/result/LINK_invent/BTK/process_docking_weight1_custom_product_contain_oxygen_bond_distance_aromatic_linkinvent_7_9_3/rearranged_h_0148.sdf

> <i_m_source_file_index>
10

> <r_mmod_Potential_Energy-OPLS-2005>
405.769104003906

> <r_mmod_Stretch_Energy-OPLS-2005>
152.92121887207

> <r_mmod_Bend_Energy-OPLS-2005>
203.858978271484

> <r_mmod_Torsional_Energy-OPLS-2005>
309.987701416016

> <r_mmod_Improper_Torsional_Energy-OPLS-2005>
24.6364326477051

> <r_mmod_Van_der_Waal_Energy-OPLS-2005>
124.813537597656

> <r_mmod_Electrostatic_Energy-OPLS-2005>
-320.042205810547

> <r_mmod_Solvation_Energy-OPLS-2005>
-220.448867797852

> <b_mmod_Minimization_Converged-OPLS-2005>
0

> <r_mmod_RMS_Derivative-OPLS-2005>
1.26887810230255

$$$$
10
                    3D
 Structure written by MMmdl.
159168  0  0  1  0            999 V2000
  -30.6002  -14.7537   20.4679 C   0  0  0  0  0  0
  -30.4380  -12.4615   19.4723 C   0  0  0  0  0  0
  -29.5123  -12.5125   18.2362 C   0  0  0  0  0  0
  -28.0382  -12.3309   18.6500 C   0  0  0  0  0  0
  -27.6438  -13.2294   19.8527 C   0  0  2  0  0  0
  -28.6889  -13.1574   20.9876 C   0  0  0  0  0  0
  -25.2514  -13.8194   20.5690 C   0  0  0  0  0  0
  -24.1807  -13.0441   20.9213 C   0  0  0  0  0  0
  -24.6402  -11.6915   20.8748 C   0  0  0  0  0  0
  -23.9070  -10.4291   21.0404 C   0  0  0  0  0  0
  -24.3627   -9.4208   21.9182 C   0  0  0  0  0  0
  -23.6299   -8.2244   22.0759 C   0  0  0  0  0  0
  -22.4275   -8.0279   21.3556 C   0  0  0  0  0  0
  -21.9914   -9.0250   20.4648 C   0  0  0  0  0  0
  -22.7243  -10.2128   20.3053 C   0  0  0  0  0  0
  -21.6846   -6.0735   22.5281 C   0  0  0  0  0  0
  -21.4013   -6.5638   23.8217 C   0  0  0  0  0  0
  -21.3662   -5.6788   24.9176 C   0  0  0  0  0  0
  -21.6044   -4.3053   24.7220 C   0  0  0  0  0  0
  -21.8816   -3.8144   23.4342 C   0  0  0  0  0  0
  -21.9196   -4.6966   22.3401 C   0  0  0  0  0  0
  -22.7823  -13.5220   21.1865 C   0  0  0  0  0  0
  -22.1657   -4.2153   21.0977 F   0  0  0  0  0  0
  -21.5634   -3.4536   25.7733 F   0  0  0  0  0  0
  -29.9891  -13.5188   20.4085 N   0  0  0  0  0  0
  -26.2946  -12.9400   20.3286 N   0  0  0  0  0  0
  -25.9332  -11.6543   20.5752 N   0  0  0  0  0  0
  -22.0471  -12.8206   22.0422 N   0  0  0  0  0  0
  -25.4182  -15.1918   20.4098 N   0  0  0  0  0  0
  -31.7879  -14.8602   20.1463 O   0  0  0  0  0  0
  -21.6639   -6.8877   21.4242 O   0  0  0  0  0  0
  -22.3505  -14.5530   20.6715 O   0  0  0  0  0  0
  -24.6329  -31.8565   23.2002 C   0  0  0  0  0  0
  -25.9153  -32.4757   23.8336 C   0  0  1  0  0  0
  -27.2094  -27.2409   20.1278 C   0  0  0  0  0  0
  -25.5972  -33.8560   24.2279 N   0  0  0  0  0  0
  -23.4290  -30.4824   21.5443 C   0  0  2  0  0  0
  -24.8745  -28.9359   20.1063 C   0  0  0  0  0  0
  -22.7523  -29.4601   22.4906 C   0  0  0  0  0  0
  -18.0306  -28.1390   22.8472 C   0  0  0  0  0  0
  -24.1499  -36.7260   23.2641 C   0  0  0  0  0  0
  -25.9807  -30.7606   21.3892 C   0  0  0  0  0  0
  -26.0486  -29.3845   20.7252 C   0  0  0  0  0  0
  -27.2151  -28.5487   20.7311 C   0  0  0  0  0  0
  -26.0157  -26.8871   19.4535 C   0  0  0  0  0  0
  -24.8661  -27.6953   19.4588 C   0  0  0  0  0  0
  -23.6473  -29.8248   20.1577 C   0  0  0  0  0  0
  -25.4122  -36.3059   24.0333 C   0  0  1  0  0  0
  -20.5914  -28.3679   23.1265 C   0  0  2  0  0  0
  -20.6810  -26.9394   22.5406 C   0  0  0  0  0  0
  -19.5794  -26.6368   21.5218 C   0  0  0  0  0  0
  -18.1962  -26.7931   22.1604 C   0  0  0  0  0  0
  -19.1565  -28.8848   23.2866 C   0  0  0  0  0  0
  -18.9492  -30.1457   23.8869 C   0  0  0  0  0  0
  -17.6493  -30.6584   24.0551 C   0  0  0  0  0  0
  -25.9060  -34.9435   23.5097 C   0  0  0  0  0  0
  -16.5375  -29.9084   23.6330 C   0  0  0  0  0  0
  -16.7291  -28.6507   23.0337 C   0  0  0  0  0  0
  -26.4501  -31.6578   25.0721 C   0  0  0  0  0  0
  -25.3719  -31.3770   26.1438 C   0  0  0  0  0  0
  -27.0379  -30.3004   24.6221 C   0  0  0  0  0  0
  -27.6053  -32.4316   25.7503 C   0  0  0  0  0  0
  -27.5586  -37.1785   24.8464 C   0  0  0  0  0  0
  -21.4228  -29.3038   22.3652 N   0  0  0  0  0  0
  -26.4296  -37.3767   23.9405 N   0  0  0  0  0  0
  -24.6999  -31.0522   22.0992 N   0  0  0  0  0  0
  -23.4230  -28.8130   23.2987 O   0  0  0  0  0  0
  -28.2706  -26.2940   20.2188 O   0  0  0  0  0  0
  -26.5613  -34.8920   22.4654 O   0  0  0  0  0  0
  -23.5475  -32.1391   23.7296 O   0  0  0  0  0  0
  -31.2369  -17.9395   20.4959 C   0  0  0  0  0  0
  -31.1820  -19.3990   20.5158 C   0  0  0  0  0  0
  -29.9044  -19.9501   20.6057 C   0  0  0  0  0  0
  -30.0440  -17.2593   20.6191 C   0  0  0  0  0  0
  -28.7593  -23.5790   20.4437 C   0  0  0  0  0  0
  -28.8504  -22.3040   19.9347 C   0  0  0  0  0  0
  -32.4066  -20.2017   20.4107 C   0  0  0  0  0  0
  -29.3861  -23.5628   21.8144 C   0  0  0  0  0  0
  -29.9104  -22.0984   21.9722 C   0  0  0  0  0  0
  -28.2853  -21.8344   18.6093 C   0  0  0  0  0  0
  -33.7003  -19.5115   20.8393 C   0  0  0  0  0  0
  -27.9661  -24.8499   19.8810 C   0  0  0  0  0  0
  -29.5011  -21.3549   20.7716 N   0  0  0  0  0  0
  -29.7969  -15.8693   20.6855 N   0  0  0  0  0  0
  -32.4802  -21.3720   20.0235 O   0  0  0  0  0  0
  -28.7854  -18.5473   20.7064 S   0  0  0  0  0  0
  -31.4778  -12.5938   19.1694 H   0  0  0  0  0  0
  -30.3880  -11.4823   19.9513 H   0  0  0  0  0  0
  -29.7978  -11.7426   17.5181 H   0  0  0  0  0  0
  -29.6338  -13.4680   17.7237 H   0  0  0  0  0  0
  -27.8995  -11.2820   18.9130 H   0  0  0  0  0  0
  -27.3791  -12.5203   17.8022 H   0  0  0  0  0  0
  -27.6382  -14.2511   19.4732 H   0  0  0  0  0  0
  -28.7279  -12.1547   21.4168 H   0  0  0  0  0  0
  -28.4223  -13.8282   21.8058 H   0  0  0  0  0  0
  -25.2778   -9.5687   22.4751 H   0  0  0  0  0  0
  -24.0011   -7.4636   22.7488 H   0  0  0  0  0  0
  -21.0845   -8.8760   19.8951 H   0  0  0  0  0  0
  -22.3702  -10.9664   19.6156 H   0  0  0  0  0  0
  -21.1991   -7.6143   23.9725 H   0  0  0  0  0  0
  -21.1488   -6.0512   25.9082 H   0  0  0  0  0  0
  -22.0589   -2.7604   23.2835 H   0  0  0  0  0  0
  -22.4081  -11.9865   22.4807 H   0  0  0  0  0  0
  -21.1092  -13.1225   22.2627 H   0  0  0  0  0  0
  -24.6442  -15.8389   20.5138 H   0  0  0  0  0  0
  -26.2546  -15.6347   20.0509 H   0  0  0  0  0  0
  -26.7196  -32.5375   23.1053 H   0  0  0  0  0  0
  -25.0146  -33.9717   25.0441 H   0  0  0  0  0  0
  -22.7237  -31.3038   21.4021 H   0  0  0  0  0  0
  -23.3791  -35.9567   23.3290 H   0  0  0  0  0  0
  -24.3595  -36.8892   22.2060 H   0  0  0  0  0  0
  -23.7235  -37.6452   23.6657 H   0  0  0  0  0  0
  -26.1374  -31.5247   20.6259 H   0  0  0  0  0  0
  -26.8535  -30.7948   22.0296 H   0  0  0  0  0  0
  -28.1034  -28.8859   21.2458 H   0  0  0  0  0  0
  -25.9209  -25.9531   18.9231 H   0  0  0  0  0  0
  -23.9715  -27.3477   18.9601 H   0  0  0  0  0  0
  -23.7749  -30.6066   19.4084 H   0  0  0  0  0  0
  -22.7640  -29.2649   19.8442 H   0  0  0  0  0  0
  -25.1320  -36.1899   25.0834 H   0  0  0  0  0  0
  -20.9996  -28.3251   24.1392 H   0  0  0  0  0  0
  -20.5735  -26.2282   23.3608 H   0  0  0  0  0  0
  -21.6676  -26.7441   22.1184 H   0  0  0  0  0  0
  -19.6961  -25.6286   21.1243 H   0  0  0  0  0  0
  -19.6755  -27.3174   20.6754 H   0  0  0  0  0  0
  -17.4244  -26.6663   21.3994 H   0  0  0  0  0  0
  -18.0344  -26.0088   22.9013 H   0  0  0  0  0  0
  -19.7981  -30.7274   24.2212 H   0  0  0  0  0  0
  -17.5061  -31.6264   24.5158 H   0  0  0  0  0  0
  -15.5382  -30.2979   23.7705 H   0  0  0  0  0  0
  -15.8684  -28.0833   22.7056 H   0  0  0  0  0  0
  -24.5894  -30.7109   25.7785 H   0  0  0  0  0  0
  -24.8910  -32.2971   26.4772 H   0  0  0  0  0  0
  -25.8030  -30.9016   27.0257 H   0  0  0  0  0  0
  -26.2995  -29.6728   24.1217 H   0  0  0  0  0  0
  -27.4071  -29.7270   25.4732 H   0  0  0  0  0  0
  -27.8851  -30.4322   23.9489 H   0  0  0  0  0  0
  -27.2659  -33.3634   26.2033 H   0  0  0  0  0  0
  -28.3888  -32.6836   25.0347 H   0  0  0  0  0  0
  -28.0662  -31.8454   26.5461 H   0  0  0  0  0  0
  -28.2588  -38.0095   24.7530 H   0  0  0  0  0  0
  -28.1112  -36.2635   24.6279 H   0  0  0  0  0  0
  -27.2303  -37.1401   25.8866 H   0  0  0  0  0  0
  -20.9403  -29.8761   21.6862 H   0  0  0  0  0  0
  -26.0179  -38.2842   24.1421 H   0  0  0  0  0  0
  -32.1827  -17.4252   20.4076 H   0  0  0  0  0  0
  -28.6270  -23.7913   22.5632 H   0  0  0  0  0  0
  -30.1834  -24.3031   21.8878 H   0  0  0  0  0  0
  -29.4985  -21.6331   22.8690 H   0  0  0  0  0  0
  -30.9967  -22.1034   22.0750 H   0  0  0  0  0  0
  -27.1953  -21.8356   18.6425 H   0  0  0  0  0  0
  -28.6137  -20.8267   18.3560 H   0  0  0  0  0  0
  -28.6060  -22.4979   17.8054 H   0  0  0  0  0  0
  -33.5595  -18.9804   21.7812 H   0  0  0  0  0  0
  -34.4980  -20.2403   20.9787 H   0  0  0  0  0  0
  -34.0206  -18.7996   20.0791 H   0  0  0  0  0  0
  -26.9630  -24.6398   20.2527 H   0  0  0  0  0  0
  -27.9164  -24.7585   18.7950 H   0  0  0  0  0  0
  -28.8381  -15.6239   20.8787 H   0  0  0  0  0  0
  1 25  1  0  0  0
  1 30  2  0  0  0
  1 84  1  0  0  0
  2  3  1  0  0  0
  2 25  1  0  0  0
  2 87  1  0  0  0
  2 88  1  0  0  0
  3  4  1  0  0  0
  3 89  1  0  0  0
  3 90  1  0  0  0
  4  5  1  0  0  0
  4 91  1  0  0  0
  4 92  1  0  0  0
  5  6  1  0  0  0
  5 26  1  0  0  0
  5 93  1  0  0  0
  6 25  1  0  0  0
  6 94  1  0  0  0
  6 95  1  0  0  0
  7  8  2  0  0  0
  7 26  1  0  0  0
  7 29  1  0  0  0
  8  9  1  0  0  0
  8 22  1  0  0  0
  9 10  1  0  0  0
  9 27  2  0  0  0
 10 11  2  0  0  0
 10 15  1  0  0  0
 11 12  1  0  0  0
 11 96  1  0  0  0
 12 13  2  0  0  0
 12 97  1  0  0  0
 13 14  1  0  0  0
 13 31  1  0  0  0
 14 15  2  0  0  0
 14 98  1  0  0  0
 15 99  1  0  0  0
 16 17  2  0  0  0
 16 21  1  0  0  0
 16 31  1  0  0  0
 17 18  1  0  0  0
 17100  1  0  0  0
 18 19  2  0  0  0
 18101  1  0  0  0
 19 20  1  0  0  0
 19 24  1  0  0  0
 20 21  2  0  0  0
 20102  1  0  0  0
 21 23  1  0  0  0
 22 28  1  0  0  0
 22 32  2  0  0  0
 26 27  1  0  0  0
 28103  1  0  0  0
 28104  1  0  0  0
 29105  1  0  0  0
 29106  1  0  0  0
 33 34  1  0  0  0
 33 66  1  0  0  0
 33 70  2  0  0  0
 34 36  1  0  0  0
 34 59  1  0  0  0
 34107  1  0  0  0
 35 44  2  0  0  0
 35 45  1  0  0  0
 35 68  1  0  0  0
 36 56  1  0  0  0
 36108  1  0  0  0
 37 39  1  0  0  0
 37 47  1  0  0  0
 37 66  1  0  0  0
 37109  1  0  0  0
 38 43  2  0  0  0
 38 46  1  0  0  0
 38 47  1  0  0  0
 39 64  1  0  0  0
 39 67  2  0  0  0
 40 52  1  0  0  0
 40 53  2  0  0  0
 40 58  1  0  0  0
 41110  1  0  0  0
 41111  1  0  0  0
 41112  1  0  0  0
 41 48  1  0  0  0
 42 43  1  0  0  0
 42 66  1  0  0  0
 42113  1  0  0  0
 42114  1  0  0  0
 43 44  1  0  0  0
 44115  1  0  0  0
 45 46  2  0  0  0
 45116  1  0  0  0
 46117  1  0  0  0
 47118  1  0  0  0
 47119  1  0  0  0
 48 56  1  0  0  0
 48 65  1  0  0  0
 48120  1  0  0  0
 49 50  1  0  0  0
 49 53  1  0  0  0
 49 64  1  0  0  0
 49121  1  0  0  0
 50 51  1  0  0  0
 50122  1  0  0  0
 50123  1  0  0  0
 51 52  1  0  0  0
 51124  1  0  0  0
 51125  1  0  0  0
 52126  1  0  0  0
 52127  1  0  0  0
 53 54  1  0  0  0
 54 55  2  0  0  0
 54128  1  0  0  0
 55 57  1  0  0  0
 55129  1  0  0  0
 56 69  2  0  0  0
 57 58  2  0  0  0
 57130  1  0  0  0
 58131  1  0  0  0
 59 60  1  0  0  0
 59 61  1  0  0  0
 59 62  1  0  0  0
 60132  1  0  0  0
 60133  1  0  0  0
 60134  1  0  0  0
 61135  1  0  0  0
 61136  1  0  0  0
 61137  1  0  0  0
 62138  1  0  0  0
 62139  1  0  0  0
 62140  1  0  0  0
 63 65  1  0  0  0
 63141  1  0  0  0
 63142  1  0  0  0
 63143  1  0  0  0
 64144  1  0  0  0
 65145  1  0  0  0
 68 82  1  0  0  0
 71 72  1  0  0  0
 71 74  2  0  0  0
 71146  1  0  0  0
 72 73  2  0  0  0
 72 77  1  0  0  0
 73 83  1  0  0  0
 73 86  1  0  0  0
 74 84  1  0  0  0
 74 86  1  0  0  0
 75 76  2  0  0  0
 75 78  1  0  0  0
 75 82  1  0  0  0
 76 80  1  0  0  0
 76 83  1  0  0  0
 77 81  1  0  0  0
 77 85  2  0  0  0
 78 79  1  0  0  0
 78147  1  0  0  0
 78148  1  0  0  0
 79 83  1  0  0  0
 79149  1  0  0  0
 79150  1  0  0  0
 80151  1  0  0  0
 80152  1  0  0  0
 80153  1  0  0  0
 81154  1  0  0  0
 81155  1  0  0  0
 81156  1  0  0  0
 82157  1  0  0  0
 82158  1  0  0  0
 84159  1  0  0  0
M  ISO  4   1 100  68 101  82 101  84 100
M  END
> <chiral flag>
0

> <version>
0

> <s_m_source_file>
/data/baiqing/PycharmProjects/Reinvent-master-3.2/result/LINK_invent/BTK/process_docking_weight1_custom_product_contain_oxygen_bond_distance_aromatic_linkinvent_7_9_3/rearranged_h_0148.sdf

> <i_m_source_file_index>
11

> <r_mmod_Potential_Energy-OPLS-2005>
268.810638427734

> <r_mmod_Stretch_Energy-OPLS-2005>
120.075775146484

> <r_mmod_Bend_Energy-OPLS-2005>
231.865966796875

> <r_mmod_Torsional_Energy-OPLS-2005>
266.674591064453

> <r_mmod_Improper_Torsional_Energy-OPLS-2005>
5.79234600067139

> <r_mmod_Van_der_Waal_Energy-OPLS-2005>
120.251831054688

> <r_mmod_Electrostatic_Energy-OPLS-2005>
-351.447631835938

> <r_mmod_Solvation_Energy-OPLS-2005>
-222.17106628418

> <b_mmod_Minimization_Converged-OPLS-2005>
0

> <r_mmod_RMS_Derivative-OPLS-2005>
2.39030075073242

$$$$
11
                    3D
 Structure written by MMmdl.
164173  0  0  1  0            999 V2000
  -30.6687  -14.5838   20.4943 C   0  0  0  0  0  0
  -30.4205  -12.3531   19.4595 C   0  0  0  0  0  0
  -29.5024  -12.5022   18.2273 C   0  0  0  0  0  0
  -28.0241  -12.3536   18.6349 C   0  0  0  0  0  0
  -27.6536  -13.2217   19.8673 C   0  0  2  0  0  0
  -28.6955  -13.0766   21.0006 C   0  0  0  0  0  0
  -25.2551  -13.8188   20.5693 C   0  0  0  0  0  0
  -24.1822  -13.0445   20.9188 C   0  0  0  0  0  0
  -24.6398  -11.6918   20.8741 C   0  0  0  0  0  0
  -23.9070  -10.4297   21.0407 C   0  0  0  0  0  0
  -24.3619   -9.4211   21.9185 C   0  0  0  0  0  0
  -23.6293   -8.2246   22.0758 C   0  0  0  0  0  0
  -22.4276   -8.0283   21.3545 C   0  0  0  0  0  0
  -21.9913   -9.0259   20.4651 C   0  0  0  0  0  0
  -22.7242  -10.2138   20.3059 C   0  0  0  0  0  0
  -21.6854   -6.0738   22.5280 C   0  0  0  0  0  0
  -21.4017   -6.5642   23.8213 C   0  0  0  0  0  0
  -21.3660   -5.6795   24.9176 C   0  0  0  0  0  0
  -21.6043   -4.3057   24.7226 C   0  0  0  0  0  0
  -21.8818   -3.8149   23.4348 C   0  0  0  0  0  0
  -21.9193   -4.6965   22.3404 C   0  0  0  0  0  0
  -22.7844  -13.5232   21.1851 C   0  0  0  0  0  0
  -22.1661   -4.2152   21.0980 F   0  0  0  0  0  0
  -21.5628   -3.4542   25.7739 F   0  0  0  0  0  0
  -30.0189  -13.3818   20.4392 N   0  0  0  0  0  0
  -26.2989  -12.9383   20.3345 N   0  0  0  0  0  0
  -25.9329  -11.6531   20.5770 N   0  0  0  0  0  0
  -22.0488  -12.8225   22.0409 N   0  0  0  0  0  0
  -25.4253  -15.1909   20.4107 N   0  0  0  0  0  0
  -31.8335  -14.6963   20.1006 O   0  0  0  0  0  0
  -21.6638   -6.8881   21.4242 O   0  0  0  0  0  0
  -22.3529  -14.5538   20.6700 O   0  0  0  0  0  0
  -24.6201  -31.8631   23.2058 C   0  0  0  0  0  0
  -25.9059  -32.4802   23.8381 C   0  0  1  0  0  0
  -27.2273  -27.3713   20.1162 C   0  0  0  0  0  0
  -25.5898  -33.8602   24.2308 N   0  0  0  0  0  0
  -23.4123  -30.4858   21.5464 C   0  0  2  0  0  0
  -24.8621  -28.9475   20.1108 C   0  0  0  0  0  0
  -22.7445  -29.4628   22.4946 C   0  0  0  0  0  0
  -18.0284  -28.1367   22.8480 C   0  0  0  0  0  0
  -24.1484  -36.7307   23.2637 C   0  0  0  0  0  0
  -25.9479  -30.8107   21.3691 C   0  0  0  0  0  0
  -26.0272  -29.4421   20.7124 C   0  0  0  0  0  0
  -27.2173  -28.6648   20.7059 C   0  0  0  0  0  0
  -26.0477  -26.9145   19.4902 C   0  0  0  0  0  0
  -24.8706  -27.6862   19.4922 C   0  0  0  0  0  0
  -23.6261  -29.8209   20.1611 C   0  0  0  0  0  0
  -25.4104  -36.3105   24.0338 C   0  0  1  0  0  0
  -20.5876  -28.3666   23.1289 C   0  0  2  0  0  0
  -20.6769  -26.9394   22.5408 C   0  0  0  0  0  0
  -19.5753  -26.6372   21.5199 C   0  0  0  0  0  0
  -18.1928  -26.7912   22.1609 C   0  0  0  0  0  0
  -19.1535  -28.8832   23.2880 C   0  0  0  0  0  0
  -18.9463  -30.1434   23.8901 C   0  0  0  0  0  0
  -17.6466  -30.6575   24.0555 C   0  0  0  0  0  0
  -25.9039  -34.9468   23.5125 C   0  0  0  0  0  0
  -16.5354  -29.9077   23.6323 C   0  0  0  0  0  0
  -16.7272  -28.6492   23.0350 C   0  0  0  0  0  0
  -26.4475  -31.6594   25.0728 C   0  0  0  0  0  0
  -25.3728  -31.3717   26.1474 C   0  0  0  0  0  0
  -27.0314  -30.3029   24.6139 C   0  0  0  0  0  0
  -27.6055  -32.4320   25.7480 C   0  0  0  0  0  0
  -27.5588  -37.1796   24.8454 C   0  0  0  0  0  0
  -21.4164  -29.3027   22.3690 N   0  0  0  0  0  0
  -26.4288  -37.3794   23.9423 N   0  0  0  0  0  0
  -24.6784  -31.0681   22.0987 N   0  0  0  0  0  0
  -23.4183  -28.8174   23.3016 O   0  0  0  0  0  0
  -28.3379  -26.5327   20.1486 O   0  0  0  0  0  0
  -26.5606  -34.8922   22.4691 O   0  0  0  0  0  0
  -23.5373  -32.1416   23.7402 O   0  0  0  0  0  0
  -29.6098  -18.2288   21.0998 C   0  0  0  0  0  0
  -30.7840  -17.3993   19.2570 C   0  0  0  0  0  0
  -30.1244  -17.0598   20.4113 C   0  0  0  0  0  0
  -29.9319  -19.4469   20.4943 C   0  0  0  0  0  0
  -27.8671  -22.6508   20.5725 C   0  0  0  0  0  0
  -29.8696  -20.7073   23.4671 C   0  0  0  0  0  0
  -28.3739  -21.0805   23.5081 C   0  0  0  0  0  0
  -30.5689  -21.2542   22.2052 C   0  0  0  0  0  0
  -27.6651  -20.8021   22.1646 C   0  0  0  0  0  0
  -29.7736  -20.9339   20.9216 C   0  0  2  0  0  0
  -28.7311  -25.4776   22.2724 C   0  0  0  0  0  0
  -28.6961  -23.9317   20.2120 C   0  0  0  0  0  0
  -28.1434  -25.2685   20.8691 C   0  0  2  0  0  0
  -28.4033  -21.4954   21.0955 N   0  0  0  0  0  0
  -29.9343  -15.6818   20.8452 N   0  0  0  0  0  0
  -26.6411  -22.7512   20.4495 O   0  0  0  0  0  0
  -30.8255  -19.1276   19.0215 S   0  0  0  0  0  0
  -31.4674  -12.4405   19.1634 H   0  0  0  0  0  0
  -30.3187  -11.3583   19.8958 H   0  0  0  0  0  0
  -29.7586  -11.7583   17.4717 H   0  0  0  0  0  0
  -29.6607  -13.4771   17.7630 H   0  0  0  0  0  0
  -27.8495  -11.3006   18.8582 H   0  0  0  0  0  0
  -27.3739  -12.5971   17.7937 H   0  0  0  0  0  0
  -27.6749  -14.2584   19.5302 H   0  0  0  0  0  0
  -28.6874  -12.0625   21.4021 H   0  0  0  0  0  0
  -28.4531  -13.7323   21.8380 H   0  0  0  0  0  0
  -25.2764   -9.5688   22.4763 H   0  0  0  0  0  0
  -24.0004   -7.4641   22.7482 H   0  0  0  0  0  0
  -21.0841   -8.8780   19.8961 H   0  0  0  0  0  0
  -22.3697  -10.9679   19.6171 H   0  0  0  0  0  0
  -21.2010   -7.6151   23.9719 H   0  0  0  0  0  0
  -21.1482   -6.0525   25.9078 H   0  0  0  0  0  0
  -22.0596   -2.7612   23.2848 H   0  0  0  0  0  0
  -22.4098  -11.9880   22.4788 H   0  0  0  0  0  0
  -21.1110  -13.1262   22.2624 H   0  0  0  0  0  0
  -24.6567  -15.8445   20.5147 H   0  0  0  0  0  0
  -26.2764  -15.6312   20.0846 H   0  0  0  0  0  0
  -26.7128  -32.5498   23.1140 H   0  0  0  0  0  0
  -25.0047  -33.9766   25.0453 H   0  0  0  0  0  0
  -22.7032  -31.3036   21.4045 H   0  0  0  0  0  0
  -23.3758  -35.9625   23.3283 H   0  0  0  0  0  0
  -24.3585  -36.8948   22.2056 H   0  0  0  0  0  0
  -23.7222  -37.6498   23.6671 H   0  0  0  0  0  0
  -26.0693  -31.5764   20.6019 H   0  0  0  0  0  0
  -26.8310  -30.8622   21.9946 H   0  0  0  0  0  0
  -28.1136  -29.0362   21.1826 H   0  0  0  0  0  0
  -26.0324  -25.9417   19.0182 H   0  0  0  0  0  0
  -23.9773  -27.3002   19.0217 H   0  0  0  0  0  0
  -23.7392  -30.5982   19.4040 H   0  0  0  0  0  0
  -22.7486  -29.2454   19.8619 H   0  0  0  0  0  0
  -25.1277  -36.1965   25.0828 H   0  0  0  0  0  0
  -20.9964  -28.3238   24.1411 H   0  0  0  0  0  0
  -20.5656  -26.2275   23.3601 H   0  0  0  0  0  0
  -21.6644  -26.7423   22.1214 H   0  0  0  0  0  0
  -19.6918  -25.6284   21.1232 H   0  0  0  0  0  0
  -19.6700  -27.3176   20.6722 H   0  0  0  0  0  0
  -17.4199  -26.6655   21.4010 H   0  0  0  0  0  0
  -18.0341  -26.0045   22.8999 H   0  0  0  0  0  0
  -19.7940  -30.7240   24.2280 H   0  0  0  0  0  0
  -17.5026  -31.6259   24.5147 H   0  0  0  0  0  0
  -15.5359  -30.2984   23.7642 H   0  0  0  0  0  0
  -15.8667  -28.0812   22.7069 H   0  0  0  0  0  0
  -24.5879  -30.7094   25.7809 H   0  0  0  0  0  0
  -24.8941  -32.2874   26.4946 H   0  0  0  0  0  0
  -25.8060  -30.8859   27.0224 H   0  0  0  0  0  0
  -26.2874  -29.6782   24.1184 H   0  0  0  0  0  0
  -27.4068  -29.7281   25.4615 H   0  0  0  0  0  0
  -27.8715  -30.4347   23.9318 H   0  0  0  0  0  0
  -27.2695  -33.3631   26.2056 H   0  0  0  0  0  0
  -28.3853  -32.6860   25.0290 H   0  0  0  0  0  0
  -28.0730  -31.8441   26.5391 H   0  0  0  0  0  0
  -28.2571  -38.0126   24.7562 H   0  0  0  0  0  0
  -28.1124  -36.2665   24.6206 H   0  0  0  0  0  0
  -27.2321  -37.1353   25.8858 H   0  0  0  0  0  0
  -20.9327  -29.8772   21.6929 H   0  0  0  0  0  0
  -26.0176  -38.2865   24.1460 H   0  0  0  0  0  0
  -29.0750  -18.1280   22.0325 H   0  0  0  0  0  0
  -31.2608  -16.7557   18.5264 H   0  0  0  0  0  0
  -29.9751  -19.6237   23.5024 H   0  0  0  0  0  0
  -30.3707  -21.0801   24.3612 H   0  0  0  0  0  0
  -28.2781  -22.1408   23.7491 H   0  0  0  0  0  0
  -27.8757  -20.5425   24.3154 H   0  0  0  0  0  0
  -31.5882  -20.8724   22.1316 H   0  0  0  0  0  0
  -30.6608  -22.3366   22.3057 H   0  0  0  0  0  0
  -26.6284  -21.1307   22.2498 H   0  0  0  0  0  0
  -27.5955  -19.7373   21.9599 H   0  0  0  0  0  0
  -30.2374  -21.5235   20.1292 H   0  0  0  0  0  0
  -28.5688  -24.6065   22.9074 H   0  0  0  0  0  0
  -28.2715  -26.3335   22.7680 H   0  0  0  0  0  0
  -29.8049  -25.6608   22.2259 H   0  0  0  0  0  0
  -28.6489  -24.0292   19.1276 H   0  0  0  0  0  0
  -29.7493  -23.7945   20.4558 H   0  0  0  0  0  0
  -27.0747  -25.1294   21.0327 H   0  0  0  0  0  0
  -29.0753  -15.4863   21.3370 H   0  0  0  0  0  0
  1 25  1  0  0  0
  1 30  2  0  0  0
  1 85  1  0  0  0
  2  3  1  0  0  0
  2 25  1  0  0  0
  2 88  1  0  0  0
  2 89  1  0  0  0
  3  4  1  0  0  0
  3 90  1  0  0  0
  3 91  1  0  0  0
  4  5  1  0  0  0
  4 92  1  0  0  0
  4 93  1  0  0  0
  5  6  1  0  0  0
  5 26  1  0  0  0
  5 94  1  0  0  0
  6 25  1  0  0  0
  6 95  1  0  0  0
  6 96  1  0  0  0
  7  8  2  0  0  0
  7 26  1  0  0  0
  7 29  1  0  0  0
  8  9  1  0  0  0
  8 22  1  0  0  0
  9 10  1  0  0  0
  9 27  2  0  0  0
 10 11  2  0  0  0
 10 15  1  0  0  0
 11 12  1  0  0  0
 11 97  1  0  0  0
 12 13  2  0  0  0
 12 98  1  0  0  0
 13 14  1  0  0  0
 13 31  1  0  0  0
 14 15  2  0  0  0
 14 99  1  0  0  0
 15100  1  0  0  0
 16 17  2  0  0  0
 16 21  1  0  0  0
 16 31  1  0  0  0
 17 18  1  0  0  0
 17101  1  0  0  0
 18 19  2  0  0  0
 18102  1  0  0  0
 19 20  1  0  0  0
 19 24  1  0  0  0
 20 21  2  0  0  0
 20103  1  0  0  0
 21 23  1  0  0  0
 22 28  1  0  0  0
 22 32  2  0  0  0
 26 27  1  0  0  0
 28104  1  0  0  0
 28105  1  0  0  0
 29106  1  0  0  0
 29107  1  0  0  0
 33 34  1  0  0  0
 33 66  1  0  0  0
 33 70  2  0  0  0
 34 36  1  0  0  0
 34 59  1  0  0  0
 34108  1  0  0  0
 35 44  2  0  0  0
 35 45  1  0  0  0
 35 68  1  0  0  0
 36 56  1  0  0  0
 36109  1  0  0  0
 37 39  1  0  0  0
 37 47  1  0  0  0
 37 66  1  0  0  0
 37110  1  0  0  0
 38 43  2  0  0  0
 38 46  1  0  0  0
 38 47  1  0  0  0
 39 64  1  0  0  0
 39 67  2  0  0  0
 40 52  1  0  0  0
 40 53  2  0  0  0
 40 58  1  0  0  0
 41111  1  0  0  0
 41112  1  0  0  0
 41113  1  0  0  0
 41 48  1  0  0  0
 42 43  1  0  0  0
 42 66  1  0  0  0
 42114  1  0  0  0
 42115  1  0  0  0
 43 44  1  0  0  0
 44116  1  0  0  0
 45 46  2  0  0  0
 45117  1  0  0  0
 46118  1  0  0  0
 47119  1  0  0  0
 47120  1  0  0  0
 48 56  1  0  0  0
 48 65  1  0  0  0
 48121  1  0  0  0
 49 50  1  0  0  0
 49 53  1  0  0  0
 49 64  1  0  0  0
 49122  1  0  0  0
 50 51  1  0  0  0
 50123  1  0  0  0
 50124  1  0  0  0
 51 52  1  0  0  0
 51125  1  0  0  0
 51126  1  0  0  0
 52127  1  0  0  0
 52128  1  0  0  0
 53 54  1  0  0  0
 54 55  2  0  0  0
 54129  1  0  0  0
 55 57  1  0  0  0
 55130  1  0  0  0
 56 69  2  0  0  0
 57 58  2  0  0  0
 57131  1  0  0  0
 58132  1  0  0  0
 59 60  1  0  0  0
 59 61  1  0  0  0
 59 62  1  0  0  0
 60133  1  0  0  0
 60134  1  0  0  0
 60135  1  0  0  0
 61136  1  0  0  0
 61137  1  0  0  0
 61138  1  0  0  0
 62139  1  0  0  0
 62140  1  0  0  0
 62141  1  0  0  0
 63 65  1  0  0  0
 63142  1  0  0  0
 63143  1  0  0  0
 63144  1  0  0  0
 64145  1  0  0  0
 65146  1  0  0  0
 68 83  1  0  0  0
 71 73  1  0  0  0
 71 74  2  0  0  0
 71147  1  0  0  0
 72 73  2  0  0  0
 72 87  1  0  0  0
 72148  1  0  0  0
 73 85  1  0  0  0
 74 87  1  0  0  0
 74 80  1  0  0  0
 75 82  1  0  0  0
 75 84  1  0  0  0
 75 86  2  0  0  0
 76 77  1  0  0  0
 76 78  1  0  0  0
 76149  1  0  0  0
 76150  1  0  0  0
 77 79  1  0  0  0
 77151  1  0  0  0
 77152  1  0  0  0
 78 80  1  0  0  0
 78153  1  0  0  0
 78154  1  0  0  0
 79 84  1  0  0  0
 79155  1  0  0  0
 79156  1  0  0  0
 80 84  1  0  0  0
 80157  1  0  0  0
 81158  1  0  0  0
 81159  1  0  0  0
 81160  1  0  0  0
 81 83  1  0  0  0
 82 83  1  0  0  0
 82161  1  0  0  0
 82162  1  0  0  0
 83163  1  0  0  0
 85164  1  0  0  0
M  ISO  4   1 100  68 101  83 101  85 100
M  END
> <chiral flag>
0

> <version>
0

> <s_m_source_file>
/data/baiqing/PycharmProjects/Reinvent-master-3.2/result/LINK_invent/BTK/process_docking_weight1_custom_product_contain_oxygen_bond_distance_aromatic_linkinvent_7_9_3/rearranged_h_0148.sdf

> <i_m_source_file_index>
12

> <r_mmod_Potential_Energy-OPLS-2005>
117.843109130859

> <r_mmod_Stretch_Energy-OPLS-2005>
67.2508926391602

> <r_mmod_Bend_Energy-OPLS-2005>
137.467834472656

> <r_mmod_Torsional_Energy-OPLS-2005>
314.386688232422

> <r_mmod_Improper_Torsional_Energy-OPLS-2005>
5.62412214279175

> <r_mmod_Van_der_Waal_Energy-OPLS-2005>
134.013641357422

> <r_mmod_Electrostatic_Energy-OPLS-2005>
-350.297302246094

> <r_mmod_Solvation_Energy-OPLS-2005>
-223.725280761719

> <b_mmod_Minimization_Converged-OPLS-2005>
0

> <r_mmod_RMS_Derivative-OPLS-2005>
0.87452894449234

$$$$
12
                    3D
 Structure written by MMmdl.
161169  0  0  1  0            999 V2000
  -30.7370  -14.3772   20.6444 C   0  0  0  0  0  0
  -30.4227  -12.2748   19.3943 C   0  0  0  0  0  0
  -29.4860  -12.5034   18.1918 C   0  0  0  0  0  0
  -28.0071  -12.3741   18.6081 C   0  0  0  0  0  0
  -27.6676  -13.1959   19.8795 C   0  0  2  0  0  0
  -28.7053  -12.9207   20.9897 C   0  0  0  0  0  0
  -25.2626  -13.8140   20.5661 C   0  0  0  0  0  0
  -24.1857  -13.0436   20.9150 C   0  0  0  0  0  0
  -24.6385  -11.6895   20.8729 C   0  0  0  0  0  0
  -23.9041  -10.4294   21.0405 C   0  0  0  0  0  0
  -24.3598   -9.4215   21.9183 C   0  0  0  0  0  0
  -23.6284   -8.2245   22.0754 C   0  0  0  0  0  0
  -22.4269   -8.0276   21.3546 C   0  0  0  0  0  0
  -21.9901   -9.0242   20.4640 C   0  0  0  0  0  0
  -22.7222  -10.2126   20.3052 C   0  0  0  0  0  0
  -21.6850   -6.0733   22.5277 C   0  0  0  0  0  0
  -21.4006   -6.5638   23.8208 C   0  0  0  0  0  0
  -21.3653   -5.6793   24.9171 C   0  0  0  0  0  0
  -21.6045   -4.3058   24.7222 C   0  0  0  0  0  0
  -21.8824   -3.8148   23.4341 C   0  0  0  0  0  0
  -21.9197   -4.6965   22.3398 C   0  0  0  0  0  0
  -22.7885  -13.5258   21.1814 C   0  0  0  0  0  0
  -22.1673   -4.2152   21.0976 F   0  0  0  0  0  0
  -21.5623   -3.4535   25.7732 F   0  0  0  0  0  0
  -30.0470  -13.2229   20.4530 N   0  0  0  0  0  0
  -26.3050  -12.9288   20.3369 N   0  0  0  0  0  0
  -25.9309  -11.6457   20.5757 N   0  0  0  0  0  0
  -22.0504  -12.8260   22.0359 N   0  0  0  0  0  0
  -25.4402  -15.1846   20.4063 N   0  0  0  0  0  0
  -31.8058  -14.6215   20.0724 O   0  0  0  0  0  0
  -21.6636   -6.8870   21.4240 O   0  0  0  0  0  0
  -22.3584  -14.5572   20.6668 O   0  0  0  0  0  0
  -24.6102  -31.8701   23.2082 C   0  0  0  0  0  0
  -25.9003  -32.4827   23.8380 C   0  0  1  0  0  0
  -27.2427  -27.4646   20.1064 C   0  0  0  0  0  0
  -25.5841  -33.8620   24.2325 N   0  0  0  0  0  0
  -23.3952  -30.4929   21.5470 C   0  0  2  0  0  0
  -24.8432  -28.9561   20.1134 C   0  0  0  0  0  0
  -22.7377  -29.4705   22.5006 C   0  0  0  0  0  0
  -18.0261  -28.1415   22.8532 C   0  0  0  0  0  0
  -24.1473  -36.7322   23.2650 C   0  0  0  0  0  0
  -25.9182  -30.8486   21.3503 C   0  0  0  0  0  0
  -25.9980  -29.4820   20.7066 C   0  0  0  0  0  0
  -27.1980  -28.7446   20.6964 C   0  0  0  0  0  0
  -26.0734  -26.9429   19.5081 C   0  0  0  0  0  0
  -24.8753  -27.6844   19.5105 C   0  0  0  0  0  0
  -23.5998  -29.8157   20.1630 C   0  0  0  0  0  0
  -25.4088  -36.3120   24.0356 C   0  0  1  0  0  0
  -20.5850  -28.3677   23.1350 C   0  0  2  0  0  0
  -20.6761  -26.9419   22.5439 C   0  0  0  0  0  0
  -19.5722  -26.6421   21.5247 C   0  0  0  0  0  0
  -18.1898  -26.7977   22.1649 C   0  0  0  0  0  0
  -19.1514  -28.8860   23.2942 C   0  0  0  0  0  0
  -18.9454  -30.1482   23.8933 C   0  0  0  0  0  0
  -17.6456  -30.6622   24.0594 C   0  0  0  0  0  0
  -25.9009  -34.9482   23.5142 C   0  0  0  0  0  0
  -16.5343  -29.9145   23.6336 C   0  0  0  0  0  0
  -16.7252  -28.6559   23.0358 C   0  0  0  0  0  0
  -26.4423  -31.6594   25.0697 C   0  0  0  0  0  0
  -25.3695  -31.3675   26.1442 C   0  0  0  0  0  0
  -27.0260  -30.3053   24.6039 C   0  0  0  0  0  0
  -27.6020  -32.4298   25.7451 C   0  0  0  0  0  0
  -27.5565  -37.1816   24.8472 C   0  0  0  0  0  0
  -21.4110  -29.3057   22.3759 N   0  0  0  0  0  0
  -26.4286  -37.3795   23.9411 N   0  0  0  0  0  0
  -24.6598  -31.0842   22.0953 N   0  0  0  0  0  0
  -23.4174  -28.8278   23.3055 O   0  0  0  0  0  0
  -28.4405  -26.7930   20.1110 O   0  0  0  0  0  0
  -26.5611  -34.8937   22.4727 O   0  0  0  0  0  0
  -23.5310  -32.1449   23.7512 O   0  0  0  0  0  0
  -31.2917  -18.5888   21.6644 C   0  0  0  0  0  0
  -31.5934  -17.2076   21.5109 C   0  0  0  0  0  0
  -29.9383  -18.6844   21.8595 C   0  0  0  0  0  0
  -30.3859  -16.5706   21.5994 C   0  0  0  0  0  0
  -29.0120  -19.8001   22.0566 C   0  0  0  0  0  0
  -29.3815  -25.4495   22.6144 C   0  0  0  0  0  0
  -30.9203  -25.6312   20.6502 C   0  0  0  0  0  0
  -28.4281  -25.3747   20.2717 C   0  0  0  0  0  0
  -29.8816  -23.4343   21.1255 C   0  0  0  0  0  0
  -29.6272  -24.9638   21.1695 C   0  0  0  0  0  0
  -29.3591  -20.9023   21.4761 N   0  0  0  0  0  0
  -27.9399  -19.5048   22.8768 N   0  0  0  0  0  0
  -30.1431  -15.2440   21.4793 N   0  0  0  0  0  0
  -27.4407  -22.4010   20.6372 O   0  0  0  0  0  0
  -28.1940  -22.5808   23.0587 O   0  0  0  0  0  0
  -29.3737  -17.4400   21.8529 O   0  0  0  0  0  0
  -28.5115  -22.3254   21.6447 S   0  0  0  0  0  0
  -31.4638  -12.3822   19.0848 H   0  0  0  0  0  0
  -30.3308  -11.2515   19.7612 H   0  0  0  0  0  0
  -29.7107  -11.7874   17.4003 H   0  0  0  0  0  0
  -29.6653  -13.4926   17.7682 H   0  0  0  0  0  0
  -27.8048  -11.3175   18.7875 H   0  0  0  0  0  0
  -27.3574  -12.6692   17.7833 H   0  0  0  0  0  0
  -27.7299  -14.2509   19.6106 H   0  0  0  0  0  0
  -28.6659  -11.8699   21.2799 H   0  0  0  0  0  0
  -28.4558  -13.4709   21.8978 H   0  0  0  0  0  0
  -25.2739   -9.5689   22.4763 H   0  0  0  0  0  0
  -23.9990   -7.4629   22.7478 H   0  0  0  0  0  0
  -21.0831   -8.8746   19.8943 H   0  0  0  0  0  0
  -22.3674  -10.9656   19.6152 H   0  0  0  0  0  0
  -21.1994   -7.6146   23.9708 H   0  0  0  0  0  0
  -21.1470   -6.0521   25.9069 H   0  0  0  0  0  0
  -22.0611   -2.7609   23.2835 H   0  0  0  0  0  0
  -22.4091  -11.9914   22.4756 H   0  0  0  0  0  0
  -21.1114  -13.1298   22.2520 H   0  0  0  0  0  0
  -24.6822  -15.8499   20.5138 H   0  0  0  0  0  0
  -26.3034  -15.6152   20.0977 H   0  0  0  0  0  0
  -26.7095  -32.5546   23.1171 H   0  0  0  0  0  0
  -24.9893  -33.9763   25.0398 H   0  0  0  0  0  0
  -22.6833  -31.3085   21.4062 H   0  0  0  0  0  0
  -23.3726  -35.9665   23.3354 H   0  0  0  0  0  0
  -24.3572  -36.8892   22.2058 H   0  0  0  0  0  0
  -23.7243  -37.6549   23.6628 H   0  0  0  0  0  0
  -26.0144  -31.6097   20.5742 H   0  0  0  0  0  0
  -26.8143  -30.9150   21.9571 H   0  0  0  0  0  0
  -28.0910  -29.1535   21.1478 H   0  0  0  0  0  0
  -26.0880  -25.9739   19.0295 H   0  0  0  0  0  0
  -23.9884  -27.2761   19.0439 H   0  0  0  0  0  0
  -23.6947  -30.5854   19.3965 H   0  0  0  0  0  0
  -22.7264  -29.2256   19.8771 H   0  0  0  0  0  0
  -25.1276  -36.1984   25.0858 H   0  0  0  0  0  0
  -20.9938  -28.3243   24.1468 H   0  0  0  0  0  0
  -20.5686  -26.2286   23.3624 H   0  0  0  0  0  0
  -21.6618  -26.7492   22.1186 H   0  0  0  0  0  0
  -19.6861  -25.6344   21.1252 H   0  0  0  0  0  0
  -19.6655  -27.3263   20.6803 H   0  0  0  0  0  0
  -17.4172  -26.6770   21.4045 H   0  0  0  0  0  0
  -18.0261  -26.0126   22.9038 H   0  0  0  0  0  0
  -19.7925  -30.7310   24.2288 H   0  0  0  0  0  0
  -17.5018  -31.6296   24.5223 H   0  0  0  0  0  0
  -15.5353  -30.3071   23.7653 H   0  0  0  0  0  0
  -15.8651  -28.0909   22.7033 H   0  0  0  0  0  0
  -24.5871  -30.7024   25.7747 H   0  0  0  0  0  0
  -24.8868  -32.2825   26.4889 H   0  0  0  0  0  0
  -25.8045  -30.8821   27.0183 H   0  0  0  0  0  0
  -26.2801  -29.6822   24.1093 H   0  0  0  0  0  0
  -27.4069  -29.7258   25.4451 H   0  0  0  0  0  0
  -27.8600  -30.4406   23.9156 H   0  0  0  0  0  0
  -27.2652  -33.3598   26.2030 H   0  0  0  0  0  0
  -28.3807  -32.6847   25.0254 H   0  0  0  0  0  0
  -28.0696  -31.8415   26.5349 H   0  0  0  0  0  0
  -28.2605  -38.0085   24.7480 H   0  0  0  0  0  0
  -28.1049  -36.2630   24.6352 H   0  0  0  0  0  0
  -27.2297  -37.1511   25.8877 H   0  0  0  0  0  0
  -20.9270  -29.8764   21.6960 H   0  0  0  0  0  0
  -26.0189  -38.2887   24.1379 H   0  0  0  0  0  0
  -31.9783  -19.4219   21.6340 H   0  0  0  0  0  0
  -32.5613  -16.7564   21.3405 H   0  0  0  0  0  0
  -29.3706  -26.5380   22.6751 H   0  0  0  0  0  0
  -30.1546  -25.0946   23.2957 H   0  0  0  0  0  0
  -28.4210  -25.1117   23.0008 H   0  0  0  0  0  0
  -30.8738  -26.7176   20.7232 H   0  0  0  0  0  0
  -31.1088  -25.3824   19.6045 H   0  0  0  0  0  0
  -31.7939  -25.3133   21.2203 H   0  0  0  0  0  0
  -27.4947  -25.0308   20.7209 H   0  0  0  0  0  0
  -28.5032  -24.9136   19.2857 H   0  0  0  0  0  0
  -30.7273  -23.1746   21.7599 H   0  0  0  0  0  0
  -30.1526  -23.1218   20.1166 H   0  0  0  0  0  0
  -27.8007  -18.5861   23.2810 H   0  0  0  0  0  0
  -27.2432  -20.1569   23.2129 H   0  0  0  0  0  0
  -29.2650  -14.9217   21.8553 H   0  0  0  0  0  0
  1 25  1  0  0  0
  1 30  2  0  0  0
  1 83  1  0  0  0
  2  3  1  0  0  0
  2 25  1  0  0  0
  2 88  1  0  0  0
  2 89  1  0  0  0
  3  4  1  0  0  0
  3 90  1  0  0  0
  3 91  1  0  0  0
  4  5  1  0  0  0
  4 92  1  0  0  0
  4 93  1  0  0  0
  5  6  1  0  0  0
  5 26  1  0  0  0
  5 94  1  0  0  0
  6 25  1  0  0  0
  6 95  1  0  0  0
  6 96  1  0  0  0
  7  8  2  0  0  0
  7 26  1  0  0  0
  7 29  1  0  0  0
  8  9  1  0  0  0
  8 22  1  0  0  0
  9 10  1  0  0  0
  9 27  2  0  0  0
 10 11  2  0  0  0
 10 15  1  0  0  0
 11 12  1  0  0  0
 11 97  1  0  0  0
 12 13  2  0  0  0
 12 98  1  0  0  0
 13 14  1  0  0  0
 13 31  1  0  0  0
 14 15  2  0  0  0
 14 99  1  0  0  0
 15100  1  0  0  0
 16 17  2  0  0  0
 16 21  1  0  0  0
 16 31  1  0  0  0
 17 18  1  0  0  0
 17101  1  0  0  0
 18 19  2  0  0  0
 18102  1  0  0  0
 19 20  1  0  0  0
 19 24  1  0  0  0
 20 21  2  0  0  0
 20103  1  0  0  0
 21 23  1  0  0  0
 22 28  1  0  0  0
 22 32  2  0  0  0
 26 27  1  0  0  0
 28104  1  0  0  0
 28105  1  0  0  0
 29106  1  0  0  0
 29107  1  0  0  0
 33 34  1  0  0  0
 33 66  1  0  0  0
 33 70  2  0  0  0
 34 36  1  0  0  0
 34 59  1  0  0  0
 34108  1  0  0  0
 35 44  2  0  0  0
 35 45  1  0  0  0
 35 68  1  0  0  0
 36 56  1  0  0  0
 36109  1  0  0  0
 37 39  1  0  0  0
 37 47  1  0  0  0
 37 66  1  0  0  0
 37110  1  0  0  0
 38 43  2  0  0  0
 38 46  1  0  0  0
 38 47  1  0  0  0
 39 64  1  0  0  0
 39 67  2  0  0  0
 40 52  1  0  0  0
 40 53  2  0  0  0
 40 58  1  0  0  0
 41111  1  0  0  0
 41112  1  0  0  0
 41113  1  0  0  0
 41 48  1  0  0  0
 42 43  1  0  0  0
 42 66  1  0  0  0
 42114  1  0  0  0
 42115  1  0  0  0
 43 44  1  0  0  0
 44116  1  0  0  0
 45 46  2  0  0  0
 45117  1  0  0  0
 46118  1  0  0  0
 47119  1  0  0  0
 47120  1  0  0  0
 48 56  1  0  0  0
 48 65  1  0  0  0
 48121  1  0  0  0
 49 50  1  0  0  0
 49 53  1  0  0  0
 49 64  1  0  0  0
 49122  1  0  0  0
 50 51  1  0  0  0
 50123  1  0  0  0
 50124  1  0  0  0
 51 52  1  0  0  0
 51125  1  0  0  0
 51126  1  0  0  0
 52127  1  0  0  0
 52128  1  0  0  0
 53 54  1  0  0  0
 54 55  2  0  0  0
 54129  1  0  0  0
 55 57  1  0  0  0
 55130  1  0  0  0
 56 69  2  0  0  0
 57 58  2  0  0  0
 57131  1  0  0  0
 58132  1  0  0  0
 59 60  1  0  0  0
 59 61  1  0  0  0
 59 62  1  0  0  0
 60133  1  0  0  0
 60134  1  0  0  0
 60135  1  0  0  0
 61136  1  0  0  0
 61137  1  0  0  0
 61138  1  0  0  0
 62139  1  0  0  0
 62140  1  0  0  0
 62141  1  0  0  0
 63 65  1  0  0  0
 63142  1  0  0  0
 63143  1  0  0  0
 63144  1  0  0  0
 64145  1  0  0  0
 65146  1  0  0  0
 68 78  1  0  0  0
 71 72  1  0  0  0
 71 73  2  0  0  0
 71147  1  0  0  0
 72 74  2  0  0  0
 72148  1  0  0  0
 73 75  1  0  0  0
 73 86  1  0  0  0
 74 83  1  0  0  0
 74 86  1  0  0  0
 75 81  2  0  0  0
 75 82  1  0  0  0
 76149  1  0  0  0
 76150  1  0  0  0
 76151  1  0  0  0
 76 80  1  0  0  0
 77 80  1  0  0  0
 77152  1  0  0  0
 77153  1  0  0  0
 77154  1  0  0  0
 78 80  1  0  0  0
 78155  1  0  0  0
 78156  1  0  0  0
 79 80  1  0  0  0
 79157  1  0  0  0
 79158  1  0  0  0
 79 87  1  0  0  0
 81 87  1  0  0  0
 82159  1  0  0  0
 82160  1  0  0  0
 83161  1  0  0  0
 84 87  2  0  0  0
 85 87  2  0  0  0
M  ISO  4   1 100  68 101  78 101  83 100
M  END
> <chiral flag>
0

> <version>
0

> <s_m_source_file>
/data/baiqing/PycharmProjects/Reinvent-master-3.2/result/LINK_invent/BTK/process_docking_weight1_custom_product_contain_oxygen_bond_distance_aromatic_linkinvent_7_9_3/rearranged_h_0148.sdf

> <i_m_source_file_index>
13

> <r_mmod_Potential_Energy-OPLS-2005>
-249.33464050293

> <r_mmod_Stretch_Energy-OPLS-2005>
31.7093276977539

> <r_mmod_Bend_Energy-OPLS-2005>
124.223930358887

> <r_mmod_Torsional_Energy-OPLS-2005>
213.260635375977

> <r_mmod_Improper_Torsional_Energy-OPLS-2005>
2.9779965877533

> <r_mmod_Van_der_Waal_Energy-OPLS-2005>
135.426498413086

> <r_mmod_Electrostatic_Energy-OPLS-2005>
-523.449523925781

> <r_mmod_Solvation_Energy-OPLS-2005>
-241.560195922852

> <b_mmod_Minimization_Converged-OPLS-2005>
0

> <r_mmod_RMS_Derivative-OPLS-2005>
2.28822994232178

$$$$
13
                    3D
 Structure written by MMmdl.
163172  0  0  1  0            999 V2000
  -30.7038  -14.4987   20.5703 C   0  0  0  0  0  0
  -30.4228  -12.3294   19.4179 C   0  0  0  0  0  0
  -29.4892  -12.5200   18.2042 C   0  0  0  0  0  0
  -28.0123  -12.3734   18.6210 C   0  0  0  0  0  0
  -27.6603  -13.2139   19.8782 C   0  0  2  0  0  0
  -28.7080  -13.0074   20.9957 C   0  0  0  0  0  0
  -25.2560  -13.8182   20.5710 C   0  0  0  0  0  0
  -24.1826  -13.0451   20.9199 C   0  0  0  0  0  0
  -24.6393  -11.6918   20.8768 C   0  0  0  0  0  0
  -23.9073  -10.4301   21.0434 C   0  0  0  0  0  0
  -24.3626   -9.4207   21.9208 C   0  0  0  0  0  0
  -23.6291   -8.2248   22.0780 C   0  0  0  0  0  0
  -22.4272   -8.0290   21.3568 C   0  0  0  0  0  0
  -21.9929   -9.0262   20.4664 C   0  0  0  0  0  0
  -22.7255  -10.2138   20.3065 C   0  0  0  0  0  0
  -21.6841   -6.0742   22.5288 C   0  0  0  0  0  0
  -21.4012   -6.5644   23.8221 C   0  0  0  0  0  0
  -21.3660   -5.6792   24.9184 C   0  0  0  0  0  0
  -21.6040   -4.3058   24.7226 C   0  0  0  0  0  0
  -21.8816   -3.8148   23.4351 C   0  0  0  0  0  0
  -21.9195   -4.6974   22.3412 C   0  0  0  0  0  0
  -22.7841  -13.5244   21.1841 C   0  0  0  0  0  0
  -22.1664   -4.2158   21.0993 F   0  0  0  0  0  0
  -21.5629   -3.4545   25.7740 F   0  0  0  0  0  0
  -30.0344  -13.3194   20.4363 N   0  0  0  0  0  0
  -26.3026  -12.9369   20.3439 N   0  0  0  0  0  0
  -25.9330  -11.6518   20.5831 N   0  0  0  0  0  0
  -22.0453  -12.8259   22.0384 N   0  0  0  0  0  0
  -25.4205  -15.1908   20.4050 N   0  0  0  0  0  0
  -31.8364  -14.6763   20.1106 O   0  0  0  0  0  0
  -21.6633   -6.8895   21.4254 O   0  0  0  0  0  0
  -22.3533  -14.5537   20.6646 O   0  0  0  0  0  0
  -24.6187  -31.8650   23.2106 C   0  0  0  0  0  0
  -25.9071  -32.4804   23.8396 C   0  0  1  0  0  0
  -27.2420  -27.3980   20.0750 C   0  0  0  0  0  0
  -25.5917  -33.8604   24.2320 N   0  0  0  0  0  0
  -23.4085  -30.4893   21.5535 C   0  0  2  0  0  0
  -24.8542  -28.9553   20.1154 C   0  0  0  0  0  0
  -22.7428  -29.4636   22.4996 C   0  0  0  0  0  0
  -18.0266  -28.1383   22.8497 C   0  0  0  0  0  0
  -24.1490  -36.7310   23.2638 C   0  0  0  0  0  0
  -25.9439  -30.8121   21.3757 C   0  0  0  0  0  0
  -26.0177  -29.4450   20.7201 C   0  0  0  0  0  0
  -27.2060  -28.6698   20.7079 C   0  0  0  0  0  0
  -26.0498  -26.9436   19.4561 C   0  0  0  0  0  0
  -24.8664  -27.7027   19.4856 C   0  0  0  0  0  0
  -23.6182  -29.8256   20.1677 C   0  0  0  0  0  0
  -25.4111  -36.3099   24.0332 C   0  0  1  0  0  0
  -20.5857  -28.3673   23.1317 C   0  0  2  0  0  0
  -20.6762  -26.9406   22.5417 C   0  0  0  0  0  0
  -19.5734  -26.6385   21.5223 C   0  0  0  0  0  0
  -18.1911  -26.7935   22.1620 C   0  0  0  0  0  0
  -19.1515  -28.8847   23.2899 C   0  0  0  0  0  0
  -18.9442  -30.1460   23.8898 C   0  0  0  0  0  0
  -17.6443  -30.6593   24.0560 C   0  0  0  0  0  0
  -25.9046  -34.9463   23.5123 C   0  0  0  0  0  0
  -16.5333  -29.9088   23.6336 C   0  0  0  0  0  0
  -16.7252  -28.6505   23.0358 C   0  0  0  0  0  0
  -26.4478  -31.6590   25.0739 C   0  0  0  0  0  0
  -25.3737  -31.3706   26.1484 C   0  0  0  0  0  0
  -27.0308  -30.3021   24.6157 C   0  0  0  0  0  0
  -27.6053  -32.4304   25.7503 C   0  0  0  0  0  0
  -27.5588  -37.1801   24.8452 C   0  0  0  0  0  0
  -21.4150  -29.3039   22.3736 N   0  0  0  0  0  0
  -26.4289  -37.3795   23.9415 N   0  0  0  0  0  0
  -24.6757  -31.0702   22.1042 N   0  0  0  0  0  0
  -23.4181  -28.8164   23.3039 O   0  0  0  0  0  0
  -28.4142  -26.6426   20.1002 O   0  0  0  0  0  0
  -26.5606  -34.8917   22.4684 O   0  0  0  0  0  0
  -23.5367  -32.1423   23.7470 O   0  0  0  0  0  0
  -31.5922  -18.4416   22.8063 C   0  0  0  0  0  0
  -31.5023  -19.4448   21.8205 C   0  0  0  0  0  0
  -31.0864  -17.1510   22.5604 C   0  0  0  0  0  0
  -30.3373  -17.8832   20.3563 C   0  0  0  0  0  0
  -30.8625  -19.1910   20.5871 C   0  0  0  0  0  0
  -30.4810  -16.8497   21.3229 C   0  0  0  0  0  0
  -30.8884  -20.2123   19.5052 C   0  0  0  0  0  0
  -30.0227  -23.6273   18.3401 C   0  0  0  0  0  0
  -29.2995  -23.4076   20.7109 C   0  0  0  0  0  0
  -31.0895  -22.5419   18.5779 C   0  0  0  0  0  0
  -30.3239  -22.2522   20.9118 C   0  0  0  0  0  0
  -29.6633  -24.4355   19.6058 C   0  0  0  0  0  0
  -28.5036  -25.4427   19.2896 C   0  0  0  0  0  0
  -30.6914  -21.5690   19.6388 N   0  0  0  0  0  0
  -29.9966  -15.5230   21.0926 N   0  0  0  0  0  0
  -31.1727  -19.7420   18.2916 N   0  3  0  0  0  0
  -30.7454  -25.1286   19.9691 F   0  0  0  0  0  0
  -31.4649  -12.4351   19.1096 H   0  0  0  0  0  0
  -30.3310  -11.3192   19.8201 H   0  0  0  0  0  0
  -29.7309  -11.7996   17.4216 H   0  0  0  0  0  0
  -29.6475  -13.5073   17.7673 H   0  0  0  0  0  0
  -27.8251  -11.3162   18.8155 H   0  0  0  0  0  0
  -27.3586  -12.6498   17.7928 H   0  0  0  0  0  0
  -27.6997  -14.2608   19.5763 H   0  0  0  0  0  0
  -28.6935  -11.9731   21.3421 H   0  0  0  0  0  0
  -28.4737  -13.6116   21.8741 H   0  0  0  0  0  0
  -25.2783   -9.5676   22.4782 H   0  0  0  0  0  0
  -23.9991   -7.4638   22.7506 H   0  0  0  0  0  0
  -21.0875   -8.8788   19.8960 H   0  0  0  0  0  0
  -22.3735  -10.9684   19.6166 H   0  0  0  0  0  0
  -21.1989   -7.6144   23.9734 H   0  0  0  0  0  0
  -21.1489   -6.0526   25.9095 H   0  0  0  0  0  0
  -22.0590   -2.7611   23.2853 H   0  0  0  0  0  0
  -22.4027  -11.9909   22.4785 H   0  0  0  0  0  0
  -21.1068  -13.1319   22.2551 H   0  0  0  0  0  0
  -24.6388  -15.8338   20.4742 H   0  0  0  0  0  0
  -26.2592  -15.6303   20.0469 H   0  0  0  0  0  0
  -26.7142  -32.5499   23.1152 H   0  0  0  0  0  0
  -25.0071  -33.9766   25.0469 H   0  0  0  0  0  0
  -22.6990  -31.3084   21.4156 H   0  0  0  0  0  0
  -23.3755  -35.9635   23.3267 H   0  0  0  0  0  0
  -24.3592  -36.8962   22.2056 H   0  0  0  0  0  0
  -23.7231  -37.6500   23.6675 H   0  0  0  0  0  0
  -26.0668  -31.5767   20.6070 H   0  0  0  0  0  0
  -26.8284  -30.8609   21.9986 H   0  0  0  0  0  0
  -28.0996  -29.0434   21.1888 H   0  0  0  0  0  0
  -25.9824  -26.0023   18.9364 H   0  0  0  0  0  0
  -23.9737  -27.3192   19.0094 H   0  0  0  0  0  0
  -23.7280  -30.6028   19.4105 H   0  0  0  0  0  0
  -22.7406  -29.2480   19.8707 H   0  0  0  0  0  0
  -25.1283  -36.1956   25.0826 H   0  0  0  0  0  0
  -20.9938  -28.3233   24.1442 H   0  0  0  0  0  0
  -20.5679  -26.2272   23.3605 H   0  0  0  0  0  0
  -21.6628  -26.7458   22.1200 H   0  0  0  0  0  0
  -19.6895  -25.6298   21.1247 H   0  0  0  0  0  0
  -19.6681  -27.3200   20.6756 H   0  0  0  0  0  0
  -17.4187  -26.6699   21.4010 H   0  0  0  0  0  0
  -18.0285  -26.0068   22.9004 H   0  0  0  0  0  0
  -19.7918  -30.7286   24.2252 H   0  0  0  0  0  0
  -17.4997  -31.6279   24.5152 H   0  0  0  0  0  0
  -15.5335  -30.2990   23.7672 H   0  0  0  0  0  0
  -15.8648  -28.0835   22.7070 H   0  0  0  0  0  0
  -24.5888  -30.7086   25.7809 H   0  0  0  0  0  0
  -24.8963  -32.2872   26.4964 H   0  0  0  0  0  0
  -25.8083  -30.8833   27.0225 H   0  0  0  0  0  0
  -26.2866  -29.6781   24.1197 H   0  0  0  0  0  0
  -27.4032  -29.7258   25.4638 H   0  0  0  0  0  0
  -27.8723  -30.4307   23.9346 H   0  0  0  0  0  0
  -27.2689  -33.3617   26.2068 H   0  0  0  0  0  0
  -28.3877  -32.6837   25.0337 H   0  0  0  0  0  0
  -28.0701  -31.8428   26.5431 H   0  0  0  0  0  0
  -28.2562  -38.0140   24.7563 H   0  0  0  0  0  0
  -28.1127  -36.2677   24.6196 H   0  0  0  0  0  0
  -27.2312  -37.1347   25.8852 H   0  0  0  0  0  0
  -20.9308  -29.8795   21.6985 H   0  0  0  0  0  0
  -26.0168  -38.2859   24.1452 H   0  0  0  0  0  0
  -32.0789  -18.6549   23.7477 H   0  0  0  0  0  0
  -31.9632  -20.4024   22.0123 H   0  0  0  0  0  0
  -31.1835  -16.3899   23.3206 H   0  0  0  0  0  0
  -29.8620  -17.6515   19.4123 H   0  0  0  0  0  0
  -29.1285  -23.1567   17.9290 H   0  0  0  0  0  0
  -30.3855  -24.3064   17.5677 H   0  0  0  0  0  0
  -29.1742  -23.9405   21.6534 H   0  0  0  0  0  0
  -28.3295  -22.9605   20.4917 H   0  0  0  0  0  0
  -32.0284  -23.0107   18.8799 H   0  0  0  0  0  0
  -31.3030  -22.0673   17.6201 H   0  0  0  0  0  0
  -29.8988  -21.5455   21.6253 H   0  0  0  0  0  0
  -31.2327  -22.6466   21.3697 H   0  0  0  0  0  0
  -27.5943  -24.8488   19.3391 H   0  0  0  0  0  0
  -28.5915  -25.7828   18.2557 H   0  0  0  0  0  0
  -29.0643  -15.3103   21.4125 H   0  0  0  0  0  0
  -31.3895  -18.7626   18.1881 H   0  0  0  0  0  0
  -31.1463  -20.3206   17.4705 H   0  0  0  0  0  0
  1 25  1  0  0  0
  1 30  2  0  0  0
  1 85  1  0  0  0
  2  3  1  0  0  0
  2 25  1  0  0  0
  2 88  1  0  0  0
  2 89  1  0  0  0
  3  4  1  0  0  0
  3 90  1  0  0  0
  3 91  1  0  0  0
  4  5  1  0  0  0
  4 92  1  0  0  0
  4 93  1  0  0  0
  5  6  1  0  0  0
  5 26  1  0  0  0
  5 94  1  0  0  0
  6 25  1  0  0  0
  6 95  1  0  0  0
  6 96  1  0  0  0
  7  8  2  0  0  0
  7 26  1  0  0  0
  7 29  1  0  0  0
  8  9  1  0  0  0
  8 22  1  0  0  0
  9 10  1  0  0  0
  9 27  2  0  0  0
 10 11  2  0  0  0
 10 15  1  0  0  0
 11 12  1  0  0  0
 11 97  1  0  0  0
 12 13  2  0  0  0
 12 98  1  0  0  0
 13 14  1  0  0  0
 13 31  1  0  0  0
 14 15  2  0  0  0
 14 99  1  0  0  0
 15100  1  0  0  0
 16 17  2  0  0  0
 16 21  1  0  0  0
 16 31  1  0  0  0
 17 18  1  0  0  0
 17101  1  0  0  0
 18 19  2  0  0  0
 18102  1  0  0  0
 19 20  1  0  0  0
 19 24  1  0  0  0
 20 21  2  0  0  0
 20103  1  0  0  0
 21 23  1  0  0  0
 22 28  1  0  0  0
 22 32  2  0  0  0
 26 27  1  0  0  0
 28104  1  0  0  0
 28105  1  0  0  0
 29106  1  0  0  0
 29107  1  0  0  0
 33 34  1  0  0  0
 33 66  1  0  0  0
 33 70  2  0  0  0
 34 36  1  0  0  0
 34 59  1  0  0  0
 34108  1  0  0  0
 35 44  2  0  0  0
 35 45  1  0  0  0
 35 68  1  0  0  0
 36 56  1  0  0  0
 36109  1  0  0  0
 37 39  1  0  0  0
 37 47  1  0  0  0
 37 66  1  0  0  0
 37110  1  0  0  0
 38 43  2  0  0  0
 38 46  1  0  0  0
 38 47  1  0  0  0
 39 64  1  0  0  0
 39 67  2  0  0  0
 40 52  1  0  0  0
 40 53  2  0  0  0
 40 58  1  0  0  0
 41111  1  0  0  0
 41112  1  0  0  0
 41113  1  0  0  0
 41 48  1  0  0  0
 42 43  1  0  0  0
 42 66  1  0  0  0
 42114  1  0  0  0
 42115  1  0  0  0
 43 44  1  0  0  0
 44116  1  0  0  0
 45 46  2  0  0  0
 45117  1  0  0  0
 46118  1  0  0  0
 47119  1  0  0  0
 47120  1  0  0  0
 48 56  1  0  0  0
 48 65  1  0  0  0
 48121  1  0  0  0
 49 50  1  0  0  0
 49 53  1  0  0  0
 49 64  1  0  0  0
 49122  1  0  0  0
 50 51  1  0  0  0
 50123  1  0  0  0
 50124  1  0  0  0
 51 52  1  0  0  0
 51125  1  0  0  0
 51126  1  0  0  0
 52127  1  0  0  0
 52128  1  0  0  0
 53 54  1  0  0  0
 54 55  2  0  0  0
 54129  1  0  0  0
 55 57  1  0  0  0
 55130  1  0  0  0
 56 69  2  0  0  0
 57 58  2  0  0  0
 57131  1  0  0  0
 58132  1  0  0  0
 59 60  1  0  0  0
 59 61  1  0  0  0
 59 62  1  0  0  0
 60133  1  0  0  0
 60134  1  0  0  0
 60135  1  0  0  0
 61136  1  0  0  0
 61137  1  0  0  0
 61138  1  0  0  0
 62139  1  0  0  0
 62140  1  0  0  0
 62141  1  0  0  0
 63 65  1  0  0  0
 63142  1  0  0  0
 63143  1  0  0  0
 63144  1  0  0  0
 64145  1  0  0  0
 65146  1  0  0  0
 68 83  1  0  0  0
 71 72  2  0  0  0
 71 73  1  0  0  0
 71147  1  0  0  0
 72 75  1  0  0  0
 72148  1  0  0  0
 73 76  2  0  0  0
 73149  1  0  0  0
 74 75  2  0  0  0
 74 76  1  0  0  0
 74150  1  0  0  0
 75 77  1  0  0  0
 76 85  1  0  0  0
 77 84  1  0  0  0
 77 86  2  0  0  0
 78 80  1  0  0  0
 78 82  1  0  0  0
 78151  1  0  0  0
 78152  1  0  0  0
 79 81  1  0  0  0
 79 82  1  0  0  0
 79153  1  0  0  0
 79154  1  0  0  0
 80 84  1  0  0  0
 80155  1  0  0  0
 80156  1  0  0  0
 81 84  1  0  0  0
 81157  1  0  0  0
 81158  1  0  0  0
 82 83  1  0  0  0
 82 87  1  0  0  0
 83159  1  0  0  0
 83160  1  0  0  0
 85161  1  0  0  0
 86162  1  0  0  0
 86163  1  0  0  0
M  CHG  1  86   1
M  ISO  4   1 100  68 101  83 101  85 100
M  END
> <chiral flag>
0

> <version>
0

> <s_m_source_file>
/data/baiqing/PycharmProjects/Reinvent-master-3.2/result/LINK_invent/BTK/process_docking_weight1_custom_product_contain_oxygen_bond_distance_aromatic_linkinvent_7_9_3/rearranged_h_0148.sdf

> <i_m_source_file_index>
14

> <r_mmod_Potential_Energy-OPLS-2005>
-172.699920654297

> <r_mmod_Stretch_Energy-OPLS-2005>
50.6791305541992

> <r_mmod_Bend_Energy-OPLS-2005>
118.441436767578

> <r_mmod_Torsional_Energy-OPLS-2005>
277.714050292969

> <r_mmod_Improper_Torsional_Energy-OPLS-2005>
4.85115242004395

> <r_mmod_Van_der_Waal_Energy-OPLS-2005>
170.316604614258

> <r_mmod_Electrostatic_Energy-OPLS-2005>
-407.072357177734

> <r_mmod_Solvation_Energy-OPLS-2005>
-405.100830078125

> <b_mmod_Minimization_Converged-OPLS-2005>
0

> <r_mmod_RMS_Derivative-OPLS-2005>
2.11598134040833

$$$$
14
                    3D
 Structure written by MMmdl.
160169  0  0  1  0            999 V2000
  -30.7089  -14.6406   20.3139 C   0  0  0  0  0  0
  -30.4126  -12.3531   19.4698 C   0  0  0  0  0  0
  -29.4957  -12.3723   18.2315 C   0  0  0  0  0  0
  -28.0102  -12.2813   18.6487 C   0  0  0  0  0  0
  -27.6218  -13.1915   19.8491 C   0  0  2  0  0  0
  -28.6937  -13.2096   20.9580 C   0  0  0  0  0  0
  -25.2488  -13.8064   20.5852 C   0  0  0  0  0  0
  -24.1732  -13.0374   20.9286 C   0  0  0  0  0  0
  -24.6284  -11.6837   20.8850 C   0  0  0  0  0  0
  -23.8969  -10.4252   21.0475 C   0  0  0  0  0  0
  -24.3547   -9.4177   21.9241 C   0  0  0  0  0  0
  -23.6244   -8.2203   22.0778 C   0  0  0  0  0  0
  -22.4240   -8.0244   21.3551 C   0  0  0  0  0  0
  -21.9866   -9.0215   20.4666 C   0  0  0  0  0  0
  -22.7167  -10.2106   20.3095 C   0  0  0  0  0  0
  -21.6831   -6.0722   22.5284 C   0  0  0  0  0  0
  -21.4002   -6.5633   23.8215 C   0  0  0  0  0  0
  -21.3659   -5.6789   24.9179 C   0  0  0  0  0  0
  -21.6037   -4.3050   24.7239 C   0  0  0  0  0  0
  -21.8814   -3.8144   23.4356 C   0  0  0  0  0  0
  -21.9186   -4.6951   22.3414 C   0  0  0  0  0  0
  -22.7761  -13.5219   21.1877 C   0  0  0  0  0  0
  -22.1657   -4.2143   21.0991 F   0  0  0  0  0  0
  -21.5629   -3.4538   25.7759 F   0  0  0  0  0  0
  -30.0018  -13.4673   20.3430 N   0  0  0  0  0  0
  -26.2861  -12.9163   20.3496 N   0  0  0  0  0  0
  -25.9210  -11.6361   20.5950 N   0  0  0  0  0  0
  -22.0357  -12.8262   22.0418 N   0  0  0  0  0  0
  -25.4189  -15.1804   20.4291 N   0  0  0  0  0  0
  -31.9382  -14.5910   20.3283 O   0  0  0  0  0  0
  -21.6607   -6.8845   21.4242 O   0  0  0  0  0  0
  -22.3498  -14.5532   20.6687 O   0  0  0  0  0  0
  -24.6183  -31.8624   23.2061 C   0  0  0  0  0  0
  -25.9064  -32.4786   23.8363 C   0  0  1  0  0  0
  -27.2433  -27.3927   20.1119 C   0  0  0  0  0  0
  -25.5918  -33.8589   24.2304 N   0  0  0  0  0  0
  -23.4070  -30.4840   21.5465 C   0  0  2  0  0  0
  -24.8553  -28.9407   20.1136 C   0  0  0  0  0  0
  -22.7413  -29.4636   22.4980 C   0  0  0  0  0  0
  -18.0270  -28.1370   22.8499 C   0  0  0  0  0  0
  -24.1487  -36.7296   23.2639 C   0  0  0  0  0  0
  -25.9370  -30.8176   21.3614 C   0  0  0  0  0  0
  -26.0137  -29.4469   20.7130 C   0  0  0  0  0  0
  -27.2042  -28.6802   20.7089 C   0  0  0  0  0  0
  -26.0609  -26.9067   19.5065 C   0  0  0  0  0  0
  -24.8763  -27.6719   19.5069 C   0  0  0  0  0  0
  -23.6168  -29.8095   20.1627 C   0  0  0  0  0  0
  -25.4102  -36.3081   24.0340 C   0  0  1  0  0  0
  -20.5861  -28.3663   23.1311 C   0  0  2  0  0  0
  -20.6754  -26.9393   22.5417 C   0  0  0  0  0  0
  -19.5733  -26.6376   21.5215 C   0  0  0  0  0  0
  -18.1914  -26.7920   22.1630 C   0  0  0  0  0  0
  -19.1515  -28.8838   23.2902 C   0  0  0  0  0  0
  -18.9450  -30.1453   23.8906 C   0  0  0  0  0  0
  -17.6446  -30.6585   24.0571 C   0  0  0  0  0  0
  -25.9042  -34.9456   23.5117 C   0  0  0  0  0  0
  -16.5338  -29.9081   23.6335 C   0  0  0  0  0  0
  -16.7256  -28.6495   23.0361 C   0  0  0  0  0  0
  -26.4486  -31.6580   25.0703 C   0  0  0  0  0  0
  -25.3766  -31.3675   26.1467 C   0  0  0  0  0  0
  -27.0320  -30.3024   24.6085 C   0  0  0  0  0  0
  -27.6061  -32.4303   25.7462 C   0  0  0  0  0  0
  -27.5584  -37.1782   24.8454 C   0  0  0  0  0  0
  -21.4142  -29.3031   22.3720 N   0  0  0  0  0  0
  -26.4267  -37.3784   23.9435 N   0  0  0  0  0  0
  -24.6724  -31.0702   22.0964 N   0  0  0  0  0  0
  -23.4161  -28.8189   23.3050 O   0  0  0  0  0  0
  -28.4309  -26.6747   20.1691 O   0  0  0  0  0  0
  -26.5601  -34.8916   22.4677 O   0  0  0  0  0  0
  -23.5371  -32.1393   23.7437 O   0  0  0  0  0  0
  -30.0687  -18.5297   20.5882 C   0  0  0  0  0  0
  -29.3561  -18.6496   22.7805 C   0  0  0  0  0  0
  -29.7055  -19.3882   21.6764 C   0  0  0  0  0  0
  -29.9497  -17.1671   20.8292 C   0  0  0  0  0  0
  -28.5114  -24.1813   20.5795 C   0  0  0  0  0  0
  -29.2218  -21.6032   20.6103 C   0  0  0  0  0  0
  -29.7929  -16.9025   17.7966 C   0  0  0  0  0  0
  -29.0049  -15.9962   18.7324 C   0  0  0  0  0  0
  -31.0293  -16.4843   18.5887 C   0  0  0  0  0  0
  -30.1323  -16.0436   19.7952 C   0  0  0  0  0  0
  -29.6161  -23.0844   20.5048 C   0  0  0  0  0  0
  -28.5918  -25.3626   19.5667 C   0  0  0  0  0  0
  -28.3896  -21.0688   19.6911 N   0  0  0  0  0  0
  -29.7759  -20.8156   21.5837 N   0  3  0  0  0  0
  -27.6051  -24.1250   21.4198 O   0  0  0  0  0  0
  -29.3934  -16.9205   22.4664 S   0  0  0  0  0  0
  -31.4569  -12.4237   19.1610 H   0  0  0  0  0  0
  -30.3194  -11.4055   20.0032 H   0  0  0  0  0  0
  -29.7398  -11.5246   17.5897 H   0  0  0  0  0  0
  -29.6930  -13.2477   17.6181 H   0  0  0  0  0  0
  -27.8280  -11.2399   18.9182 H   0  0  0  0  0  0
  -27.3629  -12.4858   17.7956 H   0  0  0  0  0  0
  -27.5304  -14.1880   19.4615 H   0  0  0  0  0  0
  -28.7131  -12.2619   21.4969 H   0  0  0  0  0  0
  -28.4634  -13.9810   21.6940 H   0  0  0  0  0  0
  -25.2684   -9.5663   22.4826 H   0  0  0  0  0  0
  -23.9965   -7.4590   22.7480 H   0  0  0  0  0  0
  -21.0806   -8.8699   19.8967 H   0  0  0  0  0  0
  -22.3617  -10.9638   19.6203 H   0  0  0  0  0  0
  -21.1986   -7.6136   23.9714 H   0  0  0  0  0  0
  -21.1482   -6.0528   25.9081 H   0  0  0  0  0  0
  -22.0595   -2.7608   23.2859 H   0  0  0  0  0  0
  -22.3944  -11.9945   22.4870 H   0  0  0  0  0  0
  -21.0970  -13.1319   22.2572 H   0  0  0  0  0  0
  -24.6518  -15.8323   20.5533 H   0  0  0  0  0  0
  -26.2805  -15.6289   20.1471 H   0  0  0  0  0  0
  -26.7134  -32.5478   23.1121 H   0  0  0  0  0  0
  -25.0114  -33.9740   25.0480 H   0  0  0  0  0  0
  -22.6986  -31.3023   21.4028 H   0  0  0  0  0  0
  -23.3750  -35.9625   23.3262 H   0  0  0  0  0  0
  -24.3603  -36.8942   22.2062 H   0  0  0  0  0  0
  -23.7224  -37.6484   23.6675 H   0  0  0  0  0  0
  -26.0495  -31.5782   20.5876 H   0  0  0  0  0  0
  -26.8253  -30.8752   21.9788 H   0  0  0  0  0  0
  -28.0962  -29.0690   21.1797 H   0  0  0  0  0  0
  -26.0217  -25.9322   19.0443 H   0  0  0  0  0  0
  -23.9844  -27.2706   19.0456 H   0  0  0  0  0  0
  -23.7231  -30.5816   19.3999 H   0  0  0  0  0  0
  -22.7406  -29.2276   19.8692 H   0  0  0  0  0  0
  -25.1267  -36.1927   25.0826 H   0  0  0  0  0  0
  -20.9957  -28.3226   24.1431 H   0  0  0  0  0  0
  -20.5657  -26.2270   23.3608 H   0  0  0  0  0  0
  -21.6624  -26.7439   22.1207 H   0  0  0  0  0  0
  -19.6891  -25.6289   21.1241 H   0  0  0  0  0  0
  -19.6671  -27.3197   20.6755 H   0  0  0  0  0  0
  -17.4184  -26.6690   21.4029 H   0  0  0  0  0  0
  -18.0311  -26.0046   22.9008 H   0  0  0  0  0  0
  -19.7919  -30.7280   24.2265 H   0  0  0  0  0  0
  -17.4996  -31.6270   24.5165 H   0  0  0  0  0  0
  -15.5339  -30.2993   23.7658 H   0  0  0  0  0  0
  -15.8650  -28.0825   22.7076 H   0  0  0  0  0  0
  -24.5945  -30.7006   25.7818 H   0  0  0  0  0  0
  -24.8963  -32.2824   26.4948 H   0  0  0  0  0  0
  -25.8149  -30.8835   27.0206 H   0  0  0  0  0  0
  -26.2855  -29.6762   24.1188 H   0  0  0  0  0  0
  -27.4139  -29.7278   25.4534 H   0  0  0  0  0  0
  -27.8664  -30.4331   23.9191 H   0  0  0  0  0  0
  -27.2685  -33.3607   26.2040 H   0  0  0  0  0  0
  -28.3875  -32.6852   25.0291 H   0  0  0  0  0  0
  -28.0723  -31.8425   26.5380 H   0  0  0  0  0  0
  -28.2537  -38.0147   24.7599 H   0  0  0  0  0  0
  -28.1139  -36.2683   24.6133 H   0  0  0  0  0  0
  -27.2329  -37.1250   25.8860 H   0  0  0  0  0  0
  -20.9301  -29.8752   21.6939 H   0  0  0  0  0  0
  -26.0139  -38.2836   24.1504 H   0  0  0  0  0  0
  -30.3949  -18.9638   19.6550 H   0  0  0  0  0  0
  -29.0568  -19.0068   23.7586 H   0  0  0  0  0  0
  -29.5256  -17.9533   17.8966 H   0  0  0  0  0  0
  -29.7860  -16.5885   16.7524 H   0  0  0  0  0  0
  -28.8742  -15.0511   18.2260 H   0  0  0  0  0  0
  -28.0517  -16.4192   19.0528 H   0  0  0  0  0  0
  -31.7347  -17.2902   18.7912 H   0  0  0  0  0  0
  -31.5456  -15.6651   18.0827 H   0  0  0  0  0  0
  -30.3380  -23.3063   21.2900 H   0  0  0  0  0  0
  -30.1600  -23.2163   19.5703 H   0  0  0  0  0  0
  -27.9073  -25.1946   18.7378 H   0  0  0  0  0  0
  -29.5878  -25.3483   19.1239 H   0  0  0  0  0  0
  -28.0115  -21.6130   18.9273 H   0  0  0  0  0  0
  -28.0617  -20.1162   19.7642 H   0  0  0  0  0  0
  -30.0953  -21.2511   22.4406 H   0  0  0  0  0  0
  1 25  1  0  0  0
  1 30  2  0  0  0
  1 80  1  0  0  0
  2  3  1  0  0  0
  2 25  1  0  0  0
  2 87  1  0  0  0
  2 88  1  0  0  0
  3  4  1  0  0  0
  3 89  1  0  0  0
  3 90  1  0  0  0
  4  5  1  0  0  0
  4 91  1  0  0  0
  4 92  1  0  0  0
  5  6  1  0  0  0
  5 26  1  0  0  0
  5 93  1  0  0  0
  6 25  1  0  0  0
  6 94  1  0  0  0
  6 95  1  0  0  0
  7  8  2  0  0  0
  7 26  1  0  0  0
  7 29  1  0  0  0
  8  9  1  0  0  0
  8 22  1  0  0  0
  9 10  1  0  0  0
  9 27  2  0  0  0
 10 11  2  0  0  0
 10 15  1  0  0  0
 11 12  1  0  0  0
 11 96  1  0  0  0
 12 13  2  0  0  0
 12 97  1  0  0  0
 13 14  1  0  0  0
 13 31  1  0  0  0
 14 15  2  0  0  0
 14 98  1  0  0  0
 15 99  1  0  0  0
 16 17  2  0  0  0
 16 21  1  0  0  0
 16 31  1  0  0  0
 17 18  1  0  0  0
 17100  1  0  0  0
 18 19  2  0  0  0
 18101  1  0  0  0
 19 20  1  0  0  0
 19 24  1  0  0  0
 20 21  2  0  0  0
 20102  1  0  0  0
 21 23  1  0  0  0
 22 28  1  0  0  0
 22 32  2  0  0  0
 26 27  1  0  0  0
 28103  1  0  0  0
 28104  1  0  0  0
 29105  1  0  0  0
 29106  1  0  0  0
 33 34  1  0  0  0
 33 66  1  0  0  0
 33 70  2  0  0  0
 34 36  1  0  0  0
 34 59  1  0  0  0
 34107  1  0  0  0
 35 44  2  0  0  0
 35 45  1  0  0  0
 35 68  1  0  0  0
 36 56  1  0  0  0
 36108  1  0  0  0
 37 39  1  0  0  0
 37 47  1  0  0  0
 37 66  1  0  0  0
 37109  1  0  0  0
 38 43  2  0  0  0
 38 46  1  0  0  0
 38 47  1  0  0  0
 39 64  1  0  0  0
 39 67  2  0  0  0
 40 52  1  0  0  0
 40 53  2  0  0  0
 40 58  1  0  0  0
 41110  1  0  0  0
 41111  1  0  0  0
 41112  1  0  0  0
 41 48  1  0  0  0
 42 43  1  0  0  0
 42 66  1  0  0  0
 42113  1  0  0  0
 42114  1  0  0  0
 43 44  1  0  0  0
 44115  1  0  0  0
 45 46  2  0  0  0
 45116  1  0  0  0
 46117  1  0  0  0
 47118  1  0  0  0
 47119  1  0  0  0
 48 56  1  0  0  0
 48 65  1  0  0  0
 48120  1  0  0  0
 49 50  1  0  0  0
 49 53  1  0  0  0
 49 64  1  0  0  0
 49121  1  0  0  0
 50 51  1  0  0  0
 50122  1  0  0  0
 50123  1  0  0  0
 51 52  1  0  0  0
 51124  1  0  0  0
 51125  1  0  0  0
 52126  1  0  0  0
 52127  1  0  0  0
 53 54  1  0  0  0
 54 55  2  0  0  0
 54128  1  0  0  0
 55 57  1  0  0  0
 55129  1  0  0  0
 56 69  2  0  0  0
 57 58  2  0  0  0
 57130  1  0  0  0
 58131  1  0  0  0
 59 60  1  0  0  0
 59 61  1  0  0  0
 59 62  1  0  0  0
 60132  1  0  0  0
 60133  1  0  0  0
 60134  1  0  0  0
 61135  1  0  0  0
 61136  1  0  0  0
 61137  1  0  0  0
 62138  1  0  0  0
 62139  1  0  0  0
 62140  1  0  0  0
 63 65  1  0  0  0
 63141  1  0  0  0
 63142  1  0  0  0
 63143  1  0  0  0
 64144  1  0  0  0
 65145  1  0  0  0
 68 82  1  0  0  0
 71 73  1  0  0  0
 71 74  2  0  0  0
 71146  1  0  0  0
 72 73  2  0  0  0
 72 86  1  0  0  0
 72147  1  0  0  0
 73 84  1  0  0  0
 74 80  1  0  0  0
 74 86  1  0  0  0
 75 81  1  0  0  0
 75 82  1  0  0  0
 75 85  2  0  0  0
 76 81  1  0  0  0
 76 83  1  0  0  0
 76 84  2  0  0  0
 77 78  1  0  0  0
 77 79  1  0  0  0
 77148  1  0  0  0
 77149  1  0  0  0
 78 80  1  0  0  0
 78150  1  0  0  0
 78151  1  0  0  0
 79 80  1  0  0  0
 79152  1  0  0  0
 79153  1  0  0  0
 81154  1  0  0  0
 81155  1  0  0  0
 82156  1  0  0  0
 82157  1  0  0  0
 83158  1  0  0  0
 83159  1  0  0  0
 84160  1  0  0  0
M  CHG  1  84   1
M  ISO  4   1 100  68 101  80 100  82 101
M  END
> <chiral flag>
0

> <version>
0

> <s_m_source_file>
/data/baiqing/PycharmProjects/Reinvent-master-3.2/result/LINK_invent/BTK/process_docking_weight1_custom_product_contain_oxygen_bond_distance_aromatic_linkinvent_7_9_3/rearranged_h_0148.sdf

> <i_m_source_file_index>
15

> <r_mmod_Potential_Energy-OPLS-2005>
154.795684814453

> <r_mmod_Stretch_Energy-OPLS-2005>
60.1465797424316

> <r_mmod_Bend_Energy-OPLS-2005>
166.239013671875

> <r_mmod_Torsional_Energy-OPLS-2005>
234.032623291016

> <r_mmod_Improper_Torsional_Energy-OPLS-2005>
13.0493011474609

> <r_mmod_Van_der_Waal_Energy-OPLS-2005>
133.773864746094

> <r_mmod_Electrostatic_Energy-OPLS-2005>
-46.6954078674316

> <r_mmod_Solvation_Energy-OPLS-2005>
-470.639373779297

> <b_mmod_Minimization_Converged-OPLS-2005>
0

> <r_mmod_RMS_Derivative-OPLS-2005>
1.68539726734161

$$$$
15
                    3D
 Structure written by MMmdl.
155164  0  0  1  0            999 V2000
  -30.5684  -14.8678   20.4724 C   0  0  0  0  0  0
  -30.4482  -12.5517   19.4691 C   0  0  0  0  0  0
  -29.5155  -12.5186   18.2366 C   0  0  0  0  0  0
  -28.0399  -12.3318   18.6442 C   0  0  0  0  0  0
  -27.6296  -13.2412   19.8332 C   0  0  2  0  0  0
  -28.6794  -13.2245   20.9642 C   0  0  0  0  0  0
  -25.2464  -13.8218   20.5711 C   0  0  0  0  0  0
  -24.1800  -13.0471   20.9282 C   0  0  0  0  0  0
  -24.6383  -11.6932   20.8799 C   0  0  0  0  0  0
  -23.9040  -10.4318   21.0420 C   0  0  0  0  0  0
  -24.3599   -9.4206   21.9173 C   0  0  0  0  0  0
  -23.6276   -8.2241   22.0745 C   0  0  0  0  0  0
  -22.4252   -8.0248   21.3546 C   0  0  0  0  0  0
  -21.9871   -9.0215   20.4647 C   0  0  0  0  0  0
  -22.7203  -10.2097   20.3051 C   0  0  0  0  0  0
  -21.6811   -6.0707   22.5273 C   0  0  0  0  0  0
  -21.4015   -6.5631   23.8210 C   0  0  0  0  0  0
  -21.3668   -5.6795   24.9178 C   0  0  0  0  0  0
  -21.6054   -4.3051   24.7231 C   0  0  0  0  0  0
  -21.8820   -3.8129   23.4351 C   0  0  0  0  0  0
  -21.9180   -4.6951   22.3396 C   0  0  0  0  0  0
  -22.7816  -13.5203   21.1927 C   0  0  0  0  0  0
  -22.1629   -4.2146   21.0983 F   0  0  0  0  0  0
  -21.5606   -3.4538   25.7738 F   0  0  0  0  0  0
  -29.9613  -13.6239   20.3724 N   0  0  0  0  0  0
  -26.2862  -12.9424   20.3180 N   0  0  0  0  0  0
  -25.9294  -11.6563   20.5724 N   0  0  0  0  0  0
  -22.0457  -12.8235   22.0466 N   0  0  0  0  0  0
  -25.4108  -15.1985   20.4117 N   0  0  0  0  0  0
  -31.7777  -14.9459   20.2371 O   0  0  0  0  0  0
  -21.6610   -6.8843   21.4225 O   0  0  0  0  0  0
  -22.3540  -14.5520   20.6718 O   0  0  0  0  0  0
  -24.6329  -31.8514   23.1966 C   0  0  0  0  0  0
  -25.9157  -32.4700   23.8274 C   0  0  1  0  0  0
  -27.1854  -27.1872   20.1630 C   0  0  0  0  0  0
  -25.6020  -33.8487   24.2271 N   0  0  0  0  0  0
  -23.4282  -30.4815   21.5335 C   0  0  2  0  0  0
  -24.8801  -28.9255   20.0898 C   0  0  0  0  0  0
  -22.7452  -29.4585   22.4746 C   0  0  0  0  0  0
  -18.0286  -28.1367   22.8491 C   0  0  0  0  0  0
  -24.1519  -36.7259   23.2641 C   0  0  0  0  0  0
  -25.9769  -30.7483   21.3830 C   0  0  0  0  0  0
  -26.0479  -29.3598   20.7324 C   0  0  0  0  0  0
  -27.1944  -28.4971   20.7692 C   0  0  0  0  0  0
  -26.0109  -26.8488   19.4603 C   0  0  0  0  0  0
  -24.8715  -27.6796   19.4427 C   0  0  0  0  0  0
  -23.6577  -29.8290   20.1398 C   0  0  0  0  0  0
  -25.4132  -36.3001   24.0333 C   0  0  1  0  0  0
  -20.5893  -28.3661   23.1254 C   0  0  2  0  0  0
  -20.6773  -26.9369   22.5399 C   0  0  0  0  0  0
  -19.5753  -26.6392   21.5183 C   0  0  0  0  0  0
  -18.1919  -26.7947   22.1569 C   0  0  0  0  0  0
  -19.1546  -28.8805   23.2930 C   0  0  0  0  0  0
  -18.9484  -30.1399   23.8974 C   0  0  0  0  0  0
  -17.6488  -30.6554   24.0596 C   0  0  0  0  0  0
  -25.9066  -34.9383   23.5086 C   0  0  0  0  0  0
  -16.5372  -29.9080   23.6315 C   0  0  0  0  0  0
  -16.7280  -28.6497   23.0329 C   0  0  0  0  0  0
  -26.4603  -31.6449   25.0568 C   0  0  0  0  0  0
  -25.3920  -31.3526   26.1343 C   0  0  0  0  0  0
  -27.0466  -30.2898   24.5945 C   0  0  0  0  0  0
  -27.6196  -32.4140   25.7350 C   0  0  0  0  0  0
  -27.5575  -37.1761   24.8462 C   0  0  0  0  0  0
  -21.4115  -29.3072   22.3609 N   0  0  0  0  0  0
  -26.4269  -37.3740   23.9426 N   0  0  0  0  0  0
  -24.7002  -31.0399   22.0999 N   0  0  0  0  0  0
  -23.4156  -28.8119   23.2840 O   0  0  0  0  0  0
  -28.2397  -26.2379   20.2982 O   0  0  0  0  0  0
  -26.5514  -34.8843   22.4580 O   0  0  0  0  0  0
  -23.5482  -32.1351   23.7262 O   0  0  0  0  0  0
  -28.9262  -18.5754   20.7037 C   0  0  0  0  0  0
  -31.2129  -18.1096   20.8429 C   0  0  0  0  0  0
  -29.9797  -17.5118   20.7000 C   0  0  0  0  0  0
  -29.3407  -19.9310   20.8497 C   0  0  0  0  0  0
  -26.7625  -23.5225   21.5680 C   0  0  0  0  0  0
  -27.9727  -21.9580   19.8591 C   0  0  0  0  0  0
  -29.1878  -22.5587   21.3255 C   0  0  0  0  0  0
  -27.9793  -23.3545   20.6476 C   0  0  0  0  0  0
  -25.3639  -23.3215   20.9563 C   0  0  0  0  0  0
  -28.1895  -24.7782   19.8214 C   0  0  0  0  0  0
  -28.5715  -21.2297   21.0037 N   0  0  0  0  0  0
  -29.7516  -16.0118   20.6047 N   0  0  0  0  0  0
  -26.8109  -23.8197   22.7655 O   0  0  0  0  0  0
  -31.0984  -19.8775   20.9911 S   0  0  0  0  0  0
  -31.4742  -12.7223   19.1403 H   0  0  0  0  0  0
  -30.4476  -11.5846   19.9781 H   0  0  0  0  0  0
  -29.8230  -11.7211   17.5625 H   0  0  0  0  0  0
  -29.6220  -13.4445   17.6725 H   0  0  0  0  0  0
  -27.8995  -11.2821   18.9072 H   0  0  0  0  0  0
  -27.3781  -12.5150   17.7944 H   0  0  0  0  0  0
  -27.6071  -14.2542   19.4355 H   0  0  0  0  0  0
  -28.7571  -12.2374   21.4211 H   0  0  0  0  0  0
  -28.3966  -13.9181   21.7621 H   0  0  0  0  0  0
  -25.2715   -9.5682   22.4773 H   0  0  0  0  0  0
  -23.9984   -7.4629   22.7471 H   0  0  0  0  0  0
  -21.0777   -8.8674   19.8998 H   0  0  0  0  0  0
  -22.3579  -10.9610   19.6177 H   0  0  0  0  0  0
  -21.2015   -7.6147   23.9718 H   0  0  0  0  0  0
  -21.1492   -6.0519   25.9086 H   0  0  0  0  0  0
  -22.0608   -2.7597   23.2830 H   0  0  0  0  0  0
  -22.3992  -11.9853   22.4893 H   0  0  0  0  0  0
  -21.1069  -13.1252   22.2634 H   0  0  0  0  0  0
  -24.6409  -15.8426   20.5655 H   0  0  0  0  0  0
  -26.1928  -15.6308   19.9387 H   0  0  0  0  0  0
  -26.7161  -32.5377   23.0939 H   0  0  0  0  0  0
  -25.0369  -33.9647   25.0548 H   0  0  0  0  0  0
  -22.7347  -31.3126   21.3881 H   0  0  0  0  0  0
  -23.3746  -35.9609   23.3253 H   0  0  0  0  0  0
  -24.3669  -36.8912   22.2071 H   0  0  0  0  0  0
  -23.7280  -37.6458   23.6681 H   0  0  0  0  0  0
  -26.0862  -31.5042   20.6041 H   0  0  0  0  0  0
  -26.8743  -30.8275   21.9860 H   0  0  0  0  0  0
  -28.0761  -28.7896   21.3248 H   0  0  0  0  0  0
  -25.9228  -25.9075   18.9489 H   0  0  0  0  0  0
  -23.9830  -27.3421   18.9253 H   0  0  0  0  0  0
  -23.7956  -30.6219   19.4019 H   0  0  0  0  0  0
  -22.7719  -29.2796   19.8094 H   0  0  0  0  0  0
  -25.1317  -36.1826   25.0815 H   0  0  0  0  0  0
  -21.0021  -28.3221   24.1356 H   0  0  0  0  0  0
  -20.5648  -26.2233   23.3589 H   0  0  0  0  0  0
  -21.6644  -26.7400   22.1220 H   0  0  0  0  0  0
  -19.6892  -25.6322   21.1161 H   0  0  0  0  0  0
  -19.6732  -27.3229   20.6751 H   0  0  0  0  0  0
  -17.4241  -26.6765   21.3917 H   0  0  0  0  0  0
  -18.0252  -26.0040   22.8897 H   0  0  0  0  0  0
  -19.7972  -30.7189   24.2380 H   0  0  0  0  0  0
  -17.5057  -31.6207   24.5231 H   0  0  0  0  0  0
  -15.5381  -30.3007   23.7620 H   0  0  0  0  0  0
  -15.8689  -28.0861   22.6976 H   0  0  0  0  0  0
  -24.6138  -30.6820   25.7700 H   0  0  0  0  0  0
  -24.9094  -32.2678   26.4787 H   0  0  0  0  0  0
  -25.8381  -30.8719   27.0067 H   0  0  0  0  0  0
  -26.2997  -29.6512   24.1231 H   0  0  0  0  0  0
  -27.4536  -29.7238   25.4339 H   0  0  0  0  0  0
  -27.8694  -30.4210   23.8913 H   0  0  0  0  0  0
  -27.2841  -33.3433   26.1950 H   0  0  0  0  0  0
  -28.4018  -32.6674   25.0170 H   0  0  0  0  0  0
  -28.0820  -31.8186   26.5218 H   0  0  0  0  0  0
  -28.2552  -38.0111   24.7537 H   0  0  0  0  0  0
  -28.1112  -36.2620   24.6249 H   0  0  0  0  0  0
  -27.2292  -37.1379   25.8871 H   0  0  0  0  0  0
  -20.9153  -29.8874   21.6975 H   0  0  0  0  0  0
  -26.0105  -38.2772   24.1496 H   0  0  0  0  0  0
  -27.8848  -18.2948   20.6340 H   0  0  0  0  0  0
  -32.1997  -17.6520   20.9018 H   0  0  0  0  0  0
  -28.6356  -21.9568   18.9897 H   0  0  0  0  0  0
  -26.9842  -21.5762   19.5992 H   0  0  0  0  0  0
  -29.2937  -22.7540   22.3977 H   0  0  0  0  0  0
  -30.1363  -22.7330   20.8185 H   0  0  0  0  0  0
  -25.3207  -23.5699   19.8966 H   0  0  0  0  0  0
  -24.6106  -23.9291   21.4626 H   0  0  0  0  0  0
  -25.0530  -22.2817   21.0767 H   0  0  0  0  0  0
  -27.6159  -24.7241   18.8977 H   0  0  0  0  0  0
  -29.1973  -24.6717   19.4288 H   0  0  0  0  0  0
  -28.7800  -15.7484   20.6017 H   0  0  0  0  0  0
  1 25  1  0  0  0
  1 30  2  0  0  0
  1 82  1  0  0  0
  2  3  1  0  0  0
  2 25  1  0  0  0
  2 85  1  0  0  0
  2 86  1  0  0  0
  3  4  1  0  0  0
  3 87  1  0  0  0
  3 88  1  0  0  0
  4  5  1  0  0  0
  4 89  1  0  0  0
  4 90  1  0  0  0
  5  6  1  0  0  0
  5 26  1  0  0  0
  5 91  1  0  0  0
  6 25  1  0  0  0
  6 92  1  0  0  0
  6 93  1  0  0  0
  7  8  2  0  0  0
  7 26  1  0  0  0
  7 29  1  0  0  0
  8  9  1  0  0  0
  8 22  1  0  0  0
  9 10  1  0  0  0
  9 27  2  0  0  0
 10 11  2  0  0  0
 10 15  1  0  0  0
 11 12  1  0  0  0
 11 94  1  0  0  0
 12 13  2  0  0  0
 12 95  1  0  0  0
 13 14  1  0  0  0
 13 31  1  0  0  0
 14 15  2  0  0  0
 14 96  1  0  0  0
 15 97  1  0  0  0
 16 17  2  0  0  0
 16 21  1  0  0  0
 16 31  1  0  0  0
 17 18  1  0  0  0
 17 98  1  0  0  0
 18 19  2  0  0  0
 18 99  1  0  0  0
 19 20  1  0  0  0
 19 24  1  0  0  0
 20 21  2  0  0  0
 20100  1  0  0  0
 21 23  1  0  0  0
 22 28  1  0  0  0
 22 32  2  0  0  0
 26 27  1  0  0  0
 28101  1  0  0  0
 28102  1  0  0  0
 29103  1  0  0  0
 29104  1  0  0  0
 33 34  1  0  0  0
 33 66  1  0  0  0
 33 70  2  0  0  0
 34 36  1  0  0  0
 34 59  1  0  0  0
 34105  1  0  0  0
 35 44  2  0  0  0
 35 45  1  0  0  0
 35 68  1  0  0  0
 36 56  1  0  0  0
 36106  1  0  0  0
 37 39  1  0  0  0
 37 47  1  0  0  0
 37 66  1  0  0  0
 37107  1  0  0  0
 38 43  2  0  0  0
 38 46  1  0  0  0
 38 47  1  0  0  0
 39 64  1  0  0  0
 39 67  2  0  0  0
 40 52  1  0  0  0
 40 53  2  0  0  0
 40 58  1  0  0  0
 41108  1  0  0  0
 41109  1  0  0  0
 41110  1  0  0  0
 41 48  1  0  0  0
 42 43  1  0  0  0
 42 66  1  0  0  0
 42111  1  0  0  0
 42112  1  0  0  0
 43 44  1  0  0  0
 44113  1  0  0  0
 45 46  2  0  0  0
 45114  1  0  0  0
 46115  1  0  0  0
 47116  1  0  0  0
 47117  1  0  0  0
 48 56  1  0  0  0
 48 65  1  0  0  0
 48118  1  0  0  0
 49 50  1  0  0  0
 49 53  1  0  0  0
 49 64  1  0  0  0
 49119  1  0  0  0
 50 51  1  0  0  0
 50120  1  0  0  0
 50121  1  0  0  0
 51 52  1  0  0  0
 51122  1  0  0  0
 51123  1  0  0  0
 52124  1  0  0  0
 52125  1  0  0  0
 53 54  1  0  0  0
 54 55  2  0  0  0
 54126  1  0  0  0
 55 57  1  0  0  0
 55127  1  0  0  0
 56 69  2  0  0  0
 57 58  2  0  0  0
 57128  1  0  0  0
 58129  1  0  0  0
 59 60  1  0  0  0
 59 61  1  0  0  0
 59 62  1  0  0  0
 60130  1  0  0  0
 60131  1  0  0  0
 60132  1  0  0  0
 61133  1  0  0  0
 61134  1  0  0  0
 61135  1  0  0  0
 62136  1  0  0  0
 62137  1  0  0  0
 62138  1  0  0  0
 63 65  1  0  0  0
 63139  1  0  0  0
 63140  1  0  0  0
 63141  1  0  0  0
 64142  1  0  0  0
 65143  1  0  0  0
 68 80  1  0  0  0
 71 73  1  0  0  0
 71 74  2  0  0  0
 71144  1  0  0  0
 72 73  2  0  0  0
 72 84  1  0  0  0
 72145  1  0  0  0
 73 82  1  0  0  0
 74 81  1  0  0  0
 74 84  1  0  0  0
 75 79  1  0  0  0
 75 83  2  0  0  0
 75 78  1  0  0  0
 76 78  1  0  0  0
 76 81  1  0  0  0
 76146  1  0  0  0
 76147  1  0  0  0
 77 78  1  0  0  0
 77 81  1  0  0  0
 77148  1  0  0  0
 77149  1  0  0  0
 78 80  1  0  0  0
 79150  1  0  0  0
 79151  1  0  0  0
 79152  1  0  0  0
 80153  1  0  0  0
 80154  1  0  0  0
 82155  1  0  0  0
M  ISO  4   1 100  68 101  80 101  82 100
M  END
> <chiral flag>
0

> <version>
0

> <s_m_source_file>
/data/baiqing/PycharmProjects/Reinvent-master-3.2/result/LINK_invent/BTK/process_docking_weight1_custom_product_contain_oxygen_bond_distance_aromatic_linkinvent_7_9_3/rearranged_h_0148.sdf

> <i_m_source_file_index>
16

> <r_mmod_Potential_Energy-OPLS-2005>
364.055938720703

> <r_mmod_Stretch_Energy-OPLS-2005>
181.672515869141

> <r_mmod_Bend_Energy-OPLS-2005>
267.931274414062

> <r_mmod_Torsional_Energy-OPLS-2005>
209.950286865234

> <r_mmod_Improper_Torsional_Energy-OPLS-2005>
13.4855613708496

> <r_mmod_Van_der_Waal_Energy-OPLS-2005>
111.311653137207

> <r_mmod_Electrostatic_Energy-OPLS-2005>
-318.68603515625

> <r_mmod_Solvation_Energy-OPLS-2005>
-252.731796264648

> <b_mmod_Minimization_Converged-OPLS-2005>
0

> <r_mmod_RMS_Derivative-OPLS-2005>
8.50966167449951

$$$$
16
                    3D
 Structure written by MMmdl.
152160  0  0  1  0            999 V2000
  -30.5830  -14.7764   20.4417 C   0  0  0  0  0  0
  -30.4325  -12.4637   19.4905 C   0  0  0  0  0  0
  -29.5193  -12.5152   18.2438 C   0  0  0  0  0  0
  -28.0384  -12.3478   18.6394 C   0  0  0  0  0  0
  -27.6387  -13.2408   19.8446 C   0  0  2  0  0  0
  -28.6773  -13.1785   20.9821 C   0  0  0  0  0  0
  -25.2487  -13.8228   20.5672 C   0  0  0  0  0  0
  -24.1786  -13.0454   20.9175 C   0  0  0  0  0  0
  -24.6386  -11.6934   20.8711 C   0  0  0  0  0  0
  -23.9070  -10.4301   21.0381 C   0  0  0  0  0  0
  -24.3622   -9.4221   21.9163 C   0  0  0  0  0  0
  -23.6296   -8.2256   22.0745 C   0  0  0  0  0  0
  -22.4280   -8.0285   21.3537 C   0  0  0  0  0  0
  -21.9911   -9.0260   20.4640 C   0  0  0  0  0  0
  -22.7238  -10.2137   20.3039 C   0  0  0  0  0  0
  -21.6865   -6.0731   22.5275 C   0  0  0  0  0  0
  -21.4019   -6.5633   23.8207 C   0  0  0  0  0  0
  -21.3660   -5.6786   24.9169 C   0  0  0  0  0  0
  -21.6050   -4.3050   24.7225 C   0  0  0  0  0  0
  -21.8819   -3.8139   23.4346 C   0  0  0  0  0  0
  -21.9192   -4.6956   22.3401 C   0  0  0  0  0  0
  -22.7807  -13.5222   21.1863 C   0  0  0  0  0  0
  -22.1650   -4.2138   21.0979 F   0  0  0  0  0  0
  -21.5637   -3.4536   25.7737 F   0  0  0  0  0  0
  -29.9858  -13.5317   20.4177 N   0  0  0  0  0  0
  -26.2913  -12.9444   20.3221 N   0  0  0  0  0  0
  -25.9312  -11.6577   20.5692 N   0  0  0  0  0  0
  -22.0471  -12.8206   22.0430 N   0  0  0  0  0  0
  -25.4195  -15.1951   20.4142 N   0  0  0  0  0  0
  -31.7777  -14.8383   20.1356 O   0  0  0  0  0  0
  -21.6648   -6.8877   21.4237 O   0  0  0  0  0  0
  -22.3470  -14.5518   20.6708 O   0  0  0  0  0  0
  -24.6318  -31.8539   23.1966 C   0  0  0  0  0  0
  -25.9140  -32.4750   23.8314 C   0  0  1  0  0  0
  -27.2208  -27.2513   20.1468 C   0  0  0  0  0  0
  -25.5940  -33.8552   24.2247 N   0  0  0  0  0  0
  -23.4299  -30.4738   21.5397 C   0  0  2  0  0  0
  -24.8790  -28.9118   20.1175 C   0  0  0  0  0  0
  -22.7501  -29.4588   22.4908 C   0  0  0  0  0  0
  -18.0292  -28.1389   22.8494 C   0  0  0  0  0  0
  -24.1489  -36.7270   23.2639 C   0  0  0  0  0  0
  -25.9751  -30.7644   21.3779 C   0  0  0  0  0  0
  -26.0493  -29.3826   20.7272 C   0  0  0  0  0  0
  -27.2264  -28.5658   20.7270 C   0  0  0  0  0  0
  -26.0321  -26.8437   19.5127 C   0  0  0  0  0  0
  -24.8747  -27.6502   19.4996 C   0  0  0  0  0  0
  -23.6512  -29.8024   20.1577 C   0  0  0  0  0  0
  -25.4113  -36.3059   24.0329 C   0  0  1  0  0  0
  -20.5898  -28.3697   23.1273 C   0  0  2  0  0  0
  -20.6778  -26.9415   22.5408 C   0  0  0  0  0  0
  -19.5754  -26.6388   21.5212 C   0  0  0  0  0  0
  -18.1934  -26.7936   22.1625 C   0  0  0  0  0  0
  -19.1549  -28.8859   23.2881 C   0  0  0  0  0  0
  -18.9471  -30.1459   23.8899 C   0  0  0  0  0  0
  -17.6471  -30.6592   24.0563 C   0  0  0  0  0  0
  -25.9059  -34.9435   23.5087 C   0  0  0  0  0  0
  -16.5359  -29.9089   23.6336 C   0  0  0  0  0  0
  -16.7277  -28.6505   23.0359 C   0  0  0  0  0  0
  -26.4508  -31.6577   25.0706 C   0  0  0  0  0  0
  -25.3734  -31.3739   26.1430 C   0  0  0  0  0  0
  -27.0364  -30.2992   24.6210 C   0  0  0  0  0  0
  -27.6059  -32.4319   25.7489 C   0  0  0  0  0  0
  -27.5575  -37.1781   24.8460 C   0  0  0  0  0  0
  -21.4207  -29.3043   22.3658 N   0  0  0  0  0  0
  -26.4277  -37.3765   23.9422 N   0  0  0  0  0  0
  -24.6978  -31.0492   22.0950 N   0  0  0  0  0  0
  -23.4194  -28.8130   23.3013 O   0  0  0  0  0  0
  -28.3231  -26.3661   20.1064 O   0  0  0  0  0  0
  -26.5626  -34.8916   22.4653 O   0  0  0  0  0  0
  -23.5466  -32.1355   23.7260 O   0  0  0  0  0  0
  -28.2234  -18.9107   20.2405 C   0  0  0  0  0  0
  -27.9509  -20.3456   20.2301 C   0  0  0  0  0  0
  -29.5276  -18.5409   20.5036 C   0  0  0  0  0  0
  -29.0174  -21.1821   20.5157 C   0  0  0  0  0  0
  -30.2123  -17.1639   20.5273 C   0  0  0  0  0  0
  -28.2998  -23.6552   20.2600 C   0  0  0  0  0  0
  -29.8516  -25.2653   21.5371 C   0  0  0  0  0  0
  -27.4090  -25.1725   22.1131 C   0  0  0  0  0  0
  -28.4318  -25.1179   20.9563 C   0  0  0  0  0  0
  -29.7326  -15.9331   20.6360 N   0  0  0  0  0  0
  -29.0783  -22.5825   20.6923 N   0  0  0  0  0  0
  -27.4732  -23.5065   19.3565 O   0  0  0  0  0  0
  -30.4116  -20.0764   20.7810 S   0  0  0  0  0  0
  -31.4758  -12.5803   19.1923 H   0  0  0  0  0  0
  -30.3696  -11.4888   19.9764 H   0  0  0  0  0  0
  -29.8049  -11.7389   17.5327 H   0  0  0  0  0  0
  -29.6572  -13.4677   17.7295 H   0  0  0  0  0  0
  -27.8774  -11.2977   18.8847 H   0  0  0  0  0  0
  -27.3954  -12.5616   17.7849 H   0  0  0  0  0  0
  -27.6324  -14.2654   19.4717 H   0  0  0  0  0  0
  -28.7086  -12.1827   21.4268 H   0  0  0  0  0  0
  -28.4049  -13.8657   21.7858 H   0  0  0  0  0  0
  -25.2773   -9.5702   22.4725 H   0  0  0  0  0  0
  -24.0010   -7.4652   22.7466 H   0  0  0  0  0  0
  -21.0838   -8.8782   19.8950 H   0  0  0  0  0  0
  -22.3693  -10.9672   19.6145 H   0  0  0  0  0  0
  -21.2008   -7.6139   23.9710 H   0  0  0  0  0  0
  -21.1484   -6.0511   25.9070 H   0  0  0  0  0  0
  -22.0595   -2.7598   23.2853 H   0  0  0  0  0  0
  -22.4113  -11.9888   22.4839 H   0  0  0  0  0  0
  -21.1082  -13.1210   22.2637 H   0  0  0  0  0  0
  -24.6673  -15.8612   20.5529 H   0  0  0  0  0  0
  -26.2987  -15.6299   20.1607 H   0  0  0  0  0  0
  -26.7208  -32.5398   23.1059 H   0  0  0  0  0  0
  -25.0103  -33.9689   25.0402 H   0  0  0  0  0  0
  -22.7270  -31.2958   21.3889 H   0  0  0  0  0  0
  -23.3763  -35.9592   23.3293 H   0  0  0  0  0  0
  -24.3572  -36.8895   22.2053 H   0  0  0  0  0  0
  -23.7237  -37.6466   23.6668 H   0  0  0  0  0  0
  -26.1132  -31.5228   20.6061 H   0  0  0  0  0  0
  -26.8523  -30.8152   22.0111 H   0  0  0  0  0  0
  -28.1285  -28.9263   21.2008 H   0  0  0  0  0  0
  -25.9954  -25.8735   19.0380 H   0  0  0  0  0  0
  -23.9798  -27.2843   19.0163 H   0  0  0  0  0  0
  -23.7813  -30.5760   19.4000 H   0  0  0  0  0  0
  -22.7701  -29.2366   19.8505 H   0  0  0  0  0  0
  -25.1298  -36.1891   25.0822 H   0  0  0  0  0  0
  -20.9992  -28.3269   24.1391 H   0  0  0  0  0  0
  -20.5679  -26.2301   23.3606 H   0  0  0  0  0  0
  -21.6645  -26.7436   22.1198 H   0  0  0  0  0  0
  -19.6915  -25.6301   21.1233 H   0  0  0  0  0  0
  -19.6695  -27.3211   20.6753 H   0  0  0  0  0  0
  -17.4202  -26.6692   21.4024 H   0  0  0  0  0  0
  -18.0329  -26.0073   22.9017 H   0  0  0  0  0  0
  -19.7944  -30.7275   24.2267 H   0  0  0  0  0  0
  -17.5024  -31.6275   24.5166 H   0  0  0  0  0  0
  -15.5360  -30.2991   23.7665 H   0  0  0  0  0  0
  -15.8672  -28.0821   22.7079 H   0  0  0  0  0  0
  -24.5923  -30.7073   25.7761 H   0  0  0  0  0  0
  -24.8921  -32.2918   26.4820 H   0  0  0  0  0  0
  -25.8053  -30.8944   27.0228 H   0  0  0  0  0  0
  -26.2964  -29.6733   24.1218 H   0  0  0  0  0  0
  -27.4023  -29.7257   25.4737 H   0  0  0  0  0  0
  -27.8845  -30.4259   23.9479 H   0  0  0  0  0  0
  -27.2668  -33.3626   26.2058 H   0  0  0  0  0  0
  -28.3889  -32.6869   25.0332 H   0  0  0  0  0  0
  -28.0720  -31.8453   26.5420 H   0  0  0  0  0  0
  -28.2572  -38.0098   24.7537 H   0  0  0  0  0  0
  -28.1093  -36.2631   24.6250 H   0  0  0  0  0  0
  -27.2295  -37.1379   25.8861 H   0  0  0  0  0  0
  -20.9388  -29.8766   21.6867 H   0  0  0  0  0  0
  -26.0150  -38.2830   24.1457 H   0  0  0  0  0  0
  -27.4394  -18.1961   20.0349 H   0  0  0  0  0  0
  -26.9504  -20.7071   20.0369 H   0  0  0  0  0  0
  -31.2944  -17.2752   20.4089 H   0  0  0  0  0  0
  -30.0779  -24.5070   22.2870 H   0  0  0  0  0  0
  -29.9767  -26.2354   22.0183 H   0  0  0  0  0  0
  -30.6043  -25.1965   20.7503 H   0  0  0  0  0  0
  -27.5411  -24.3342   22.7983 H   0  0  0  0  0  0
  -26.3831  -25.1202   21.7471 H   0  0  0  0  0  0
  -27.5105  -26.0871   22.6982 H   0  0  0  0  0  0
  -29.8236  -22.8829   21.3069 H   0  0  0  0  0  0
  1 25  1  0  0  0
  1 30  2  0  0  0
  1 80  1  0  0  0
  2  3  1  0  0  0
  2 25  1  0  0  0
  2 84  1  0  0  0
  2 85  1  0  0  0
  3  4  1  0  0  0
  3 86  1  0  0  0
  3 87  1  0  0  0
  4  5  1  0  0  0
  4 88  1  0  0  0
  4 89  1  0  0  0
  5  6  1  0  0  0
  5 26  1  0  0  0
  5 90  1  0  0  0
  6 25  1  0  0  0
  6 91  1  0  0  0
  6 92  1  0  0  0
  7  8  2  0  0  0
  7 26  1  0  0  0
  7 29  1  0  0  0
  8  9  1  0  0  0
  8 22  1  0  0  0
  9 10  1  0  0  0
  9 27  2  0  0  0
 10 11  2  0  0  0
 10 15  1  0  0  0
 11 12  1  0  0  0
 11 93  1  0  0  0
 12 13  2  0  0  0
 12 94  1  0  0  0
 13 14  1  0  0  0
 13 31  1  0  0  0
 14 15  2  0  0  0
 14 95  1  0  0  0
 15 96  1  0  0  0
 16 17  2  0  0  0
 16 21  1  0  0  0
 16 31  1  0  0  0
 17 18  1  0  0  0
 17 97  1  0  0  0
 18 19  2  0  0  0
 18 98  1  0  0  0
 19 20  1  0  0  0
 19 24  1  0  0  0
 20 21  2  0  0  0
 20 99  1  0  0  0
 21 23  1  0  0  0
 22 28  1  0  0  0
 22 32  2  0  0  0
 26 27  1  0  0  0
 28100  1  0  0  0
 28101  1  0  0  0
 29102  1  0  0  0
 29103  1  0  0  0
 33 34  1  0  0  0
 33 66  1  0  0  0
 33 70  2  0  0  0
 34 36  1  0  0  0
 34 59  1  0  0  0
 34104  1  0  0  0
 35 44  2  0  0  0
 35 45  1  0  0  0
 35 68  1  0  0  0
 36 56  1  0  0  0
 36105  1  0  0  0
 37 39  1  0  0  0
 37 47  1  0  0  0
 37 66  1  0  0  0
 37106  1  0  0  0
 38 43  2  0  0  0
 38 46  1  0  0  0
 38 47  1  0  0  0
 39 64  1  0  0  0
 39 67  2  0  0  0
 40 52  1  0  0  0
 40 53  2  0  0  0
 40 58  1  0  0  0
 41107  1  0  0  0
 41108  1  0  0  0
 41109  1  0  0  0
 41 48  1  0  0  0
 42 43  1  0  0  0
 42 66  1  0  0  0
 42110  1  0  0  0
 42111  1  0  0  0
 43 44  1  0  0  0
 44112  1  0  0  0
 45 46  2  0  0  0
 45113  1  0  0  0
 46114  1  0  0  0
 47115  1  0  0  0
 47116  1  0  0  0
 48 56  1  0  0  0
 48 65  1  0  0  0
 48117  1  0  0  0
 49 50  1  0  0  0
 49 53  1  0  0  0
 49 64  1  0  0  0
 49118  1  0  0  0
 50 51  1  0  0  0
 50119  1  0  0  0
 50120  1  0  0  0
 51 52  1  0  0  0
 51121  1  0  0  0
 51122  1  0  0  0
 52123  1  0  0  0
 52124  1  0  0  0
 53 54  1  0  0  0
 54 55  2  0  0  0
 54125  1  0  0  0
 55 57  1  0  0  0
 55126  1  0  0  0
 56 69  2  0  0  0
 57 58  2  0  0  0
 57127  1  0  0  0
 58128  1  0  0  0
 59 60  1  0  0  0
 59 61  1  0  0  0
 59 62  1  0  0  0
 60129  1  0  0  0
 60130  1  0  0  0
 60131  1  0  0  0
 61132  1  0  0  0
 61133  1  0  0  0
 61134  1  0  0  0
 62135  1  0  0  0
 62136  1  0  0  0
 62137  1  0  0  0
 63 65  1  0  0  0
 63138  1  0  0  0
 63139  1  0  0  0
 63140  1  0  0  0
 64141  1  0  0  0
 65142  1  0  0  0
 68 79  1  0  0  0
 71 72  1  0  0  0
 71 73  2  0  0  0
 71143  1  0  0  0
 72 74  2  0  0  0
 72144  1  0  0  0
 73 75  1  0  0  0
 73 83  1  0  0  0
 74 81  1  0  0  0
 74 83  1  0  0  0
 75 80  2  0  0  0
 75145  1  0  0  0
 76 79  1  0  0  0
 76 81  1  0  0  0
 76 82  2  0  0  0
 77146  1  0  0  0
 77147  1  0  0  0
 77148  1  0  0  0
 77 79  1  0  0  0
 78 79  1  0  0  0
 78149  1  0  0  0
 78150  1  0  0  0
 78151  1  0  0  0
 81152  1  0  0  0
M  ISO  4   1 100  68 101  79 101  80 100
M  END
> <chiral flag>
0

> <version>
0

> <s_m_source_file>
/data/baiqing/PycharmProjects/Reinvent-master-3.2/result/LINK_invent/BTK/process_docking_weight1_custom_product_contain_oxygen_bond_distance_aromatic_linkinvent_7_9_3/rearranged_h_0148.sdf

> <i_m_source_file_index>
17

> <r_mmod_Potential_Energy-OPLS-2005>
166.244049072266

> <r_mmod_Stretch_Energy-OPLS-2005>
129.9921875

> <r_mmod_Bend_Energy-OPLS-2005>
185.220336914062

> <r_mmod_Torsional_Energy-OPLS-2005>
229.507568359375

> <r_mmod_Improper_Torsional_Energy-OPLS-2005>
4.52476596832275

> <r_mmod_Van_der_Waal_Energy-OPLS-2005>
118.899520874023

> <r_mmod_Electrostatic_Energy-OPLS-2005>
-387.910430908203

> <r_mmod_Solvation_Energy-OPLS-2005>
-205.135360717773

> <b_mmod_Minimization_Converged-OPLS-2005>
0

> <r_mmod_RMS_Derivative-OPLS-2005>
1.38703978061676

$$$$
17
                    3D
 Structure written by MMmdl.
162171  0  0  1  0            999 V2000
  -30.5389  -14.7689   20.4987 C   0  0  0  0  0  0
  -30.4605  -12.4765   19.4657 C   0  0  0  0  0  0
  -29.5210  -12.5322   18.2364 C   0  0  0  0  0  0
  -28.0459  -12.3423   18.6469 C   0  0  0  0  0  0
  -27.6536  -13.2186   19.8646 C   0  0  2  0  0  0
  -28.6999  -13.0902   20.9952 C   0  0  0  0  0  0
  -25.2561  -13.8157   20.5667 C   0  0  0  0  0  0
  -24.1836  -13.0428   20.9205 C   0  0  0  0  0  0
  -24.6405  -11.6900   20.8750 C   0  0  0  0  0  0
  -23.9068  -10.4287   21.0413 C   0  0  0  0  0  0
  -24.3618   -9.4201   21.9189 C   0  0  0  0  0  0
  -23.6291   -8.2238   22.0757 C   0  0  0  0  0  0
  -22.4274   -8.0278   21.3546 C   0  0  0  0  0  0
  -21.9912   -9.0253   20.4649 C   0  0  0  0  0  0
  -22.7240  -10.2133   20.3060 C   0  0  0  0  0  0
  -21.6852   -6.0734   22.5280 C   0  0  0  0  0  0
  -21.4013   -6.5641   23.8212 C   0  0  0  0  0  0
  -21.3660   -5.6795   24.9176 C   0  0  0  0  0  0
  -21.6043   -4.3058   24.7228 C   0  0  0  0  0  0
  -21.8819   -3.8146   23.4350 C   0  0  0  0  0  0
  -21.9192   -4.6962   22.3405 C   0  0  0  0  0  0
  -22.7858  -13.5226   21.1861 C   0  0  0  0  0  0
  -22.1661   -4.2146   21.0983 F   0  0  0  0  0  0
  -21.5627   -3.4542   25.7741 F   0  0  0  0  0  0
  -30.0039  -13.4961   20.4387 N   0  0  0  0  0  0
  -26.2991  -12.9338   20.3308 N   0  0  0  0  0  0
  -25.9336  -11.6495   20.5757 N   0  0  0  0  0  0
  -22.0494  -12.8221   22.0415 N   0  0  0  0  0  0
  -25.4257  -15.1870   20.4006 N   0  0  0  0  0  0
  -31.6833  -14.9874   20.0844 O   0  0  0  0  0  0
  -21.6636   -6.8878   21.4241 O   0  0  0  0  0  0
  -22.3548  -14.5532   20.6705 O   0  0  0  0  0  0
  -24.6333  -31.8532   23.1966 C   0  0  0  0  0  0
  -25.9149  -32.4742   23.8321 C   0  0  1  0  0  0
  -27.2244  -27.2431   20.1373 C   0  0  0  0  0  0
  -25.5938  -33.8545   24.2242 N   0  0  0  0  0  0
  -23.4319  -30.4749   21.5400 C   0  0  2  0  0  0
  -24.8819  -28.9177   20.1124 C   0  0  0  0  0  0
  -22.7513  -29.4593   22.4899 C   0  0  0  0  0  0
  -18.0295  -28.1386   22.8482 C   0  0  0  0  0  0
  -24.1491  -36.7282   23.2638 C   0  0  0  0  0  0
  -25.9797  -30.7599   21.3808 C   0  0  0  0  0  0
  -26.0543  -29.3800   20.7248 C   0  0  0  0  0  0
  -27.2297  -28.5568   20.7238 C   0  0  0  0  0  0
  -26.0330  -26.8602   19.4830 C   0  0  0  0  0  0
  -24.8776  -27.6663   19.4787 C   0  0  0  0  0  0
  -23.6528  -29.8067   20.1576 C   0  0  0  0  0  0
  -25.4118  -36.3063   24.0322 C   0  0  1  0  0  0
  -20.5900  -28.3705   23.1258 C   0  0  2  0  0  0
  -20.6783  -26.9418   22.5405 C   0  0  0  0  0  0
  -19.5759  -26.6382   21.5209 C   0  0  0  0  0  0
  -18.1939  -26.7928   22.1620 C   0  0  0  0  0  0
  -19.1548  -28.8862   23.2865 C   0  0  0  0  0  0
  -18.9469  -30.1461   23.8888 C   0  0  0  0  0  0
  -17.6468  -30.6588   24.0560 C   0  0  0  0  0  0
  -25.9060  -34.9433   23.5086 C   0  0  0  0  0  0
  -16.5359  -29.9083   23.6331 C   0  0  0  0  0  0
  -16.7281  -28.6498   23.0356 C   0  0  0  0  0  0
  -26.4509  -31.6575   25.0721 C   0  0  0  0  0  0
  -25.3723  -31.3736   26.1435 C   0  0  0  0  0  0
  -27.0358  -30.2984   24.6231 C   0  0  0  0  0  0
  -27.6054  -32.4321   25.7502 C   0  0  0  0  0  0
  -27.5581  -37.1793   24.8460 C   0  0  0  0  0  0
  -21.4216  -29.3050   22.3643 N   0  0  0  0  0  0
  -26.4289  -37.3767   23.9409 N   0  0  0  0  0  0
  -24.7006  -31.0480   22.0951 N   0  0  0  0  0  0
  -23.4200  -28.8136   23.3010 O   0  0  0  0  0  0
  -28.3069  -26.3252   20.1653 O   0  0  0  0  0  0
  -26.5637  -34.8913   22.4658 O   0  0  0  0  0  0
  -23.5477  -32.1365   23.7247 O   0  0  0  0  0  0
  -30.0457  -18.4333   20.4437 C   0  0  0  0  0  0
  -28.0789  -17.5169   21.2946 C   0  0  0  0  0  0
  -29.3431  -17.1974   20.8648 C   0  0  0  0  0  0
  -29.2982  -19.6424   20.5779 C   0  0  0  0  0  0
  -29.8429  -23.7979   19.1754 C   0  0  0  0  0  0
  -28.9722  -23.6693   20.1950 C   0  0  0  0  0  0
  -30.7214  -22.6881   18.7482 C   0  0  0  0  0  0
  -30.8063  -21.4005   19.5971 C   0  0  0  0  0  0
  -28.8704  -22.2580   20.9529 C   0  0  2  0  0  0
  -29.5658  -21.7498   24.8322 C   0  0  0  0  0  0
  -28.0231  -24.9002   20.5967 C   0  0  0  0  0  0
  -29.4242  -22.4725   22.3879 C   0  0  0  0  0  0
  -29.1072  -21.3750   23.4176 C   0  0  0  0  0  0
  -29.5705  -21.0600   20.3045 N   0  0  0  0  0  0
  -29.6698  -15.7407   20.9728 N   0  0  0  0  0  0
  -31.4091  -22.7681   17.7280 O   0  0  0  0  0  0
  -27.7080  -19.2212   21.1755 S   0  0  0  0  0  0
  -31.4939  -12.6466   19.1585 H   0  0  0  0  0  0
  -30.4442  -11.4846   19.9198 H   0  0  0  0  0  0
  -29.8068  -11.7727   17.5074 H   0  0  0  0  0  0
  -29.6359  -13.4943   17.7344 H   0  0  0  0  0  0
  -27.9030  -11.2890   18.8909 H   0  0  0  0  0  0
  -27.3880  -12.5504   17.8022 H   0  0  0  0  0  0
  -27.6635  -14.2509   19.5143 H   0  0  0  0  0  0
  -28.7454  -12.0622   21.3573 H   0  0  0  0  0  0
  -28.4166  -13.6888   21.8621 H   0  0  0  0  0  0
  -25.2766   -9.5673   22.4761 H   0  0  0  0  0  0
  -24.0000   -7.4627   22.7473 H   0  0  0  0  0  0
  -21.0845   -8.8776   19.8951 H   0  0  0  0  0  0
  -22.3705  -10.9675   19.6169 H   0  0  0  0  0  0
  -21.2008   -7.6149   23.9715 H   0  0  0  0  0  0
  -21.1482   -6.0526   25.9078 H   0  0  0  0  0  0
  -22.0599   -2.7608   23.2852 H   0  0  0  0  0  0
  -22.4113  -11.9885   22.4805 H   0  0  0  0  0  0
  -21.1109  -13.1242   22.2613 H   0  0  0  0  0  0
  -24.6371  -15.8225   20.4563 H   0  0  0  0  0  0
  -26.2338  -15.6002   19.9532 H   0  0  0  0  0  0
  -26.7215  -32.5390   23.1061 H   0  0  0  0  0  0
  -25.0078  -33.9680   25.0383 H   0  0  0  0  0  0
  -22.7295  -31.2978   21.3912 H   0  0  0  0  0  0
  -23.3757  -35.9610   23.3283 H   0  0  0  0  0  0
  -24.3584  -36.8928   22.2057 H   0  0  0  0  0  0
  -23.7240  -37.6472   23.6681 H   0  0  0  0  0  0
  -26.1213  -31.5184   20.6098 H   0  0  0  0  0  0
  -26.8556  -30.8101   22.0160 H   0  0  0  0  0  0
  -28.1266  -28.9068   21.2155 H   0  0  0  0  0  0
  -25.9780  -25.9121   18.9684 H   0  0  0  0  0  0
  -23.9847  -27.3114   18.9824 H   0  0  0  0  0  0
  -23.7789  -30.5817   19.4008 H   0  0  0  0  0  0
  -22.7712  -29.2405   19.8518 H   0  0  0  0  0  0
  -25.1298  -36.1903   25.0813 H   0  0  0  0  0  0
  -20.9994  -28.3289   24.1379 H   0  0  0  0  0  0
  -20.5678  -26.2318   23.3615 H   0  0  0  0  0  0
  -21.6652  -26.7437   22.1205 H   0  0  0  0  0  0
  -19.6924  -25.6290   21.1248 H   0  0  0  0  0  0
  -19.6696  -27.3183   20.6731 H   0  0  0  0  0  0
  -17.4208  -26.6673   21.4024 H   0  0  0  0  0  0
  -18.0342  -26.0069   22.9017 H   0  0  0  0  0  0
  -19.7944  -30.7277   24.2256 H   0  0  0  0  0  0
  -17.5022  -31.6268   24.5162 H   0  0  0  0  0  0
  -15.5359  -30.2983   23.7659 H   0  0  0  0  0  0
  -15.8682  -28.0812   22.7082 H   0  0  0  0  0  0
  -24.5901  -30.7082   25.7762 H   0  0  0  0  0  0
  -24.8913  -32.2911   26.4836 H   0  0  0  0  0  0
  -25.8033  -30.8927   27.0226 H   0  0  0  0  0  0
  -26.2951  -29.6724   24.1242 H   0  0  0  0  0  0
  -27.4009  -29.7256   25.4766 H   0  0  0  0  0  0
  -27.8843  -30.4240   23.9501 H   0  0  0  0  0  0
  -27.2655  -33.3628   26.2056 H   0  0  0  0  0  0
  -28.3882  -32.6867   25.0345 H   0  0  0  0  0  0
  -28.0703  -31.8460   26.5440 H   0  0  0  0  0  0
  -28.2579  -38.0107   24.7524 H   0  0  0  0  0  0
  -28.1095  -36.2639   24.6262 H   0  0  0  0  0  0
  -27.2304  -37.1412   25.8863 H   0  0  0  0  0  0
  -20.9405  -29.8771   21.6842 H   0  0  0  0  0  0
  -26.0162  -38.2835   24.1420 H   0  0  0  0  0  0
  -31.0633  -18.3939   20.0827 H   0  0  0  0  0  0
  -27.3087  -16.8616   21.6828 H   0  0  0  0  0  0
  -29.9136  -24.7293   18.6348 H   0  0  0  0  0  0
  -31.6130  -21.5176   20.3212 H   0  0  0  0  0  0
  -31.0909  -20.5795   18.9385 H   0  0  0  0  0  0
  -27.8031  -22.0399   21.0112 H   0  0  0  0  0  0
  -29.3378  -20.9512   25.5391 H   0  0  0  0  0  0
  -29.0684  -22.6544   25.1840 H   0  0  0  0  0  0
  -30.6419  -21.9242   24.8659 H   0  0  0  0  0  0
  -27.9846  -24.9458   21.6833 H   0  0  0  0  0  0
  -27.0211  -24.5922   20.3055 H   0  0  0  0  0  0
  -29.0243  -23.3997   22.7947 H   0  0  0  0  0  0
  -30.5036  -22.6243   22.3416 H   0  0  0  0  0  0
  -28.0339  -21.1823   23.4303 H   0  0  0  0  0  0
  -29.5932  -20.4422   23.1346 H   0  0  0  0  0  0
  -28.8972  -15.2379   21.3794 H   0  0  0  0  0  0
  1 25  1  0  0  0
  1 30  2  0  0  0
  1 85  1  0  0  0
  2  3  1  0  0  0
  2 25  1  0  0  0
  2 88  1  0  0  0
  2 89  1  0  0  0
  3  4  1  0  0  0
  3 90  1  0  0  0
  3 91  1  0  0  0
  4  5  1  0  0  0
  4 92  1  0  0  0
  4 93  1  0  0  0
  5  6  1  0  0  0
  5 26  1  0  0  0
  5 94  1  0  0  0
  6 25  1  0  0  0
  6 95  1  0  0  0
  6 96  1  0  0  0
  7  8  2  0  0  0
  7 26  1  0  0  0
  7 29  1  0  0  0
  8  9  1  0  0  0
  8 22  1  0  0  0
  9 10  1  0  0  0
  9 27  2  0  0  0
 10 11  2  0  0  0
 10 15  1  0  0  0
 11 12  1  0  0  0
 11 97  1  0  0  0
 12 13  2  0  0  0
 12 98  1  0  0  0
 13 14  1  0  0  0
 13 31  1  0  0  0
 14 15  2  0  0  0
 14 99  1  0  0  0
 15100  1  0  0  0
 16 17  2  0  0  0
 16 21  1  0  0  0
 16 31  1  0  0  0
 17 18  1  0  0  0
 17101  1  0  0  0
 18 19  2  0  0  0
 18102  1  0  0  0
 19 20  1  0  0  0
 19 24  1  0  0  0
 20 21  2  0  0  0
 20103  1  0  0  0
 21 23  1  0  0  0
 22 28  1  0  0  0
 22 32  2  0  0  0
 26 27  1  0  0  0
 28104  1  0  0  0
 28105  1  0  0  0
 29106  1  0  0  0
 29107  1  0  0  0
 33 34  1  0  0  0
 33 66  1  0  0  0
 33 70  2  0  0  0
 34 36  1  0  0  0
 34 59  1  0  0  0
 34108  1  0  0  0
 35 44  2  0  0  0
 35 45  1  0  0  0
 35 68  1  0  0  0
 36 56  1  0  0  0
 36109  1  0  0  0
 37 39  1  0  0  0
 37 47  1  0  0  0
 37 66  1  0  0  0
 37110  1  0  0  0
 38 43  2  0  0  0
 38 46  1  0  0  0
 38 47  1  0  0  0
 39 64  1  0  0  0
 39 67  2  0  0  0
 40 52  1  0  0  0
 40 53  2  0  0  0
 40 58  1  0  0  0
 41111  1  0  0  0
 41112  1  0  0  0
 41113  1  0  0  0
 41 48  1  0  0  0
 42 43  1  0  0  0
 42 66  1  0  0  0
 42114  1  0  0  0
 42115  1  0  0  0
 43 44  1  0  0  0
 44116  1  0  0  0
 45 46  2  0  0  0
 45117  1  0  0  0
 46118  1  0  0  0
 47119  1  0  0  0
 47120  1  0  0  0
 48 56  1  0  0  0
 48 65  1  0  0  0
 48121  1  0  0  0
 49 50  1  0  0  0
 49 53  1  0  0  0
 49 64  1  0  0  0
 49122  1  0  0  0
 50 51  1  0  0  0
 50123  1  0  0  0
 50124  1  0  0  0
 51 52  1  0  0  0
 51125  1  0  0  0
 51126  1  0  0  0
 52127  1  0  0  0
 52128  1  0  0  0
 53 54  1  0  0  0
 54 55  2  0  0  0
 54129  1  0  0  0
 55 57  1  0  0  0
 55130  1  0  0  0
 56 69  2  0  0  0
 57 58  2  0  0  0
 57131  1  0  0  0
 58132  1  0  0  0
 59 60  1  0  0  0
 59 61  1  0  0  0
 59 62  1  0  0  0
 60133  1  0  0  0
 60134  1  0  0  0
 60135  1  0  0  0
 61136  1  0  0  0
 61137  1  0  0  0
 61138  1  0  0  0
 62139  1  0  0  0
 62140  1  0  0  0
 62141  1  0  0  0
 63 65  1  0  0  0
 63142  1  0  0  0
 63143  1  0  0  0
 63144  1  0  0  0
 64145  1  0  0  0
 65146  1  0  0  0
 68 81  1  0  0  0
 71 73  1  0  0  0
 71 74  2  0  0  0
 71147  1  0  0  0
 72 73  2  0  0  0
 72 87  1  0  0  0
 72148  1  0  0  0
 73 85  1  0  0  0
 74 84  1  0  0  0
 74 87  1  0  0  0
 75 76  2  0  0  0
 75 77  1  0  0  0
 75149  1  0  0  0
 76 79  1  0  0  0
 76 81  1  0  0  0
 77 78  1  0  0  0
 77 86  2  0  0  0
 78 84  1  0  0  0
 78150  1  0  0  0
 78151  1  0  0  0
 79 82  1  0  0  0
 79 84  1  0  0  0
 79152  1  0  0  0
 80 83  1  0  0  0
 80153  1  0  0  0
 80154  1  0  0  0
 80155  1  0  0  0
 81156  1  0  0  0
 81157  1  0  0  0
 82 83  1  0  0  0
 82158  1  0  0  0
 82159  1  0  0  0
 83160  1  0  0  0
 83161  1  0  0  0
 85162  1  0  0  0
M  ISO  4   1 100  68 101  81 101  85 100
M  END
> <chiral flag>
0

> <version>
0

> <s_m_source_file>
/data/baiqing/PycharmProjects/Reinvent-master-3.2/result/LINK_invent/BTK/process_docking_weight1_custom_product_contain_oxygen_bond_distance_aromatic_linkinvent_7_9_3/rearranged_h_0148.sdf

> <i_m_source_file_index>
18

> <r_mmod_Potential_Energy-OPLS-2005>
266.834564208984

> <r_mmod_Stretch_Energy-OPLS-2005>
142.307571411133

> <r_mmod_Bend_Energy-OPLS-2005>
223.464279174805

> <r_mmod_Torsional_Energy-OPLS-2005>
238.51155090332

> <r_mmod_Improper_Torsional_Energy-OPLS-2005>
4.69164896011353

> <r_mmod_Van_der_Waal_Energy-OPLS-2005>
120.395477294922

> <r_mmod_Electrostatic_Energy-OPLS-2005>
-326.730773925781

> <r_mmod_Solvation_Energy-OPLS-2005>
-233.519943237305

> <b_mmod_Minimization_Converged-OPLS-2005>
0

> <r_mmod_RMS_Derivative-OPLS-2005>
0.387818485498428

$$$$
18
                    3D
 Structure written by MMmdl.
149158  0  0  1  0            999 V2000
  -30.6334  -14.7190   20.4679 C   0  0  0  0  0  0
  -30.4322  -12.4403   19.4752 C   0  0  0  0  0  0
  -29.5100  -12.4987   18.2381 C   0  0  0  0  0  0
  -28.0381  -12.3212   18.6550 C   0  0  0  0  0  0
  -27.6444  -13.2272   19.8519 C   0  0  2  0  0  0
  -28.6880  -13.1644   20.9898 C   0  0  0  0  0  0
  -25.2540  -13.8197   20.5704 C   0  0  0  0  0  0
  -24.1817  -13.0449   20.9202 C   0  0  0  0  0  0
  -24.6400  -11.6924   20.8759 C   0  0  0  0  0  0
  -23.9073  -10.4300   21.0416 C   0  0  0  0  0  0
  -24.3624   -9.4213   21.9189 C   0  0  0  0  0  0
  -23.6299   -8.2249   22.0757 C   0  0  0  0  0  0
  -22.4282   -8.0286   21.3546 C   0  0  0  0  0  0
  -21.9919   -9.0263   20.4647 C   0  0  0  0  0  0
  -22.7251  -10.2143   20.3059 C   0  0  0  0  0  0
  -21.6853   -6.0744   22.5279 C   0  0  0  0  0  0
  -21.4012   -6.5649   23.8214 C   0  0  0  0  0  0
  -21.3658   -5.6798   24.9176 C   0  0  0  0  0  0
  -21.6040   -4.3061   24.7223 C   0  0  0  0  0  0
  -21.8820   -3.8155   23.4346 C   0  0  0  0  0  0
  -21.9197   -4.6971   22.3404 C   0  0  0  0  0  0
  -22.7839  -13.5239   21.1860 C   0  0  0  0  0  0
  -22.1664   -4.2161   21.0979 F   0  0  0  0  0  0
  -21.5629   -3.4538   25.7737 F   0  0  0  0  0  0
  -29.9931  -13.5029   20.4091 N   0  0  0  0  0  0
  -26.2958  -12.9387   20.3291 N   0  0  0  0  0  0
  -25.9324  -11.6539   20.5766 N   0  0  0  0  0  0
  -22.0478  -12.8228   22.0410 N   0  0  0  0  0  0
  -25.4252  -15.1918   20.4119 N   0  0  0  0  0  0
  -31.8170  -14.8068   20.1308 O   0  0  0  0  0  0
  -21.6645   -6.8886   21.4241 O   0  0  0  0  0  0
  -22.3531  -14.5549   20.6712 O   0  0  0  0  0  0
  -24.6313  -31.8564   23.2007 C   0  0  0  0  0  0
  -25.9150  -32.4762   23.8342 C   0  0  1  0  0  0
  -27.2107  -27.2638   20.1233 C   0  0  0  0  0  0
  -25.5942  -33.8567   24.2270 N   0  0  0  0  0  0
  -23.4266  -30.4833   21.5434 C   0  0  2  0  0  0
  -24.8707  -28.9379   20.1075 C   0  0  0  0  0  0
  -22.7504  -29.4624   22.4911 C   0  0  0  0  0  0
  -18.0293  -28.1403   22.8481 C   0  0  0  0  0  0
  -24.1488  -36.7280   23.2637 C   0  0  0  0  0  0
  -25.9741  -30.7716   21.3787 C   0  0  0  0  0  0
  -26.0451  -29.3955   20.7199 C   0  0  0  0  0  0
  -27.2167  -28.5698   20.7215 C   0  0  0  0  0  0
  -26.0141  -26.8913   19.4624 C   0  0  0  0  0  0
  -24.8606  -27.6932   19.4689 C   0  0  0  0  0  0
  -23.6435  -29.8253   20.1573 C   0  0  0  0  0  0
  -25.4115  -36.3069   24.0320 C   0  0  1  0  0  0
  -20.5901  -28.3705   23.1269 C   0  0  2  0  0  0
  -20.6789  -26.9426   22.5405 C   0  0  0  0  0  0
  -19.5760  -26.6395   21.5214 C   0  0  0  0  0  0
  -18.1937  -26.7950   22.1620 C   0  0  0  0  0  0
  -19.1546  -28.8869   23.2876 C   0  0  0  0  0  0
  -18.9472  -30.1472   23.8892 C   0  0  0  0  0  0
  -17.6473  -30.6603   24.0567 C   0  0  0  0  0  0
  -25.9060  -34.9442   23.5101 C   0  0  0  0  0  0
  -16.5362  -29.9101   23.6342 C   0  0  0  0  0  0
  -16.7279  -28.6523   23.0356 C   0  0  0  0  0  0
  -26.4522  -31.6587   25.0724 C   0  0  0  0  0  0
  -25.3742  -31.3745   26.1437 C   0  0  0  0  0  0
  -27.0363  -30.3005   24.6200 C   0  0  0  0  0  0
  -27.6066  -32.4326   25.7506 C   0  0  0  0  0  0
  -27.5574  -37.1801   24.8471 C   0  0  0  0  0  0
  -21.4212  -29.3060   22.3661 N   0  0  0  0  0  0
  -26.4289  -37.3764   23.9411 N   0  0  0  0  0  0
  -24.6970  -31.0557   22.0967 N   0  0  0  0  0  0
  -23.4215  -28.8155   23.2995 O   0  0  0  0  0  0
  -28.2853  -26.3414   20.2058 O   0  0  0  0  0  0
  -26.5623  -34.8913   22.4665 O   0  0  0  0  0  0
  -23.5472  -32.1366   23.7327 O   0  0  0  0  0  0
  -29.9129  -20.6841   21.3822 C   0  0  0  0  0  0
  -30.1117  -19.2511   21.3236 C   0  0  0  0  0  0
  -29.3633  -18.5072   20.3516 C   0  0  0  0  0  0
  -29.0963  -21.1430   20.3414 C   0  0  0  0  0  0
  -28.9066  -23.7125   20.4409 C   0  0  0  0  0  0
  -30.9749  -18.0618   21.6540 C   0  0  0  0  0  0
  -30.3306  -17.2952   20.3999 C   0  0  1  0  0  0
  -27.9794  -24.8981   19.9011 C   0  0  0  0  0  0
  -28.6211  -22.4237   20.0218 N   0  0  0  0  0  0
  -29.8883  -15.8646   20.6817 N   0  0  0  0  0  0
  -29.8392  -23.9598   21.2115 O   0  0  0  0  0  0
  -28.7310  -19.7325   19.2480 S   0  0  0  0  0  0
  -31.4735  -12.5590   19.1699 H   0  0  0  0  0  0
  -30.3725  -11.4632   19.9572 H   0  0  0  0  0  0
  -29.7906  -11.7256   17.5217 H   0  0  0  0  0  0
  -29.6368  -13.4537   17.7251 H   0  0  0  0  0  0
  -27.9016  -11.2736   18.9271 H   0  0  0  0  0  0
  -27.3772  -12.5021   17.8067 H   0  0  0  0  0  0
  -27.6413  -14.2466   19.4650 H   0  0  0  0  0  0
  -28.7181  -12.1710   21.4400 H   0  0  0  0  0  0
  -28.4244  -13.8571   21.7911 H   0  0  0  0  0  0
  -25.2767   -9.5695   22.4768 H   0  0  0  0  0  0
  -24.0009   -7.4641   22.7476 H   0  0  0  0  0  0
  -21.0854   -8.8776   19.8952 H   0  0  0  0  0  0
  -22.3702  -10.9680   19.6170 H   0  0  0  0  0  0
  -21.1993   -7.6153   23.9723 H   0  0  0  0  0  0
  -21.1478   -6.0526   25.9082 H   0  0  0  0  0  0
  -22.0598   -2.7614   23.2839 H   0  0  0  0  0  0
  -22.4085  -11.9873   22.4774 H   0  0  0  0  0  0
  -21.1097  -13.1258   22.2626 H   0  0  0  0  0  0
  -24.6574  -15.8455   20.5180 H   0  0  0  0  0  0
  -26.2729  -15.6301   20.0744 H   0  0  0  0  0  0
  -26.7206  -32.5423   23.1076 H   0  0  0  0  0  0
  -25.0112  -33.9710   25.0429 H   0  0  0  0  0  0
  -22.7235  -31.3067   21.4032 H   0  0  0  0  0  0
  -23.3748  -35.9615   23.3304 H   0  0  0  0  0  0
  -24.3586  -36.8897   22.2053 H   0  0  0  0  0  0
  -23.7243  -37.6482   23.6659 H   0  0  0  0  0  0
  -26.1150  -31.5324   20.6096 H   0  0  0  0  0  0
  -26.8529  -30.8196   22.0095 H   0  0  0  0  0  0
  -28.1105  -28.9121   21.2250 H   0  0  0  0  0  0
  -25.9216  -25.9502   18.9432 H   0  0  0  0  0  0
  -23.9620  -27.3424   18.9786 H   0  0  0  0  0  0
  -23.7717  -30.6053   19.4063 H   0  0  0  0  0  0
  -22.7598  -29.2639   19.8480 H   0  0  0  0  0  0
  -25.1305  -36.1900   25.0808 H   0  0  0  0  0  0
  -20.9998  -28.3277   24.1389 H   0  0  0  0  0  0
  -20.5708  -26.2315   23.3611 H   0  0  0  0  0  0
  -21.6655  -26.7465   22.1185 H   0  0  0  0  0  0
  -19.6919  -25.6304   21.1245 H   0  0  0  0  0  0
  -19.6694  -27.3207   20.6744 H   0  0  0  0  0  0
  -17.4213  -26.6696   21.4017 H   0  0  0  0  0  0
  -18.0331  -26.0109   22.9031 H   0  0  0  0  0  0
  -19.7946  -30.7296   24.2249 H   0  0  0  0  0  0
  -17.5033  -31.6278   24.5177 H   0  0  0  0  0  0
  -15.5369  -30.3014   23.7676 H   0  0  0  0  0  0
  -15.8676  -28.0852   22.7067 H   0  0  0  0  0  0
  -24.5928  -30.7070   25.7792 H   0  0  0  0  0  0
  -24.8915  -32.2919   26.4813 H   0  0  0  0  0  0
  -25.8059  -30.8973   27.0241 H   0  0  0  0  0  0
  -26.2940  -29.6755   24.1221 H   0  0  0  0  0  0
  -27.4061  -29.7252   25.4700 H   0  0  0  0  0  0
  -27.8816  -30.4301   23.9439 H   0  0  0  0  0  0
  -27.2664  -33.3642   26.2044 H   0  0  0  0  0  0
  -28.3905  -32.6858   25.0356 H   0  0  0  0  0  0
  -28.0698  -31.8468   26.5458 H   0  0  0  0  0  0
  -28.2598  -38.0092   24.7518 H   0  0  0  0  0  0
  -28.1060  -36.2625   24.6297 H   0  0  0  0  0  0
  -27.2304  -37.1456   25.8879 H   0  0  0  0  0  0
  -20.9386  -29.8789   21.6878 H   0  0  0  0  0  0
  -26.0157  -38.2831   24.1416 H   0  0  0  0  0  0
  -30.4188  -21.3167   22.0984 H   0  0  0  0  0  0
  -30.7293  -17.6177   22.6199 H   0  0  0  0  0  0
  -32.0442  -18.2489   21.5546 H   0  0  0  0  0  0
  -31.0033  -17.3466   19.5415 H   0  0  0  0  0  0
  -27.0037  -24.6518   20.3219 H   0  0  0  0  0  0
  -27.8999  -24.7869   18.8185 H   0  0  0  0  0  0
  -27.8868  -22.4125   19.3262 H   0  0  0  0  0  0
  -28.9179  -15.7327   20.9205 H   0  0  0  0  0  0
  1 25  1  0  0  0
  1 30  2  0  0  0
  1 80  1  0  0  0
  2  3  1  0  0  0
  2 25  1  0  0  0
  2 83  1  0  0  0
  2 84  1  0  0  0
  3  4  1  0  0  0
  3 85  1  0  0  0
  3 86  1  0  0  0
  4  5  1  0  0  0
  4 87  1  0  0  0
  4 88  1  0  0  0
  5  6  1  0  0  0
  5 26  1  0  0  0
  5 89  1  0  0  0
  6 25  1  0  0  0
  6 90  1  0  0  0
  6 91  1  0  0  0
  7  8  2  0  0  0
  7 26  1  0  0  0
  7 29  1  0  0  0
  8  9  1  0  0  0
  8 22  1  0  0  0
  9 10  1  0  0  0
  9 27  2  0  0  0
 10 11  2  0  0  0
 10 15  1  0  0  0
 11 12  1  0  0  0
 11 92  1  0  0  0
 12 13  2  0  0  0
 12 93  1  0  0  0
 13 14  1  0  0  0
 13 31  1  0  0  0
 14 15  2  0  0  0
 14 94  1  0  0  0
 15 95  1  0  0  0
 16 17  2  0  0  0
 16 21  1  0  0  0
 16 31  1  0  0  0
 17 18  1  0  0  0
 17 96  1  0  0  0
 18 19  2  0  0  0
 18 97  1  0  0  0
 19 20  1  0  0  0
 19 24  1  0  0  0
 20 21  2  0  0  0
 20 98  1  0  0  0
 21 23  1  0  0  0
 22 28  1  0  0  0
 22 32  2  0  0  0
 26 27  1  0  0  0
 28 99  1  0  0  0
 28100  1  0  0  0
 29101  1  0  0  0
 29102  1  0  0  0
 33 34  1  0  0  0
 33 66  1  0  0  0
 33 70  2  0  0  0
 34 36  1  0  0  0
 34 59  1  0  0  0
 34103  1  0  0  0
 35 44  2  0  0  0
 35 45  1  0  0  0
 35 68  1  0  0  0
 36 56  1  0  0  0
 36104  1  0  0  0
 37 39  1  0  0  0
 37 47  1  0  0  0
 37 66  1  0  0  0
 37105  1  0  0  0
 38 43  2  0  0  0
 38 46  1  0  0  0
 38 47  1  0  0  0
 39 64  1  0  0  0
 39 67  2  0  0  0
 40 52  1  0  0  0
 40 53  2  0  0  0
 40 58  1  0  0  0
 41106  1  0  0  0
 41107  1  0  0  0
 41108  1  0  0  0
 41 48  1  0  0  0
 42 43  1  0  0  0
 42 66  1  0  0  0
 42109  1  0  0  0
 42110  1  0  0  0
 43 44  1  0  0  0
 44111  1  0  0  0
 45 46  2  0  0  0
 45112  1  0  0  0
 46113  1  0  0  0
 47114  1  0  0  0
 47115  1  0  0  0
 48 56  1  0  0  0
 48 65  1  0  0  0
 48116  1  0  0  0
 49 50  1  0  0  0
 49 53  1  0  0  0
 49 64  1  0  0  0
 49117  1  0  0  0
 50 51  1  0  0  0
 50118  1  0  0  0
 50119  1  0  0  0
 51 52  1  0  0  0
 51120  1  0  0  0
 51121  1  0  0  0
 52122  1  0  0  0
 52123  1  0  0  0
 53 54  1  0  0  0
 54 55  2  0  0  0
 54124  1  0  0  0
 55 57  1  0  0  0
 55125  1  0  0  0
 56 69  2  0  0  0
 57 58  2  0  0  0
 57126  1  0  0  0
 58127  1  0  0  0
 59 60  1  0  0  0
 59 61  1  0  0  0
 59 62  1  0  0  0
 60128  1  0  0  0
 60129  1  0  0  0
 60130  1  0  0  0
 61131  1  0  0  0
 61132  1  0  0  0
 61133  1  0  0  0
 62134  1  0  0  0
 62135  1  0  0  0
 62136  1  0  0  0
 63 65  1  0  0  0
 63137  1  0  0  0
 63138  1  0  0  0
 63139  1  0  0  0
 64140  1  0  0  0
 65141  1  0  0  0
 68 78  1  0  0  0
 71 72  1  0  0  0
 71 74  2  0  0  0
 71142  1  0  0  0
 72 73  2  0  0  0
 72 76  1  0  0  0
 73 77  1  0  0  0
 73 82  1  0  0  0
 74 79  1  0  0  0
 74 82  1  0  0  0
 75 78  1  0  0  0
 75 79  1  0  0  0
 75 81  2  0  0  0
 76 77  1  0  0  0
 76143  1  0  0  0
 76144  1  0  0  0
 77 80  1  0  0  0
 77145  1  0  0  0
 78146  1  0  0  0
 78147  1  0  0  0
 79148  1  0  0  0
 80149  1  0  0  0
M  ISO  4   1 100  68 101  78 101  80 100
M  END
> <chiral flag>
0

> <version>
0

> <s_m_source_file>
/data/baiqing/PycharmProjects/Reinvent-master-3.2/result/LINK_invent/BTK/process_docking_weight1_custom_product_contain_oxygen_bond_distance_aromatic_linkinvent_7_9_3/rearranged_h_0148.sdf

> <i_m_source_file_index>
19

> <r_mmod_Potential_Energy-OPLS-2005>
507.019927978516

> <r_mmod_Stretch_Energy-OPLS-2005>
115.390693664551

> <r_mmod_Bend_Energy-OPLS-2005>
545.429260253906

> <r_mmod_Torsional_Energy-OPLS-2005>
251.017074584961

> <r_mmod_Improper_Torsional_Energy-OPLS-2005>
35.7174224853516

> <r_mmod_Van_der_Waal_Energy-OPLS-2005>
122.626304626465

> <r_mmod_Electrostatic_Energy-OPLS-2005>
-402.413787841797

> <r_mmod_Solvation_Energy-OPLS-2005>
-243.555145263672

> <b_mmod_Minimization_Converged-OPLS-2005>
0

> <r_mmod_RMS_Derivative-OPLS-2005>
1.47414362430573

$$$$
19
                    3D
 Structure written by MMmdl.
163172  0  0  1  0            999 V2000
  -30.6473  -14.6079   20.5184 C   0  0  0  0  0  0
  -30.4415  -12.3886   19.4374 C   0  0  0  0  0  0
  -29.5039  -12.5166   18.2151 C   0  0  0  0  0  0
  -28.0318  -12.3373   18.6386 C   0  0  0  0  0  0
  -27.6572  -13.1936   19.8768 C   0  0  2  0  0  0
  -28.7065  -13.0491   21.0019 C   0  0  0  0  0  0
  -25.2555  -13.8092   20.5671 C   0  0  0  0  0  0
  -24.1791  -13.0393   20.9162 C   0  0  0  0  0  0
  -24.6367  -11.6863   20.8754 C   0  0  0  0  0  0
  -23.9028  -10.4259   21.0410 C   0  0  0  0  0  0
  -24.3582   -9.4165   21.9175 C   0  0  0  0  0  0
  -23.6264   -8.2201   22.0754 C   0  0  0  0  0  0
  -22.4229   -8.0288   21.3553 C   0  0  0  0  0  0
  -21.9848   -9.0250   20.4652 C   0  0  0  0  0  0
  -22.7200  -10.2114   20.3059 C   0  0  0  0  0  0
  -21.6824   -6.0712   22.5255 C   0  0  0  0  0  0
  -21.4006   -6.5605   23.8196 C   0  0  0  0  0  0
  -21.3665   -5.6766   24.9168 C   0  0  0  0  0  0
  -21.6047   -4.3033   24.7207 C   0  0  0  0  0  0
  -21.8834   -3.8133   23.4323 C   0  0  0  0  0  0
  -21.9190   -4.6947   22.3392 C   0  0  0  0  0  0
  -22.7817  -13.5213   21.1837 C   0  0  0  0  0  0
  -22.1649   -4.2136   21.0965 F   0  0  0  0  0  0
  -21.5647   -3.4531   25.7713 F   0  0  0  0  0  0
  -30.0254  -13.3904   20.4396 N   0  0  0  0  0  0
  -26.2995  -12.9235   20.3407 N   0  0  0  0  0  0
  -25.9287  -11.6408   20.5789 N   0  0  0  0  0  0
  -22.0449  -12.8232   22.0402 N   0  0  0  0  0  0
  -25.4331  -15.1799   20.4025 N   0  0  0  0  0  0
  -31.7808  -14.7900   20.0623 O   0  0  0  0  0  0
  -21.6620   -6.8841   21.4210 O   0  0  0  0  0  0
  -22.3521  -14.5557   20.6726 O   0  0  0  0  0  0
  -24.6210  -31.8638   23.2058 C   0  0  0  0  0  0
  -25.9100  -32.4787   23.8352 C   0  0  1  0  0  0
  -27.2272  -27.3559   20.1251 C   0  0  0  0  0  0
  -25.5951  -33.8592   24.2310 N   0  0  0  0  0  0
  -23.4119  -30.4871   21.5470 C   0  0  2  0  0  0
  -24.8615  -28.9470   20.1140 C   0  0  0  0  0  0
  -22.7446  -29.4628   22.4943 C   0  0  0  0  0  0
  -18.0281  -28.1385   22.8446 C   0  0  0  0  0  0
  -24.1494  -36.7292   23.2619 C   0  0  0  0  0  0
  -25.9476  -30.8080   21.3684 C   0  0  0  0  0  0
  -26.0247  -29.4351   20.7210 C   0  0  0  0  0  0
  -27.2123  -28.6502   20.7188 C   0  0  0  0  0  0
  -26.0459  -26.9164   19.4836 C   0  0  0  0  0  0
  -24.8725  -27.6925   19.4844 C   0  0  0  0  0  0
  -23.6261  -29.8208   20.1611 C   0  0  0  0  0  0
  -25.4103  -36.3080   24.0331 C   0  0  1  0  0  0
  -20.5871  -28.3690   23.1293 C   0  0  2  0  0  0
  -20.6790  -26.9414   22.5425 C   0  0  0  0  0  0
  -19.5784  -26.6377   21.5207 C   0  0  0  0  0  0
  -18.1946  -26.7938   22.1581 C   0  0  0  0  0  0
  -19.1534  -28.8854   23.2867 C   0  0  0  0  0  0
  -18.9462  -30.1454   23.8886 C   0  0  0  0  0  0
  -17.6462  -30.6584   24.0561 C   0  0  0  0  0  0
  -25.9035  -34.9448   23.5110 C   0  0  0  0  0  0
  -16.5348  -29.9077   23.6320 C   0  0  0  0  0  0
  -16.7276  -28.6507   23.0319 C   0  0  0  0  0  0
  -26.4496  -31.6560   25.0683 C   0  0  0  0  0  0
  -25.3753  -31.3734   26.1428 C   0  0  0  0  0  0
  -27.0276  -30.2963   24.6086 C   0  0  0  0  0  0
  -27.6075  -32.4246   25.7469 C   0  0  0  0  0  0
  -27.5593  -37.1788   24.8439 C   0  0  0  0  0  0
  -21.4166  -29.3054   22.3699 N   0  0  0  0  0  0
  -26.4283  -37.3771   23.9420 N   0  0  0  0  0  0
  -24.6785  -31.0688   22.0988 N   0  0  0  0  0  0
  -23.4188  -28.8160   23.3000 O   0  0  0  0  0  0
  -28.3603  -26.5425   20.1560 O   0  0  0  0  0  0
  -26.5568  -34.8920   22.4642 O   0  0  0  0  0  0
  -23.5392  -32.1410   23.7427 O   0  0  0  0  0  0
  -28.3400  -18.2806   18.8779 C   0  0  0  0  0  0
  -29.0181  -19.4572   19.2474 C   0  0  0  0  0  0
  -28.6836  -17.0437   19.4505 C   0  0  0  0  0  0
  -30.3613  -18.1481   20.8184 C   0  0  0  0  0  0
  -30.0378  -19.4204   20.2217 C   0  0  0  0  0  0
  -29.7002  -16.9360   20.4230 C   0  0  0  0  0  0
  -30.8538  -20.6517   20.4795 C   0  0  0  0  0  0
  -30.6005  -24.3723   20.9512 C   0  0  0  0  0  0
  -31.4137  -23.0744   20.8241 C   0  0  0  0  0  0
  -29.0880  -22.6069   20.5210 C   0  0  0  0  0  0
  -29.3205  -24.1227   20.1440 C   0  0  2  0  0  0
  -29.5737  -24.2437   18.6226 C   0  0  0  0  0  0
  -28.1673  -25.1306   20.5246 C   0  0  0  0  0  0
  -30.4466  -21.9724   20.5751 N   0  0  0  0  0  0
  -29.9157  -15.6364   21.0308 N   0  0  0  0  0  0
  -32.1654  -20.4287   20.5773 N   0  3  0  0  0  0
  -31.4785  -12.5203   19.1256 H   0  0  0  0  0  0
  -30.3878  -11.3876   19.8643 H   0  0  0  0  0  0
  -29.7633  -11.7736   17.4579 H   0  0  0  0  0  0
  -29.6362  -13.4910   17.7418 H   0  0  0  0  0  0
  -27.8785  -11.2815   18.8603 H   0  0  0  0  0  0
  -27.3716  -12.5705   17.8015 H   0  0  0  0  0  0
  -27.6720  -14.2229   19.5410 H   0  0  0  0  0  0
  -28.7155  -12.0258   21.3816 H   0  0  0  0  0  0
  -28.4478  -13.6765   21.8573 H   0  0  0  0  0  0
  -25.2742   -9.5638   22.4741 H   0  0  0  0  0  0
  -23.9998   -7.4550   22.7437 H   0  0  0  0  0  0
  -21.0790   -8.8767   19.8925 H   0  0  0  0  0  0
  -22.3674  -10.9660   19.6167 H   0  0  0  0  0  0
  -21.1992   -7.6104   23.9692 H   0  0  0  0  0  0
  -21.1470   -6.0497   25.9069 H   0  0  0  0  0  0
  -22.0615   -2.7585   23.2837 H   0  0  0  0  0  0
  -22.4039  -11.9869   22.4769 H   0  0  0  0  0  0
  -21.1094  -13.1284   22.2648 H   0  0  0  0  0  0
  -24.6790  -15.8492   20.5170 H   0  0  0  0  0  0
  -26.2986  -15.6085   20.1078 H   0  0  0  0  0  0
  -26.7151  -32.5497   23.1101 H   0  0  0  0  0  0
  -25.0220  -33.9728   25.0535 H   0  0  0  0  0  0
  -22.7028  -31.3053   21.4055 H   0  0  0  0  0  0
  -23.3775  -35.9602   23.3224 H   0  0  0  0  0  0
  -24.3614  -36.8959   22.2048 H   0  0  0  0  0  0
  -23.7230  -37.6476   23.6660 H   0  0  0  0  0  0
  -26.0593  -31.5656   20.5910 H   0  0  0  0  0  0
  -26.8345  -30.8714   21.9854 H   0  0  0  0  0  0
  -28.1046  -29.0169   21.2050 H   0  0  0  0  0  0
  -26.0121  -25.9665   18.9689 H   0  0  0  0  0  0
  -23.9845  -27.3207   18.9916 H   0  0  0  0  0  0
  -23.7422  -30.5947   19.4013 H   0  0  0  0  0  0
  -22.7481  -29.2452   19.8607 H   0  0  0  0  0  0
  -25.1269  -36.1929   25.0821 H   0  0  0  0  0  0
  -20.9946  -28.3300   24.1423 H   0  0  0  0  0  0
  -20.5688  -26.2299   23.3629 H   0  0  0  0  0  0
  -21.6668  -26.7466   22.1245 H   0  0  0  0  0  0
  -19.6958  -25.6285   21.1255 H   0  0  0  0  0  0
  -19.6747  -27.3170   20.6728 H   0  0  0  0  0  0
  -17.4227  -26.6677   21.3976 H   0  0  0  0  0  0
  -18.0333  -26.0101   22.8993 H   0  0  0  0  0  0
  -19.7931  -30.7271   24.2268 H   0  0  0  0  0  0
  -17.5009  -31.6260   24.5167 H   0  0  0  0  0  0
  -15.5355  -30.2965   23.7661 H   0  0  0  0  0  0
  -15.8673  -28.0829   22.7020 H   0  0  0  0  0  0
  -24.6020  -30.6930   25.7845 H   0  0  0  0  0  0
  -24.8831  -32.2908   26.4666 H   0  0  0  0  0  0
  -25.8122  -30.9134   27.0299 H   0  0  0  0  0  0
  -26.2816  -29.6782   24.1081 H   0  0  0  0  0  0
  -27.3942  -29.7134   25.4546 H   0  0  0  0  0  0
  -27.8698  -30.4207   23.9276 H   0  0  0  0  0  0
  -27.2719  -33.3571   26.2013 H   0  0  0  0  0  0
  -28.3932  -32.6751   25.0330 H   0  0  0  0  0  0
  -28.0676  -31.8374   26.5430 H   0  0  0  0  0  0
  -28.2545  -38.0144   24.7535 H   0  0  0  0  0  0
  -28.1146  -36.2678   24.6161 H   0  0  0  0  0  0
  -27.2331  -37.1324   25.8842 H   0  0  0  0  0  0
  -20.9331  -29.8788   21.6926 H   0  0  0  0  0  0
  -26.0163  -38.2834   24.1461 H   0  0  0  0  0  0
  -27.5618  -18.3157   18.1284 H   0  0  0  0  0  0
  -28.7707  -20.3746   18.7355 H   0  0  0  0  0  0
  -28.1403  -16.1787   19.1145 H   0  0  0  0  0  0
  -31.1344  -18.0974   21.5733 H   0  0  0  0  0  0
  -31.1550  -25.2390   20.5895 H   0  0  0  0  0  0
  -30.3743  -24.5483   22.0057 H   0  0  0  0  0  0
  -32.0092  -22.9038   21.7239 H   0  0  0  0  0  0
  -32.1048  -23.1559   19.9813 H   0  0  0  0  0  0
  -28.4150  -22.1286   19.8119 H   0  0  0  0  0  0
  -28.6254  -22.5221   21.5078 H   0  0  0  0  0  0
  -30.3964  -23.6175   18.2785 H   0  0  0  0  0  0
  -29.8069  -25.2721   18.3451 H   0  0  0  0  0  0
  -28.6881  -23.9484   18.0578 H   0  0  0  0  0  0
  -28.0084  -25.0999   21.6047 H   0  0  0  0  0  0
  -27.2559  -24.7220   20.0946 H   0  0  0  0  0  0
  -29.0897  -15.2772   21.4858 H   0  0  0  0  0  0
  -32.5138  -19.5007   20.3861 H   0  0  0  0  0  0
  -32.8340  -21.1681   20.7077 H   0  0  0  0  0  0
  1 25  1  0  0  0
  1 30  2  0  0  0
  1 85  1  0  0  0
  2  3  1  0  0  0
  2 25  1  0  0  0
  2 87  1  0  0  0
  2 88  1  0  0  0
  3  4  1  0  0  0
  3 89  1  0  0  0
  3 90  1  0  0  0
  4  5  1  0  0  0
  4 91  1  0  0  0
  4 92  1  0  0  0
  5  6  1  0  0  0
  5 26  1  0  0  0
  5 93  1  0  0  0
  6 25  1  0  0  0
  6 94  1  0  0  0
  6 95  1  0  0  0
  7  8  2  0  0  0
  7 26  1  0  0  0
  7 29  1  0  0  0
  8  9  1  0  0  0
  8 22  1  0  0  0
  9 10  1  0  0  0
  9 27  2  0  0  0
 10 11  2  0  0  0
 10 15  1  0  0  0
 11 12  1  0  0  0
 11 96  1  0  0  0
 12 13  2  0  0  0
 12 97  1  0  0  0
 13 14  1  0  0  0
 13 31  1  0  0  0
 14 15  2  0  0  0
 14 98  1  0  0  0
 15 99  1  0  0  0
 16 17  2  0  0  0
 16 21  1  0  0  0
 16 31  1  0  0  0
 17 18  1  0  0  0
 17100  1  0  0  0
 18 19  2  0  0  0
 18101  1  0  0  0
 19 20  1  0  0  0
 19 24  1  0  0  0
 20 21  2  0  0  0
 20102  1  0  0  0
 21 23  1  0  0  0
 22 28  1  0  0  0
 22 32  2  0  0  0
 26 27  1  0  0  0
 28103  1  0  0  0
 28104  1  0  0  0
 29105  1  0  0  0
 29106  1  0  0  0
 33 34  1  0  0  0
 33 66  1  0  0  0
 33 70  2  0  0  0
 34 36  1  0  0  0
 34 59  1  0  0  0
 34107  1  0  0  0
 35 44  2  0  0  0
 35 45  1  0  0  0
 35 68  1  0  0  0
 36 56  1  0  0  0
 36108  1  0  0  0
 37 39  1  0  0  0
 37 47  1  0  0  0
 37 66  1  0  0  0
 37109  1  0  0  0
 38 43  2  0  0  0
 38 46  1  0  0  0
 38 47  1  0  0  0
 39 64  1  0  0  0
 39 67  2  0  0  0
 40 52  1  0  0  0
 40 53  2  0  0  0
 40 58  1  0  0  0
 41110  1  0  0  0
 41111  1  0  0  0
 41112  1  0  0  0
 41 48  1  0  0  0
 42 43  1  0  0  0
 42 66  1  0  0  0
 42113  1  0  0  0
 42114  1  0  0  0
 43 44  1  0  0  0
 44115  1  0  0  0
 45 46  2  0  0  0
 45116  1  0  0  0
 46117  1  0  0  0
 47118  1  0  0  0
 47119  1  0  0  0
 48 56  1  0  0  0
 48 65  1  0  0  0
 48120  1  0  0  0
 49 50  1  0  0  0
 49 53  1  0  0  0
 49 64  1  0  0  0
 49121  1  0  0  0
 50 51  1  0  0  0
 50122  1  0  0  0
 50123  1  0  0  0
 51 52  1  0  0  0
 51124  1  0  0  0
 51125  1  0  0  0
 52126  1  0  0  0
 52127  1  0  0  0
 53 54  1  0  0  0
 54 55  2  0  0  0
 54128  1  0  0  0
 55 57  1  0  0  0
 55129  1  0  0  0
 56 69  2  0  0  0
 57 58  2  0  0  0
 57130  1  0  0  0
 58131  1  0  0  0
 59 60  1  0  0  0
 59 61  1  0  0  0
 59 62  1  0  0  0
 60132  1  0  0  0
 60133  1  0  0  0
 60134  1  0  0  0
 61135  1  0  0  0
 61136  1  0  0  0
 61137  1  0  0  0
 62138  1  0  0  0
 62139  1  0  0  0
 62140  1  0  0  0
 63 65  1  0  0  0
 63141  1  0  0  0
 63142  1  0  0  0
 63143  1  0  0  0
 64144  1  0  0  0
 65145  1  0  0  0
 68 83  1  0  0  0
 71 72  2  0  0  0
 71 73  1  0  0  0
 71146  1  0  0  0
 72 75  1  0  0  0
 72147  1  0  0  0
 73 76  2  0  0  0
 73148  1  0  0  0
 74 75  2  0  0  0
 74 76  1  0  0  0
 74149  1  0  0  0
 75 77  1  0  0  0
 76 85  1  0  0  0
 77 84  1  0  0  0
 77 86  2  0  0  0
 78 79  1  0  0  0
 78 81  1  0  0  0
 78150  1  0  0  0
 78151  1  0  0  0
 79 84  1  0  0  0
 79152  1  0  0  0
 79153  1  0  0  0
 80 81  1  0  0  0
 80 84  1  0  0  0
 80154  1  0  0  0
 80155  1  0  0  0
 81 82  1  0  0  0
 81 83  1  0  0  0
 82156  1  0  0  0
 82157  1  0  0  0
 82158  1  0  0  0
 83159  1  0  0  0
 83160  1  0  0  0
 85161  1  0  0  0
 86162  1  0  0  0
 86163  1  0  0  0
M  CHG  1  86   1
M  ISO  4   1 100  68 101  83 101  85 100
M  END
> <chiral flag>
0

> <version>
0

> <s_m_source_file>
/data/baiqing/PycharmProjects/Reinvent-master-3.2/result/LINK_invent/BTK/process_docking_weight1_custom_product_contain_oxygen_bond_distance_aromatic_linkinvent_7_9_3/rearranged_h_0148.sdf

> <i_m_source_file_index>
20

> <r_mmod_Potential_Energy-OPLS-2005>
-38.9489936828613

> <r_mmod_Stretch_Energy-OPLS-2005>
67.9067687988281

> <r_mmod_Bend_Energy-OPLS-2005>
165.703414916992

> <r_mmod_Torsional_Energy-OPLS-2005>
327.254302978516

> <r_mmod_Improper_Torsional_Energy-OPLS-2005>
7.21761178970337

> <r_mmod_Van_der_Waal_Energy-OPLS-2005>
147.691268920898

> <r_mmod_Electrostatic_Energy-OPLS-2005>
-386.386871337891

> <r_mmod_Solvation_Energy-OPLS-2005>
-404.357543945312

> <b_mmod_Minimization_Converged-OPLS-2005>
0

> <r_mmod_RMS_Derivative-OPLS-2005>
3.96800708770752

$$$$
20
                    3D
 Structure written by MMmdl.
150158  0  0  1  0            999 V2000
  -30.6903  -14.4896   20.5481 C   0  0  0  0  0  0
  -30.4247  -12.3085   19.4289 C   0  0  0  0  0  0
  -29.4967  -12.4963   18.2105 C   0  0  0  0  0  0
  -28.0178  -12.3584   18.6228 C   0  0  0  0  0  0
  -27.6613  -13.2064   19.8731 C   0  0  2  0  0  0
  -28.7034  -12.9976   20.9958 C   0  0  0  0  0  0
  -25.2587  -13.8160   20.5680 C   0  0  0  0  0  0
  -24.1835  -13.0440   20.9180 C   0  0  0  0  0  0
  -24.6388  -11.6907   20.8737 C   0  0  0  0  0  0
  -23.9052  -10.4295   21.0405 C   0  0  0  0  0  0
  -24.3607   -9.4210   21.9182 C   0  0  0  0  0  0
  -23.6286   -8.2242   22.0750 C   0  0  0  0  0  0
  -22.4265   -8.0281   21.3544 C   0  0  0  0  0  0
  -21.9903   -9.0251   20.4645 C   0  0  0  0  0  0
  -22.7226  -10.2134   20.3054 C   0  0  0  0  0  0
  -21.6853   -6.0732   22.5279 C   0  0  0  0  0  0
  -21.4011   -6.5634   23.8212 C   0  0  0  0  0  0
  -21.3660   -5.6789   24.9175 C   0  0  0  0  0  0
  -21.6045   -4.3054   24.7225 C   0  0  0  0  0  0
  -21.8820   -3.8145   23.4347 C   0  0  0  0  0  0
  -21.9191   -4.6960   22.3404 C   0  0  0  0  0  0
  -22.7859  -13.5242   21.1847 C   0  0  0  0  0  0
  -22.1661   -4.2145   21.0984 F   0  0  0  0  0  0
  -21.5632   -3.4538   25.7737 F   0  0  0  0  0  0
  -30.0340  -13.3010   20.4429 N   0  0  0  0  0  0
  -26.3022  -12.9331   20.3360 N   0  0  0  0  0  0
  -25.9316  -11.6491   20.5764 N   0  0  0  0  0  0
  -22.0498  -12.8235   22.0403 N   0  0  0  0  0  0
  -25.4322  -15.1879   20.4091 N   0  0  0  0  0  0
  -31.8300  -14.6542   20.1032 O   0  0  0  0  0  0
  -21.6639   -6.8874   21.4240 O   0  0  0  0  0  0
  -22.3549  -14.5551   20.6701 O   0  0  0  0  0  0
  -24.6146  -31.8677   23.2092 C   0  0  0  0  0  0
  -25.9034  -32.4824   23.8401 C   0  0  1  0  0  0
  -27.2336  -27.4280   20.1035 C   0  0  0  0  0  0
  -25.5890  -33.8619   24.2335 N   0  0  0  0  0  0
  -23.4044  -30.4909   21.5492 C   0  0  2  0  0  0
  -24.8535  -28.9578   20.1122 C   0  0  0  0  0  0
  -22.7417  -29.4656   22.4978 C   0  0  0  0  0  0
  -18.0276  -28.1379   22.8492 C   0  0  0  0  0  0
  -24.1486  -36.7311   23.2640 C   0  0  0  0  0  0
  -25.9345  -30.8324   21.3640 C   0  0  0  0  0  0
  -26.0146  -29.4668   20.7100 C   0  0  0  0  0  0
  -27.2112  -28.7102   20.7005 C   0  0  0  0  0  0
  -26.0603  -26.9408   19.4884 C   0  0  0  0  0  0
  -24.8718  -27.6944   19.4963 C   0  0  0  0  0  0
  -23.6144  -29.8237   20.1633 C   0  0  0  0  0  0
  -25.4105  -36.3110   24.0344 C   0  0  1  0  0  0
  -20.5868  -28.3662   23.1313 C   0  0  2  0  0  0
  -20.6763  -26.9395   22.5417 C   0  0  0  0  0  0
  -19.5742  -26.6387   21.5211 C   0  0  0  0  0  0
  -18.1923  -26.7925   22.1626 C   0  0  0  0  0  0
  -19.1526  -28.8836   23.2901 C   0  0  0  0  0  0
  -18.9453  -30.1445   23.8909 C   0  0  0  0  0  0
  -17.6456  -30.6583   24.0565 C   0  0  0  0  0  0
  -25.9030  -34.9476   23.5138 C   0  0  0  0  0  0
  -16.5348  -29.9084   23.6330 C   0  0  0  0  0  0
  -16.7266  -28.6502   23.0349 C   0  0  0  0  0  0
  -26.4464  -31.6594   25.0721 C   0  0  0  0  0  0
  -25.3734  -31.3696   26.1474 C   0  0  0  0  0  0
  -27.0295  -30.3038   24.6087 C   0  0  0  0  0  0
  -27.6055  -32.4300   25.7474 C   0  0  0  0  0  0
  -27.5583  -37.1810   24.8468 C   0  0  0  0  0  0
  -21.4144  -29.3035   22.3722 N   0  0  0  0  0  0
  -26.4295  -37.3788   23.9409 N   0  0  0  0  0  0
  -24.6696  -31.0776   22.0998 N   0  0  0  0  0  0
  -23.4186  -28.8205   23.3027 O   0  0  0  0  0  0
  -28.3683  -26.6435   20.1211 O   0  0  0  0  0  0
  -26.5593  -34.8925   22.4701 O   0  0  0  0  0  0
  -23.5333  -32.1432   23.7477 O   0  0  0  0  0  0
  -31.0316  -18.9835   20.3654 C   0  0  0  0  0  0
  -31.2264  -17.5671   20.4148 C   0  0  0  0  0  0
  -29.7954  -19.4008   20.8021 C   0  0  0  0  0  0
  -30.1423  -16.8593   20.8847 C   0  0  0  0  0  0
  -28.8916  -22.9708   20.8234 C   0  0  0  0  0  0
  -29.1336  -24.2716   20.5058 C   0  0  0  0  0  0
  -29.7577  -21.8412   20.4732 C   0  0  0  0  0  0
  -28.2214  -25.4390   20.9055 C   0  0  0  0  0  0
  -29.2637  -20.6582   20.9042 N   0  0  0  0  0  0
  -29.9554  -15.5112   21.0428 N   0  0  0  0  0  0
  -30.8204  -21.9503   19.8537 O   0  0  0  0  0  0
  -30.1971  -24.7066   19.8069 O   0  0  0  0  0  0
  -28.8669  -17.9935   21.2957 S   0  0  0  0  0  0
  -31.4694  -12.4043   19.1275 H   0  0  0  0  0  0
  -30.3253  -11.3004   19.8349 H   0  0  0  0  0  0
  -29.7381  -11.7641   17.4389 H   0  0  0  0  0  0
  -29.6656  -13.4778   17.7641 H   0  0  0  0  0  0
  -27.8317  -11.3036   18.8283 H   0  0  0  0  0  0
  -27.3666  -12.6236   17.7893 H   0  0  0  0  0  0
  -27.7020  -14.2521   19.5668 H   0  0  0  0  0  0
  -28.6808  -11.9642   21.3454 H   0  0  0  0  0  0
  -28.4651  -13.6048   21.8700 H   0  0  0  0  0  0
  -25.2754   -9.5685   22.4754 H   0  0  0  0  0  0
  -23.9999   -7.4633   22.7468 H   0  0  0  0  0  0
  -21.0836   -8.8766   19.8954 H   0  0  0  0  0  0
  -22.3684  -10.9669   19.6159 H   0  0  0  0  0  0
  -21.2002   -7.6141   23.9712 H   0  0  0  0  0  0
  -21.1483   -6.0521   25.9077 H   0  0  0  0  0  0
  -22.0598   -2.7605   23.2849 H   0  0  0  0  0  0
  -22.4111  -11.9893   22.4788 H   0  0  0  0  0  0
  -21.1118  -13.1265   22.2613 H   0  0  0  0  0  0
  -24.6659  -15.8436   20.5144 H   0  0  0  0  0  0
  -26.2838  -15.6245   20.0799 H   0  0  0  0  0  0
  -26.7111  -32.5536   23.1172 H   0  0  0  0  0  0
  -25.0041  -33.9784   25.0482 H   0  0  0  0  0  0
  -22.6934  -31.3077   21.4089 H   0  0  0  0  0  0
  -23.3746  -35.9647   23.3313 H   0  0  0  0  0  0
  -24.3580  -36.8904   22.2051 H   0  0  0  0  0  0
  -23.7244  -37.6525   23.6641 H   0  0  0  0  0  0
  -26.0486  -31.5996   20.5971 H   0  0  0  0  0  0
  -26.8223  -30.8859   21.9822 H   0  0  0  0  0  0
  -28.1062  -29.0943   21.1703 H   0  0  0  0  0  0
  -26.0644  -25.9707   19.0103 H   0  0  0  0  0  0
  -23.9809  -27.2985   19.0275 H   0  0  0  0  0  0
  -23.7219  -30.5996   19.4044 H   0  0  0  0  0  0
  -22.7388  -29.2429   19.8676 H   0  0  0  0  0  0
  -25.1281  -36.1980   25.0837 H   0  0  0  0  0  0
  -20.9973  -28.3231   24.1429 H   0  0  0  0  0  0
  -20.5665  -26.2266   23.3604 H   0  0  0  0  0  0
  -21.6632  -26.7434   22.1210 H   0  0  0  0  0  0
  -19.6895  -25.6304   21.1228 H   0  0  0  0  0  0
  -19.6682  -27.3212   20.6752 H   0  0  0  0  0  0
  -17.4192  -26.6677   21.4027 H   0  0  0  0  0  0
  -18.0318  -26.0068   22.9021 H   0  0  0  0  0  0
  -19.7929  -30.7256   24.2283 H   0  0  0  0  0  0
  -17.5012  -31.6264   24.5165 H   0  0  0  0  0  0
  -15.5351  -30.2990   23.7643 H   0  0  0  0  0  0
  -15.8666  -28.0829   22.7051 H   0  0  0  0  0  0
  -24.5899  -30.7050   25.7812 H   0  0  0  0  0  0
  -24.8930  -32.2846   26.4946 H   0  0  0  0  0  0
  -25.8089  -30.8848   27.0219 H   0  0  0  0  0  0
  -26.2841  -29.6795   24.1148 H   0  0  0  0  0  0
  -27.4084  -29.7269   25.4533 H   0  0  0  0  0  0
  -27.8664  -30.4365   23.9227 H   0  0  0  0  0  0
  -27.2704  -33.3593   26.2089 H   0  0  0  0  0  0
  -28.3846  -32.6865   25.0285 H   0  0  0  0  0  0
  -28.0748  -31.8395   26.5351 H   0  0  0  0  0  0
  -28.2614  -38.0096   24.7505 H   0  0  0  0  0  0
  -28.1064  -36.2626   24.6306 H   0  0  0  0  0  0
  -27.2298  -37.1479   25.8871 H   0  0  0  0  0  0
  -20.9300  -29.8765   21.6955 H   0  0  0  0  0  0
  -26.0185  -38.2867   24.1403 H   0  0  0  0  0  0
  -31.8176  -19.6347   20.0112 H   0  0  0  0  0  0
  -32.1622  -17.1338   20.0931 H   0  0  0  0  0  0
  -27.9918  -22.7641   21.3864 H   0  0  0  0  0  0
  -28.4360  -25.6881   21.9456 H   0  0  0  0  0  0
  -27.1960  -25.0661   20.8965 H   0  0  0  0  0  0
  -28.3647  -20.7127   21.3631 H   0  0  0  0  0  0
  -29.0579  -15.2342   21.4110 H   0  0  0  0  0  0
  -30.7297  -23.9449   19.5960 H   0  0  0  0  0  0
  1 25  1  0  0  0
  1 30  2  0  0  0
  1 80  1  0  0  0
  2  3  1  0  0  0
  2 25  1  0  0  0
  2 84  1  0  0  0
  2 85  1  0  0  0
  3  4  1  0  0  0
  3 86  1  0  0  0
  3 87  1  0  0  0
  4  5  1  0  0  0
  4 88  1  0  0  0
  4 89  1  0  0  0
  5  6  1  0  0  0
  5 26  1  0  0  0
  5 90  1  0  0  0
  6 25  1  0  0  0
  6 91  1  0  0  0
  6 92  1  0  0  0
  7  8  2  0  0  0
  7 26  1  0  0  0
  7 29  1  0  0  0
  8  9  1  0  0  0
  8 22  1  0  0  0
  9 10  1  0  0  0
  9 27  2  0  0  0
 10 11  2  0  0  0
 10 15  1  0  0  0
 11 12  1  0  0  0
 11 93  1  0  0  0
 12 13  2  0  0  0
 12 94  1  0  0  0
 13 14  1  0  0  0
 13 31  1  0  0  0
 14 15  2  0  0  0
 14 95  1  0  0  0
 15 96  1  0  0  0
 16 17  2  0  0  0
 16 21  1  0  0  0
 16 31  1  0  0  0
 17 18  1  0  0  0
 17 97  1  0  0  0
 18 19  2  0  0  0
 18 98  1  0  0  0
 19 20  1  0  0  0
 19 24  1  0  0  0
 20 21  2  0  0  0
 20 99  1  0  0  0
 21 23  1  0  0  0
 22 28  1  0  0  0
 22 32  2  0  0  0
 26 27  1  0  0  0
 28100  1  0  0  0
 28101  1  0  0  0
 29102  1  0  0  0
 29103  1  0  0  0
 33 34  1  0  0  0
 33 66  1  0  0  0
 33 70  2  0  0  0
 34 36  1  0  0  0
 34 59  1  0  0  0
 34104  1  0  0  0
 35 44  2  0  0  0
 35 45  1  0  0  0
 35 68  1  0  0  0
 36 56  1  0  0  0
 36105  1  0  0  0
 37 39  1  0  0  0
 37 47  1  0  0  0
 37 66  1  0  0  0
 37106  1  0  0  0
 38 43  2  0  0  0
 38 46  1  0  0  0
 38 47  1  0  0  0
 39 64  1  0  0  0
 39 67  2  0  0  0
 40 52  1  0  0  0
 40 53  2  0  0  0
 40 58  1  0  0  0
 41107  1  0  0  0
 41108  1  0  0  0
 41109  1  0  0  0
 41 48  1  0  0  0
 42 43  1  0  0  0
 42 66  1  0  0  0
 42110  1  0  0  0
 42111  1  0  0  0
 43 44  1  0  0  0
 44112  1  0  0  0
 45 46  2  0  0  0
 45113  1  0  0  0
 46114  1  0  0  0
 47115  1  0  0  0
 47116  1  0  0  0
 48 56  1  0  0  0
 48 65  1  0  0  0
 48117  1  0  0  0
 49 50  1  0  0  0
 49 53  1  0  0  0
 49 64  1  0  0  0
 49118  1  0  0  0
 50 51  1  0  0  0
 50119  1  0  0  0
 50120  1  0  0  0
 51 52  1  0  0  0
 51121  1  0  0  0
 51122  1  0  0  0
 52123  1  0  0  0
 52124  1  0  0  0
 53 54  1  0  0  0
 54 55  2  0  0  0
 54125  1  0  0  0
 55 57  1  0  0  0
 55126  1  0  0  0
 56 69  2  0  0  0
 57 58  2  0  0  0
 57127  1  0  0  0
 58128  1  0  0  0
 59 60  1  0  0  0
 59 61  1  0  0  0
 59 62  1  0  0  0
 60129  1  0  0  0
 60130  1  0  0  0
 60131  1  0  0  0
 61132  1  0  0  0
 61133  1  0  0  0
 61134  1  0  0  0
 62135  1  0  0  0
 62136  1  0  0  0
 62137  1  0  0  0
 63 65  1  0  0  0
 63138  1  0  0  0
 63139  1  0  0  0
 63140  1  0  0  0
 64141  1  0  0  0
 65142  1  0  0  0
 68 78  1  0  0  0
 71 72  1  0  0  0
 71 73  2  0  0  0
 71143  1  0  0  0
 72 74  2  0  0  0
 72144  1  0  0  0
 73 79  1  0  0  0
 73 83  1  0  0  0
 74 80  1  0  0  0
 74 83  1  0  0  0
 75 76  2  0  0  0
 75 77  1  0  0  0
 75145  1  0  0  0
 76 78  1  0  0  0
 76 82  1  0  0  0
 77 79  1  0  0  0
 77 81  2  0  0  0
 78146  1  0  0  0
 78147  1  0  0  0
 79148  1  0  0  0
 80149  1  0  0  0
 82150  1  0  0  0
M  ISO  4   1 100  68 101  78 101  80 100
M  END
> <chiral flag>
0

> <version>
0

> <s_m_source_file>
/data/baiqing/PycharmProjects/Reinvent-master-3.2/result/LINK_invent/BTK/process_docking_weight1_custom_product_contain_oxygen_bond_distance_aromatic_linkinvent_7_9_3/rearranged_h_0148.sdf

> <i_m_source_file_index>
21

> <r_mmod_Potential_Energy-OPLS-2005>
-86.7134017944336

> <r_mmod_Stretch_Energy-OPLS-2005>
38.6178703308105

> <r_mmod_Bend_Energy-OPLS-2005>
108.510467529297

> <r_mmod_Torsional_Energy-OPLS-2005>
223.41276550293

> <r_mmod_Improper_Torsional_Energy-OPLS-2005>
3.73283290863037

> <r_mmod_Van_der_Waal_Energy-OPLS-2005>
141.299591064453

> <r_mmod_Electrostatic_Energy-OPLS-2005>
-384.455932617188

> <r_mmod_Solvation_Energy-OPLS-2005>
-233.229705810547

> <b_mmod_Minimization_Converged-OPLS-2005>
0

> <r_mmod_RMS_Derivative-OPLS-2005>
0.879473567008972

$$$$
21
                    3D
 Structure written by MMmdl.
167176  0  0  1  0            999 V2000
  -30.7021  -14.4474   20.5435 C   0  0  0  0  0  0
  -30.4242  -12.2829   19.4124 C   0  0  0  0  0  0
  -29.4913  -12.4916   18.2019 C   0  0  0  0  0  0
  -28.0119  -12.3557   18.6187 C   0  0  0  0  0  0
  -27.6585  -13.1908   19.8787 C   0  0  2  0  0  0
  -28.7087  -12.9783   20.9945 C   0  0  0  0  0  0
  -25.2576  -13.8097   20.5692 C   0  0  0  0  0  0
  -24.1818  -13.0404   20.9191 C   0  0  0  0  0  0
  -24.6367  -11.6869   20.8765 C   0  0  0  0  0  0
  -23.9039  -10.4269   21.0424 C   0  0  0  0  0  0
  -24.3604   -9.4186   21.9194 C   0  0  0  0  0  0
  -23.6284   -8.2222   22.0759 C   0  0  0  0  0  0
  -22.4269   -8.0268   21.3544 C   0  0  0  0  0  0
  -21.9897   -9.0241   20.4649 C   0  0  0  0  0  0
  -22.7220  -10.2121   20.3066 C   0  0  0  0  0  0
  -21.6845   -6.0732   22.5280 C   0  0  0  0  0  0
  -21.4006   -6.5637   23.8215 C   0  0  0  0  0  0
  -21.3656   -5.6789   24.9176 C   0  0  0  0  0  0
  -21.6044   -4.3052   24.7225 C   0  0  0  0  0  0
  -21.8817   -3.8146   23.4346 C   0  0  0  0  0  0
  -21.9188   -4.6963   22.3402 C   0  0  0  0  0  0
  -22.7844  -13.5224   21.1840 C   0  0  0  0  0  0
  -22.1658   -4.2150   21.0980 F   0  0  0  0  0  0
  -21.5629   -3.4535   25.7738 F   0  0  0  0  0  0
  -30.0394  -13.2667   20.4311 N   0  0  0  0  0  0
  -26.3010  -12.9241   20.3424 N   0  0  0  0  0  0
  -25.9291  -11.6422   20.5819 N   0  0  0  0  0  0
  -22.0473  -12.8241   22.0405 N   0  0  0  0  0  0
  -25.4273  -15.1807   20.4056 N   0  0  0  0  0  0
  -31.8596  -14.6242   20.1506 O   0  0  0  0  0  0
  -21.6634   -6.8870   21.4240 O   0  0  0  0  0  0
  -22.3538  -14.5529   20.6680 O   0  0  0  0  0  0
  -24.6124  -31.8695   23.2115 C   0  0  0  0  0  0
  -25.9028  -32.4827   23.8400 C   0  0  1  0  0  0
  -27.2404  -27.4552   20.0784 C   0  0  0  0  0  0
  -25.5892  -33.8627   24.2333 N   0  0  0  0  0  0
  -23.3974  -30.4937   21.5527 C   0  0  2  0  0  0
  -24.8396  -28.9598   20.1176 C   0  0  0  0  0  0
  -22.7387  -29.4670   22.5015 C   0  0  0  0  0  0
  -18.0266  -28.1375   22.8499 C   0  0  0  0  0  0
  -24.1487  -36.7318   23.2639 C   0  0  0  0  0  0
  -25.9236  -30.8408   21.3593 C   0  0  0  0  0  0
  -25.9979  -29.4764   20.7073 C   0  0  0  0  0  0
  -27.1946  -28.7307   20.6838 C   0  0  0  0  0  0
  -26.0537  -26.9420   19.5038 C   0  0  0  0  0  0
  -24.8611  -27.6897   19.5177 C   0  0  0  0  0  0
  -23.6016  -29.8245   20.1673 C   0  0  0  0  0  0
  -25.4108  -36.3117   24.0340 C   0  0  1  0  0  0
  -20.5852  -28.3655   23.1333 C   0  0  2  0  0  0
  -20.6756  -26.9397   22.5420 C   0  0  0  0  0  0
  -19.5737  -26.6387   21.5213 C   0  0  0  0  0  0
  -18.1916  -26.7922   22.1624 C   0  0  0  0  0  0
  -19.1515  -28.8831   23.2914 C   0  0  0  0  0  0
  -18.9444  -30.1436   23.8922 C   0  0  0  0  0  0
  -17.6448  -30.6581   24.0567 C   0  0  0  0  0  0
  -25.9034  -34.9480   23.5133 C   0  0  0  0  0  0
  -16.5339  -29.9088   23.6324 C   0  0  0  0  0  0
  -16.7257  -28.6503   23.0351 C   0  0  0  0  0  0
  -26.4467  -31.6599   25.0718 C   0  0  0  0  0  0
  -25.3744  -31.3686   26.1473 C   0  0  0  0  0  0
  -27.0292  -30.3050   24.6062 C   0  0  0  0  0  0
  -27.6051  -32.4310   25.7474 C   0  0  0  0  0  0
  -27.5583  -37.1813   24.8466 C   0  0  0  0  0  0
  -21.4121  -29.3028   22.3747 N   0  0  0  0  0  0
  -26.4296  -37.3799   23.9410 N   0  0  0  0  0  0
  -24.6631  -31.0817   22.1001 N   0  0  0  0  0  0
  -23.4172  -28.8215   23.3047 O   0  0  0  0  0  0
  -28.4677  -26.8199   20.0864 O   0  0  0  0  0  0
  -26.5595  -34.8929   22.4693 O   0  0  0  0  0  0
  -23.5324  -32.1436   23.7529 O   0  0  0  0  0  0
  -28.1441  -19.9104   19.9146 C   0  0  0  0  0  0
  -27.8511  -18.3316   18.0805 C   0  0  0  0  0  0
  -27.3596  -20.6881   17.7353 C   0  0  0  0  0  0
  -28.2159  -18.5852   19.4224 C   0  0  0  0  0  0
  -27.7209  -20.9680   19.0692 C   0  0  0  0  0  0
  -27.4299  -19.3756   17.2402 C   0  0  0  0  0  0
  -28.2748  -22.9834   20.4311 C   0  0  0  0  0  0
  -29.3592  -17.6954   21.6121 C   0  0  0  0  0  0
  -29.9480  -16.3218   21.9938 C   0  0  0  0  0  0
  -29.4909  -16.3624   19.6735 C   0  0  0  0  0  0
  -28.5898  -17.4089   20.3237 C   0  0  2  0  0  0
  -28.5240  -25.2592   18.1715 C   0  0  0  0  0  0
  -30.2250  -25.3582   19.9844 C   0  0  0  0  0  0
  -27.9164  -24.4676   20.6000 C   0  0  0  0  0  0
  -28.7126  -25.4604   19.6950 C   0  0  0  0  0  0
  -29.8966  -15.5006   20.7805 N   0  0  0  0  0  0
  -27.5740  -22.3118   19.5038 N   0  0  0  0  0  0
  -29.1466  -22.4763   21.1415 O   0  0  0  0  0  0
  -27.0789  -19.1149   15.9583 F   0  0  0  0  0  0
  -31.4680  -12.3827   19.1092 H   0  0  0  0  0  0
  -30.3224  -11.2713   19.8091 H   0  0  0  0  0  0
  -29.7245  -11.7688   17.4190 H   0  0  0  0  0  0
  -29.6632  -13.4781   17.7678 H   0  0  0  0  0  0
  -27.8195  -11.2997   18.8125 H   0  0  0  0  0  0
  -27.3597  -12.6347   17.7900 H   0  0  0  0  0  0
  -27.6833  -14.2337   19.5796 H   0  0  0  0  0  0
  -28.6800  -11.9495   21.3555 H   0  0  0  0  0  0
  -28.4869  -13.6031   21.8612 H   0  0  0  0  0  0
  -25.2751   -9.5663   22.4765 H   0  0  0  0  0  0
  -23.9989   -7.4609   22.7479 H   0  0  0  0  0  0
  -21.0827   -8.8765   19.8959 H   0  0  0  0  0  0
  -22.3683  -10.9666   19.6181 H   0  0  0  0  0  0
  -21.1997   -7.6146   23.9718 H   0  0  0  0  0  0
  -21.1482   -6.0520   25.9079 H   0  0  0  0  0  0
  -22.0603   -2.7609   23.2845 H   0  0  0  0  0  0
  -22.4086  -11.9911   22.4811 H   0  0  0  0  0  0
  -21.1099  -13.1289   22.2612 H   0  0  0  0  0  0
  -24.6591  -15.8346   20.5084 H   0  0  0  0  0  0
  -26.2825  -15.6171   20.0903 H   0  0  0  0  0  0
  -26.7099  -32.5544   23.1167 H   0  0  0  0  0  0
  -25.0052  -33.9794   25.0484 H   0  0  0  0  0  0
  -22.6851  -31.3099   21.4153 H   0  0  0  0  0  0
  -23.3745  -35.9656   23.3312 H   0  0  0  0  0  0
  -24.3582  -36.8920   22.2051 H   0  0  0  0  0  0
  -23.7243  -37.6529   23.6643 H   0  0  0  0  0  0
  -26.0309  -31.6072   20.5906 H   0  0  0  0  0  0
  -26.8144  -30.8944   21.9736 H   0  0  0  0  0  0
  -28.0935  -29.1344   21.1289 H   0  0  0  0  0  0
  -26.0085  -25.9736   19.0393 H   0  0  0  0  0  0
  -23.9672  -27.2811   19.0667 H   0  0  0  0  0  0
  -23.7071  -30.5981   19.4057 H   0  0  0  0  0  0
  -22.7261  -29.2419   19.8749 H   0  0  0  0  0  0
  -25.1284  -36.1989   25.0833 H   0  0  0  0  0  0
  -20.9945  -28.3214   24.1454 H   0  0  0  0  0  0
  -20.5664  -26.2261   23.3600 H   0  0  0  0  0  0
  -21.6630  -26.7448   22.1212 H   0  0  0  0  0  0
  -19.6900  -25.6305   21.1228 H   0  0  0  0  0  0
  -19.6678  -27.3211   20.6756 H   0  0  0  0  0  0
  -17.4187  -26.6679   21.4023 H   0  0  0  0  0  0
  -18.0311  -26.0055   22.9011 H   0  0  0  0  0  0
  -19.7919  -30.7244   24.2307 H   0  0  0  0  0  0
  -17.5004  -31.6267   24.5161 H   0  0  0  0  0  0
  -15.5342  -30.3001   23.7631 H   0  0  0  0  0  0
  -15.8656  -28.0831   22.7056 H   0  0  0  0  0  0
  -24.5922  -30.7024   25.7809 H   0  0  0  0  0  0
  -24.8928  -32.2833   26.4941 H   0  0  0  0  0  0
  -25.8114  -30.8845   27.0216 H   0  0  0  0  0  0
  -26.2820  -29.6814   24.1136 H   0  0  0  0  0  0
  -27.4104  -29.7279   25.4496 H   0  0  0  0  0  0
  -27.8636  -30.4386   23.9170 H   0  0  0  0  0  0
  -27.2675  -33.3592   26.2097 H   0  0  0  0  0  0
  -28.3836  -32.6897   25.0283 H   0  0  0  0  0  0
  -28.0746  -31.8404   26.5352 H   0  0  0  0  0  0
  -28.2610  -38.0102   24.7512 H   0  0  0  0  0  0
  -28.1071  -36.2635   24.6296 H   0  0  0  0  0  0
  -27.2299  -37.1470   25.8869 H   0  0  0  0  0  0
  -20.9272  -29.8756   21.6982 H   0  0  0  0  0  0
  -26.0188  -38.2880   24.1405 H   0  0  0  0  0  0
  -28.3844  -20.1057   20.9494 H   0  0  0  0  0  0
  -27.8675  -17.3292   17.6803 H   0  0  0  0  0  0
  -27.0225  -21.4766   17.0779 H   0  0  0  0  0  0
  -30.1732  -18.3953   21.4159 H   0  0  0  0  0  0
  -28.7317  -18.1220   22.3954 H   0  0  0  0  0  0
  -29.3428  -15.8460   22.7667 H   0  0  0  0  0  0
  -30.9650  -16.4177   22.3789 H   0  0  0  0  0  0
  -30.3748  -16.8331   19.2370 H   0  0  0  0  0  0
  -28.9953  -15.8072   18.8788 H   0  0  0  0  0  0
  -27.6510  -16.9276   20.6004 H   0  0  0  0  0  0
  -28.9920  -24.3324   17.8374 H   0  0  0  0  0  0
  -28.9931  -26.0692   17.6119 H   0  0  0  0  0  0
  -27.4886  -25.2033   17.8499 H   0  0  0  0  0  0
  -30.6357  -24.3890   19.6986 H   0  0  0  0  0  0
  -30.4376  -25.5048   21.0440 H   0  0  0  0  0  0
  -30.7862  -26.1151   19.4346 H   0  0  0  0  0  0
  -28.0910  -24.7283   21.6446 H   0  0  0  0  0  0
  -26.8417  -24.5666   20.4655 H   0  0  0  0  0  0
  -26.9291  -22.8743   18.9664 H   0  0  0  0  0  0
  1 25  1  0  0  0
  1 30  2  0  0  0
  1 86  1  0  0  0
  2  3  1  0  0  0
  2 25  1  0  0  0
  2 90  1  0  0  0
  2 91  1  0  0  0
  3  4  1  0  0  0
  3 92  1  0  0  0
  3 93  1  0  0  0
  4  5  1  0  0  0
  4 94  1  0  0  0
  4 95  1  0  0  0
  5  6  1  0  0  0
  5 26  1  0  0  0
  5 96  1  0  0  0
  6 25  1  0  0  0
  6 97  1  0  0  0
  6 98  1  0  0  0
  7  8  2  0  0  0
  7 26  1  0  0  0
  7 29  1  0  0  0
  8  9  1  0  0  0
  8 22  1  0  0  0
  9 10  1  0  0  0
  9 27  2  0  0  0
 10 11  2  0  0  0
 10 15  1  0  0  0
 11 12  1  0  0  0
 11 99  1  0  0  0
 12 13  2  0  0  0
 12100  1  0  0  0
 13 14  1  0  0  0
 13 31  1  0  0  0
 14 15  2  0  0  0
 14101  1  0  0  0
 15102  1  0  0  0
 16 17  2  0  0  0
 16 21  1  0  0  0
 16 31  1  0  0  0
 17 18  1  0  0  0
 17103  1  0  0  0
 18 19  2  0  0  0
 18104  1  0  0  0
 19 20  1  0  0  0
 19 24  1  0  0  0
 20 21  2  0  0  0
 20105  1  0  0  0
 21 23  1  0  0  0
 22 28  1  0  0  0
 22 32  2  0  0  0
 26 27  1  0  0  0
 28106  1  0  0  0
 28107  1  0  0  0
 29108  1  0  0  0
 29109  1  0  0  0
 33 34  1  0  0  0
 33 66  1  0  0  0
 33 70  2  0  0  0
 34 36  1  0  0  0
 34 59  1  0  0  0
 34110  1  0  0  0
 35 44  2  0  0  0
 35 45  1  0  0  0
 35 68  1  0  0  0
 36 56  1  0  0  0
 36111  1  0  0  0
 37 39  1  0  0  0
 37 47  1  0  0  0
 37 66  1  0  0  0
 37112  1  0  0  0
 38 43  2  0  0  0
 38 46  1  0  0  0
 38 47  1  0  0  0
 39 64  1  0  0  0
 39 67  2  0  0  0
 40 52  1  0  0  0
 40 53  2  0  0  0
 40 58  1  0  0  0
 41113  1  0  0  0
 41114  1  0  0  0
 41115  1  0  0  0
 41 48  1  0  0  0
 42 43  1  0  0  0
 42 66  1  0  0  0
 42116  1  0  0  0
 42117  1  0  0  0
 43 44  1  0  0  0
 44118  1  0  0  0
 45 46  2  0  0  0
 45119  1  0  0  0
 46120  1  0  0  0
 47121  1  0  0  0
 47122  1  0  0  0
 48 56  1  0  0  0
 48 65  1  0  0  0
 48123  1  0  0  0
 49 50  1  0  0  0
 49 53  1  0  0  0
 49 64  1  0  0  0
 49124  1  0  0  0
 50 51  1  0  0  0
 50125  1  0  0  0
 50126  1  0  0  0
 51 52  1  0  0  0
 51127  1  0  0  0
 51128  1  0  0  0
 52129  1  0  0  0
 52130  1  0  0  0
 53 54  1  0  0  0
 54 55  2  0  0  0
 54131  1  0  0  0
 55 57  1  0  0  0
 55132  1  0  0  0
 56 69  2  0  0  0
 57 58  2  0  0  0
 57133  1  0  0  0
 58134  1  0  0  0
 59 60  1  0  0  0
 59 61  1  0  0  0
 59 62  1  0  0  0
 60135  1  0  0  0
 60136  1  0  0  0
 60137  1  0  0  0
 61138  1  0  0  0
 61139  1  0  0  0
 61140  1  0  0  0
 62141  1  0  0  0
 62142  1  0  0  0
 62143  1  0  0  0
 63 65  1  0  0  0
 63144  1  0  0  0
 63145  1  0  0  0
 63146  1  0  0  0
 64147  1  0  0  0
 65148  1  0  0  0
 68 85  1  0  0  0
 71 74  2  0  0  0
 71 75  1  0  0  0
 71149  1  0  0  0
 72 74  1  0  0  0
 72 76  2  0  0  0
 72150  1  0  0  0
 73 75  2  0  0  0
 73 76  1  0  0  0
 73151  1  0  0  0
 74 81  1  0  0  0
 75 87  1  0  0  0
 76 89  1  0  0  0
 77 84  1  0  0  0
 77 87  1  0  0  0
 77 88  2  0  0  0
 78 79  1  0  0  0
 78 81  1  0  0  0
 78152  1  0  0  0
 78153  1  0  0  0
 79 86  1  0  0  0
 79154  1  0  0  0
 79155  1  0  0  0
 80 81  1  0  0  0
 80 86  1  0  0  0
 80156  1  0  0  0
 80157  1  0  0  0
 81158  1  0  0  0
 82159  1  0  0  0
 82160  1  0  0  0
 82161  1  0  0  0
 82 85  1  0  0  0
 83 85  1  0  0  0
 83162  1  0  0  0
 83163  1  0  0  0
 83164  1  0  0  0
 84 85  1  0  0  0
 84165  1  0  0  0
 84166  1  0  0  0
 87167  1  0  0  0
M  ISO  4   1 100  68 101  85 101  86 100
M  END
> <chiral flag>
0

> <version>
0

> <s_m_source_file>
/data/baiqing/PycharmProjects/Reinvent-master-3.2/result/LINK_invent/BTK/process_docking_weight1_custom_product_contain_oxygen_bond_distance_aromatic_linkinvent_7_9_3/rearranged_h_0148.sdf

> <i_m_source_file_index>
22

> <r_mmod_Potential_Energy-OPLS-2005>
180.213470458984

> <r_mmod_Stretch_Energy-OPLS-2005>
35.8233642578125

> <r_mmod_Bend_Energy-OPLS-2005>
158.643417358398

> <r_mmod_Torsional_Energy-OPLS-2005>
329.080047607422

> <r_mmod_Improper_Torsional_Energy-OPLS-2005>
12.2890310287476

> <r_mmod_Van_der_Waal_Energy-OPLS-2005>
148.05989074707

> <r_mmod_Electrostatic_Energy-OPLS-2005>
-307.541473388672

> <r_mmod_Solvation_Energy-OPLS-2005>
-209.781387329102

> <b_mmod_Minimization_Converged-OPLS-2005>
0

> <r_mmod_RMS_Derivative-OPLS-2005>
0.748322725296021

$$$$
22
                    3D
 Structure written by MMmdl.
158167  0  0  1  0            999 V2000
  -30.6276  -14.5474   20.5393 C   0  0  0  0  0  0
  -30.4435  -12.3449   19.4256 C   0  0  0  0  0  0
  -29.5036  -12.5131   18.2097 C   0  0  0  0  0  0
  -28.0247  -12.3566   18.6210 C   0  0  0  0  0  0
  -27.6611  -13.1984   19.8724 C   0  0  2  0  0  0
  -28.7057  -12.9817   20.9922 C   0  0  0  0  0  0
  -25.2588  -13.8114   20.5652 C   0  0  0  0  0  0
  -24.1837  -13.0408   20.9177 C   0  0  0  0  0  0
  -24.6385  -11.6877   20.8737 C   0  0  0  0  0  0
  -23.9040  -10.4274   21.0415 C   0  0  0  0  0  0
  -24.3597   -9.4192   21.9190 C   0  0  0  0  0  0
  -23.6273   -8.2226   22.0753 C   0  0  0  0  0  0
  -22.4259   -8.0267   21.3537 C   0  0  0  0  0  0
  -21.9889   -9.0241   20.4641 C   0  0  0  0  0  0
  -22.7214  -10.2120   20.3056 C   0  0  0  0  0  0
  -21.6843   -6.0730   22.5275 C   0  0  0  0  0  0
  -21.4011   -6.5636   23.8209 C   0  0  0  0  0  0
  -21.3658   -5.6792   24.9173 C   0  0  0  0  0  0
  -21.6048   -4.3056   24.7225 C   0  0  0  0  0  0
  -21.8821   -3.8140   23.4346 C   0  0  0  0  0  0
  -21.9189   -4.6957   22.3402 C   0  0  0  0  0  0
  -22.7867  -13.5225   21.1850 C   0  0  0  0  0  0
  -22.1657   -4.2144   21.0982 F   0  0  0  0  0  0
  -21.5628   -3.4536   25.7732 F   0  0  0  0  0  0
  -30.0308  -13.3243   20.4429 N   0  0  0  0  0  0
  -26.3016  -12.9269   20.3334 N   0  0  0  0  0  0
  -25.9306  -11.6445   20.5756 N   0  0  0  0  0  0
  -22.0502  -12.8222   22.0407 N   0  0  0  0  0  0
  -25.4288  -15.1825   20.4015 N   0  0  0  0  0  0
  -31.7685  -14.7783   20.1294 O   0  0  0  0  0  0
  -21.6624   -6.8867   21.4237 O   0  0  0  0  0  0
  -22.3563  -14.5545   20.6716 O   0  0  0  0  0  0
  -24.6197  -31.8643   23.2085 C   0  0  0  0  0  0
  -25.9083  -32.4799   23.8386 C   0  0  1  0  0  0
  -27.2316  -27.3968   20.1095 C   0  0  0  0  0  0
  -25.5935  -33.8599   24.2324 N   0  0  0  0  0  0
  -23.4096  -30.4876   21.5490 C   0  0  2  0  0  0
  -24.8582  -28.9479   20.1154 C   0  0  0  0  0  0
  -22.7433  -29.4648   22.4983 C   0  0  0  0  0  0
  -18.0272  -28.1387   22.8491 C   0  0  0  0  0  0
  -24.1485  -36.7289   23.2638 C   0  0  0  0  0  0
  -25.9429  -30.8193   21.3672 C   0  0  0  0  0  0
  -26.0214  -29.4516   20.7126 C   0  0  0  0  0  0
  -27.2156  -28.6855   20.7018 C   0  0  0  0  0  0
  -26.0527  -26.9174   19.5021 C   0  0  0  0  0  0
  -24.8699  -27.6816   19.5050 C   0  0  0  0  0  0
  -23.6206  -29.8184   20.1642 C   0  0  0  0  0  0
  -25.4109  -36.3094   24.0338 C   0  0  1  0  0  0
  -20.5865  -28.3677   23.1311 C   0  0  2  0  0  0
  -20.6771  -26.9409   22.5422 C   0  0  0  0  0  0
  -19.5758  -26.6387   21.5217 C   0  0  0  0  0  0
  -18.1925  -26.7942   22.1602 C   0  0  0  0  0  0
  -19.1523  -28.8849   23.2899 C   0  0  0  0  0  0
  -18.9454  -30.1455   23.8914 C   0  0  0  0  0  0
  -17.6453  -30.6595   24.0565 C   0  0  0  0  0  0
  -25.9041  -34.9462   23.5121 C   0  0  0  0  0  0
  -16.5340  -29.9093   23.6342 C   0  0  0  0  0  0
  -16.7257  -28.6507   23.0366 C   0  0  0  0  0  0
  -26.4499  -31.6583   25.0720 C   0  0  0  0  0  0
  -25.3753  -31.3693   26.1459 C   0  0  0  0  0  0
  -27.0334  -30.3014   24.6133 C   0  0  0  0  0  0
  -27.6080  -32.4300   25.7477 C   0  0  0  0  0  0
  -27.5587  -37.1793   24.8462 C   0  0  0  0  0  0
  -21.4155  -29.3031   22.3709 N   0  0  0  0  0  0
  -26.4288  -37.3789   23.9423 N   0  0  0  0  0  0
  -24.6758  -31.0711   22.0999 N   0  0  0  0  0  0
  -23.4184  -28.8197   23.3047 O   0  0  0  0  0  0
  -28.3578  -26.5915   20.1096 O   0  0  0  0  0  0
  -26.5581  -34.8920   22.4668 O   0  0  0  0  0  0
  -23.5381  -32.1409   23.7457 O   0  0  0  0  0  0
  -28.6574  -17.5035   20.0742 C   0  0  0  0  0  0
  -28.5512  -18.9058   19.9602 C   0  0  0  0  0  0
  -30.7932  -17.8252   21.1248 C   0  0  0  0  0  0
  -29.7920  -16.9305   20.6863 C   0  0  0  0  0  0
  -29.5622  -19.7319   20.4872 C   0  0  0  0  0  0
  -29.4046  -23.2758   21.8006 C   0  0  0  0  0  0
  -28.2864  -23.2089   19.5781 C   0  0  0  0  0  0
  -30.1511  -21.9576   21.4648 C   0  0  0  0  0  0
  -29.0147  -21.8611   19.2826 C   0  0  0  0  0  0
  -29.0533  -24.1376   20.5583 C   0  0  0  0  0  0
  -28.2594  -25.4301   20.9728 C   0  0  0  0  0  0
  -30.6718  -19.1821   21.0441 N   0  0  0  0  0  0
  -29.3964  -21.1466   20.5091 N   0  0  0  0  0  0
  -29.7936  -15.5212   20.9719 N   0  0  0  0  0  0
  -31.4836  -12.4809   19.1231 H   0  0  0  0  0  0
  -30.3784  -11.3324   19.8278 H   0  0  0  0  0  0
  -29.7546  -11.7859   17.4364 H   0  0  0  0  0  0
  -29.6540  -13.4969   17.7627 H   0  0  0  0  0  0
  -27.8467  -11.2998   18.8236 H   0  0  0  0  0  0
  -27.3708  -12.6187   17.7883 H   0  0  0  0  0  0
  -27.6988  -14.2441   19.5674 H   0  0  0  0  0  0
  -28.7003  -11.9408   21.3182 H   0  0  0  0  0  0
  -28.4577  -13.5621   21.8824 H   0  0  0  0  0  0
  -25.2744   -9.5665   22.4763 H   0  0  0  0  0  0
  -23.9981   -7.4618   22.7473 H   0  0  0  0  0  0
  -21.0819   -8.8752   19.8951 H   0  0  0  0  0  0
  -22.3672  -10.9658   19.6161 H   0  0  0  0  0  0
  -21.2001   -7.6145   23.9712 H   0  0  0  0  0  0
  -21.1479   -6.0522   25.9079 H   0  0  0  0  0  0
  -22.0604   -2.7601   23.2845 H   0  0  0  0  0  0
  -22.4101  -11.9858   22.4764 H   0  0  0  0  0  0
  -21.1132  -13.1272   22.2635 H   0  0  0  0  0  0
  -24.6525  -15.8296   20.4897 H   0  0  0  0  0  0
  -26.2601  -15.6116   20.0193 H   0  0  0  0  0  0
  -26.7152  -32.5495   23.1146 H   0  0  0  0  0  0
  -25.0145  -33.9759   25.0512 H   0  0  0  0  0  0
  -22.7005  -31.3059   21.4072 H   0  0  0  0  0  0
  -23.3766  -35.9601   23.3281 H   0  0  0  0  0  0
  -24.3586  -36.8918   22.2056 H   0  0  0  0  0  0
  -23.7207  -37.6476   23.6664 H   0  0  0  0  0  0
  -26.0630  -31.5858   20.6011 H   0  0  0  0  0  0
  -26.8276  -30.8684   21.9903 H   0  0  0  0  0  0
  -28.1133  -29.0680   21.1665 H   0  0  0  0  0  0
  -26.0476  -25.9418   19.0366 H   0  0  0  0  0  0
  -23.9758  -27.2877   19.0419 H   0  0  0  0  0  0
  -23.7326  -30.5931   19.4050 H   0  0  0  0  0  0
  -22.7438  -29.2406   19.8655 H   0  0  0  0  0  0
  -25.1285  -36.1948   25.0828 H   0  0  0  0  0  0
  -20.9949  -28.3243   24.1436 H   0  0  0  0  0  0
  -20.5676  -26.2281   23.3615 H   0  0  0  0  0  0
  -21.6642  -26.7465   22.1210 H   0  0  0  0  0  0
  -19.6917  -25.6296   21.1252 H   0  0  0  0  0  0
  -19.6711  -27.3198   20.6752 H   0  0  0  0  0  0
  -17.4209  -26.6722   21.3986 H   0  0  0  0  0  0
  -18.0293  -26.0066   22.8976 H   0  0  0  0  0  0
  -19.7929  -30.7266   24.2291 H   0  0  0  0  0  0
  -17.5010  -31.6286   24.5151 H   0  0  0  0  0  0
  -15.5344  -30.2998   23.7676 H   0  0  0  0  0  0
  -15.8651  -28.0827   22.7095 H   0  0  0  0  0  0
  -24.5992  -30.6955   25.7814 H   0  0  0  0  0  0
  -24.8860  -32.2831   26.4838 H   0  0  0  0  0  0
  -25.8109  -30.8948   27.0259 H   0  0  0  0  0  0
  -26.2883  -29.6753   24.1214 H   0  0  0  0  0  0
  -27.4110  -29.7283   25.4611 H   0  0  0  0  0  0
  -27.8718  -30.4311   23.9286 H   0  0  0  0  0  0
  -27.2732  -33.3624   26.2042 H   0  0  0  0  0  0
  -28.3902  -32.6818   25.0299 H   0  0  0  0  0  0
  -28.0741  -31.8418   26.5398 H   0  0  0  0  0  0
  -28.2591  -38.0108   24.7544 H   0  0  0  0  0  0
  -28.1097  -36.2639   24.6242 H   0  0  0  0  0  0
  -27.2312  -37.1375   25.8865 H   0  0  0  0  0  0
  -20.9331  -29.8706   21.6881 H   0  0  0  0  0  0
  -26.0169  -38.2856   24.1459 H   0  0  0  0  0  0
  -27.8476  -16.8808   19.7242 H   0  0  0  0  0  0
  -27.6556  -19.3298   19.5282 H   0  0  0  0  0  0
  -31.6748  -17.4553   21.6276 H   0  0  0  0  0  0
  -30.0102  -23.8582   22.4960 H   0  0  0  0  0  0
  -28.4862  -23.0313   22.3370 H   0  0  0  0  0  0
  -27.3021  -22.9872   19.9931 H   0  0  0  0  0  0
  -28.1004  -23.7369   18.6413 H   0  0  0  0  0  0
  -30.3098  -21.3943   22.3858 H   0  0  0  0  0  0
  -31.1386  -22.1711   21.0526 H   0  0  0  0  0  0
  -29.9208  -22.0551   18.7074 H   0  0  0  0  0  0
  -28.3839  -21.2401   18.6473 H   0  0  0  0  0  0
  -29.9905  -24.4477   20.0954 H   0  0  0  0  0  0
  -28.6411  -25.7695   21.9373 H   0  0  0  0  0  0
  -27.2209  -25.1548   21.1676 H   0  0  0  0  0  0
  -28.8974  -15.1452   21.2424 H   0  0  0  0  0  0
  1 25  1  0  0  0
  1 30  2  0  0  0
  1 84  1  0  0  0
  2  3  1  0  0  0
  2 25  1  0  0  0
  2 85  1  0  0  0
  2 86  1  0  0  0
  3  4  1  0  0  0
  3 87  1  0  0  0
  3 88  1  0  0  0
  4  5  1  0  0  0
  4 89  1  0  0  0
  4 90  1  0  0  0
  5  6  1  0  0  0
  5 26  1  0  0  0
  5 91  1  0  0  0
  6 25  1  0  0  0
  6 92  1  0  0  0
  6 93  1  0  0  0
  7  8  2  0  0  0
  7 26  1  0  0  0
  7 29  1  0  0  0
  8  9  1  0  0  0
  8 22  1  0  0  0
  9 10  1  0  0  0
  9 27  2  0  0  0
 10 11  2  0  0  0
 10 15  1  0  0  0
 11 12  1  0  0  0
 11 94  1  0  0  0
 12 13  2  0  0  0
 12 95  1  0  0  0
 13 14  1  0  0  0
 13 31  1  0  0  0
 14 15  2  0  0  0
 14 96  1  0  0  0
 15 97  1  0  0  0
 16 17  2  0  0  0
 16 21  1  0  0  0
 16 31  1  0  0  0
 17 18  1  0  0  0
 17 98  1  0  0  0
 18 19  2  0  0  0
 18 99  1  0  0  0
 19 20  1  0  0  0
 19 24  1  0  0  0
 20 21  2  0  0  0
 20100  1  0  0  0
 21 23  1  0  0  0
 22 28  1  0  0  0
 22 32  2  0  0  0
 26 27  1  0  0  0
 28101  1  0  0  0
 28102  1  0  0  0
 29103  1  0  0  0
 29104  1  0  0  0
 33 34  1  0  0  0
 33 66  1  0  0  0
 33 70  2  0  0  0
 34 36  1  0  0  0
 34 59  1  0  0  0
 34105  1  0  0  0
 35 44  2  0  0  0
 35 45  1  0  0  0
 35 68  1  0  0  0
 36 56  1  0  0  0
 36106  1  0  0  0
 37 39  1  0  0  0
 37 47  1  0  0  0
 37 66  1  0  0  0
 37107  1  0  0  0
 38 43  2  0  0  0
 38 46  1  0  0  0
 38 47  1  0  0  0
 39 64  1  0  0  0
 39 67  2  0  0  0
 40 52  1  0  0  0
 40 53  2  0  0  0
 40 58  1  0  0  0
 41108  1  0  0  0
 41109  1  0  0  0
 41110  1  0  0  0
 41 48  1  0  0  0
 42 43  1  0  0  0
 42 66  1  0  0  0
 42111  1  0  0  0
 42112  1  0  0  0
 43 44  1  0  0  0
 44113  1  0  0  0
 45 46  2  0  0  0
 45114  1  0  0  0
 46115  1  0  0  0
 47116  1  0  0  0
 47117  1  0  0  0
 48 56  1  0  0  0
 48 65  1  0  0  0
 48118  1  0  0  0
 49 50  1  0  0  0
 49 53  1  0  0  0
 49 64  1  0  0  0
 49119  1  0  0  0
 50 51  1  0  0  0
 50120  1  0  0  0
 50121  1  0  0  0
 51 52  1  0  0  0
 51122  1  0  0  0
 51123  1  0  0  0
 52124  1  0  0  0
 52125  1  0  0  0
 53 54  1  0  0  0
 54 55  2  0  0  0
 54126  1  0  0  0
 55 57  1  0  0  0
 55127  1  0  0  0
 56 69  2  0  0  0
 57 58  2  0  0  0
 57128  1  0  0  0
 58129  1  0  0  0
 59 60  1  0  0  0
 59 61  1  0  0  0
 59 62  1  0  0  0
 60130  1  0  0  0
 60131  1  0  0  0
 60132  1  0  0  0
 61133  1  0  0  0
 61134  1  0  0  0
 61135  1  0  0  0
 62136  1  0  0  0
 62137  1  0  0  0
 62138  1  0  0  0
 63 65  1  0  0  0
 63139  1  0  0  0
 63140  1  0  0  0
 63141  1  0  0  0
 64142  1  0  0  0
 65143  1  0  0  0
 68 81  1  0  0  0
 71 72  2  0  0  0
 71 74  1  0  0  0
 71144  1  0  0  0
 72 75  1  0  0  0
 72145  1  0  0  0
 73 74  2  0  0  0
 73 82  1  0  0  0
 73146  1  0  0  0
 74 84  1  0  0  0
 75 82  2  0  0  0
 75 83  1  0  0  0
 76 78  1  0  0  0
 76 80  1  0  0  0
 76147  1  0  0  0
 76148  1  0  0  0
 77 79  1  0  0  0
 77 80  1  0  0  0
 77149  1  0  0  0
 77150  1  0  0  0
 78 83  1  0  0  0
 78151  1  0  0  0
 78152  1  0  0  0
 79 83  1  0  0  0
 79153  1  0  0  0
 79154  1  0  0  0
 80 81  1  0  0  0
 80155  1  0  0  0
 81156  1  0  0  0
 81157  1  0  0  0
 84158  1  0  0  0
M  ISO  4   1 100  68 101  81 101  84 100
M  END
> <chiral flag>
0

> <version>
0

> <s_m_source_file>
/data/baiqing/PycharmProjects/Reinvent-master-3.2/result/LINK_invent/BTK/process_docking_weight1_custom_product_contain_oxygen_bond_distance_aromatic_linkinvent_7_9_3/rearranged_h_0148.sdf

> <i_m_source_file_index>
23

> <r_mmod_Potential_Energy-OPLS-2005>
-194.605941772461

> <r_mmod_Stretch_Energy-OPLS-2005>
47.3740730285645

> <r_mmod_Bend_Energy-OPLS-2005>
116.760498046875

> <r_mmod_Torsional_Energy-OPLS-2005>
288.692352294922

> <r_mmod_Improper_Torsional_Energy-OPLS-2005>
8.21541881561279

> <r_mmod_Van_der_Waal_Energy-OPLS-2005>
152.793762207031

> <r_mmod_Electrostatic_Energy-OPLS-2005>
-599.153015136719

> <r_mmod_Solvation_Energy-OPLS-2005>
-233.088333129883

> <b_mmod_Minimization_Converged-OPLS-2005>
0

> <r_mmod_RMS_Derivative-OPLS-2005>
1.24189794063568

$$$$
23
                    3D
 Structure written by MMmdl.
164173  0  0  1  0            999 V2000
  -30.5868  -14.7571   20.4591 C   0  0  0  0  0  0
  -30.4319  -12.4579   19.4758 C   0  0  0  0  0  0
  -29.5058  -12.5027   18.2397 C   0  0  0  0  0  0
  -28.0329  -12.3208   18.6569 C   0  0  0  0  0  0
  -27.6383  -13.2256   19.8536 C   0  0  2  0  0  0
  -28.6813  -13.1578   20.9889 C   0  0  0  0  0  0
  -25.2491  -13.8194   20.5685 C   0  0  0  0  0  0
  -24.1775  -13.0448   20.9204 C   0  0  0  0  0  0
  -24.6379  -11.6920   20.8763 C   0  0  0  0  0  0
  -23.9071  -10.4292   21.0426 C   0  0  0  0  0  0
  -24.3624   -9.4200   21.9193 C   0  0  0  0  0  0
  -23.6290   -8.2241   22.0767 C   0  0  0  0  0  0
  -22.4273   -8.0283   21.3553 C   0  0  0  0  0  0
  -21.9917   -9.0256   20.4649 C   0  0  0  0  0  0
  -22.7249  -10.2134   20.3065 C   0  0  0  0  0  0
  -21.6844   -6.0738   22.5272 C   0  0  0  0  0  0
  -21.4016   -6.5643   23.8206 C   0  0  0  0  0  0
  -21.3656   -5.6796   24.9167 C   0  0  0  0  0  0
  -21.6048   -4.3060   24.7218 C   0  0  0  0  0  0
  -21.8816   -3.8149   23.4337 C   0  0  0  0  0  0
  -21.9189   -4.6967   22.3392 C   0  0  0  0  0  0
  -22.7794  -13.5219   21.1863 C   0  0  0  0  0  0
  -22.1653   -4.2152   21.0969 F   0  0  0  0  0  0
  -21.5625   -3.4541   25.7732 F   0  0  0  0  0  0
  -29.9819  -13.5189   20.4084 N   0  0  0  0  0  0
  -26.2909  -12.9388   20.3290 N   0  0  0  0  0  0
  -25.9294  -11.6536   20.5775 N   0  0  0  0  0  0
  -22.0479  -12.8188   22.0431 N   0  0  0  0  0  0
  -25.4194  -15.1915   20.4077 N   0  0  0  0  0  0
  -31.7781  -14.8618   20.1483 O   0  0  0  0  0  0
  -21.6636   -6.8883   21.4240 O   0  0  0  0  0  0
  -22.3482  -14.5528   20.6717 O   0  0  0  0  0  0
  -24.6337  -31.8527   23.1921 C   0  0  0  0  0  0
  -25.9159  -32.4717   23.8295 C   0  0  1  0  0  0
  -27.2289  -27.2334   20.1379 C   0  0  0  0  0  0
  -25.5942  -33.8519   24.2196 N   0  0  0  0  0  0
  -23.4321  -30.4701   21.5376 C   0  0  2  0  0  0
  -24.8831  -28.9110   20.1073 C   0  0  0  0  0  0
  -22.7530  -29.4541   22.4875 C   0  0  0  0  0  0
  -18.0308  -28.1376   22.8422 C   0  0  0  0  0  0
  -24.1505  -36.7289   23.2648 C   0  0  0  0  0  0
  -25.9796  -30.7536   21.3759 C   0  0  0  0  0  0
  -26.0564  -29.3745   20.7186 C   0  0  0  0  0  0
  -27.2306  -28.5500   20.7192 C   0  0  0  0  0  0
  -26.0277  -26.8401   19.5011 C   0  0  0  0  0  0
  -24.8752  -27.6536   19.4854 C   0  0  0  0  0  0
  -23.6543  -29.8025   20.1539 C   0  0  0  0  0  0
  -25.4120  -36.3045   24.0316 C   0  0  1  0  0  0
  -20.5891  -28.3699   23.1238 C   0  0  2  0  0  0
  -20.6786  -26.9403   22.5402 C   0  0  0  0  0  0
  -19.5780  -26.6352   21.5192 C   0  0  0  0  0  0
  -18.1953  -26.7903   22.1584 C   0  0  0  0  0  0
  -19.1538  -28.8857   23.2819 C   0  0  0  0  0  0
  -18.9489  -30.1458   23.8835 C   0  0  0  0  0  0
  -17.6485  -30.6579   24.0548 C   0  0  0  0  0  0
  -25.9062  -34.9415   23.5053 C   0  0  0  0  0  0
  -16.5375  -29.9066   23.6326 C   0  0  0  0  0  0
  -16.7295  -28.6500   23.0299 C   0  0  0  0  0  0
  -26.4502  -31.6566   25.0704 C   0  0  0  0  0  0
  -25.3686  -31.3772   26.1409 C   0  0  0  0  0  0
  -27.0400  -30.2991   24.6229 C   0  0  0  0  0  0
  -27.6023  -32.4352   25.7486 C   0  0  0  0  0  0
  -27.5576  -37.1790   24.8452 C   0  0  0  0  0  0
  -21.4217  -29.3045   22.3643 N   0  0  0  0  0  0
  -26.4291  -37.3740   23.9384 N   0  0  0  0  0  0
  -24.7005  -31.0449   22.0916 N   0  0  0  0  0  0
  -23.4207  -28.8057   23.2972 O   0  0  0  0  0  0
  -28.3296  -26.3363   20.1952 O   0  0  0  0  0  0
  -26.5683  -34.8912   22.4649 O   0  0  0  0  0  0
  -23.5475  -32.1362   23.7228 O   0  0  0  0  0  0
  -29.0914  -18.4473   20.3624 C   0  0  0  0  0  0
  -31.2659  -17.9429   20.5660 C   0  0  0  0  0  0
  -30.0391  -17.3425   20.5325 C   0  0  0  0  0  0
  -29.7550  -19.6807   20.2453 C   0  0  0  0  0  0
  -29.4937  -21.1235   19.8118 C   0  0  0  0  0  0
  -29.6503  -23.0296   22.7236 C   0  0  0  0  0  0
  -30.0050  -24.1535   21.7279 C   0  0  0  0  0  0
  -28.7390  -22.0732   21.9595 C   0  0  0  0  0  0
  -29.3662  -23.7962   20.3573 C   0  0  2  0  0  0
  -30.3939  -24.0872   19.2419 C   0  0  0  0  0  0
  -32.2075  -20.2583   20.3050 C   0  0  0  0  0  0
  -28.1145  -24.8312   20.1466 C   0  0  0  0  0  0
  -31.1024  -19.3232   20.3867 N   0  0  0  0  0  0
  -29.1330  -22.2573   20.5684 N   0  0  0  0  0  0
  -29.7752  -15.8769   20.6459 N   0  0  0  0  0  0
  -29.7139  -21.3030   18.5021 N   0  3  0  0  0  0
  -31.4712  -12.5896   19.1723 H   0  0  0  0  0  0
  -30.3813  -11.4807   19.9598 H   0  0  0  0  0  0
  -29.7878  -11.7269   17.5270 H   0  0  0  0  0  0
  -29.6220  -13.4561   17.7225 H   0  0  0  0  0  0
  -27.8957  -11.2723   18.9271 H   0  0  0  0  0  0
  -27.3705  -12.5023   17.8092 H   0  0  0  0  0  0
  -27.6345  -14.2452   19.4693 H   0  0  0  0  0  0
  -28.7164  -12.1566   21.4220 H   0  0  0  0  0  0
  -28.4114  -13.8301   21.8044 H   0  0  0  0  0  0
  -25.2772   -9.5651   22.4764 H   0  0  0  0  0  0
  -23.9982   -7.4630   22.7488 H   0  0  0  0  0  0
  -21.0855   -8.8782   19.8944 H   0  0  0  0  0  0
  -22.3723  -10.9676   19.6174 H   0  0  0  0  0  0
  -21.2026   -7.6155   23.9707 H   0  0  0  0  0  0
  -21.1478   -6.0532   25.9071 H   0  0  0  0  0  0
  -22.0605   -2.7612   23.2835 H   0  0  0  0  0  0
  -22.4108  -11.9834   22.4751 H   0  0  0  0  0  0
  -21.1106  -13.1204   22.2713 H   0  0  0  0  0  0
  -24.6530  -15.8464   20.5191 H   0  0  0  0  0  0
  -26.2603  -15.6278   20.0521 H   0  0  0  0  0  0
  -26.7226  -32.5341   23.1033 H   0  0  0  0  0  0
  -25.0045  -33.9646   25.0297 H   0  0  0  0  0  0
  -22.7305  -31.2920   21.3874 H   0  0  0  0  0  0
  -23.3756  -35.9640   23.3293 H   0  0  0  0  0  0
  -24.3609  -36.8940   22.2071 H   0  0  0  0  0  0
  -23.7287  -37.6478   23.6706 H   0  0  0  0  0  0
  -26.1301  -31.5129   20.6086 H   0  0  0  0  0  0
  -26.8526  -30.7997   22.0145 H   0  0  0  0  0  0
  -28.1282  -28.8950   21.2166 H   0  0  0  0  0  0
  -25.9464  -25.8774   19.0201 H   0  0  0  0  0  0
  -23.9800  -27.2897   18.9990 H   0  0  0  0  0  0
  -23.7855  -30.5815   19.4009 H   0  0  0  0  0  0
  -22.7713  -29.2359   19.8467 H   0  0  0  0  0  0
  -25.1300  -36.1899   25.0812 H   0  0  0  0  0  0
  -20.9973  -28.3335   24.1360 H   0  0  0  0  0  0
  -20.5726  -26.2303   23.3617 H   0  0  0  0  0  0
  -21.6656  -26.7449   22.1174 H   0  0  0  0  0  0
  -19.6973  -25.6265   21.1243 H   0  0  0  0  0  0
  -19.6748  -27.3156   20.6718 H   0  0  0  0  0  0
  -17.4213  -26.6627   21.4005 H   0  0  0  0  0  0
  -18.0364  -26.0067   22.9016 H   0  0  0  0  0  0
  -19.7987  -30.7248   24.2172 H   0  0  0  0  0  0
  -17.5070  -31.6251   24.5187 H   0  0  0  0  0  0
  -15.5377  -30.2960   23.7697 H   0  0  0  0  0  0
  -15.8682  -28.0861   22.6964 H   0  0  0  0  0  0
  -24.5832  -30.7165   25.7705 H   0  0  0  0  0  0
  -24.8923  -32.2978   26.4795 H   0  0  0  0  0  0
  -25.7947  -30.8942   27.0215 H   0  0  0  0  0  0
  -26.3036  -29.6680   24.1250 H   0  0  0  0  0  0
  -27.4068  -29.7312   25.4783 H   0  0  0  0  0  0
  -27.8881  -30.4235   23.9502 H   0  0  0  0  0  0
  -27.2586  -33.3655   26.2015 H   0  0  0  0  0  0
  -28.3837  -32.6924   25.0326 H   0  0  0  0  0  0
  -28.0673  -31.8532   26.5446 H   0  0  0  0  0  0
  -28.2543  -38.0135   24.7505 H   0  0  0  0  0  0
  -28.1131  -36.2654   24.6259 H   0  0  0  0  0  0
  -27.2312  -37.1384   25.8867 H   0  0  0  0  0  0
  -20.9431  -29.8784   21.6856 H   0  0  0  0  0  0
  -26.0189  -38.2814   24.1399 H   0  0  0  0  0  0
  -28.0197  -18.3452   20.2602 H   0  0  0  0  0  0
  -32.2547  -17.5169   20.6725 H   0  0  0  0  0  0
  -29.1578  -23.4154   23.6157 H   0  0  0  0  0  0
  -30.5513  -22.5068   23.0513 H   0  0  0  0  0  0
  -31.0901  -24.2454   21.6476 H   0  0  0  0  0  0
  -29.6512  -25.1120   22.1127 H   0  0  0  0  0  0
  -27.6925  -22.3626   22.0669 H   0  0  0  0  0  0
  -28.8367  -21.0438   22.3012 H   0  0  0  0  0  0
  -30.8721  -25.0545   19.4036 H   0  0  0  0  0  0
  -29.9266  -24.1343   18.2589 H   0  0  0  0  0  0
  -31.1963  -23.3496   19.2100 H   0  0  0  0  0  0
  -33.0792  -19.8620   20.8282 H   0  0  0  0  0  0
  -31.9305  -21.2087   20.7592 H   0  0  0  0  0  0
  -32.4686  -20.4232   19.2587 H   0  0  0  0  0  0
  -27.3366  -24.5850   20.8720 H   0  0  0  0  0  0
  -27.6933  -24.6002   19.1688 H   0  0  0  0  0  0
  -28.8122  -15.6307   20.8221 H   0  0  0  0  0  0
  -29.9882  -20.5165   17.9307 H   0  0  0  0  0  0
  -29.6161  -22.2023   18.0596 H   0  0  0  0  0  0
  1 25  1  0  0  0
  1 30  2  0  0  0
  1 85  1  0  0  0
  2  3  1  0  0  0
  2 25  1  0  0  0
  2 87  1  0  0  0
  2 88  1  0  0  0
  3  4  1  0  0  0
  3 89  1  0  0  0
  3 90  1  0  0  0
  4  5  1  0  0  0
  4 91  1  0  0  0
  4 92  1  0  0  0
  5  6  1  0  0  0
  5 26  1  0  0  0
  5 93  1  0  0  0
  6 25  1  0  0  0
  6 94  1  0  0  0
  6 95  1  0  0  0
  7  8  2  0  0  0
  7 26  1  0  0  0
  7 29  1  0  0  0
  8  9  1  0  0  0
  8 22  1  0  0  0
  9 10  1  0  0  0
  9 27  2  0  0  0
 10 11  2  0  0  0
 10 15  1  0  0  0
 11 12  1  0  0  0
 11 96  1  0  0  0
 12 13  2  0  0  0
 12 97  1  0  0  0
 13 14  1  0  0  0
 13 31  1  0  0  0
 14 15  2  0  0  0
 14 98  1  0  0  0
 15 99  1  0  0  0
 16 17  2  0  0  0
 16 21  1  0  0  0
 16 31  1  0  0  0
 17 18  1  0  0  0
 17100  1  0  0  0
 18 19  2  0  0  0
 18101  1  0  0  0
 19 20  1  0  0  0
 19 24  1  0  0  0
 20 21  2  0  0  0
 20102  1  0  0  0
 21 23  1  0  0  0
 22 28  1  0  0  0
 22 32  2  0  0  0
 26 27  1  0  0  0
 28103  1  0  0  0
 28104  1  0  0  0
 29105  1  0  0  0
 29106  1  0  0  0
 33 34  1  0  0  0
 33 66  1  0  0  0
 33 70  2  0  0  0
 34 36  1  0  0  0
 34 59  1  0  0  0
 34107  1  0  0  0
 35 44  2  0  0  0
 35 45  1  0  0  0
 35 68  1  0  0  0
 36 56  1  0  0  0
 36108  1  0  0  0
 37 39  1  0  0  0
 37 47  1  0  0  0
 37 66  1  0  0  0
 37109  1  0  0  0
 38 43  2  0  0  0
 38 46  1  0  0  0
 38 47  1  0  0  0
 39 64  1  0  0  0
 39 67  2  0  0  0
 40 52  1  0  0  0
 40 53  2  0  0  0
 40 58  1  0  0  0
 41110  1  0  0  0
 41111  1  0  0  0
 41112  1  0  0  0
 41 48  1  0  0  0
 42 43  1  0  0  0
 42 66  1  0  0  0
 42113  1  0  0  0
 42114  1  0  0  0
 43 44  1  0  0  0
 44115  1  0  0  0
 45 46  2  0  0  0
 45116  1  0  0  0
 46117  1  0  0  0
 47118  1  0  0  0
 47119  1  0  0  0
 48 56  1  0  0  0
 48 65  1  0  0  0
 48120  1  0  0  0
 49 50  1  0  0  0
 49 53  1  0  0  0
 49 64  1  0  0  0
 49121  1  0  0  0
 50 51  1  0  0  0
 50122  1  0  0  0
 50123  1  0  0  0
 51 52  1  0  0  0
 51124  1  0  0  0
 51125  1  0  0  0
 52126  1  0  0  0
 52127  1  0  0  0
 53 54  1  0  0  0
 54 55  2  0  0  0
 54128  1  0  0  0
 55 57  1  0  0  0
 55129  1  0  0  0
 56 69  2  0  0  0
 57 58  2  0  0  0
 57130  1  0  0  0
 58131  1  0  0  0
 59 60  1  0  0  0
 59 61  1  0  0  0
 59 62  1  0  0  0
 60132  1  0  0  0
 60133  1  0  0  0
 60134  1  0  0  0
 61135  1  0  0  0
 61136  1  0  0  0
 61137  1  0  0  0
 62138  1  0  0  0
 62139  1  0  0  0
 62140  1  0  0  0
 63 65  1  0  0  0
 63141  1  0  0  0
 63142  1  0  0  0
 63143  1  0  0  0
 64144  1  0  0  0
 65145  1  0  0  0
 68 82  1  0  0  0
 71 73  1  0  0  0
 71 74  2  0  0  0
 71146  1  0  0  0
 72 73  2  0  0  0
 72 83  1  0  0  0
 72147  1  0  0  0
 73 85  1  0  0  0
 74 75  1  0  0  0
 74 83  1  0  0  0
 75 84  1  0  0  0
 75 86  2  0  0  0
 76 77  1  0  0  0
 76 78  1  0  0  0
 76148  1  0  0  0
 76149  1  0  0  0
 77 79  1  0  0  0
 77150  1  0  0  0
 77151  1  0  0  0
 78 84  1  0  0  0
 78152  1  0  0  0
 78153  1  0  0  0
 79 80  1  0  0  0
 79 82  1  0  0  0
 79 84  1  0  0  0
 80154  1  0  0  0
 80155  1  0  0  0
 80156  1  0  0  0
 81 83  1  0  0  0
 81157  1  0  0  0
 81158  1  0  0  0
 81159  1  0  0  0
 82160  1  0  0  0
 82161  1  0  0  0
 85162  1  0  0  0
 86163  1  0  0  0
 86164  1  0  0  0
M  CHG  1  86   1
M  ISO  4   1 100  68 101  82 101  85 100
M  END
> <chiral flag>
0

> <version>
0

> <s_m_source_file>
/data/baiqing/PycharmProjects/Reinvent-master-3.2/result/LINK_invent/BTK/process_docking_weight1_custom_product_contain_oxygen_bond_distance_aromatic_linkinvent_7_9_3/rearranged_h_0148.sdf

> <i_m_source_file_index>
24

> <r_mmod_Potential_Energy-OPLS-2005>
273.734222412109

> <r_mmod_Stretch_Energy-OPLS-2005>
144.648132324219

> <r_mmod_Bend_Energy-OPLS-2005>
226.404495239258

> <r_mmod_Torsional_Energy-OPLS-2005>
339.470642089844

> <r_mmod_Improper_Torsional_Energy-OPLS-2005>
6.99998903274536

> <r_mmod_Van_der_Waal_Energy-OPLS-2005>
113.757522583008

> <r_mmod_Electrostatic_Energy-OPLS-2005>
-216.080673217773

> <r_mmod_Solvation_Energy-OPLS-2005>
-436.703796386719

> <b_mmod_Minimization_Converged-OPLS-2005>
0

> <r_mmod_RMS_Derivative-OPLS-2005>
3.57546043395996

$$$$
24
                    3D
 Structure written by MMmdl.
164173  0  0  1  0            999 V2000
  -30.6018  -14.6654   20.4901 C   0  0  0  0  0  0
  -30.4428  -12.4061   19.4543 C   0  0  0  0  0  0
  -29.5105  -12.5105   18.2254 C   0  0  0  0  0  0
  -28.0334  -12.3425   18.6363 C   0  0  0  0  0  0
  -27.6527  -13.2149   19.8616 C   0  0  2  0  0  0
  -28.6978  -13.0752   20.9921 C   0  0  0  0  0  0
  -25.2562  -13.8157   20.5671 C   0  0  0  0  0  0
  -24.1833  -13.0430   20.9199 C   0  0  0  0  0  0
  -24.6397  -11.6900   20.8741 C   0  0  0  0  0  0
  -23.9062  -10.4287   21.0406 C   0  0  0  0  0  0
  -24.3614   -9.4204   21.9183 C   0  0  0  0  0  0
  -23.6291   -8.2240   22.0752 C   0  0  0  0  0  0
  -22.4273   -8.0278   21.3544 C   0  0  0  0  0  0
  -21.9908   -9.0249   20.4645 C   0  0  0  0  0  0
  -22.7234  -10.2130   20.3055 C   0  0  0  0  0  0
  -21.6853   -6.0733   22.5278 C   0  0  0  0  0  0
  -21.4011   -6.5638   23.8211 C   0  0  0  0  0  0
  -21.3661   -5.6792   24.9174 C   0  0  0  0  0  0
  -21.6048   -4.3055   24.7226 C   0  0  0  0  0  0
  -21.8819   -3.8144   23.4348 C   0  0  0  0  0  0
  -21.9192   -4.6960   22.3403 C   0  0  0  0  0  0
  -22.7856  -13.5231   21.1858 C   0  0  0  0  0  0
  -22.1662   -4.2146   21.0980 F   0  0  0  0  0  0
  -21.5632   -3.4540   25.7739 F   0  0  0  0  0  0
  -30.0111  -13.4281   20.4294 N   0  0  0  0  0  0
  -26.2985  -12.9334   20.3298 N   0  0  0  0  0  0
  -25.9324  -11.6492   20.5748 N   0  0  0  0  0  0
  -22.0493  -12.8225   22.0412 N   0  0  0  0  0  0
  -25.4268  -15.1873   20.4042 N   0  0  0  0  0  0
  -31.7679  -14.8349   20.1205 O   0  0  0  0  0  0
  -21.6640   -6.8874   21.4238 O   0  0  0  0  0  0
  -22.3546  -14.5539   20.6704 O   0  0  0  0  0  0
  -24.6262  -31.8587   23.2016 C   0  0  0  0  0  0
  -25.9108  -32.4773   23.8350 C   0  0  1  0  0  0
  -27.2289  -27.3197   20.1275 C   0  0  0  0  0  0
  -25.5924  -33.8574   24.2281 N   0  0  0  0  0  0
  -23.4207  -30.4804   21.5439 C   0  0  2  0  0  0
  -24.8691  -28.9305   20.1141 C   0  0  0  0  0  0
  -22.7475  -29.4618   22.4941 C   0  0  0  0  0  0
  -18.0285  -28.1385   22.8486 C   0  0  0  0  0  0
  -24.1487  -36.7289   23.2641 C   0  0  0  0  0  0
  -25.9603  -30.7909   21.3709 C   0  0  0  0  0  0
  -26.0372  -29.4168   20.7160 C   0  0  0  0  0  0
  -27.2231  -28.6246   20.7084 C   0  0  0  0  0  0
  -26.0417  -26.8812   19.5041 C   0  0  0  0  0  0
  -24.8728  -27.6678   19.4983 C   0  0  0  0  0  0
  -23.6361  -29.8105   20.1607 C   0  0  0  0  0  0
  -25.4112  -36.3080   24.0332 C   0  0  1  0  0  0
  -20.5886  -28.3687   23.1285 C   0  0  2  0  0  0
  -20.6774  -26.9411   22.5411 C   0  0  0  0  0  0
  -19.5751  -26.6383   21.5212 C   0  0  0  0  0  0
  -18.1930  -26.7930   22.1623 C   0  0  0  0  0  0
  -19.1538  -28.8854   23.2881 C   0  0  0  0  0  0
  -18.9460  -30.1454   23.8899 C   0  0  0  0  0  0
  -17.6459  -30.6587   24.0563 C   0  0  0  0  0  0
  -25.9046  -34.9448   23.5107 C   0  0  0  0  0  0
  -16.5351  -29.9083   23.6332 C   0  0  0  0  0  0
  -16.7272  -28.6500   23.0355 C   0  0  0  0  0  0
  -26.4498  -31.6582   25.0718 C   0  0  0  0  0  0
  -25.3737  -31.3708   26.1447 C   0  0  0  0  0  0
  -27.0347  -30.3011   24.6167 C   0  0  0  0  0  0
  -27.6061  -32.4316   25.7488 C   0  0  0  0  0  0
  -27.5578  -37.1801   24.8468 C   0  0  0  0  0  0
  -21.4189  -29.3040   22.3680 N   0  0  0  0  0  0
  -26.4292  -37.3774   23.9408 N   0  0  0  0  0  0
  -24.6879  -31.0598   22.0963 N   0  0  0  0  0  0
  -23.4192  -28.8165   23.3032 O   0  0  0  0  0  0
  -28.3458  -26.4737   20.1388 O   0  0  0  0  0  0
  -26.5615  -34.8918   22.4673 O   0  0  0  0  0  0
  -23.5425  -32.1383   23.7345 O   0  0  0  0  0  0
  -28.5153  -19.3004   20.4148 C   0  0  0  0  0  0
  -28.5826  -17.8913   20.6387 C   0  0  0  0  0  0
  -30.9697  -17.9406   20.3923 C   0  0  0  0  0  0
  -29.6693  -20.0820   20.1551 C   0  0  0  0  0  0
  -29.8020  -17.1581   20.6046 C   0  0  0  0  0  0
  -30.9080  -19.3574   20.1844 C   0  0  0  0  0  0
  -28.7037  -23.8582   19.8594 C   0  0  0  0  0  0
  -29.0382  -22.6241   20.4177 C   0  0  0  0  0  0
  -28.8566  -21.7676   17.3816 C   0  0  0  0  0  0
  -28.7662  -24.1585   18.3586 C   0  0  0  0  0  0
  -28.1194  -23.1002   17.4412 C   0  0  0  0  0  0
  -30.0212  -21.5599   18.3433 C   0  0  0  0  0  0
  -28.8852  -22.4252   21.9205 C   0  0  0  0  0  0
  -28.1672  -25.1005   20.6794 C   0  0  0  0  0  0
  -29.5835  -21.4718   19.7421 N   0  0  0  0  0  0
  -32.1055  -20.0552   20.0080 N   0  0  0  0  0  0
  -29.7617  -15.7030   20.8166 N   0  0  0  0  0  0
  -28.5103  -20.8870   16.5900 O   0  0  0  0  0  0
  -31.4827  -12.5411   19.1520 H   0  0  0  0  0  0
  -30.3871  -11.4110   19.8984 H   0  0  0  0  0  0
  -29.7797  -11.7582   17.4827 H   0  0  0  0  0  0
  -29.6477  -13.4788   17.7414 H   0  0  0  0  0  0
  -27.8737  -11.2891   18.8692 H   0  0  0  0  0  0
  -27.3789  -12.5689   17.7936 H   0  0  0  0  0  0
  -27.6677  -14.2487   19.5164 H   0  0  0  0  0  0
  -28.7155  -12.0533   21.3740 H   0  0  0  0  0  0
  -28.4393  -13.7050   21.8447 H   0  0  0  0  0  0
  -25.2757   -9.5686   22.4760 H   0  0  0  0  0  0
  -24.0002   -7.4633   22.7472 H   0  0  0  0  0  0
  -21.0839   -8.8763   19.8951 H   0  0  0  0  0  0
  -22.3687  -10.9668   19.6167 H   0  0  0  0  0  0
  -21.1999   -7.6146   23.9714 H   0  0  0  0  0  0
  -21.1486   -6.0522   25.9078 H   0  0  0  0  0  0
  -22.0598   -2.7606   23.2848 H   0  0  0  0  0  0
  -22.4104  -11.9885   22.4801 H   0  0  0  0  0  0
  -21.1110  -13.1252   22.2610 H   0  0  0  0  0  0
  -24.6498  -15.8334   20.4919 H   0  0  0  0  0  0
  -26.2523  -15.6137   20.0046 H   0  0  0  0  0  0
  -26.7177  -32.5447   23.1101 H   0  0  0  0  0  0
  -25.0084  -33.9717   25.0436 H   0  0  0  0  0  0
  -22.7148  -31.3007   21.3982 H   0  0  0  0  0  0
  -23.3751  -35.9622   23.3308 H   0  0  0  0  0  0
  -24.3580  -36.8903   22.2055 H   0  0  0  0  0  0
  -23.7240  -37.6493   23.6659 H   0  0  0  0  0  0
  -26.0890  -31.5537   20.6018 H   0  0  0  0  0  0
  -26.8412  -30.8425   21.9992 H   0  0  0  0  0  0
  -28.1225  -28.9954   21.1797 H   0  0  0  0  0  0
  -26.0121  -25.9117   19.0268 H   0  0  0  0  0  0
  -23.9780  -27.2890   19.0234 H   0  0  0  0  0  0
  -23.7553  -30.5846   19.4019 H   0  0  0  0  0  0
  -22.7566  -29.2384   19.8597 H   0  0  0  0  0  0
  -25.1295  -36.1934   25.0827 H   0  0  0  0  0  0
  -20.9976  -28.3259   24.1406 H   0  0  0  0  0  0
  -20.5674  -26.2298   23.3610 H   0  0  0  0  0  0
  -21.6643  -26.7441   22.1202 H   0  0  0  0  0  0
  -19.6911  -25.6292   21.1243 H   0  0  0  0  0  0
  -19.6688  -27.3195   20.6743 H   0  0  0  0  0  0
  -17.4200  -26.6681   21.4024 H   0  0  0  0  0  0
  -18.0326  -26.0068   22.9015 H   0  0  0  0  0  0
  -19.7935  -30.7270   24.2271 H   0  0  0  0  0  0
  -17.5013  -31.6271   24.5158 H   0  0  0  0  0  0
  -15.5352  -30.2985   23.7655 H   0  0  0  0  0  0
  -15.8671  -28.0816   22.7076 H   0  0  0  0  0  0
  -24.5921  -30.7048   25.7775 H   0  0  0  0  0  0
  -24.8920  -32.2866   26.4882 H   0  0  0  0  0  0
  -25.8068  -30.8882   27.0217 H   0  0  0  0  0  0
  -26.2919  -29.6750   24.1210 H   0  0  0  0  0  0
  -27.4073  -29.7277   25.4666 H   0  0  0  0  0  0
  -27.8774  -30.4306   23.9372 H   0  0  0  0  0  0
  -27.2679  -33.3619   26.2063 H   0  0  0  0  0  0
  -28.3873  -32.6866   25.0315 H   0  0  0  0  0  0
  -28.0728  -31.8440   26.5404 H   0  0  0  0  0  0
  -28.2600  -38.0095   24.7510 H   0  0  0  0  0  0
  -28.1071  -36.2627   24.6301 H   0  0  0  0  0  0
  -27.2295  -37.1454   25.8872 H   0  0  0  0  0  0
  -20.9370  -29.8754   21.6881 H   0  0  0  0  0  0
  -26.0175  -38.2850   24.1407 H   0  0  0  0  0  0
  -27.5473  -19.7797   20.4045 H   0  0  0  0  0  0
  -27.6547  -17.3661   20.8148 H   0  0  0  0  0  0
  -31.9319  -17.4493   20.3868 H   0  0  0  0  0  0
  -29.7996  -24.3598   18.0746 H   0  0  0  0  0  0
  -28.2372  -25.0885   18.1554 H   0  0  0  0  0  0
  -27.0944  -22.9110   17.7595 H   0  0  0  0  0  0
  -28.0627  -23.4901   16.4250 H   0  0  0  0  0  0
  -30.7385  -22.3723   18.2341 H   0  0  0  0  0  0
  -30.5484  -20.6656   18.0109 H   0  0  0  0  0  0
  -27.8516  -22.6007   22.2209 H   0  0  0  0  0  0
  -29.5189  -23.1292   22.4603 H   0  0  0  0  0  0
  -29.1600  -21.4319   22.2718 H   0  0  0  0  0  0
  -28.6443  -25.1023   21.6586 H   0  0  0  0  0  0
  -27.1142  -24.9052   20.8841 H   0  0  0  0  0  0
  -32.9397  -19.6640   20.4311 H   0  0  0  0  0  0
  -32.0325  -21.0570   20.1565 H   0  0  0  0  0  0
  -28.8605  -15.3590   21.1098 H   0  0  0  0  0  0
  1 25  1  0  0  0
  1 30  2  0  0  0
  1 87  1  0  0  0
  2  3  1  0  0  0
  2 25  1  0  0  0
  2 89  1  0  0  0
  2 90  1  0  0  0
  3  4  1  0  0  0
  3 91  1  0  0  0
  3 92  1  0  0  0
  4  5  1  0  0  0
  4 93  1  0  0  0
  4 94  1  0  0  0
  5  6  1  0  0  0
  5 26  1  0  0  0
  5 95  1  0  0  0
  6 25  1  0  0  0
  6 96  1  0  0  0
  6 97  1  0  0  0
  7  8  2  0  0  0
  7 26  1  0  0  0
  7 29  1  0  0  0
  8  9  1  0  0  0
  8 22  1  0  0  0
  9 10  1  0  0  0
  9 27  2  0  0  0
 10 11  2  0  0  0
 10 15  1  0  0  0
 11 12  1  0  0  0
 11 98  1  0  0  0
 12 13  2  0  0  0
 12 99  1  0  0  0
 13 14  1  0  0  0
 13 31  1  0  0  0
 14 15  2  0  0  0
 14100  1  0  0  0
 15101  1  0  0  0
 16 17  2  0  0  0
 16 21  1  0  0  0
 16 31  1  0  0  0
 17 18  1  0  0  0
 17102  1  0  0  0
 18 19  2  0  0  0
 18103  1  0  0  0
 19 20  1  0  0  0
 19 24  1  0  0  0
 20 21  2  0  0  0
 20104  1  0  0  0
 21 23  1  0  0  0
 22 28  1  0  0  0
 22 32  2  0  0  0
 26 27  1  0  0  0
 28105  1  0  0  0
 28106  1  0  0  0
 29107  1  0  0  0
 29108  1  0  0  0
 33 34  1  0  0  0
 33 66  1  0  0  0
 33 70  2  0  0  0
 34 36  1  0  0  0
 34 59  1  0  0  0
 34109  1  0  0  0
 35 44  2  0  0  0
 35 45  1  0  0  0
 35 68  1  0  0  0
 36 56  1  0  0  0
 36110  1  0  0  0
 37 39  1  0  0  0
 37 47  1  0  0  0
 37 66  1  0  0  0
 37111  1  0  0  0
 38 43  2  0  0  0
 38 46  1  0  0  0
 38 47  1  0  0  0
 39 64  1  0  0  0
 39 67  2  0  0  0
 40 52  1  0  0  0
 40 53  2  0  0  0
 40 58  1  0  0  0
 41112  1  0  0  0
 41113  1  0  0  0
 41114  1  0  0  0
 41 48  1  0  0  0
 42 43  1  0  0  0
 42 66  1  0  0  0
 42115  1  0  0  0
 42116  1  0  0  0
 43 44  1  0  0  0
 44117  1  0  0  0
 45 46  2  0  0  0
 45118  1  0  0  0
 46119  1  0  0  0
 47120  1  0  0  0
 47121  1  0  0  0
 48 56  1  0  0  0
 48 65  1  0  0  0
 48122  1  0  0  0
 49 50  1  0  0  0
 49 53  1  0  0  0
 49 64  1  0  0  0
 49123  1  0  0  0
 50 51  1  0  0  0
 50124  1  0  0  0
 50125  1  0  0  0
 51 52  1  0  0  0
 51126  1  0  0  0
 51127  1  0  0  0
 52128  1  0  0  0
 52129  1  0  0  0
 53 54  1  0  0  0
 54 55  2  0  0  0
 54130  1  0  0  0
 55 57  1  0  0  0
 55131  1  0  0  0
 56 69  2  0  0  0
 57 58  2  0  0  0
 57132  1  0  0  0
 58133  1  0  0  0
 59 60  1  0  0  0
 59 61  1  0  0  0
 59 62  1  0  0  0
 60134  1  0  0  0
 60135  1  0  0  0
 60136  1  0  0  0
 61137  1  0  0  0
 61138  1  0  0  0
 61139  1  0  0  0
 62140  1  0  0  0
 62141  1  0  0  0
 62142  1  0  0  0
 63 65  1  0  0  0
 63143  1  0  0  0
 63144  1  0  0  0
 63145  1  0  0  0
 64146  1  0  0  0
 65147  1  0  0  0
 68 84  1  0  0  0
 71 72  2  0  0  0
 71 74  1  0  0  0
 71148  1  0  0  0
 72 75  1  0  0  0
 72149  1  0  0  0
 73 75  2  0  0  0
 73 76  1  0  0  0
 73150  1  0  0  0
 74 76  2  0  0  0
 74 85  1  0  0  0
 75 87  1  0  0  0
 76 86  1  0  0  0
 77 78  2  0  0  0
 77 80  1  0  0  0
 77 84  1  0  0  0
 78 83  1  0  0  0
 78 85  1  0  0  0
 79 81  1  0  0  0
 79 82  1  0  0  0
 79 88  2  0  0  0
 80 81  1  0  0  0
 80151  1  0  0  0
 80152  1  0  0  0
 81153  1  0  0  0
 81154  1  0  0  0
 82 85  1  0  0  0
 82155  1  0  0  0
 82156  1  0  0  0
 83157  1  0  0  0
 83158  1  0  0  0
 83159  1  0  0  0
 84160  1  0  0  0
 84161  1  0  0  0
 86162  1  0  0  0
 86163  1  0  0  0
 87164  1  0  0  0
M  ISO  4   1 100  68 101  84 101  87 100
M  END
> <chiral flag>
0

> <version>
0

> <s_m_source_file>
/data/baiqing/PycharmProjects/Reinvent-master-3.2/result/LINK_invent/BTK/process_docking_weight1_custom_product_contain_oxygen_bond_distance_aromatic_linkinvent_7_9_3/rearranged_h_0148.sdf

> <i_m_source_file_index>
25

> <r_mmod_Potential_Energy-OPLS-2005>
127.791290283203

> <r_mmod_Stretch_Energy-OPLS-2005>
94.1709899902344

> <r_mmod_Bend_Energy-OPLS-2005>
145.161102294922

> <r_mmod_Torsional_Energy-OPLS-2005>
280.511444091797

> <r_mmod_Improper_Torsional_Energy-OPLS-2005>
9.68120765686035

> <r_mmod_Van_der_Waal_Energy-OPLS-2005>
156.656387329102

> <r_mmod_Electrostatic_Energy-OPLS-2005>
-388.064971923828

> <r_mmod_Solvation_Energy-OPLS-2005>
-222.603118896484

> <b_mmod_Minimization_Converged-OPLS-2005>
0

> <r_mmod_RMS_Derivative-OPLS-2005>
0.480772495269775

$$$$
25
                    3D
 Structure written by MMmdl.
153161  0  0  1  0            999 V2000
  -30.4295  -15.4076   20.3658 C   0  0  0  0  0  0
  -30.4139  -12.9166   19.5326 C   0  0  0  0  0  0
  -29.5310  -12.6072   18.2976 C   0  0  0  0  0  0
  -28.0877  -12.3062   18.7277 C   0  0  0  0  0  0
  -27.5963  -13.2934   19.8145 C   0  0  2  0  0  0
  -28.6218  -13.5526   20.9406 C   0  0  0  0  0  0
  -25.2330  -13.8283   20.5789 C   0  0  0  0  0  0
  -24.1702  -13.0444   20.9274 C   0  0  0  0  0  0
  -24.6382  -11.6950   20.8766 C   0  0  0  0  0  0
  -23.9090  -10.4302   21.0409 C   0  0  0  0  0  0
  -24.3642   -9.4213   21.9184 C   0  0  0  0  0  0
  -23.6315   -8.2250   22.0751 C   0  0  0  0  0  0
  -22.4292   -8.0289   21.3547 C   0  0  0  0  0  0
  -21.9941   -9.0254   20.4635 C   0  0  0  0  0  0
  -22.7268  -10.2134   20.3049 C   0  0  0  0  0  0
  -21.6856   -6.0751   22.5282 C   0  0  0  0  0  0
  -21.4020   -6.5651   23.8219 C   0  0  0  0  0  0
  -21.3662   -5.6797   24.9179 C   0  0  0  0  0  0
  -21.6044   -4.3060   24.7226 C   0  0  0  0  0  0
  -21.8816   -3.8156   23.4345 C   0  0  0  0  0  0
  -21.9193   -4.6977   22.3405 C   0  0  0  0  0  0
  -22.7720  -13.5184   21.1917 C   0  0  0  0  0  0
  -22.1664   -4.2164   21.0983 F   0  0  0  0  0  0
  -21.5629   -3.4543   25.7740 F   0  0  0  0  0  0
  -29.8246  -14.1017   20.2876 N   0  0  0  0  0  0
  -26.2748  -12.9579   20.3222 N   0  0  0  0  0  0
  -25.9322  -11.6666   20.5709 N   0  0  0  0  0  0
  -22.0392  -12.8149   22.0461 N   0  0  0  0  0  0
  -25.3987  -15.2022   20.4268 N   0  0  0  0  0  0
  -31.6532  -15.2974   20.1698 O   0  0  0  0  0  0
  -21.6646   -6.8893   21.4244 O   0  0  0  0  0  0
  -22.3395  -14.5490   20.6765 O   0  0  0  0  0  0
  -24.6715  -31.8127   23.1613 C   0  0  0  0  0  0
  -25.9354  -32.4533   23.8113 C   0  0  1  0  0  0
  -27.2105  -26.8221   20.1996 C   0  0  0  0  0  0
  -25.5984  -33.8354   24.2013 N   0  0  0  0  0  0
  -23.4906  -30.4206   21.5132 C   0  0  2  0  0  0
  -24.9434  -28.7861   20.1133 C   0  0  0  0  0  0
  -22.7704  -29.4385   22.4749 C   0  0  0  0  0  0
  -18.0325  -28.1413   22.8462 C   0  0  0  0  0  0
  -24.1498  -36.7177   23.2650 C   0  0  0  0  0  0
  -26.0650  -30.5857   21.4067 C   0  0  0  0  0  0
  -26.1301  -29.1638   20.7538 C   0  0  0  0  0  0
  -27.2547  -28.2051   20.7678 C   0  0  0  0  0  0
  -25.9956  -26.6226   19.5043 C   0  0  0  0  0  0
  -24.9079  -27.5392   19.4665 C   0  0  0  0  0  0
  -23.7358  -29.7279   20.1429 C   0  0  0  0  0  0
  -25.4144  -36.2936   24.0292 C   0  0  1  0  0  0
  -20.5955  -28.3764   23.1168 C   0  0  2  0  0  0
  -20.6797  -26.9435   22.5406 C   0  0  0  0  0  0
  -19.5776  -26.6372   21.5216 C   0  0  0  0  0  0
  -18.1957  -26.7942   22.1620 C   0  0  0  0  0  0
  -19.1590  -28.8911   23.2798 C   0  0  0  0  0  0
  -18.9501  -30.1497   23.8839 C   0  0  0  0  0  0
  -17.6492  -30.6598   24.0553 C   0  0  0  0  0  0
  -25.9114  -34.9322   23.4982 C   0  0  0  0  0  0
  -16.5383  -29.9084   23.6345 C   0  0  0  0  0  0
  -16.7309  -28.6505   23.0366 C   0  0  0  0  0  0
  -26.4575  -31.6513   25.0680 C   0  0  0  0  0  0
  -25.3675  -31.3789   26.1313 C   0  0  0  0  0  0
  -27.0488  -30.2868   24.6486 C   0  0  0  0  0  0
  -27.6052  -32.4337   25.7490 C   0  0  0  0  0  0
  -27.5571  -37.1747   24.8463 C   0  0  0  0  0  0
  -21.4365  -29.3035   22.3504 N   0  0  0  0  0  0
  -26.4277  -37.3682   23.9408 N   0  0  0  0  0  0
  -24.7647  -30.9697   22.0800 N   0  0  0  0  0  0
  -23.4209  -28.7971   23.3038 O   0  0  0  0  0  0
  -28.1892  -25.6630   20.2867 O   0  0  0  0  0  0
  -26.5741  -34.8875   22.4589 O   0  0  0  0  0  0
  -23.5764  -32.1148   23.6651 O   0  0  0  0  0  0
  -28.7692  -19.3315   21.3301 C   0  0  0  0  0  0
  -28.7249  -17.6313   21.0424 C   0  0  0  0  0  0
  -30.4951  -18.0761   19.6857 C   0  0  0  0  0  0
  -28.7825  -20.5387   20.1867 C   0  0  2  0  0  0
  -29.7564  -19.5621   19.2505 C   0  0  1  0  0  0
  -30.8254  -20.4345   18.5851 C   0  0  0  0  0  0
  -28.9127  -22.4003   20.4324 C   0  0  0  0  0  0
  -27.9685  -23.9838   20.1076 C   0  0  0  0  0  0
  -29.8144  -16.8084   20.2859 N   0  0  0  0  0  0
  -31.4295  -13.1142   19.1886 H   0  0  0  0  0  0
  -30.4983  -12.0405   20.1784 H   0  0  0  0  0  0
  -29.9389  -11.7691   17.7311 H   0  0  0  0  0  0
  -29.5394  -13.4666   17.6251 H   0  0  0  0  0  0
  -28.0612  -11.2873   19.1151 H   0  0  0  0  0  0
  -27.4213  -12.3241   17.8646 H   0  0  0  0  0  0
  -27.4831  -14.2399   19.2839 H   0  0  0  0  0  0
  -28.8293  -12.6483   21.5152 H   0  0  0  0  0  0
  -28.2288  -14.2867   21.6453 H   0  0  0  0  0  0
  -25.2786   -9.5694   22.4757 H   0  0  0  0  0  0
  -24.0026   -7.4641   22.7470 H   0  0  0  0  0  0
  -21.0882   -8.8765   19.8932 H   0  0  0  0  0  0
  -22.3726  -10.9671   19.6155 H   0  0  0  0  0  0
  -21.2013   -7.6159   23.9729 H   0  0  0  0  0  0
  -21.1490   -6.0529   25.9083 H   0  0  0  0  0  0
  -22.0592   -2.7619   23.2838 H   0  0  0  0  0  0
  -22.4054  -11.9832   22.4846 H   0  0  0  0  0  0
  -21.0991  -13.1121   22.2664 H   0  0  0  0  0  0
  -24.6339  -15.8571   20.5476 H   0  0  0  0  0  0
  -26.2523  -15.6422   20.1077 H   0  0  0  0  0  0
  -26.7422  -32.5042   23.0821 H   0  0  0  0  0  0
  -25.0065  -33.9412   25.0121 H   0  0  0  0  0  0
  -22.8091  -31.2549   21.3340 H   0  0  0  0  0  0
  -23.3783  -35.9484   23.3268 H   0  0  0  0  0  0
  -24.3571  -36.8872   22.2072 H   0  0  0  0  0  0
  -23.7234  -37.6339   23.6744 H   0  0  0  0  0  0
  -26.2552  -31.3199   20.6227 H   0  0  0  0  0  0
  -26.9209  -30.6470   22.0666 H   0  0  0  0  0  0
  -28.1498  -28.4935   21.3011 H   0  0  0  0  0  0
  -25.8496  -25.6726   19.0116 H   0  0  0  0  0  0
  -24.0086  -27.2441   18.9441 H   0  0  0  0  0  0
  -23.9003  -30.4921   19.3822 H   0  0  0  0  0  0
  -22.8424  -29.1883   19.8235 H   0  0  0  0  0  0
  -25.1350  -36.1716   25.0785 H   0  0  0  0  0  0
  -21.0043  -28.3383   24.1293 H   0  0  0  0  0  0
  -20.5656  -26.2392   23.3662 H   0  0  0  0  0  0
  -21.6663  -26.7386   22.1230 H   0  0  0  0  0  0
  -19.6934  -25.6267   21.1285 H   0  0  0  0  0  0
  -19.6716  -27.3150   20.6720 H   0  0  0  0  0  0
  -17.4226  -26.6687   21.4021 H   0  0  0  0  0  0
  -18.0344  -26.0097   22.9027 H   0  0  0  0  0  0
  -19.7977  -30.7328   24.2185 H   0  0  0  0  0  0
  -17.5044  -31.6273   24.5170 H   0  0  0  0  0  0
  -15.5380  -30.2971   23.7697 H   0  0  0  0  0  0
  -15.8710  -28.0801   22.7118 H   0  0  0  0  0  0
  -24.5887  -30.7108   25.7612 H   0  0  0  0  0  0
  -24.8830  -32.2998   26.4570 H   0  0  0  0  0  0
  -25.7879  -30.9064   27.0198 H   0  0  0  0  0  0
  -26.3177  -29.6511   24.1477 H   0  0  0  0  0  0
  -27.3963  -29.7270   25.5178 H   0  0  0  0  0  0
  -27.9139  -30.4017   23.9955 H   0  0  0  0  0  0
  -27.2614  -33.3692   26.1910 H   0  0  0  0  0  0
  -28.3945  -32.6802   25.0378 H   0  0  0  0  0  0
  -28.0627  -31.8564   26.5530 H   0  0  0  0  0  0
  -28.2557  -38.0072   24.7528 H   0  0  0  0  0  0
  -28.1099  -36.2598   24.6276 H   0  0  0  0  0  0
  -27.2287  -37.1367   25.8863 H   0  0  0  0  0  0
  -20.9642  -29.8713   21.6606 H   0  0  0  0  0  0
  -26.0116  -38.2734   24.1427 H   0  0  0  0  0  0
  -29.6346  -19.5073   21.9709 H   0  0  0  0  0  0
  -27.9200  -19.5486   21.9796 H   0  0  0  0  0  0
  -27.7835  -17.4114   20.5383 H   0  0  0  0  0  0
  -28.6313  -17.1491   22.0166 H   0  0  0  0  0  0
  -31.3034  -18.3147   20.3792 H   0  0  0  0  0  0
  -31.0117  -17.7111   18.7970 H   0  0  0  0  0  0
  -27.7969  -20.4610   19.7243 H   0  0  0  0  0  0
  -29.0977  -19.2659   18.4312 H   0  0  0  0  0  0
  -31.5491  -20.7933   19.3175 H   0  0  0  0  0  0
  -30.3814  -21.3002   18.0928 H   0  0  0  0  0  0
  -31.3712  -19.8783   17.8222 H   0  0  0  0  0  0
  -29.8898  -22.6312   20.0102 H   0  0  0  0  0  0
  -29.1015  -22.4677   21.5040 H   0  0  0  0  0  0
  -27.0269  -23.8237   20.6337 H   0  0  0  0  0  0
  -27.6895  -23.9023   19.0568 H   0  0  0  0  0  0
  1 25  1  0  0  0
  1 30  2  0  0  0
  1 79  1  0  0  0
  2  3  1  0  0  0
  2 25  1  0  0  0
  2 80  1  0  0  0
  2 81  1  0  0  0
  3  4  1  0  0  0
  3 82  1  0  0  0
  3 83  1  0  0  0
  4  5  1  0  0  0
  4 84  1  0  0  0
  4 85  1  0  0  0
  5  6  1  0  0  0
  5 26  1  0  0  0
  5 86  1  0  0  0
  6 25  1  0  0  0
  6 87  1  0  0  0
  6 88  1  0  0  0
  7  8  2  0  0  0
  7 26  1  0  0  0
  7 29  1  0  0  0
  8  9  1  0  0  0
  8 22  1  0  0  0
  9 10  1  0  0  0
  9 27  2  0  0  0
 10 11  2  0  0  0
 10 15  1  0  0  0
 11 12  1  0  0  0
 11 89  1  0  0  0
 12 13  2  0  0  0
 12 90  1  0  0  0
 13 14  1  0  0  0
 13 31  1  0  0  0
 14 15  2  0  0  0
 14 91  1  0  0  0
 15 92  1  0  0  0
 16 17  2  0  0  0
 16 21  1  0  0  0
 16 31  1  0  0  0
 17 18  1  0  0  0
 17 93  1  0  0  0
 18 19  2  0  0  0
 18 94  1  0  0  0
 19 20  1  0  0  0
 19 24  1  0  0  0
 20 21  2  0  0  0
 20 95  1  0  0  0
 21 23  1  0  0  0
 22 28  1  0  0  0
 22 32  2  0  0  0
 26 27  1  0  0  0
 28 96  1  0  0  0
 28 97  1  0  0  0
 29 98  1  0  0  0
 29 99  1  0  0  0
 33 34  1  0  0  0
 33 66  1  0  0  0
 33 70  2  0  0  0
 34 36  1  0  0  0
 34 59  1  0  0  0
 34100  1  0  0  0
 35 44  2  0  0  0
 35 45  1  0  0  0
 35 68  1  0  0  0
 36 56  1  0  0  0
 36101  1  0  0  0
 37 39  1  0  0  0
 37 47  1  0  0  0
 37 66  1  0  0  0
 37102  1  0  0  0
 38 43  2  0  0  0
 38 46  1  0  0  0
 38 47  1  0  0  0
 39 64  1  0  0  0
 39 67  2  0  0  0
 40 52  1  0  0  0
 40 53  2  0  0  0
 40 58  1  0  0  0
 41103  1  0  0  0
 41104  1  0  0  0
 41105  1  0  0  0
 41 48  1  0  0  0
 42 43  1  0  0  0
 42 66  1  0  0  0
 42106  1  0  0  0
 42107  1  0  0  0
 43 44  1  0  0  0
 44108  1  0  0  0
 45 46  2  0  0  0
 45109  1  0  0  0
 46110  1  0  0  0
 47111  1  0  0  0
 47112  1  0  0  0
 48 56  1  0  0  0
 48 65  1  0  0  0
 48113  1  0  0  0
 49 50  1  0  0  0
 49 53  1  0  0  0
 49 64  1  0  0  0
 49114  1  0  0  0
 50 51  1  0  0  0
 50115  1  0  0  0
 50116  1  0  0  0
 51 52  1  0  0  0
 51117  1  0  0  0
 51118  1  0  0  0
 52119  1  0  0  0
 52120  1  0  0  0
 53 54  1  0  0  0
 54 55  2  0  0  0
 54121  1  0  0  0
 55 57  1  0  0  0
 55122  1  0  0  0
 56 69  2  0  0  0
 57 58  2  0  0  0
 57123  1  0  0  0
 58124  1  0  0  0
 59 60  1  0  0  0
 59 61  1  0  0  0
 59 62  1  0  0  0
 60125  1  0  0  0
 60126  1  0  0  0
 60127  1  0  0  0
 61128  1  0  0  0
 61129  1  0  0  0
 61130  1  0  0  0
 62131  1  0  0  0
 62132  1  0  0  0
 62133  1  0  0  0
 63 65  1  0  0  0
 63134  1  0  0  0
 63135  1  0  0  0
 63136  1  0  0  0
 64137  1  0  0  0
 65138  1  0  0  0
 68 78  1  0  0  0
 71 72  1  0  0  0
 71 74  1  0  0  0
 71139  1  0  0  0
 71140  1  0  0  0
 72 79  1  0  0  0
 72141  1  0  0  0
 72142  1  0  0  0
 73 75  1  0  0  0
 73 79  1  0  0  0
 73143  1  0  0  0
 73144  1  0  0  0
 74 75  1  0  0  0
 74 77  1  0  0  0
 74145  1  0  0  0
 75 76  1  0  0  0
 75146  1  0  0  0
 76147  1  0  0  0
 76148  1  0  0  0
 76149  1  0  0  0
 77 78  1  0  0  0
 77150  1  0  0  0
 77151  1  0  0  0
 78152  1  0  0  0
 78153  1  0  0  0
M  ISO  4   1 100  68 101  78 101  79 100
M  END
> <chiral flag>
0

> <version>
0

> <s_m_source_file>
/data/baiqing/PycharmProjects/Reinvent-master-3.2/result/LINK_invent/BTK/process_docking_weight1_custom_product_contain_oxygen_bond_distance_aromatic_linkinvent_7_9_3/rearranged_h_0148.sdf

> <i_m_source_file_index>
26

> <r_mmod_Potential_Energy-OPLS-2005>
1996.87683105469

> <r_mmod_Stretch_Energy-OPLS-2005>
771.277587890625

> <r_mmod_Bend_Energy-OPLS-2005>
621.445068359375

> <r_mmod_Torsional_Energy-OPLS-2005>
337.264892578125

> <r_mmod_Improper_Torsional_Energy-OPLS-2005>
11.8707799911499

> <r_mmod_Van_der_Waal_Energy-OPLS-2005>
119.892608642578

> <r_mmod_Electrostatic_Energy-OPLS-2005>
-284.784149169922

> <r_mmod_Solvation_Energy-OPLS-2005>
-198.475494384766

> <b_mmod_Minimization_Converged-OPLS-2005>
0

> <r_mmod_RMS_Derivative-OPLS-2005>
1.12402951717377

$$$$
26
                    3D
 Structure written by MMmdl.
165174  0  0  1  0            999 V2000
  -30.5870  -14.6264   20.4576 C   0  0  0  0  0  0
  -30.4395  -12.3743   19.4345 C   0  0  0  0  0  0
  -29.5004  -12.4746   18.2098 C   0  0  0  0  0  0
  -28.0226  -12.3062   18.6240 C   0  0  0  0  0  0
  -27.6389  -13.1989   19.8350 C   0  0  2  0  0  0
  -28.6848  -13.0742   20.9663 C   0  0  0  0  0  0
  -25.2513  -13.8149   20.5585 C   0  0  0  0  0  0
  -24.1785  -13.0446   20.9184 C   0  0  0  0  0  0
  -24.6327  -11.6903   20.8741 C   0  0  0  0  0  0
  -23.8993  -10.4305   21.0428 C   0  0  0  0  0  0
  -24.3567   -9.4229   21.9207 C   0  0  0  0  0  0
  -23.6241   -8.2264   22.0776 C   0  0  0  0  0  0
  -22.4248   -8.0290   21.3554 C   0  0  0  0  0  0
  -21.9850   -9.0267   20.4672 C   0  0  0  0  0  0
  -22.7165  -10.2160   20.3078 C   0  0  0  0  0  0
  -21.6862   -6.0700   22.5244 C   0  0  0  0  0  0
  -21.4016   -6.5607   23.8188 C   0  0  0  0  0  0
  -21.3651   -5.6777   24.9160 C   0  0  0  0  0  0
  -21.6045   -4.3032   24.7239 C   0  0  0  0  0  0
  -21.8820   -3.8109   23.4363 C   0  0  0  0  0  0
  -21.9188   -4.6903   22.3411 C   0  0  0  0  0  0
  -22.7826  -13.5285   21.1840 C   0  0  0  0  0  0
  -22.1669   -4.2094   21.0987 F   0  0  0  0  0  0
  -21.5611   -3.4526   25.7757 F   0  0  0  0  0  0
  -30.0000  -13.3976   20.3938 N   0  0  0  0  0  0
  -26.2895  -12.9267   20.3159 N   0  0  0  0  0  0
  -25.9226  -11.6464   20.5696 N   0  0  0  0  0  0
  -22.0420  -12.8338   22.0412 N   0  0  0  0  0  0
  -25.4204  -15.1863   20.3877 N   0  0  0  0  0  0
  -31.7855  -14.8072   20.2248 O   0  0  0  0  0  0
  -21.6630   -6.8852   21.4238 O   0  0  0  0  0  0
  -22.3573  -14.5596   20.6639 O   0  0  0  0  0  0
  -24.6211  -31.8604   23.2045 C   0  0  0  0  0  0
  -25.9078  -32.4784   23.8359 C   0  0  1  0  0  0
  -27.2313  -27.3585   20.1102 C   0  0  0  0  0  0
  -25.5919  -33.8585   24.2294 N   0  0  0  0  0  0
  -23.4154  -30.4825   21.5469 C   0  0  2  0  0  0
  -24.8623  -28.9382   20.1152 C   0  0  0  0  0  0
  -22.7455  -29.4612   22.4957 C   0  0  0  0  0  0
  -18.0285  -28.1373   22.8492 C   0  0  0  0  0  0
  -24.1484  -36.7297   23.2634 C   0  0  0  0  0  0
  -25.9523  -30.8031   21.3690 C   0  0  0  0  0  0
  -26.0288  -29.4324   20.7138 C   0  0  0  0  0  0
  -27.2183  -28.6537   20.7006 C   0  0  0  0  0  0
  -26.0462  -26.9036   19.4936 C   0  0  0  0  0  0
  -24.8689  -27.6765   19.4989 C   0  0  0  0  0  0
  -23.6285  -29.8140   20.1638 C   0  0  0  0  0  0
  -25.4107  -36.3090   24.0327 C   0  0  1  0  0  0
  -20.5877  -28.3665   23.1297 C   0  0  2  0  0  0
  -20.6769  -26.9396   22.5404 C   0  0  0  0  0  0
  -19.5743  -26.6375   21.5208 C   0  0  0  0  0  0
  -18.1925  -26.7917   22.1629 C   0  0  0  0  0  0
  -19.1537  -28.8841   23.2888 C   0  0  0  0  0  0
  -18.9462  -30.1446   23.8903 C   0  0  0  0  0  0
  -17.6463  -30.6578   24.0554 C   0  0  0  0  0  0
  -25.9042  -34.9453   23.5113 C   0  0  0  0  0  0
  -16.5359  -29.9074   23.6332 C   0  0  0  0  0  0
  -16.7271  -28.6489   23.0362 C   0  0  0  0  0  0
  -26.4483  -31.6592   25.0717 C   0  0  0  0  0  0
  -25.3740  -31.3731   26.1464 C   0  0  0  0  0  0
  -27.0311  -30.3024   24.6138 C   0  0  0  0  0  0
  -27.6063  -32.4300   25.7479 C   0  0  0  0  0  0
  -27.5572  -37.1809   24.8467 C   0  0  0  0  0  0
  -21.4175  -29.3024   22.3701 N   0  0  0  0  0  0
  -26.4295  -37.3776   23.9397 N   0  0  0  0  0  0
  -24.6821  -31.0638   22.0980 N   0  0  0  0  0  0
  -23.4189  -28.8145   23.3016 O   0  0  0  0  0  0
  -28.3668  -26.5517   20.1049 O   0  0  0  0  0  0
  -26.5604  -34.8916   22.4675 O   0  0  0  0  0  0
  -23.5389  -32.1390   23.7400 O   0  0  0  0  0  0
  -30.1435  -18.1363   20.3601 C   0  0  0  0  0  0
  -28.8567  -18.3366   22.8301 C   0  0  0  0  0  0
  -30.0163  -19.4426   20.9573 C   0  0  0  0  0  0
  -29.6789  -16.9468   20.9980 C   0  0  0  0  0  0
  -29.3960  -19.5071   22.2470 C   0  0  0  0  0  0
  -28.9848  -17.0790   22.2161 C   0  0  0  0  0  0
  -30.6799  -20.6031   20.2469 C   0  0  0  0  0  0
  -30.5074  -24.3114   19.7704 C   0  0  0  0  0  0
  -31.1648  -22.9483   19.5019 C   0  0  0  0  0  0
  -28.9964  -22.6060   20.4777 C   0  0  0  0  0  0
  -28.9995  -24.0374   19.7991 C   0  0  2  0  0  0
  -28.4420  -23.9449   18.3612 C   0  0  0  0  0  0
  -28.2106  -25.1689   20.5742 C   0  0  0  0  0  0
  -30.2657  -21.9136   20.0749 N   0  0  0  0  0  0
  -29.3093  -20.6690   23.0238 N   0  0  0  0  0  0
  -29.6825  -15.6423   20.3863 N   0  0  0  0  0  0
  -31.8709  -20.3022   19.7135 N   0  3  0  0  0  0
  -28.4163  -15.9927   22.7937 F   0  0  0  0  0  0
  -31.4773  -12.5223   19.1292 H   0  0  0  0  0  0
  -30.3915  -11.3850   19.8908 H   0  0  0  0  0  0
  -29.7636  -11.7201   17.4679 H   0  0  0  0  0  0
  -29.6370  -13.4400   17.7197 H   0  0  0  0  0  0
  -27.8651  -11.2553   18.8715 H   0  0  0  0  0  0
  -27.3732  -12.5176   17.7735 H   0  0  0  0  0  0
  -27.6333  -14.2195   19.4553 H   0  0  0  0  0  0
  -28.6908  -12.0641   21.3772 H   0  0  0  0  0  0
  -28.4338  -13.7383   21.7974 H   0  0  0  0  0  0
  -25.2729   -9.5671   22.4779 H   0  0  0  0  0  0
  -23.9894   -7.4667   22.7529 H   0  0  0  0  0  0
  -21.0744   -8.8823   19.9016 H   0  0  0  0  0  0
  -22.3625  -10.9704   19.6182 H   0  0  0  0  0  0
  -21.2029   -7.6137   23.9672 H   0  0  0  0  0  0
  -21.1461   -6.0531   25.9068 H   0  0  0  0  0  0
  -22.0595   -2.7566   23.2915 H   0  0  0  0  0  0
  -22.3954  -11.9998   22.4862 H   0  0  0  0  0  0
  -21.1073  -13.1474   22.2610 H   0  0  0  0  0  0
  -24.6377  -15.8232   20.4774 H   0  0  0  0  0  0
  -26.2127  -15.6011   19.9151 H   0  0  0  0  0  0
  -26.7150  -32.5472   23.1115 H   0  0  0  0  0  0
  -25.0085  -33.9727   25.0450 H   0  0  0  0  0  0
  -22.7079  -31.3010   21.4035 H   0  0  0  0  0  0
  -23.3728  -35.9657   23.3353 H   0  0  0  0  0  0
  -24.3563  -36.8845   22.2035 H   0  0  0  0  0  0
  -23.7274  -37.6534   23.6609 H   0  0  0  0  0  0
  -26.0746  -31.5667   20.5993 H   0  0  0  0  0  0
  -26.8363  -30.8563   21.9938 H   0  0  0  0  0  0
  -28.1173  -29.0304   21.1673 H   0  0  0  0  0  0
  -26.0239  -25.9398   19.0051 H   0  0  0  0  0  0
  -23.9740  -27.2906   19.0295 H   0  0  0  0  0  0
  -23.7444  -30.5877   19.4042 H   0  0  0  0  0  0
  -22.7516  -29.2376   19.8627 H   0  0  0  0  0  0
  -25.1290  -36.1954   25.0826 H   0  0  0  0  0  0
  -20.9963  -28.3229   24.1417 H   0  0  0  0  0  0
  -20.5680  -26.2269   23.3591 H   0  0  0  0  0  0
  -21.6639  -26.7423   22.1189 H   0  0  0  0  0  0
  -19.6898  -25.6286   21.1238 H   0  0  0  0  0  0
  -19.6677  -27.3190   20.6741 H   0  0  0  0  0  0
  -17.4181  -26.6649   21.4047 H   0  0  0  0  0  0
  -18.0344  -26.0066   22.9035 H   0  0  0  0  0  0
  -19.7930  -30.7270   24.2276 H   0  0  0  0  0  0
  -17.5009  -31.6258   24.5135 H   0  0  0  0  0  0
  -15.5365  -30.2980   23.7646 H   0  0  0  0  0  0
  -15.8660  -28.0806   22.7094 H   0  0  0  0  0  0
  -24.5880  -30.7120   25.7797 H   0  0  0  0  0  0
  -24.8978  -32.2907   26.4928 H   0  0  0  0  0  0
  -25.8073  -30.8868   27.0213 H   0  0  0  0  0  0
  -26.2872  -29.6788   24.1173 H   0  0  0  0  0  0
  -27.4042  -29.7259   25.4610 H   0  0  0  0  0  0
  -27.8723  -30.4321   23.9327 H   0  0  0  0  0  0
  -27.2712  -33.3608   26.2058 H   0  0  0  0  0  0
  -28.3883  -32.6836   25.0313 H   0  0  0  0  0  0
  -28.0722  -31.8417   26.5392 H   0  0  0  0  0  0
  -28.2617  -38.0076   24.7477 H   0  0  0  0  0  0
  -28.1043  -36.2613   24.6354 H   0  0  0  0  0  0
  -27.2280  -37.1512   25.8867 H   0  0  0  0  0  0
  -20.9357  -29.8767   21.6929 H   0  0  0  0  0  0
  -26.0183  -38.2857   24.1387 H   0  0  0  0  0  0
  -30.6089  -18.0381   19.3899 H   0  0  0  0  0  0
  -28.3445  -18.3721   23.7815 H   0  0  0  0  0  0
  -30.7759  -25.0454   19.0089 H   0  0  0  0  0  0
  -30.8509  -24.7007   20.7293 H   0  0  0  0  0  0
  -32.1619  -22.9194   19.9478 H   0  0  0  0  0  0
  -31.2818  -22.7893   18.4282 H   0  0  0  0  0  0
  -28.1215  -22.0245   20.1843 H   0  0  0  0  0  0
  -28.9635  -22.7128   21.5603 H   0  0  0  0  0  0
  -28.9181  -23.1587   17.7770 H   0  0  0  0  0  0
  -28.5831  -24.8793   17.8193 H   0  0  0  0  0  0
  -27.3723  -23.7390   18.3618 H   0  0  0  0  0  0
  -28.5460  -25.1691   21.6104 H   0  0  0  0  0  0
  -27.1635  -24.8722   20.6349 H   0  0  0  0  0  0
  -29.0018  -20.5577   23.9865 H   0  0  0  0  0  0
  -30.0852  -21.3200   22.9761 H   0  0  0  0  0  0
  -28.7558  -15.2557   20.3005 H   0  0  0  0  0  0
  -32.2825  -19.4031   19.9241 H   0  0  0  0  0  0
  -32.3622  -20.9162   19.0895 H   0  0  0  0  0  0
  1 25  1  0  0  0
  1 30  2  0  0  0
  1 86  1  0  0  0
  2  3  1  0  0  0
  2 25  1  0  0  0
  2 89  1  0  0  0
  2 90  1  0  0  0
  3  4  1  0  0  0
  3 91  1  0  0  0
  3 92  1  0  0  0
  4  5  1  0  0  0
  4 93  1  0  0  0
  4 94  1  0  0  0
  5  6  1  0  0  0
  5 26  1  0  0  0
  5 95  1  0  0  0
  6 25  1  0  0  0
  6 96  1  0  0  0
  6 97  1  0  0  0
  7  8  2  0  0  0
  7 26  1  0  0  0
  7 29  1  0  0  0
  8  9  1  0  0  0
  8 22  1  0  0  0
  9 10  1  0  0  0
  9 27  2  0  0  0
 10 11  2  0  0  0
 10 15  1  0  0  0
 11 12  1  0  0  0
 11 98  1  0  0  0
 12 13  2  0  0  0
 12 99  1  0  0  0
 13 14  1  0  0  0
 13 31  1  0  0  0
 14 15  2  0  0  0
 14100  1  0  0  0
 15101  1  0  0  0
 16 17  2  0  0  0
 16 21  1  0  0  0
 16 31  1  0  0  0
 17 18  1  0  0  0
 17102  1  0  0  0
 18 19  2  0  0  0
 18103  1  0  0  0
 19 20  1  0  0  0
 19 24  1  0  0  0
 20 21  2  0  0  0
 20104  1  0  0  0
 21 23  1  0  0  0
 22 28  1  0  0  0
 22 32  2  0  0  0
 26 27  1  0  0  0
 28105  1  0  0  0
 28106  1  0  0  0
 29107  1  0  0  0
 29108  1  0  0  0
 33 34  1  0  0  0
 33 66  1  0  0  0
 33 70  2  0  0  0
 34 36  1  0  0  0
 34 59  1  0  0  0
 34109  1  0  0  0
 35 44  2  0  0  0
 35 45  1  0  0  0
 35 68  1  0  0  0
 36 56  1  0  0  0
 36110  1  0  0  0
 37 39  1  0  0  0
 37 47  1  0  0  0
 37 66  1  0  0  0
 37111  1  0  0  0
 38 43  2  0  0  0
 38 46  1  0  0  0
 38 47  1  0  0  0
 39 64  1  0  0  0
 39 67  2  0  0  0
 40 52  1  0  0  0
 40 53  2  0  0  0
 40 58  1  0  0  0
 41112  1  0  0  0
 41113  1  0  0  0
 41114  1  0  0  0
 41 48  1  0  0  0
 42 43  1  0  0  0
 42 66  1  0  0  0
 42115  1  0  0  0
 42116  1  0  0  0
 43 44  1  0  0  0
 44117  1  0  0  0
 45 46  2  0  0  0
 45118  1  0  0  0
 46119  1  0  0  0
 47120  1  0  0  0
 47121  1  0  0  0
 48 56  1  0  0  0
 48 65  1  0  0  0
 48122  1  0  0  0
 49 50  1  0  0  0
 49 53  1  0  0  0
 49 64  1  0  0  0
 49123  1  0  0  0
 50 51  1  0  0  0
 50124  1  0  0  0
 50125  1  0  0  0
 51 52  1  0  0  0
 51126  1  0  0  0
 51127  1  0  0  0
 52128  1  0  0  0
 52129  1  0  0  0
 53 54  1  0  0  0
 54 55  2  0  0  0
 54130  1  0  0  0
 55 57  1  0  0  0
 55131  1  0  0  0
 56 69  2  0  0  0
 57 58  2  0  0  0
 57132  1  0  0  0
 58133  1  0  0  0
 59 60  1  0  0  0
 59 61  1  0  0  0
 59 62  1  0  0  0
 60134  1  0  0  0
 60135  1  0  0  0
 60136  1  0  0  0
 61137  1  0  0  0
 61138  1  0  0  0
 61139  1  0  0  0
 62140  1  0  0  0
 62141  1  0  0  0
 62142  1  0  0  0
 63 65  1  0  0  0
 63143  1  0  0  0
 63144  1  0  0  0
 63145  1  0  0  0
 64146  1  0  0  0
 65147  1  0  0  0
 68 83  1  0  0  0
 71 73  2  0  0  0
 71 74  1  0  0  0
 71148  1  0  0  0
 72 75  2  0  0  0
 72 76  1  0  0  0
 72149  1  0  0  0
 73 75  1  0  0  0
 73 77  1  0  0  0
 74 76  2  0  0  0
 74 86  1  0  0  0
 75 85  1  0  0  0
 76 88  1  0  0  0
 77 84  1  0  0  0
 77 87  2  0  0  0
 78 79  1  0  0  0
 78 81  1  0  0  0
 78150  1  0  0  0
 78151  1  0  0  0
 79 84  1  0  0  0
 79152  1  0  0  0
 79153  1  0  0  0
 80 81  1  0  0  0
 80 84  1  0  0  0
 80154  1  0  0  0
 80155  1  0  0  0
 81 82  1  0  0  0
 81 83  1  0  0  0
 82156  1  0  0  0
 82157  1  0  0  0
 82158  1  0  0  0
 83159  1  0  0  0
 83160  1  0  0  0
 85161  1  0  0  0
 85162  1  0  0  0
 86163  1  0  0  0
 87164  1  0  0  0
 87165  1  0  0  0
M  CHG  1  87   1
M  ISO  4   1 100  68 101  83 101  86 100
M  END
> <chiral flag>
0

> <version>
0

> <s_m_source_file>
/data/baiqing/PycharmProjects/Reinvent-master-3.2/result/LINK_invent/BTK/process_docking_weight1_custom_product_contain_oxygen_bond_distance_aromatic_linkinvent_7_9_3/rearranged_h_0148.sdf

> <i_m_source_file_index>
27

> <r_mmod_Potential_Energy-OPLS-2005>
97.4493103027344

> <r_mmod_Stretch_Energy-OPLS-2005>
68.1376800537109

> <r_mmod_Bend_Energy-OPLS-2005>
169.719711303711

> <r_mmod_Torsional_Energy-OPLS-2005>
351.685974121094

> <r_mmod_Improper_Torsional_Energy-OPLS-2005>
20.5274868011475

> <r_mmod_Van_der_Waal_Energy-OPLS-2005>
147.88883972168

> <r_mmod_Electrostatic_Energy-OPLS-2005>
-299.162261962891

> <r_mmod_Solvation_Energy-OPLS-2005>
-406.231658935547

> <b_mmod_Minimization_Converged-OPLS-2005>
0

> <r_mmod_RMS_Derivative-OPLS-2005>
4.64875411987305

$$$$
27
                    3D
 Structure written by MMmdl.
166175  0  0  1  0            999 V2000
  -30.6422  -14.6004   20.5620 C   0  0  0  0  0  0
  -30.4442  -12.3848   19.4605 C   0  0  0  0  0  0
  -29.5097  -12.5084   18.2361 C   0  0  0  0  0  0
  -28.0344  -12.3361   18.6497 C   0  0  0  0  0  0
  -27.6574  -13.2099   19.8771 C   0  0  2  0  0  0
  -28.6975  -13.0519   21.0099 C   0  0  0  0  0  0
  -25.2566  -13.8153   20.5720 C   0  0  0  0  0  0
  -24.1816  -13.0427   20.9180 C   0  0  0  0  0  0
  -24.6372  -11.6894   20.8712 C   0  0  0  0  0  0
  -23.9027  -10.4285   21.0391 C   0  0  0  0  0  0
  -24.3564   -9.4209   21.9184 C   0  0  0  0  0  0
  -23.6236   -8.2242   22.0759 C   0  0  0  0  0  0
  -22.4228   -8.0268   21.3537 C   0  0  0  0  0  0
  -21.9855   -9.0251   20.4657 C   0  0  0  0  0  0
  -22.7176  -10.2134   20.3072 C   0  0  0  0  0  0
  -21.6859   -6.0709   22.5274 C   0  0  0  0  0  0
  -21.4024   -6.5626   23.8197 C   0  0  0  0  0  0
  -21.3667   -5.6787   24.9163 C   0  0  0  0  0  0
  -21.6028   -4.3035   24.7229 C   0  0  0  0  0  0
  -21.8805   -3.8121   23.4357 C   0  0  0  0  0  0
  -21.9192   -4.6937   22.3405 C   0  0  0  0  0  0
  -22.7838  -13.5239   21.1820 C   0  0  0  0  0  0
  -22.1652   -4.2104   21.0979 F   0  0  0  0  0  0
  -21.5643   -3.4540   25.7751 F   0  0  0  0  0  0
  -30.0176  -13.3894   20.4528 N   0  0  0  0  0  0
  -26.2996  -12.9327   20.3371 N   0  0  0  0  0  0
  -25.9307  -11.6486   20.5795 N   0  0  0  0  0  0
  -22.0452  -12.8290   22.0398 N   0  0  0  0  0  0
  -25.4278  -15.1889   20.4177 N   0  0  0  0  0  0
  -31.7920  -14.7706   20.1458 O   0  0  0  0  0  0
  -21.6623   -6.8853   21.4229 O   0  0  0  0  0  0
  -22.3555  -14.5560   20.6673 O   0  0  0  0  0  0
  -24.6220  -31.8612   23.2033 C   0  0  0  0  0  0
  -25.9131  -32.4776   23.8325 C   0  0  1  0  0  0
  -27.2319  -27.3790   20.1227 C   0  0  0  0  0  0
  -25.5972  -33.8574   24.2269 N   0  0  0  0  0  0
  -23.4111  -30.4869   21.5408 C   0  0  2  0  0  0
  -24.8549  -28.9432   20.1056 C   0  0  0  0  0  0
  -22.7439  -29.4649   22.4907 C   0  0  0  0  0  0
  -18.0279  -28.1437   22.8467 C   0  0  0  0  0  0
  -24.1497  -36.7318   23.2629 C   0  0  0  0  0  0
  -25.9403  -30.8162   21.3578 C   0  0  0  0  0  0
  -26.0148  -29.4449   20.7081 C   0  0  0  0  0  0
  -27.2005  -28.6728   20.7053 C   0  0  0  0  0  0
  -26.0494  -26.8958   19.5222 C   0  0  0  0  0  0
  -24.8707  -27.6736   19.5005 C   0  0  0  0  0  0
  -23.6225  -29.8216   20.1525 C   0  0  0  0  0  0
  -25.4114  -36.3075   24.0310 C   0  0  1  0  0  0
  -20.5872  -28.3728   23.1298 C   0  0  2  0  0  0
  -20.6792  -26.9456   22.5425 C   0  0  0  0  0  0
  -19.5775  -26.6417   21.5234 C   0  0  0  0  0  0
  -18.1939  -26.7972   22.1615 C   0  0  0  0  0  0
  -19.1530  -28.8895   23.2879 C   0  0  0  0  0  0
  -18.9453  -30.1499   23.8907 C   0  0  0  0  0  0
  -17.6459  -30.6611   24.0605 C   0  0  0  0  0  0
  -25.9050  -34.9452   23.5075 C   0  0  0  0  0  0
  -16.5350  -29.9126   23.6339 C   0  0  0  0  0  0
  -16.7268  -28.6569   23.0291 C   0  0  0  0  0  0
  -26.4534  -31.6567   25.0677 C   0  0  0  0  0  0
  -25.3775  -31.3737   26.1411 C   0  0  0  0  0  0
  -27.0377  -30.2984   24.6125 C   0  0  0  0  0  0
  -27.6094  -32.4282   25.7465 C   0  0  0  0  0  0
  -27.5581  -37.1802   24.8441 C   0  0  0  0  0  0
  -21.4147  -29.3068   22.3669 N   0  0  0  0  0  0
  -26.4284  -37.3775   23.9396 N   0  0  0  0  0  0
  -24.6765  -31.0701   22.0939 N   0  0  0  0  0  0
  -23.4186  -28.8218   23.2987 O   0  0  0  0  0  0
  -28.4174  -26.6593   20.1883 O   0  0  0  0  0  0
  -26.5596  -34.8920   22.4630 O   0  0  0  0  0  0
  -23.5409  -32.1400   23.7428 O   0  0  0  0  0  0
  -31.1239  -19.1280   21.0492 C   0  0  0  0  0  0
  -31.2683  -17.7006   20.9877 C   0  0  0  0  0  0
  -29.8275  -19.5893   21.0867 C   0  0  0  0  0  0
  -30.0857  -16.9994   20.9942 C   0  0  0  0  0  0
  -28.6035  -21.6659   20.4976 C   0  0  0  0  0  0
  -30.0263  -21.7024   22.3236 C   0  0  0  0  0  0
  -29.3054  -23.0442   22.2233 C   0  0  0  0  0  0
  -30.2554  -24.2274   18.1294 C   0  0  0  0  0  0
  -27.8460  -24.3287   17.4954 C   0  0  0  0  0  0
  -29.2209  -26.4203   17.5934 C   0  0  0  0  0  0
  -27.7954  -24.1408   20.5347 C   0  0  0  0  0  0
  -28.6240  -25.2662   19.7990 C   0  0  1  0  0  0
  -28.9604  -25.0604   18.2758 C   0  0  0  0  0  0
  -29.4376  -20.9038   21.2561 N   0  0  0  0  0  0
  -28.5804  -22.9452   20.9700 N   0  0  0  0  0  0
  -29.8611  -15.6335   21.0023 N   0  0  0  0  0  0
  -27.9721  -21.2639   19.5168 O   0  0  0  0  0  0
  -28.7581  -18.1802   21.0439 S   0  0  0  0  0  0
  -31.4833  -12.5240   19.1560 H   0  0  0  0  0  0
  -30.3932  -11.3851   19.8956 H   0  0  0  0  0  0
  -29.7747  -11.7708   17.4750 H   0  0  0  0  0  0
  -29.6466  -13.4875   17.7734 H   0  0  0  0  0  0
  -27.8783  -11.2812   18.8828 H   0  0  0  0  0  0
  -27.3741  -12.5706   17.8135 H   0  0  0  0  0  0
  -27.6808  -14.2473   19.5405 H   0  0  0  0  0  0
  -28.7056  -12.0279   21.3853 H   0  0  0  0  0  0
  -28.4484  -13.6778   21.8696 H   0  0  0  0  0  0
  -25.2700   -9.5702   22.4779 H   0  0  0  0  0  0
  -23.9927   -7.4663   22.7506 H   0  0  0  0  0  0
  -21.0780   -8.8785   19.8988 H   0  0  0  0  0  0
  -22.3610  -10.9682   19.6210 H   0  0  0  0  0  0
  -21.2017   -7.6136   23.9686 H   0  0  0  0  0  0
  -21.1504   -6.0523   25.9063 H   0  0  0  0  0  0
  -22.0574   -2.7582   23.2883 H   0  0  0  0  0  0
  -22.4019  -11.9957   22.4823 H   0  0  0  0  0  0
  -21.1117  -13.1447   22.2626 H   0  0  0  0  0  0
  -24.6613  -15.8423   20.5360 H   0  0  0  0  0  0
  -26.2803  -15.6342   20.1027 H   0  0  0  0  0  0
  -26.7205  -32.5466   23.1077 H   0  0  0  0  0  0
  -25.0193  -33.9706   25.0466 H   0  0  0  0  0  0
  -22.7043  -31.3067   21.4012 H   0  0  0  0  0  0
  -23.3732  -35.9675   23.3258 H   0  0  0  0  0  0
  -24.3604  -36.8977   22.2048 H   0  0  0  0  0  0
  -23.7279  -37.6522   23.6683 H   0  0  0  0  0  0
  -26.0533  -31.5773   20.5847 H   0  0  0  0  0  0
  -26.8287  -30.8709   21.9755 H   0  0  0  0  0  0
  -28.0963  -29.0604   21.1735 H   0  0  0  0  0  0
  -26.0143  -25.9156   19.0850 H   0  0  0  0  0  0
  -23.9796  -27.2823   19.0264 H   0  0  0  0  0  0
  -23.7430  -30.6016   19.3980 H   0  0  0  0  0  0
  -22.7406  -29.2521   19.8515 H   0  0  0  0  0  0
  -25.1288  -36.1905   25.0801 H   0  0  0  0  0  0
  -20.9964  -28.3339   24.1419 H   0  0  0  0  0  0
  -20.5757  -26.2340   23.3622 H   0  0  0  0  0  0
  -21.6665  -26.7531   22.1207 H   0  0  0  0  0  0
  -19.6951  -25.6325   21.1277 H   0  0  0  0  0  0
  -19.6741  -27.3222   20.6764 H   0  0  0  0  0  0
  -17.4220  -26.6715   21.3995 H   0  0  0  0  0  0
  -18.0318  -26.0127   22.9022 H   0  0  0  0  0  0
  -19.7927  -30.7324   24.2267 H   0  0  0  0  0  0
  -17.5003  -31.6275   24.5248 H   0  0  0  0  0  0
  -15.5353  -30.3034   23.7681 H   0  0  0  0  0  0
  -15.8659  -28.0953   22.6913 H   0  0  0  0  0  0
  -24.5959  -30.7059   25.7765 H   0  0  0  0  0  0
  -24.8973  -32.2927   26.4779 H   0  0  0  0  0  0
  -25.8110  -30.8973   27.0209 H   0  0  0  0  0  0
  -26.2946  -29.6679   24.1227 H   0  0  0  0  0  0
  -27.4151  -29.7290   25.4626 H   0  0  0  0  0  0
  -27.8773  -30.4236   23.9286 H   0  0  0  0  0  0
  -27.2731  -33.3598   26.2019 H   0  0  0  0  0  0
  -28.3968  -32.6784   25.0346 H   0  0  0  0  0  0
  -28.0696  -31.8403   26.5410 H   0  0  0  0  0  0
  -28.2562  -38.0131   24.7520 H   0  0  0  0  0  0
  -28.1114  -36.2663   24.6219 H   0  0  0  0  0  0
  -27.2319  -37.1406   25.8848 H   0  0  0  0  0  0
  -20.9315  -29.8780   21.6875 H   0  0  0  0  0  0
  -26.0148  -38.2840   24.1406 H   0  0  0  0  0  0
  -31.9932  -19.7712   21.0750 H   0  0  0  0  0  0
  -32.2525  -17.2496   20.9622 H   0  0  0  0  0  0
  -29.8759  -21.2372   23.2985 H   0  0  0  0  0  0
  -31.0977  -21.8309   22.1629 H   0  0  0  0  0  0
  -29.9993  -23.8842   22.2323 H   0  0  0  0  0  0
  -28.5990  -23.1781   23.0450 H   0  0  0  0  0  0
  -30.5004  -24.0491   17.0810 H   0  0  0  0  0  0
  -30.1724  -23.2539   18.6075 H   0  0  0  0  0  0
  -31.1155  -24.7318   18.5719 H   0  0  0  0  0  0
  -28.0970  -24.2404   16.4368 H   0  0  0  0  0  0
  -26.8918  -24.8457   17.5373 H   0  0  0  0  0  0
  -27.6906  -23.3141   17.8611 H   0  0  0  0  0  0
  -29.5653  -26.2969   16.5669 H   0  0  0  0  0  0
  -29.9856  -26.9917   18.1199 H   0  0  0  0  0  0
  -28.3181  -27.0295   17.5550 H   0  0  0  0  0  0
  -26.9272  -23.8380   19.9503 H   0  0  0  0  0  0
  -27.3670  -24.5827   21.4343 H   0  0  0  0  0  0
  -29.5971  -25.1833   20.2815 H   0  0  0  0  0  0
  -28.9304  -15.3524   21.2687 H   0  0  0  0  0  0
  1 25  1  0  0  0
  1 30  2  0  0  0
  1 86  1  0  0  0
  2  3  1  0  0  0
  2 25  1  0  0  0
  2 89  1  0  0  0
  2 90  1  0  0  0
  3  4  1  0  0  0
  3 91  1  0  0  0
  3 92  1  0  0  0
  4  5  1  0  0  0
  4 93  1  0  0  0
  4 94  1  0  0  0
  5  6  1  0  0  0
  5 26  1  0  0  0
  5 95  1  0  0  0
  6 25  1  0  0  0
  6 96  1  0  0  0
  6 97  1  0  0  0
  7  8  2  0  0  0
  7 26  1  0  0  0
  7 29  1  0  0  0
  8  9  1  0  0  0
  8 22  1  0  0  0
  9 10  1  0  0  0
  9 27  2  0  0  0
 10 11  2  0  0  0
 10 15  1  0  0  0
 11 12  1  0  0  0
 11 98  1  0  0  0
 12 13  2  0  0  0
 12 99  1  0  0  0
 13 14  1  0  0  0
 13 31  1  0  0  0
 14 15  2  0  0  0
 14100  1  0  0  0
 15101  1  0  0  0
 16 17  2  0  0  0
 16 21  1  0  0  0
 16 31  1  0  0  0
 17 18  1  0  0  0
 17102  1  0  0  0
 18 19  2  0  0  0
 18103  1  0  0  0
 19 20  1  0  0  0
 19 24  1  0  0  0
 20 21  2  0  0  0
 20104  1  0  0  0
 21 23  1  0  0  0
 22 28  1  0  0  0
 22 32  2  0  0  0
 26 27  1  0  0  0
 28105  1  0  0  0
 28106  1  0  0  0
 29107  1  0  0  0
 29108  1  0  0  0
 33 34  1  0  0  0
 33 66  1  0  0  0
 33 70  2  0  0  0
 34 36  1  0  0  0
 34 59  1  0  0  0
 34109  1  0  0  0
 35 44  2  0  0  0
 35 45  1  0  0  0
 35 68  1  0  0  0
 36 56  1  0  0  0
 36110  1  0  0  0
 37 39  1  0  0  0
 37 47  1  0  0  0
 37 66  1  0  0  0
 37111  1  0  0  0
 38 43  2  0  0  0
 38 46  1  0  0  0
 38 47  1  0  0  0
 39 64  1  0  0  0
 39 67  2  0  0  0
 40 52  1  0  0  0
 40 53  2  0  0  0
 40 58  1  0  0  0
 41112  1  0  0  0
 41113  1  0  0  0
 41114  1  0  0  0
 41 48  1  0  0  0
 42 43  1  0  0  0
 42 66  1  0  0  0
 42115  1  0  0  0
 42116  1  0  0  0
 43 44  1  0  0  0
 44117  1  0  0  0
 45 46  2  0  0  0
 45118  1  0  0  0
 46119  1  0  0  0
 47120  1  0  0  0
 47121  1  0  0  0
 48 56  1  0  0  0
 48 65  1  0  0  0
 48122  1  0  0  0
 49 50  1  0  0  0
 49 53  1  0  0  0
 49 64  1  0  0  0
 49123  1  0  0  0
 50 51  1  0  0  0
 50124  1  0  0  0
 50125  1  0  0  0
 51 52  1  0  0  0
 51126  1  0  0  0
 51127  1  0  0  0
 52128  1  0  0  0
 52129  1  0  0  0
 53 54  1  0  0  0
 54 55  2  0  0  0
 54130  1  0  0  0
 55 57  1  0  0  0
 55131  1  0  0  0
 56 69  2  0  0  0
 57 58  2  0  0  0
 57132  1  0  0  0
 58133  1  0  0  0
 59 60  1  0  0  0
 59 61  1  0  0  0
 59 62  1  0  0  0
 60134  1  0  0  0
 60135  1  0  0  0
 60136  1  0  0  0
 61137  1  0  0  0
 61138  1  0  0  0
 61139  1  0  0  0
 62140  1  0  0  0
 62141  1  0  0  0
 62142  1  0  0  0
 63 65  1  0  0  0
 63143  1  0  0  0
 63144  1  0  0  0
 63145  1  0  0  0
 64146  1  0  0  0
 65147  1  0  0  0
 68 82  1  0  0  0
 71 72  1  0  0  0
 71 73  2  0  0  0
 71148  1  0  0  0
 72 74  2  0  0  0
 72149  1  0  0  0
 73 84  1  0  0  0
 73 88  1  0  0  0
 74 86  1  0  0  0
 74 88  1  0  0  0
 75 84  1  0  0  0
 75 85  1  0  0  0
 75 87  2  0  0  0
 76 77  1  0  0  0
 76 84  1  0  0  0
 76150  1  0  0  0
 76151  1  0  0  0
 77 85  1  0  0  0
 77152  1  0  0  0
 77153  1  0  0  0
 78154  1  0  0  0
 78155  1  0  0  0
 78156  1  0  0  0
 78 83  1  0  0  0
 79 83  1  0  0  0
 79157  1  0  0  0
 79158  1  0  0  0
 79159  1  0  0  0
 80 83  1  0  0  0
 80160  1  0  0  0
 80161  1  0  0  0
 80162  1  0  0  0
 81 85  1  0  0  0
 81163  1  0  0  0
 81164  1  0  0  0
 81 82  1  0  0  0
 82 83  1  0  0  0
 82165  1  0  0  0
 86166  1  0  0  0
M  ISO  4   1 100  68 101  82 101  86 100
M  END
> <chiral flag>
0

> <version>
0

> <s_m_source_file>
/data/baiqing/PycharmProjects/Reinvent-master-3.2/result/LINK_invent/BTK/process_docking_weight1_custom_product_contain_oxygen_bond_distance_aromatic_linkinvent_7_9_3/rearranged_h_0148.sdf

> <i_m_source_file_index>
28

> <r_mmod_Potential_Energy-OPLS-2005>
164.621322631836

> <r_mmod_Stretch_Energy-OPLS-2005>
58.576732635498

> <r_mmod_Bend_Energy-OPLS-2005>
197.999130249023

> <r_mmod_Torsional_Energy-OPLS-2005>
356.518798828125

> <r_mmod_Improper_Torsional_Energy-OPLS-2005>
4.38034105300903

> <r_mmod_Van_der_Waal_Energy-OPLS-2005>
115.119926452637

> <r_mmod_Electrostatic_Energy-OPLS-2005>
-386.861602783203

> <r_mmod_Solvation_Energy-OPLS-2005>
-213.096557617188

> <b_mmod_Minimization_Converged-OPLS-2005>
0

> <r_mmod_RMS_Derivative-OPLS-2005>
4.35066556930542

$$$$
28
                    3D
 Structure written by MMmdl.
167176  0  0  1  0            999 V2000
  -30.7198  -14.5573   20.5659 C   0  0  0  0  0  0
  -30.4257  -12.3637   19.4417 C   0  0  0  0  0  0
  -29.4971  -12.4928   18.2162 C   0  0  0  0  0  0
  -28.0236  -12.3091   18.6317 C   0  0  0  0  0  0
  -27.6431  -13.1837   19.8506 C   0  0  2  0  0  0
  -28.6947  -13.0691   20.9811 C   0  0  0  0  0  0
  -25.2557  -13.8070   20.5673 C   0  0  0  0  0  0
  -24.1800  -13.0394   20.9175 C   0  0  0  0  0  0
  -24.6336  -11.6852   20.8752 C   0  0  0  0  0  0
  -23.8998  -10.4266   21.0430 C   0  0  0  0  0  0
  -24.3567   -9.4192   21.9204 C   0  0  0  0  0  0
  -23.6262   -8.2220   22.0760 C   0  0  0  0  0  0
  -22.4246   -8.0257   21.3538 C   0  0  0  0  0  0
  -21.9866   -9.0228   20.4645 C   0  0  0  0  0  0
  -22.7189  -10.2109   20.3071 C   0  0  0  0  0  0
  -21.6838   -6.0721   22.5283 C   0  0  0  0  0  0
  -21.3998   -6.5622   23.8219 C   0  0  0  0  0  0
  -21.3671   -5.6783   24.9183 C   0  0  0  0  0  0
  -21.6053   -4.3039   24.7233 C   0  0  0  0  0  0
  -21.8822   -3.8130   23.4354 C   0  0  0  0  0  0
  -21.9185   -4.6952   22.3411 C   0  0  0  0  0  0
  -22.7842  -13.5239   21.1825 C   0  0  0  0  0  0
  -22.1650   -4.2145   21.0988 F   0  0  0  0  0  0
  -21.5646   -3.4524   25.7741 F   0  0  0  0  0  0
  -30.0160  -13.3905   20.4180 N   0  0  0  0  0  0
  -26.2923  -12.9170   20.3283 N   0  0  0  0  0  0
  -25.9236  -11.6375   20.5757 N   0  0  0  0  0  0
  -22.0438  -12.8283   22.0384 N   0  0  0  0  0  0
  -25.4287  -15.1783   20.4071 N   0  0  0  0  0  0
  -31.8863  -14.6542   20.1738 O   0  0  0  0  0  0
  -21.6617   -6.8850   21.4238 O   0  0  0  0  0  0
  -22.3560  -14.5559   20.6663 O   0  0  0  0  0  0
  -24.6159  -31.8698   23.2104 C   0  0  0  0  0  0
  -25.9049  -32.4832   23.8396 C   0  0  1  0  0  0
  -27.2350  -27.4139   20.1232 C   0  0  0  0  0  0
  -25.5909  -33.8625   24.2342 N   0  0  0  0  0  0
  -23.4050  -30.4918   21.5499 C   0  0  2  0  0  0
  -24.8571  -28.9522   20.1186 C   0  0  0  0  0  0
  -22.7405  -29.4695   22.4996 C   0  0  0  0  0  0
  -18.0272  -28.1368   22.8509 C   0  0  0  0  0  0
  -24.1489  -36.7308   23.2636 C   0  0  0  0  0  0
  -25.9328  -30.8272   21.3689 C   0  0  0  0  0  0
  -26.0128  -29.4544   20.7308 C   0  0  0  0  0  0
  -27.2054  -28.6878   20.7449 C   0  0  0  0  0  0
  -26.0715  -26.9421   19.4851 C   0  0  0  0  0  0
  -24.8806  -27.6934   19.4934 C   0  0  0  0  0  0
  -23.6174  -29.8206   20.1656 C   0  0  0  0  0  0
  -25.4106  -36.3110   24.0347 C   0  0  1  0  0  0
  -20.5862  -28.3690   23.1296 C   0  0  2  0  0  0
  -20.6812  -26.9420   22.5408 C   0  0  0  0  0  0
  -19.5741  -26.6292   21.5289 C   0  0  0  0  0  0
  -18.1918  -26.7885   22.1697 C   0  0  0  0  0  0
  -19.1520  -28.8839   23.2875 C   0  0  0  0  0  0
  -18.9467  -30.1451   23.8865 C   0  0  0  0  0  0
  -17.6479  -30.6605   24.0523 C   0  0  0  0  0  0
  -25.9036  -34.9478   23.5135 C   0  0  0  0  0  0
  -16.5359  -29.9087   23.6350 C   0  0  0  0  0  0
  -16.7259  -28.6481   23.0407 C   0  0  0  0  0  0
  -26.4466  -31.6589   25.0713 C   0  0  0  0  0  0
  -25.3729  -31.3689   26.1468 C   0  0  0  0  0  0
  -27.0292  -30.3032   24.6070 C   0  0  0  0  0  0
  -27.6045  -32.4299   25.7476 C   0  0  0  0  0  0
  -27.5577  -37.1815   24.8470 C   0  0  0  0  0  0
  -21.4133  -29.3065   22.3710 N   0  0  0  0  0  0
  -26.4291  -37.3794   23.9409 N   0  0  0  0  0  0
  -24.6687  -31.0770   22.1025 N   0  0  0  0  0  0
  -23.4153  -28.8258   23.3067 O   0  0  0  0  0  0
  -28.3587  -26.6135   20.0515 O   0  0  0  0  0  0
  -26.5592  -34.8931   22.4697 O   0  0  0  0  0  0
  -23.5356  -32.1486   23.7481 O   0  0  0  0  0  0
  -27.4459  -20.3825   22.0250 C   0  0  0  0  0  0
  -27.3340  -21.7231   21.8002 C   0  0  0  0  0  0
  -29.4018  -21.0922   21.2390 C   0  0  0  0  0  0
  -28.7434  -19.9430   21.6356 C   0  0  0  0  0  0
  -28.8935  -17.7840   20.2890 C   0  0  0  0  0  0
  -30.5727  -18.0586   22.0275 C   0  0  0  0  0  0
  -28.9349  -16.2452   20.3932 C   0  0  0  0  0  0
  -30.7601  -16.5042   22.1274 C   0  0  0  0  0  0
  -29.1428  -18.4531   21.6363 C   0  0  0  0  0  0
  -27.0075  -24.9182   22.2182 C   0  0  0  0  0  0
  -29.2879  -24.5596   23.1637 C   0  0  0  0  0  0
  -28.8094  -23.5936   20.8714 C   0  0  0  0  0  0
  -28.9798  -26.1795   21.2743 C   0  0  0  0  0  0
  -28.5056  -24.7945   21.8542 C   0  0  0  0  0  0
  -28.5425  -22.2010   21.3286 N   0  0  0  0  0  0
  -30.0888  -15.6507   21.1041 N   0  0  0  0  0  0
  -31.4664  -12.4677   19.1319 H   0  0  0  0  0  0
  -30.3511  -11.3714   19.8900 H   0  0  0  0  0  0
  -29.7657  -11.7559   17.4581 H   0  0  0  0  0  0
  -29.6344  -13.4712   17.7531 H   0  0  0  0  0  0
  -27.8764  -11.2555   18.8746 H   0  0  0  0  0  0
  -27.3651  -12.5237   17.7900 H   0  0  0  0  0  0
  -27.6249  -14.1929   19.4609 H   0  0  0  0  0  0
  -28.7083  -12.0552   21.3831 H   0  0  0  0  0  0
  -28.4420  -13.7181   21.8207 H   0  0  0  0  0  0
  -25.2706   -9.5676   22.4788 H   0  0  0  0  0  0
  -23.9980   -7.4617   22.7482 H   0  0  0  0  0  0
  -21.0796   -8.8745   19.8953 H   0  0  0  0  0  0
  -22.3646  -10.9653   19.6187 H   0  0  0  0  0  0
  -21.1962   -7.6125   23.9717 H   0  0  0  0  0  0
  -21.1501   -6.0500   25.9089 H   0  0  0  0  0  0
  -22.0582   -2.7591   23.2850 H   0  0  0  0  0  0
  -22.3984  -11.9946   22.4816 H   0  0  0  0  0  0
  -21.1077  -13.1389   22.2566 H   0  0  0  0  0  0
  -24.6609  -15.8324   20.5141 H   0  0  0  0  0  0
  -26.2858  -15.6176   20.0974 H   0  0  0  0  0  0
  -26.7115  -32.5562   23.1155 H   0  0  0  0  0  0
  -25.0075  -33.9778   25.0499 H   0  0  0  0  0  0
  -22.6964  -31.3104   21.4084 H   0  0  0  0  0  0
  -23.3741  -35.9648   23.3313 H   0  0  0  0  0  0
  -24.3584  -36.8910   22.2046 H   0  0  0  0  0  0
  -23.7249  -37.6522   23.6637 H   0  0  0  0  0  0
  -26.0388  -31.5853   20.5915 H   0  0  0  0  0  0
  -26.8210  -30.8926   21.9837 H   0  0  0  0  0  0
  -28.0956  -29.0767   21.2197 H   0  0  0  0  0  0
  -26.0888  -25.9821   18.9906 H   0  0  0  0  0  0
  -23.9969  -27.3040   19.0074 H   0  0  0  0  0  0
  -23.7231  -30.5920   19.4022 H   0  0  0  0  0  0
  -22.7427  -29.2381   19.8713 H   0  0  0  0  0  0
  -25.1277  -36.1984   25.0838 H   0  0  0  0  0  0
  -20.9915  -28.3276   24.1431 H   0  0  0  0  0  0
  -20.5854  -26.2300   23.3620 H   0  0  0  0  0  0
  -21.6665  -26.7532   22.1105 H   0  0  0  0  0  0
  -19.6897  -25.6143   21.1462 H   0  0  0  0  0  0
  -19.6656  -27.2995   20.6728 H   0  0  0  0  0  0
  -17.4190  -26.6586   21.4100 H   0  0  0  0  0  0
  -18.0306  -26.0076   22.9142 H   0  0  0  0  0  0
  -19.7950  -30.7271   24.2218 H   0  0  0  0  0  0
  -17.5066  -31.6328   24.5057 H   0  0  0  0  0  0
  -15.5365  -30.3012   23.7701 H   0  0  0  0  0  0
  -15.8651  -28.0776   22.7200 H   0  0  0  0  0  0
  -24.5905  -30.7035   25.7792 H   0  0  0  0  0  0
  -24.8915  -32.2848   26.4912 H   0  0  0  0  0  0
  -25.8087  -30.8859   27.0225 H   0  0  0  0  0  0
  -26.2836  -29.6800   24.1124 H   0  0  0  0  0  0
  -27.4066  -29.7258   25.4513 H   0  0  0  0  0  0
  -27.8662  -30.4336   23.9208 H   0  0  0  0  0  0
  -27.2662  -33.3590   26.2073 H   0  0  0  0  0  0
  -28.3839  -32.6880   25.0289 H   0  0  0  0  0  0
  -28.0725  -31.8415   26.5379 H   0  0  0  0  0  0
  -28.2606  -38.0100   24.7512 H   0  0  0  0  0  0
  -28.1063  -36.2638   24.6299 H   0  0  0  0  0  0
  -27.2309  -37.1487   25.8878 H   0  0  0  0  0  0
  -20.9309  -29.8778   21.6921 H   0  0  0  0  0  0
  -26.0188  -38.2873   24.1407 H   0  0  0  0  0  0
  -26.6402  -19.7590   22.3871 H   0  0  0  0  0  0
  -26.4743  -22.3636   21.9170 H   0  0  0  0  0  0
  -30.4028  -21.2164   20.8478 H   0  0  0  0  0  0
  -27.9172  -18.0822   19.9037 H   0  0  0  0  0  0
  -29.6259  -18.1347   19.5590 H   0  0  0  0  0  0
  -31.2788  -18.4669   21.3027 H   0  0  0  0  0  0
  -30.8331  -18.5121   22.9846 H   0  0  0  0  0  0
  -28.8905  -15.8716   19.3693 H   0  0  0  0  0  0
  -28.0359  -15.9182   20.9144 H   0  0  0  0  0  0
  -30.3691  -16.1748   23.0908 H   0  0  0  0  0  0
  -31.8299  -16.2891   22.1724 H   0  0  0  0  0  0
  -28.4747  -17.9894   22.3661 H   0  0  0  0  0  0
  -26.7023  -24.1960   22.9747 H   0  0  0  0  0  0
  -26.3720  -24.7831   21.3426 H   0  0  0  0  0  0
  -26.7807  -25.8999   22.6373 H   0  0  0  0  0  0
  -28.9787  -23.6385   23.6593 H   0  0  0  0  0  0
  -29.1374  -25.3732   23.8743 H   0  0  0  0  0  0
  -30.3605  -24.4837   22.9753 H   0  0  0  0  0  0
  -29.8579  -23.6409   20.5767 H   0  0  0  0  0  0
  -28.2465  -23.7425   19.9498 H   0  0  0  0  0  0
  -28.8771  -26.9550   22.0360 H   0  0  0  0  0  0
  -30.0519  -26.1288   21.0756 H   0  0  0  0  0  0
  1 25  1  0  0  0
  1 30  2  0  0  0
  1 86  1  0  0  0
  2  3  1  0  0  0
  2 25  1  0  0  0
  2 87  1  0  0  0
  2 88  1  0  0  0
  3  4  1  0  0  0
  3 89  1  0  0  0
  3 90  1  0  0  0
  4  5  1  0  0  0
  4 91  1  0  0  0
  4 92  1  0  0  0
  5  6  1  0  0  0
  5 26  1  0  0  0
  5 93  1  0  0  0
  6 25  1  0  0  0
  6 94  1  0  0  0
  6 95  1  0  0  0
  7  8  2  0  0  0
  7 26  1  0  0  0
  7 29  1  0  0  0
  8  9  1  0  0  0
  8 22  1  0  0  0
  9 10  1  0  0  0
  9 27  2  0  0  0
 10 11  2  0  0  0
 10 15  1  0  0  0
 11 12  1  0  0  0
 11 96  1  0  0  0
 12 13  2  0  0  0
 12 97  1  0  0  0
 13 14  1  0  0  0
 13 31  1  0  0  0
 14 15  2  0  0  0
 14 98  1  0  0  0
 15 99  1  0  0  0
 16 17  2  0  0  0
 16 21  1  0  0  0
 16 31  1  0  0  0
 17 18  1  0  0  0
 17100  1  0  0  0
 18 19  2  0  0  0
 18101  1  0  0  0
 19 20  1  0  0  0
 19 24  1  0  0  0
 20 21  2  0  0  0
 20102  1  0  0  0
 21 23  1  0  0  0
 22 28  1  0  0  0
 22 32  2  0  0  0
 26 27  1  0  0  0
 28103  1  0  0  0
 28104  1  0  0  0
 29105  1  0  0  0
 29106  1  0  0  0
 33 34  1  0  0  0
 33 66  1  0  0  0
 33 70  2  0  0  0
 34 36  1  0  0  0
 34 59  1  0  0  0
 34107  1  0  0  0
 35 44  2  0  0  0
 35 45  1  0  0  0
 35 68  1  0  0  0
 36 56  1  0  0  0
 36108  1  0  0  0
 37 39  1  0  0  0
 37 47  1  0  0  0
 37 66  1  0  0  0
 37109  1  0  0  0
 38 43  2  0  0  0
 38 46  1  0  0  0
 38 47  1  0  0  0
 39 64  1  0  0  0
 39 67  2  0  0  0
 40 52  1  0  0  0
 40 53  2  0  0  0
 40 58  1  0  0  0
 41110  1  0  0  0
 41111  1  0  0  0
 41112  1  0  0  0
 41 48  1  0  0  0
 42 43  1  0  0  0
 42 66  1  0  0  0
 42113  1  0  0  0
 42114  1  0  0  0
 43 44  1  0  0  0
 44115  1  0  0  0
 45 46  2  0  0  0
 45116  1  0  0  0
 46117  1  0  0  0
 47118  1  0  0  0
 47119  1  0  0  0
 48 56  1  0  0  0
 48 65  1  0  0  0
 48120  1  0  0  0
 49 50  1  0  0  0
 49 53  1  0  0  0
 49 64  1  0  0  0
 49121  1  0  0  0
 50 51  1  0  0  0
 50122  1  0  0  0
 50123  1  0  0  0
 51 52  1  0  0  0
 51124  1  0  0  0
 51125  1  0  0  0
 52126  1  0  0  0
 52127  1  0  0  0
 53 54  1  0  0  0
 54 55  2  0  0  0
 54128  1  0  0  0
 55 57  1  0  0  0
 55129  1  0  0  0
 56 69  2  0  0  0
 57 58  2  0  0  0
 57130  1  0  0  0
 58131  1  0  0  0
 59 60  1  0  0  0
 59 61  1  0  0  0
 59 62  1  0  0  0
 60132  1  0  0  0
 60133  1  0  0  0
 60134  1  0  0  0
 61135  1  0  0  0
 61136  1  0  0  0
 61137  1  0  0  0
 62138  1  0  0  0
 62139  1  0  0  0
 62140  1  0  0  0
 63 65  1  0  0  0
 63141  1  0  0  0
 63142  1  0  0  0
 63143  1  0  0  0
 64144  1  0  0  0
 65145  1  0  0  0
 68 83  1  0  0  0
 71 72  2  0  0  0
 71 74  1  0  0  0
 71146  1  0  0  0
 72 85  1  0  0  0
 72147  1  0  0  0
 73 74  2  0  0  0
 73 85  1  0  0  0
 73148  1  0  0  0
 74 79  1  0  0  0
 75 77  1  0  0  0
 75 79  1  0  0  0
 75149  1  0  0  0
 75150  1  0  0  0
 76 78  1  0  0  0
 76 79  1  0  0  0
 76151  1  0  0  0
 76152  1  0  0  0
 77 86  1  0  0  0
 77153  1  0  0  0
 77154  1  0  0  0
 78 86  1  0  0  0
 78155  1  0  0  0
 78156  1  0  0  0
 79157  1  0  0  0
 80158  1  0  0  0
 80159  1  0  0  0
 80160  1  0  0  0
 80 84  1  0  0  0
 81 84  1  0  0  0
 81161  1  0  0  0
 81162  1  0  0  0
 81163  1  0  0  0
 82 84  1  0  0  0
 82 85  1  0  0  0
 82164  1  0  0  0
 82165  1  0  0  0
 83 84  1  0  0  0
 83166  1  0  0  0
 83167  1  0  0  0
M  ISO  4   1 100  68 101  83 101  86 100
M  END
> <chiral flag>
0

> <version>
0

> <s_m_source_file>
/data/baiqing/PycharmProjects/Reinvent-master-3.2/result/LINK_invent/BTK/process_docking_weight1_custom_product_contain_oxygen_bond_distance_aromatic_linkinvent_7_9_3/rearranged_h_0148.sdf

> <i_m_source_file_index>
29

> <r_mmod_Potential_Energy-OPLS-2005>
237.843597412109

> <r_mmod_Stretch_Energy-OPLS-2005>
53.3249282836914

> <r_mmod_Bend_Energy-OPLS-2005>
143.540161132812

> <r_mmod_Torsional_Energy-OPLS-2005>
354.748321533203

> <r_mmod_Improper_Torsional_Energy-OPLS-2005>
3.52030348777771

> <r_mmod_Van_der_Waal_Energy-OPLS-2005>
126.592269897461

> <r_mmod_Electrostatic_Energy-OPLS-2005>
-279.279357910156

> <r_mmod_Solvation_Energy-OPLS-2005>
-189.756362915039

> <b_mmod_Minimization_Converged-OPLS-2005>
0

> <r_mmod_RMS_Derivative-OPLS-2005>
2.73607659339905

$$$$
29
                    3D
 Structure written by MMmdl.
169178  0  0  1  0            999 V2000
  -30.7376  -14.4054   20.6483 C   0  0  0  0  0  0
  -30.4090  -12.2816   19.4374 C   0  0  0  0  0  0
  -29.4992  -12.5320   18.2163 C   0  0  0  0  0  0
  -28.0158  -12.3917   18.6121 C   0  0  0  0  0  0
  -27.6650  -13.2090   19.8866 C   0  0  2  0  0  0
  -28.6947  -12.9621   21.0154 C   0  0  0  0  0  0
  -25.2575  -13.8158   20.5666 C   0  0  0  0  0  0
  -24.1818  -13.0418   20.9146 C   0  0  0  0  0  0
  -24.6376  -11.6893   20.8681 C   0  0  0  0  0  0
  -23.9051  -10.4281   21.0366 C   0  0  0  0  0  0
  -24.3613   -9.4214   21.9155 C   0  0  0  0  0  0
  -23.6297   -8.2244   22.0739 C   0  0  0  0  0  0
  -22.4278   -8.0276   21.3534 C   0  0  0  0  0  0
  -21.9909   -9.0242   20.4634 C   0  0  0  0  0  0
  -22.7221  -10.2121   20.3038 C   0  0  0  0  0  0
  -21.6865   -6.0738   22.5277 C   0  0  0  0  0  0
  -21.4014   -6.5641   23.8215 C   0  0  0  0  0  0
  -21.3669   -5.6787   24.9175 C   0  0  0  0  0  0
  -21.6054   -4.3053   24.7224 C   0  0  0  0  0  0
  -21.8819   -3.8145   23.4346 C   0  0  0  0  0  0
  -21.9193   -4.6962   22.3398 C   0  0  0  0  0  0
  -22.7847  -13.5217   21.1825 C   0  0  0  0  0  0
  -22.1659   -4.2162   21.0978 F   0  0  0  0  0  0
  -21.5643   -3.4532   25.7733 F   0  0  0  0  0  0
  -30.0402  -13.2468   20.4876 N   0  0  0  0  0  0
  -26.3017  -12.9333   20.3372 N   0  0  0  0  0  0
  -25.9307  -11.6481   20.5732 N   0  0  0  0  0  0
  -22.0509  -12.8197   22.0399 N   0  0  0  0  0  0
  -25.4265  -15.1876   20.4114 N   0  0  0  0  0  0
  -31.8081  -14.6136   20.0684 O   0  0  0  0  0  0
  -21.6651   -6.8869   21.4238 O   0  0  0  0  0  0
  -22.3532  -14.5527   20.6703 O   0  0  0  0  0  0
  -24.6140  -31.8684   23.2020 C   0  0  0  0  0  0
  -25.9020  -32.4809   23.8376 C   0  0  1  0  0  0
  -27.2517  -27.4250   20.1092 C   0  0  0  0  0  0
  -25.5889  -33.8614   24.2317 N   0  0  0  0  0  0
  -23.4051  -30.4886   21.5403 C   0  0  2  0  0  0
  -24.8575  -28.9530   20.1120 C   0  0  0  0  0  0
  -22.7436  -29.4668   22.4940 C   0  0  0  0  0  0
  -18.0302  -28.1368   22.8471 C   0  0  0  0  0  0
  -24.1497  -36.7308   23.2646 C   0  0  0  0  0  0
  -25.9358  -30.8312   21.3609 C   0  0  0  0  0  0
  -26.0142  -29.4657   20.7102 C   0  0  0  0  0  0
  -27.2087  -28.7090   20.7047 C   0  0  0  0  0  0
  -26.0726  -26.9306   19.5005 C   0  0  0  0  0  0
  -24.8827  -27.6850   19.5058 C   0  0  0  0  0  0
  -23.6170  -29.8161   20.1572 C   0  0  0  0  0  0
  -25.4127  -36.3098   24.0329 C   0  0  1  0  0  0
  -20.5895  -28.3667   23.1308 C   0  0  2  0  0  0
  -20.6794  -26.9395   22.5437 C   0  0  0  0  0  0
  -19.5769  -26.6373   21.5231 C   0  0  0  0  0  0
  -18.1942  -26.7915   22.1613 C   0  0  0  0  0  0
  -19.1555  -28.8832   23.2874 C   0  0  0  0  0  0
  -18.9467  -30.1430   23.8893 C   0  0  0  0  0  0
  -17.6474  -30.6562   24.0561 C   0  0  0  0  0  0
  -25.9058  -34.9469   23.5122 C   0  0  0  0  0  0
  -16.5359  -29.9074   23.6325 C   0  0  0  0  0  0
  -16.7293  -28.6489   23.0347 C   0  0  0  0  0  0
  -26.4463  -31.6548   25.0686 C   0  0  0  0  0  0
  -25.3719  -31.3692   26.1428 C   0  0  0  0  0  0
  -27.0282  -30.2969   24.6049 C   0  0  0  0  0  0
  -27.6028  -32.4283   25.7454 C   0  0  0  0  0  0
  -27.5585  -37.1815   24.8482 C   0  0  0  0  0  0
  -21.4164  -29.3019   22.3674 N   0  0  0  0  0  0
  -26.4321  -37.3769   23.9394 N   0  0  0  0  0  0
  -24.6698  -31.0789   22.0921 N   0  0  0  0  0  0
  -23.4199  -28.8271   23.3047 O   0  0  0  0  0  0
  -28.4491  -26.7242   20.1664 O   0  0  0  0  0  0
  -26.5636  -34.8904   22.4695 O   0  0  0  0  0  0
  -23.5322  -32.1493   23.7351 O   0  0  0  0  0  0
  -29.4214  -18.6432   24.3534 C   0  0  0  0  0  0
  -29.8447  -19.9540   24.0473 C   0  0  0  0  0  0
  -29.6164  -17.5890   23.4323 C   0  0  0  0  0  0
  -30.6938  -19.1584   21.9130 C   0  0  0  0  0  0
  -30.4842  -20.2219   22.8197 C   0  0  0  0  0  0
  -30.2478  -17.8457   22.1959 C   0  0  0  0  0  0
  -29.7899  -23.8019   21.6560 C   0  0  0  0  0  0
  -27.5757  -24.8525   22.2784 C   0  0  0  0  0  0
  -27.8777  -22.9251   20.6104 C   0  0  0  0  0  0
  -28.5206  -21.8693   21.5075 C   0  0  0  0  0  0
  -28.4233  -24.2932   21.0978 C   0  0  2  0  0  0
  -25.3128  -25.9405   22.8203 C   0  0  0  0  0  0
  -30.8829  -21.6550   22.4423 C   0  0  0  0  0  0
  -30.4366  -16.7958   21.1002 C   0  0  0  0  0  0
  -26.0466  -24.7402   22.1987 C   0  0  0  0  0  0
  -28.5126  -25.3064   19.8906 C   0  0  0  0  0  0
  -29.7812  -22.4748   21.9023 N   0  0  0  0  0  0
  -30.1450  -15.3751   21.3691 N   0  0  0  0  0  0
  -30.7657  -24.5399   21.8310 O   0  0  0  0  0  0
  -28.0902  -25.3931   23.2659 O   0  0  0  0  0  0
  -31.4603  -12.3500   19.1474 H   0  0  0  0  0  0
  -30.2769  -11.2624   19.8051 H   0  0  0  0  0  0
  -29.7438  -11.8387   17.4116 H   0  0  0  0  0  0
  -29.6831  -13.5340   17.8228 H   0  0  0  0  0  0
  -27.8049  -11.3325   18.7738 H   0  0  0  0  0  0
  -27.3792  -12.7064   17.7858 H   0  0  0  0  0  0
  -27.7208  -14.2640   19.6152 H   0  0  0  0  0  0
  -28.6446  -11.9220   21.3435 H   0  0  0  0  0  0
  -28.4466  -13.5545   21.8967 H   0  0  0  0  0  0
  -25.2772   -9.5710   22.4710 H   0  0  0  0  0  0
  -24.0037   -7.4648   22.7455 H   0  0  0  0  0  0
  -21.0851   -8.8731   19.8934 H   0  0  0  0  0  0
  -22.3664  -10.9652   19.6139 H   0  0  0  0  0  0
  -21.1995   -7.6145   23.9719 H   0  0  0  0  0  0
  -21.1502   -6.0517   25.9083 H   0  0  0  0  0  0
  -22.0590   -2.7610   23.2837 H   0  0  0  0  0  0
  -22.4165  -11.9882   22.4788 H   0  0  0  0  0  0
  -21.1109  -13.1193   22.2595 H   0  0  0  0  0  0
  -24.6554  -15.8367   20.5293 H   0  0  0  0  0  0
  -26.2839  -15.6385   20.1166 H   0  0  0  0  0  0
  -26.7087  -32.5536   23.1145 H   0  0  0  0  0  0
  -25.0043  -33.9805   25.0457 H   0  0  0  0  0  0
  -22.6929  -31.3025   21.3912 H   0  0  0  0  0  0
  -23.3729  -35.9670   23.3381 H   0  0  0  0  0  0
  -24.3592  -36.8879   22.2056 H   0  0  0  0  0  0
  -23.7290  -37.6538   23.6640 H   0  0  0  0  0  0
  -26.0669  -31.5947   20.5920 H   0  0  0  0  0  0
  -26.8174  -30.8805   21.9887 H   0  0  0  0  0  0
  -28.0979  -29.0991   21.1792 H   0  0  0  0  0  0
  -26.0376  -25.9649   19.0223 H   0  0  0  0  0  0
  -23.9911  -27.2837   19.0462 H   0  0  0  0  0  0
  -23.7205  -30.5887   19.3960 H   0  0  0  0  0  0
  -22.7461  -29.2305   19.8589 H   0  0  0  0  0  0
  -25.1299  -36.1984   25.0823 H   0  0  0  0  0  0
  -20.9990  -28.3234   24.1422 H   0  0  0  0  0  0
  -20.5742  -26.2255   23.3615 H   0  0  0  0  0  0
  -21.6658  -26.7451   22.1197 H   0  0  0  0  0  0
  -19.6952  -25.6310   21.1217 H   0  0  0  0  0  0
  -19.6706  -27.3208   20.6786 H   0  0  0  0  0  0
  -17.4230  -26.6680   21.3996 H   0  0  0  0  0  0
  -18.0294  -26.0057   22.9007 H   0  0  0  0  0  0
  -19.7953  -30.7239   24.2232 H   0  0  0  0  0  0
  -17.5039  -31.6229   24.5178 H   0  0  0  0  0  0
  -15.5363  -30.2984   23.7616 H   0  0  0  0  0  0
  -15.8693  -28.0798   22.7068 H   0  0  0  0  0  0
  -24.5923  -30.6973   25.7828 H   0  0  0  0  0  0
  -24.8839  -32.2839   26.4791 H   0  0  0  0  0  0
  -25.8062  -30.8978   27.0246 H   0  0  0  0  0  0
  -26.2813  -29.6732   24.1095 H   0  0  0  0  0  0
  -27.4082  -29.7183   25.4486 H   0  0  0  0  0  0
  -27.8645  -30.4306   23.9174 H   0  0  0  0  0  0
  -27.2637  -33.3615   26.1972 H   0  0  0  0  0  0
  -28.3841  -32.6801   25.0268 H   0  0  0  0  0  0
  -28.0660  -31.8438   26.5416 H   0  0  0  0  0  0
  -28.2628  -38.0078   24.7445 H   0  0  0  0  0  0
  -28.1035  -36.2599   24.6392 H   0  0  0  0  0  0
  -27.2298  -37.1589   25.8884 H   0  0  0  0  0  0
  -20.9312  -29.8687   21.6853 H   0  0  0  0  0  0
  -26.0209  -38.2864   24.1303 H   0  0  0  0  0  0
  -28.9222  -18.4532   25.2933 H   0  0  0  0  0  0
  -29.6619  -20.7566   24.7509 H   0  0  0  0  0  0
  -29.2571  -16.5982   23.6769 H   0  0  0  0  0  0
  -31.1798  -19.3570   20.9662 H   0  0  0  0  0  0
  -26.7939  -22.8224   20.6018 H   0  0  0  0  0  0
  -28.1960  -22.7468   19.5831 H   0  0  0  0  0  0
  -28.6513  -20.9243   20.9769 H   0  0  0  0  0  0
  -27.9192  -21.6841   22.4008 H   0  0  0  0  0  0
  -24.2362  -25.7779   22.8276 H   0  0  0  0  0  0
  -25.4928  -26.8456   22.2436 H   0  0  0  0  0  0
  -25.6248  -26.1349   23.8463 H   0  0  0  0  0  0
  -31.6815  -21.6135   21.6998 H   0  0  0  0  0  0
  -31.3164  -22.1495   23.3140 H   0  0  0  0  0  0
  -31.4648  -16.9134   20.7545 H   0  0  0  0  0  0
  -29.7978  -17.0886   20.2664 H   0  0  0  0  0  0
  -25.7511  -23.8291   22.7190 H   0  0  0  0  0  0
  -25.7343  -24.6187   21.1639 H   0  0  0  0  0  0
  -27.8439  -25.0131   19.0854 H   0  0  0  0  0  0
  -29.4913  -25.1781   19.4248 H   0  0  0  0  0  0
  -29.2898  -15.1409   21.8501 H   0  0  0  0  0  0
  1 25  1  0  0  0
  1 30  2  0  0  0
  1 88  1  0  0  0
  2  3  1  0  0  0
  2 25  1  0  0  0
  2 91  1  0  0  0
  2 92  1  0  0  0
  3  4  1  0  0  0
  3 93  1  0  0  0
  3 94  1  0  0  0
  4  5  1  0  0  0
  4 95  1  0  0  0
  4 96  1  0  0  0
  5  6  1  0  0  0
  5 26  1  0  0  0
  5 97  1  0  0  0
  6 25  1  0  0  0
  6 98  1  0  0  0
  6 99  1  0  0  0
  7  8  2  0  0  0
  7 26  1  0  0  0
  7 29  1  0  0  0
  8  9  1  0  0  0
  8 22  1  0  0  0
  9 10  1  0  0  0
  9 27  2  0  0  0
 10 11  2  0  0  0
 10 15  1  0  0  0
 11 12  1  0  0  0
 11100  1  0  0  0
 12 13  2  0  0  0
 12101  1  0  0  0
 13 14  1  0  0  0
 13 31  1  0  0  0
 14 15  2  0  0  0
 14102  1  0  0  0
 15103  1  0  0  0
 16 17  2  0  0  0
 16 21  1  0  0  0
 16 31  1  0  0  0
 17 18  1  0  0  0
 17104  1  0  0  0
 18 19  2  0  0  0
 18105  1  0  0  0
 19 20  1  0  0  0
 19 24  1  0  0  0
 20 21  2  0  0  0
 20106  1  0  0  0
 21 23  1  0  0  0
 22 28  1  0  0  0
 22 32  2  0  0  0
 26 27  1  0  0  0
 28107  1  0  0  0
 28108  1  0  0  0
 29109  1  0  0  0
 29110  1  0  0  0
 33 34  1  0  0  0
 33 66  1  0  0  0
 33 70  2  0  0  0
 34 36  1  0  0  0
 34 59  1  0  0  0
 34111  1  0  0  0
 35 44  2  0  0  0
 35 45  1  0  0  0
 35 68  1  0  0  0
 36 56  1  0  0  0
 36112  1  0  0  0
 37 39  1  0  0  0
 37 47  1  0  0  0
 37 66  1  0  0  0
 37113  1  0  0  0
 38 43  2  0  0  0
 38 46  1  0  0  0
 38 47  1  0  0  0
 39 64  1  0  0  0
 39 67  2  0  0  0
 40 52  1  0  0  0
 40 53  2  0  0  0
 40 58  1  0  0  0
 41114  1  0  0  0
 41115  1  0  0  0
 41116  1  0  0  0
 41 48  1  0  0  0
 42 43  1  0  0  0
 42 66  1  0  0  0
 42117  1  0  0  0
 42118  1  0  0  0
 43 44  1  0  0  0
 44119  1  0  0  0
 45 46  2  0  0  0
 45120  1  0  0  0
 46121  1  0  0  0
 47122  1  0  0  0
 47123  1  0  0  0
 48 56  1  0  0  0
 48 65  1  0  0  0
 48124  1  0  0  0
 49 50  1  0  0  0
 49 53  1  0  0  0
 49 64  1  0  0  0
 49125  1  0  0  0
 50 51  1  0  0  0
 50126  1  0  0  0
 50127  1  0  0  0
 51 52  1  0  0  0
 51128  1  0  0  0
 51129  1  0  0  0
 52130  1  0  0  0
 52131  1  0  0  0
 53 54  1  0  0  0
 54 55  2  0  0  0
 54132  1  0  0  0
 55 57  1  0  0  0
 55133  1  0  0  0
 56 69  2  0  0  0
 57 58  2  0  0  0
 57134  1  0  0  0
 58135  1  0  0  0
 59 60  1  0  0  0
 59 61  1  0  0  0
 59 62  1  0  0  0
 60136  1  0  0  0
 60137  1  0  0  0
 60138  1  0  0  0
 61139  1  0  0  0
 61140  1  0  0  0
 61141  1  0  0  0
 62142  1  0  0  0
 62143  1  0  0  0
 62144  1  0  0  0
 63 65  1  0  0  0
 63145  1  0  0  0
 63146  1  0  0  0
 63147  1  0  0  0
 64148  1  0  0  0
 65149  1  0  0  0
 68 86  1  0  0  0
 71 72  2  0  0  0
 71 73  1  0  0  0
 71150  1  0  0  0
 72 75  1  0  0  0
 72151  1  0  0  0
 73 76  2  0  0  0
 73152  1  0  0  0
 74 75  2  0  0  0
 74 76  1  0  0  0
 74153  1  0  0  0
 75 83  1  0  0  0
 76 84  1  0  0  0
 77 81  1  0  0  0
 77 87  1  0  0  0
 77 89  2  0  0  0
 78 85  1  0  0  0
 78 90  2  0  0  0
 78 81  1  0  0  0
 79 80  1  0  0  0
 79 81  1  0  0  0
 79154  1  0  0  0
 79155  1  0  0  0
 80 87  1  0  0  0
 80156  1  0  0  0
 80157  1  0  0  0
 81 86  1  0  0  0
 82 85  1  0  0  0
 82158  1  0  0  0
 82159  1  0  0  0
 82160  1  0  0  0
 83 87  1  0  0  0
 83161  1  0  0  0
 83162  1  0  0  0
 84 88  1  0  0  0
 84163  1  0  0  0
 84164  1  0  0  0
 85165  1  0  0  0
 85166  1  0  0  0
 86167  1  0  0  0
 86168  1  0  0  0
 88169  1  0  0  0
M  ISO  4   1 100  68 101  86 101  88 100
M  END
> <chiral flag>
0

> <version>
0

> <s_m_source_file>
/data/baiqing/PycharmProjects/Reinvent-master-3.2/result/LINK_invent/BTK/process_docking_weight1_custom_product_contain_oxygen_bond_distance_aromatic_linkinvent_7_9_3/rearranged_h_0148.sdf

> <i_m_source_file_index>
30

> <r_mmod_Potential_Energy-OPLS-2005>
-27.2942638397217

> <r_mmod_Stretch_Energy-OPLS-2005>
46.3423233032227

> <r_mmod_Bend_Energy-OPLS-2005>
152.835693359375

> <r_mmod_Torsional_Energy-OPLS-2005>
227.983505249023

> <r_mmod_Improper_Torsional_Energy-OPLS-2005>
4.22818565368652

> <r_mmod_Van_der_Waal_Energy-OPLS-2005>
148.698532104492

> <r_mmod_Electrostatic_Energy-OPLS-2005>
-367.103515625

> <r_mmod_Solvation_Energy-OPLS-2005>
-251.567626953125

> <b_mmod_Minimization_Converged-OPLS-2005>
0

> <r_mmod_RMS_Derivative-OPLS-2005>
3.96534013748169

$$$$
30
                    3D
 Structure written by MMmdl.
157166  0  0  1  0            999 V2000
  -30.7661  -14.3708   20.6975 C   0  0  0  0  0  0
  -30.4190  -12.3016   19.3925 C   0  0  0  0  0  0
  -29.4821  -12.5258   18.1916 C   0  0  0  0  0  0
  -28.0086  -12.3765   18.6124 C   0  0  0  0  0  0
  -27.6651  -13.2003   19.8806 C   0  0  2  0  0  0
  -28.7023  -12.9447   20.9948 C   0  0  0  0  0  0
  -25.2611  -13.8152   20.5666 C   0  0  0  0  0  0
  -24.1853  -13.0439   20.9170 C   0  0  0  0  0  0
  -24.6400  -11.6897   20.8728 C   0  0  0  0  0  0
  -23.9067  -10.4288   21.0402 C   0  0  0  0  0  0
  -24.3616   -9.4210   21.9193 C   0  0  0  0  0  0
  -23.6293   -8.2244   22.0765 C   0  0  0  0  0  0
  -22.4286   -8.0275   21.3540 C   0  0  0  0  0  0
  -21.9907   -9.0253   20.4651 C   0  0  0  0  0  0
  -22.7234  -10.2135   20.3062 C   0  0  0  0  0  0
  -21.6858   -6.0733   22.5279 C   0  0  0  0  0  0
  -21.4008   -6.5633   23.8206 C   0  0  0  0  0  0
  -21.3663   -5.6791   24.9167 C   0  0  0  0  0  0
  -21.6040   -4.3057   24.7216 C   0  0  0  0  0  0
  -21.8825   -3.8151   23.4343 C   0  0  0  0  0  0
  -21.9186   -4.6963   22.3401 C   0  0  0  0  0  0
  -22.7874  -13.5245   21.1837 C   0  0  0  0  0  0
  -22.1657   -4.2149   21.0981 F   0  0  0  0  0  0
  -21.5635   -3.4545   25.7730 F   0  0  0  0  0  0
  -30.0425  -13.2465   20.4550 N   0  0  0  0  0  0
  -26.3042  -12.9308   20.3380 N   0  0  0  0  0  0
  -25.9328  -11.6471   20.5777 N   0  0  0  0  0  0
  -22.0509  -12.8231   22.0379 N   0  0  0  0  0  0
  -25.4354  -15.1872   20.4072 N   0  0  0  0  0  0
  -31.7939  -14.6608   20.0729 O   0  0  0  0  0  0
  -21.6641   -6.8882   21.4247 O   0  0  0  0  0  0
  -22.3541  -14.5547   20.6695 O   0  0  0  0  0  0
  -24.6129  -31.8666   23.2081 C   0  0  0  0  0  0
  -25.9028  -32.4812   23.8361 C   0  0  1  0  0  0
  -27.2430  -27.4391   20.0936 C   0  0  0  0  0  0
  -25.5881  -33.8613   24.2298 N   0  0  0  0  0  0
  -23.3994  -30.4872   21.5511 C   0  0  2  0  0  0
  -24.8452  -28.9503   20.1186 C   0  0  0  0  0  0
  -22.7389  -29.4628   22.5019 C   0  0  0  0  0  0
  -18.0257  -28.1384   22.8484 C   0  0  0  0  0  0
  -24.1496  -36.7335   23.2642 C   0  0  0  0  0  0
  -25.9251  -30.8362   21.3551 C   0  0  0  0  0  0
  -26.0026  -29.4666   20.7124 C   0  0  0  0  0  0
  -27.1981  -28.7159   20.6999 C   0  0  0  0  0  0
  -26.0604  -26.9270   19.5090 C   0  0  0  0  0  0
  -24.8681  -27.6796   19.5187 C   0  0  0  0  0  0
  -23.6046  -29.8142   20.1677 C   0  0  0  0  0  0
  -25.4113  -36.3118   24.0335 C   0  0  1  0  0  0
  -20.5840  -28.3643   23.1362 C   0  0  2  0  0  0
  -20.6761  -26.9382   22.5449 C   0  0  0  0  0  0
  -19.5742  -26.6391   21.5237 C   0  0  0  0  0  0
  -18.1912  -26.7924   22.1623 C   0  0  0  0  0  0
  -19.1512  -28.8826   23.2911 C   0  0  0  0  0  0
  -18.9432  -30.1436   23.8910 C   0  0  0  0  0  0
  -17.6442  -30.6596   24.0558 C   0  0  0  0  0  0
  -25.9046  -34.9480   23.5124 C   0  0  0  0  0  0
  -16.5323  -29.9101   23.6333 C   0  0  0  0  0  0
  -16.7242  -28.6522   23.0337 C   0  0  0  0  0  0
  -26.4456  -31.6594   25.0692 C   0  0  0  0  0  0
  -25.3733  -31.3683   26.1443 C   0  0  0  0  0  0
  -27.0255  -30.3035   24.6033 C   0  0  0  0  0  0
  -27.6028  -32.4295   25.7455 C   0  0  0  0  0  0
  -27.5568  -37.1812   24.8452 C   0  0  0  0  0  0
  -21.4118  -29.3015   22.3764 N   0  0  0  0  0  0
  -26.4291  -37.3819   23.9401 N   0  0  0  0  0  0
  -24.6648  -31.0772   22.0979 N   0  0  0  0  0  0
  -23.4166  -28.8190   23.3073 O   0  0  0  0  0  0
  -28.4562  -26.7785   20.0994 O   0  0  0  0  0  0
  -26.5622  -34.8926   22.4688 O   0  0  0  0  0  0
  -23.5328  -32.1390   23.7505 O   0  0  0  0  0  0
  -32.7870  -16.9270   23.8374 C   0  0  0  0  0  0
  -32.0749  -15.8985   23.1859 C   0  0  0  0  0  0
  -32.4246  -18.2706   23.6242 C   0  0  0  0  0  0
  -29.6296  -18.2533   21.3099 C   0  0  0  0  0  0
  -30.6168  -17.5504   22.0821 C   0  0  0  0  0  0
  -31.0072  -16.2038   22.3072 C   0  0  0  0  0  0
  -31.3561  -18.5528   22.7591 C   0  0  0  0  0  0
  -29.8309  -19.6022   21.5274 C   0  0  0  0  0  0
  -29.3733  -21.9908   21.1886 C   0  0  0  0  0  0
  -28.7033  -22.9411   20.1770 C   0  0  0  0  0  0
  -28.3923  -24.3800   20.6791 C   0  0  0  0  0  0
  -28.5930  -25.4510   19.5834 C   0  0  0  0  0  0
  -30.2965  -15.1471   21.6842 N   0  0  0  0  0  0
  -29.2034  -20.6706   20.9605 N   0  0  0  0  0  0
  -30.0199  -22.4526   22.1339 O   0  0  0  0  0  0
  -30.8631  -19.7958   22.4180 O   0  0  0  0  0  0
  -31.4605  -12.4124   19.0842 H   0  0  0  0  0  0
  -30.3306  -11.2778   19.7606 H   0  0  0  0  0  0
  -29.7178  -11.8192   17.3950 H   0  0  0  0  0  0
  -29.6473  -13.5207   17.7764 H   0  0  0  0  0  0
  -27.8207  -11.3184   18.7968 H   0  0  0  0  0  0
  -27.3539  -12.6625   17.7890 H   0  0  0  0  0  0
  -27.7237  -14.2546   19.6086 H   0  0  0  0  0  0
  -28.6740  -11.8995   21.3068 H   0  0  0  0  0  0
  -28.4443  -13.5159   21.8873 H   0  0  0  0  0  0
  -25.2765   -9.5677   22.4770 H   0  0  0  0  0  0
  -23.9999   -7.4626   22.7479 H   0  0  0  0  0  0
  -21.0843   -8.8779   19.8945 H   0  0  0  0  0  0
  -22.3712  -10.9677   19.6165 H   0  0  0  0  0  0
  -21.2014   -7.6139   23.9708 H   0  0  0  0  0  0
  -21.1476   -6.0521   25.9065 H   0  0  0  0  0  0
  -22.0609   -2.7616   23.2845 H   0  0  0  0  0  0
  -22.4115  -11.9879   22.4747 H   0  0  0  0  0  0
  -21.1135  -13.1262   22.2613 H   0  0  0  0  0  0
  -24.6768  -15.8515   20.5213 H   0  0  0  0  0  0
  -26.2987  -15.6205   20.1036 H   0  0  0  0  0  0
  -26.7083  -32.5537   23.1112 H   0  0  0  0  0  0
  -24.9985  -33.9753   25.0394 H   0  0  0  0  0  0
  -22.6894  -31.3036   21.4083 H   0  0  0  0  0  0
  -23.3752  -35.9680   23.3332 H   0  0  0  0  0  0
  -24.3587  -36.8950   22.2058 H   0  0  0  0  0  0
  -23.7252  -37.6547   23.6635 H   0  0  0  0  0  0
  -26.0268  -31.5943   20.5777 H   0  0  0  0  0  0
  -26.8187  -30.9014   21.9652 H   0  0  0  0  0  0
  -28.0924  -29.1120   21.1594 H   0  0  0  0  0  0
  -26.0279  -25.9540   19.0404 H   0  0  0  0  0  0
  -23.9742  -27.2722   19.0683 H   0  0  0  0  0  0
  -23.7066  -30.5853   19.4021 H   0  0  0  0  0  0
  -22.7291  -29.2325   19.8766 H   0  0  0  0  0  0
  -25.1289  -36.1991   25.0833 H   0  0  0  0  0  0
  -20.9881  -28.3181   24.1501 H   0  0  0  0  0  0
  -20.5712  -26.2212   23.3609 H   0  0  0  0  0  0
  -21.6617  -26.7468   22.1198 H   0  0  0  0  0  0
  -19.6924  -25.6318   21.1240 H   0  0  0  0  0  0
  -19.6719  -27.3221   20.6787 H   0  0  0  0  0  0
  -17.4183  -26.6654   21.4026 H   0  0  0  0  0  0
  -18.0293  -26.0094   22.9035 H   0  0  0  0  0  0
  -19.7912  -30.7247   24.2288 H   0  0  0  0  0  0
  -17.5004  -31.6280   24.5154 H   0  0  0  0  0  0
  -15.5325  -30.3013   23.7701 H   0  0  0  0  0  0
  -15.8620  -28.0878   22.7041 H   0  0  0  0  0  0
  -24.5914  -30.7018   25.7777 H   0  0  0  0  0  0
  -24.8897  -32.2835   26.4871 H   0  0  0  0  0  0
  -25.8101  -30.8858   27.0197 H   0  0  0  0  0  0
  -26.2757  -29.6827   24.1110 H   0  0  0  0  0  0
  -27.4067  -29.7239   25.4452 H   0  0  0  0  0  0
  -27.8582  -30.4378   23.9126 H   0  0  0  0  0  0
  -27.2656  -33.3598   26.2031 H   0  0  0  0  0  0
  -28.3837  -32.6854   25.0283 H   0  0  0  0  0  0
  -28.0689  -31.8417   26.5374 H   0  0  0  0  0  0
  -28.2594  -38.0099   24.7500 H   0  0  0  0  0  0
  -28.1060  -36.2634   24.6288 H   0  0  0  0  0  0
  -27.2278  -37.1483   25.8852 H   0  0  0  0  0  0
  -20.9270  -29.8719   21.6976 H   0  0  0  0  0  0
  -26.0196  -38.2900   24.1410 H   0  0  0  0  0  0
  -33.6085  -16.6795   24.4975 H   0  0  0  0  0  0
  -32.3594  -14.8694   23.3658 H   0  0  0  0  0  0
  -32.9568  -19.0748   24.1117 H   0  0  0  0  0  0
  -28.8982  -17.7880   20.6646 H   0  0  0  0  0  0
  -27.7923  -22.4863   19.7884 H   0  0  0  0  0  0
  -29.3901  -22.9977   19.3314 H   0  0  0  0  0  0
  -29.0258  -24.6485   21.5246 H   0  0  0  0  0  0
  -27.3681  -24.4174   21.0510 H   0  0  0  0  0  0
  -27.9825  -25.2596   18.7023 H   0  0  0  0  0  0
  -29.6216  -25.3825   19.2246 H   0  0  0  0  0  0
  -29.4141  -14.8764   22.0923 H   0  0  0  0  0  0
  -28.5742  -20.4484   20.2019 H   0  0  0  0  0  0
  1 25  1  0  0  0
  1 30  2  0  0  0
  1 83  1  0  0  0
  2  3  1  0  0  0
  2 25  1  0  0  0
  2 87  1  0  0  0
  2 88  1  0  0  0
  3  4  1  0  0  0
  3 89  1  0  0  0
  3 90  1  0  0  0
  4  5  1  0  0  0
  4 91  1  0  0  0
  4 92  1  0  0  0
  5  6  1  0  0  0
  5 26  1  0  0  0
  5 93  1  0  0  0
  6 25  1  0  0  0
  6 94  1  0  0  0
  6 95  1  0  0  0
  7  8  2  0  0  0
  7 26  1  0  0  0
  7 29  1  0  0  0
  8  9  1  0  0  0
  8 22  1  0  0  0
  9 10  1  0  0  0
  9 27  2  0  0  0
 10 11  2  0  0  0
 10 15  1  0  0  0
 11 12  1  0  0  0
 11 96  1  0  0  0
 12 13  2  0  0  0
 12 97  1  0  0  0
 13 14  1  0  0  0
 13 31  1  0  0  0
 14 15  2  0  0  0
 14 98  1  0  0  0
 15 99  1  0  0  0
 16 17  2  0  0  0
 16 21  1  0  0  0
 16 31  1  0  0  0
 17 18  1  0  0  0
 17100  1  0  0  0
 18 19  2  0  0  0
 18101  1  0  0  0
 19 20  1  0  0  0
 19 24  1  0  0  0
 20 21  2  0  0  0
 20102  1  0  0  0
 21 23  1  0  0  0
 22 28  1  0  0  0
 22 32  2  0  0  0
 26 27  1  0  0  0
 28103  1  0  0  0
 28104  1  0  0  0
 29105  1  0  0  0
 29106  1  0  0  0
 33 34  1  0  0  0
 33 66  1  0  0  0
 33 70  2  0  0  0
 34 36  1  0  0  0
 34 59  1  0  0  0
 34107  1  0  0  0
 35 44  2  0  0  0
 35 45  1  0  0  0
 35 68  1  0  0  0
 36 56  1  0  0  0
 36108  1  0  0  0
 37 39  1  0  0  0
 37 47  1  0  0  0
 37 66  1  0  0  0
 37109  1  0  0  0
 38 43  2  0  0  0
 38 46  1  0  0  0
 38 47  1  0  0  0
 39 64  1  0  0  0
 39 67  2  0  0  0
 40 52  1  0  0  0
 40 53  2  0  0  0
 40 58  1  0  0  0
 41110  1  0  0  0
 41111  1  0  0  0
 41112  1  0  0  0
 41 48  1  0  0  0
 42 43  1  0  0  0
 42 66  1  0  0  0
 42113  1  0  0  0
 42114  1  0  0  0
 43 44  1  0  0  0
 44115  1  0  0  0
 45 46  2  0  0  0
 45116  1  0  0  0
 46117  1  0  0  0
 47118  1  0  0  0
 47119  1  0  0  0
 48 56  1  0  0  0
 48 65  1  0  0  0
 48120  1  0  0  0
 49 50  1  0  0  0
 49 53  1  0  0  0
 49 64  1  0  0  0
 49121  1  0  0  0
 50 51  1  0  0  0
 50122  1  0  0  0
 50123  1  0  0  0
 51 52  1  0  0  0
 51124  1  0  0  0
 51125  1  0  0  0
 52126  1  0  0  0
 52127  1  0  0  0
 53 54  1  0  0  0
 54 55  2  0  0  0
 54128  1  0  0  0
 55 57  1  0  0  0
 55129  1  0  0  0
 56 69  2  0  0  0
 57 58  2  0  0  0
 57130  1  0  0  0
 58131  1  0  0  0
 59 60  1  0  0  0
 59 61  1  0  0  0
 59 62  1  0  0  0
 60132  1  0  0  0
 60133  1  0  0  0
 60134  1  0  0  0
 61135  1  0  0  0
 61136  1  0  0  0
 61137  1  0  0  0
 62138  1  0  0  0
 62139  1  0  0  0
 62140  1  0  0  0
 63 65  1  0  0  0
 63141  1  0  0  0
 63142  1  0  0  0
 63143  1  0  0  0
 64144  1  0  0  0
 65145  1  0  0  0
 68 82  1  0  0  0
 71 72  2  0  0  0
 71 73  1  0  0  0
 71146  1  0  0  0
 72 76  1  0  0  0
 72147  1  0  0  0
 73 77  2  0  0  0
 73148  1  0  0  0
 74 75  1  0  0  0
 74 78  2  0  0  0
 74149  1  0  0  0
 75 76  2  0  0  0
 75 77  1  0  0  0
 76 83  1  0  0  0
 77 86  1  0  0  0
 78 84  1  0  0  0
 78 86  1  0  0  0
 79 80  1  0  0  0
 79 84  1  0  0  0
 79 85  2  0  0  0
 80 81  1  0  0  0
 80150  1  0  0  0
 80151  1  0  0  0
 81 82  1  0  0  0
 81152  1  0  0  0
 81153  1  0  0  0
 82154  1  0  0  0
 82155  1  0  0  0
 83156  1  0  0  0
 84157  1  0  0  0
M  ISO  4   1 100  68 101  82 101  83 100
M  END
> <chiral flag>
0

> <version>
0

> <s_m_source_file>
/data/baiqing/PycharmProjects/Reinvent-master-3.2/result/LINK_invent/BTK/process_docking_weight1_custom_product_contain_oxygen_bond_distance_aromatic_linkinvent_7_9_3/rearranged_h_0148.sdf

> <i_m_source_file_index>
31

> <r_mmod_Potential_Energy-OPLS-2005>
-131.110198974609

> <r_mmod_Stretch_Energy-OPLS-2005>
35.3416519165039

> <r_mmod_Bend_Energy-OPLS-2005>
108.824989318848

> <r_mmod_Torsional_Energy-OPLS-2005>
223.976943969727

> <r_mmod_Improper_Torsional_Energy-OPLS-2005>
1.88865065574646

> <r_mmod_Van_der_Waal_Energy-OPLS-2005>
153.374465942383

> <r_mmod_Electrostatic_Energy-OPLS-2005>
-401.867645263672

> <r_mmod_Solvation_Energy-OPLS-2005>
-261.224426269531

> <b_mmod_Minimization_Converged-OPLS-2005>
0

> <r_mmod_RMS_Derivative-OPLS-2005>
2.64164113998413

$$$$
31
                    3D
 Structure written by MMmdl.
162171  0  0  1  0            999 V2000
  -30.6094  -14.7801   20.4271 C   0  0  0  0  0  0
  -30.4244  -12.4767   19.4729 C   0  0  0  0  0  0
  -29.5103  -12.5185   18.2277 C   0  0  0  0  0  0
  -28.0297  -12.3556   18.6314 C   0  0  0  0  0  0
  -27.6359  -13.2434   19.8413 C   0  0  2  0  0  0
  -28.6819  -13.1962   20.9775 C   0  0  0  0  0  0
  -25.2496  -13.8203   20.5670 C   0  0  0  0  0  0
  -24.1817  -13.0447   20.9198 C   0  0  0  0  0  0
  -24.6420  -11.6926   20.8719 C   0  0  0  0  0  0
  -23.9081  -10.4275   21.0379 C   0  0  0  0  0  0
  -24.3621   -9.4198   21.9170 C   0  0  0  0  0  0
  -23.6294   -8.2241   22.0749 C   0  0  0  0  0  0
  -22.4288   -8.0243   21.3523 C   0  0  0  0  0  0
  -21.9897   -9.0228   20.4652 C   0  0  0  0  0  0
  -22.7233  -10.2114   20.3051 C   0  0  0  0  0  0
  -21.6869   -6.0696   22.5256 C   0  0  0  0  0  0
  -21.4042   -6.5611   23.8183 C   0  0  0  0  0  0
  -21.3657   -5.6776   24.9135 C   0  0  0  0  0  0
  -21.6046   -4.3029   24.7219 C   0  0  0  0  0  0
  -21.8830   -3.8118   23.4334 C   0  0  0  0  0  0
  -21.9206   -4.6924   22.3386 C   0  0  0  0  0  0
  -22.7825  -13.5202   21.1810 C   0  0  0  0  0  0
  -22.1680   -4.2100   21.0973 F   0  0  0  0  0  0
  -21.5606   -3.4531   25.7734 F   0  0  0  0  0  0
  -29.9757  -13.5554   20.3857 N   0  0  0  0  0  0
  -26.2911  -12.9441   20.3222 N   0  0  0  0  0  0
  -25.9354  -11.6565   20.5745 N   0  0  0  0  0  0
  -22.0517  -12.8213   22.0399 N   0  0  0  0  0  0
  -25.4112  -15.1941   20.4061 N   0  0  0  0  0  0
  -31.8116  -14.8209   20.1567 O   0  0  0  0  0  0
  -21.6656   -6.8837   21.4209 O   0  0  0  0  0  0
  -22.3507  -14.5476   20.6592 O   0  0  0  0  0  0
  -24.6274  -31.8567   23.2004 C   0  0  0  0  0  0
  -25.9134  -32.4747   23.8313 C   0  0  1  0  0  0
  -27.2345  -27.2882   20.0934 C   0  0  0  0  0  0
  -25.5954  -33.8556   24.2211 N   0  0  0  0  0  0
  -23.4212  -30.4747   21.5466 C   0  0  2  0  0  0
  -24.8660  -28.9114   20.1238 C   0  0  0  0  0  0
  -22.7471  -29.4624   22.4996 C   0  0  0  0  0  0
  -18.0287  -28.1426   22.8471 C   0  0  0  0  0  0
  -24.1501  -36.7263   23.2623 C   0  0  0  0  0  0
  -25.9672  -30.7659   21.3838 C   0  0  0  0  0  0
  -26.0402  -29.3943   20.7152 C   0  0  0  0  0  0
  -27.2229  -28.5926   20.6887 C   0  0  0  0  0  0
  -26.0344  -26.8614   19.4853 C   0  0  0  0  0  0
  -24.8651  -27.6496   19.5057 C   0  0  0  0  0  0
  -23.6381  -29.7945   20.1699 C   0  0  0  0  0  0
  -25.4142  -36.3034   24.0281 C   0  0  1  0  0  0
  -20.5867  -28.3741   23.1278 C   0  0  2  0  0  0
  -20.6805  -26.9485   22.5373 C   0  0  0  0  0  0
  -19.5798  -26.6430   21.5181 C   0  0  0  0  0  0
  -18.1963  -26.7969   22.1595 C   0  0  0  0  0  0
  -19.1530  -28.8908   23.2861 C   0  0  0  0  0  0
  -18.9451  -30.1496   23.8900 C   0  0  0  0  0  0
  -17.6453  -30.6627   24.0574 C   0  0  0  0  0  0
  -25.9081  -34.9423   23.5034 C   0  0  0  0  0  0
  -16.5352  -29.9112   23.6349 C   0  0  0  0  0  0
  -16.7265  -28.6524   23.0360 C   0  0  0  0  0  0
  -26.4487  -31.6599   25.0723 C   0  0  0  0  0  0
  -25.3693  -31.3814   26.1430 C   0  0  0  0  0  0
  -27.0314  -30.2981   24.6276 C   0  0  0  0  0  0
  -27.6011  -32.4382   25.7503 C   0  0  0  0  0  0
  -27.5583  -37.1799   24.8460 C   0  0  0  0  0  0
  -21.4190  -29.3075   22.3691 N   0  0  0  0  0  0
  -26.4314  -37.3748   23.9375 N   0  0  0  0  0  0
  -24.6906  -31.0516   22.0987 N   0  0  0  0  0  0
  -23.4161  -28.8173   23.3107 O   0  0  0  0  0  0
  -28.3760  -26.4638   20.1432 O   0  0  0  0  0  0
  -26.5625  -34.8888   22.4580 O   0  0  0  0  0  0
  -23.5436  -32.1387   23.7328 O   0  0  0  0  0  0
  -30.7651  -20.0927   19.3361 C   0  0  0  0  0  0
  -29.3074  -18.5357   20.5266 C   0  0  0  0  0  0
  -31.3140  -17.6984   19.4505 C   0  0  0  0  0  0
  -29.5895  -19.9058   20.0913 C   0  0  0  0  0  0
  -31.6100  -19.0158   19.0265 C   0  0  0  0  0  0
  -30.1575  -17.3814   20.2123 C   0  0  0  0  0  0
  -28.6762  -21.1377   20.2397 C   0  0  0  0  0  0
  -30.0986  -23.7394   22.1105 C   0  0  0  0  0  0
  -28.6036  -24.1245   22.0240 C   0  0  0  0  0  0
  -30.3812  -22.8394   20.8972 C   0  0  0  0  0  0
  -28.1917  -23.7628   20.5956 C   0  0  2  0  0  0
  -28.4586  -25.0504   19.6407 C   0  0  0  0  0  0
  -29.0408  -22.4816   20.4084 N   0  0  0  0  0  0
  -32.7579  -19.2635   18.2690 N   0  0  0  0  0  0
  -29.8583  -15.9505   20.5778 N   0  0  0  0  0  0
  -27.3717  -20.8955   20.1643 N   0  3  0  0  0  0
  -31.4654  -12.5993   19.1705 H   0  0  0  0  0  0
  -30.3663  -11.5054   19.9674 H   0  0  0  0  0  0
  -29.7957  -11.7439   17.5127 H   0  0  0  0  0  0
  -29.6458  -13.4690   17.7063 H   0  0  0  0  0  0
  -27.8605  -11.3044   18.8711 H   0  0  0  0  0  0
  -27.3873  -12.5741   17.7769 H   0  0  0  0  0  0
  -27.6210  -14.2634   19.4576 H   0  0  0  0  0  0
  -28.7341  -12.2071   21.4382 H   0  0  0  0  0  0
  -28.4193  -13.8925   21.7773 H   0  0  0  0  0  0
  -25.2770   -9.5681   22.4745 H   0  0  0  0  0  0
  -23.9994   -7.4641   22.7499 H   0  0  0  0  0  0
  -21.0812   -8.8748   19.9000 H   0  0  0  0  0  0
  -22.3670  -10.9629   19.6169 H   0  0  0  0  0  0
  -21.2080   -7.6133   23.9656 H   0  0  0  0  0  0
  -21.1463   -6.0520   25.9037 H   0  0  0  0  0  0
  -22.0629   -2.7574   23.2859 H   0  0  0  0  0  0
  -22.4155  -11.9929   22.4845 H   0  0  0  0  0  0
  -21.1107  -13.1215   22.2571 H   0  0  0  0  0  0
  -24.6324  -15.8351   20.5050 H   0  0  0  0  0  0
  -26.2436  -15.6352   20.0361 H   0  0  0  0  0  0
  -26.7198  -32.5352   23.1041 H   0  0  0  0  0  0
  -25.0173  -33.9723   25.0394 H   0  0  0  0  0  0
  -22.7209  -31.2995   21.3983 H   0  0  0  0  0  0
  -23.3755  -35.9612   23.3309 H   0  0  0  0  0  0
  -24.3552  -36.8875   22.2033 H   0  0  0  0  0  0
  -23.7303  -37.6475   23.6660 H   0  0  0  0  0  0
  -26.1197  -31.5349   20.6272 H   0  0  0  0  0  0
  -26.8411  -30.8000   22.0228 H   0  0  0  0  0  0
  -28.1284  -28.9634   21.1508 H   0  0  0  0  0  0
  -25.9703  -25.9033   18.9961 H   0  0  0  0  0  0
  -23.9591  -27.2672   19.0574 H   0  0  0  0  0  0
  -23.7766  -30.5656   19.4143 H   0  0  0  0  0  0
  -22.7541  -29.2332   19.8597 H   0  0  0  0  0  0
  -25.1351  -36.1847   25.0785 H   0  0  0  0  0  0
  -20.9940  -28.3336   24.1411 H   0  0  0  0  0  0
  -20.5782  -26.2355   23.3560 H   0  0  0  0  0  0
  -21.6659  -26.7605   22.1124 H   0  0  0  0  0  0
  -19.6980  -25.6329   21.1234 H   0  0  0  0  0  0
  -19.6716  -27.3215   20.6692 H   0  0  0  0  0  0
  -17.4219  -26.6675   21.4011 H   0  0  0  0  0  0
  -18.0429  -26.0111   22.9011 H   0  0  0  0  0  0
  -19.7911  -30.7307   24.2273 H   0  0  0  0  0  0
  -17.5005  -31.6296   24.5188 H   0  0  0  0  0  0
  -15.5351  -30.3020   23.7698 H   0  0  0  0  0  0
  -15.8648  -28.0846   22.7108 H   0  0  0  0  0  0
  -24.5842  -30.7188   25.7781 H   0  0  0  0  0  0
  -24.8897  -32.3018   26.4799 H   0  0  0  0  0  0
  -25.7966  -30.9022   27.0254 H   0  0  0  0  0  0
  -26.2907  -29.6759   24.1241 H   0  0  0  0  0  0
  -27.3870  -29.7241   25.4858 H   0  0  0  0  0  0
  -27.8862  -30.4199   23.9611 H   0  0  0  0  0  0
  -27.2575  -33.3707   26.2008 H   0  0  0  0  0  0
  -28.3848  -32.6934   25.0356 H   0  0  0  0  0  0
  -28.0648  -31.8568   26.5483 H   0  0  0  0  0  0
  -28.2600  -38.0093   24.7471 H   0  0  0  0  0  0
  -28.1072  -36.2612   24.6348 H   0  0  0  0  0  0
  -27.2257  -37.1516   25.8850 H   0  0  0  0  0  0
  -20.9444  -29.8689   21.6756 H   0  0  0  0  0  0
  -26.0154  -38.2805   24.1377 H   0  0  0  0  0  0
  -31.0139  -21.0757   18.9628 H   0  0  0  0  0  0
  -28.3980  -18.3717   21.0876 H   0  0  0  0  0  0
  -31.9947  -16.9248   19.1376 H   0  0  0  0  0  0
  -30.3131  -23.2060   23.0390 H   0  0  0  0  0  0
  -30.7291  -24.6278   22.0804 H   0  0  0  0  0  0
  -28.4271  -25.1705   22.2776 H   0  0  0  0  0  0
  -28.0141  -23.5335   22.7227 H   0  0  0  0  0  0
  -31.0016  -21.9884   21.1812 H   0  0  0  0  0  0
  -30.9165  -23.3916   20.1245 H   0  0  0  0  0  0
  -27.1241  -23.5440   20.5693 H   0  0  0  0  0  0
  -27.8563  -24.9489   18.7385 H   0  0  0  0  0  0
  -29.4771  -24.9681   19.2599 H   0  0  0  0  0  0
  -33.2210  -18.4670   17.8406 H   0  0  0  0  0  0
  -32.7683  -20.0867   17.6755 H   0  0  0  0  0  0
  -28.9147  -15.7893   20.8979 H   0  0  0  0  0  0
  -27.0673  -19.9433   20.0493 H   0  0  0  0  0  0
  -26.6703  -21.6110   20.2402 H   0  0  0  0  0  0
  1 25  1  0  0  0
  1 30  2  0  0  0
  1 85  1  0  0  0
  2  3  1  0  0  0
  2 25  1  0  0  0
  2 87  1  0  0  0
  2 88  1  0  0  0
  3  4  1  0  0  0
  3 89  1  0  0  0
  3 90  1  0  0  0
  4  5  1  0  0  0
  4 91  1  0  0  0
  4 92  1  0  0  0
  5  6  1  0  0  0
  5 26  1  0  0  0
  5 93  1  0  0  0
  6 25  1  0  0  0
  6 94  1  0  0  0
  6 95  1  0  0  0
  7  8  2  0  0  0
  7 26  1  0  0  0
  7 29  1  0  0  0
  8  9  1  0  0  0
  8 22  1  0  0  0
  9 10  1  0  0  0
  9 27  2  0  0  0
 10 11  2  0  0  0
 10 15  1  0  0  0
 11 12  1  0  0  0
 11 96  1  0  0  0
 12 13  2  0  0  0
 12 97  1  0  0  0
 13 14  1  0  0  0
 13 31  1  0  0  0
 14 15  2  0  0  0
 14 98  1  0  0  0
 15 99  1  0  0  0
 16 17  2  0  0  0
 16 21  1  0  0  0
 16 31  1  0  0  0
 17 18  1  0  0  0
 17100  1  0  0  0
 18 19  2  0  0  0
 18101  1  0  0  0
 19 20  1  0  0  0
 19 24  1  0  0  0
 20 21  2  0  0  0
 20102  1  0  0  0
 21 23  1  0  0  0
 22 28  1  0  0  0
 22 32  2  0  0  0
 26 27  1  0  0  0
 28103  1  0  0  0
 28104  1  0  0  0
 29105  1  0  0  0
 29106  1  0  0  0
 33 34  1  0  0  0
 33 66  1  0  0  0
 33 70  2  0  0  0
 34 36  1  0  0  0
 34 59  1  0  0  0
 34107  1  0  0  0
 35 44  2  0  0  0
 35 45  1  0  0  0
 35 68  1  0  0  0
 36 56  1  0  0  0
 36108  1  0  0  0
 37 39  1  0  0  0
 37 47  1  0  0  0
 37 66  1  0  0  0
 37109  1  0  0  0
 38 43  2  0  0  0
 38 46  1  0  0  0
 38 47  1  0  0  0
 39 64  1  0  0  0
 39 67  2  0  0  0
 40 52  1  0  0  0
 40 53  2  0  0  0
 40 58  1  0  0  0
 41110  1  0  0  0
 41111  1  0  0  0
 41112  1  0  0  0
 41 48  1  0  0  0
 42 43  1  0  0  0
 42 66  1  0  0  0
 42113  1  0  0  0
 42114  1  0  0  0
 43 44  1  0  0  0
 44115  1  0  0  0
 45 46  2  0  0  0
 45116  1  0  0  0
 46117  1  0  0  0
 47118  1  0  0  0
 47119  1  0  0  0
 48 56  1  0  0  0
 48 65  1  0  0  0
 48120  1  0  0  0
 49 50  1  0  0  0
 49 53  1  0  0  0
 49 64  1  0  0  0
 49121  1  0  0  0
 50 51  1  0  0  0
 50122  1  0  0  0
 50123  1  0  0  0
 51 52  1  0  0  0
 51124  1  0  0  0
 51125  1  0  0  0
 52126  1  0  0  0
 52127  1  0  0  0
 53 54  1  0  0  0
 54 55  2  0  0  0
 54128  1  0  0  0
 55 57  1  0  0  0
 55129  1  0  0  0
 56 69  2  0  0  0
 57 58  2  0  0  0
 57130  1  0  0  0
 58131  1  0  0  0
 59 60  1  0  0  0
 59 61  1  0  0  0
 59 62  1  0  0  0
 60132  1  0  0  0
 60133  1  0  0  0
 60134  1  0  0  0
 61135  1  0  0  0
 61136  1  0  0  0
 61137  1  0  0  0
 62138  1  0  0  0
 62139  1  0  0  0
 62140  1  0  0  0
 63 65  1  0  0  0
 63141  1  0  0  0
 63142  1  0  0  0
 63143  1  0  0  0
 64144  1  0  0  0
 65145  1  0  0  0
 68 82  1  0  0  0
 71 74  2  0  0  0
 71 75  1  0  0  0
 71146  1  0  0  0
 72 74  1  0  0  0
 72 76  2  0  0  0
 72147  1  0  0  0
 73 75  2  0  0  0
 73 76  1  0  0  0
 73148  1  0  0  0
 74 77  1  0  0  0
 75 84  1  0  0  0
 76 85  1  0  0  0
 77 83  1  0  0  0
 77 86  2  0  0  0
 78 79  1  0  0  0
 78 80  1  0  0  0
 78149  1  0  0  0
 78150  1  0  0  0
 79 81  1  0  0  0
 79151  1  0  0  0
 79152  1  0  0  0
 80 83  1  0  0  0
 80153  1  0  0  0
 80154  1  0  0  0
 81 82  1  0  0  0
 81 83  1  0  0  0
 81155  1  0  0  0
 82156  1  0  0  0
 82157  1  0  0  0
 84158  1  0  0  0
 84159  1  0  0  0
 85160  1  0  0  0
 86161  1  0  0  0
 86162  1  0  0  0
M  CHG  1  86   1
M  ISO  4   1 100  68 101  82 101  85 100
M  END
> <chiral flag>
0

> <version>
0

> <s_m_source_file>
/data/baiqing/PycharmProjects/Reinvent-master-3.2/result/LINK_invent/BTK/process_docking_weight1_custom_product_contain_oxygen_bond_distance_aromatic_linkinvent_7_9_3/rearranged_h_0148.sdf

> <i_m_source_file_index>
32

> <r_mmod_Potential_Energy-OPLS-2005>
94.3344345092773

> <r_mmod_Stretch_Energy-OPLS-2005>
136.25178527832

> <r_mmod_Bend_Energy-OPLS-2005>
229.474822998047

> <r_mmod_Torsional_Energy-OPLS-2005>
295.032409667969

> <r_mmod_Improper_Torsional_Energy-OPLS-2005>
9.65689086914062

> <r_mmod_Van_der_Waal_Energy-OPLS-2005>
144.053482055664

> <r_mmod_Electrostatic_Energy-OPLS-2005>
-389.770385742188

> <r_mmod_Solvation_Energy-OPLS-2005>
-414.670227050781

> <b_mmod_Minimization_Converged-OPLS-2005>
0

> <r_mmod_RMS_Derivative-OPLS-2005>
5.64206075668335

$$$$
32
                    3D
 Structure written by MMmdl.
160169  0  0  1  0            999 V2000
  -30.7798  -14.3434   20.7106 C   0  0  0  0  0  0
  -30.4178  -12.2858   19.3960 C   0  0  0  0  0  0
  -29.4844  -12.5344   18.1968 C   0  0  0  0  0  0
  -28.0084  -12.3860   18.6108 C   0  0  0  0  0  0
  -27.6677  -13.2019   19.8839 C   0  0  2  0  0  0
  -28.7038  -12.9348   20.9986 C   0  0  0  0  0  0
  -25.2593  -13.8152   20.5680 C   0  0  0  0  0  0
  -24.1829  -13.0436   20.9152 C   0  0  0  0  0  0
  -24.6378  -11.6902   20.8727 C   0  0  0  0  0  0
  -23.9047  -10.4290   21.0416 C   0  0  0  0  0  0
  -24.3608   -9.4206   21.9189 C   0  0  0  0  0  0
  -23.6298   -8.2236   22.0758 C   0  0  0  0  0  0
  -22.4280   -8.0273   21.3551 C   0  0  0  0  0  0
  -21.9902   -9.0241   20.4654 C   0  0  0  0  0  0
  -22.7224  -10.2123   20.3065 C   0  0  0  0  0  0
  -21.6846   -6.0731   22.5280 C   0  0  0  0  0  0
  -21.4007   -6.5640   23.8208 C   0  0  0  0  0  0
  -21.3663   -5.6792   24.9170 C   0  0  0  0  0  0
  -21.6056   -4.3056   24.7218 C   0  0  0  0  0  0
  -21.8819   -3.8145   23.4337 C   0  0  0  0  0  0
  -21.9189   -4.6962   22.3394 C   0  0  0  0  0  0
  -22.7859  -13.5244   21.1832 C   0  0  0  0  0  0
  -22.1664   -4.2152   21.0969 F   0  0  0  0  0  0
  -21.5638   -3.4537   25.7729 F   0  0  0  0  0  0
  -30.0541  -13.2195   20.4722 N   0  0  0  0  0  0
  -26.3043  -12.9322   20.3393 N   0  0  0  0  0  0
  -25.9308  -11.6486   20.5762 N   0  0  0  0  0  0
  -22.0498  -12.8246   22.0392 N   0  0  0  0  0  0
  -25.4309  -15.1871   20.4109 N   0  0  0  0  0  0
  -31.7590  -14.6756   20.0315 O   0  0  0  0  0  0
  -21.6647   -6.8876   21.4245 O   0  0  0  0  0  0
  -22.3539  -14.5539   20.6666 O   0  0  0  0  0  0
  -24.6067  -31.8707   23.2113 C   0  0  0  0  0  0
  -25.8968  -32.4844   23.8410 C   0  0  1  0  0  0
  -27.2617  -27.4740   20.1207 C   0  0  0  0  0  0
  -25.5827  -33.8641   24.2352 N   0  0  0  0  0  0
  -23.3958  -30.4893   21.5487 C   0  0  2  0  0  0
  -24.8484  -28.9603   20.1140 C   0  0  0  0  0  0
  -22.7381  -29.4652   22.5004 C   0  0  0  0  0  0
  -18.0272  -28.1389   22.8511 C   0  0  0  0  0  0
  -24.1474  -36.7325   23.2650 C   0  0  0  0  0  0
  -25.9154  -30.8567   21.3537 C   0  0  0  0  0  0
  -26.0002  -29.4929   20.7055 C   0  0  0  0  0  0
  -27.2061  -28.7670   20.6974 C   0  0  0  0  0  0
  -26.0946  -26.9575   19.5172 C   0  0  0  0  0  0
  -24.8900  -27.6909   19.5116 C   0  0  0  0  0  0
  -23.6040  -29.8163   20.1638 C   0  0  0  0  0  0
  -25.4089  -36.3126   24.0360 C   0  0  1  0  0  0
  -20.5859  -28.3652   23.1358 C   0  0  2  0  0  0
  -20.6752  -26.9398   22.5433 C   0  0  0  0  0  0
  -19.5730  -26.6390   21.5233 C   0  0  0  0  0  0
  -18.1914  -26.7945   22.1643 C   0  0  0  0  0  0
  -19.1520  -28.8836   23.2944 C   0  0  0  0  0  0
  -18.9445  -30.1447   23.8946 C   0  0  0  0  0  0
  -17.6448  -30.6590   24.0573 C   0  0  0  0  0  0
  -25.9004  -34.9492   23.5159 C   0  0  0  0  0  0
  -16.5342  -29.9088   23.6325 C   0  0  0  0  0  0
  -16.7266  -28.6507   23.0346 C   0  0  0  0  0  0
  -26.4441  -31.6593   25.0705 C   0  0  0  0  0  0
  -25.3730  -31.3684   26.1479 C   0  0  0  0  0  0
  -27.0265  -30.3046   24.6025 C   0  0  0  0  0  0
  -27.6030  -32.4312   25.7450 C   0  0  0  0  0  0
  -27.5580  -37.1817   24.8465 C   0  0  0  0  0  0
  -21.4114  -29.3017   22.3753 N   0  0  0  0  0  0
  -26.4283  -37.3800   23.9420 N   0  0  0  0  0  0
  -24.6574  -31.0855   22.0984 N   0  0  0  0  0  0
  -23.4175  -28.8217   23.3046 O   0  0  0  0  0  0
  -28.3907  -26.6776   20.1158 O   0  0  0  0  0  0
  -26.5574  -34.8934   22.4727 O   0  0  0  0  0  0
  -23.5262  -32.1441   23.7524 O   0  0  0  0  0  0
  -30.8552  -19.3006   23.9707 C   0  0  0  0  0  0
  -30.8040  -20.7079   23.7442 C   0  0  0  0  0  0
  -30.1038  -18.5831   23.0764 C   0  0  0  0  0  0
  -30.0066  -21.0725   22.6820 C   0  0  0  0  0  0
  -29.6873  -24.5711   21.7127 C   0  0  0  0  0  0
  -30.2026  -25.8145   21.5574 C   0  0  0  0  0  0
  -30.3937  -23.4484   22.3279 C   0  0  0  0  0  0
  -30.8570  -16.2258   23.7974 C   0  0  0  0  0  0
  -30.7751  -14.8545   23.1093 C   0  0  0  0  0  0
  -30.1088  -16.5398   21.5661 C   0  0  0  0  0  0
  -29.9117  -17.0989   22.9771 C   0  0  2  0  0  0
  -29.4632  -27.0249   20.9993 C   0  0  0  0  0  0
  -30.3397  -15.1071   21.7314 N   0  0  0  0  0  0
  -29.7071  -22.3019   22.1862 N   0  0  0  0  0  0
  -31.4746  -23.5114   22.9234 O   0  0  0  0  0  0
  -31.4527  -26.1740   21.8993 O   0  0  0  0  0  0
  -29.2802  -19.6551   21.9717 S   0  0  0  0  0  0
  -31.4609  -12.3870   19.0909 H   0  0  0  0  0  0
  -30.3134  -11.2599   19.7521 H   0  0  0  0  0  0
  -29.7157  -11.8419   17.3879 H   0  0  0  0  0  0
  -29.6563  -13.5363   17.7996 H   0  0  0  0  0  0
  -27.8120  -11.3277   18.7838 H   0  0  0  0  0  0
  -27.3552  -12.6855   17.7905 H   0  0  0  0  0  0
  -27.7284  -14.2575   19.6188 H   0  0  0  0  0  0
  -28.6603  -11.8913   21.3119 H   0  0  0  0  0  0
  -28.4477  -13.5114   21.8877 H   0  0  0  0  0  0
  -25.2756   -9.5680   22.4756 H   0  0  0  0  0  0
  -24.0022   -7.4616   22.7453 H   0  0  0  0  0  0
  -21.0843   -8.8740   19.8951 H   0  0  0  0  0  0
  -22.3684  -10.9656   19.6162 H   0  0  0  0  0  0
  -21.1997   -7.6150   23.9712 H   0  0  0  0  0  0
  -21.1496   -6.0522   25.9074 H   0  0  0  0  0  0
  -22.0599   -2.7612   23.2822 H   0  0  0  0  0  0
  -22.4149  -11.9928   22.4794 H   0  0  0  0  0  0
  -21.1104  -13.1254   22.2598 H   0  0  0  0  0  0
  -24.6657  -15.8428   20.5267 H   0  0  0  0  0  0
  -26.2926  -15.6297   20.1167 H   0  0  0  0  0  0
  -26.7065  -32.5586   23.1211 H   0  0  0  0  0  0
  -24.9975  -33.9825   25.0489 H   0  0  0  0  0  0
  -22.6824  -31.3042   21.4091 H   0  0  0  0  0  0
  -23.3727  -35.9669   23.3319 H   0  0  0  0  0  0
  -24.3561  -36.8912   22.2058 H   0  0  0  0  0  0
  -23.7215  -37.6537   23.6633 H   0  0  0  0  0  0
  -26.0158  -31.6234   20.5829 H   0  0  0  0  0  0
  -26.8047  -30.9204   21.9682 H   0  0  0  0  0  0
  -28.0776  -29.2269   21.1388 H   0  0  0  0  0  0
  -26.1145  -25.9772   19.0626 H   0  0  0  0  0  0
  -24.0083  -27.2744   19.0454 H   0  0  0  0  0  0
  -23.7049  -30.5889   19.4012 H   0  0  0  0  0  0
  -22.7314  -29.2277   19.8737 H   0  0  0  0  0  0
  -25.1251  -36.2005   25.0852 H   0  0  0  0  0  0
  -20.9985  -28.3198   24.1463 H   0  0  0  0  0  0
  -20.5661  -26.2254   23.3606 H   0  0  0  0  0  0
  -21.6627  -26.7434   22.1232 H   0  0  0  0  0  0
  -19.6880  -25.6302   21.1253 H   0  0  0  0  0  0
  -19.6683  -27.3213   20.6775 H   0  0  0  0  0  0
  -17.4196  -26.6730   21.4027 H   0  0  0  0  0  0
  -18.0295  -26.0080   22.9029 H   0  0  0  0  0  0
  -19.7917  -30.7254   24.2342 H   0  0  0  0  0  0
  -17.4994  -31.6278   24.5157 H   0  0  0  0  0  0
  -15.5345  -30.2993   23.7603 H   0  0  0  0  0  0
  -15.8678  -28.0821   22.7026 H   0  0  0  0  0  0
  -24.5895  -30.7067   25.7785 H   0  0  0  0  0  0
  -24.8966  -32.2839   26.5000 H   0  0  0  0  0  0
  -25.8096  -30.8810   27.0194 H   0  0  0  0  0  0
  -26.2808  -29.6806   24.1090 H   0  0  0  0  0  0
  -27.4118  -29.7231   25.4423 H   0  0  0  0  0  0
  -27.8590  -30.4401   23.9111 H   0  0  0  0  0  0
  -27.2683  -33.3588   26.2107 H   0  0  0  0  0  0
  -28.3765  -32.6909   25.0214 H   0  0  0  0  0  0
  -28.0782  -31.8425   26.5306 H   0  0  0  0  0  0
  -28.2602  -38.0108   24.7492 H   0  0  0  0  0  0
  -28.1075  -36.2644   24.6300 H   0  0  0  0  0  0
  -27.2326  -37.1465   25.8876 H   0  0  0  0  0  0
  -20.9248  -29.8744   21.6998 H   0  0  0  0  0  0
  -26.0186  -38.2885   24.1418 H   0  0  0  0  0  0
  -31.4412  -18.8777   24.7741 H   0  0  0  0  0  0
  -31.3485  -21.3943   24.3766 H   0  0  0  0  0  0
  -28.6715  -24.4118   21.3771 H   0  0  0  0  0  0
  -31.8781  -16.6041   23.7196 H   0  0  0  0  0  0
  -30.5978  -16.1922   24.8567 H   0  0  0  0  0  0
  -30.0378  -14.2178   23.6015 H   0  0  0  0  0  0
  -31.7356  -14.3354   23.1501 H   0  0  0  0  0  0
  -30.9820  -16.9976   21.0963 H   0  0  0  0  0  0
  -29.2422  -16.7337   20.9325 H   0  0  0  0  0  0
  -28.8919  -16.8658   23.2938 H   0  0  0  0  0  0
  -30.1513  -27.6848   20.4660 H   0  0  0  0  0  0
  -29.1197  -27.5538   21.8875 H   0  0  0  0  0  0
  -28.8865  -22.3510   21.5987 H   0  0  0  0  0  0
  -31.5543  -27.0987   21.7075 H   0  0  0  0  0  0
  1 25  1  0  0  0
  1 30  2  0  0  0
  1 83  1  0  0  0
  2  3  1  0  0  0
  2 25  1  0  0  0
  2 88  1  0  0  0
  2 89  1  0  0  0
  3  4  1  0  0  0
  3 90  1  0  0  0
  3 91  1  0  0  0
  4  5  1  0  0  0
  4 92  1  0  0  0
  4 93  1  0  0  0
  5  6  1  0  0  0
  5 26  1  0  0  0
  5 94  1  0  0  0
  6 25  1  0  0  0
  6 95  1  0  0  0
  6 96  1  0  0  0
  7  8  2  0  0  0
  7 26  1  0  0  0
  7 29  1  0  0  0
  8  9  1  0  0  0
  8 22  1  0  0  0
  9 10  1  0  0  0
  9 27  2  0  0  0
 10 11  2  0  0  0
 10 15  1  0  0  0
 11 12  1  0  0  0
 11 97  1  0  0  0
 12 13  2  0  0  0
 12 98  1  0  0  0
 13 14  1  0  0  0
 13 31  1  0  0  0
 14 15  2  0  0  0
 14 99  1  0  0  0
 15100  1  0  0  0
 16 17  2  0  0  0
 16 21  1  0  0  0
 16 31  1  0  0  0
 17 18  1  0  0  0
 17101  1  0  0  0
 18 19  2  0  0  0
 18102  1  0  0  0
 19 20  1  0  0  0
 19 24  1  0  0  0
 20 21  2  0  0  0
 20103  1  0  0  0
 21 23  1  0  0  0
 22 28  1  0  0  0
 22 32  2  0  0  0
 26 27  1  0  0  0
 28104  1  0  0  0
 28105  1  0  0  0
 29106  1  0  0  0
 29107  1  0  0  0
 33 34  1  0  0  0
 33 66  1  0  0  0
 33 70  2  0  0  0
 34 36  1  0  0  0
 34 59  1  0  0  0
 34108  1  0  0  0
 35 44  2  0  0  0
 35 45  1  0  0  0
 35 68  1  0  0  0
 36 56  1  0  0  0
 36109  1  0  0  0
 37 39  1  0  0  0
 37 47  1  0  0  0
 37 66  1  0  0  0
 37110  1  0  0  0
 38 43  2  0  0  0
 38 46  1  0  0  0
 38 47  1  0  0  0
 39 64  1  0  0  0
 39 67  2  0  0  0
 40 52  1  0  0  0
 40 53  2  0  0  0
 40 58  1  0  0  0
 41111  1  0  0  0
 41112  1  0  0  0
 41113  1  0  0  0
 41 48  1  0  0  0
 42 43  1  0  0  0
 42 66  1  0  0  0
 42114  1  0  0  0
 42115  1  0  0  0
 43 44  1  0  0  0
 44116  1  0  0  0
 45 46  2  0  0  0
 45117  1  0  0  0
 46118  1  0  0  0
 47119  1  0  0  0
 47120  1  0  0  0
 48 56  1  0  0  0
 48 65  1  0  0  0
 48121  1  0  0  0
 49 50  1  0  0  0
 49 53  1  0  0  0
 49 64  1  0  0  0
 49122  1  0  0  0
 50 51  1  0  0  0
 50123  1  0  0  0
 50124  1  0  0  0
 51 52  1  0  0  0
 51125  1  0  0  0
 51126  1  0  0  0
 52127  1  0  0  0
 52128  1  0  0  0
 53 54  1  0  0  0
 54 55  2  0  0  0
 54129  1  0  0  0
 55 57  1  0  0  0
 55130  1  0  0  0
 56 69  2  0  0  0
 57 58  2  0  0  0
 57131  1  0  0  0
 58132  1  0  0  0
 59 60  1  0  0  0
 59 61  1  0  0  0
 59 62  1  0  0  0
 60133  1  0  0  0
 60134  1  0  0  0
 60135  1  0  0  0
 61136  1  0  0  0
 61137  1  0  0  0
 61138  1  0  0  0
 62139  1  0  0  0
 62140  1  0  0  0
 62141  1  0  0  0
 63 65  1  0  0  0
 63142  1  0  0  0
 63143  1  0  0  0
 63144  1  0  0  0
 64145  1  0  0  0
 65146  1  0  0  0
 68 82  1  0  0  0
 71 72  1  0  0  0
 71 73  2  0  0  0
 71147  1  0  0  0
 72 74  2  0  0  0
 72148  1  0  0  0
 73 87  1  0  0  0
 73 81  1  0  0  0
 74 84  1  0  0  0
 74 87  1  0  0  0
 75 76  2  0  0  0
 75 77  1  0  0  0
 75149  1  0  0  0
 76 82  1  0  0  0
 76 86  1  0  0  0
 77 84  1  0  0  0
 77 85  2  0  0  0
 78 79  1  0  0  0
 78 81  1  0  0  0
 78150  1  0  0  0
 78151  1  0  0  0
 79 83  1  0  0  0
 79152  1  0  0  0
 79153  1  0  0  0
 80 81  1  0  0  0
 80 83  1  0  0  0
 80154  1  0  0  0
 80155  1  0  0  0
 81156  1  0  0  0
 82157  1  0  0  0
 82158  1  0  0  0
 84159  1  0  0  0
 86160  1  0  0  0
M  ISO  4   1 100  68 101  82 101  83 100
M  END
> <chiral flag>
0

> <version>
0

> <s_m_source_file>
/data/baiqing/PycharmProjects/Reinvent-master-3.2/result/LINK_invent/BTK/process_docking_weight1_custom_product_contain_oxygen_bond_distance_aromatic_linkinvent_7_9_3/rearranged_h_0148.sdf

> <i_m_source_file_index>
33

> <r_mmod_Potential_Energy-OPLS-2005>
92.7066802978516

> <r_mmod_Stretch_Energy-OPLS-2005>
33.5922737121582

> <r_mmod_Bend_Energy-OPLS-2005>
129.477203369141

> <r_mmod_Torsional_Energy-OPLS-2005>
320.163330078125

> <r_mmod_Improper_Torsional_Energy-OPLS-2005>
4.76825141906738

> <r_mmod_Van_der_Waal_Energy-OPLS-2005>
139.704406738281

> <r_mmod_Electrostatic_Energy-OPLS-2005>
-307.718719482422

> <r_mmod_Solvation_Energy-OPLS-2005>
-234.531723022461

> <b_mmod_Minimization_Converged-OPLS-2005>
0

> <r_mmod_RMS_Derivative-OPLS-2005>
2.65829014778137

$$$$
33
                    3D
 Structure written by MMmdl.
158166  0  0  1  0            999 V2000
  -29.5985  -15.8492   20.3290 C   0  0  0  0  0  0
  -30.2955  -13.2988   19.5674 C   0  0  0  0  0  0
  -29.5162  -12.7060   18.3526 C   0  0  0  0  0  0
  -28.1036  -12.2617   18.7717 C   0  0  0  0  0  0
  -27.5077  -13.2608   19.7868 C   0  0  2  0  0  0
  -28.4371  -13.5878   20.9484 C   0  0  0  0  0  0
  -25.1972  -13.8135   20.5709 C   0  0  0  0  0  0
  -24.1404  -13.0337   20.9287 C   0  0  0  0  0  0
  -24.6076  -11.6830   20.8777 C   0  0  0  0  0  0
  -23.8878  -10.4216   21.0449 C   0  0  0  0  0  0
  -24.3520   -9.4163   21.9200 C   0  0  0  0  0  0
  -23.6243   -8.2179   22.0754 C   0  0  0  0  0  0
  -22.4224   -8.0210   21.3544 C   0  0  0  0  0  0
  -21.9816   -9.0157   20.4643 C   0  0  0  0  0  0
  -22.7091  -10.2052   20.3065 C   0  0  0  0  0  0
  -21.6830   -6.0696   22.5285 C   0  0  0  0  0  0
  -21.3998   -6.5617   23.8212 C   0  0  0  0  0  0
  -21.3656   -5.6778   24.9180 C   0  0  0  0  0  0
  -21.6047   -4.3041   24.7236 C   0  0  0  0  0  0
  -21.8824   -3.8123   23.4360 C   0  0  0  0  0  0
  -21.9188   -4.6931   22.3411 C   0  0  0  0  0  0
  -22.7493  -13.5141   21.1989 C   0  0  0  0  0  0
  -22.1660   -4.2120   21.0988 F   0  0  0  0  0  0
  -21.5633   -3.4530   25.7752 F   0  0  0  0  0  0
  -29.4537  -14.3829   20.2898 N   0  0  0  0  0  0
  -26.2125  -12.9264   20.2872 N   0  0  0  0  0  0
  -25.8914  -11.6419   20.5544 N   0  0  0  0  0  0
  -22.0195  -12.8127   22.0567 N   0  0  0  0  0  0
  -25.3770  -15.1891   20.4325 N   0  0  0  0  0  0
  -30.8533  -15.9746   20.2078 O   0  0  0  0  0  0
  -21.6606   -6.8808   21.4236 O   0  0  0  0  0  0
  -22.3218  -14.5465   20.6838 O   0  0  0  0  0  0
  -24.7720  -31.7756   22.7241 C   0  0  0  0  0  0
  -25.9914  -32.4052   23.5826 C   0  0  1  0  0  0
  -26.3214  -28.2266   21.6617 C   0  0  0  0  0  0
  -25.6046  -33.7747   24.0349 N   0  0  0  0  0  0
  -24.0812  -29.3849   20.8564 C   0  0  2  0  0  0
  -25.4806  -28.9844   19.3845 C   0  0  0  0  0  0
  -23.6622  -27.5123   22.2548 C   0  0  0  0  0  0
  -18.1788  -28.1026   22.8053 C   0  0  0  0  0  0
  -24.1463  -36.6955   23.2730 C   0  0  0  0  0  0
  -25.9993  -31.1216   20.7019 C   0  0  0  0  0  0
  -26.4193  -29.7704   20.1512 C   0  0  0  0  0  0
  -27.2326  -29.0571   21.0251 C   0  0  0  0  0  0
  -26.0555  -27.1736   20.6626 C   0  0  0  0  0  0
  -25.5328  -27.5908   19.4343 C   0  0  0  0  0  0
  -24.1121  -29.4208   19.3802 C   0  0  0  0  0  0
  -25.4222  -36.2570   24.0114 C   0  0  1  0  0  0
  -20.7731  -27.5909   23.2753 C   0  0  2  0  0  0
  -20.3591  -26.2751   22.6730 C   0  0  0  0  0  0
  -19.3826  -26.3500   21.5159 C   0  0  0  0  0  0
  -18.0647  -26.7797   22.0891 C   0  0  0  0  0  0
  -19.4613  -28.6348   23.2390 C   0  0  0  0  0  0
  -19.3123  -29.9230   23.8595 C   0  0  0  0  0  0
  -18.0444  -30.5750   24.0349 C   0  0  0  0  0  0
  -25.9346  -34.9189   23.4256 C   0  0  0  0  0  0
  -16.8387  -29.9720   23.6353 C   0  0  0  0  0  0
  -16.9215  -28.7261   23.0152 C   0  0  0  0  0  0
  -26.4480  -31.6515   24.9339 C   0  0  0  0  0  0
  -25.3245  -31.4057   25.9749 C   0  0  0  0  0  0
  -27.0966  -30.2891   24.6404 C   0  0  0  0  0  0
  -27.5560  -32.4707   25.6620 C   0  0  0  0  0  0
  -27.5536  -37.1603   24.8453 C   0  0  0  0  0  0
  -22.3662  -27.3937   23.0658 N   0  0  0  0  0  0
  -26.4180  -37.3528   23.9480 N   0  0  0  0  0  0
  -24.7736  -30.9527   21.4596 N   0  0  0  0  0  0
  -24.2654  -27.1518   23.2431 O   0  0  0  0  0  0
  -25.3339  -29.0598   22.6457 O   0  0  0  0  0  0
  -26.6270  -34.9273   22.4087 O   0  0  0  0  0  0
  -23.7353  -32.1474   23.3244 O   0  0  0  0  0  0
  -26.1727  -19.0441   19.8176 C   0  0  0  0  0  0
  -25.3050  -20.3527   19.7995 C   0  0  0  0  0  0
  -27.7219  -20.0976   20.8467 C   0  0  0  0  0  0
  -27.5505  -18.6521   20.3347 C   0  0  0  0  0  0
  -25.4519  -21.7835   20.3166 C   0  0  0  0  0  0
  -26.8454  -21.4292   20.8584 C   0  0  0  0  0  0
  -23.0324  -22.5577   20.0672 C   0  0  0  0  0  0
  -22.3700  -26.5584   20.1848 C   0  0  0  0  0  0
  -21.8824  -28.4593   20.9770 C   0  0  0  0  0  0
  -23.6868  -25.0566   20.4917 C   0  0  0  0  0  0
  -23.0699  -29.6649   22.8018 C   0  0  0  0  0  0
  -28.4604  -17.0433   20.3219 N   0  0  0  0  0  0
  -24.1974  -23.2271   20.2453 N   0  0  0  0  0  0
  -21.8853  -23.0719   19.5776 N   0  3  0  0  0  0
  -21.6356  -26.2788   19.2347 O   0  0  0  0  0  0
  -27.4566  -22.4676   21.4798 F   0  0  0  0  0  0
  -31.2310  -13.7285   19.2075 H   0  0  0  0  0  0
  -30.6004  -12.5071   20.2541 H   0  0  0  0  0  0
  -30.0651  -11.8780   17.9028 H   0  0  0  0  0  0
  -29.4317  -13.4738   17.5822 H   0  0  0  0  0  0
  -28.1777  -11.2770   19.2352 H   0  0  0  0  0  0
  -27.4560  -12.1486   17.9019 H   0  0  0  0  0  0
  -27.3512  -14.1668   19.1968 H   0  0  0  0  0  0
  -28.8043  -12.6997   21.4652 H   0  0  0  0  0  0
  -27.9363  -14.2055   21.6968 H   0  0  0  0  0  0
  -25.2664   -9.5680   22.4765 H   0  0  0  0  0  0
  -23.9976   -7.4567   22.7461 H   0  0  0  0  0  0
  -21.0751   -8.8638   19.8947 H   0  0  0  0  0  0
  -22.3528  -10.9592   19.6183 H   0  0  0  0  0  0
  -21.1984   -7.6124   23.9704 H   0  0  0  0  0  0
  -21.1477   -6.0512   25.9081 H   0  0  0  0  0  0
  -22.0611   -2.7584   23.2866 H   0  0  0  0  0  0
  -22.3849  -11.9786   22.4916 H   0  0  0  0  0  0
  -21.0827  -13.1143   22.2843 H   0  0  0  0  0  0
  -24.6257  -15.8477   20.6041 H   0  0  0  0  0  0
  -26.2479  -15.6375   20.1730 H   0  0  0  0  0  0
  -26.8849  -32.5064   22.9752 H   0  0  0  0  0  0
  -24.9683  -33.8192   24.8168 H   0  0  0  0  0  0
  -23.2797  -30.1108   20.6568 H   0  0  0  0  0  0
  -23.3850  -35.9148   23.3126 H   0  0  0  0  0  0
  -24.3423  -36.9070   22.2207 H   0  0  0  0  0  0
  -23.7126  -37.5902   23.7202 H   0  0  0  0  0  0
  -25.7783  -31.7821   19.8624 H   0  0  0  0  0  0
  -26.8432  -31.5822   21.2012 H   0  0  0  0  0  0
  -27.8014  -29.6946   21.6818 H   0  0  0  0  0  0
  -25.9131  -26.1537   20.9829 H   0  0  0  0  0  0
  -24.9603  -26.9300   18.7986 H   0  0  0  0  0  0
  -24.0317  -30.4017   18.8992 H   0  0  0  0  0  0
  -23.4561  -28.7288   18.8530 H   0  0  0  0  0  0
  -25.1568  -36.0901   25.0575 H   0  0  0  0  0  0
  -20.7776  -27.4332   24.3553 H   0  0  0  0  0  0
  -19.8644  -25.7155   23.4701 H   0  0  0  0  0  0
  -21.1663  -25.5891   22.4184 H   0  0  0  0  0  0
  -19.2688  -25.3586   21.0751 H   0  0  0  0  0  0
  -19.6588  -27.0044   20.6975 H   0  0  0  0  0  0
  -17.3390  -26.8596   21.2782 H   0  0  0  0  0  0
  -17.6734  -26.0265   22.7758 H   0  0  0  0  0  0
  -20.1955  -30.3986   24.2632 H   0  0  0  0  0  0
  -18.0161  -31.5409   24.5206 H   0  0  0  0  0  0
  -15.8876  -30.4613   23.7946 H   0  0  0  0  0  0
  -16.0085  -28.2485   22.6858 H   0  0  0  0  0  0
  -24.5342  -30.7747   25.5677 H   0  0  0  0  0  0
  -24.8619  -32.3374   26.2999 H   0  0  0  0  0  0
  -25.7078  -30.9062   26.8656 H   0  0  0  0  0  0
  -26.3642  -29.4903   24.5997 H   0  0  0  0  0  0
  -27.7719  -29.9817   25.4397 H   0  0  0  0  0  0
  -27.6857  -30.3047   23.7276 H   0  0  0  0  0  0
  -27.1934  -33.4310   26.0299 H   0  0  0  0  0  0
  -28.3974  -32.6768   24.9986 H   0  0  0  0  0  0
  -27.9512  -31.9458   26.5327 H   0  0  0  0  0  0
  -28.2389  -38.0051   24.7656 H   0  0  0  0  0  0
  -28.1181  -36.2581   24.6060 H   0  0  0  0  0  0
  -27.2290  -37.0967   25.8852 H   0  0  0  0  0  0
  -22.6869  -26.8914   23.8826 H   0  0  0  0  0  0
  -25.9863  -38.2449   24.1729 H   0  0  0  0  0  0
  -25.6675  -18.2164   19.3395 H   0  0  0  0  0  0
  -24.3616  -20.1909   19.3015 H   0  0  0  0  0  0
  -28.6716  -20.2436   21.3393 H   0  0  0  0  0  0
  -22.9826  -21.5287   20.4037 H   0  0  0  0  0  0
  -20.8250  -28.5181   21.1777 H   0  0  0  0  0  0
  -21.7780  -29.0690   20.0814 H   0  0  0  0  0  0
  -23.5922  -24.9796   19.4097 H   0  0  0  0  0  0
  -22.9372  -24.6649   21.1783 H   0  0  0  0  0  0
  -22.7239  -29.5722   23.8382 H   0  0  0  0  0  0
  -22.5553  -30.5774   22.5223 H   0  0  0  0  0  0
  -29.3243  -17.5566   20.4398 H   0  0  0  0  0  0
  -21.8289  -23.9733   19.1238 H   0  0  0  0  0  0
  -21.0694  -22.4769   19.5152 H   0  0  0  0  0  0
  1 25  1  0  0  0
  1 30  2  0  0  0
  1 82  1  0  0  0
  2  3  1  0  0  0
  2 25  1  0  0  0
  2 87  1  0  0  0
  2 88  1  0  0  0
  3  4  1  0  0  0
  3 89  1  0  0  0
  3 90  1  0  0  0
  4  5  1  0  0  0
  4 91  1  0  0  0
  4 92  1  0  0  0
  5  6  1  0  0  0
  5 26  1  0  0  0
  5 93  1  0  0  0
  6 25  1  0  0  0
  6 94  1  0  0  0
  6 95  1  0  0  0
  7  8  2  0  0  0
  7 26  1  0  0  0
  7 29  1  0  0  0
  8  9  1  0  0  0
  8 22  1  0  0  0
  9 10  1  0  0  0
  9 27  2  0  0  0
 10 11  2  0  0  0
 10 15  1  0  0  0
 11 12  1  0  0  0
 11 96  1  0  0  0
 12 13  2  0  0  0
 12 97  1  0  0  0
 13 14  1  0  0  0
 13 31  1  0  0  0
 14 15  2  0  0  0
 14 98  1  0  0  0
 15 99  1  0  0  0
 16 17  2  0  0  0
 16 21  1  0  0  0
 16 31  1  0  0  0
 17 18  1  0  0  0
 17100  1  0  0  0
 18 19  2  0  0  0
 18101  1  0  0  0
 19 20  1  0  0  0
 19 24  1  0  0  0
 20 21  2  0  0  0
 20102  1  0  0  0
 21 23  1  0  0  0
 22 28  1  0  0  0
 22 32  2  0  0  0
 26 27  1  0  0  0
 28103  1  0  0  0
 28104  1  0  0  0
 29105  1  0  0  0
 29106  1  0  0  0
 33 34  1  0  0  0
 33 66  1  0  0  0
 33 70  2  0  0  0
 34 36  1  0  0  0
 34 59  1  0  0  0
 34107  1  0  0  0
 35 44  2  0  0  0
 35 45  1  0  0  0
 35 68  1  0  0  0
 36 56  1  0  0  0
 36108  1  0  0  0
 37 39  1  0  0  0
 37 47  1  0  0  0
 37 66  1  0  0  0
 37109  1  0  0  0
 38 43  2  0  0  0
 38 46  1  0  0  0
 38 47  1  0  0  0
 39 64  1  0  0  0
 39 67  2  0  0  0
 40 52  1  0  0  0
 40 53  2  0  0  0
 40 58  1  0  0  0
 41110  1  0  0  0
 41111  1  0  0  0
 41112  1  0  0  0
 41 48  1  0  0  0
 42 43  1  0  0  0
 42 66  1  0  0  0
 42113  1  0  0  0
 42114  1  0  0  0
 43 44  1  0  0  0
 44115  1  0  0  0
 45 46  2  0  0  0
 45116  1  0  0  0
 46117  1  0  0  0
 47118  1  0  0  0
 47119  1  0  0  0
 48 56  1  0  0  0
 48 65  1  0  0  0
 48120  1  0  0  0
 49 50  1  0  0  0
 49 53  1  0  0  0
 49 64  1  0  0  0
 49121  1  0  0  0
 50 51  1  0  0  0
 50122  1  0  0  0
 50123  1  0  0  0
 51 52  1  0  0  0
 51124  1  0  0  0
 51125  1  0  0  0
 52126  1  0  0  0
 52127  1  0  0  0
 53 54  1  0  0  0
 54 55  2  0  0  0
 54128  1  0  0  0
 55 57  1  0  0  0
 55129  1  0  0  0
 56 69  2  0  0  0
 57 58  2  0  0  0
 57130  1  0  0  0
 58131  1  0  0  0
 59 60  1  0  0  0
 59 61  1  0  0  0
 59 62  1  0  0  0
 60132  1  0  0  0
 60133  1  0  0  0
 60134  1  0  0  0
 61135  1  0  0  0
 61136  1  0  0  0
 61137  1  0  0  0
 62138  1  0  0  0
 62139  1  0  0  0
 62140  1  0  0  0
 63 65  1  0  0  0
 63141  1  0  0  0
 63142  1  0  0  0
 63143  1  0  0  0
 64144  1  0  0  0
 65145  1  0  0  0
 68 81  1  0  0  0
 71 72  2  0  0  0
 71 74  1  0  0  0
 71146  1  0  0  0
 72 75  1  0  0  0
 72147  1  0  0  0
 73 74  2  0  0  0
 73 76  1  0  0  0
 73148  1  0  0  0
 74 82  1  0  0  0
 75 76  2  0  0  0
 75 83  1  0  0  0
 76 86  1  0  0  0
 77 83  1  0  0  0
 77 84  2  0  0  0
 77149  1  0  0  0
 78 79  1  0  0  0
 78 80  1  0  0  0
 78 85  2  0  0  0
 79 81  1  0  0  0
 79150  1  0  0  0
 79151  1  0  0  0
 80 83  1  0  0  0
 80152  1  0  0  0
 80153  1  0  0  0
 81154  1  0  0  0
 81155  1  0  0  0
 82156  1  0  0  0
 84157  1  0  0  0
 84158  1  0  0  0
M  CHG  1  84   1
M  ISO  4   1 100  68 101  81 101  82 100
M  END
> <chiral flag>
0

> <version>
0

> <s_m_source_file>
/data/baiqing/PycharmProjects/Reinvent-master-3.2/result/LINK_invent/BTK/process_docking_weight1_custom_product_contain_oxygen_bond_distance_aromatic_linkinvent_7_9_3/rearranged_h_0148.sdf

> <i_m_source_file_index>
34

> <r_mmod_Potential_Energy-OPLS-2005>
16384.544921875

> <r_mmod_Stretch_Energy-OPLS-2005>
6028.77587890625

> <r_mmod_Bend_Energy-OPLS-2005>
2320.8095703125

> <r_mmod_Torsional_Energy-OPLS-2005>
627.19775390625

> <r_mmod_Improper_Torsional_Energy-OPLS-2005>
104.211196899414

> <r_mmod_Van_der_Waal_Energy-OPLS-2005>
2113.46020507812

> <r_mmod_Electrostatic_Energy-OPLS-2005>
-289.771697998047

> <r_mmod_Solvation_Energy-OPLS-2005>
-435.707641601562

> <b_mmod_Minimization_Converged-OPLS-2005>
0

> <r_mmod_RMS_Derivative-OPLS-2005>
2.2108690738678

$$$$
34
                    3D
 Structure written by MMmdl.
159167  0  0  1  0            999 V2000
  -30.7608  -14.4025   20.6466 C   0  0  0  0  0  0
  -30.4095  -12.2940   19.4142 C   0  0  0  0  0  0
  -29.4880  -12.5468   18.2073 C   0  0  0  0  0  0
  -28.0165  -12.3732   18.6200 C   0  0  0  0  0  0
  -27.6642  -13.2052   19.8804 C   0  0  2  0  0  0
  -28.7047  -12.9776   21.0039 C   0  0  0  0  0  0
  -25.2587  -13.8148   20.5671 C   0  0  0  0  0  0
  -24.1845  -13.0412   20.9116 C   0  0  0  0  0  0
  -24.6382  -11.6883   20.8658 C   0  0  0  0  0  0
  -23.9051  -10.4278   21.0350 C   0  0  0  0  0  0
  -24.3608   -9.4215   21.9137 C   0  0  0  0  0  0
  -23.6313   -8.2235   22.0725 C   0  0  0  0  0  0
  -22.4293   -8.0246   21.3528 C   0  0  0  0  0  0
  -21.9917   -9.0201   20.4629 C   0  0  0  0  0  0
  -22.7207  -10.2098   20.3019 C   0  0  0  0  0  0
  -21.6856   -6.0747   22.5277 C   0  0  0  0  0  0
  -21.4015   -6.5648   23.8202 C   0  0  0  0  0  0
  -21.3672   -5.6794   24.9162 C   0  0  0  0  0  0
  -21.6042   -4.3061   24.7204 C   0  0  0  0  0  0
  -21.8828   -3.8145   23.4324 C   0  0  0  0  0  0
  -21.9187   -4.6968   22.3384 C   0  0  0  0  0  0
  -22.7865  -13.5197   21.1817 C   0  0  0  0  0  0
  -22.1658   -4.2152   21.0973 F   0  0  0  0  0  0
  -21.5628   -3.4540   25.7721 F   0  0  0  0  0  0
  -30.0554  -13.2515   20.4726 N   0  0  0  0  0  0
  -26.3033  -12.9324   20.3370 N   0  0  0  0  0  0
  -25.9315  -11.6479   20.5739 N   0  0  0  0  0  0
  -22.0548  -12.8170   22.0405 N   0  0  0  0  0  0
  -25.4314  -15.1898   20.4205 N   0  0  0  0  0  0
  -31.7608  -14.6907   19.9819 O   0  0  0  0  0  0
  -21.6633   -6.8873   21.4243 O   0  0  0  0  0  0
  -22.3520  -14.5474   20.6648 O   0  0  0  0  0  0
  -24.6129  -31.8698   23.2107 C   0  0  0  0  0  0
  -25.9029  -32.4836   23.8400 C   0  0  1  0  0  0
  -27.2365  -27.4536   20.0910 C   0  0  0  0  0  0
  -25.5902  -33.8637   24.2333 N   0  0  0  0  0  0
  -23.3990  -30.4934   21.5521 C   0  0  2  0  0  0
  -24.8428  -28.9605   20.1182 C   0  0  0  0  0  0
  -22.7410  -29.4656   22.5002 C   0  0  0  0  0  0
  -18.0271  -28.1370   22.8489 C   0  0  0  0  0  0
  -24.1495  -36.7317   23.2639 C   0  0  0  0  0  0
  -25.9256  -30.8419   21.3586 C   0  0  0  0  0  0
  -26.0022  -29.4765   20.7083 C   0  0  0  0  0  0
  -27.2010  -28.7314   20.6892 C   0  0  0  0  0  0
  -26.0540  -26.9442   19.5008 C   0  0  0  0  0  0
  -24.8622  -27.6914   19.5141 C   0  0  0  0  0  0
  -23.6053  -29.8266   20.1667 C   0  0  0  0  0  0
  -25.4111  -36.3121   24.0347 C   0  0  1  0  0  0
  -20.5863  -28.3656   23.1324 C   0  0  2  0  0  0
  -20.6764  -26.9396   22.5420 C   0  0  0  0  0  0
  -19.5745  -26.6382   21.5211 C   0  0  0  0  0  0
  -18.1924  -26.7920   22.1620 C   0  0  0  0  0  0
  -19.1523  -28.8827   23.2907 C   0  0  0  0  0  0
  -18.9449  -30.1434   23.8919 C   0  0  0  0  0  0
  -17.6450  -30.6581   24.0560 C   0  0  0  0  0  0
  -25.9032  -34.9488   23.5131 C   0  0  0  0  0  0
  -16.5339  -29.9088   23.6315 C   0  0  0  0  0  0
  -16.7255  -28.6501   23.0337 C   0  0  0  0  0  0
  -26.4468  -31.6600   25.0718 C   0  0  0  0  0  0
  -25.3743  -31.3698   26.1479 C   0  0  0  0  0  0
  -27.0296  -30.3050   24.6059 C   0  0  0  0  0  0
  -27.6069  -32.4308   25.7459 C   0  0  0  0  0  0
  -27.5587  -37.1810   24.8464 C   0  0  0  0  0  0
  -21.4141  -29.3027   22.3744 N   0  0  0  0  0  0
  -26.4295  -37.3799   23.9420 N   0  0  0  0  0  0
  -24.6643  -31.0821   22.0996 N   0  0  0  0  0  0
  -23.4195  -28.8202   23.3035 O   0  0  0  0  0  0
  -28.4259  -26.7584   20.1060 O   0  0  0  0  0  0
  -26.5593  -34.8932   22.4692 O   0  0  0  0  0  0
  -23.5328  -32.1442   23.7515 O   0  0  0  0  0  0
  -30.3701  -17.5544   20.7934 C   0  0  0  0  0  0
  -30.9160  -17.1130   23.0304 C   0  0  0  0  0  0
  -30.5841  -16.5749   21.8187 C   0  0  0  0  0  0
  -30.4763  -18.8533   21.2505 C   0  0  0  0  0  0
  -29.7468  -24.7136   20.0911 C   0  0  0  0  0  0
  -29.9557  -21.2349   20.9473 C   0  0  0  0  0  0
  -29.8209  -23.5394   17.8539 C   0  0  0  0  0  0
  -31.6716  -23.1954   19.4523 C   0  0  0  0  0  0
  -28.3853  -25.3652   19.7889 C   0  0  0  0  0  0
  -29.2912  -22.1910   19.9376 C   0  0  0  0  0  0
  -30.1317  -23.3915   19.3670 C   0  0  0  0  0  0
  -30.3531  -15.1801   21.6611 N   0  0  0  0  0  0
  -30.1654  -19.9687   20.5293 N   0  0  0  0  0  0
  -30.5092  -25.2287   20.9166 O   0  0  0  0  0  0
  -30.2291  -21.6534   22.0742 O   0  0  0  0  0  0
  -31.0031  -18.8477   22.9306 S   0  0  0  0  0  0
  -31.4575  -12.3650   19.1217 H   0  0  0  0  0  0
  -30.2718  -11.2749   19.7793 H   0  0  0  0  0  0
  -29.7422  -11.8760   17.3853 H   0  0  0  0  0  0
  -29.6435  -13.5617   17.8367 H   0  0  0  0  0  0
  -27.8492  -11.3131   18.8137 H   0  0  0  0  0  0
  -27.3567  -12.6386   17.7922 H   0  0  0  0  0  0
  -27.7119  -14.2545   19.5886 H   0  0  0  0  0  0
  -28.6623  -11.9468   21.3567 H   0  0  0  0  0  0
  -28.4508  -13.5915   21.8686 H   0  0  0  0  0  0
  -25.2757   -9.5685   22.4706 H   0  0  0  0  0  0
  -24.0016   -7.4637   22.7462 H   0  0  0  0  0  0
  -21.0824   -8.8671   19.8984 H   0  0  0  0  0  0
  -22.3608  -10.9598   19.6121 H   0  0  0  0  0  0
  -21.2022   -7.6151   23.9708 H   0  0  0  0  0  0
  -21.1500   -6.0529   25.9072 H   0  0  0  0  0  0
  -22.0608   -2.7611   23.2807 H   0  0  0  0  0  0
  -22.4173  -11.9818   22.4767 H   0  0  0  0  0  0
  -21.1156  -13.1197   22.2626 H   0  0  0  0  0  0
  -24.6703  -15.8449   20.5616 H   0  0  0  0  0  0
  -26.3083  -15.6414   20.1921 H   0  0  0  0  0  0
  -26.7103  -32.5550   23.1171 H   0  0  0  0  0  0
  -25.0084  -33.9804   25.0500 H   0  0  0  0  0  0
  -22.6870  -31.3101   21.4152 H   0  0  0  0  0  0
  -23.3759  -35.9644   23.3290 H   0  0  0  0  0  0
  -24.3597  -36.8931   22.2054 H   0  0  0  0  0  0
  -23.7231  -37.6519   23.6643 H   0  0  0  0  0  0
  -26.0343  -31.6064   20.5877 H   0  0  0  0  0  0
  -26.8162  -30.8960   21.9733 H   0  0  0  0  0  0
  -28.0987  -29.1331   21.1402 H   0  0  0  0  0  0
  -26.0288  -25.9782   19.0204 H   0  0  0  0  0  0
  -23.9706  -27.2854   19.0566 H   0  0  0  0  0  0
  -23.7175  -30.6018   19.4077 H   0  0  0  0  0  0
  -22.7285  -29.2488   19.8686 H   0  0  0  0  0  0
  -25.1280  -36.1997   25.0837 H   0  0  0  0  0  0
  -20.9956  -28.3214   24.1443 H   0  0  0  0  0  0
  -20.5667  -26.2264   23.3607 H   0  0  0  0  0  0
  -21.6631  -26.7467   22.1196 H   0  0  0  0  0  0
  -19.6911  -25.6306   21.1208 H   0  0  0  0  0  0
  -19.6677  -27.3210   20.6758 H   0  0  0  0  0  0
  -17.4205  -26.6686   21.4007 H   0  0  0  0  0  0
  -18.0314  -26.0050   22.9003 H   0  0  0  0  0  0
  -19.7929  -30.7239   24.2304 H   0  0  0  0  0  0
  -17.5010  -31.6261   24.5167 H   0  0  0  0  0  0
  -15.5338  -30.2994   23.7632 H   0  0  0  0  0  0
  -15.8654  -28.0827   22.7027 H   0  0  0  0  0  0
  -24.5900  -30.7066   25.7809 H   0  0  0  0  0  0
  -24.8955  -32.2854   26.4962 H   0  0  0  0  0  0
  -25.8102  -30.8836   27.0216 H   0  0  0  0  0  0
  -26.2819  -29.6803   24.1155 H   0  0  0  0  0  0
  -27.4135  -29.7291   25.4489 H   0  0  0  0  0  0
  -27.8623  -30.4388   23.9149 H   0  0  0  0  0  0
  -27.2713  -33.3594   26.2086 H   0  0  0  0  0  0
  -28.3840  -32.6888   25.0250 H   0  0  0  0  0  0
  -28.0783  -31.8400   26.5322 H   0  0  0  0  0  0
  -28.2611  -38.0106   24.7525 H   0  0  0  0  0  0
  -28.1080  -36.2640   24.6268 H   0  0  0  0  0  0
  -27.2317  -37.1437   25.8872 H   0  0  0  0  0  0
  -20.9302  -29.8769   21.6982 H   0  0  0  0  0  0
  -26.0193  -38.2884   24.1412 H   0  0  0  0  0  0
  -30.0702  -17.2831   19.7908 H   0  0  0  0  0  0
  -31.1131  -16.6219   23.9766 H   0  0  0  0  0  0
  -30.1602  -24.4996   17.4614 H   0  0  0  0  0  0
  -28.7552  -23.4555   17.6360 H   0  0  0  0  0  0
  -30.3129  -22.7644   17.2636 H   0  0  0  0  0  0
  -32.1931  -24.0872   19.0997 H   0  0  0  0  0  0
  -32.0151  -22.3657   18.8342 H   0  0  0  0  0  0
  -32.0211  -23.0178   20.4696 H   0  0  0  0  0  0
  -27.6211  -24.8662   20.3864 H   0  0  0  0  0  0
  -28.1279  -25.2452   18.7384 H   0  0  0  0  0  0
  -28.3907  -22.5619   20.4302 H   0  0  0  0  0  0
  -28.9024  -21.5866   19.1192 H   0  0  0  0  0  0
  -29.7145  -14.7489   22.3118 H   0  0  0  0  0  0
  -29.9114  -19.8031   19.5652 H   0  0  0  0  0  0
  1 25  1  0  0  0
  1 30  2  0  0  0
  1 82  1  0  0  0
  2  3  1  0  0  0
  2 25  1  0  0  0
  2 87  1  0  0  0
  2 88  1  0  0  0
  3  4  1  0  0  0
  3 89  1  0  0  0
  3 90  1  0  0  0
  4  5  1  0  0  0
  4 91  1  0  0  0
  4 92  1  0  0  0
  5  6  1  0  0  0
  5 26  1  0  0  0
  5 93  1  0  0  0
  6 25  1  0  0  0
  6 94  1  0  0  0
  6 95  1  0  0  0
  7  8  2  0  0  0
  7 26  1  0  0  0
  7 29  1  0  0  0
  8  9  1  0  0  0
  8 22  1  0  0  0
  9 10  1  0  0  0
  9 27  2  0  0  0
 10 11  2  0  0  0
 10 15  1  0  0  0
 11 12  1  0  0  0
 11 96  1  0  0  0
 12 13  2  0  0  0
 12 97  1  0  0  0
 13 14  1  0  0  0
 13 31  1  0  0  0
 14 15  2  0  0  0
 14 98  1  0  0  0
 15 99  1  0  0  0
 16 17  2  0  0  0
 16 21  1  0  0  0
 16 31  1  0  0  0
 17 18  1  0  0  0
 17100  1  0  0  0
 18 19  2  0  0  0
 18101  1  0  0  0
 19 20  1  0  0  0
 19 24  1  0  0  0
 20 21  2  0  0  0
 20102  1  0  0  0
 21 23  1  0  0  0
 22 28  1  0  0  0
 22 32  2  0  0  0
 26 27  1  0  0  0
 28103  1  0  0  0
 28104  1  0  0  0
 29105  1  0  0  0
 29106  1  0  0  0
 33 34  1  0  0  0
 33 66  1  0  0  0
 33 70  2  0  0  0
 34 36  1  0  0  0
 34 59  1  0  0  0
 34107  1  0  0  0
 35 44  2  0  0  0
 35 45  1  0  0  0
 35 68  1  0  0  0
 36 56  1  0  0  0
 36108  1  0  0  0
 37 39  1  0  0  0
 37 47  1  0  0  0
 37 66  1  0  0  0
 37109  1  0  0  0
 38 43  2  0  0  0
 38 46  1  0  0  0
 38 47  1  0  0  0
 39 64  1  0  0  0
 39 67  2  0  0  0
 40 52  1  0  0  0
 40 53  2  0  0  0
 40 58  1  0  0  0
 41110  1  0  0  0
 41111  1  0  0  0
 41112  1  0  0  0
 41 48  1  0  0  0
 42 43  1  0  0  0
 42 66  1  0  0  0
 42113  1  0  0  0
 42114  1  0  0  0
 43 44  1  0  0  0
 44115  1  0  0  0
 45 46  2  0  0  0
 45116  1  0  0  0
 46117  1  0  0  0
 47118  1  0  0  0
 47119  1  0  0  0
 48 56  1  0  0  0
 48 65  1  0  0  0
 48120  1  0  0  0
 49 50  1  0  0  0
 49 53  1  0  0  0
 49 64  1  0  0  0
 49121  1  0  0  0
 50 51  1  0  0  0
 50122  1  0  0  0
 50123  1  0  0  0
 51 52  1  0  0  0
 51124  1  0  0  0
 51125  1  0  0  0
 52126  1  0  0  0
 52127  1  0  0  0
 53 54  1  0  0  0
 54 55  2  0  0  0
 54128  1  0  0  0
 55 57  1  0  0  0
 55129  1  0  0  0
 56 69  2  0  0  0
 57 58  2  0  0  0
 57130  1  0  0  0
 58131  1  0  0  0
 59 60  1  0  0  0
 59 61  1  0  0  0
 59 62  1  0  0  0
 60132  1  0  0  0
 60133  1  0  0  0
 60134  1  0  0  0
 61135  1  0  0  0
 61136  1  0  0  0
 61137  1  0  0  0
 62138  1  0  0  0
 62139  1  0  0  0
 62140  1  0  0  0
 63 65  1  0  0  0
 63141  1  0  0  0
 63142  1  0  0  0
 63143  1  0  0  0
 64144  1  0  0  0
 65145  1  0  0  0
 68 79  1  0  0  0
 71 73  1  0  0  0
 71 74  2  0  0  0
 71146  1  0  0  0
 72 73  2  0  0  0
 72 86  1  0  0  0
 72147  1  0  0  0
 73 82  1  0  0  0
 74 83  1  0  0  0
 74 86  1  0  0  0
 75 79  1  0  0  0
 75 81  1  0  0  0
 75 84  2  0  0  0
 76 80  1  0  0  0
 76 83  1  0  0  0
 76 85  2  0  0  0
 77148  1  0  0  0
 77149  1  0  0  0
 77150  1  0  0  0
 77 81  1  0  0  0
 78 81  1  0  0  0
 78151  1  0  0  0
 78152  1  0  0  0
 78153  1  0  0  0
 79154  1  0  0  0
 79155  1  0  0  0
 80 81  1  0  0  0
 80156  1  0  0  0
 80157  1  0  0  0
 82158  1  0  0  0
 83159  1  0  0  0
M  ISO  4   1 100  68 101  79 101  82 100
M  END
> <chiral flag>
0

> <version>
0

> <s_m_source_file>
/data/baiqing/PycharmProjects/Reinvent-master-3.2/result/LINK_invent/BTK/process_docking_weight1_custom_product_contain_oxygen_bond_distance_aromatic_linkinvent_7_9_3/rearranged_h_0148.sdf

> <i_m_source_file_index>
35

> <r_mmod_Potential_Energy-OPLS-2005>
-57.5882186889648

> <r_mmod_Stretch_Energy-OPLS-2005>
38.3951721191406

> <r_mmod_Bend_Energy-OPLS-2005>
115.210540771484

> <r_mmod_Torsional_Energy-OPLS-2005>
233.599868774414

> <r_mmod_Improper_Torsional_Energy-OPLS-2005>
3.41555738449097

> <r_mmod_Van_der_Waal_Energy-OPLS-2005>
149.191268920898

> <r_mmod_Electrostatic_Energy-OPLS-2005>
-336.800109863281

> <r_mmod_Solvation_Energy-OPLS-2005>
-269.674591064453

> <b_mmod_Minimization_Converged-OPLS-2005>
0

> <r_mmod_RMS_Derivative-OPLS-2005>
3.65676665306091

$$$$
35
                    3D
 Structure written by MMmdl.
157166  0  0  1  0            999 V2000
  -30.6731  -14.6830   20.4991 C   0  0  0  0  0  0
  -30.4244  -12.4249   19.4724 C   0  0  0  0  0  0
  -29.5167  -12.5130   18.2316 C   0  0  0  0  0  0
  -28.0398  -12.3478   18.6359 C   0  0  0  0  0  0
  -27.6437  -13.2376   19.8466 C   0  0  2  0  0  0
  -28.6846  -13.1680   20.9846 C   0  0  0  0  0  0
  -25.2459  -13.8219   20.5611 C   0  0  0  0  0  0
  -24.1772  -13.0457   20.9175 C   0  0  0  0  0  0
  -24.6364  -11.6934   20.8718 C   0  0  0  0  0  0
  -23.9029  -10.4315   21.0394 C   0  0  0  0  0  0
  -24.3592   -9.4239   21.9175 C   0  0  0  0  0  0
  -23.6269   -8.2272   22.0755 C   0  0  0  0  0  0
  -22.4241   -8.0297   21.3564 C   0  0  0  0  0  0
  -21.9882   -9.0266   20.4671 C   0  0  0  0  0  0
  -22.7198  -10.2142   20.3055 C   0  0  0  0  0  0
  -21.6858   -6.0710   22.5262 C   0  0  0  0  0  0
  -21.4030   -6.5620   23.8195 C   0  0  0  0  0  0
  -21.3676   -5.6773   24.9152 C   0  0  0  0  0  0
  -21.6038   -4.3036   24.7219 C   0  0  0  0  0  0
  -21.8819   -3.8122   23.4342 C   0  0  0  0  0  0
  -21.9215   -4.6934   22.3384 C   0  0  0  0  0  0
  -22.7787  -13.5252   21.1810 C   0  0  0  0  0  0
  -22.1658   -4.2131   21.0965 F   0  0  0  0  0  0
  -21.5645   -3.4519   25.7723 F   0  0  0  0  0  0
  -29.9947  -13.4904   20.4055 N   0  0  0  0  0  0
  -26.2912  -12.9450   20.3206 N   0  0  0  0  0  0
  -25.9301  -11.6570   20.5683 N   0  0  0  0  0  0
  -22.0412  -12.8310   22.0414 N   0  0  0  0  0  0
  -25.4073  -15.1930   20.3895 N   0  0  0  0  0  0
  -31.8532  -14.7244   20.1452 O   0  0  0  0  0  0
  -21.6647   -6.8858   21.4217 O   0  0  0  0  0  0
  -22.3479  -14.5548   20.6629 O   0  0  0  0  0  0
  -24.6265  -31.8614   23.2009 C   0  0  0  0  0  0
  -25.9107  -32.4781   23.8341 C   0  0  1  0  0  0
  -27.2115  -27.3264   20.1127 C   0  0  0  0  0  0
  -25.5915  -33.8576   24.2273 N   0  0  0  0  0  0
  -23.4198  -30.4857   21.5419 C   0  0  2  0  0  0
  -24.8633  -28.9420   20.1026 C   0  0  0  0  0  0
  -22.7486  -29.4625   22.4915 C   0  0  0  0  0  0
  -18.0293  -28.1404   22.8476 C   0  0  0  0  0  0
  -24.1478  -36.7294   23.2632 C   0  0  0  0  0  0
  -25.9592  -30.7920   21.3717 C   0  0  0  0  0  0
  -26.0297  -29.4205   20.7140 C   0  0  0  0  0  0
  -27.2067  -28.6185   20.7172 C   0  0  0  0  0  0
  -26.0239  -26.8883   19.4906 C   0  0  0  0  0  0
  -24.8601  -27.6808   19.4831 C   0  0  0  0  0  0
  -23.6339  -29.8235   20.1544 C   0  0  0  0  0  0
  -25.4097  -36.3080   24.0327 C   0  0  1  0  0  0
  -20.5885  -28.3701   23.1277 C   0  0  2  0  0  0
  -20.6785  -26.9423   22.5411 C   0  0  0  0  0  0
  -19.5753  -26.6392   21.5218 C   0  0  0  0  0  0
  -18.1926  -26.7944   22.1621 C   0  0  0  0  0  0
  -19.1543  -28.8864   23.2871 C   0  0  0  0  0  0
  -18.9469  -30.1456   23.8897 C   0  0  0  0  0  0
  -17.6473  -30.6603   24.0549 C   0  0  0  0  0  0
  -25.9042  -34.9454   23.5104 C   0  0  0  0  0  0
  -16.5358  -29.9097   23.6323 C   0  0  0  0  0  0
  -16.7280  -28.6513   23.0343 C   0  0  0  0  0  0
  -26.4488  -31.6600   25.0721 C   0  0  0  0  0  0
  -25.3718  -31.3763   26.1457 C   0  0  0  0  0  0
  -27.0320  -30.3021   24.6179 C   0  0  0  0  0  0
  -27.6047  -32.4338   25.7487 C   0  0  0  0  0  0
  -27.5587  -37.1772   24.8436 C   0  0  0  0  0  0
  -21.4200  -29.3051   22.3669 N   0  0  0  0  0  0
  -26.4268  -37.3787   23.9422 N   0  0  0  0  0  0
  -24.6872  -31.0625   22.0957 N   0  0  0  0  0  0
  -23.4212  -28.8171   23.2999 O   0  0  0  0  0  0
  -28.2899  -26.4427   20.2208 O   0  0  0  0  0  0
  -26.5630  -34.8926   22.4682 O   0  0  0  0  0  0
  -23.5421  -32.1401   23.7332 O   0  0  0  0  0  0
  -29.7427  -19.6304   20.1515 C   0  0  0  0  0  0
  -28.3758  -18.5884   21.6883 C   0  0  0  0  0  0
  -29.5052  -18.4188   20.9279 C   0  0  0  0  0  0
  -28.9099  -20.7224   20.3950 C   0  0  0  0  0  0
  -28.7931  -24.2501   19.0973 C   0  0  0  0  0  0
  -28.6720  -25.6298   19.1532 C   0  0  0  0  0  0
  -28.4651  -23.2209   20.1310 C   0  0  0  0  0  0
  -31.9758  -17.5963   20.9759 C   0  0  0  0  0  0
  -31.3619  -17.3329   22.3182 C   0  0  0  0  0  0
  -30.4931  -17.2219   21.0765 C   0  0  0  0  0  0
  -29.0321  -26.5056   17.9579 C   0  0  0  0  0  0
  -28.9894  -21.9849   19.8219 N   0  0  0  0  0  0
  -29.9843  -15.8338   20.8386 N   0  0  0  0  0  0
  -27.7828  -23.4244   21.1364 O   0  0  0  0  0  0
  -29.2688  -23.7560   17.9389 O   0  0  0  0  0  0
  -27.6882  -20.2027   21.5413 S   0  0  0  0  0  0
  -31.4724  -12.5173   19.1797 H   0  0  0  0  0  0
  -30.3375  -11.4458   19.9474 H   0  0  0  0  0  0
  -29.7982  -11.7528   17.5017 H   0  0  0  0  0  0
  -29.6628  -13.4776   17.7436 H   0  0  0  0  0  0
  -27.8848  -11.2972   18.8831 H   0  0  0  0  0  0
  -27.3950  -12.5605   17.7843 H   0  0  0  0  0  0
  -27.6446  -14.2630   19.4734 H   0  0  0  0  0  0
  -28.7020  -12.1763   21.4377 H   0  0  0  0  0  0
  -28.4231  -13.8630   21.7832 H   0  0  0  0  0  0
  -25.2739   -9.5738   22.4745 H   0  0  0  0  0  0
  -23.9993   -7.4678   22.7468 H   0  0  0  0  0  0
  -21.0818   -8.8768   19.8992 H   0  0  0  0  0  0
  -22.3633  -10.9669   19.6163 H   0  0  0  0  0  0
  -21.2013   -7.6128   23.9676 H   0  0  0  0  0  0
  -21.1493   -6.0510   25.9059 H   0  0  0  0  0  0
  -22.0593   -2.7589   23.2828 H   0  0  0  0  0  0
  -22.3987  -12.0015   22.4917 H   0  0  0  0  0  0
  -21.1038  -13.1391   22.2549 H   0  0  0  0  0  0
  -24.6095  -15.8197   20.4396 H   0  0  0  0  0  0
  -26.2107  -15.6226   19.9489 H   0  0  0  0  0  0
  -26.7181  -32.5447   23.1089 H   0  0  0  0  0  0
  -25.0062  -33.9712   25.0418 H   0  0  0  0  0  0
  -22.7114  -31.3056   21.4008 H   0  0  0  0  0  0
  -23.3755  -35.9610   23.3259 H   0  0  0  0  0  0
  -24.3583  -36.8958   22.2055 H   0  0  0  0  0  0
  -23.7210  -37.6474   23.6684 H   0  0  0  0  0  0
  -26.0924  -31.5535   20.6015 H   0  0  0  0  0  0
  -26.8395  -30.8376   22.0013 H   0  0  0  0  0  0
  -28.0992  -28.9683   21.2166 H   0  0  0  0  0  0
  -25.9816  -25.9045   19.0447 H   0  0  0  0  0  0
  -23.9612  -27.3039   19.0148 H   0  0  0  0  0  0
  -23.7576  -30.6025   19.4016 H   0  0  0  0  0  0
  -22.7521  -29.2578   19.8488 H   0  0  0  0  0  0
  -25.1264  -36.1928   25.0820 H   0  0  0  0  0  0
  -20.9976  -28.3289   24.1392 H   0  0  0  0  0  0
  -20.5715  -26.2306   23.3615 H   0  0  0  0  0  0
  -21.6653  -26.7468   22.1183 H   0  0  0  0  0  0
  -19.6911  -25.6294   21.1253 H   0  0  0  0  0  0
  -19.6699  -27.3200   20.6740 H   0  0  0  0  0  0
  -17.4209  -26.6698   21.4008 H   0  0  0  0  0  0
  -18.0303  -26.0094   22.9023 H   0  0  0  0  0  0
  -19.7941  -30.7261   24.2285 H   0  0  0  0  0  0
  -17.5028  -31.6291   24.5145 H   0  0  0  0  0  0
  -15.5348  -30.3005   23.7646 H   0  0  0  0  0  0
  -15.8679  -28.0834   22.7058 H   0  0  0  0  0  0
  -24.5826  -30.7200   25.7782 H   0  0  0  0  0  0
  -24.8994  -32.2953   26.4939 H   0  0  0  0  0  0
  -25.8027  -30.8875   27.0202 H   0  0  0  0  0  0
  -26.2889  -29.6786   24.1200 H   0  0  0  0  0  0
  -27.4012  -29.7278   25.4684 H   0  0  0  0  0  0
  -27.8763  -30.4315   23.9402 H   0  0  0  0  0  0
  -27.2648  -33.3626   26.2085 H   0  0  0  0  0  0
  -28.3835  -32.6931   25.0301 H   0  0  0  0  0  0
  -28.0743  -31.8460   26.5384 H   0  0  0  0  0  0
  -28.2530  -38.0145   24.7601 H   0  0  0  0  0  0
  -28.1158  -36.2684   24.6096 H   0  0  0  0  0  0
  -27.2331  -37.1228   25.8841 H   0  0  0  0  0  0
  -20.9383  -29.8790   21.6897 H   0  0  0  0  0  0
  -26.0149  -38.2848   24.1494 H   0  0  0  0  0  0
  -30.5870  -19.6785   19.4793 H   0  0  0  0  0  0
  -27.9453  -17.8986   22.4069 H   0  0  0  0  0  0
  -32.7211  -16.8862   20.6356 H   0  0  0  0  0  0
  -32.2450  -18.6303   20.7728 H   0  0  0  0  0  0
  -31.1846  -18.1879   22.9731 H   0  0  0  0  0  0
  -31.6624  -16.4206   22.8288 H   0  0  0  0  0  0
  -29.9301  -26.1660   17.4440 H   0  0  0  0  0  0
  -29.2267  -27.5310   18.2710 H   0  0  0  0  0  0
  -28.2086  -26.5257   17.2453 H   0  0  0  0  0  0
  -29.5634  -22.0474   18.9904 H   0  0  0  0  0  0
  -28.9955  -15.7146   20.9953 H   0  0  0  0  0  0
  -29.4270  -24.4993   17.3718 H   0  0  0  0  0  0
  1 25  1  0  0  0
  1 30  2  0  0  0
  1 83  1  0  0  0
  2  3  1  0  0  0
  2 25  1  0  0  0
  2 87  1  0  0  0
  2 88  1  0  0  0
  3  4  1  0  0  0
  3 89  1  0  0  0
  3 90  1  0  0  0
  4  5  1  0  0  0
  4 91  1  0  0  0
  4 92  1  0  0  0
  5  6  1  0  0  0
  5 26  1  0  0  0
  5 93  1  0  0  0
  6 25  1  0  0  0
  6 94  1  0  0  0
  6 95  1  0  0  0
  7  8  2  0  0  0
  7 26  1  0  0  0
  7 29  1  0  0  0
  8  9  1  0  0  0
  8 22  1  0  0  0
  9 10  1  0  0  0
  9 27  2  0  0  0
 10 11  2  0  0  0
 10 15  1  0  0  0
 11 12  1  0  0  0
 11 96  1  0  0  0
 12 13  2  0  0  0
 12 97  1  0  0  0
 13 14  1  0  0  0
 13 31  1  0  0  0
 14 15  2  0  0  0
 14 98  1  0  0  0
 15 99  1  0  0  0
 16 17  2  0  0  0
 16 21  1  0  0  0
 16 31  1  0  0  0
 17 18  1  0  0  0
 17100  1  0  0  0
 18 19  2  0  0  0
 18101  1  0  0  0
 19 20  1  0  0  0
 19 24  1  0  0  0
 20 21  2  0  0  0
 20102  1  0  0  0
 21 23  1  0  0  0
 22 28  1  0  0  0
 22 32  2  0  0  0
 26 27  1  0  0  0
 28103  1  0  0  0
 28104  1  0  0  0
 29105  1  0  0  0
 29106  1  0  0  0
 33 34  1  0  0  0
 33 66  1  0  0  0
 33 70  2  0  0  0
 34 36  1  0  0  0
 34 59  1  0  0  0
 34107  1  0  0  0
 35 44  2  0  0  0
 35 45  1  0  0  0
 35 68  1  0  0  0
 36 56  1  0  0  0
 36108  1  0  0  0
 37 39  1  0  0  0
 37 47  1  0  0  0
 37 66  1  0  0  0
 37109  1  0  0  0
 38 43  2  0  0  0
 38 46  1  0  0  0
 38 47  1  0  0  0
 39 64  1  0  0  0
 39 67  2  0  0  0
 40 52  1  0  0  0
 40 53  2  0  0  0
 40 58  1  0  0  0
 41110  1  0  0  0
 41111  1  0  0  0
 41112  1  0  0  0
 41 48  1  0  0  0
 42 43  1  0  0  0
 42 66  1  0  0  0
 42113  1  0  0  0
 42114  1  0  0  0
 43 44  1  0  0  0
 44115  1  0  0  0
 45 46  2  0  0  0
 45116  1  0  0  0
 46117  1  0  0  0
 47118  1  0  0  0
 47119  1  0  0  0
 48 56  1  0  0  0
 48 65  1  0  0  0
 48120  1  0  0  0
 49 50  1  0  0  0
 49 53  1  0  0  0
 49 64  1  0  0  0
 49121  1  0  0  0
 50 51  1  0  0  0
 50122  1  0  0  0
 50123  1  0  0  0
 51 52  1  0  0  0
 51124  1  0  0  0
 51125  1  0  0  0
 52126  1  0  0  0
 52127  1  0  0  0
 53 54  1  0  0  0
 54 55  2  0  0  0
 54128  1  0  0  0
 55 57  1  0  0  0
 55129  1  0  0  0
 56 69  2  0  0  0
 57 58  2  0  0  0
 57130  1  0  0  0
 58131  1  0  0  0
 59 60  1  0  0  0
 59 61  1  0  0  0
 59 62  1  0  0  0
 60132  1  0  0  0
 60133  1  0  0  0
 60134  1  0  0  0
 61135  1  0  0  0
 61136  1  0  0  0
 61137  1  0  0  0
 62138  1  0  0  0
 62139  1  0  0  0
 62140  1  0  0  0
 63 65  1  0  0  0
 63141  1  0  0  0
 63142  1  0  0  0
 63143  1  0  0  0
 64144  1  0  0  0
 65145  1  0  0  0
 68 76  1  0  0  0
 71 73  1  0  0  0
 71 74  2  0  0  0
 71146  1  0  0  0
 72 73  2  0  0  0
 72 86  1  0  0  0
 72147  1  0  0  0
 73 80  1  0  0  0
 74 82  1  0  0  0
 74 86  1  0  0  0
 75 76  2  0  0  0
 75 77  1  0  0  0
 75 85  1  0  0  0
 76 81  1  0  0  0
 77 82  1  0  0  0
 77 84  2  0  0  0
 78 79  1  0  0  0
 78 80  1  0  0  0
 78148  1  0  0  0
 78149  1  0  0  0
 79 80  1  0  0  0
 79150  1  0  0  0
 79151  1  0  0  0
 80 83  1  0  0  0
 81152  1  0  0  0
 81153  1  0  0  0
 81154  1  0  0  0
 82155  1  0  0  0
 83156  1  0  0  0
 85157  1  0  0  0
M  ISO  4   1 100  68 101  76 101  83 100
M  END
> <chiral flag>
0

> <version>
0

> <s_m_source_file>
/data/baiqing/PycharmProjects/Reinvent-master-3.2/result/LINK_invent/BTK/process_docking_weight1_custom_product_contain_oxygen_bond_distance_aromatic_linkinvent_7_9_3/rearranged_h_0148.sdf

> <i_m_source_file_index>
36

> <r_mmod_Potential_Energy-OPLS-2005>
41.1049385070801

> <r_mmod_Stretch_Energy-OPLS-2005>
79.3821105957031

> <r_mmod_Bend_Energy-OPLS-2005>
170.954574584961

> <r_mmod_Torsional_Energy-OPLS-2005>
282.625762939453

> <r_mmod_Improper_Torsional_Energy-OPLS-2005>
6.18222951889038

> <r_mmod_Van_der_Waal_Energy-OPLS-2005>
135.124893188477

> <r_mmod_Electrostatic_Energy-OPLS-2005>
-462.200714111328

> <r_mmod_Solvation_Energy-OPLS-2005>
-234.375686645508

> <b_mmod_Minimization_Converged-OPLS-2005>
0

> <r_mmod_RMS_Derivative-OPLS-2005>
4.3375997543335

$$$$
36
                    3D
 Structure written by MMmdl.
156165  0  0  1  0            999 V2000
  -30.5806  -14.8051   20.4284 C   0  0  0  0  0  0
  -30.4308  -12.4882   19.4977 C   0  0  0  0  0  0
  -29.5172  -12.5224   18.2506 C   0  0  0  0  0  0
  -28.0410  -12.3420   18.6540 C   0  0  0  0  0  0
  -27.6395  -13.2392   19.8554 C   0  0  2  0  0  0
  -28.6797  -13.1921   20.9961 C   0  0  0  0  0  0
  -25.2499  -13.8218   20.5711 C   0  0  0  0  0  0
  -24.1789  -13.0456   20.9211 C   0  0  0  0  0  0
  -24.6379  -11.6934   20.8745 C   0  0  0  0  0  0
  -23.9063  -10.4308   21.0402 C   0  0  0  0  0  0
  -24.3617   -9.4218   21.9173 C   0  0  0  0  0  0
  -23.6294   -8.2249   22.0743 C   0  0  0  0  0  0
  -22.4270   -8.0282   21.3534 C   0  0  0  0  0  0
  -21.9904   -9.0260   20.4636 C   0  0  0  0  0  0
  -22.7236  -10.2142   20.3048 C   0  0  0  0  0  0
  -21.6863   -6.0736   22.5267 C   0  0  0  0  0  0
  -21.4021   -6.5634   23.8198 C   0  0  0  0  0  0
  -21.3660   -5.6779   24.9160 C   0  0  0  0  0  0
  -21.6054   -4.3048   24.7208 C   0  0  0  0  0  0
  -21.8820   -3.8144   23.4324 C   0  0  0  0  0  0
  -21.9197   -4.6964   22.3388 C   0  0  0  0  0  0
  -22.7814  -13.5244   21.1868 C   0  0  0  0  0  0
  -22.1660   -4.2152   21.0970 F   0  0  0  0  0  0
  -21.5636   -3.4534   25.7721 F   0  0  0  0  0  0
  -29.9774  -13.5614   20.4194 N   0  0  0  0  0  0
  -26.2919  -12.9433   20.3288 N   0  0  0  0  0  0
  -25.9309  -11.6569   20.5728 N   0  0  0  0  0  0
  -22.0455  -12.8232   22.0418 N   0  0  0  0  0  0
  -25.4233  -15.1934   20.4127 N   0  0  0  0  0  0
  -31.7662  -14.8879   20.0923 O   0  0  0  0  0  0
  -21.6633   -6.8881   21.4231 O   0  0  0  0  0  0
  -22.3508  -14.5559   20.6719 O   0  0  0  0  0  0
  -24.6366  -31.8524   23.1936 C   0  0  0  0  0  0
  -25.9172  -32.4735   23.8311 C   0  0  1  0  0  0
  -27.2217  -27.2309   20.1228 C   0  0  0  0  0  0
  -25.5954  -33.8540   24.2249 N   0  0  0  0  0  0
  -23.4353  -30.4730   21.5376 C   0  0  2  0  0  0
  -24.8828  -28.9148   20.1021 C   0  0  0  0  0  0
  -22.7538  -29.4591   22.4883 C   0  0  0  0  0  0
  -18.0309  -28.1397   22.8479 C   0  0  0  0  0  0
  -24.1496  -36.7262   23.2640 C   0  0  0  0  0  0
  -25.9834  -30.7537   21.3791 C   0  0  0  0  0  0
  -26.0549  -29.3755   20.7158 C   0  0  0  0  0  0
  -27.2252  -28.5446   20.7146 C   0  0  0  0  0  0
  -26.0249  -26.8424   19.4825 C   0  0  0  0  0  0
  -24.8758  -27.6594   19.4738 C   0  0  0  0  0  0
  -23.6532  -29.8053   20.1539 C   0  0  0  0  0  0
  -25.4120  -36.3066   24.0334 C   0  0  1  0  0  0
  -20.5914  -28.3727   23.1241 C   0  0  2  0  0  0
  -20.6790  -26.9437   22.5401 C   0  0  0  0  0  0
  -19.5763  -26.6389   21.5209 C   0  0  0  0  0  0
  -18.1944  -26.7936   22.1619 C   0  0  0  0  0  0
  -19.1560  -28.8877   23.2852 C   0  0  0  0  0  0
  -18.9473  -30.1470   23.8884 C   0  0  0  0  0  0
  -17.6474  -30.6594   24.0558 C   0  0  0  0  0  0
  -25.9068  -34.9437   23.5103 C   0  0  0  0  0  0
  -16.5367  -29.9087   23.6329 C   0  0  0  0  0  0
  -16.7300  -28.6503   23.0353 C   0  0  0  0  0  0
  -26.4511  -31.6565   25.0719 C   0  0  0  0  0  0
  -25.3714  -31.3716   26.1424 C   0  0  0  0  0  0
  -27.0348  -30.2970   24.6236 C   0  0  0  0  0  0
  -27.6086  -32.4298   25.7475 C   0  0  0  0  0  0
  -27.5588  -37.1791   24.8470 C   0  0  0  0  0  0
  -21.4236  -29.3065   22.3624 N   0  0  0  0  0  0
  -26.4298  -37.3772   23.9411 N   0  0  0  0  0  0
  -24.7042  -31.0457   22.0924 N   0  0  0  0  0  0
  -23.4219  -28.8143   23.3007 O   0  0  0  0  0  0
  -28.2932  -26.3046   20.2412 O   0  0  0  0  0  0
  -26.5637  -34.8933   22.4673 O   0  0  0  0  0  0
  -23.5506  -32.1370   23.7197 O   0  0  0  0  0  0
  -29.9163  -19.7623   18.4538 C   0  0  0  0  0  0
  -29.3735  -18.6036   20.5169 C   0  0  0  0  0  0
  -30.4130  -17.3678   18.6930 C   0  0  0  0  0  0
  -29.3822  -19.8682   19.7606 C   0  0  0  0  0  0
  -30.4249  -18.5541   17.9326 C   0  0  0  0  0  0
  -29.8857  -17.3183   20.0037 C   0  0  0  0  0  0
  -28.5525  -23.7304   20.0973 C   0  0  0  0  0  0
  -28.3131  -25.0198   19.6026 C   0  0  0  0  0  0
  -28.7305  -23.2711   21.5350 C   0  0  0  0  0  0
  -28.6999  -22.3998   19.2824 C   0  0  0  0  0  0
  -29.0696  -21.7299   21.5309 C   0  0  0  0  0  0
  -28.9005  -21.1988   20.1751 N   0  0  0  0  0  0
  -30.9382  -18.5294   16.6329 N   0  0  0  0  0  0
  -29.8178  -15.9623   20.6596 N   0  0  0  0  0  0
  -31.4735  -12.6130   19.1995 H   0  0  0  0  0  0
  -30.3794  -11.5158   19.9887 H   0  0  0  0  0  0
  -29.8111  -11.7440   17.5443 H   0  0  0  0  0  0
  -29.6394  -13.4732   17.7284 H   0  0  0  0  0  0
  -27.8962  -11.2934   18.9106 H   0  0  0  0  0  0
  -27.3921  -12.5423   17.7999 H   0  0  0  0  0  0
  -27.6316  -14.2589   19.4699 H   0  0  0  0  0  0
  -28.7265  -12.1961   21.4385 H   0  0  0  0  0  0
  -28.4011  -13.8731   21.8025 H   0  0  0  0  0  0
  -25.2761   -9.5717   22.4738 H   0  0  0  0  0  0
  -24.0019   -7.4646   22.7452 H   0  0  0  0  0  0
  -21.0843   -8.8798   19.8927 H   0  0  0  0  0  0
  -22.3701  -10.9693   19.6158 H   0  0  0  0  0  0
  -21.2010   -7.6136   23.9715 H   0  0  0  0  0  0
  -21.1483   -6.0496   25.9067 H   0  0  0  0  0  0
  -22.0601   -2.7610   23.2814 H   0  0  0  0  0  0
  -22.4073  -11.9885   22.4798 H   0  0  0  0  0  0
  -21.1064  -13.1250   22.2627 H   0  0  0  0  0  0
  -24.6653  -15.8567   20.5255 H   0  0  0  0  0  0
  -26.2769  -15.6241   20.0818 H   0  0  0  0  0  0
  -26.7244  -32.5369   23.1053 H   0  0  0  0  0  0
  -25.0105  -33.9668   25.0399 H   0  0  0  0  0  0
  -22.7331  -31.2962   21.3902 H   0  0  0  0  0  0
  -23.3784  -35.9569   23.3289 H   0  0  0  0  0  0
  -24.3596  -36.8893   22.2060 H   0  0  0  0  0  0
  -23.7235  -37.6455   23.6660 H   0  0  0  0  0  0
  -26.1348  -31.5152   20.6123 H   0  0  0  0  0  0
  -26.8554  -30.7942   22.0202 H   0  0  0  0  0  0
  -28.1194  -28.8862   21.2147 H   0  0  0  0  0  0
  -25.9466  -25.8691   19.0189 H   0  0  0  0  0  0
  -23.9783  -27.2985   18.9911 H   0  0  0  0  0  0
  -23.7766  -30.5812   19.3971 H   0  0  0  0  0  0
  -22.7693  -29.2400   19.8526 H   0  0  0  0  0  0
  -25.1303  -36.1909   25.0829 H   0  0  0  0  0  0
  -21.0018  -28.3333   24.1358 H   0  0  0  0  0  0
  -20.5682  -26.2359   23.3623 H   0  0  0  0  0  0
  -21.6657  -26.7460   22.1201 H   0  0  0  0  0  0
  -19.6920  -25.6295   21.1252 H   0  0  0  0  0  0
  -19.6676  -27.3184   20.6718 H   0  0  0  0  0  0
  -17.4213  -26.6702   21.4015 H   0  0  0  0  0  0
  -18.0333  -26.0080   22.9017 H   0  0  0  0  0  0
  -19.7951  -30.7279   24.2261 H   0  0  0  0  0  0
  -17.5031  -31.6271   24.5162 H   0  0  0  0  0  0
  -15.5361  -30.2977   23.7655 H   0  0  0  0  0  0
  -15.8706  -28.0809   22.7070 H   0  0  0  0  0  0
  -24.5900  -30.7062   25.7733 H   0  0  0  0  0  0
  -24.8876  -32.2868   26.4838 H   0  0  0  0  0  0
  -25.8003  -30.8891   27.0213 H   0  0  0  0  0  0
  -26.2929  -29.6707   24.1263 H   0  0  0  0  0  0
  -27.4005  -29.7250   25.4770 H   0  0  0  0  0  0
  -27.8826  -30.4212   23.9500 H   0  0  0  0  0  0
  -27.2735  -33.3628   26.2014 H   0  0  0  0  0  0
  -28.3894  -32.6805   25.0285 H   0  0  0  0  0  0
  -28.0751  -31.8439   26.5400 H   0  0  0  0  0  0
  -28.2607  -38.0089   24.7539 H   0  0  0  0  0  0
  -28.1085  -36.2626   24.6264 H   0  0  0  0  0  0
  -27.2312  -37.1425   25.8877 H   0  0  0  0  0  0
  -20.9440  -29.8772   21.6797 H   0  0  0  0  0  0
  -26.0174  -38.2853   24.1383 H   0  0  0  0  0  0
  -29.9521  -20.6290   17.8139 H   0  0  0  0  0  0
  -28.9443  -18.6175   21.5090 H   0  0  0  0  0  0
  -30.7924  -16.4655   18.2363 H   0  0  0  0  0  0
  -28.2060  -25.1528   18.5331 H   0  0  0  0  0  0
  -27.7916  -23.4506   22.0604 H   0  0  0  0  0  0
  -29.5032  -23.8545   22.0360 H   0  0  0  0  0  0
  -29.5562  -22.5282   18.6203 H   0  0  0  0  0  0
  -27.8187  -22.2613   18.6527 H   0  0  0  0  0  0
  -28.4380  -21.1865   22.2347 H   0  0  0  0  0  0
  -30.1039  -21.5750   21.8422 H   0  0  0  0  0  0
  -30.7076  -19.2855   15.9944 H   0  0  0  0  0  0
  -31.0510  -17.6374   16.1607 H   0  0  0  0  0  0
  -28.9808  -15.8010   21.1992 H   0  0  0  0  0  0
  1 25  1  0  0  0
  1 30  2  0  0  0
  1 84  1  0  0  0
  2  3  1  0  0  0
  2 25  1  0  0  0
  2 85  1  0  0  0
  2 86  1  0  0  0
  3  4  1  0  0  0
  3 87  1  0  0  0
  3 88  1  0  0  0
  4  5  1  0  0  0
  4 89  1  0  0  0
  4 90  1  0  0  0
  5  6  1  0  0  0
  5 26  1  0  0  0
  5 91  1  0  0  0
  6 25  1  0  0  0
  6 92  1  0  0  0
  6 93  1  0  0  0
  7  8  2  0  0  0
  7 26  1  0  0  0
  7 29  1  0  0  0
  8  9  1  0  0  0
  8 22  1  0  0  0
  9 10  1  0  0  0
  9 27  2  0  0  0
 10 11  2  0  0  0
 10 15  1  0  0  0
 11 12  1  0  0  0
 11 94  1  0  0  0
 12 13  2  0  0  0
 12 95  1  0  0  0
 13 14  1  0  0  0
 13 31  1  0  0  0
 14 15  2  0  0  0
 14 96  1  0  0  0
 15 97  1  0  0  0
 16 17  2  0  0  0
 16 21  1  0  0  0
 16 31  1  0  0  0
 17 18  1  0  0  0
 17 98  1  0  0  0
 18 19  2  0  0  0
 18 99  1  0  0  0
 19 20  1  0  0  0
 19 24  1  0  0  0
 20 21  2  0  0  0
 20100  1  0  0  0
 21 23  1  0  0  0
 22 28  1  0  0  0
 22 32  2  0  0  0
 26 27  1  0  0  0
 28101  1  0  0  0
 28102  1  0  0  0
 29103  1  0  0  0
 29104  1  0  0  0
 33 34  1  0  0  0
 33 66  1  0  0  0
 33 70  2  0  0  0
 34 36  1  0  0  0
 34 59  1  0  0  0
 34105  1  0  0  0
 35 44  2  0  0  0
 35 45  1  0  0  0
 35 68  1  0  0  0
 36 56  1  0  0  0
 36106  1  0  0  0
 37 39  1  0  0  0
 37 47  1  0  0  0
 37 66  1  0  0  0
 37107  1  0  0  0
 38 43  2  0  0  0
 38 46  1  0  0  0
 38 47  1  0  0  0
 39 64  1  0  0  0
 39 67  2  0  0  0
 40 52  1  0  0  0
 40 53  2  0  0  0
 40 58  1  0  0  0
 41108  1  0  0  0
 41109  1  0  0  0
 41110  1  0  0  0
 41 48  1  0  0  0
 42 43  1  0  0  0
 42 66  1  0  0  0
 42111  1  0  0  0
 42112  1  0  0  0
 43 44  1  0  0  0
 44113  1  0  0  0
 45 46  2  0  0  0
 45114  1  0  0  0
 46115  1  0  0  0
 47116  1  0  0  0
 47117  1  0  0  0
 48 56  1  0  0  0
 48 65  1  0  0  0
 48118  1  0  0  0
 49 50  1  0  0  0
 49 53  1  0  0  0
 49 64  1  0  0  0
 49119  1  0  0  0
 50 51  1  0  0  0
 50120  1  0  0  0
 50121  1  0  0  0
 51 52  1  0  0  0
 51122  1  0  0  0
 51123  1  0  0  0
 52124  1  0  0  0
 52125  1  0  0  0
 53 54  1  0  0  0
 54 55  2  0  0  0
 54126  1  0  0  0
 55 57  1  0  0  0
 55127  1  0  0  0
 56 69  2  0  0  0
 57 58  2  0  0  0
 57128  1  0  0  0
 58129  1  0  0  0
 59 60  1  0  0  0
 59 61  1  0  0  0
 59 62  1  0  0  0
 60130  1  0  0  0
 60131  1  0  0  0
 60132  1  0  0  0
 61133  1  0  0  0
 61134  1  0  0  0
 61135  1  0  0  0
 62136  1  0  0  0
 62137  1  0  0  0
 62138  1  0  0  0
 63 65  1  0  0  0
 63139  1  0  0  0
 63140  1  0  0  0
 63141  1  0  0  0
 64142  1  0  0  0
 65143  1  0  0  0
 68 78  1  0  0  0
 71 74  2  0  0  0
 71 75  1  0  0  0
 71144  1  0  0  0
 72 74  1  0  0  0
 72 76  2  0  0  0
 72145  1  0  0  0
 73 75  2  0  0  0
 73 76  1  0  0  0
 73146  1  0  0  0
 74 82  1  0  0  0
 75 83  1  0  0  0
 76 84  1  0  0  0
 77 78  2  0  0  0
 77 79  1  0  0  0
 77 80  1  0  0  0
 78147  1  0  0  0
 79 81  1  0  0  0
 79148  1  0  0  0
 79149  1  0  0  0
 80 82  1  0  0  0
 80150  1  0  0  0
 80151  1  0  0  0
 81 82  1  0  0  0
 81152  1  0  0  0
 81153  1  0  0  0
 83154  1  0  0  0
 83155  1  0  0  0
 84156  1  0  0  0
M  ISO  4   1 100  68 101  78 101  84 100
M  END
> <chiral flag>
0

> <version>
0

> <s_m_source_file>
/data/baiqing/PycharmProjects/Reinvent-master-3.2/result/LINK_invent/BTK/process_docking_weight1_custom_product_contain_oxygen_bond_distance_aromatic_linkinvent_7_9_3/rearranged_h_0148.sdf

> <i_m_source_file_index>
37

> <r_mmod_Potential_Energy-OPLS-2005>
350.111114501953

> <r_mmod_Stretch_Energy-OPLS-2005>
142.939971923828

> <r_mmod_Bend_Energy-OPLS-2005>
211.743209838867

> <r_mmod_Torsional_Energy-OPLS-2005>
262.2734375

> <r_mmod_Improper_Torsional_Energy-OPLS-2005>
9.041015625

> <r_mmod_Van_der_Waal_Energy-OPLS-2005>
135.414688110352

> <r_mmod_Electrostatic_Energy-OPLS-2005>
-281.833984375

> <r_mmod_Solvation_Energy-OPLS-2005>
-242.391967773438

> <b_mmod_Minimization_Converged-OPLS-2005>
0

> <r_mmod_RMS_Derivative-OPLS-2005>
2.31480765342712

$$$$
37
                    3D
 Structure written by MMmdl.
164173  0  0  1  0            999 V2000
  -30.7560  -14.4182   20.6399 C   0  0  0  0  0  0
  -30.4144  -12.3053   19.4024 C   0  0  0  0  0  0
  -29.4846  -12.5180   18.1923 C   0  0  0  0  0  0
  -28.0070  -12.3825   18.6057 C   0  0  0  0  0  0
  -27.6617  -13.2111   19.8713 C   0  0  2  0  0  0
  -28.7007  -12.9804   20.9874 C   0  0  0  0  0  0
  -25.2601  -13.8167   20.5681 C   0  0  0  0  0  0
  -24.1842  -13.0443   20.9159 C   0  0  0  0  0  0
  -24.6393  -11.6912   20.8709 C   0  0  0  0  0  0
  -23.9058  -10.4298   21.0401 C   0  0  0  0  0  0
  -24.3616   -9.4211   21.9178 C   0  0  0  0  0  0
  -23.6293   -8.2244   22.0757 C   0  0  0  0  0  0
  -22.4273   -8.0280   21.3557 C   0  0  0  0  0  0
  -21.9911   -9.0235   20.4648 C   0  0  0  0  0  0
  -22.7229  -10.2124   20.3044 C   0  0  0  0  0  0
  -21.6852   -6.0730   22.5278 C   0  0  0  0  0  0
  -21.4011   -6.5635   23.8206 C   0  0  0  0  0  0
  -21.3662   -5.6795   24.9170 C   0  0  0  0  0  0
  -21.6043   -4.3059   24.7225 C   0  0  0  0  0  0
  -21.8819   -3.8151   23.4346 C   0  0  0  0  0  0
  -21.9192   -4.6962   22.3399 C   0  0  0  0  0  0
  -22.7867  -13.5243   21.1839 C   0  0  0  0  0  0
  -22.1663   -4.2144   21.0977 F   0  0  0  0  0  0
  -21.5632   -3.4548   25.7741 F   0  0  0  0  0  0
  -30.0381  -13.2771   20.4428 N   0  0  0  0  0  0
  -26.3040  -12.9347   20.3342 N   0  0  0  0  0  0
  -25.9324  -11.6497   20.5739 N   0  0  0  0  0  0
  -22.0514  -12.8216   22.0384 N   0  0  0  0  0  0
  -25.4346  -15.1885   20.4129 N   0  0  0  0  0  0
  -31.8410  -14.6258   20.0855 O   0  0  0  0  0  0
  -21.6646   -6.8873   21.4243 O   0  0  0  0  0  0
  -22.3543  -14.5562   20.6713 O   0  0  0  0  0  0
  -24.6129  -31.8697   23.2085 C   0  0  0  0  0  0
  -25.9030  -32.4831   23.8393 C   0  0  1  0  0  0
  -27.2452  -27.4456   20.0792 C   0  0  0  0  0  0
  -25.5914  -33.8631   24.2317 N   0  0  0  0  0  0
  -23.3990  -30.4911   21.5486 C   0  0  2  0  0  0
  -24.8464  -28.9531   20.1165 C   0  0  0  0  0  0
  -22.7381  -29.4675   22.4991 C   0  0  0  0  0  0
  -18.0263  -28.1346   22.8498 C   0  0  0  0  0  0
  -24.1495  -36.7318   23.2636 C   0  0  0  0  0  0
  -25.9253  -30.8328   21.3619 C   0  0  0  0  0  0
  -26.0031  -29.4651   20.7158 C   0  0  0  0  0  0
  -27.1997  -28.7153   20.7002 C   0  0  0  0  0  0
  -26.0615  -26.9362   19.4953 C   0  0  0  0  0  0
  -24.8698  -27.6853   19.5111 C   0  0  0  0  0  0
  -23.6062  -29.8181   20.1644 C   0  0  0  0  0  0
  -25.4123  -36.3122   24.0320 C   0  0  1  0  0  0
  -20.5848  -28.3663   23.1307 C   0  0  2  0  0  0
  -20.6768  -26.9401   22.5408 C   0  0  0  0  0  0
  -19.5742  -26.6370   21.5210 C   0  0  0  0  0  0
  -18.1910  -26.7897   22.1606 C   0  0  0  0  0  0
  -19.1507  -28.8819   23.2901 C   0  0  0  0  0  0
  -18.9457  -30.1422   23.8922 C   0  0  0  0  0  0
  -17.6465  -30.6582   24.0563 C   0  0  0  0  0  0
  -25.9051  -34.9482   23.5118 C   0  0  0  0  0  0
  -16.5358  -29.9071   23.6327 C   0  0  0  0  0  0
  -16.7256  -28.6470   23.0374 C   0  0  0  0  0  0
  -26.4456  -31.6599   25.0712 C   0  0  0  0  0  0
  -25.3718  -31.3688   26.1455 C   0  0  0  0  0  0
  -27.0305  -30.3057   24.6070 C   0  0  0  0  0  0
  -27.6043  -32.4324   25.7470 C   0  0  0  0  0  0
  -27.5586  -37.1810   24.8459 C   0  0  0  0  0  0
  -21.4111  -29.3058   22.3735 N   0  0  0  0  0  0
  -26.4300  -37.3812   23.9405 N   0  0  0  0  0  0
  -24.6633  -31.0797   22.0982 N   0  0  0  0  0  0
  -23.4154  -28.8232   23.3042 O   0  0  0  0  0  0
  -28.4513  -26.7707   20.0705 O   0  0  0  0  0  0
  -26.5616  -34.8938   22.4680 O   0  0  0  0  0  0
  -23.5326  -32.1456   23.7467 O   0  0  0  0  0  0
  -29.7874  -16.9643   19.5270 C   0  0  0  0  0  0
  -29.4194  -18.2411   19.0560 C   0  0  0  0  0  0
  -29.0141  -18.9664   21.3289 C   0  0  0  0  0  0
  -29.3841  -17.6913   21.8106 C   0  0  0  0  0  0
  -29.7914  -16.6633   20.9155 C   0  0  0  0  0  0
  -29.0295  -19.2583   19.9485 C   0  0  0  0  0  0
  -28.3998  -22.9784   19.4150 C   0  0  0  0  0  0
  -29.3417  -17.4601   23.3111 C   0  0  0  0  0  0
  -29.3324  -15.9762   23.6750 C   0  0  0  0  0  0
  -30.3859  -15.2047   22.8737 C   0  0  0  0  0  0
  -26.8394  -21.5091   20.7598 C   0  0  0  0  0  0
  -28.2097  -24.3126   20.1565 C   0  0  0  0  0  0
  -28.5996  -25.5555   19.3258 C   0  0  0  0  0  0
  -28.2805  -21.6696   20.2369 C   0  0  1  0  0  0
  -30.1930  -15.3694   21.4247 N   0  0  0  0  0  0
  -28.6747  -20.5139   19.4235 N   0  0  0  0  0  0
  -28.6297  -22.9639   18.1998 O   0  0  0  0  0  0
  -31.4576  -12.3986   19.0955 H   0  0  0  0  0  0
  -30.3118  -11.2895   19.7871 H   0  0  0  0  0  0
  -29.7175  -11.7970   17.4075 H   0  0  0  0  0  0
  -29.6586  -13.5053   17.7592 H   0  0  0  0  0  0
  -27.8095  -11.3256   18.7896 H   0  0  0  0  0  0
  -27.3575  -12.6748   17.7792 H   0  0  0  0  0  0
  -27.7102  -14.2632   19.5892 H   0  0  0  0  0  0
  -28.6696  -11.9459   21.3285 H   0  0  0  0  0  0
  -28.4426  -13.5807   21.8585 H   0  0  0  0  0  0
  -25.2761   -9.5684   22.4759 H   0  0  0  0  0  0
  -23.9997   -7.4643   22.7488 H   0  0  0  0  0  0
  -21.0839   -8.8749   19.8957 H   0  0  0  0  0  0
  -22.3690  -10.9657   19.6150 H   0  0  0  0  0  0
  -21.2001   -7.6142   23.9709 H   0  0  0  0  0  0
  -21.1488   -6.0526   25.9070 H   0  0  0  0  0  0
  -22.0598   -2.7615   23.2856 H   0  0  0  0  0  0
  -22.4133  -11.9855   22.4738 H   0  0  0  0  0  0
  -21.1132  -13.1231   22.2618 H   0  0  0  0  0  0
  -24.6795  -15.8528   20.5406 H   0  0  0  0  0  0
  -26.3030  -15.6249   20.1306 H   0  0  0  0  0  0
  -26.7095  -32.5525   23.1144 H   0  0  0  0  0  0
  -25.0130  -33.9829   25.0503 H   0  0  0  0  0  0
  -22.6865  -31.3062   21.4068 H   0  0  0  0  0  0
  -23.3766  -35.9639   23.3283 H   0  0  0  0  0  0
  -24.3617  -36.8972   22.2068 H   0  0  0  0  0  0
  -23.7241  -37.6504   23.6675 H   0  0  0  0  0  0
  -26.0334  -31.5951   20.5890 H   0  0  0  0  0  0
  -26.8150  -30.8931   21.9786 H   0  0  0  0  0  0
  -28.0950  -29.1128   21.1566 H   0  0  0  0  0  0
  -26.0330  -25.9663   19.0224 H   0  0  0  0  0  0
  -23.9785  -27.2793   19.0535 H   0  0  0  0  0  0
  -23.7071  -30.5896   19.3998 H   0  0  0  0  0  0
  -22.7310  -29.2335   19.8753 H   0  0  0  0  0  0
  -25.1290  -36.1987   25.0809 H   0  0  0  0  0  0
  -20.9956  -28.3247   24.1419 H   0  0  0  0  0  0
  -20.5690  -26.2281   23.3610 H   0  0  0  0  0  0
  -21.6638  -26.7465   22.1193 H   0  0  0  0  0  0
  -19.6925  -25.6281   21.1241 H   0  0  0  0  0  0
  -19.6664  -27.3190   20.6748 H   0  0  0  0  0  0
  -17.4192  -26.6682   21.3991 H   0  0  0  0  0  0
  -18.0293  -25.9988   22.8951 H   0  0  0  0  0  0
  -19.7943  -30.7218   24.2309 H   0  0  0  0  0  0
  -17.5028  -31.6275   24.5141 H   0  0  0  0  0  0
  -15.5369  -30.3008   23.7614 H   0  0  0  0  0  0
  -15.8637  -28.0807   22.7101 H   0  0  0  0  0  0
  -24.5937  -30.6968   25.7787 H   0  0  0  0  0  0
  -24.8829  -32.2828   26.4844 H   0  0  0  0  0  0
  -25.8073  -30.8919   27.0242 H   0  0  0  0  0  0
  -26.2849  -29.6803   24.1136 H   0  0  0  0  0  0
  -27.4136  -29.7295   25.4499 H   0  0  0  0  0  0
  -27.8630  -30.4406   23.9160 H   0  0  0  0  0  0
  -27.2688  -33.3652   26.2002 H   0  0  0  0  0  0
  -28.3859  -32.6843   25.0289 H   0  0  0  0  0  0
  -28.0666  -31.8458   26.5417 H   0  0  0  0  0  0
  -28.2578  -38.0133   24.7569 H   0  0  0  0  0  0
  -28.1118  -36.2678   24.6206 H   0  0  0  0  0  0
  -27.2312  -37.1365   25.8862 H   0  0  0  0  0  0
  -20.9266  -29.8811   21.6988 H   0  0  0  0  0  0
  -26.0180  -38.2880   24.1420 H   0  0  0  0  0  0
  -30.0869  -16.2332   18.7892 H   0  0  0  0  0  0
  -29.4464  -18.4329   17.9918 H   0  0  0  0  0  0
  -28.7195  -19.7191   22.0456 H   0  0  0  0  0  0
  -28.4620  -17.9478   23.7328 H   0  0  0  0  0  0
  -30.2115  -17.9456   23.7538 H   0  0  0  0  0  0
  -28.3458  -15.5613   23.4615 H   0  0  0  0  0  0
  -29.4935  -15.8519   24.7466 H   0  0  0  0  0  0
  -30.3534  -14.1528   23.1644 H   0  0  0  0  0  0
  -31.3845  -15.5613   23.1320 H   0  0  0  0  0  0
  -26.5585  -22.3386   21.4107 H   0  0  0  0  0  0
  -26.7198  -20.5989   21.3441 H   0  0  0  0  0  0
  -26.1153  -21.4694   19.9448 H   0  0  0  0  0  0
  -28.8080  -24.2859   21.0661 H   0  0  0  0  0  0
  -27.1693  -24.3888   20.4690 H   0  0  0  0  0  0
  -28.0714  -25.5949   18.3716 H   0  0  0  0  0  0
  -29.6551  -25.4813   19.0572 H   0  0  0  0  0  0
  -28.9650  -21.7461   21.0832 H   0  0  0  0  0  0
  -28.8289  -20.7141   18.4368 H   0  0  0  0  0  0
  1 25  1  0  0  0
  1 30  2  0  0  0
  1 85  1  0  0  0
  2  3  1  0  0  0
  2 25  1  0  0  0
  2 88  1  0  0  0
  2 89  1  0  0  0
  3  4  1  0  0  0
  3 90  1  0  0  0
  3 91  1  0  0  0
  4  5  1  0  0  0
  4 92  1  0  0  0
  4 93  1  0  0  0
  5  6  1  0  0  0
  5 26  1  0  0  0
  5 94  1  0  0  0
  6 25  1  0  0  0
  6 95  1  0  0  0
  6 96  1  0  0  0
  7  8  2  0  0  0
  7 26  1  0  0  0
  7 29  1  0  0  0
  8  9  1  0  0  0
  8 22  1  0  0  0
  9 10  1  0  0  0
  9 27  2  0  0  0
 10 11  2  0  0  0
 10 15  1  0  0  0
 11 12  1  0  0  0
 11 97  1  0  0  0
 12 13  2  0  0  0
 12 98  1  0  0  0
 13 14  1  0  0  0
 13 31  1  0  0  0
 14 15  2  0  0  0
 14 99  1  0  0  0
 15100  1  0  0  0
 16 17  2  0  0  0
 16 21  1  0  0  0
 16 31  1  0  0  0
 17 18  1  0  0  0
 17101  1  0  0  0
 18 19  2  0  0  0
 18102  1  0  0  0
 19 20  1  0  0  0
 19 24  1  0  0  0
 20 21  2  0  0  0
 20103  1  0  0  0
 21 23  1  0  0  0
 22 28  1  0  0  0
 22 32  2  0  0  0
 26 27  1  0  0  0
 28104  1  0  0  0
 28105  1  0  0  0
 29106  1  0  0  0
 29107  1  0  0  0
 33 34  1  0  0  0
 33 66  1  0  0  0
 33 70  2  0  0  0
 34 36  1  0  0  0
 34 59  1  0  0  0
 34108  1  0  0  0
 35 44  2  0  0  0
 35 45  1  0  0  0
 35 68  1  0  0  0
 36 56  1  0  0  0
 36109  1  0  0  0
 37 39  1  0  0  0
 37 47  1  0  0  0
 37 66  1  0  0  0
 37110  1  0  0  0
 38 43  2  0  0  0
 38 46  1  0  0  0
 38 47  1  0  0  0
 39 64  1  0  0  0
 39 67  2  0  0  0
 40 52  1  0  0  0
 40 53  2  0  0  0
 40 58  1  0  0  0
 41111  1  0  0  0
 41112  1  0  0  0
 41113  1  0  0  0
 41 48  1  0  0  0
 42 43  1  0  0  0
 42 66  1  0  0  0
 42114  1  0  0  0
 42115  1  0  0  0
 43 44  1  0  0  0
 44116  1  0  0  0
 45 46  2  0  0  0
 45117  1  0  0  0
 46118  1  0  0  0
 47119  1  0  0  0
 47120  1  0  0  0
 48 56  1  0  0  0
 48 65  1  0  0  0
 48121  1  0  0  0
 49 50  1  0  0  0
 49 53  1  0  0  0
 49 64  1  0  0  0
 49122  1  0  0  0
 50 51  1  0  0  0
 50123  1  0  0  0
 50124  1  0  0  0
 51 52  1  0  0  0
 51125  1  0  0  0
 51126  1  0  0  0
 52127  1  0  0  0
 52128  1  0  0  0
 53 54  1  0  0  0
 54 55  2  0  0  0
 54129  1  0  0  0
 55 57  1  0  0  0
 55130  1  0  0  0
 56 69  2  0  0  0
 57 58  2  0  0  0
 57131  1  0  0  0
 58132  1  0  0  0
 59 60  1  0  0  0
 59 61  1  0  0  0
 59 62  1  0  0  0
 60133  1  0  0  0
 60134  1  0  0  0
 60135  1  0  0  0
 61136  1  0  0  0
 61137  1  0  0  0
 61138  1  0  0  0
 62139  1  0  0  0
 62140  1  0  0  0
 62141  1  0  0  0
 63 65  1  0  0  0
 63142  1  0  0  0
 63143  1  0  0  0
 63144  1  0  0  0
 64145  1  0  0  0
 65146  1  0  0  0
 68 83  1  0  0  0
 71 72  2  0  0  0
 71 75  1  0  0  0
 71147  1  0  0  0
 72 76  1  0  0  0
 72148  1  0  0  0
 73 74  1  0  0  0
 73 76  2  0  0  0
 73149  1  0  0  0
 74 75  2  0  0  0
 74 78  1  0  0  0
 75 85  1  0  0  0
 76 86  1  0  0  0
 77 82  1  0  0  0
 77 84  1  0  0  0
 77 87  2  0  0  0
 78 79  1  0  0  0
 78150  1  0  0  0
 78151  1  0  0  0
 79 80  1  0  0  0
 79152  1  0  0  0
 79153  1  0  0  0
 80 85  1  0  0  0
 80154  1  0  0  0
 80155  1  0  0  0
 81156  1  0  0  0
 81157  1  0  0  0
 81158  1  0  0  0
 81 84  1  0  0  0
 82 83  1  0  0  0
 82159  1  0  0  0
 82160  1  0  0  0
 83161  1  0  0  0
 83162  1  0  0  0
 84 86  1  0  0  0
 84163  1  0  0  0
 86164  1  0  0  0
M  ISO  4   1 100  68 101  83 101  85 100
M  END
> <chiral flag>
0

> <version>
0

> <s_m_source_file>
/data/baiqing/PycharmProjects/Reinvent-master-3.2/result/LINK_invent/BTK/process_docking_weight1_custom_product_contain_oxygen_bond_distance_aromatic_linkinvent_7_9_3/rearranged_h_0148.sdf

> <i_m_source_file_index>
38

> <r_mmod_Potential_Energy-OPLS-2005>
54.765697479248

> <r_mmod_Stretch_Energy-OPLS-2005>
40.701732635498

> <r_mmod_Bend_Energy-OPLS-2005>
116.275032043457

> <r_mmod_Torsional_Energy-OPLS-2005>
264.237915039062

> <r_mmod_Improper_Torsional_Energy-OPLS-2005>
2.94252061843872

> <r_mmod_Van_der_Waal_Energy-OPLS-2005>
163.814880371094

> <r_mmod_Electrostatic_Energy-OPLS-2005>
-339.188140869141

> <r_mmod_Solvation_Energy-OPLS-2005>
-203.439682006836

> <b_mmod_Minimization_Converged-OPLS-2005>
0

> <r_mmod_RMS_Derivative-OPLS-2005>
2.60534381866455

$$$$
38
                    3D
 Structure written by MMmdl.
157166  0  0  1  0            999 V2000
  -30.5893  -14.7621   20.4113 C   0  0  0  0  0  0
  -30.4340  -12.4469   19.4756 C   0  0  0  0  0  0
  -29.5125  -12.5021   18.2360 C   0  0  0  0  0  0
  -28.0386  -12.3298   18.6494 C   0  0  0  0  0  0
  -27.6469  -13.2285   19.8526 C   0  0  2  0  0  0
  -28.6942  -13.1576   20.9870 C   0  0  0  0  0  0
  -25.2596  -13.8204   20.5716 C   0  0  0  0  0  0
  -24.1854  -13.0449   20.9157 C   0  0  0  0  0  0
  -24.6402  -11.6905   20.8702 C   0  0  0  0  0  0
  -23.9041  -10.4282   21.0395 C   0  0  0  0  0  0
  -24.3610   -9.4215   21.9174 C   0  0  0  0  0  0
  -23.6307   -8.2236   22.0740 C   0  0  0  0  0  0
  -22.4315   -8.0248   21.3508 C   0  0  0  0  0  0
  -21.9902   -9.0231   20.4636 C   0  0  0  0  0  0
  -22.7206  -10.2129   20.3046 C   0  0  0  0  0  0
  -21.6856   -6.0730   22.5263 C   0  0  0  0  0  0
  -21.4004   -6.5629   23.8213 C   0  0  0  0  0  0
  -21.3662   -5.6780   24.9156 C   0  0  0  0  0  0
  -21.6049   -4.3035   24.7217 C   0  0  0  0  0  0
  -21.8825   -3.8136   23.4330 C   0  0  0  0  0  0
  -21.9189   -4.6948   22.3384 C   0  0  0  0  0  0
  -22.7852  -13.5237   21.1836 C   0  0  0  0  0  0
  -22.1684   -4.2148   21.0961 F   0  0  0  0  0  0
  -21.5638   -3.4512   25.7718 F   0  0  0  0  0  0
  -29.9964  -13.5148   20.4072 N   0  0  0  0  0  0
  -26.2988  -12.9381   20.3268 N   0  0  0  0  0  0
  -25.9334  -11.6517   20.5732 N   0  0  0  0  0  0
  -22.0502  -12.8212   22.0394 N   0  0  0  0  0  0
  -25.4288  -15.1917   20.4167 N   0  0  0  0  0  0
  -31.7570  -14.8784   20.0287 O   0  0  0  0  0  0
  -21.6632   -6.8874   21.4248 O   0  0  0  0  0  0
  -22.3492  -14.5522   20.6651 O   0  0  0  0  0  0
  -24.6349  -31.8468   23.1922 C   0  0  0  0  0  0
  -25.9146  -32.4708   23.8268 C   0  0  1  0  0  0
  -27.2223  -27.2278   20.1103 C   0  0  0  0  0  0
  -25.5936  -33.8500   24.2212 N   0  0  0  0  0  0
  -23.4357  -30.4706   21.5313 C   0  0  2  0  0  0
  -24.8826  -28.9104   20.1043 C   0  0  0  0  0  0
  -22.7532  -29.4571   22.4827 C   0  0  0  0  0  0
  -18.0314  -28.1378   22.8509 C   0  0  0  0  0  0
  -24.1480  -36.7258   23.2641 C   0  0  0  0  0  0
  -25.9834  -30.7498   21.3749 C   0  0  0  0  0  0
  -26.0558  -29.3699   20.7129 C   0  0  0  0  0  0
  -27.2294  -28.5422   20.7011 C   0  0  0  0  0  0
  -26.0206  -26.8427   19.4755 C   0  0  0  0  0  0
  -24.8707  -27.6569   19.4753 C   0  0  0  0  0  0
  -23.6568  -29.8030   20.1486 C   0  0  0  0  0  0
  -25.4096  -36.3009   24.0345 C   0  0  1  0  0  0
  -20.5925  -28.3673   23.1282 C   0  0  2  0  0  0
  -20.6783  -26.9386   22.5432 C   0  0  0  0  0  0
  -19.5759  -26.6377   21.5224 C   0  0  0  0  0  0
  -18.1941  -26.7923   22.1629 C   0  0  0  0  0  0
  -19.1575  -28.8842   23.2908 C   0  0  0  0  0  0
  -18.9479  -30.1440   23.8915 C   0  0  0  0  0  0
  -17.6474  -30.6586   24.0545 C   0  0  0  0  0  0
  -25.9052  -34.9400   23.5083 C   0  0  0  0  0  0
  -16.5368  -29.9079   23.6319 C   0  0  0  0  0  0
  -16.7305  -28.6494   23.0386 C   0  0  0  0  0  0
  -26.4490  -31.6572   25.0676 C   0  0  0  0  0  0
  -25.3744  -31.3805   26.1444 C   0  0  0  0  0  0
  -27.0290  -30.2959   24.6188 C   0  0  0  0  0  0
  -27.6002  -32.4367   25.7439 C   0  0  0  0  0  0
  -27.5572  -37.1787   24.8461 C   0  0  0  0  0  0
  -21.4230  -29.3040   22.3637 N   0  0  0  0  0  0
  -26.4241  -37.3750   23.9438 N   0  0  0  0  0  0
  -24.7050  -31.0434   22.0874 N   0  0  0  0  0  0
  -23.4249  -28.8111   23.2919 O   0  0  0  0  0  0
  -28.3143  -26.3183   20.1653 O   0  0  0  0  0  0
  -26.5622  -34.8895   22.4635 O   0  0  0  0  0  0
  -23.5509  -32.1230   23.7265 O   0  0  0  0  0  0
  -29.4964  -18.4324   20.7639 C   0  0  0  0  0  0
  -29.2427  -19.5965   19.8766 C   0  0  0  0  0  0
  -29.7386  -17.1654   20.1865 C   0  0  0  0  0  0
  -29.2161  -19.1080   18.5740 C   0  0  0  0  0  0
  -28.8962  -21.0714   20.3874 C   0  0  0  0  0  0
  -30.8803  -23.5734   18.5274 C   0  0  0  0  0  0
  -30.6231  -24.1938   19.8925 C   0  0  0  0  0  0
  -30.0955  -22.2618   18.5388 C   0  0  0  0  0  0
  -29.2244  -23.7092   20.2881 C   0  0  1  0  0  0
  -28.1257  -24.8427   19.8513 C   0  0  0  0  0  0
  -29.2125  -22.2655   19.7161 N   0  0  0  0  0  0
  -28.8450  -19.7001   17.3697 N   0  0  0  0  0  0
  -29.8270  -15.8745   20.7512 N   0  0  0  0  0  0
  -28.3549  -21.1625   21.4950 O   0  0  0  0  0  0
  -29.6873  -17.4062   18.4587 S   0  0  0  0  0  0
  -31.4794  -12.5580   19.1763 H   0  0  0  0  0  0
  -30.3681  -11.4644   19.9493 H   0  0  0  0  0  0
  -29.7960  -11.7281   17.5189 H   0  0  0  0  0  0
  -29.6432  -13.4573   17.7248 H   0  0  0  0  0  0
  -27.8915  -11.2831   18.9149 H   0  0  0  0  0  0
  -27.3770  -12.5199   17.8019 H   0  0  0  0  0  0
  -27.6514  -14.2530   19.4815 H   0  0  0  0  0  0
  -28.7286  -12.1611   21.4239 H   0  0  0  0  0  0
  -28.4225  -13.8324   21.8010 H   0  0  0  0  0  0
  -25.2792   -9.5710   22.4702 H   0  0  0  0  0  0
  -24.0046   -7.4627   22.7446 H   0  0  0  0  0  0
  -21.0833   -8.8721   19.8947 H   0  0  0  0  0  0
  -22.3657  -10.9651   19.6132 H   0  0  0  0  0  0
  -21.1990   -7.6144   23.9714 H   0  0  0  0  0  0
  -21.1495   -6.0493   25.9073 H   0  0  0  0  0  0
  -22.0608   -2.7598   23.2787 H   0  0  0  0  0  0
  -22.4151  -11.9931   22.4846 H   0  0  0  0  0  0
  -21.1112  -13.1230   22.2612 H   0  0  0  0  0  0
  -24.6615  -15.8453   20.5310 H   0  0  0  0  0  0
  -26.2710  -15.6296   20.0696 H   0  0  0  0  0  0
  -26.7201  -32.5343   23.1001 H   0  0  0  0  0  0
  -25.0099  -33.9611   25.0369 H   0  0  0  0  0  0
  -22.7379  -31.2975   21.3856 H   0  0  0  0  0  0
  -23.3730  -35.9599   23.3244 H   0  0  0  0  0  0
  -24.3600  -36.8921   22.2065 H   0  0  0  0  0  0
  -23.7254  -37.6458   23.6683 H   0  0  0  0  0  0
  -26.1354  -31.5112   20.6082 H   0  0  0  0  0  0
  -26.8555  -30.7954   22.0146 H   0  0  0  0  0  0
  -28.1287  -28.8875   21.1907 H   0  0  0  0  0  0
  -25.9322  -25.8867   18.9819 H   0  0  0  0  0  0
  -23.9742  -27.3008   18.9852 H   0  0  0  0  0  0
  -23.7885  -30.5727   19.3869 H   0  0  0  0  0  0
  -22.7721  -29.2419   19.8444 H   0  0  0  0  0  0
  -25.1311  -36.1778   25.0850 H   0  0  0  0  0  0
  -21.0084  -28.3201   24.1375 H   0  0  0  0  0  0
  -20.5615  -26.2287   23.3641 H   0  0  0  0  0  0
  -21.6650  -26.7374   22.1251 H   0  0  0  0  0  0
  -19.6880  -25.6291   21.1253 H   0  0  0  0  0  0
  -19.6665  -27.3172   20.6736 H   0  0  0  0  0  0
  -17.4234  -26.6726   21.4002 H   0  0  0  0  0  0
  -18.0289  -26.0059   22.9011 H   0  0  0  0  0  0
  -19.7949  -30.7261   24.2294 H   0  0  0  0  0  0
  -17.5025  -31.6267   24.5144 H   0  0  0  0  0  0
  -15.5364  -30.2986   23.7622 H   0  0  0  0  0  0
  -15.8720  -28.0801   22.7108 H   0  0  0  0  0  0
  -24.5871  -30.7177   25.7849 H   0  0  0  0  0  0
  -24.8994  -32.3019   26.4829 H   0  0  0  0  0  0
  -25.8104  -30.9031   27.0233 H   0  0  0  0  0  0
  -26.2827  -29.6759   24.1196 H   0  0  0  0  0  0
  -27.3898  -29.7208   25.4725 H   0  0  0  0  0  0
  -27.8769  -30.4186   23.9445 H   0  0  0  0  0  0
  -27.2523  -33.3661   26.1970 H   0  0  0  0  0  0
  -28.3804  -32.6978   25.0276 H   0  0  0  0  0  0
  -28.0649  -31.8542   26.5403 H   0  0  0  0  0  0
  -28.2596  -38.0086   24.7546 H   0  0  0  0  0  0
  -28.1098  -36.2648   24.6226 H   0  0  0  0  0  0
  -27.2364  -37.1375   25.8890 H   0  0  0  0  0  0
  -20.9371  -29.8779   21.6887 H   0  0  0  0  0  0
  -26.0100  -38.2809   24.1455 H   0  0  0  0  0  0
  -29.4520  -18.5783   21.8333 H   0  0  0  0  0  0
  -31.9415  -23.4119   18.3253 H   0  0  0  0  0  0
  -30.5069  -24.2375   17.7465 H   0  0  0  0  0  0
  -30.7162  -25.2795   19.8814 H   0  0  0  0  0  0
  -31.3563  -23.8120   20.6039 H   0  0  0  0  0  0
  -30.7975  -21.4270   18.5607 H   0  0  0  0  0  0
  -29.5188  -22.1788   17.6197 H   0  0  0  0  0  0
  -29.2026  -23.6476   21.3779 H   0  0  0  0  0  0
  -27.1791  -24.5305   20.2947 H   0  0  0  0  0  0
  -27.9756  -24.7727   18.7722 H   0  0  0  0  0  0
  -28.3911  -20.6009   17.2685 H   0  0  0  0  0  0
  -28.8263  -19.1719   16.5007 H   0  0  0  0  0  0
  -29.0173  -15.6350   21.3023 H   0  0  0  0  0  0
  1 25  1  0  0  0
  1 30  2  0  0  0
  1 83  1  0  0  0
  2  3  1  0  0  0
  2 25  1  0  0  0
  2 86  1  0  0  0
  2 87  1  0  0  0
  3  4  1  0  0  0
  3 88  1  0  0  0
  3 89  1  0  0  0
  4  5  1  0  0  0
  4 90  1  0  0  0
  4 91  1  0  0  0
  5  6  1  0  0  0
  5 26  1  0  0  0
  5 92  1  0  0  0
  6 25  1  0  0  0
  6 93  1  0  0  0
  6 94  1  0  0  0
  7  8  2  0  0  0
  7 26  1  0  0  0
  7 29  1  0  0  0
  8  9  1  0  0  0
  8 22  1  0  0  0
  9 10  1  0  0  0
  9 27  2  0  0  0
 10 11  2  0  0  0
 10 15  1  0  0  0
 11 12  1  0  0  0
 11 95  1  0  0  0
 12 13  2  0  0  0
 12 96  1  0  0  0
 13 14  1  0  0  0
 13 31  1  0  0  0
 14 15  2  0  0  0
 14 97  1  0  0  0
 15 98  1  0  0  0
 16 17  2  0  0  0
 16 21  1  0  0  0
 16 31  1  0  0  0
 17 18  1  0  0  0
 17 99  1  0  0  0
 18 19  2  0  0  0
 18100  1  0  0  0
 19 20  1  0  0  0
 19 24  1  0  0  0
 20 21  2  0  0  0
 20101  1  0  0  0
 21 23  1  0  0  0
 22 28  1  0  0  0
 22 32  2  0  0  0
 26 27  1  0  0  0
 28102  1  0  0  0
 28103  1  0  0  0
 29104  1  0  0  0
 29105  1  0  0  0
 33 34  1  0  0  0
 33 66  1  0  0  0
 33 70  2  0  0  0
 34 36  1  0  0  0
 34 59  1  0  0  0
 34106  1  0  0  0
 35 44  2  0  0  0
 35 45  1  0  0  0
 35 68  1  0  0  0
 36 56  1  0  0  0
 36107  1  0  0  0
 37 39  1  0  0  0
 37 47  1  0  0  0
 37 66  1  0  0  0
 37108  1  0  0  0
 38 43  2  0  0  0
 38 46  1  0  0  0
 38 47  1  0  0  0
 39 64  1  0  0  0
 39 67  2  0  0  0
 40 52  1  0  0  0
 40 53  2  0  0  0
 40 58  1  0  0  0
 41109  1  0  0  0
 41110  1  0  0  0
 41111  1  0  0  0
 41 48  1  0  0  0
 42 43  1  0  0  0
 42 66  1  0  0  0
 42112  1  0  0  0
 42113  1  0  0  0
 43 44  1  0  0  0
 44114  1  0  0  0
 45 46  2  0  0  0
 45115  1  0  0  0
 46116  1  0  0  0
 47117  1  0  0  0
 47118  1  0  0  0
 48 56  1  0  0  0
 48 65  1  0  0  0
 48119  1  0  0  0
 49 50  1  0  0  0
 49 53  1  0  0  0
 49 64  1  0  0  0
 49120  1  0  0  0
 50 51  1  0  0  0
 50121  1  0  0  0
 50122  1  0  0  0
 51 52  1  0  0  0
 51123  1  0  0  0
 51124  1  0  0  0
 52125  1  0  0  0
 52126  1  0  0  0
 53 54  1  0  0  0
 54 55  2  0  0  0
 54127  1  0  0  0
 55 57  1  0  0  0
 55128  1  0  0  0
 56 69  2  0  0  0
 57 58  2  0  0  0
 57129  1  0  0  0
 58130  1  0  0  0
 59 60  1  0  0  0
 59 61  1  0  0  0
 59 62  1  0  0  0
 60131  1  0  0  0
 60132  1  0  0  0
 60133  1  0  0  0
 61134  1  0  0  0
 61135  1  0  0  0
 61136  1  0  0  0
 62137  1  0  0  0
 62138  1  0  0  0
 62139  1  0  0  0
 63 65  1  0  0  0
 63140  1  0  0  0
 63141  1  0  0  0
 63142  1  0  0  0
 64143  1  0  0  0
 65144  1  0  0  0
 68 80  1  0  0  0
 71 72  1  0  0  0
 71 73  2  0  0  0
 71145  1  0  0  0
 72 74  2  0  0  0
 72 75  1  0  0  0
 73 83  1  0  0  0
 73 85  1  0  0  0
 74 82  1  0  0  0
 74 85  1  0  0  0
 75 81  1  0  0  0
 75 84  2  0  0  0
 76 77  1  0  0  0
 76 78  1  0  0  0
 76146  1  0  0  0
 76147  1  0  0  0
 77 79  1  0  0  0
 77148  1  0  0  0
 77149  1  0  0  0
 78 81  1  0  0  0
 78150  1  0  0  0
 78151  1  0  0  0
 79 80  1  0  0  0
 79 81  1  0  0  0
 79152  1  0  0  0
 80153  1  0  0  0
 80154  1  0  0  0
 82155  1  0  0  0
 82156  1  0  0  0
 83157  1  0  0  0
M  ISO  4   1 100  68 101  80 101  83 100
M  END
> <chiral flag>
0

> <version>
0

> <s_m_source_file>
/data/baiqing/PycharmProjects/Reinvent-master-3.2/result/LINK_invent/BTK/process_docking_weight1_custom_product_contain_oxygen_bond_distance_aromatic_linkinvent_7_9_3/rearranged_h_0148.sdf

> <i_m_source_file_index>
39

> <r_mmod_Potential_Energy-OPLS-2005>
421.428436279297

> <r_mmod_Stretch_Energy-OPLS-2005>
150.055480957031

> <r_mmod_Bend_Energy-OPLS-2005>
217.45246887207

> <r_mmod_Torsional_Energy-OPLS-2005>
338.869842529297

> <r_mmod_Improper_Torsional_Energy-OPLS-2005>
7.27933502197266

> <r_mmod_Van_der_Waal_Energy-OPLS-2005>
116.80744934082

> <r_mmod_Electrostatic_Energy-OPLS-2005>
-272.067199707031

> <r_mmod_Solvation_Energy-OPLS-2005>
-235.955169677734

> <b_mmod_Minimization_Converged-OPLS-2005>
0

> <r_mmod_RMS_Derivative-OPLS-2005>
5.76680040359497

$$$$
39
                    3D
 Structure written by MMmdl.
169178  0  0  1  0            999 V2000
  -30.7163  -14.5104   20.5594 C   0  0  0  0  0  0
  -30.4153  -12.3260   19.4377 C   0  0  0  0  0  0
  -29.4936  -12.4994   18.2135 C   0  0  0  0  0  0
  -28.0162  -12.3588   18.6261 C   0  0  0  0  0  0
  -27.6567  -13.2155   19.8706 C   0  0  2  0  0  0
  -28.7006  -13.0396   20.9979 C   0  0  0  0  0  0
  -25.2562  -13.8178   20.5687 C   0  0  0  0  0  0
  -24.1826  -13.0442   20.9186 C   0  0  0  0  0  0
  -24.6389  -11.6911   20.8735 C   0  0  0  0  0  0
  -23.9057  -10.4294   21.0399 C   0  0  0  0  0  0
  -24.3609   -9.4212   21.9177 C   0  0  0  0  0  0
  -23.6285   -8.2247   22.0752 C   0  0  0  0  0  0
  -22.4270   -8.0278   21.3541 C   0  0  0  0  0  0
  -21.9903   -9.0251   20.4641 C   0  0  0  0  0  0
  -22.7231  -10.2131   20.3049 C   0  0  0  0  0  0
  -21.6851   -6.0726   22.5273 C   0  0  0  0  0  0
  -21.4015   -6.5632   23.8204 C   0  0  0  0  0  0
  -21.3658   -5.6789   24.9168 C   0  0  0  0  0  0
  -21.6047   -4.3051   24.7223 C   0  0  0  0  0  0
  -21.8821   -3.8140   23.4345 C   0  0  0  0  0  0
  -21.9195   -4.6955   22.3400 C   0  0  0  0  0  0
  -22.7849  -13.5233   21.1847 C   0  0  0  0  0  0
  -22.1663   -4.2141   21.0977 F   0  0  0  0  0  0
  -21.5631   -3.4536   25.7737 F   0  0  0  0  0  0
  -30.0263  -13.3393   20.4359 N   0  0  0  0  0  0
  -26.3001  -12.9362   20.3357 N   0  0  0  0  0  0
  -25.9320  -11.6515   20.5772 N   0  0  0  0  0  0
  -22.0492  -12.8219   22.0399 N   0  0  0  0  0  0
  -25.4275  -15.1896   20.4085 N   0  0  0  0  0  0
  -31.8477  -14.6374   20.0856 O   0  0  0  0  0  0
  -21.6638   -6.8871   21.4235 O   0  0  0  0  0  0
  -22.3538  -14.5542   20.6699 O   0  0  0  0  0  0
  -24.6172  -31.8660   23.2075 C   0  0  0  0  0  0
  -25.9061  -32.4808   23.8378 C   0  0  1  0  0  0
  -27.2262  -27.4048   20.1001 C   0  0  0  0  0  0
  -25.5915  -33.8605   24.2314 N   0  0  0  0  0  0
  -23.4074  -30.4902   21.5482 C   0  0  2  0  0  0
  -24.8550  -28.9546   20.1126 C   0  0  0  0  0  0
  -22.7429  -29.4655   22.4970 C   0  0  0  0  0  0
  -18.0279  -28.1385   22.8496 C   0  0  0  0  0  0
  -24.1483  -36.7297   23.2643 C   0  0  0  0  0  0
  -25.9397  -30.8219   21.3671 C   0  0  0  0  0  0
  -26.0182  -29.4547   20.7131 C   0  0  0  0  0  0
  -27.2106  -28.6868   20.7057 C   0  0  0  0  0  0
  -26.0499  -26.9321   19.4847 C   0  0  0  0  0  0
  -24.8667  -27.6926   19.4947 C   0  0  0  0  0  0
  -23.6179  -29.8245   20.1625 C   0  0  0  0  0  0
  -25.4111  -36.3098   24.0334 C   0  0  1  0  0  0
  -20.5871  -28.3674   23.1307 C   0  0  2  0  0  0
  -20.6772  -26.9410   22.5412 C   0  0  0  0  0  0
  -19.5748  -26.6387   21.5215 C   0  0  0  0  0  0
  -18.1923  -26.7931   22.1625 C   0  0  0  0  0  0
  -19.1531  -28.8847   23.2893 C   0  0  0  0  0  0
  -18.9463  -30.1453   23.8906 C   0  0  0  0  0  0
  -17.6467  -30.6590   24.0571 C   0  0  0  0  0  0
  -25.9046  -34.9466   23.5124 C   0  0  0  0  0  0
  -16.5356  -29.9094   23.6336 C   0  0  0  0  0  0
  -16.7268  -28.6509   23.0356 C   0  0  0  0  0  0
  -26.4479  -31.6595   25.0715 C   0  0  0  0  0  0
  -25.3738  -31.3696   26.1455 C   0  0  0  0  0  0
  -27.0331  -30.3042   24.6106 C   0  0  0  0  0  0
  -27.6038  -32.4329   25.7486 C   0  0  0  0  0  0
  -27.5574  -37.1799   24.8473 C   0  0  0  0  0  0
  -21.4155  -29.3034   22.3708 N   0  0  0  0  0  0
  -26.4293  -37.3785   23.9410 N   0  0  0  0  0  0
  -24.6727  -31.0743   22.0989 N   0  0  0  0  0  0
  -23.4184  -28.8202   23.3030 O   0  0  0  0  0  0
  -28.3461  -26.5932   20.1095 O   0  0  0  0  0  0
  -26.5605  -34.8924   22.4682 O   0  0  0  0  0  0
  -23.5361  -32.1431   23.7455 O   0  0  0  0  0  0
  -32.3084  -18.5539   21.6577 C   0  0  0  0  0  0
  -31.3774  -19.6040   21.7445 C   0  0  0  0  0  0
  -31.8798  -17.2354   21.4225 C   0  0  0  0  0  0
  -29.5754  -18.0152   21.3211 C   0  0  0  0  0  0
  -29.9996  -19.3600   21.5631 C   0  0  0  0  0  0
  -30.5046  -16.9331   21.2504 C   0  0  0  0  0  0
  -29.0266  -20.4582   21.8204 C   0  0  0  0  0  0
  -29.9468  -23.7208   20.1936 C   0  0  0  0  0  0
  -30.0907  -22.1893   20.3272 C   0  0  0  0  0  0
  -28.5081  -24.0361   20.6330 C   0  0  2  0  0  0
  -28.3325  -22.9711   21.7944 C   0  0  0  0  0  0
  -27.5646  -23.7312   19.4420 C   0  0  0  0  0  0
  -26.8262  -22.7104   22.0689 C   0  0  0  0  0  0
  -28.9811  -23.4537   23.1158 C   0  0  0  0  0  0
  -28.3023  -25.5355   21.1006 C   0  0  0  0  0  0
  -29.0862  -21.7483   21.3278 N   0  0  0  0  0  0
  -30.0414  -15.5712   21.0746 N   0  0  0  0  0  0
  -28.0536  -20.1432   22.6688 N   0  3  0  0  0  0
  -31.4615  -12.4049   19.1372 H   0  0  0  0  0  0
  -30.3063  -11.3248   19.8588 H   0  0  0  0  0  0
  -29.7382  -11.7601   17.4494 H   0  0  0  0  0  0
  -29.6595  -13.4774   17.7582 H   0  0  0  0  0  0
  -27.8330  -11.3046   18.8375 H   0  0  0  0  0  0
  -27.3644  -12.6165   17.7904 H   0  0  0  0  0  0
  -27.6877  -14.2571   19.5502 H   0  0  0  0  0  0
  -28.6846  -12.0157   21.3743 H   0  0  0  0  0  0
  -28.4617  -13.6719   21.8537 H   0  0  0  0  0  0
  -25.2750   -9.5690   22.4751 H   0  0  0  0  0  0
  -23.9993   -7.4642   22.7475 H   0  0  0  0  0  0
  -21.0834   -8.8761   19.8948 H   0  0  0  0  0  0
  -22.3680  -10.9665   19.6155 H   0  0  0  0  0  0
  -21.2003   -7.6140   23.9703 H   0  0  0  0  0  0
  -21.1480   -6.0518   25.9070 H   0  0  0  0  0  0
  -22.0602   -2.7603   23.2846 H   0  0  0  0  0  0
  -22.4110  -11.9874   22.4775 H   0  0  0  0  0  0
  -21.1108  -13.1237   22.2607 H   0  0  0  0  0  0
  -24.6569  -15.8416   20.5073 H   0  0  0  0  0  0
  -26.2710  -15.6257   20.0585 H   0  0  0  0  0  0
  -26.7130  -32.5515   23.1135 H   0  0  0  0  0  0
  -25.0056  -33.9755   25.0457 H   0  0  0  0  0  0
  -22.6974  -31.3079   21.4084 H   0  0  0  0  0  0
  -23.3743  -35.9631   23.3324 H   0  0  0  0  0  0
  -24.3576  -36.8901   22.2055 H   0  0  0  0  0  0
  -23.7232  -37.6503   23.6657 H   0  0  0  0  0  0
  -26.0578  -31.5879   20.5992 H   0  0  0  0  0  0
  -26.8244  -30.8727   21.9900 H   0  0  0  0  0  0
  -28.1065  -29.0622   21.1796 H   0  0  0  0  0  0
  -26.0403  -25.9700   18.9968 H   0  0  0  0  0  0
  -23.9745  -27.3033   19.0237 H   0  0  0  0  0  0
  -23.7284  -30.6005   19.4040 H   0  0  0  0  0  0
  -22.7408  -29.2467   19.8661 H   0  0  0  0  0  0
  -25.1281  -36.1957   25.0823 H   0  0  0  0  0  0
  -20.9963  -28.3253   24.1430 H   0  0  0  0  0  0
  -20.5706  -26.2281   23.3600 H   0  0  0  0  0  0
  -21.6637  -26.7470   22.1188 H   0  0  0  0  0  0
  -19.6916  -25.6302   21.1237 H   0  0  0  0  0  0
  -19.6690  -27.3208   20.6752 H   0  0  0  0  0  0
  -17.4195  -26.6692   21.4022 H   0  0  0  0  0  0
  -18.0317  -26.0068   22.9018 H   0  0  0  0  0  0
  -19.7944  -30.7258   24.2283 H   0  0  0  0  0  0
  -17.5029  -31.6276   24.5163 H   0  0  0  0  0  0
  -15.5359  -30.2997   23.7665 H   0  0  0  0  0  0
  -15.8666  -28.0834   22.7069 H   0  0  0  0  0  0
  -24.5912  -30.7053   25.7777 H   0  0  0  0  0  0
  -24.8927  -32.2849   26.4918 H   0  0  0  0  0  0
  -25.8075  -30.8847   27.0210 H   0  0  0  0  0  0
  -26.2884  -29.6773   24.1192 H   0  0  0  0  0  0
  -27.4143  -29.7307   25.4564 H   0  0  0  0  0  0
  -27.8693  -30.4367   23.9235 H   0  0  0  0  0  0
  -27.2654  -33.3631   26.2063 H   0  0  0  0  0  0
  -28.3846  -32.6894   25.0314 H   0  0  0  0  0  0
  -28.0710  -31.8463   26.5408 H   0  0  0  0  0  0
  -28.2590  -38.0095   24.7518 H   0  0  0  0  0  0
  -28.1062  -36.2624   24.6300 H   0  0  0  0  0  0
  -27.2287  -37.1448   25.8874 H   0  0  0  0  0  0
  -20.9330  -29.8744   21.6911 H   0  0  0  0  0  0
  -26.0178  -38.2857   24.1423 H   0  0  0  0  0  0
  -33.3597  -18.7519   21.8128 H   0  0  0  0  0  0
  -31.7343  -20.5864   22.0173 H   0  0  0  0  0  0
  -32.6365  -16.4660   21.4148 H   0  0  0  0  0  0
  -28.5181  -17.8107   21.2210 H   0  0  0  0  0  0
  -30.1447  -24.0566   19.1753 H   0  0  0  0  0  0
  -30.6774  -24.2175   20.8321 H   0  0  0  0  0  0
  -31.1183  -21.9485   20.5882 H   0  0  0  0  0  0
  -29.8768  -21.7041   19.3734 H   0  0  0  0  0  0
  -27.6418  -22.6961   19.1082 H   0  0  0  0  0  0
  -27.7933  -24.3640   18.5845 H   0  0  0  0  0  0
  -26.5194  -23.9024   19.6951 H   0  0  0  0  0  0
  -26.2416  -23.6273   21.9982 H   0  0  0  0  0  0
  -26.6456  -22.3298   23.0737 H   0  0  0  0  0  0
  -26.3955  -22.0060   21.3564 H   0  0  0  0  0  0
  -28.4559  -24.3122   23.5348 H   0  0  0  0  0  0
  -30.0261  -23.7367   22.9917 H   0  0  0  0  0  0
  -28.9543  -22.6777   23.8806 H   0  0  0  0  0  0
  -29.0747  -25.7969   21.8239 H   0  0  0  0  0  0
  -27.3676  -25.5936   21.6618 H   0  0  0  0  0  0
  -29.0792  -15.3879   21.3119 H   0  0  0  0  0  0
  -28.0519  -19.2366   23.1097 H   0  0  0  0  0  0
  -27.3277  -20.8013   22.8901 H   0  0  0  0  0  0
  1 25  1  0  0  0
  1 30  2  0  0  0
  1 87  1  0  0  0
  2  3  1  0  0  0
  2 25  1  0  0  0
  2 89  1  0  0  0
  2 90  1  0  0  0
  3  4  1  0  0  0
  3 91  1  0  0  0
  3 92  1  0  0  0
  4  5  1  0  0  0
  4 93  1  0  0  0
  4 94  1  0  0  0
  5  6  1  0  0  0
  5 26  1  0  0  0
  5 95  1  0  0  0
  6 25  1  0  0  0
  6 96  1  0  0  0
  6 97  1  0  0  0
  7  8  2  0  0  0
  7 26  1  0  0  0
  7 29  1  0  0  0
  8  9  1  0  0  0
  8 22  1  0  0  0
  9 10  1  0  0  0
  9 27  2  0  0  0
 10 11  2  0  0  0
 10 15  1  0  0  0
 11 12  1  0  0  0
 11 98  1  0  0  0
 12 13  2  0  0  0
 12 99  1  0  0  0
 13 14  1  0  0  0
 13 31  1  0  0  0
 14 15  2  0  0  0
 14100  1  0  0  0
 15101  1  0  0  0
 16 17  2  0  0  0
 16 21  1  0  0  0
 16 31  1  0  0  0
 17 18  1  0  0  0
 17102  1  0  0  0
 18 19  2  0  0  0
 18103  1  0  0  0
 19 20  1  0  0  0
 19 24  1  0  0  0
 20 21  2  0  0  0
 20104  1  0  0  0
 21 23  1  0  0  0
 22 28  1  0  0  0
 22 32  2  0  0  0
 26 27  1  0  0  0
 28105  1  0  0  0
 28106  1  0  0  0
 29107  1  0  0  0
 29108  1  0  0  0
 33 34  1  0  0  0
 33 66  1  0  0  0
 33 70  2  0  0  0
 34 36  1  0  0  0
 34 59  1  0  0  0
 34109  1  0  0  0
 35 44  2  0  0  0
 35 45  1  0  0  0
 35 68  1  0  0  0
 36 56  1  0  0  0
 36110  1  0  0  0
 37 39  1  0  0  0
 37 47  1  0  0  0
 37 66  1  0  0  0
 37111  1  0  0  0
 38 43  2  0  0  0
 38 46  1  0  0  0
 38 47  1  0  0  0
 39 64  1  0  0  0
 39 67  2  0  0  0
 40 52  1  0  0  0
 40 53  2  0  0  0
 40 58  1  0  0  0
 41112  1  0  0  0
 41113  1  0  0  0
 41114  1  0  0  0
 41 48  1  0  0  0
 42 43  1  0  0  0
 42 66  1  0  0  0
 42115  1  0  0  0
 42116  1  0  0  0
 43 44  1  0  0  0
 44117  1  0  0  0
 45 46  2  0  0  0
 45118  1  0  0  0
 46119  1  0  0  0
 47120  1  0  0  0
 47121  1  0  0  0
 48 56  1  0  0  0
 48 65  1  0  0  0
 48122  1  0  0  0
 49 50  1  0  0  0
 49 53  1  0  0  0
 49 64  1  0  0  0
 49123  1  0  0  0
 50 51  1  0  0  0
 50124  1  0  0  0
 50125  1  0  0  0
 51 52  1  0  0  0
 51126  1  0  0  0
 51127  1  0  0  0
 52128  1  0  0  0
 52129  1  0  0  0
 53 54  1  0  0  0
 54 55  2  0  0  0
 54130  1  0  0  0
 55 57  1  0  0  0
 55131  1  0  0  0
 56 69  2  0  0  0
 57 58  2  0  0  0
 57132  1  0  0  0
 58133  1  0  0  0
 59 60  1  0  0  0
 59 61  1  0  0  0
 59 62  1  0  0  0
 60134  1  0  0  0
 60135  1  0  0  0
 60136  1  0  0  0
 61137  1  0  0  0
 61138  1  0  0  0
 61139  1  0  0  0
 62140  1  0  0  0
 62141  1  0  0  0
 62142  1  0  0  0
 63 65  1  0  0  0
 63143  1  0  0  0
 63144  1  0  0  0
 63145  1  0  0  0
 64146  1  0  0  0
 65147  1  0  0  0
 68 85  1  0  0  0
 71 72  2  0  0  0
 71 73  1  0  0  0
 71148  1  0  0  0
 72 75  1  0  0  0
 72149  1  0  0  0
 73 76  2  0  0  0
 73150  1  0  0  0
 74 75  2  0  0  0
 74 76  1  0  0  0
 74151  1  0  0  0
 75 77  1  0  0  0
 76 87  1  0  0  0
 77 86  1  0  0  0
 77 88  2  0  0  0
 78 79  1  0  0  0
 78 80  1  0  0  0
 78152  1  0  0  0
 78153  1  0  0  0
 79 86  1  0  0  0
 79154  1  0  0  0
 79155  1  0  0  0
 80 81  1  0  0  0
 80 82  1  0  0  0
 80 85  1  0  0  0
 81 83  1  0  0  0
 81 84  1  0  0  0
 81 86  1  0  0  0
 82156  1  0  0  0
 82157  1  0  0  0
 82158  1  0  0  0
 83159  1  0  0  0
 83160  1  0  0  0
 83161  1  0  0  0
 84162  1  0  0  0
 84163  1  0  0  0
 84164  1  0  0  0
 85165  1  0  0  0
 85166  1  0  0  0
 87167  1  0  0  0
 88168  1  0  0  0
 88169  1  0  0  0
M  CHG  1  88   1
M  ISO  4   1 100  68 101  85 101  87 100
M  END
> <chiral flag>
0

> <version>
0

> <s_m_source_file>
/data/baiqing/PycharmProjects/Reinvent-master-3.2/result/LINK_invent/BTK/process_docking_weight1_custom_product_contain_oxygen_bond_distance_aromatic_linkinvent_7_9_3/rearranged_h_0148.sdf

> <i_m_source_file_index>
40

> <r_mmod_Potential_Energy-OPLS-2005>
-40.9075355529785

> <r_mmod_Stretch_Energy-OPLS-2005>
60.3880729675293

> <r_mmod_Bend_Energy-OPLS-2005>
149.470779418945

> <r_mmod_Torsional_Energy-OPLS-2005>
344.723815917969

> <r_mmod_Improper_Torsional_Energy-OPLS-2005>
5.13742399215698

> <r_mmod_Van_der_Waal_Energy-OPLS-2005>
172.452423095703

> <r_mmod_Electrostatic_Energy-OPLS-2005>
-408.117034912109

> <r_mmod_Solvation_Energy-OPLS-2005>
-384.743865966797

> <b_mmod_Minimization_Converged-OPLS-2005>
0

> <r_mmod_RMS_Derivative-OPLS-2005>
0.996918261051178

$$$$
40
                    3D
 Structure written by MMmdl.
154162  0  0  1  0            999 V2000
  -30.5920  -14.7944   20.4368 C   0  0  0  0  0  0
  -30.4381  -12.4822   19.4810 C   0  0  0  0  0  0
  -29.5143  -12.4956   18.2427 C   0  0  0  0  0  0
  -28.0424  -12.3162   18.6599 C   0  0  0  0  0  0
  -27.6395  -13.2309   19.8470 C   0  0  2  0  0  0
  -28.6850  -13.1935   20.9838 C   0  0  0  0  0  0
  -25.2521  -13.8192   20.5693 C   0  0  0  0  0  0
  -24.1815  -13.0439   20.9217 C   0  0  0  0  0  0
  -24.6406  -11.6913   20.8766 C   0  0  0  0  0  0
  -23.9085  -10.4294   21.0421 C   0  0  0  0  0  0
  -24.3630   -9.4200   21.9189 C   0  0  0  0  0  0
  -23.6298   -8.2239   22.0759 C   0  0  0  0  0  0
  -22.4276   -8.0286   21.3551 C   0  0  0  0  0  0
  -21.9914   -9.0270   20.4655 C   0  0  0  0  0  0
  -22.7258  -10.2142   20.3069 C   0  0  0  0  0  0
  -21.6849   -6.0741   22.5283 C   0  0  0  0  0  0
  -21.4014   -6.5646   23.8219 C   0  0  0  0  0  0
  -21.3657   -5.6795   24.9181 C   0  0  0  0  0  0
  -21.6042   -4.3058   24.7227 C   0  0  0  0  0  0
  -21.8819   -3.8153   23.4349 C   0  0  0  0  0  0
  -21.9191   -4.6967   22.3404 C   0  0  0  0  0  0
  -22.7834  -13.5223   21.1863 C   0  0  0  0  0  0
  -22.1660   -4.2153   21.0981 F   0  0  0  0  0  0
  -21.5624   -3.4538   25.7736 F   0  0  0  0  0  0
  -29.9797  -13.5579   20.3942 N   0  0  0  0  0  0
  -26.2935  -12.9388   20.3271 N   0  0  0  0  0  0
  -25.9329  -11.6533   20.5757 N   0  0  0  0  0  0
  -22.0480  -12.8230   22.0426 N   0  0  0  0  0  0
  -25.4202  -15.1920   20.4100 N   0  0  0  0  0  0
  -31.7903  -14.8717   20.1447 O   0  0  0  0  0  0
  -21.6636   -6.8888   21.4247 O   0  0  0  0  0  0
  -22.3529  -14.5534   20.6712 O   0  0  0  0  0  0
  -24.6351  -31.8520   23.1961 C   0  0  0  0  0  0
  -25.9155  -32.4743   23.8323 C   0  0  1  0  0  0
  -27.2195  -27.2227   20.1294 C   0  0  0  0  0  0
  -25.5931  -33.8545   24.2236 N   0  0  0  0  0  0
  -23.4344  -30.4731   21.5428 C   0  0  2  0  0  0
  -24.8813  -28.9143   20.1164 C   0  0  0  0  0  0
  -22.7528  -29.4580   22.4929 C   0  0  0  0  0  0
  -18.0292  -28.1401   22.8493 C   0  0  0  0  0  0
  -24.1486  -36.7258   23.2641 C   0  0  0  0  0  0
  -25.9855  -30.7516   21.3844 C   0  0  0  0  0  0
  -26.0579  -29.3720   20.7228 C   0  0  0  0  0  0
  -27.2303  -28.5410   20.7138 C   0  0  0  0  0  0
  -26.0125  -26.8421   19.4995 C   0  0  0  0  0  0
  -24.8657  -27.6586   19.4941 C   0  0  0  0  0  0
  -23.6554  -29.8067   20.1608 C   0  0  0  0  0  0
  -25.4118  -36.3052   24.0322 C   0  0  1  0  0  0
  -20.5902  -28.3703   23.1281 C   0  0  2  0  0  0
  -20.6788  -26.9420   22.5425 C   0  0  0  0  0  0
  -19.5760  -26.6389   21.5233 C   0  0  0  0  0  0
  -18.1936  -26.7942   22.1638 C   0  0  0  0  0  0
  -19.1549  -28.8871   23.2878 C   0  0  0  0  0  0
  -18.9466  -30.1475   23.8896 C   0  0  0  0  0  0
  -17.6465  -30.6602   24.0559 C   0  0  0  0  0  0
  -25.9064  -34.9427   23.5082 C   0  0  0  0  0  0
  -16.5355  -29.9097   23.6338 C   0  0  0  0  0  0
  -16.7278  -28.6515   23.0360 C   0  0  0  0  0  0
  -26.4503  -31.6597   25.0738 C   0  0  0  0  0  0
  -25.3701  -31.3776   26.1446 C   0  0  0  0  0  0
  -27.0365  -30.3006   24.6278 C   0  0  0  0  0  0
  -27.6055  -32.4356   25.7499 C   0  0  0  0  0  0
  -27.5578  -37.1780   24.8464 C   0  0  0  0  0  0
  -21.4233  -29.3030   22.3662 N   0  0  0  0  0  0
  -26.4285  -37.3763   23.9412 N   0  0  0  0  0  0
  -24.7043  -31.0444   22.0965 N   0  0  0  0  0  0
  -23.4209  -28.8119   23.3042 O   0  0  0  0  0  0
  -28.3086  -26.3055   20.1691 O   0  0  0  0  0  0
  -26.5652  -34.8906   22.4660 O   0  0  0  0  0  0
  -23.5487  -32.1363   23.7225 O   0  0  0  0  0  0
  -29.2529  -18.4434   20.5214 C   0  0  0  0  0  0
  -31.3371  -19.1282   20.1541 C   0  0  0  0  0  0
  -30.0752  -19.6422   20.3162 C   0  0  0  0  0  0
  -30.0996  -17.3118   20.4638 C   0  0  0  0  0  0
  -28.8680  -22.0814   20.3273 C   0  0  0  0  0  0
  -30.1309  -23.8716   18.9883 C   0  0  0  0  0  0
  -30.0567  -24.0172   21.4929 C   0  0  0  0  0  0
  -28.0485  -24.8029   20.1240 C   0  0  0  0  0  0
  -29.2381  -23.6746   20.2331 C   0  0  0  0  0  0
  -29.8818  -21.1310   20.2608 N   0  0  0  0  0  0
  -29.8002  -15.9363   20.5992 N   0  0  0  0  0  0
  -27.6920  -21.7416   20.4689 O   0  0  0  0  0  0
  -31.3705  -17.7539   20.2383 O   0  0  0  0  0  0
  -31.4764  -12.6174   19.1722 H   0  0  0  0  0  0
  -30.3995  -11.5141   19.9832 H   0  0  0  0  0  0
  -29.8006  -11.7045   17.5481 H   0  0  0  0  0  0
  -29.6352  -13.4363   17.7043 H   0  0  0  0  0  0
  -27.9115  -11.2704   18.9402 H   0  0  0  0  0  0
  -27.3837  -12.4835   17.8078 H   0  0  0  0  0  0
  -27.6233  -14.2446   19.4464 H   0  0  0  0  0  0
  -28.7339  -12.2029   21.4382 H   0  0  0  0  0  0
  -28.4097  -13.8834   21.7836 H   0  0  0  0  0  0
  -25.2780   -9.5650   22.4764 H   0  0  0  0  0  0
  -23.9994   -7.4620   22.7472 H   0  0  0  0  0  0
  -21.0841   -8.8809   19.8961 H   0  0  0  0  0  0
  -22.3729  -10.9691   19.6184 H   0  0  0  0  0  0
  -21.2014   -7.6151   23.9725 H   0  0  0  0  0  0
  -21.1472   -6.0525   25.9085 H   0  0  0  0  0  0
  -22.0597   -2.7610   23.2851 H   0  0  0  0  0  0
  -22.4094  -11.9901   22.4831 H   0  0  0  0  0  0
  -21.1103  -13.1271   22.2635 H   0  0  0  0  0  0
  -24.6460  -15.8390   20.5169 H   0  0  0  0  0  0
  -26.2540  -15.6334   20.0455 H   0  0  0  0  0  0
  -26.7221  -32.5378   23.1061 H   0  0  0  0  0  0
  -25.0040  -33.9680   25.0354 H   0  0  0  0  0  0
  -22.7323  -31.2961   21.3947 H   0  0  0  0  0  0
  -23.3760  -35.9579   23.3297 H   0  0  0  0  0  0
  -24.3569  -36.8893   22.2057 H   0  0  0  0  0  0
  -23.7226  -37.6448   23.6676 H   0  0  0  0  0  0
  -26.1359  -31.5132   20.6180 H   0  0  0  0  0  0
  -26.8577  -30.7943   22.0256 H   0  0  0  0  0  0
  -28.1309  -28.8869   21.2025 H   0  0  0  0  0  0
  -25.9146  -25.8858   19.0113 H   0  0  0  0  0  0
  -23.9637  -27.3013   19.0162 H   0  0  0  0  0  0
  -23.7844  -30.5829   19.4059 H   0  0  0  0  0  0
  -22.7727  -29.2445   19.8519 H   0  0  0  0  0  0
  -25.1303  -36.1888   25.0816 H   0  0  0  0  0  0
  -20.9981  -28.3280   24.1407 H   0  0  0  0  0  0
  -20.5707  -26.2304   23.3624 H   0  0  0  0  0  0
  -21.6647  -26.7455   22.1197 H   0  0  0  0  0  0
  -19.6912  -25.6295   21.1264 H   0  0  0  0  0  0
  -19.6699  -27.3200   20.6763 H   0  0  0  0  0  0
  -17.4203  -26.6692   21.4040 H   0  0  0  0  0  0
  -18.0327  -26.0097   22.9045 H   0  0  0  0  0  0
  -19.7938  -30.7294   24.2268 H   0  0  0  0  0  0
  -17.5012  -31.6279   24.5160 H   0  0  0  0  0  0
  -15.5354  -30.2992   23.7663 H   0  0  0  0  0  0
  -15.8680  -28.0825   22.7083 H   0  0  0  0  0  0
  -24.5861  -30.7154   25.7757 H   0  0  0  0  0  0
  -24.8908  -32.2959   26.4853 H   0  0  0  0  0  0
  -25.7981  -30.8947   27.0240 H   0  0  0  0  0  0
  -26.2979  -29.6754   24.1253 H   0  0  0  0  0  0
  -27.3966  -29.7283   25.4839 H   0  0  0  0  0  0
  -27.8887  -30.4274   23.9599 H   0  0  0  0  0  0
  -27.2663  -33.3661   26.2068 H   0  0  0  0  0  0
  -28.3852  -32.6926   25.0314 H   0  0  0  0  0  0
  -28.0744  -31.8499   26.5418 H   0  0  0  0  0  0
  -28.2590  -38.0084   24.7520 H   0  0  0  0  0  0
  -28.1075  -36.2612   24.6273 H   0  0  0  0  0  0
  -27.2292  -37.1408   25.8867 H   0  0  0  0  0  0
  -20.9437  -29.8721   21.6830 H   0  0  0  0  0  0
  -26.0153  -38.2825   24.1446 H   0  0  0  0  0  0
  -28.1854  -18.4149   20.6881 H   0  0  0  0  0  0
  -32.3048  -19.5790   19.9791 H   0  0  0  0  0  0
  -31.0230  -23.2448   19.0047 H   0  0  0  0  0  0
  -30.4735  -24.9039   18.9101 H   0  0  0  0  0  0
  -29.5867  -23.6422   18.0711 H   0  0  0  0  0  0
  -30.9261  -23.3680   21.6086 H   0  0  0  0  0  0
  -29.4524  -23.9196   22.3949 H   0  0  0  0  0  0
  -30.4245  -25.0434   21.4551 H   0  0  0  0  0  0
  -27.3171  -24.5896   20.9046 H   0  0  0  0  0  0
  -27.5441  -24.5852   19.1839 H   0  0  0  0  0  0
  -30.7638  -21.6088   20.1304 H   0  0  0  0  0  0
  -28.8338  -15.7308   20.7946 H   0  0  0  0  0  0
  1 25  1  0  0  0
  1 30  2  0  0  0
  1 81  1  0  0  0
  2  3  1  0  0  0
  2 25  1  0  0  0
  2 84  1  0  0  0
  2 85  1  0  0  0
  3  4  1  0  0  0
  3 86  1  0  0  0
  3 87  1  0  0  0
  4  5  1  0  0  0
  4 88  1  0  0  0
  4 89  1  0  0  0
  5  6  1  0  0  0
  5 26  1  0  0  0
  5 90  1  0  0  0
  6 25  1  0  0  0
  6 91  1  0  0  0
  6 92  1  0  0  0
  7  8  2  0  0  0
  7 26  1  0  0  0
  7 29  1  0  0  0
  8  9  1  0  0  0
  8 22  1  0  0  0
  9 10  1  0  0  0
  9 27  2  0  0  0
 10 11  2  0  0  0
 10 15  1  0  0  0
 11 12  1  0  0  0
 11 93  1  0  0  0
 12 13  2  0  0  0
 12 94  1  0  0  0
 13 14  1  0  0  0
 13 31  1  0  0  0
 14 15  2  0  0  0
 14 95  1  0  0  0
 15 96  1  0  0  0
 16 17  2  0  0  0
 16 21  1  0  0  0
 16 31  1  0  0  0
 17 18  1  0  0  0
 17 97  1  0  0  0
 18 19  2  0  0  0
 18 98  1  0  0  0
 19 20  1  0  0  0
 19 24  1  0  0  0
 20 21  2  0  0  0
 20 99  1  0  0  0
 21 23  1  0  0  0
 22 28  1  0  0  0
 22 32  2  0  0  0
 26 27  1  0  0  0
 28100  1  0  0  0
 28101  1  0  0  0
 29102  1  0  0  0
 29103  1  0  0  0
 33 34  1  0  0  0
 33 66  1  0  0  0
 33 70  2  0  0  0
 34 36  1  0  0  0
 34 59  1  0  0  0
 34104  1  0  0  0
 35 44  2  0  0  0
 35 45  1  0  0  0
 35 68  1  0  0  0
 36 56  1  0  0  0
 36105  1  0  0  0
 37 39  1  0  0  0
 37 47  1  0  0  0
 37 66  1  0  0  0
 37106  1  0  0  0
 38 43  2  0  0  0
 38 46  1  0  0  0
 38 47  1  0  0  0
 39 64  1  0  0  0
 39 67  2  0  0  0
 40 52  1  0  0  0
 40 53  2  0  0  0
 40 58  1  0  0  0
 41107  1  0  0  0
 41108  1  0  0  0
 41109  1  0  0  0
 41 48  1  0  0  0
 42 43  1  0  0  0
 42 66  1  0  0  0
 42110  1  0  0  0
 42111  1  0  0  0
 43 44  1  0  0  0
 44112  1  0  0  0
 45 46  2  0  0  0
 45113  1  0  0  0
 46114  1  0  0  0
 47115  1  0  0  0
 47116  1  0  0  0
 48 56  1  0  0  0
 48 65  1  0  0  0
 48117  1  0  0  0
 49 50  1  0  0  0
 49 53  1  0  0  0
 49 64  1  0  0  0
 49118  1  0  0  0
 50 51  1  0  0  0
 50119  1  0  0  0
 50120  1  0  0  0
 51 52  1  0  0  0
 51121  1  0  0  0
 51122  1  0  0  0
 52123  1  0  0  0
 52124  1  0  0  0
 53 54  1  0  0  0
 54 55  2  0  0  0
 54125  1  0  0  0
 55 57  1  0  0  0
 55126  1  0  0  0
 56 69  2  0  0  0
 57 58  2  0  0  0
 57127  1  0  0  0
 58128  1  0  0  0
 59 60  1  0  0  0
 59 61  1  0  0  0
 59 62  1  0  0  0
 60129  1  0  0  0
 60130  1  0  0  0
 60131  1  0  0  0
 61132  1  0  0  0
 61133  1  0  0  0
 61134  1  0  0  0
 62135  1  0  0  0
 62136  1  0  0  0
 62137  1  0  0  0
 63 65  1  0  0  0
 63138  1  0  0  0
 63139  1  0  0  0
 63140  1  0  0  0
 64141  1  0  0  0
 65142  1  0  0  0
 68 78  1  0  0  0
 71 73  1  0  0  0
 71 74  2  0  0  0
 71143  1  0  0  0
 72 73  2  0  0  0
 72 83  1  0  0  0
 72144  1  0  0  0
 73 80  1  0  0  0
 74 81  1  0  0  0
 74 83  1  0  0  0
 75 79  1  0  0  0
 75 80  1  0  0  0
 75 82  2  0  0  0
 76145  1  0  0  0
 76146  1  0  0  0
 76147  1  0  0  0
 76 79  1  0  0  0
 77 79  1  0  0  0
 77148  1  0  0  0
 77149  1  0  0  0
 77150  1  0  0  0
 78 79  1  0  0  0
 78151  1  0  0  0
 78152  1  0  0  0
 80153  1  0  0  0
 81154  1  0  0  0
M  ISO  4   1 100  68 101  78 101  81 100
M  END
> <chiral flag>
0

> <version>
0

> <s_m_source_file>
/data/baiqing/PycharmProjects/Reinvent-master-3.2/result/LINK_invent/BTK/process_docking_weight1_custom_product_contain_oxygen_bond_distance_aromatic_linkinvent_7_9_3/rearranged_h_0148.sdf

> <i_m_source_file_index>
41

> <r_mmod_Potential_Energy-OPLS-2005>
206.306869506836

> <r_mmod_Stretch_Energy-OPLS-2005>
147.025253295898

> <r_mmod_Bend_Energy-OPLS-2005>
226.50553894043

> <r_mmod_Torsional_Energy-OPLS-2005>
233.691436767578

> <r_mmod_Improper_Torsional_Energy-OPLS-2005>
4.74644994735718

> <r_mmod_Van_der_Waal_Energy-OPLS-2005>
117.495346069336

> <r_mmod_Electrostatic_Energy-OPLS-2005>
-394.085968017578

> <r_mmod_Solvation_Energy-OPLS-2005>
-237.824066162109

> <b_mmod_Minimization_Converged-OPLS-2005>
0

> <r_mmod_RMS_Derivative-OPLS-2005>
1.8459141254425

$$$$
41
                    3D
 Structure written by MMmdl.
160169  0  0  1  0            999 V2000
  -30.5800  -14.7268   20.4791 C   0  0  0  0  0  0
  -30.4488  -12.4456   19.4630 C   0  0  0  0  0  0
  -29.5135  -12.5128   18.2328 C   0  0  0  0  0  0
  -28.0381  -12.3359   18.6463 C   0  0  0  0  0  0
  -27.6478  -13.2210   19.8594 C   0  0  2  0  0  0
  -28.6957  -13.1098   20.9901 C   0  0  0  0  0  0
  -25.2505  -13.8138   20.5665 C   0  0  0  0  0  0
  -24.1789  -13.0397   20.9162 C   0  0  0  0  0  0
  -24.6389  -11.6884   20.8729 C   0  0  0  0  0  0
  -23.9062  -10.4272   21.0397 C   0  0  0  0  0  0
  -24.3613   -9.4193   21.9179 C   0  0  0  0  0  0
  -23.6283   -8.2234   22.0752 C   0  0  0  0  0  0
  -22.4266   -8.0272   21.3539 C   0  0  0  0  0  0
  -21.9900   -9.0247   20.4643 C   0  0  0  0  0  0
  -22.7231  -10.2124   20.3048 C   0  0  0  0  0  0
  -21.6854   -6.0728   22.5277 C   0  0  0  0  0  0
  -21.4015   -6.5636   23.8209 C   0  0  0  0  0  0
  -21.3656   -5.6788   24.9170 C   0  0  0  0  0  0
  -21.6044   -4.3049   24.7223 C   0  0  0  0  0  0
  -21.8821   -3.8141   23.4345 C   0  0  0  0  0  0
  -21.9193   -4.6955   22.3402 C   0  0  0  0  0  0
  -22.7817  -13.5193   21.1841 C   0  0  0  0  0  0
  -22.1660   -4.2140   21.0980 F   0  0  0  0  0  0
  -21.5628   -3.4537   25.7735 F   0  0  0  0  0  0
  -30.0031  -13.4783   20.4223 N   0  0  0  0  0  0
  -26.2963  -12.9348   20.3320 N   0  0  0  0  0  0
  -25.9327  -11.6500   20.5770 N   0  0  0  0  0  0
  -22.0479  -12.8193   22.0420 N   0  0  0  0  0  0
  -25.4106  -15.1860   20.4119 N   0  0  0  0  0  0
  -31.7514  -14.8990   20.1274 O   0  0  0  0  0  0
  -21.6635   -6.8868   21.4235 O   0  0  0  0  0  0
  -22.3498  -14.5507   20.6708 O   0  0  0  0  0  0
  -24.6293  -31.8558   23.1990 C   0  0  0  0  0  0
  -25.9122  -32.4760   23.8337 C   0  0  1  0  0  0
  -27.2298  -27.2878   20.1298 C   0  0  0  0  0  0
  -25.5923  -33.8561   24.2258 N   0  0  0  0  0  0
  -23.4272  -30.4765   21.5413 C   0  0  2  0  0  0
  -24.8795  -28.9228   20.1147 C   0  0  0  0  0  0
  -22.7498  -29.4600   22.4916 C   0  0  0  0  0  0
  -18.0292  -28.1381   22.8483 C   0  0  0  0  0  0
  -24.1489  -36.7290   23.2640 C   0  0  0  0  0  0
  -25.9710  -30.7755   21.3774 C   0  0  0  0  0  0
  -26.0488  -29.3975   20.7256 C   0  0  0  0  0  0
  -27.2308  -28.5902   20.7274 C   0  0  0  0  0  0
  -26.0423  -26.8691   19.4999 C   0  0  0  0  0  0
  -24.8783  -27.6636   19.4930 C   0  0  0  0  0  0
  -23.6477  -29.8070   20.1589 C   0  0  0  0  0  0
  -25.4115  -36.3072   24.0326 C   0  0  1  0  0  0
  -20.5897  -28.3691   23.1269 C   0  0  2  0  0  0
  -20.6779  -26.9408   22.5406 C   0  0  0  0  0  0
  -19.5757  -26.6380   21.5206 C   0  0  0  0  0  0
  -18.1938  -26.7921   22.1622 C   0  0  0  0  0  0
  -19.1546  -28.8853   23.2872 C   0  0  0  0  0  0
  -18.9467  -30.1453   23.8890 C   0  0  0  0  0  0
  -17.6466  -30.6583   24.0562 C   0  0  0  0  0  0
  -25.9053  -34.9441   23.5096 C   0  0  0  0  0  0
  -16.5357  -29.9081   23.6332 C   0  0  0  0  0  0
  -16.7279  -28.6499   23.0352 C   0  0  0  0  0  0
  -26.4496  -31.6581   25.0718 C   0  0  0  0  0  0
  -25.3725  -31.3739   26.1445 C   0  0  0  0  0  0
  -27.0342  -30.2997   24.6198 C   0  0  0  0  0  0
  -27.6047  -32.4328   25.7493 C   0  0  0  0  0  0
  -27.5576  -37.1802   24.8467 C   0  0  0  0  0  0
  -21.4207  -29.3035   22.3654 N   0  0  0  0  0  0
  -26.4291  -37.3767   23.9405 N   0  0  0  0  0  0
  -24.6946  -31.0537   22.0959 N   0  0  0  0  0  0
  -23.4197  -28.8147   23.3023 O   0  0  0  0  0  0
  -28.2982  -26.3730   20.1180 O   0  0  0  0  0  0
  -26.5631  -34.8913   22.4667 O   0  0  0  0  0  0
  -23.5445  -32.1371   23.7290 O   0  0  0  0  0  0
  -30.8345  -18.1169   20.4712 C   0  0  0  0  0  0
  -28.3511  -19.3259   20.8746 C   0  0  0  0  0  0
  -30.7121  -19.5595   20.5010 C   0  0  0  0  0  0
  -29.4483  -20.2234   20.7391 C   0  0  0  0  0  0
  -29.7286  -17.2439   20.6774 C   0  0  0  0  0  0
  -28.4858  -17.9052   20.8503 C   0  0  0  0  0  0
  -28.6194  -24.0444   21.2198 C   0  0  0  0  0  0
  -28.3284  -25.4035   21.1390 C   0  0  0  0  0  0
  -31.9653  -20.3102   20.3201 C   0  0  0  0  0  0
  -28.6315  -23.4004   22.5910 C   0  0  0  0  0  0
  -28.9915  -22.8682   20.2441 C   0  0  0  0  0  0
  -28.7329  -21.8817   22.4012 C   0  0  0  0  0  0
  -29.2825  -21.6369   21.0720 N   0  0  0  0  0  0
  -33.0608  -19.9745   21.0030 N   0  0  0  0  0  0
  -29.7194  -15.7649   20.7670 N   0  0  0  0  0  0
  -32.0556  -21.3085   19.4413 N   0  3  0  0  0  0
  -27.3816  -17.1415   21.0305 F   0  0  0  0  0  0
  -31.4853  -12.5951   19.1567 H   0  0  0  0  0  0
  -30.4120  -11.4583   19.9261 H   0  0  0  0  0  0
  -29.7911  -11.7475   17.5071 H   0  0  0  0  0  0
  -29.6388  -13.4722   17.7272 H   0  0  0  0  0  0
  -27.8913  -11.2843   18.8967 H   0  0  0  0  0  0
  -27.3798  -12.5411   17.8013 H   0  0  0  0  0  0
  -27.6491  -14.2493   19.4978 H   0  0  0  0  0  0
  -28.7282  -12.0934   21.3859 H   0  0  0  0  0  0
  -28.4283  -13.7492   21.8330 H   0  0  0  0  0  0
  -25.2763   -9.5669   22.4750 H   0  0  0  0  0  0
  -23.9989   -7.4626   22.7478 H   0  0  0  0  0  0
  -21.0826   -8.8767   19.8955 H   0  0  0  0  0  0
  -22.3687  -10.9663   19.6157 H   0  0  0  0  0  0
  -21.2012   -7.6145   23.9709 H   0  0  0  0  0  0
  -21.1475   -6.0519   25.9072 H   0  0  0  0  0  0
  -22.0604   -2.7600   23.2851 H   0  0  0  0  0  0
  -22.4104  -11.9851   22.4796 H   0  0  0  0  0  0
  -21.1110  -13.1228   22.2660 H   0  0  0  0  0  0
  -24.6422  -15.8290   20.5630 H   0  0  0  0  0  0
  -26.2820  -15.6648   20.2206 H   0  0  0  0  0  0
  -26.7187  -32.5427   23.1083 H   0  0  0  0  0  0
  -25.0059  -33.9699   25.0396 H   0  0  0  0  0  0
  -22.7228  -31.2977   21.3927 H   0  0  0  0  0  0
  -23.3738  -35.9638   23.3319 H   0  0  0  0  0  0
  -24.3568  -36.8894   22.2051 H   0  0  0  0  0  0
  -23.7260  -37.6503   23.6654 H   0  0  0  0  0  0
  -26.1048  -31.5347   20.6055 H   0  0  0  0  0  0
  -26.8498  -30.8289   22.0084 H   0  0  0  0  0  0
  -28.1294  -28.9476   21.2105 H   0  0  0  0  0  0
  -26.0137  -25.8966   19.0284 H   0  0  0  0  0  0
  -23.9833  -27.2918   19.0137 H   0  0  0  0  0  0
  -23.7708  -30.5816   19.4011 H   0  0  0  0  0  0
  -22.7679  -29.2373   19.8543 H   0  0  0  0  0  0
  -25.1297  -36.1922   25.0819 H   0  0  0  0  0  0
  -20.9989  -28.3268   24.1391 H   0  0  0  0  0  0
  -20.5669  -26.2302   23.3611 H   0  0  0  0  0  0
  -21.6649  -26.7424   22.1207 H   0  0  0  0  0  0
  -19.6919  -25.6289   21.1236 H   0  0  0  0  0  0
  -19.6697  -27.3192   20.6737 H   0  0  0  0  0  0
  -17.4204  -26.6660   21.4029 H   0  0  0  0  0  0
  -18.0348  -26.0065   22.9023 H   0  0  0  0  0  0
  -19.7944  -30.7267   24.2261 H   0  0  0  0  0  0
  -17.5021  -31.6260   24.5169 H   0  0  0  0  0  0
  -15.5357  -30.2980   23.7659 H   0  0  0  0  0  0
  -15.8680  -28.0815   22.7071 H   0  0  0  0  0  0
  -24.5886  -30.7103   25.7775 H   0  0  0  0  0  0
  -24.8938  -32.2919   26.4867 H   0  0  0  0  0  0
  -25.8044  -30.8912   27.0220 H   0  0  0  0  0  0
  -26.2923  -29.6743   24.1214 H   0  0  0  0  0  0
  -27.4015  -29.7260   25.4716 H   0  0  0  0  0  0
  -27.8805  -30.4268   23.9443 H   0  0  0  0  0  0
  -27.2640  -33.3621   26.2069 H   0  0  0  0  0  0
  -28.3858  -32.6898   25.0326 H   0  0  0  0  0  0
  -28.0713  -31.8456   26.5411 H   0  0  0  0  0  0
  -28.2606  -38.0085   24.7483 H   0  0  0  0  0  0
  -28.1056  -36.2612   24.6327 H   0  0  0  0  0  0
  -27.2287  -37.1495   25.8868 H   0  0  0  0  0  0
  -20.9393  -29.8747   21.6848 H   0  0  0  0  0  0
  -26.0169  -38.2844   24.1393 H   0  0  0  0  0  0
  -31.8082  -17.6756   20.3103 H   0  0  0  0  0  0
  -27.3651  -19.7207   21.0619 H   0  0  0  0  0  0
  -28.1076  -25.9053   22.0720 H   0  0  0  0  0  0
  -27.7548  -23.6774   23.1786 H   0  0  0  0  0  0
  -29.5120  -23.7616   23.1242 H   0  0  0  0  0  0
  -29.8526  -23.1516   19.6384 H   0  0  0  0  0  0
  -28.1546  -22.6770   19.5707 H   0  0  0  0  0  0
  -27.7367  -21.4438   22.4814 H   0  0  0  0  0  0
  -29.3510  -21.4295   23.1794 H   0  0  0  0  0  0
  -33.0003  -19.2576   21.7120 H   0  0  0  0  0  0
  -33.9436  -20.4477   20.8900 H   0  0  0  0  0  0
  -28.8073  -15.4159   21.0185 H   0  0  0  0  0  0
  -31.2288  -21.5720   18.9273 H   0  0  0  0  0  0
  -32.9017  -21.8343   19.2918 H   0  0  0  0  0  0
  1 25  1  0  0  0
  1 30  2  0  0  0
  1 85  1  0  0  0
  2  3  1  0  0  0
  2 25  1  0  0  0
  2 88  1  0  0  0
  2 89  1  0  0  0
  3  4  1  0  0  0
  3 90  1  0  0  0
  3 91  1  0  0  0
  4  5  1  0  0  0
  4 92  1  0  0  0
  4 93  1  0  0  0
  5  6  1  0  0  0
  5 26  1  0  0  0
  5 94  1  0  0  0
  6 25  1  0  0  0
  6 95  1  0  0  0
  6 96  1  0  0  0
  7  8  2  0  0  0
  7 26  1  0  0  0
  7 29  1  0  0  0
  8  9  1  0  0  0
  8 22  1  0  0  0
  9 10  1  0  0  0
  9 27  2  0  0  0
 10 11  2  0  0  0
 10 15  1  0  0  0
 11 12  1  0  0  0
 11 97  1  0  0  0
 12 13  2  0  0  0
 12 98  1  0  0  0
 13 14  1  0  0  0
 13 31  1  0  0  0
 14 15  2  0  0  0
 14 99  1  0  0  0
 15100  1  0  0  0
 16 17  2  0  0  0
 16 21  1  0  0  0
 16 31  1  0  0  0
 17 18  1  0  0  0
 17101  1  0  0  0
 18 19  2  0  0  0
 18102  1  0  0  0
 19 20  1  0  0  0
 19 24  1  0  0  0
 20 21  2  0  0  0
 20103  1  0  0  0
 21 23  1  0  0  0
 22 28  1  0  0  0
 22 32  2  0  0  0
 26 27  1  0  0  0
 28104  1  0  0  0
 28105  1  0  0  0
 29106  1  0  0  0
 29107  1  0  0  0
 33 34  1  0  0  0
 33 66  1  0  0  0
 33 70  2  0  0  0
 34 36  1  0  0  0
 34 59  1  0  0  0
 34108  1  0  0  0
 35 44  2  0  0  0
 35 45  1  0  0  0
 35 68  1  0  0  0
 36 56  1  0  0  0
 36109  1  0  0  0
 37 39  1  0  0  0
 37 47  1  0  0  0
 37 66  1  0  0  0
 37110  1  0  0  0
 38 43  2  0  0  0
 38 46  1  0  0  0
 38 47  1  0  0  0
 39 64  1  0  0  0
 39 67  2  0  0  0
 40 52  1  0  0  0
 40 53  2  0  0  0
 40 58  1  0  0  0
 41111  1  0  0  0
 41112  1  0  0  0
 41113  1  0  0  0
 41 48  1  0  0  0
 42 43  1  0  0  0
 42 66  1  0  0  0
 42114  1  0  0  0
 42115  1  0  0  0
 43 44  1  0  0  0
 44116  1  0  0  0
 45 46  2  0  0  0
 45117  1  0  0  0
 46118  1  0  0  0
 47119  1  0  0  0
 47120  1  0  0  0
 48 56  1  0  0  0
 48 65  1  0  0  0
 48121  1  0  0  0
 49 50  1  0  0  0
 49 53  1  0  0  0
 49 64  1  0  0  0
 49122  1  0  0  0
 50 51  1  0  0  0
 50123  1  0  0  0
 50124  1  0  0  0
 51 52  1  0  0  0
 51125  1  0  0  0
 51126  1  0  0  0
 52127  1  0  0  0
 52128  1  0  0  0
 53 54  1  0  0  0
 54 55  2  0  0  0
 54129  1  0  0  0
 55 57  1  0  0  0
 55130  1  0  0  0
 56 69  2  0  0  0
 57 58  2  0  0  0
 57131  1  0  0  0
 58132  1  0  0  0
 59 60  1  0  0  0
 59 61  1  0  0  0
 59 62  1  0  0  0
 60133  1  0  0  0
 60134  1  0  0  0
 60135  1  0  0  0
 61136  1  0  0  0
 61137  1  0  0  0
 61138  1  0  0  0
 62139  1  0  0  0
 62140  1  0  0  0
 62141  1  0  0  0
 63 65  1  0  0  0
 63142  1  0  0  0
 63143  1  0  0  0
 63144  1  0  0  0
 64145  1  0  0  0
 65146  1  0  0  0
 68 78  1  0  0  0
 71 73  2  0  0  0
 71 75  1  0  0  0
 71147  1  0  0  0
 72 74  2  0  0  0
 72 76  1  0  0  0
 72148  1  0  0  0
 73 74  1  0  0  0
 73 79  1  0  0  0
 74 83  1  0  0  0
 75 76  2  0  0  0
 75 85  1  0  0  0
 76 87  1  0  0  0
 77 78  2  0  0  0
 77 80  1  0  0  0
 77 81  1  0  0  0
 78149  1  0  0  0
 79 84  1  0  0  0
 79 86  2  0  0  0
 80 82  1  0  0  0
 80150  1  0  0  0
 80151  1  0  0  0
 81 83  1  0  0  0
 81152  1  0  0  0
 81153  1  0  0  0
 82 83  1  0  0  0
 82154  1  0  0  0
 82155  1  0  0  0
 84156  1  0  0  0
 84157  1  0  0  0
 85158  1  0  0  0
 86159  1  0  0  0
 86160  1  0  0  0
M  CHG  1  86   1
M  ISO  4   1 100  68 101  78 101  85 100
M  END
> <chiral flag>
0

> <version>
0

> <s_m_source_file>
/data/baiqing/PycharmProjects/Reinvent-master-3.2/result/LINK_invent/BTK/process_docking_weight1_custom_product_contain_oxygen_bond_distance_aromatic_linkinvent_7_9_3/rearranged_h_0148.sdf

> <i_m_source_file_index>
42

> <r_mmod_Potential_Energy-OPLS-2005>
30.0478610992432

> <r_mmod_Stretch_Energy-OPLS-2005>
99.423095703125

> <r_mmod_Bend_Energy-OPLS-2005>
244.125442504883

> <r_mmod_Torsional_Energy-OPLS-2005>
279.980834960938

> <r_mmod_Improper_Torsional_Energy-OPLS-2005>
8.13953399658203

> <r_mmod_Van_der_Waal_Energy-OPLS-2005>
133.095977783203

> <r_mmod_Electrostatic_Energy-OPLS-2005>
-389.67041015625

> <r_mmod_Solvation_Energy-OPLS-2005>
-421.319122314453

> <b_mmod_Minimization_Converged-OPLS-2005>
0

> <r_mmod_RMS_Derivative-OPLS-2005>
0.852353155612946

$$$$
42
                    3D
 Structure written by MMmdl.
170179  0  0  1  0            999 V2000
  -30.6575  -14.5536   20.5852 C   0  0  0  0  0  0
  -30.4433  -12.3585   19.4405 C   0  0  0  0  0  0
  -29.5100  -12.5235   18.2201 C   0  0  0  0  0  0
  -28.0314  -12.3635   18.6285 C   0  0  0  0  0  0
  -27.6647  -13.2090   19.8771 C   0  0  2  0  0  0
  -28.7055  -12.9981   21.0014 C   0  0  0  0  0  0
  -25.2553  -13.8111   20.5615 C   0  0  0  0  0  0
  -24.1824  -13.0395   20.9154 C   0  0  0  0  0  0
  -24.6401  -11.6874   20.8721 C   0  0  0  0  0  0
  -23.9062  -10.4267   21.0395 C   0  0  0  0  0  0
  -24.3606   -9.4187   21.9182 C   0  0  0  0  0  0
  -23.6278   -8.2226   22.0756 C   0  0  0  0  0  0
  -22.4261   -8.0268   21.3544 C   0  0  0  0  0  0
  -21.9897   -9.0241   20.4647 C   0  0  0  0  0  0
  -22.7230  -10.2115   20.3050 C   0  0  0  0  0  0
  -21.6851   -6.0724   22.5275 C   0  0  0  0  0  0
  -21.4015   -6.5627   23.8208 C   0  0  0  0  0  0
  -21.3659   -5.6780   24.9171 C   0  0  0  0  0  0
  -21.6043   -4.3042   24.7224 C   0  0  0  0  0  0
  -21.8820   -3.8138   23.4342 C   0  0  0  0  0  0
  -21.9193   -4.6953   22.3399 C   0  0  0  0  0  0
  -22.7850  -13.5208   21.1828 C   0  0  0  0  0  0
  -22.1664   -4.2139   21.0976 F   0  0  0  0  0  0
  -21.5629   -3.4529   25.7737 F   0  0  0  0  0  0
  -30.0378  -13.3391   20.4646 N   0  0  0  0  0  0
  -26.3034  -12.9317   20.3349 N   0  0  0  0  0  0
  -25.9339  -11.6474   20.5760 N   0  0  0  0  0  0
  -22.0482  -12.8218   22.0388 N   0  0  0  0  0  0
  -25.4164  -15.1810   20.3940 N   0  0  0  0  0  0
  -31.7462  -14.7979   20.0558 O   0  0  0  0  0  0
  -21.6626   -6.8864   21.4238 O   0  0  0  0  0  0
  -22.3538  -14.5523   20.6684 O   0  0  0  0  0  0
  -24.6211  -31.8632   23.2065 C   0  0  0  0  0  0
  -25.9079  -32.4797   23.8373 C   0  0  1  0  0  0
  -27.2290  -27.3606   20.1064 C   0  0  0  0  0  0
  -25.5910  -33.8596   24.2295 N   0  0  0  0  0  0
  -23.4132  -30.4872   21.5490 C   0  0  2  0  0  0
  -24.8605  -28.9494   20.1139 C   0  0  0  0  0  0
  -22.7449  -29.4634   22.4963 C   0  0  0  0  0  0
  -18.0279  -28.1389   22.8490 C   0  0  0  0  0  0
  -24.1492  -36.7301   23.2634 C   0  0  0  0  0  0
  -25.9513  -30.8052   21.3738 C   0  0  0  0  0  0
  -26.0278  -29.4370   20.7148 C   0  0  0  0  0  0
  -27.2162  -28.6541   20.7020 C   0  0  0  0  0  0
  -26.0391  -26.9179   19.4826 C   0  0  0  0  0  0
  -24.8660  -27.6931   19.4904 C   0  0  0  0  0  0
  -23.6266  -29.8240   20.1636 C   0  0  0  0  0  0
  -25.4117  -36.3096   24.0326 C   0  0  1  0  0  0
  -20.5876  -28.3680   23.1306 C   0  0  2  0  0  0
  -20.6770  -26.9412   22.5413 C   0  0  0  0  0  0
  -19.5750  -26.6405   21.5206 C   0  0  0  0  0  0
  -18.1929  -26.7937   22.1620 C   0  0  0  0  0  0
  -19.1531  -28.8851   23.2897 C   0  0  0  0  0  0
  -18.9455  -30.1455   23.8913 C   0  0  0  0  0  0
  -17.6457  -30.6592   24.0571 C   0  0  0  0  0  0
  -25.9047  -34.9463   23.5111 C   0  0  0  0  0  0
  -16.5350  -29.9094   23.6330 C   0  0  0  0  0  0
  -16.7268  -28.6510   23.0350 C   0  0  0  0  0  0
  -26.4482  -31.6597   25.0727 C   0  0  0  0  0  0
  -25.3725  -31.3732   26.1461 C   0  0  0  0  0  0
  -27.0312  -30.3021   24.6154 C   0  0  0  0  0  0
  -27.6052  -32.4326   25.7487 C   0  0  0  0  0  0
  -27.5586  -37.1804   24.8455 C   0  0  0  0  0  0
  -21.4165  -29.3043   22.3708 N   0  0  0  0  0  0
  -26.4295  -37.3789   23.9406 N   0  0  0  0  0  0
  -24.6804  -31.0672   22.1006 N   0  0  0  0  0  0
  -23.4190  -28.8160   23.3020 O   0  0  0  0  0  0
  -28.3598  -26.5407   20.1388 O   0  0  0  0  0  0
  -26.5621  -34.8917   22.4681 O   0  0  0  0  0  0
  -23.5386  -32.1418   23.7412 O   0  0  0  0  0  0
  -30.3846  -17.9051   20.6594 C   0  0  0  0  0  0
  -28.2394  -18.8527   20.6579 C   0  0  0  0  0  0
  -29.5710  -19.0976   20.4666 C   0  0  0  0  0  0
  -29.6518  -16.7743   21.0122 C   0  0  0  0  0  0
  -30.0662  -20.4296   19.9837 C   0  0  0  0  0  0
  -29.0659  -23.2482   21.9254 C   0  0  0  0  0  0
  -28.5848  -21.8962   21.3899 C   0  0  0  0  0  0
  -29.7653  -22.9868   19.6206 C   0  0  2  0  0  0
  -29.3542  -24.1265   20.6749 C   0  0  1  0  0  0
  -29.5199  -24.3973   17.4759 C   0  0  0  0  0  0
  -29.4004  -21.9258   17.2514 C   0  0  0  0  0  0
  -30.5970  -25.7346   22.0437 C   0  0  0  0  0  0
  -28.1218  -25.1071   20.3683 C   0  0  0  0  0  0
  -29.1062  -23.1008   18.2027 C   0  0  0  0  0  0
  -29.4945  -21.6573   20.2754 N   0  0  0  0  0  0
  -29.9817  -15.4743   21.3159 N   0  0  0  0  0  0
  -31.1479  -20.3879   19.1903 N   0  3  0  0  0  0
  -30.5288  -24.9298   20.8654 O   0  0  0  0  0  0
  -27.9651  -17.2126   21.1654 S   0  0  0  0  0  0
  -31.4866  -12.4811   19.1431 H   0  0  0  0  0  0
  -30.3690  -11.3473   19.8434 H   0  0  0  0  0  0
  -29.7662  -11.7926   17.4514 H   0  0  0  0  0  0
  -29.6619  -13.5069   17.7716 H   0  0  0  0  0  0
  -27.8581  -11.3069   18.8362 H   0  0  0  0  0  0
  -27.3786  -12.6197   17.7934 H   0  0  0  0  0  0
  -27.7051  -14.2561   19.5749 H   0  0  0  0  0  0
  -28.6987  -11.9573   21.3291 H   0  0  0  0  0  0
  -28.4388  -13.5745   21.8876 H   0  0  0  0  0  0
  -25.2753   -9.5664   22.4751 H   0  0  0  0  0  0
  -23.9986   -7.4619   22.7475 H   0  0  0  0  0  0
  -21.0827   -8.8761   19.8954 H   0  0  0  0  0  0
  -22.3696  -10.9648   19.6149 H   0  0  0  0  0  0
  -21.2010   -7.6135   23.9710 H   0  0  0  0  0  0
  -21.1483   -6.0509   25.9073 H   0  0  0  0  0  0
  -22.0603   -2.7601   23.2842 H   0  0  0  0  0  0
  -22.4087  -11.9872   22.4770 H   0  0  0  0  0  0
  -21.1106  -13.1262   22.2591 H   0  0  0  0  0  0
  -24.6448  -15.8299   20.5019 H   0  0  0  0  0  0
  -26.2696  -15.6252   20.0801 H   0  0  0  0  0  0
  -26.7136  -32.5482   23.1115 H   0  0  0  0  0  0
  -25.0034  -33.9751   25.0421 H   0  0  0  0  0  0
  -22.7049  -31.3065   21.4090 H   0  0  0  0  0  0
  -23.3753  -35.9634   23.3298 H   0  0  0  0  0  0
  -24.3579  -36.8925   22.2046 H   0  0  0  0  0  0
  -23.7241  -37.6502   23.6655 H   0  0  0  0  0  0
  -26.0794  -31.5714   20.6079 H   0  0  0  0  0  0
  -26.8326  -30.8522   22.0019 H   0  0  0  0  0  0
  -28.1131  -29.0238   21.1788 H   0  0  0  0  0  0
  -25.9888  -25.9677   18.9747 H   0  0  0  0  0  0
  -23.9723  -27.3164   19.0126 H   0  0  0  0  0  0
  -23.7436  -30.6011   19.4076 H   0  0  0  0  0  0
  -22.7475  -29.2513   19.8627 H   0  0  0  0  0  0
  -25.1295  -36.1952   25.0817 H   0  0  0  0  0  0
  -20.9972  -28.3247   24.1426 H   0  0  0  0  0  0
  -20.5680  -26.2282   23.3599 H   0  0  0  0  0  0
  -21.6641  -26.7459   22.1205 H   0  0  0  0  0  0
  -19.6912  -25.6324   21.1218 H   0  0  0  0  0  0
  -19.6689  -27.3232   20.6749 H   0  0  0  0  0  0
  -17.4201  -26.6690   21.4020 H   0  0  0  0  0  0
  -18.0331  -26.0073   22.9011 H   0  0  0  0  0  0
  -19.7930  -30.7267   24.2295 H   0  0  0  0  0  0
  -17.5011  -31.6269   24.5177 H   0  0  0  0  0  0
  -15.5352  -30.3003   23.7643 H   0  0  0  0  0  0
  -15.8666  -28.0835   22.7061 H   0  0  0  0  0  0
  -24.5885  -30.7097   25.7793 H   0  0  0  0  0  0
  -24.8928  -32.2901   26.4897 H   0  0  0  0  0  0
  -25.8054  -30.8898   27.0227 H   0  0  0  0  0  0
  -26.2877  -29.6786   24.1171 H   0  0  0  0  0  0
  -27.4012  -29.7259   25.4646 H   0  0  0  0  0  0
  -27.8751  -30.4310   23.9369 H   0  0  0  0  0  0
  -27.2664  -33.3613   26.2087 H   0  0  0  0  0  0
  -28.3844  -32.6911   25.0306 H   0  0  0  0  0  0
  -28.0738  -31.8438   26.5379 H   0  0  0  0  0  0
  -28.2601  -38.0108   24.7527 H   0  0  0  0  0  0
  -28.1094  -36.2643   24.6260 H   0  0  0  0  0  0
  -27.2306  -37.1429   25.8859 H   0  0  0  0  0  0
  -20.9331  -29.8769   21.6929 H   0  0  0  0  0  0
  -26.0181  -38.2864   24.1419 H   0  0  0  0  0  0
  -31.4576  -17.9177   20.5308 H   0  0  0  0  0  0
  -27.3955  -19.5181   20.5372 H   0  0  0  0  0  0
  -29.9810  -23.0636   22.4892 H   0  0  0  0  0  0
  -28.3569  -23.6923   22.6236 H   0  0  0  0  0  0
  -27.5582  -21.9487   21.0265 H   0  0  0  0  0  0
  -28.6521  -21.1218   22.1538 H   0  0  0  0  0  0
  -30.8464  -23.0334   19.4912 H   0  0  0  0  0  0
  -29.3208  -25.2966   18.0539 H   0  0  0  0  0  0
  -28.9845  -24.5052   16.5321 H   0  0  0  0  0  0
  -30.5866  -24.3980   17.2492 H   0  0  0  0  0  0
  -29.0362  -20.9782   17.6487 H   0  0  0  0  0  0
  -30.4652  -21.8285   17.0394 H   0  0  0  0  0  0
  -28.9000  -22.0656   16.2928 H   0  0  0  0  0  0
  -31.4581  -26.3984   21.9707 H   0  0  0  0  0  0
  -30.7357  -25.1328   22.9413 H   0  0  0  0  0  0
  -29.7172  -26.3596   22.1897 H   0  0  0  0  0  0
  -27.4469  -25.0770   21.2241 H   0  0  0  0  0  0
  -27.5241  -24.6950   19.5650 H   0  0  0  0  0  0
  -28.0238  -23.0970   18.3214 H   0  0  0  0  0  0
  -29.2541  -15.0124   21.8408 H   0  0  0  0  0  0
  -31.5301  -19.4981   18.9107 H   0  0  0  0  0  0
  -31.6260  -21.2179   18.8809 H   0  0  0  0  0  0
  1 25  1  0  0  0
  1 30  2  0  0  0
  1 86  1  0  0  0
  2  3  1  0  0  0
  2 25  1  0  0  0
  2 90  1  0  0  0
  2 91  1  0  0  0
  3  4  1  0  0  0
  3 92  1  0  0  0
  3 93  1  0  0  0
  4  5  1  0  0  0
  4 94  1  0  0  0
  4 95  1  0  0  0
  5  6  1  0  0  0
  5 26  1  0  0  0
  5 96  1  0  0  0
  6 25  1  0  0  0
  6 97  1  0  0  0
  6 98  1  0  0  0
  7  8  2  0  0  0
  7 26  1  0  0  0
  7 29  1  0  0  0
  8  9  1  0  0  0
  8 22  1  0  0  0
  9 10  1  0  0  0
  9 27  2  0  0  0
 10 11  2  0  0  0
 10 15  1  0  0  0
 11 12  1  0  0  0
 11 99  1  0  0  0
 12 13  2  0  0  0
 12100  1  0  0  0
 13 14  1  0  0  0
 13 31  1  0  0  0
 14 15  2  0  0  0
 14101  1  0  0  0
 15102  1  0  0  0
 16 17  2  0  0  0
 16 21  1  0  0  0
 16 31  1  0  0  0
 17 18  1  0  0  0
 17103  1  0  0  0
 18 19  2  0  0  0
 18104  1  0  0  0
 19 20  1  0  0  0
 19 24  1  0  0  0
 20 21  2  0  0  0
 20105  1  0  0  0
 21 23  1  0  0  0
 22 28  1  0  0  0
 22 32  2  0  0  0
 26 27  1  0  0  0
 28106  1  0  0  0
 28107  1  0  0  0
 29108  1  0  0  0
 29109  1  0  0  0
 33 34  1  0  0  0
 33 66  1  0  0  0
 33 70  2  0  0  0
 34 36  1  0  0  0
 34 59  1  0  0  0
 34110  1  0  0  0
 35 44  2  0  0  0
 35 45  1  0  0  0
 35 68  1  0  0  0
 36 56  1  0  0  0
 36111  1  0  0  0
 37 39  1  0  0  0
 37 47  1  0  0  0
 37 66  1  0  0  0
 37112  1  0  0  0
 38 43  2  0  0  0
 38 46  1  0  0  0
 38 47  1  0  0  0
 39 64  1  0  0  0
 39 67  2  0  0  0
 40 52  1  0  0  0
 40 53  2  0  0  0
 40 58  1  0  0  0
 41113  1  0  0  0
 41114  1  0  0  0
 41115  1  0  0  0
 41 48  1  0  0  0
 42 43  1  0  0  0
 42 66  1  0  0  0
 42116  1  0  0  0
 42117  1  0  0  0
 43 44  1  0  0  0
 44118  1  0  0  0
 45 46  2  0  0  0
 45119  1  0  0  0
 46120  1  0  0  0
 47121  1  0  0  0
 47122  1  0  0  0
 48 56  1  0  0  0
 48 65  1  0  0  0
 48123  1  0  0  0
 49 50  1  0  0  0
 49 53  1  0  0  0
 49 64  1  0  0  0
 49124  1  0  0  0
 50 51  1  0  0  0
 50125  1  0  0  0
 50126  1  0  0  0
 51 52  1  0  0  0
 51127  1  0  0  0
 51128  1  0  0  0
 52129  1  0  0  0
 52130  1  0  0  0
 53 54  1  0  0  0
 54 55  2  0  0  0
 54131  1  0  0  0
 55 57  1  0  0  0
 55132  1  0  0  0
 56 69  2  0  0  0
 57 58  2  0  0  0
 57133  1  0  0  0
 58134  1  0  0  0
 59 60  1  0  0  0
 59 61  1  0  0  0
 59 62  1  0  0  0
 60135  1  0  0  0
 60136  1  0  0  0
 60137  1  0  0  0
 61138  1  0  0  0
 61139  1  0  0  0
 61140  1  0  0  0
 62141  1  0  0  0
 62142  1  0  0  0
 62143  1  0  0  0
 63 65  1  0  0  0
 63144  1  0  0  0
 63145  1  0  0  0
 63146  1  0  0  0
 64147  1  0  0  0
 65148  1  0  0  0
 68 83  1  0  0  0
 71 73  1  0  0  0
 71 74  2  0  0  0
 71149  1  0  0  0
 72 73  2  0  0  0
 72 89  1  0  0  0
 72150  1  0  0  0
 73 75  1  0  0  0
 74 86  1  0  0  0
 74 89  1  0  0  0
 75 85  1  0  0  0
 75 87  2  0  0  0
 76 77  1  0  0  0
 76 79  1  0  0  0
 76151  1  0  0  0
 76152  1  0  0  0
 77 85  1  0  0  0
 77153  1  0  0  0
 77154  1  0  0  0
 78 79  1  0  0  0
 78 84  1  0  0  0
 78 85  1  0  0  0
 78155  1  0  0  0
 79 83  1  0  0  0
 79 88  1  0  0  0
 80156  1  0  0  0
 80157  1  0  0  0
 80158  1  0  0  0
 80 84  1  0  0  0
 81 84  1  0  0  0
 81159  1  0  0  0
 81160  1  0  0  0
 81161  1  0  0  0
 82 88  1  0  0  0
 82162  1  0  0  0
 82163  1  0  0  0
 82164  1  0  0  0
 83165  1  0  0  0
 83166  1  0  0  0
 84167  1  0  0  0
 86168  1  0  0  0
 87169  1  0  0  0
 87170  1  0  0  0
M  CHG  1  87   1
M  ISO  4   1 100  68 101  83 101  86 100
M  END
> <chiral flag>
0

> <version>
0

> <s_m_source_file>
/data/baiqing/PycharmProjects/Reinvent-master-3.2/result/LINK_invent/BTK/process_docking_weight1_custom_product_contain_oxygen_bond_distance_aromatic_linkinvent_7_9_3/rearranged_h_0148.sdf

> <i_m_source_file_index>
43

> <r_mmod_Potential_Energy-OPLS-2005>
92.6676483154297

> <r_mmod_Stretch_Energy-OPLS-2005>
73.0100402832031

> <r_mmod_Bend_Energy-OPLS-2005>
186.131774902344

> <r_mmod_Torsional_Energy-OPLS-2005>
366.521118164062

> <r_mmod_Improper_Torsional_Energy-OPLS-2005>
5.5910530090332

> <r_mmod_Van_der_Waal_Energy-OPLS-2005>
136.604217529297

> <r_mmod_Electrostatic_Energy-OPLS-2005>
-266.675842285156

> <r_mmod_Solvation_Energy-OPLS-2005>
-436.752624511719

> <b_mmod_Minimization_Converged-OPLS-2005>
0

> <r_mmod_RMS_Derivative-OPLS-2005>
1.20601785182953

$$$$
43
                    3D
 Structure written by MMmdl.
161170  0  0  1  0            999 V2000
  -30.5099  -14.9298   20.4394 C   0  0  0  0  0  0
  -30.4495  -12.5776   19.4952 C   0  0  0  0  0  0
  -29.5292  -12.5502   18.2525 C   0  0  0  0  0  0
  -28.0574  -12.3368   18.6623 C   0  0  0  0  0  0
  -27.6371  -13.2460   19.8473 C   0  0  2  0  0  0
  -28.6792  -13.2251   20.9851 C   0  0  0  0  0  0
  -25.2498  -13.8213   20.5718 C   0  0  0  0  0  0
  -24.1802  -13.0438   20.9218 C   0  0  0  0  0  0
  -24.6408  -11.6921   20.8736 C   0  0  0  0  0  0
  -23.9083  -10.4292   21.0403 C   0  0  0  0  0  0
  -24.3631   -9.4200   21.9173 C   0  0  0  0  0  0
  -23.6305   -8.2237   22.0735 C   0  0  0  0  0  0
  -22.4279   -8.0276   21.3535 C   0  0  0  0  0  0
  -21.9922   -9.0258   20.4638 C   0  0  0  0  0  0
  -22.7258  -10.2139   20.3051 C   0  0  0  0  0  0
  -21.6853   -6.0737   22.5278 C   0  0  0  0  0  0
  -21.4015   -6.5640   23.8212 C   0  0  0  0  0  0
  -21.3664   -5.6790   24.9175 C   0  0  0  0  0  0
  -21.6051   -4.3052   24.7226 C   0  0  0  0  0  0
  -21.8823   -3.8151   23.4341 C   0  0  0  0  0  0
  -21.9184   -4.6966   22.3398 C   0  0  0  0  0  0
  -22.7823  -13.5222   21.1872 C   0  0  0  0  0  0
  -22.1660   -4.2150   21.0974 F   0  0  0  0  0  0
  -21.5619   -3.4535   25.7739 F   0  0  0  0  0  0
  -29.9598  -13.6516   20.4033 N   0  0  0  0  0  0
  -26.2921  -12.9446   20.3261 N   0  0  0  0  0  0
  -25.9344  -11.6569   20.5735 N   0  0  0  0  0  0
  -22.0458  -12.8226   22.0433 N   0  0  0  0  0  0
  -25.4152  -15.1954   20.4172 N   0  0  0  0  0  0
  -31.7003  -15.0469   20.1242 O   0  0  0  0  0  0
  -21.6631   -6.8886   21.4240 O   0  0  0  0  0  0
  -22.3502  -14.5513   20.6683 O   0  0  0  0  0  0
  -24.6436  -31.8462   23.1909 C   0  0  0  0  0  0
  -25.9202  -32.4703   23.8313 C   0  0  1  0  0  0
  -27.2105  -27.1363   20.1601 C   0  0  0  0  0  0
  -25.5954  -33.8517   24.2213 N   0  0  0  0  0  0
  -23.4486  -30.4671   21.5347 C   0  0  2  0  0  0
  -24.8990  -28.8931   20.1151 C   0  0  0  0  0  0
  -22.7570  -29.4573   22.4844 C   0  0  0  0  0  0
  -18.0314  -28.1403   22.8468 C   0  0  0  0  0  0
  -24.1491  -36.7253   23.2644 C   0  0  0  0  0  0
  -26.0071  -30.7142   21.3998 C   0  0  0  0  0  0
  -26.0751  -29.3268   20.7406 C   0  0  0  0  0  0
  -27.2351  -28.4631   20.7482 C   0  0  0  0  0  0
  -26.0206  -26.8179   19.4721 C   0  0  0  0  0  0
  -24.8820  -27.6495   19.4670 C   0  0  0  0  0  0
  -23.6782  -29.7978   20.1543 C   0  0  0  0  0  0
  -25.4127  -36.3042   24.0317 C   0  0  1  0  0  0
  -20.5927  -28.3737   23.1214 C   0  0  2  0  0  0
  -20.6798  -26.9436   22.5399 C   0  0  0  0  0  0
  -19.5781  -26.6385   21.5197 C   0  0  0  0  0  0
  -18.1958  -26.7948   22.1602 C   0  0  0  0  0  0
  -19.1572  -28.8884   23.2837 C   0  0  0  0  0  0
  -18.9488  -30.1470   23.8875 C   0  0  0  0  0  0
  -17.6490  -30.6596   24.0554 C   0  0  0  0  0  0
  -25.9081  -34.9410   23.5069 C   0  0  0  0  0  0
  -16.5377  -29.9086   23.6338 C   0  0  0  0  0  0
  -16.7301  -28.6503   23.0362 C   0  0  0  0  0  0
  -26.4522  -31.6589   25.0772 C   0  0  0  0  0  0
  -25.3696  -31.3781   26.1455 C   0  0  0  0  0  0
  -27.0411  -30.2979   24.6398 C   0  0  0  0  0  0
  -27.6041  -32.4379   25.7551 C   0  0  0  0  0  0
  -27.5591  -37.1781   24.8451 C   0  0  0  0  0  0
  -21.4266  -29.3064   22.3575 N   0  0  0  0  0  0
  -26.4290  -37.3755   23.9414 N   0  0  0  0  0  0
  -24.7188  -31.0304   22.0956 N   0  0  0  0  0  0
  -23.4201  -28.8109   23.2995 O   0  0  0  0  0  0
  -28.2538  -26.1399   20.1540 O   0  0  0  0  0  0
  -26.5649  -34.8897   22.4641 O   0  0  0  0  0  0
  -23.5547  -32.1348   23.7107 O   0  0  0  0  0  0
  -29.0693  -19.7559   21.8348 C   0  0  0  0  0  0
  -29.3125  -18.3292   21.8058 C   0  0  0  0  0  0
  -29.5049  -19.8915   19.5304 C   0  0  0  0  0  0
  -29.7570  -18.4421   19.4867 C   0  0  0  0  0  0
  -29.1327  -20.6357   20.7065 C   0  0  0  0  0  0
  -29.6755  -17.5730   20.6456 C   0  0  0  0  0  0
  -28.7553  -23.3486   20.1848 C   0  0  0  0  0  0
  -31.3847  -17.2602   17.8024 C   0  0  0  0  0  0
  -30.8896  -18.5027   17.1053 C   0  0  0  0  0  0
  -30.0266  -17.8211   18.1464 C   0  0  0  0  0  0
  -26.6767  -24.4173   21.2432 C   0  0  0  0  0  0
  -28.9251  -25.0308   22.1531 C   0  0  0  0  0  0
  -28.1388  -24.7474   20.8596 C   0  0  0  0  0  0
  -28.7602  -22.1168   20.8901 N   0  0  0  0  0  0
  -29.6570  -16.0363   20.6893 N   0  0  0  0  0  0
  -29.2052  -23.4034   19.0384 O   0  0  0  0  0  0
  -31.4831  -12.7446   19.1890 H   0  0  0  0  0  0
  -30.4431  -11.6136   20.0049 H   0  0  0  0  0  0
  -29.8491  -11.7680   17.5635 H   0  0  0  0  0  0
  -29.6254  -13.4925   17.7100 H   0  0  0  0  0  0
  -27.9416  -11.2898   18.9430 H   0  0  0  0  0  0
  -27.3996  -12.4959   17.8077 H   0  0  0  0  0  0
  -27.6144  -14.2607   19.4483 H   0  0  0  0  0  0
  -28.7626  -12.2290   21.4212 H   0  0  0  0  0  0
  -28.3821  -13.8900   21.7982 H   0  0  0  0  0  0
  -25.2778   -9.5685   22.4738 H   0  0  0  0  0  0
  -24.0009   -7.4640   22.7464 H   0  0  0  0  0  0
  -21.0840   -8.8800   19.8964 H   0  0  0  0  0  0
  -22.3715  -10.9674   19.6157 H   0  0  0  0  0  0
  -21.2010   -7.6149   23.9734 H   0  0  0  0  0  0
  -21.1481   -6.0504   25.9081 H   0  0  0  0  0  0
  -22.0593   -2.7604   23.2840 H   0  0  0  0  0  0
  -22.4057  -11.9914   22.4894 H   0  0  0  0  0  0
  -21.1065  -13.1253   22.2597 H   0  0  0  0  0  0
  -24.6427  -15.8442   20.5301 H   0  0  0  0  0  0
  -26.2598  -15.6438   20.0866 H   0  0  0  0  0  0
  -26.7267  -32.5291   23.1039 H   0  0  0  0  0  0
  -25.0098  -33.9648   25.0353 H   0  0  0  0  0  0
  -22.7513  -31.2930   21.3790 H   0  0  0  0  0  0
  -23.3777  -35.9562   23.3279 H   0  0  0  0  0  0
  -24.3570  -36.8919   22.2066 H   0  0  0  0  0  0
  -23.7227  -37.6426   23.6706 H   0  0  0  0  0  0
  -26.1805  -31.4724   20.6346 H   0  0  0  0  0  0
  -26.8693  -30.7507   22.0542 H   0  0  0  0  0  0
  -28.1344  -28.7899   21.2502 H   0  0  0  0  0  0
  -25.9542  -25.8751   18.9484 H   0  0  0  0  0  0
  -23.9884  -27.3183   18.9559 H   0  0  0  0  0  0
  -23.8199  -30.5728   19.4000 H   0  0  0  0  0  0
  -22.7932  -29.2434   19.8392 H   0  0  0  0  0  0
  -25.1325  -36.1869   25.0811 H   0  0  0  0  0  0
  -21.0032  -28.3341   24.1328 H   0  0  0  0  0  0
  -20.5680  -26.2358   23.3627 H   0  0  0  0  0  0
  -21.6667  -26.7437   22.1205 H   0  0  0  0  0  0
  -19.6941  -25.6279   21.1266 H   0  0  0  0  0  0
  -19.6728  -27.3152   20.6696 H   0  0  0  0  0  0
  -17.4233  -26.6692   21.3996 H   0  0  0  0  0  0
  -18.0352  -26.0090   22.9003 H   0  0  0  0  0  0
  -19.7965  -30.7273   24.2255 H   0  0  0  0  0  0
  -17.5049  -31.6276   24.5161 H   0  0  0  0  0  0
  -15.5377  -30.2978   23.7684 H   0  0  0  0  0  0
  -15.8701  -28.0803   22.7114 H   0  0  0  0  0  0
  -24.5785  -30.7263   25.7723 H   0  0  0  0  0  0
  -24.9001  -32.2981   26.4947 H   0  0  0  0  0  0
  -25.7944  -30.8839   27.0200 H   0  0  0  0  0  0
  -26.3055  -29.6670   24.1391 H   0  0  0  0  0  0
  -27.3980  -29.7312   25.5009 H   0  0  0  0  0  0
  -27.8985  -30.4203   23.9774 H   0  0  0  0  0  0
  -27.2596  -33.3634   26.2164 H   0  0  0  0  0  0
  -28.3819  -32.7029   25.0384 H   0  0  0  0  0  0
  -28.0760  -31.8524   26.5442 H   0  0  0  0  0  0
  -28.2573  -38.0116   24.7546 H   0  0  0  0  0  0
  -28.1134  -36.2650   24.6222 H   0  0  0  0  0  0
  -27.2316  -37.1345   25.8852 H   0  0  0  0  0  0
  -20.9474  -29.8765   21.6741 H   0  0  0  0  0  0
  -26.0160  -38.2820   24.1440 H   0  0  0  0  0  0
  -28.7875  -20.1815   22.7884 H   0  0  0  0  0  0
  -29.1701  -17.7898   22.7317 H   0  0  0  0  0  0
  -29.5614  -20.4443   18.6033 H   0  0  0  0  0  0
  -32.1783  -17.3775   18.5383 H   0  0  0  0  0  0
  -31.4165  -16.3426   17.2183 H   0  0  0  0  0  0
  -30.6080  -18.3959   16.0595 H   0  0  0  0  0  0
  -31.3874  -19.4350   17.3610 H   0  0  0  0  0  0
  -29.1528  -17.2772   17.7926 H   0  0  0  0  0  0
  -26.1830  -25.2467   21.7487 H   0  0  0  0  0  0
  -26.6225  -23.5756   21.9336 H   0  0  0  0  0  0
  -26.0837  -24.1384   20.3714 H   0  0  0  0  0  0
  -29.0401  -24.1458   22.7777 H   0  0  0  0  0  0
  -28.4250  -25.7891   22.7571 H   0  0  0  0  0  0
  -29.9248  -25.4003   21.9260 H   0  0  0  0  0  0
  -28.3999  -22.2897   21.8179 H   0  0  0  0  0  0
  -28.7758  -15.6866   21.0333 H   0  0  0  0  0  0
  1 25  1  0  0  0
  1 30  2  0  0  0
  1 85  1  0  0  0
  2  3  1  0  0  0
  2 25  1  0  0  0
  2 87  1  0  0  0
  2 88  1  0  0  0
  3  4  1  0  0  0
  3 89  1  0  0  0
  3 90  1  0  0  0
  4  5  1  0  0  0
  4 91  1  0  0  0
  4 92  1  0  0  0
  5  6  1  0  0  0
  5 26  1  0  0  0
  5 93  1  0  0  0
  6 25  1  0  0  0
  6 94  1  0  0  0
  6 95  1  0  0  0
  7  8  2  0  0  0
  7 26  1  0  0  0
  7 29  1  0  0  0
  8  9  1  0  0  0
  8 22  1  0  0  0
  9 10  1  0  0  0
  9 27  2  0  0  0
 10 11  2  0  0  0
 10 15  1  0  0  0
 11 12  1  0  0  0
 11 96  1  0  0  0
 12 13  2  0  0  0
 12 97  1  0  0  0
 13 14  1  0  0  0
 13 31  1  0  0  0
 14 15  2  0  0  0
 14 98  1  0  0  0
 15 99  1  0  0  0
 16 17  2  0  0  0
 16 21  1  0  0  0
 16 31  1  0  0  0
 17 18  1  0  0  0
 17100  1  0  0  0
 18 19  2  0  0  0
 18101  1  0  0  0
 19 20  1  0  0  0
 19 24  1  0  0  0
 20 21  2  0  0  0
 20102  1  0  0  0
 21 23  1  0  0  0
 22 28  1  0  0  0
 22 32  2  0  0  0
 26 27  1  0  0  0
 28103  1  0  0  0
 28104  1  0  0  0
 29105  1  0  0  0
 29106  1  0  0  0
 33 34  1  0  0  0
 33 66  1  0  0  0
 33 70  2  0  0  0
 34 36  1  0  0  0
 34 59  1  0  0  0
 34107  1  0  0  0
 35 44  2  0  0  0
 35 45  1  0  0  0
 35 68  1  0  0  0
 36 56  1  0  0  0
 36108  1  0  0  0
 37 39  1  0  0  0
 37 47  1  0  0  0
 37 66  1  0  0  0
 37109  1  0  0  0
 38 43  2  0  0  0
 38 46  1  0  0  0
 38 47  1  0  0  0
 39 64  1  0  0  0
 39 67  2  0  0  0
 40 52  1  0  0  0
 40 53  2  0  0  0
 40 58  1  0  0  0
 41110  1  0  0  0
 41111  1  0  0  0
 41112  1  0  0  0
 41 48  1  0  0  0
 42 43  1  0  0  0
 42 66  1  0  0  0
 42113  1  0  0  0
 42114  1  0  0  0
 43 44  1  0  0  0
 44115  1  0  0  0
 45 46  2  0  0  0
 45116  1  0  0  0
 46117  1  0  0  0
 47118  1  0  0  0
 47119  1  0  0  0
 48 56  1  0  0  0
 48 65  1  0  0  0
 48120  1  0  0  0
 49 50  1  0  0  0
 49 53  1  0  0  0
 49 64  1  0  0  0
 49121  1  0  0  0
 50 51  1  0  0  0
 50122  1  0  0  0
 50123  1  0  0  0
 51 52  1  0  0  0
 51124  1  0  0  0
 51125  1  0  0  0
 52126  1  0  0  0
 52127  1  0  0  0
 53 54  1  0  0  0
 54 55  2  0  0  0
 54128  1  0  0  0
 55 57  1  0  0  0
 55129  1  0  0  0
 56 69  2  0  0  0
 57 58  2  0  0  0
 57130  1  0  0  0
 58131  1  0  0  0
 59 60  1  0  0  0
 59 61  1  0  0  0
 59 62  1  0  0  0
 60132  1  0  0  0
 60133  1  0  0  0
 60134  1  0  0  0
 61135  1  0  0  0
 61136  1  0  0  0
 61137  1  0  0  0
 62138  1  0  0  0
 62139  1  0  0  0
 62140  1  0  0  0
 63 65  1  0  0  0
 63141  1  0  0  0
 63142  1  0  0  0
 63143  1  0  0  0
 64144  1  0  0  0
 65145  1  0  0  0
 68 83  1  0  0  0
 71 72  2  0  0  0
 71 75  1  0  0  0
 71146  1  0  0  0
 72 76  1  0  0  0
 72147  1  0  0  0
 73 74  1  0  0  0
 73 75  2  0  0  0
 73148  1  0  0  0
 74 76  2  0  0  0
 74 80  1  0  0  0
 75 84  1  0  0  0
 76 85  1  0  0  0
 77 83  1  0  0  0
 77 84  1  0  0  0
 77 86  2  0  0  0
 78 79  1  0  0  0
 78 80  1  0  0  0
 78149  1  0  0  0
 78150  1  0  0  0
 79 80  1  0  0  0
 79151  1  0  0  0
 79152  1  0  0  0
 80153  1  0  0  0
 81154  1  0  0  0
 81155  1  0  0  0
 81156  1  0  0  0
 81 83  1  0  0  0
 82 83  1  0  0  0
 82157  1  0  0  0
 82158  1  0  0  0
 82159  1  0  0  0
 84160  1  0  0  0
 85161  1  0  0  0
M  ISO  4   1 100  68 101  83 101  85 100
M  END
> <chiral flag>
0

> <version>
0

> <s_m_source_file>
/data/baiqing/PycharmProjects/Reinvent-master-3.2/result/LINK_invent/BTK/process_docking_weight1_custom_product_contain_oxygen_bond_distance_aromatic_linkinvent_7_9_3/rearranged_h_0148.sdf

> <i_m_source_file_index>
44

> <r_mmod_Potential_Energy-OPLS-2005>
492.000183105469

> <r_mmod_Stretch_Energy-OPLS-2005>
232.711380004883

> <r_mmod_Bend_Energy-OPLS-2005>
278.353057861328

> <r_mmod_Torsional_Energy-OPLS-2005>
314.511627197266

> <r_mmod_Improper_Torsional_Energy-OPLS-2005>
5.40793991088867

> <r_mmod_Van_der_Waal_Energy-OPLS-2005>
123.192573547363

> <r_mmod_Electrostatic_Energy-OPLS-2005>
-411.637725830078

> <r_mmod_Solvation_Energy-OPLS-2005>
-235.790588378906

> <b_mmod_Minimization_Converged-OPLS-2005>
0

> <r_mmod_RMS_Derivative-OPLS-2005>
2.47569632530212

$$$$
44
                    3D
 Structure written by MMmdl.
169178  0  0  1  0            999 V2000
  -30.7163  -14.5104   20.5594 C   0  0  0  0  0  0
  -30.4153  -12.3260   19.4377 C   0  0  0  0  0  0
  -29.4936  -12.4994   18.2135 C   0  0  0  0  0  0
  -28.0162  -12.3588   18.6261 C   0  0  0  0  0  0
  -27.6567  -13.2155   19.8706 C   0  0  2  0  0  0
  -28.7006  -13.0396   20.9979 C   0  0  0  0  0  0
  -25.2562  -13.8178   20.5687 C   0  0  0  0  0  0
  -24.1826  -13.0442   20.9186 C   0  0  0  0  0  0
  -24.6389  -11.6911   20.8735 C   0  0  0  0  0  0
  -23.9057  -10.4294   21.0399 C   0  0  0  0  0  0
  -24.3609   -9.4212   21.9177 C   0  0  0  0  0  0
  -23.6285   -8.2247   22.0752 C   0  0  0  0  0  0
  -22.4270   -8.0278   21.3541 C   0  0  0  0  0  0
  -21.9903   -9.0251   20.4641 C   0  0  0  0  0  0
  -22.7231  -10.2131   20.3049 C   0  0  0  0  0  0
  -21.6851   -6.0726   22.5273 C   0  0  0  0  0  0
  -21.4015   -6.5632   23.8204 C   0  0  0  0  0  0
  -21.3658   -5.6789   24.9168 C   0  0  0  0  0  0
  -21.6047   -4.3051   24.7223 C   0  0  0  0  0  0
  -21.8821   -3.8140   23.4345 C   0  0  0  0  0  0
  -21.9195   -4.6955   22.3400 C   0  0  0  0  0  0
  -22.7849  -13.5233   21.1847 C   0  0  0  0  0  0
  -22.1663   -4.2141   21.0977 F   0  0  0  0  0  0
  -21.5631   -3.4536   25.7737 F   0  0  0  0  0  0
  -30.0263  -13.3393   20.4359 N   0  0  0  0  0  0
  -26.3001  -12.9362   20.3357 N   0  0  0  0  0  0
  -25.9320  -11.6515   20.5772 N   0  0  0  0  0  0
  -22.0492  -12.8219   22.0399 N   0  0  0  0  0  0
  -25.4275  -15.1896   20.4085 N   0  0  0  0  0  0
  -31.8477  -14.6374   20.0856 O   0  0  0  0  0  0
  -21.6638   -6.8871   21.4235 O   0  0  0  0  0  0
  -22.3538  -14.5542   20.6699 O   0  0  0  0  0  0
  -24.6172  -31.8660   23.2075 C   0  0  0  0  0  0
  -25.9061  -32.4808   23.8378 C   0  0  1  0  0  0
  -27.2262  -27.4048   20.1001 C   0  0  0  0  0  0
  -25.5915  -33.8605   24.2314 N   0  0  0  0  0  0
  -23.4074  -30.4902   21.5482 C   0  0  2  0  0  0
  -24.8550  -28.9546   20.1126 C   0  0  0  0  0  0
  -22.7429  -29.4655   22.4970 C   0  0  0  0  0  0
  -18.0279  -28.1385   22.8496 C   0  0  0  0  0  0
  -24.1483  -36.7297   23.2643 C   0  0  0  0  0  0
  -25.9397  -30.8219   21.3671 C   0  0  0  0  0  0
  -26.0182  -29.4547   20.7131 C   0  0  0  0  0  0
  -27.2106  -28.6868   20.7057 C   0  0  0  0  0  0
  -26.0499  -26.9321   19.4847 C   0  0  0  0  0  0
  -24.8667  -27.6926   19.4947 C   0  0  0  0  0  0
  -23.6179  -29.8245   20.1625 C   0  0  0  0  0  0
  -25.4111  -36.3098   24.0334 C   0  0  1  0  0  0
  -20.5871  -28.3674   23.1307 C   0  0  2  0  0  0
  -20.6772  -26.9410   22.5412 C   0  0  0  0  0  0
  -19.5748  -26.6387   21.5215 C   0  0  0  0  0  0
  -18.1923  -26.7931   22.1625 C   0  0  0  0  0  0
  -19.1531  -28.8847   23.2893 C   0  0  0  0  0  0
  -18.9463  -30.1453   23.8906 C   0  0  0  0  0  0
  -17.6467  -30.6590   24.0571 C   0  0  0  0  0  0
  -25.9046  -34.9466   23.5124 C   0  0  0  0  0  0
  -16.5356  -29.9094   23.6336 C   0  0  0  0  0  0
  -16.7268  -28.6509   23.0356 C   0  0  0  0  0  0
  -26.4479  -31.6595   25.0715 C   0  0  0  0  0  0
  -25.3738  -31.3696   26.1455 C   0  0  0  0  0  0
  -27.0331  -30.3042   24.6106 C   0  0  0  0  0  0
  -27.6038  -32.4329   25.7486 C   0  0  0  0  0  0
  -27.5574  -37.1799   24.8473 C   0  0  0  0  0  0
  -21.4155  -29.3034   22.3708 N   0  0  0  0  0  0
  -26.4293  -37.3785   23.9410 N   0  0  0  0  0  0
  -24.6727  -31.0743   22.0989 N   0  0  0  0  0  0
  -23.4184  -28.8202   23.3030 O   0  0  0  0  0  0
  -28.3461  -26.5932   20.1095 O   0  0  0  0  0  0
  -26.5605  -34.8924   22.4682 O   0  0  0  0  0  0
  -23.5361  -32.1431   23.7455 O   0  0  0  0  0  0
  -32.3084  -18.5539   21.6577 C   0  0  0  0  0  0
  -31.3774  -19.6040   21.7445 C   0  0  0  0  0  0
  -31.8798  -17.2354   21.4225 C   0  0  0  0  0  0
  -29.5754  -18.0152   21.3211 C   0  0  0  0  0  0
  -29.9996  -19.3600   21.5631 C   0  0  0  0  0  0
  -30.5046  -16.9331   21.2504 C   0  0  0  0  0  0
  -29.0266  -20.4582   21.8204 C   0  0  0  0  0  0
  -29.9468  -23.7208   20.1936 C   0  0  0  0  0  0
  -30.0907  -22.1893   20.3272 C   0  0  0  0  0  0
  -28.5081  -24.0361   20.6330 C   0  0  2  0  0  0
  -28.3325  -22.9711   21.7944 C   0  0  0  0  0  0
  -27.5646  -23.7312   19.4420 C   0  0  0  0  0  0
  -26.8262  -22.7104   22.0689 C   0  0  0  0  0  0
  -28.9811  -23.4537   23.1158 C   0  0  0  0  0  0
  -28.3023  -25.5355   21.1006 C   0  0  0  0  0  0
  -29.0862  -21.7483   21.3278 N   0  0  0  0  0  0
  -30.0414  -15.5712   21.0746 N   0  0  0  0  0  0
  -28.0536  -20.1432   22.6688 N   0  3  0  0  0  0
  -31.4615  -12.4049   19.1372 H   0  0  0  0  0  0
  -30.3063  -11.3248   19.8588 H   0  0  0  0  0  0
  -29.7382  -11.7601   17.4494 H   0  0  0  0  0  0
  -29.6595  -13.4774   17.7582 H   0  0  0  0  0  0
  -27.8330  -11.3046   18.8375 H   0  0  0  0  0  0
  -27.3644  -12.6165   17.7904 H   0  0  0  0  0  0
  -27.6877  -14.2571   19.5502 H   0  0  0  0  0  0
  -28.6846  -12.0157   21.3743 H   0  0  0  0  0  0
  -28.4617  -13.6719   21.8537 H   0  0  0  0  0  0
  -25.2750   -9.5690   22.4751 H   0  0  0  0  0  0
  -23.9993   -7.4642   22.7475 H   0  0  0  0  0  0
  -21.0834   -8.8761   19.8948 H   0  0  0  0  0  0
  -22.3680  -10.9665   19.6155 H   0  0  0  0  0  0
  -21.2003   -7.6140   23.9703 H   0  0  0  0  0  0
  -21.1480   -6.0518   25.9070 H   0  0  0  0  0  0
  -22.0602   -2.7603   23.2846 H   0  0  0  0  0  0
  -22.4110  -11.9874   22.4775 H   0  0  0  0  0  0
  -21.1108  -13.1237   22.2607 H   0  0  0  0  0  0
  -24.6569  -15.8416   20.5073 H   0  0  0  0  0  0
  -26.2710  -15.6257   20.0585 H   0  0  0  0  0  0
  -26.7130  -32.5515   23.1135 H   0  0  0  0  0  0
  -25.0056  -33.9755   25.0457 H   0  0  0  0  0  0
  -22.6974  -31.3079   21.4084 H   0  0  0  0  0  0
  -23.3743  -35.9631   23.3324 H   0  0  0  0  0  0
  -24.3576  -36.8901   22.2055 H   0  0  0  0  0  0
  -23.7232  -37.6503   23.6657 H   0  0  0  0  0  0
  -26.0578  -31.5879   20.5992 H   0  0  0  0  0  0
  -26.8244  -30.8727   21.9900 H   0  0  0  0  0  0
  -28.1065  -29.0622   21.1796 H   0  0  0  0  0  0
  -26.0403  -25.9700   18.9968 H   0  0  0  0  0  0
  -23.9745  -27.3033   19.0237 H   0  0  0  0  0  0
  -23.7284  -30.6005   19.4040 H   0  0  0  0  0  0
  -22.7408  -29.2467   19.8661 H   0  0  0  0  0  0
  -25.1281  -36.1957   25.0823 H   0  0  0  0  0  0
  -20.9963  -28.3253   24.1430 H   0  0  0  0  0  0
  -20.5706  -26.2281   23.3600 H   0  0  0  0  0  0
  -21.6637  -26.7470   22.1188 H   0  0  0  0  0  0
  -19.6916  -25.6302   21.1237 H   0  0  0  0  0  0
  -19.6690  -27.3208   20.6752 H   0  0  0  0  0  0
  -17.4195  -26.6692   21.4022 H   0  0  0  0  0  0
  -18.0317  -26.0068   22.9018 H   0  0  0  0  0  0
  -19.7944  -30.7258   24.2283 H   0  0  0  0  0  0
  -17.5029  -31.6276   24.5163 H   0  0  0  0  0  0
  -15.5359  -30.2997   23.7665 H   0  0  0  0  0  0
  -15.8666  -28.0834   22.7069 H   0  0  0  0  0  0
  -24.5912  -30.7053   25.7777 H   0  0  0  0  0  0
  -24.8927  -32.2849   26.4918 H   0  0  0  0  0  0
  -25.8075  -30.8847   27.0210 H   0  0  0  0  0  0
  -26.2884  -29.6773   24.1192 H   0  0  0  0  0  0
  -27.4143  -29.7307   25.4564 H   0  0  0  0  0  0
  -27.8693  -30.4367   23.9235 H   0  0  0  0  0  0
  -27.2654  -33.3631   26.2063 H   0  0  0  0  0  0
  -28.3846  -32.6894   25.0314 H   0  0  0  0  0  0
  -28.0710  -31.8463   26.5408 H   0  0  0  0  0  0
  -28.2590  -38.0095   24.7518 H   0  0  0  0  0  0
  -28.1062  -36.2624   24.6300 H   0  0  0  0  0  0
  -27.2287  -37.1448   25.8874 H   0  0  0  0  0  0
  -20.9330  -29.8744   21.6911 H   0  0  0  0  0  0
  -26.0178  -38.2857   24.1423 H   0  0  0  0  0  0
  -33.3597  -18.7519   21.8128 H   0  0  0  0  0  0
  -31.7343  -20.5864   22.0173 H   0  0  0  0  0  0
  -32.6365  -16.4660   21.4148 H   0  0  0  0  0  0
  -28.5181  -17.8107   21.2210 H   0  0  0  0  0  0
  -30.1447  -24.0566   19.1753 H   0  0  0  0  0  0
  -30.6774  -24.2175   20.8321 H   0  0  0  0  0  0
  -31.1183  -21.9485   20.5882 H   0  0  0  0  0  0
  -29.8768  -21.7041   19.3734 H   0  0  0  0  0  0
  -27.6418  -22.6961   19.1082 H   0  0  0  0  0  0
  -27.7933  -24.3640   18.5845 H   0  0  0  0  0  0
  -26.5194  -23.9024   19.6951 H   0  0  0  0  0  0
  -26.2416  -23.6273   21.9982 H   0  0  0  0  0  0
  -26.6456  -22.3298   23.0737 H   0  0  0  0  0  0
  -26.3955  -22.0060   21.3564 H   0  0  0  0  0  0
  -28.4559  -24.3122   23.5348 H   0  0  0  0  0  0
  -30.0261  -23.7367   22.9917 H   0  0  0  0  0  0
  -28.9543  -22.6777   23.8806 H   0  0  0  0  0  0
  -29.0747  -25.7969   21.8239 H   0  0  0  0  0  0
  -27.3676  -25.5936   21.6618 H   0  0  0  0  0  0
  -29.0792  -15.3879   21.3119 H   0  0  0  0  0  0
  -28.0519  -19.2366   23.1097 H   0  0  0  0  0  0
  -27.3277  -20.8013   22.8901 H   0  0  0  0  0  0
  1 25  1  0  0  0
  1 30  2  0  0  0
  1 87  1  0  0  0
  2  3  1  0  0  0
  2 25  1  0  0  0
  2 89  1  0  0  0
  2 90  1  0  0  0
  3  4  1  0  0  0
  3 91  1  0  0  0
  3 92  1  0  0  0
  4  5  1  0  0  0
  4 93  1  0  0  0
  4 94  1  0  0  0
  5  6  1  0  0  0
  5 26  1  0  0  0
  5 95  1  0  0  0
  6 25  1  0  0  0
  6 96  1  0  0  0
  6 97  1  0  0  0
  7  8  2  0  0  0
  7 26  1  0  0  0
  7 29  1  0  0  0
  8  9  1  0  0  0
  8 22  1  0  0  0
  9 10  1  0  0  0
  9 27  2  0  0  0
 10 11  2  0  0  0
 10 15  1  0  0  0
 11 12  1  0  0  0
 11 98  1  0  0  0
 12 13  2  0  0  0
 12 99  1  0  0  0
 13 14  1  0  0  0
 13 31  1  0  0  0
 14 15  2  0  0  0
 14100  1  0  0  0
 15101  1  0  0  0
 16 17  2  0  0  0
 16 21  1  0  0  0
 16 31  1  0  0  0
 17 18  1  0  0  0
 17102  1  0  0  0
 18 19  2  0  0  0
 18103  1  0  0  0
 19 20  1  0  0  0
 19 24  1  0  0  0
 20 21  2  0  0  0
 20104  1  0  0  0
 21 23  1  0  0  0
 22 28  1  0  0  0
 22 32  2  0  0  0
 26 27  1  0  0  0
 28105  1  0  0  0
 28106  1  0  0  0
 29107  1  0  0  0
 29108  1  0  0  0
 33 34  1  0  0  0
 33 66  1  0  0  0
 33 70  2  0  0  0
 34 36  1  0  0  0
 34 59  1  0  0  0
 34109  1  0  0  0
 35 44  2  0  0  0
 35 45  1  0  0  0
 35 68  1  0  0  0
 36 56  1  0  0  0
 36110  1  0  0  0
 37 39  1  0  0  0
 37 47  1  0  0  0
 37 66  1  0  0  0
 37111  1  0  0  0
 38 43  2  0  0  0
 38 46  1  0  0  0
 38 47  1  0  0  0
 39 64  1  0  0  0
 39 67  2  0  0  0
 40 52  1  0  0  0
 40 53  2  0  0  0
 40 58  1  0  0  0
 41112  1  0  0  0
 41113  1  0  0  0
 41114  1  0  0  0
 41 48  1  0  0  0
 42 43  1  0  0  0
 42 66  1  0  0  0
 42115  1  0  0  0
 42116  1  0  0  0
 43 44  1  0  0  0
 44117  1  0  0  0
 45 46  2  0  0  0
 45118  1  0  0  0
 46119  1  0  0  0
 47120  1  0  0  0
 47121  1  0  0  0
 48 56  1  0  0  0
 48 65  1  0  0  0
 48122  1  0  0  0
 49 50  1  0  0  0
 49 53  1  0  0  0
 49 64  1  0  0  0
 49123  1  0  0  0
 50 51  1  0  0  0
 50124  1  0  0  0
 50125  1  0  0  0
 51 52  1  0  0  0
 51126  1  0  0  0
 51127  1  0  0  0
 52128  1  0  0  0
 52129  1  0  0  0
 53 54  1  0  0  0
 54 55  2  0  0  0
 54130  1  0  0  0
 55 57  1  0  0  0
 55131  1  0  0  0
 56 69  2  0  0  0
 57 58  2  0  0  0
 57132  1  0  0  0
 58133  1  0  0  0
 59 60  1  0  0  0
 59 61  1  0  0  0
 59 62  1  0  0  0
 60134  1  0  0  0
 60135  1  0  0  0
 60136  1  0  0  0
 61137  1  0  0  0
 61138  1  0  0  0
 61139  1  0  0  0
 62140  1  0  0  0
 62141  1  0  0  0
 62142  1  0  0  0
 63 65  1  0  0  0
 63143  1  0  0  0
 63144  1  0  0  0
 63145  1  0  0  0
 64146  1  0  0  0
 65147  1  0  0  0
 68 85  1  0  0  0
 71 72  2  0  0  0
 71 73  1  0  0  0
 71148  1  0  0  0
 72 75  1  0  0  0
 72149  1  0  0  0
 73 76  2  0  0  0
 73150  1  0  0  0
 74 75  2  0  0  0
 74 76  1  0  0  0
 74151  1  0  0  0
 75 77  1  0  0  0
 76 87  1  0  0  0
 77 86  1  0  0  0
 77 88  2  0  0  0
 78 79  1  0  0  0
 78 80  1  0  0  0
 78152  1  0  0  0
 78153  1  0  0  0
 79 86  1  0  0  0
 79154  1  0  0  0
 79155  1  0  0  0
 80 81  1  0  0  0
 80 82  1  0  0  0
 80 85  1  0  0  0
 81 83  1  0  0  0
 81 84  1  0  0  0
 81 86  1  0  0  0
 82156  1  0  0  0
 82157  1  0  0  0
 82158  1  0  0  0
 83159  1  0  0  0
 83160  1  0  0  0
 83161  1  0  0  0
 84162  1  0  0  0
 84163  1  0  0  0
 84164  1  0  0  0
 85165  1  0  0  0
 85166  1  0  0  0
 87167  1  0  0  0
 88168  1  0  0  0
 88169  1  0  0  0
M  CHG  1  88   1
M  ISO  4   1 100  68 101  85 101  87 100
M  END
> <chiral flag>
0

> <version>
0

> <s_m_source_file>
/data/baiqing/PycharmProjects/Reinvent-master-3.2/result/LINK_invent/BTK/process_docking_weight1_custom_product_contain_oxygen_bond_distance_aromatic_linkinvent_7_9_3/rearranged_h_0148.sdf

> <i_m_source_file_index>
45

> <r_mmod_Potential_Energy-OPLS-2005>
-40.9075355529785

> <r_mmod_Stretch_Energy-OPLS-2005>
60.3880729675293

> <r_mmod_Bend_Energy-OPLS-2005>
149.470779418945

> <r_mmod_Torsional_Energy-OPLS-2005>
344.723815917969

> <r_mmod_Improper_Torsional_Energy-OPLS-2005>
5.13742399215698

> <r_mmod_Van_der_Waal_Energy-OPLS-2005>
172.452423095703

> <r_mmod_Electrostatic_Energy-OPLS-2005>
-408.117034912109

> <r_mmod_Solvation_Energy-OPLS-2005>
-384.743865966797

> <b_mmod_Minimization_Converged-OPLS-2005>
0

> <r_mmod_RMS_Derivative-OPLS-2005>
0.996918261051178

$$$$
45
                    3D
 Structure written by MMmdl.
154163  0  0  1  0            999 V2000
  -30.5784  -14.7352   20.4921 C   0  0  0  0  0  0
  -30.4449  -12.4520   19.4774 C   0  0  0  0  0  0
  -29.5202  -12.5217   18.2407 C   0  0  0  0  0  0
  -28.0436  -12.3403   18.6480 C   0  0  0  0  0  0
  -27.6490  -13.2239   19.8615 C   0  0  2  0  0  0
  -28.6893  -13.1187   20.9986 C   0  0  0  0  0  0
  -25.2531  -13.8176   20.5667 C   0  0  0  0  0  0
  -24.1815  -13.0432   20.9190 C   0  0  0  0  0  0
  -24.6396  -11.6904   20.8731 C   0  0  0  0  0  0
  -23.9071  -10.4289   21.0400 C   0  0  0  0  0  0
  -24.3618   -9.4207   21.9177 C   0  0  0  0  0  0
  -23.6289   -8.2241   22.0753 C   0  0  0  0  0  0
  -22.4277   -8.0280   21.3549 C   0  0  0  0  0  0
  -21.9916   -9.0252   20.4647 C   0  0  0  0  0  0
  -22.7240  -10.2128   20.3048 C   0  0  0  0  0  0
  -21.6856   -6.0731   22.5273 C   0  0  0  0  0  0
  -21.4017   -6.5633   23.8210 C   0  0  0  0  0  0
  -21.3660   -5.6791   24.9170 C   0  0  0  0  0  0
  -21.6043   -4.3047   24.7220 C   0  0  0  0  0  0
  -21.8820   -3.8144   23.4342 C   0  0  0  0  0  0
  -21.9192   -4.6966   22.3396 C   0  0  0  0  0  0
  -22.7833  -13.5216   21.1862 C   0  0  0  0  0  0
  -22.1660   -4.2147   21.0974 F   0  0  0  0  0  0
  -21.5634   -3.4532   25.7735 F   0  0  0  0  0  0
  -29.9955  -13.4886   20.4339 N   0  0  0  0  0  0
  -26.2965  -12.9361   20.3297 N   0  0  0  0  0  0
  -25.9331  -11.6513   20.5745 N   0  0  0  0  0  0
  -22.0484  -12.8199   22.0416 N   0  0  0  0  0  0
  -25.4209  -15.1893   20.4048 N   0  0  0  0  0  0
  -31.7480  -14.8913   20.1249 O   0  0  0  0  0  0
  -21.6646   -6.8873   21.4238 O   0  0  0  0  0  0
  -22.3517  -14.5530   20.6713 O   0  0  0  0  0  0
  -24.6303  -31.8552   23.1970 C   0  0  0  0  0  0
  -25.9112  -32.4774   23.8330 C   0  0  1  0  0  0
  -27.2328  -27.2761   20.1395 C   0  0  0  0  0  0
  -25.5906  -33.8564   24.2266 N   0  0  0  0  0  0
  -23.4291  -30.4736   21.5398 C   0  0  2  0  0  0
  -24.8804  -28.9190   20.1151 C   0  0  0  0  0  0
  -22.7518  -29.4568   22.4904 C   0  0  0  0  0  0
  -18.0295  -28.1394   22.8490 C   0  0  0  0  0  0
  -24.1465  -36.7268   23.2613 C   0  0  0  0  0  0
  -25.9714  -30.7761   21.3714 C   0  0  0  0  0  0
  -26.0506  -29.3962   20.7202 C   0  0  0  0  0  0
  -27.2335  -28.5885   20.7170 C   0  0  0  0  0  0
  -26.0440  -26.8638   19.5018 C   0  0  0  0  0  0
  -24.8815  -27.6610   19.4922 C   0  0  0  0  0  0
  -23.6487  -29.8032   20.1583 C   0  0  0  0  0  0
  -25.4083  -36.3070   24.0333 C   0  0  1  0  0  0
  -20.5911  -28.3674   23.1283 C   0  0  2  0  0  0
  -20.6769  -26.9389   22.5410 C   0  0  0  0  0  0
  -19.5738  -26.6383   21.5211 C   0  0  0  0  0  0
  -18.1924  -26.7932   22.1632 C   0  0  0  0  0  0
  -19.1555  -28.8849   23.2878 C   0  0  0  0  0  0
  -18.9468  -30.1463   23.8888 C   0  0  0  0  0  0
  -17.6469  -30.6594   24.0571 C   0  0  0  0  0  0
  -25.9052  -34.9444   23.5106 C   0  0  0  0  0  0
  -16.5357  -29.9092   23.6357 C   0  0  0  0  0  0
  -16.7284  -28.6508   23.0377 C   0  0  0  0  0  0
  -26.4479  -31.6597   25.0715 C   0  0  0  0  0  0
  -25.3703  -31.3766   26.1446 C   0  0  0  0  0  0
  -27.0320  -30.3021   24.6153 C   0  0  0  0  0  0
  -27.6034  -32.4328   25.7492 C   0  0  0  0  0  0
  -27.5612  -37.1717   24.8403 C   0  0  0  0  0  0
  -21.4222  -29.3021   22.3665 N   0  0  0  0  0  0
  -26.4223  -37.3816   23.9496 N   0  0  0  0  0  0
  -24.6955  -31.0525   22.0936 N   0  0  0  0  0  0
  -23.4221  -28.8099   23.2985 O   0  0  0  0  0  0
  -28.3257  -26.3829   20.1599 O   0  0  0  0  0  0
  -26.5623  -34.8922   22.4673 O   0  0  0  0  0  0
  -23.5445  -32.1350   23.7281 O   0  0  0  0  0  0
  -30.4927  -19.4826   20.2855 C   0  0  0  0  0  0
  -30.8135  -18.0564   20.2656 C   0  0  0  0  0  0
  -29.2293  -19.8290   20.7344 C   0  0  0  0  0  0
  -29.8226  -17.1939   20.6981 C   0  0  0  0  0  0
  -27.4510  -21.1821   21.5849 C   0  0  0  0  0  0
  -28.9145  -23.7537   20.2284 C   0  0  0  0  0  0
  -27.4842  -22.2510   22.6731 C   0  0  0  0  0  0
  -28.9464  -22.6921   22.6337 C   0  0  0  0  0  0
  -29.2983  -22.4512   21.1601 C   0  0  1  0  0  0
  -28.0816  -25.0262   20.7586 C   0  0  0  0  0  0
  -28.6223  -21.1013   20.9150 N   0  0  0  0  0  0
  -29.7445  -15.7946   20.8152 N   0  0  0  0  0  0
  -26.4314  -20.5278   21.3574 O   0  0  0  0  0  0
  -29.2804  -23.7766   19.0508 O   0  0  0  0  0  0
  -28.4560  -18.2494   21.1325 S   0  0  0  0  0  0
  -31.4864  -12.5902   19.1820 H   0  0  0  0  0  0
  -30.3942  -11.4655   19.9403 H   0  0  0  0  0  0
  -29.8053  -11.7627   17.5115 H   0  0  0  0  0  0
  -29.6460  -13.4856   17.7447 H   0  0  0  0  0  0
  -27.8971  -11.2879   18.8948 H   0  0  0  0  0  0
  -27.3889  -12.5465   17.8010 H   0  0  0  0  0  0
  -27.6532  -14.2535   19.5021 H   0  0  0  0  0  0
  -28.7229  -12.1056   21.4023 H   0  0  0  0  0  0
  -28.4169  -13.7629   21.8354 H   0  0  0  0  0  0
  -25.2763   -9.5676   22.4748 H   0  0  0  0  0  0
  -23.9999   -7.4632   22.7473 H   0  0  0  0  0  0
  -21.0849   -8.8761   19.8947 H   0  0  0  0  0  0
  -22.3697  -10.9663   19.6150 H   0  0  0  0  0  0
  -21.2011   -7.6141   23.9704 H   0  0  0  0  0  0
  -21.1487   -6.0522   25.9071 H   0  0  0  0  0  0
  -22.0599   -2.7608   23.2837 H   0  0  0  0  0  0
  -22.4113  -11.9849   22.4779 H   0  0  0  0  0  0
  -21.1100  -13.1210   22.2637 H   0  0  0  0  0  0
  -24.6428  -15.8341   20.4945 H   0  0  0  0  0  0
  -26.2579  -15.6289   20.0437 H   0  0  0  0  0  0
  -26.7168  -32.5444   23.1072 H   0  0  0  0  0  0
  -25.0072  -33.9711   25.0422 H   0  0  0  0  0  0
  -22.7255  -31.2953   21.3930 H   0  0  0  0  0  0
  -23.3782  -35.9534   23.3150 H   0  0  0  0  0  0
  -24.3593  -36.9032   22.2051 H   0  0  0  0  0  0
  -23.7120  -37.6387   23.6715 H   0  0  0  0  0  0
  -26.1008  -31.5334   20.5966 H   0  0  0  0  0  0
  -26.8526  -30.8357   21.9993 H   0  0  0  0  0  0
  -28.1319  -28.9528   21.1939 H   0  0  0  0  0  0
  -26.0076  -25.9003   19.0140 H   0  0  0  0  0  0
  -23.9882  -27.2959   19.0060 H   0  0  0  0  0  0
  -23.7730  -30.5784   19.4011 H   0  0  0  0  0  0
  -22.7701  -29.2322   19.8557 H   0  0  0  0  0  0
  -25.1236  -36.1874   25.0815 H   0  0  0  0  0  0
  -21.0016  -28.3224   24.1397 H   0  0  0  0  0  0
  -20.5642  -26.2273   23.3605 H   0  0  0  0  0  0
  -21.6633  -26.7395   22.1208 H   0  0  0  0  0  0
  -19.6871  -25.6299   21.1232 H   0  0  0  0  0  0
  -19.6678  -27.3203   20.6747 H   0  0  0  0  0  0
  -17.4194  -26.6711   21.4028 H   0  0  0  0  0  0
  -18.0311  -26.0090   22.9034 H   0  0  0  0  0  0
  -19.7935  -30.7302   24.2232 H   0  0  0  0  0  0
  -17.5013  -31.6282   24.5166 H   0  0  0  0  0  0
  -15.5351  -30.2989   23.7673 H   0  0  0  0  0  0
  -15.8690  -28.0819   22.7099 H   0  0  0  0  0  0
  -24.5887  -30.7086   25.7802 H   0  0  0  0  0  0
  -24.8860  -32.2942   26.4793 H   0  0  0  0  0  0
  -25.8028  -30.9020   27.0262 H   0  0  0  0  0  0
  -26.2896  -29.6794   24.1138 H   0  0  0  0  0  0
  -27.3988  -29.7254   25.4649 H   0  0  0  0  0  0
  -27.8779  -30.4331   23.9407 H   0  0  0  0  0  0
  -27.2636  -33.3611   26.2088 H   0  0  0  0  0  0
  -28.3839  -32.6916   25.0331 H   0  0  0  0  0  0
  -28.0695  -31.8433   26.5400 H   0  0  0  0  0  0
  -28.2405  -38.0232   24.7855 H   0  0  0  0  0  0
  -28.1345  -36.2823   24.5725 H   0  0  0  0  0  0
  -27.2419  -37.0747   25.8796 H   0  0  0  0  0  0
  -20.9383  -29.8766   21.6908 H   0  0  0  0  0  0
  -26.0088  -38.2821   24.1764 H   0  0  0  0  0  0
  -31.2264  -20.2062   19.9615 H   0  0  0  0  0  0
  -31.7822  -17.7212   19.9237 H   0  0  0  0  0  0
  -27.2077  -21.8389   23.6438 H   0  0  0  0  0  0
  -26.7958  -23.0586   22.4274 H   0  0  0  0  0  0
  -29.5463  -22.0420   23.2742 H   0  0  0  0  0  0
  -29.1140  -23.7069   22.9917 H   0  0  0  0  0  0
  -30.3784  -22.3155   21.0834 H   0  0  0  0  0  0
  -28.2348  -25.1433   21.8280 H   0  0  0  0  0  0
  -27.0320  -24.7638   20.6420 H   0  0  0  0  0  0
  -28.8413  -15.4685   21.1247 H   0  0  0  0  0  0
  1 25  1  0  0  0
  1 30  2  0  0  0
  1 82  1  0  0  0
  2  3  1  0  0  0
  2 25  1  0  0  0
  2 86  1  0  0  0
  2 87  1  0  0  0
  3  4  1  0  0  0
  3 88  1  0  0  0
  3 89  1  0  0  0
  4  5  1  0  0  0
  4 90  1  0  0  0
  4 91  1  0  0  0
  5  6  1  0  0  0
  5 26  1  0  0  0
  5 92  1  0  0  0
  6 25  1  0  0  0
  6 93  1  0  0  0
  6 94  1  0  0  0
  7  8  2  0  0  0
  7 26  1  0  0  0
  7 29  1  0  0  0
  8  9  1  0  0  0
  8 22  1  0  0  0
  9 10  1  0  0  0
  9 27  2  0  0  0
 10 11  2  0  0  0
 10 15  1  0  0  0
 11 12  1  0  0  0
 11 95  1  0  0  0
 12 13  2  0  0  0
 12 96  1  0  0  0
 13 14  1  0  0  0
 13 31  1  0  0  0
 14 15  2  0  0  0
 14 97  1  0  0  0
 15 98  1  0  0  0
 16 17  2  0  0  0
 16 21  1  0  0  0
 16 31  1  0  0  0
 17 18  1  0  0  0
 17 99  1  0  0  0
 18 19  2  0  0  0
 18100  1  0  0  0
 19 20  1  0  0  0
 19 24  1  0  0  0
 20 21  2  0  0  0
 20101  1  0  0  0
 21 23  1  0  0  0
 22 28  1  0  0  0
 22 32  2  0  0  0
 26 27  1  0  0  0
 28102  1  0  0  0
 28103  1  0  0  0
 29104  1  0  0  0
 29105  1  0  0  0
 33 34  1  0  0  0
 33 66  1  0  0  0
 33 70  2  0  0  0
 34 36  1  0  0  0
 34 59  1  0  0  0
 34106  1  0  0  0
 35 44  2  0  0  0
 35 45  1  0  0  0
 35 68  1  0  0  0
 36 56  1  0  0  0
 36107  1  0  0  0
 37 39  1  0  0  0
 37 47  1  0  0  0
 37 66  1  0  0  0
 37108  1  0  0  0
 38 43  2  0  0  0
 38 46  1  0  0  0
 38 47  1  0  0  0
 39 64  1  0  0  0
 39 67  2  0  0  0
 40 52  1  0  0  0
 40 53  2  0  0  0
 40 58  1  0  0  0
 41109  1  0  0  0
 41110  1  0  0  0
 41111  1  0  0  0
 41 48  1  0  0  0
 42 43  1  0  0  0
 42 66  1  0  0  0
 42112  1  0  0  0
 42113  1  0  0  0
 43 44  1  0  0  0
 44114  1  0  0  0
 45 46  2  0  0  0
 45115  1  0  0  0
 46116  1  0  0  0
 47117  1  0  0  0
 47118  1  0  0  0
 48 56  1  0  0  0
 48 65  1  0  0  0
 48119  1  0  0  0
 49 50  1  0  0  0
 49 53  1  0  0  0
 49 64  1  0  0  0
 49120  1  0  0  0
 50 51  1  0  0  0
 50121  1  0  0  0
 50122  1  0  0  0
 51 52  1  0  0  0
 51123  1  0  0  0
 51124  1  0  0  0
 52125  1  0  0  0
 52126  1  0  0  0
 53 54  1  0  0  0
 54 55  2  0  0  0
 54127  1  0  0  0
 55 57  1  0  0  0
 55128  1  0  0  0
 56 69  2  0  0  0
 57 58  2  0  0  0
 57129  1  0  0  0
 58130  1  0  0  0
 59 60  1  0  0  0
 59 61  1  0  0  0
 59 62  1  0  0  0
 60131  1  0  0  0
 60132  1  0  0  0
 60133  1  0  0  0
 61134  1  0  0  0
 61135  1  0  0  0
 61136  1  0  0  0
 62137  1  0  0  0
 62138  1  0  0  0
 62139  1  0  0  0
 63 65  1  0  0  0
 63140  1  0  0  0
 63141  1  0  0  0
 63142  1  0  0  0
 64143  1  0  0  0
 65144  1  0  0  0
 68 80  1  0  0  0
 71 72  1  0  0  0
 71 73  2  0  0  0
 71145  1  0  0  0
 72 74  2  0  0  0
 72146  1  0  0  0
 73 81  1  0  0  0
 73 85  1  0  0  0
 74 82  1  0  0  0
 74 85  1  0  0  0
 75 77  1  0  0  0
 75 81  1  0  0  0
 75 83  2  0  0  0
 76 80  1  0  0  0
 76 84  2  0  0  0
 76 79  1  0  0  0
 77 78  1  0  0  0
 77147  1  0  0  0
 77148  1  0  0  0
 78 79  1  0  0  0
 78149  1  0  0  0
 78150  1  0  0  0
 79 81  1  0  0  0
 79151  1  0  0  0
 80152  1  0  0  0
 80153  1  0  0  0
 82154  1  0  0  0
M  ISO  4   1 100  68 101  80 101  82 100
M  END
> <chiral flag>
0

> <version>
0

> <s_m_source_file>
/data/baiqing/PycharmProjects/Reinvent-master-3.2/result/LINK_invent/BTK/process_docking_weight1_custom_product_contain_oxygen_bond_distance_aromatic_linkinvent_7_9_3/rearranged_h_0148.sdf

> <i_m_source_file_index>
46

> <r_mmod_Potential_Energy-OPLS-2005>
245.67610168457

> <r_mmod_Stretch_Energy-OPLS-2005>
123.21361541748

> <r_mmod_Bend_Energy-OPLS-2005>
220.54508972168

> <r_mmod_Torsional_Energy-OPLS-2005>
296.950805664062

> <r_mmod_Improper_Torsional_Energy-OPLS-2005>
6.0009560585022

> <r_mmod_Van_der_Waal_Energy-OPLS-2005>
121.878616333008

> <r_mmod_Electrostatic_Energy-OPLS-2005>
-361.977722167969

> <r_mmod_Solvation_Energy-OPLS-2005>
-239.510650634766

> <b_mmod_Minimization_Converged-OPLS-2005>
0

> <r_mmod_RMS_Derivative-OPLS-2005>
2.47356176376343

$$$$
46
                    3D
 Structure written by MMmdl.
164173  0  0  1  0            999 V2000
  -30.6687  -14.5838   20.4943 C   0  0  0  0  0  0
  -30.4205  -12.3531   19.4595 C   0  0  0  0  0  0
  -29.5024  -12.5022   18.2273 C   0  0  0  0  0  0
  -28.0241  -12.3536   18.6349 C   0  0  0  0  0  0
  -27.6536  -13.2217   19.8673 C   0  0  2  0  0  0
  -28.6955  -13.0766   21.0006 C   0  0  0  0  0  0
  -25.2551  -13.8188   20.5693 C   0  0  0  0  0  0
  -24.1822  -13.0445   20.9188 C   0  0  0  0  0  0
  -24.6398  -11.6918   20.8741 C   0  0  0  0  0  0
  -23.9070  -10.4297   21.0407 C   0  0  0  0  0  0
  -24.3619   -9.4211   21.9185 C   0  0  0  0  0  0
  -23.6293   -8.2246   22.0758 C   0  0  0  0  0  0
  -22.4276   -8.0283   21.3545 C   0  0  0  0  0  0
  -21.9913   -9.0259   20.4651 C   0  0  0  0  0  0
  -22.7242  -10.2138   20.3059 C   0  0  0  0  0  0
  -21.6854   -6.0738   22.5280 C   0  0  0  0  0  0
  -21.4017   -6.5642   23.8213 C   0  0  0  0  0  0
  -21.3660   -5.6795   24.9176 C   0  0  0  0  0  0
  -21.6043   -4.3057   24.7226 C   0  0  0  0  0  0
  -21.8818   -3.8149   23.4348 C   0  0  0  0  0  0
  -21.9193   -4.6965   22.3404 C   0  0  0  0  0  0
  -22.7844  -13.5232   21.1851 C   0  0  0  0  0  0
  -22.1661   -4.2152   21.0980 F   0  0  0  0  0  0
  -21.5628   -3.4542   25.7739 F   0  0  0  0  0  0
  -30.0189  -13.3818   20.4392 N   0  0  0  0  0  0
  -26.2989  -12.9383   20.3345 N   0  0  0  0  0  0
  -25.9329  -11.6531   20.5770 N   0  0  0  0  0  0
  -22.0488  -12.8225   22.0409 N   0  0  0  0  0  0
  -25.4253  -15.1909   20.4107 N   0  0  0  0  0  0
  -31.8335  -14.6963   20.1006 O   0  0  0  0  0  0
  -21.6638   -6.8881   21.4242 O   0  0  0  0  0  0
  -22.3529  -14.5538   20.6700 O   0  0  0  0  0  0
  -24.6201  -31.8631   23.2058 C   0  0  0  0  0  0
  -25.9059  -32.4802   23.8381 C   0  0  1  0  0  0
  -27.2273  -27.3713   20.1162 C   0  0  0  0  0  0
  -25.5898  -33.8602   24.2308 N   0  0  0  0  0  0
  -23.4123  -30.4858   21.5464 C   0  0  2  0  0  0
  -24.8621  -28.9475   20.1108 C   0  0  0  0  0  0
  -22.7445  -29.4628   22.4946 C   0  0  0  0  0  0
  -18.0284  -28.1367   22.8480 C   0  0  0  0  0  0
  -24.1484  -36.7307   23.2637 C   0  0  0  0  0  0
  -25.9479  -30.8107   21.3691 C   0  0  0  0  0  0
  -26.0272  -29.4421   20.7124 C   0  0  0  0  0  0
  -27.2173  -28.6648   20.7059 C   0  0  0  0  0  0
  -26.0477  -26.9145   19.4902 C   0  0  0  0  0  0
  -24.8706  -27.6862   19.4922 C   0  0  0  0  0  0
  -23.6261  -29.8209   20.1611 C   0  0  0  0  0  0
  -25.4104  -36.3105   24.0338 C   0  0  1  0  0  0
  -20.5876  -28.3666   23.1289 C   0  0  2  0  0  0
  -20.6769  -26.9394   22.5408 C   0  0  0  0  0  0
  -19.5753  -26.6372   21.5199 C   0  0  0  0  0  0
  -18.1928  -26.7912   22.1609 C   0  0  0  0  0  0
  -19.1535  -28.8832   23.2880 C   0  0  0  0  0  0
  -18.9463  -30.1434   23.8901 C   0  0  0  0  0  0
  -17.6466  -30.6575   24.0555 C   0  0  0  0  0  0
  -25.9039  -34.9468   23.5125 C   0  0  0  0  0  0
  -16.5354  -29.9077   23.6323 C   0  0  0  0  0  0
  -16.7272  -28.6492   23.0350 C   0  0  0  0  0  0
  -26.4475  -31.6594   25.0728 C   0  0  0  0  0  0
  -25.3728  -31.3717   26.1474 C   0  0  0  0  0  0
  -27.0314  -30.3029   24.6139 C   0  0  0  0  0  0
  -27.6055  -32.4320   25.7480 C   0  0  0  0  0  0
  -27.5588  -37.1796   24.8454 C   0  0  0  0  0  0
  -21.4164  -29.3027   22.3690 N   0  0  0  0  0  0
  -26.4288  -37.3794   23.9423 N   0  0  0  0  0  0
  -24.6784  -31.0681   22.0987 N   0  0  0  0  0  0
  -23.4183  -28.8174   23.3016 O   0  0  0  0  0  0
  -28.3379  -26.5327   20.1486 O   0  0  0  0  0  0
  -26.5606  -34.8922   22.4691 O   0  0  0  0  0  0
  -23.5373  -32.1416   23.7402 O   0  0  0  0  0  0
  -29.6098  -18.2288   21.0998 C   0  0  0  0  0  0
  -30.7840  -17.3993   19.2570 C   0  0  0  0  0  0
  -30.1244  -17.0598   20.4113 C   0  0  0  0  0  0
  -29.9319  -19.4469   20.4943 C   0  0  0  0  0  0
  -27.8671  -22.6508   20.5725 C   0  0  0  0  0  0
  -29.8696  -20.7073   23.4671 C   0  0  0  0  0  0
  -28.3739  -21.0805   23.5081 C   0  0  0  0  0  0
  -30.5689  -21.2542   22.2052 C   0  0  0  0  0  0
  -27.6651  -20.8021   22.1646 C   0  0  0  0  0  0
  -29.7736  -20.9339   20.9216 C   0  0  2  0  0  0
  -28.7311  -25.4776   22.2724 C   0  0  0  0  0  0
  -28.6961  -23.9317   20.2120 C   0  0  0  0  0  0
  -28.1434  -25.2685   20.8691 C   0  0  2  0  0  0
  -28.4033  -21.4954   21.0955 N   0  0  0  0  0  0
  -29.9343  -15.6818   20.8452 N   0  0  0  0  0  0
  -26.6411  -22.7512   20.4495 O   0  0  0  0  0  0
  -30.8255  -19.1276   19.0215 S   0  0  0  0  0  0
  -31.4674  -12.4405   19.1634 H   0  0  0  0  0  0
  -30.3187  -11.3583   19.8958 H   0  0  0  0  0  0
  -29.7586  -11.7583   17.4717 H   0  0  0  0  0  0
  -29.6607  -13.4771   17.7630 H   0  0  0  0  0  0
  -27.8495  -11.3006   18.8582 H   0  0  0  0  0  0
  -27.3739  -12.5971   17.7937 H   0  0  0  0  0  0
  -27.6749  -14.2584   19.5302 H   0  0  0  0  0  0
  -28.6874  -12.0625   21.4021 H   0  0  0  0  0  0
  -28.4531  -13.7323   21.8380 H   0  0  0  0  0  0
  -25.2764   -9.5688   22.4763 H   0  0  0  0  0  0
  -24.0004   -7.4641   22.7482 H   0  0  0  0  0  0
  -21.0841   -8.8780   19.8961 H   0  0  0  0  0  0
  -22.3697  -10.9679   19.6171 H   0  0  0  0  0  0
  -21.2010   -7.6151   23.9719 H   0  0  0  0  0  0
  -21.1482   -6.0525   25.9078 H   0  0  0  0  0  0
  -22.0596   -2.7612   23.2848 H   0  0  0  0  0  0
  -22.4098  -11.9880   22.4788 H   0  0  0  0  0  0
  -21.1110  -13.1262   22.2624 H   0  0  0  0  0  0
  -24.6567  -15.8445   20.5147 H   0  0  0  0  0  0
  -26.2764  -15.6312   20.0846 H   0  0  0  0  0  0
  -26.7128  -32.5498   23.1140 H   0  0  0  0  0  0
  -25.0047  -33.9766   25.0453 H   0  0  0  0  0  0
  -22.7032  -31.3036   21.4045 H   0  0  0  0  0  0
  -23.3758  -35.9625   23.3283 H   0  0  0  0  0  0
  -24.3585  -36.8948   22.2056 H   0  0  0  0  0  0
  -23.7222  -37.6498   23.6671 H   0  0  0  0  0  0
  -26.0693  -31.5764   20.6019 H   0  0  0  0  0  0
  -26.8310  -30.8622   21.9946 H   0  0  0  0  0  0
  -28.1136  -29.0362   21.1826 H   0  0  0  0  0  0
  -26.0324  -25.9417   19.0182 H   0  0  0  0  0  0
  -23.9773  -27.3002   19.0217 H   0  0  0  0  0  0
  -23.7392  -30.5982   19.4040 H   0  0  0  0  0  0
  -22.7486  -29.2454   19.8619 H   0  0  0  0  0  0
  -25.1277  -36.1965   25.0828 H   0  0  0  0  0  0
  -20.9964  -28.3238   24.1411 H   0  0  0  0  0  0
  -20.5656  -26.2275   23.3601 H   0  0  0  0  0  0
  -21.6644  -26.7423   22.1214 H   0  0  0  0  0  0
  -19.6918  -25.6284   21.1232 H   0  0  0  0  0  0
  -19.6700  -27.3176   20.6722 H   0  0  0  0  0  0
  -17.4199  -26.6655   21.4010 H   0  0  0  0  0  0
  -18.0341  -26.0045   22.8999 H   0  0  0  0  0  0
  -19.7940  -30.7240   24.2280 H   0  0  0  0  0  0
  -17.5026  -31.6259   24.5147 H   0  0  0  0  0  0
  -15.5359  -30.2984   23.7642 H   0  0  0  0  0  0
  -15.8667  -28.0812   22.7069 H   0  0  0  0  0  0
  -24.5879  -30.7094   25.7809 H   0  0  0  0  0  0
  -24.8941  -32.2874   26.4946 H   0  0  0  0  0  0
  -25.8060  -30.8859   27.0224 H   0  0  0  0  0  0
  -26.2874  -29.6782   24.1184 H   0  0  0  0  0  0
  -27.4068  -29.7281   25.4615 H   0  0  0  0  0  0
  -27.8715  -30.4347   23.9318 H   0  0  0  0  0  0
  -27.2695  -33.3631   26.2056 H   0  0  0  0  0  0
  -28.3853  -32.6860   25.0290 H   0  0  0  0  0  0
  -28.0730  -31.8441   26.5391 H   0  0  0  0  0  0
  -28.2571  -38.0126   24.7562 H   0  0  0  0  0  0
  -28.1124  -36.2665   24.6206 H   0  0  0  0  0  0
  -27.2321  -37.1353   25.8858 H   0  0  0  0  0  0
  -20.9327  -29.8772   21.6929 H   0  0  0  0  0  0
  -26.0176  -38.2865   24.1460 H   0  0  0  0  0  0
  -29.0750  -18.1280   22.0325 H   0  0  0  0  0  0
  -31.2608  -16.7557   18.5264 H   0  0  0  0  0  0
  -29.9751  -19.6237   23.5024 H   0  0  0  0  0  0
  -30.3707  -21.0801   24.3612 H   0  0  0  0  0  0
  -28.2781  -22.1408   23.7491 H   0  0  0  0  0  0
  -27.8757  -20.5425   24.3154 H   0  0  0  0  0  0
  -31.5882  -20.8724   22.1316 H   0  0  0  0  0  0
  -30.6608  -22.3366   22.3057 H   0  0  0  0  0  0
  -26.6284  -21.1307   22.2498 H   0  0  0  0  0  0
  -27.5955  -19.7373   21.9599 H   0  0  0  0  0  0
  -30.2374  -21.5235   20.1292 H   0  0  0  0  0  0
  -28.5688  -24.6065   22.9074 H   0  0  0  0  0  0
  -28.2715  -26.3335   22.7680 H   0  0  0  0  0  0
  -29.8049  -25.6608   22.2259 H   0  0  0  0  0  0
  -28.6489  -24.0292   19.1276 H   0  0  0  0  0  0
  -29.7493  -23.7945   20.4558 H   0  0  0  0  0  0
  -27.0747  -25.1294   21.0327 H   0  0  0  0  0  0
  -29.0753  -15.4863   21.3370 H   0  0  0  0  0  0
  1 25  1  0  0  0
  1 30  2  0  0  0
  1 85  1  0  0  0
  2  3  1  0  0  0
  2 25  1  0  0  0
  2 88  1  0  0  0
  2 89  1  0  0  0
  3  4  1  0  0  0
  3 90  1  0  0  0
  3 91  1  0  0  0
  4  5  1  0  0  0
  4 92  1  0  0  0
  4 93  1  0  0  0
  5  6  1  0  0  0
  5 26  1  0  0  0
  5 94  1  0  0  0
  6 25  1  0  0  0
  6 95  1  0  0  0
  6 96  1  0  0  0
  7  8  2  0  0  0
  7 26  1  0  0  0
  7 29  1  0  0  0
  8  9  1  0  0  0
  8 22  1  0  0  0
  9 10  1  0  0  0
  9 27  2  0  0  0
 10 11  2  0  0  0
 10 15  1  0  0  0
 11 12  1  0  0  0
 11 97  1  0  0  0
 12 13  2  0  0  0
 12 98  1  0  0  0
 13 14  1  0  0  0
 13 31  1  0  0  0
 14 15  2  0  0  0
 14 99  1  0  0  0
 15100  1  0  0  0
 16 17  2  0  0  0
 16 21  1  0  0  0
 16 31  1  0  0  0
 17 18  1  0  0  0
 17101  1  0  0  0
 18 19  2  0  0  0
 18102  1  0  0  0
 19 20  1  0  0  0
 19 24  1  0  0  0
 20 21  2  0  0  0
 20103  1  0  0  0
 21 23  1  0  0  0
 22 28  1  0  0  0
 22 32  2  0  0  0
 26 27  1  0  0  0
 28104  1  0  0  0
 28105  1  0  0  0
 29106  1  0  0  0
 29107  1  0  0  0
 33 34  1  0  0  0
 33 66  1  0  0  0
 33 70  2  0  0  0
 34 36  1  0  0  0
 34 59  1  0  0  0
 34108  1  0  0  0
 35 44  2  0  0  0
 35 45  1  0  0  0
 35 68  1  0  0  0
 36 56  1  0  0  0
 36109  1  0  0  0
 37 39  1  0  0  0
 37 47  1  0  0  0
 37 66  1  0  0  0
 37110  1  0  0  0
 38 43  2  0  0  0
 38 46  1  0  0  0
 38 47  1  0  0  0
 39 64  1  0  0  0
 39 67  2  0  0  0
 40 52  1  0  0  0
 40 53  2  0  0  0
 40 58  1  0  0  0
 41111  1  0  0  0
 41112  1  0  0  0
 41113  1  0  0  0
 41 48  1  0  0  0
 42 43  1  0  0  0
 42 66  1  0  0  0
 42114  1  0  0  0
 42115  1  0  0  0
 43 44  1  0  0  0
 44116  1  0  0  0
 45 46  2  0  0  0
 45117  1  0  0  0
 46118  1  0  0  0
 47119  1  0  0  0
 47120  1  0  0  0
 48 56  1  0  0  0
 48 65  1  0  0  0
 48121  1  0  0  0
 49 50  1  0  0  0
 49 53  1  0  0  0
 49 64  1  0  0  0
 49122  1  0  0  0
 50 51  1  0  0  0
 50123  1  0  0  0
 50124  1  0  0  0
 51 52  1  0  0  0
 51125  1  0  0  0
 51126  1  0  0  0
 52127  1  0  0  0
 52128  1  0  0  0
 53 54  1  0  0  0
 54 55  2  0  0  0
 54129  1  0  0  0
 55 57  1  0  0  0
 55130  1  0  0  0
 56 69  2  0  0  0
 57 58  2  0  0  0
 57131  1  0  0  0
 58132  1  0  0  0
 59 60  1  0  0  0
 59 61  1  0  0  0
 59 62  1  0  0  0
 60133  1  0  0  0
 60134  1  0  0  0
 60135  1  0  0  0
 61136  1  0  0  0
 61137  1  0  0  0
 61138  1  0  0  0
 62139  1  0  0  0
 62140  1  0  0  0
 62141  1  0  0  0
 63 65  1  0  0  0
 63142  1  0  0  0
 63143  1  0  0  0
 63144  1  0  0  0
 64145  1  0  0  0
 65146  1  0  0  0
 68 83  1  0  0  0
 71 73  1  0  0  0
 71 74  2  0  0  0
 71147  1  0  0  0
 72 73  2  0  0  0
 72 87  1  0  0  0
 72148  1  0  0  0
 73 85  1  0  0  0
 74 87  1  0  0  0
 74 80  1  0  0  0
 75 82  1  0  0  0
 75 84  1  0  0  0
 75 86  2  0  0  0
 76 77  1  0  0  0
 76 78  1  0  0  0
 76149  1  0  0  0
 76150  1  0  0  0
 77 79  1  0  0  0
 77151  1  0  0  0
 77152  1  0  0  0
 78 80  1  0  0  0
 78153  1  0  0  0
 78154  1  0  0  0
 79 84  1  0  0  0
 79155  1  0  0  0
 79156  1  0  0  0
 80 84  1  0  0  0
 80157  1  0  0  0
 81158  1  0  0  0
 81159  1  0  0  0
 81160  1  0  0  0
 81 83  1  0  0  0
 82 83  1  0  0  0
 82161  1  0  0  0
 82162  1  0  0  0
 83163  1  0  0  0
 85164  1  0  0  0
M  ISO  4   1 100  68 101  83 101  85 100
M  END
> <chiral flag>
0

> <version>
0

> <s_m_source_file>
/data/baiqing/PycharmProjects/Reinvent-master-3.2/result/LINK_invent/BTK/process_docking_weight1_custom_product_contain_oxygen_bond_distance_aromatic_linkinvent_7_9_3/rearranged_h_0148.sdf

> <i_m_source_file_index>
47

> <r_mmod_Potential_Energy-OPLS-2005>
117.843109130859

> <r_mmod_Stretch_Energy-OPLS-2005>
67.2508926391602

> <r_mmod_Bend_Energy-OPLS-2005>
137.467834472656

> <r_mmod_Torsional_Energy-OPLS-2005>
314.386688232422

> <r_mmod_Improper_Torsional_Energy-OPLS-2005>
5.62412214279175

> <r_mmod_Van_der_Waal_Energy-OPLS-2005>
134.013641357422

> <r_mmod_Electrostatic_Energy-OPLS-2005>
-350.297302246094

> <r_mmod_Solvation_Energy-OPLS-2005>
-223.725280761719

> <b_mmod_Minimization_Converged-OPLS-2005>
0

> <r_mmod_RMS_Derivative-OPLS-2005>
0.87452894449234

$$$$
47
                    3D
 Structure written by MMmdl.
161170  0  0  1  0            999 V2000
  -30.7307  -14.4433   20.6275 C   0  0  0  0  0  0
  -30.4211  -12.3113   19.4146 C   0  0  0  0  0  0
  -29.4866  -12.4974   18.2011 C   0  0  0  0  0  0
  -28.0107  -12.3532   18.6177 C   0  0  0  0  0  0
  -27.6601  -13.1987   19.8696 C   0  0  2  0  0  0
  -28.6961  -12.9671   20.9864 C   0  0  0  0  0  0
  -25.2587  -13.8146   20.5679 C   0  0  0  0  0  0
  -24.1832  -13.0428   20.9158 C   0  0  0  0  0  0
  -24.6366  -11.6893   20.8718 C   0  0  0  0  0  0
  -23.9028  -10.4290   21.0409 C   0  0  0  0  0  0
  -24.3592   -9.4211   21.9186 C   0  0  0  0  0  0
  -23.6284   -8.2238   22.0751 C   0  0  0  0  0  0
  -22.4268   -8.0274   21.3540 C   0  0  0  0  0  0
  -21.9894   -9.0243   20.4644 C   0  0  0  0  0  0
  -22.7205  -10.2131   20.3059 C   0  0  0  0  0  0
  -21.6845   -6.0741   22.5284 C   0  0  0  0  0  0
  -21.4010   -6.5643   23.8218 C   0  0  0  0  0  0
  -21.3655   -5.6792   24.9177 C   0  0  0  0  0  0
  -21.6042   -4.3056   24.7224 C   0  0  0  0  0  0
  -21.8815   -3.8150   23.4339 C   0  0  0  0  0  0
  -21.9189   -4.6970   22.3401 C   0  0  0  0  0  0
  -22.7855  -13.5239   21.1806 C   0  0  0  0  0  0
  -22.1651   -4.2156   21.0982 F   0  0  0  0  0  0
  -21.5639   -3.4539   25.7736 F   0  0  0  0  0  0
  -30.0322  -13.2840   20.4508 N   0  0  0  0  0  0
  -26.3011  -12.9295   20.3341 N   0  0  0  0  0  0
  -25.9287  -11.6464   20.5751 N   0  0  0  0  0  0
  -22.0488  -12.8288   22.0395 N   0  0  0  0  0  0
  -25.4308  -15.1868   20.4111 N   0  0  0  0  0  0
  -31.8090  -14.6479   20.0562 O   0  0  0  0  0  0
  -21.6625   -6.8883   21.4244 O   0  0  0  0  0  0
  -22.3541  -14.5517   20.6612 O   0  0  0  0  0  0
  -24.6144  -31.8690   23.2116 C   0  0  0  0  0  0
  -25.9040  -32.4832   23.8402 C   0  0  1  0  0  0
  -27.2320  -27.4368   20.0791 C   0  0  0  0  0  0
  -25.5908  -33.8629   24.2334 N   0  0  0  0  0  0
  -23.4013  -30.4958   21.5516 C   0  0  2  0  0  0
  -24.8442  -28.9628   20.1162 C   0  0  0  0  0  0
  -22.7405  -29.4673   22.4972 C   0  0  0  0  0  0
  -18.0276  -28.1384   22.8491 C   0  0  0  0  0  0
  -24.1497  -36.7318   23.2635 C   0  0  0  0  0  0
  -25.9319  -30.8326   21.3662 C   0  0  0  0  0  0
  -26.0060  -29.4670   20.7139 C   0  0  0  0  0  0
  -27.1984  -28.7080   20.6994 C   0  0  0  0  0  0
  -26.0437  -26.9475   19.4830 C   0  0  0  0  0  0
  -24.8573  -27.7001   19.5041 C   0  0  0  0  0  0
  -23.6103  -29.8331   20.1644 C   0  0  0  0  0  0
  -25.4116  -36.3117   24.0335 C   0  0  1  0  0  0
  -20.5871  -28.3676   23.1311 C   0  0  2  0  0  0
  -20.6775  -26.9413   22.5411 C   0  0  0  0  0  0
  -19.5754  -26.6395   21.5210 C   0  0  0  0  0  0
  -18.1928  -26.7933   22.1621 C   0  0  0  0  0  0
  -19.1526  -28.8845   23.2905 C   0  0  0  0  0  0
  -18.9455  -30.1449   23.8921 C   0  0  0  0  0  0
  -17.6459  -30.6591   24.0575 C   0  0  0  0  0  0
  -25.9037  -34.9480   23.5131 C   0  0  0  0  0  0
  -16.5350  -29.9097   23.6325 C   0  0  0  0  0  0
  -16.7266  -28.6516   23.0340 C   0  0  0  0  0  0
  -26.4470  -31.6607   25.0725 C   0  0  0  0  0  0
  -25.3738  -31.3713   26.1476 C   0  0  0  0  0  0
  -27.0297  -30.3053   24.6089 C   0  0  0  0  0  0
  -27.6053  -32.4317   25.7485 C   0  0  0  0  0  0
  -27.5586  -37.1817   24.8464 C   0  0  0  0  0  0
  -21.4134  -29.3048   22.3715 N   0  0  0  0  0  0
  -26.4303  -37.3796   23.9402 N   0  0  0  0  0  0
  -24.6675  -31.0797   22.1013 N   0  0  0  0  0  0
  -23.4183  -28.8196   23.2995 O   0  0  0  0  0  0
  -28.4154  -26.7213   20.0791 O   0  0  0  0  0  0
  -26.5587  -34.8925   22.4684 O   0  0  0  0  0  0
  -23.5336  -32.1437   23.7512 O   0  0  0  0  0  0
  -28.2907  -18.6627   23.5209 C   0  0  0  0  0  0
  -28.4584  -20.0063   23.1421 C   0  0  0  0  0  0
  -29.6847  -19.2985   21.1562 C   0  0  0  0  0  0
  -28.8530  -17.6344   22.7406 C   0  0  0  0  0  0
  -29.5418  -17.9425   21.5453 C   0  0  0  0  0  0
  -29.1595  -20.3405   21.9667 C   0  0  0  0  0  0
  -29.6514  -22.4015   20.6064 C   0  0  0  0  0  0
  -28.7842  -16.1990   23.2206 C   0  0  0  0  0  0
  -30.1754  -16.8219   20.7075 C   0  0  0  0  0  0
  -30.0156  -15.4186   22.7382 C   0  0  0  0  0  0
  -29.9606  -23.9001   20.7955 C   0  0  0  0  0  0
  -29.8226  -24.7955   19.5389 C   0  0  0  0  0  0
  -28.4425  -25.4602   19.3989 C   0  0  0  0  0  0
  -30.0964  -15.4525   21.2728 N   0  0  0  0  0  0
  -29.3700  -21.7305   21.7356 N   0  0  0  0  0  0
  -29.6704  -21.8844   19.4873 O   0  0  0  0  0  0
  -31.4628  -12.4176   19.1032 H   0  0  0  0  0  0
  -30.3365  -11.2979   19.8087 H   0  0  0  0  0  0
  -29.7237  -11.7653   17.4273 H   0  0  0  0  0  0
  -29.6469  -13.4793   17.7536 H   0  0  0  0  0  0
  -27.8254  -11.2970   18.8212 H   0  0  0  0  0  0
  -27.3557  -12.6180   17.7874 H   0  0  0  0  0  0
  -27.7120  -14.2484   19.5788 H   0  0  0  0  0  0
  -28.6739  -11.9264   21.3113 H   0  0  0  0  0  0
  -28.4214  -13.5458   21.8633 H   0  0  0  0  0  0
  -25.2738   -9.5692   22.4765 H   0  0  0  0  0  0
  -23.9986   -7.4627   22.7473 H   0  0  0  0  0  0
  -21.0821   -8.8763   19.8958 H   0  0  0  0  0  0
  -22.3656  -10.9673   19.6176 H   0  0  0  0  0  0
  -21.2002   -7.6150   23.9728 H   0  0  0  0  0  0
  -21.1475   -6.0519   25.9083 H   0  0  0  0  0  0
  -22.0596   -2.7615   23.2830 H   0  0  0  0  0  0
  -22.4109  -11.9999   22.4867 H   0  0  0  0  0  0
  -21.1101  -13.1343   22.2549 H   0  0  0  0  0  0
  -24.6657  -15.8403   20.5358 H   0  0  0  0  0  0
  -26.2905  -15.6373   20.1237 H   0  0  0  0  0  0
  -26.7109  -32.5541   23.1159 H   0  0  0  0  0  0
  -25.0108  -33.9803   25.0513 H   0  0  0  0  0  0
  -22.6902  -31.3129   21.4137 H   0  0  0  0  0  0
  -23.3750  -35.9665   23.3329 H   0  0  0  0  0  0
  -24.3589  -36.8889   22.2044 H   0  0  0  0  0  0
  -23.7265  -37.6540   23.6621 H   0  0  0  0  0  0
  -26.0451  -31.5977   20.5964 H   0  0  0  0  0  0
  -26.8202  -30.8854   21.9839 H   0  0  0  0  0  0
  -28.0958  -29.0950   21.1623 H   0  0  0  0  0  0
  -26.0031  -25.9869   18.9919 H   0  0  0  0  0  0
  -23.9625  -27.3025   19.0436 H   0  0  0  0  0  0
  -23.7281  -30.6110   19.4089 H   0  0  0  0  0  0
  -22.7331  -29.2594   19.8608 H   0  0  0  0  0  0
  -25.1296  -36.1985   25.0830 H   0  0  0  0  0  0
  -20.9974  -28.3244   24.1427 H   0  0  0  0  0  0
  -20.5692  -26.2282   23.3596 H   0  0  0  0  0  0
  -21.6643  -26.7469   22.1192 H   0  0  0  0  0  0
  -19.6919  -25.6310   21.1227 H   0  0  0  0  0  0
  -19.6694  -27.3220   20.6752 H   0  0  0  0  0  0
  -17.4202  -26.6686   21.4017 H   0  0  0  0  0  0
  -18.0327  -26.0070   22.9014 H   0  0  0  0  0  0
  -19.7933  -30.7255   24.2300 H   0  0  0  0  0  0
  -17.5019  -31.6269   24.5179 H   0  0  0  0  0  0
  -15.5353  -30.3014   23.7638 H   0  0  0  0  0  0
  -15.8662  -28.0850   22.7037 H   0  0  0  0  0  0
  -24.5924  -30.7039   25.7818 H   0  0  0  0  0  0
  -24.8918  -32.2875   26.4905 H   0  0  0  0  0  0
  -25.8100  -30.8904   27.0243 H   0  0  0  0  0  0
  -26.2840  -29.6820   24.1143 H   0  0  0  0  0  0
  -27.4078  -29.7274   25.4531 H   0  0  0  0  0  0
  -27.8668  -30.4377   23.9230 H   0  0  0  0  0  0
  -27.2681  -33.3605   26.2095 H   0  0  0  0  0  0
  -28.3851  -32.6891   25.0305 H   0  0  0  0  0  0
  -28.0736  -31.8419   26.5374 H   0  0  0  0  0  0
  -28.2612  -38.0105   24.7504 H   0  0  0  0  0  0
  -28.1073  -36.2637   24.6305 H   0  0  0  0  0  0
  -27.2300  -37.1482   25.8865 H   0  0  0  0  0  0
  -20.9278  -29.8798   21.6971 H   0  0  0  0  0  0
  -26.0196  -38.2876   24.1396 H   0  0  0  0  0  0
  -27.7626  -18.4292   24.4354 H   0  0  0  0  0  0
  -28.0596  -20.7853   23.7776 H   0  0  0  0  0  0
  -30.2415  -19.5303   20.2600 H   0  0  0  0  0  0
  -27.8618  -15.7447   22.8560 H   0  0  0  0  0  0
  -28.7355  -16.1767   24.3097 H   0  0  0  0  0  0
  -31.2183  -17.0901   20.5241 H   0  0  0  0  0  0
  -29.6867  -16.8123   19.7310 H   0  0  0  0  0  0
  -29.9930  -14.4001   23.1288 H   0  0  0  0  0  0
  -30.9245  -15.8693   23.1413 H   0  0  0  0  0  0
  -30.9860  -23.9639   21.1592 H   0  0  0  0  0  0
  -29.3391  -24.3040   21.5965 H   0  0  0  0  0  0
  -30.0277  -24.2162   18.6378 H   0  0  0  0  0  0
  -30.5912  -25.5691   19.5487 H   0  0  0  0  0  0
  -27.6790  -24.7845   19.7880 H   0  0  0  0  0  0
  -28.2296  -25.6256   18.3419 H   0  0  0  0  0  0
  -29.2942  -22.3135   22.5579 H   0  0  0  0  0  0
  1 25  1  0  0  0
  1 30  2  0  0  0
  1 84  1  0  0  0
  2  3  1  0  0  0
  2 25  1  0  0  0
  2 87  1  0  0  0
  2 88  1  0  0  0
  3  4  1  0  0  0
  3 89  1  0  0  0
  3 90  1  0  0  0
  4  5  1  0  0  0
  4 91  1  0  0  0
  4 92  1  0  0  0
  5  6  1  0  0  0
  5 26  1  0  0  0
  5 93  1  0  0  0
  6 25  1  0  0  0
  6 94  1  0  0  0
  6 95  1  0  0  0
  7  8  2  0  0  0
  7 26  1  0  0  0
  7 29  1  0  0  0
  8  9  1  0  0  0
  8 22  1  0  0  0
  9 10  1  0  0  0
  9 27  2  0  0  0
 10 11  2  0  0  0
 10 15  1  0  0  0
 11 12  1  0  0  0
 11 96  1  0  0  0
 12 13  2  0  0  0
 12 97  1  0  0  0
 13 14  1  0  0  0
 13 31  1  0  0  0
 14 15  2  0  0  0
 14 98  1  0  0  0
 15 99  1  0  0  0
 16 17  2  0  0  0
 16 21  1  0  0  0
 16 31  1  0  0  0
 17 18  1  0  0  0
 17100  1  0  0  0
 18 19  2  0  0  0
 18101  1  0  0  0
 19 20  1  0  0  0
 19 24  1  0  0  0
 20 21  2  0  0  0
 20102  1  0  0  0
 21 23  1  0  0  0
 22 28  1  0  0  0
 22 32  2  0  0  0
 26 27  1  0  0  0
 28103  1  0  0  0
 28104  1  0  0  0
 29105  1  0  0  0
 29106  1  0  0  0
 33 34  1  0  0  0
 33 66  1  0  0  0
 33 70  2  0  0  0
 34 36  1  0  0  0
 34 59  1  0  0  0
 34107  1  0  0  0
 35 44  2  0  0  0
 35 45  1  0  0  0
 35 68  1  0  0  0
 36 56  1  0  0  0
 36108  1  0  0  0
 37 39  1  0  0  0
 37 47  1  0  0  0
 37 66  1  0  0  0
 37109  1  0  0  0
 38 43  2  0  0  0
 38 46  1  0  0  0
 38 47  1  0  0  0
 39 64  1  0  0  0
 39 67  2  0  0  0
 40 52  1  0  0  0
 40 53  2  0  0  0
 40 58  1  0  0  0
 41110  1  0  0  0
 41111  1  0  0  0
 41112  1  0  0  0
 41 48  1  0  0  0
 42 43  1  0  0  0
 42 66  1  0  0  0
 42113  1  0  0  0
 42114  1  0  0  0
 43 44  1  0  0  0
 44115  1  0  0  0
 45 46  2  0  0  0
 45116  1  0  0  0
 46117  1  0  0  0
 47118  1  0  0  0
 47119  1  0  0  0
 48 56  1  0  0  0
 48 65  1  0  0  0
 48120  1  0  0  0
 49 50  1  0  0  0
 49 53  1  0  0  0
 49 64  1  0  0  0
 49121  1  0  0  0
 50 51  1  0  0  0
 50122  1  0  0  0
 50123  1  0  0  0
 51 52  1  0  0  0
 51124  1  0  0  0
 51125  1  0  0  0
 52126  1  0  0  0
 52127  1  0  0  0
 53 54  1  0  0  0
 54 55  2  0  0  0
 54128  1  0  0  0
 55 57  1  0  0  0
 55129  1  0  0  0
 56 69  2  0  0  0
 57 58  2  0  0  0
 57130  1  0  0  0
 58131  1  0  0  0
 59 60  1  0  0  0
 59 61  1  0  0  0
 59 62  1  0  0  0
 60132  1  0  0  0
 60133  1  0  0  0
 60134  1  0  0  0
 61135  1  0  0  0
 61136  1  0  0  0
 61137  1  0  0  0
 62138  1  0  0  0
 62139  1  0  0  0
 62140  1  0  0  0
 63 65  1  0  0  0
 63141  1  0  0  0
 63142  1  0  0  0
 63143  1  0  0  0
 64144  1  0  0  0
 65145  1  0  0  0
 68 83  1  0  0  0
 71 72  2  0  0  0
 71 74  1  0  0  0
 71146  1  0  0  0
 72 76  1  0  0  0
 72147  1  0  0  0
 73 75  1  0  0  0
 73 76  2  0  0  0
 73148  1  0  0  0
 74 75  2  0  0  0
 74 78  1  0  0  0
 75 79  1  0  0  0
 76 85  1  0  0  0
 77 81  1  0  0  0
 77 85  1  0  0  0
 77 86  2  0  0  0
 78 80  1  0  0  0
 78149  1  0  0  0
 78150  1  0  0  0
 79 84  1  0  0  0
 79151  1  0  0  0
 79152  1  0  0  0
 80 84  1  0  0  0
 80153  1  0  0  0
 80154  1  0  0  0
 81 82  1  0  0  0
 81155  1  0  0  0
 81156  1  0  0  0
 82 83  1  0  0  0
 82157  1  0  0  0
 82158  1  0  0  0
 83159  1  0  0  0
 83160  1  0  0  0
 85161  1  0  0  0
M  ISO  4   1 100  68 101  83 101  84 100
M  END
> <chiral flag>
0

> <version>
0

> <s_m_source_file>
/data/baiqing/PycharmProjects/Reinvent-master-3.2/result/LINK_invent/BTK/process_docking_weight1_custom_product_contain_oxygen_bond_distance_aromatic_linkinvent_7_9_3/rearranged_h_0148.sdf

> <i_m_source_file_index>
48

> <r_mmod_Potential_Energy-OPLS-2005>
15.7034301757812

> <r_mmod_Stretch_Energy-OPLS-2005>
39.197566986084

> <r_mmod_Bend_Energy-OPLS-2005>
108.417663574219

> <r_mmod_Torsional_Energy-OPLS-2005>
288.324249267578

> <r_mmod_Improper_Torsional_Energy-OPLS-2005>
7.63205242156982

> <r_mmod_Van_der_Waal_Energy-OPLS-2005>
167.137481689453

> <r_mmod_Electrostatic_Energy-OPLS-2005>
-388.471435546875

> <r_mmod_Solvation_Energy-OPLS-2005>
-217.00212097168

> <b_mmod_Minimization_Converged-OPLS-2005>
0

> <r_mmod_RMS_Derivative-OPLS-2005>
1.67241561412811

$$$$
48
                    3D
 Structure written by MMmdl.
167177  0  0  1  0            999 V2000
  -30.5848  -14.7881   20.4426 C   0  0  0  0  0  0
  -30.4414  -12.4872   19.4546 C   0  0  0  0  0  0
  -29.5051  -12.4972   18.2252 C   0  0  0  0  0  0
  -28.0398  -12.2969   18.6573 C   0  0  0  0  0  0
  -27.6330  -13.2230   19.8326 C   0  0  2  0  0  0
  -28.6838  -13.1950   20.9623 C   0  0  0  0  0  0
  -25.2494  -13.8163   20.5659 C   0  0  0  0  0  0
  -24.1788  -13.0439   20.9222 C   0  0  0  0  0  0
  -24.6361  -11.6916   20.8762 C   0  0  0  0  0  0
  -23.9038  -10.4286   21.0409 C   0  0  0  0  0  0
  -24.3596   -9.4208   21.9183 C   0  0  0  0  0  0
  -23.6273   -8.2248   22.0756 C   0  0  0  0  0  0
  -22.4253   -8.0285   21.3546 C   0  0  0  0  0  0
  -21.9870   -9.0252   20.4648 C   0  0  0  0  0  0
  -22.7203  -10.2126   20.3066 C   0  0  0  0  0  0
  -21.6854   -6.0725   22.5273 C   0  0  0  0  0  0
  -21.4012   -6.5634   23.8204 C   0  0  0  0  0  0
  -21.3657   -5.6789   24.9169 C   0  0  0  0  0  0
  -21.6050   -4.3050   24.7216 C   0  0  0  0  0  0
  -21.8822   -3.8141   23.4339 C   0  0  0  0  0  0
  -21.9194   -4.6952   22.3385 C   0  0  0  0  0  0
  -22.7818  -13.5261   21.1875 C   0  0  0  0  0  0
  -22.1674   -4.2137   21.0960 F   0  0  0  0  0  0
  -21.5613   -3.4539   25.7737 F   0  0  0  0  0  0
  -29.9748  -13.5553   20.3635 N   0  0  0  0  0  0
  -26.2895  -12.9354   20.3219 N   0  0  0  0  0  0
  -25.9285  -11.6509   20.5723 N   0  0  0  0  0  0
  -22.0459  -12.8265   22.0434 N   0  0  0  0  0  0
  -25.4179  -15.1879   20.3997 N   0  0  0  0  0  0
  -31.8019  -14.8841   20.2613 O   0  0  0  0  0  0
  -21.6641   -6.8879   21.4236 O   0  0  0  0  0  0
  -22.3533  -14.5558   20.6697 O   0  0  0  0  0  0
  -24.6331  -31.8540   23.1951 C   0  0  0  0  0  0
  -25.9148  -32.4749   23.8308 C   0  0  1  0  0  0
  -27.2290  -27.2573   20.1277 C   0  0  0  0  0  0
  -25.5937  -33.8553   24.2232 N   0  0  0  0  0  0
  -23.4302  -30.4734   21.5407 C   0  0  2  0  0  0
  -24.8756  -28.9098   20.1197 C   0  0  0  0  0  0
  -22.7499  -29.4590   22.4924 C   0  0  0  0  0  0
  -18.0289  -28.1392   22.8488 C   0  0  0  0  0  0
  -24.1484  -36.7278   23.2623 C   0  0  0  0  0  0
  -25.9759  -30.7657   21.3722 C   0  0  0  0  0  0
  -26.0504  -29.3857   20.7166 C   0  0  0  0  0  0
  -27.2319  -28.5762   20.6981 C   0  0  0  0  0  0
  -26.0220  -26.8334   19.5356 C   0  0  0  0  0  0
  -24.8653  -27.6397   19.5206 C   0  0  0  0  0  0
  -23.6486  -29.8003   20.1605 C   0  0  0  0  0  0
  -25.4097  -36.3059   24.0322 C   0  0  1  0  0  0
  -20.5893  -28.3692   23.1272 C   0  0  2  0  0  0
  -20.6781  -26.9414   22.5402 C   0  0  0  0  0  0
  -19.5748  -26.6385   21.5212 C   0  0  0  0  0  0
  -18.1930  -26.7935   22.1632 C   0  0  0  0  0  0
  -19.1549  -28.8858   23.2877 C   0  0  0  0  0  0
  -18.9474  -30.1461   23.8900 C   0  0  0  0  0  0
  -17.6474  -30.6592   24.0564 C   0  0  0  0  0  0
  -25.9065  -34.9437   23.5083 C   0  0  0  0  0  0
  -16.5359  -29.9091   23.6330 C   0  0  0  0  0  0
  -16.7275  -28.6505   23.0352 C   0  0  0  0  0  0
  -26.4508  -31.6589   25.0708 C   0  0  0  0  0  0
  -25.3730  -31.3764   26.1435 C   0  0  0  0  0  0
  -27.0348  -30.3000   24.6202 C   0  0  0  0  0  0
  -27.6059  -32.4342   25.7470 C   0  0  0  0  0  0
  -27.5606  -37.1723   24.8417 C   0  0  0  0  0  0
  -21.4210  -29.3045   22.3662 N   0  0  0  0  0  0
  -26.4241  -37.3790   23.9482 N   0  0  0  0  0  0
  -24.6991  -31.0497   22.0927 N   0  0  0  0  0  0
  -23.4182  -28.8149   23.3043 O   0  0  0  0  0  0
  -28.3559  -26.4048   20.0984 O   0  0  0  0  0  0
  -26.5648  -34.8932   22.4659 O   0  0  0  0  0  0
  -23.5478  -32.1365   23.7239 O   0  0  0  0  0  0
  -30.3689  -18.8618   22.7182 C   0  0  0  0  0  0
  -30.4366  -17.5910   22.0761 C   0  0  0  0  0  0
  -29.3536  -18.4818   20.0186 C   0  0  0  0  0  0
  -29.7966  -19.8928   21.9643 C   0  0  0  0  0  0
  -29.3370  -19.7970   20.6290 C   0  0  0  0  0  0
  -29.9056  -17.3362   20.7685 C   0  0  0  0  0  0
  -29.2600  -21.2780   22.0297 C   0  0  0  0  0  0
  -27.7565  -23.1327   16.9388 C   0  0  0  0  0  0
  -27.1768  -24.4805   17.2564 C   0  0  0  0  0  0
  -27.4728  -23.5036   18.3925 C   0  0  0  0  0  0
  -26.2742  -22.8420   19.0579 C   0  0  0  0  0  0
  -30.9076  -24.7602   19.0622 C   0  0  0  0  0  0
  -29.3924  -22.3000   19.7349 C   0  0  0  0  0  0
  -28.2718  -24.9318   20.4374 C   0  0  0  0  0  0
  -28.6571  -23.7516   19.3680 C   0  0  2  0  0  0
  -28.8193  -21.1785   20.5780 N   0  0  0  0  0  0
  -29.7587  -15.9083   20.3586 N   0  0  0  0  0  0
  -29.6281  -24.4083   18.5307 O   0  0  0  0  0  0
  -31.4747  -12.6438   19.1407 H   0  0  0  0  0  0
  -30.4157  -11.5219   19.9607 H   0  0  0  0  0  0
  -29.7927  -11.7199   17.5166 H   0  0  0  0  0  0
  -29.6005  -13.4456   17.6951 H   0  0  0  0  0  0
  -27.9315  -11.2537   18.9589 H   0  0  0  0  0  0
  -27.3694  -12.4414   17.8089 H   0  0  0  0  0  0
  -27.6100  -14.2302   19.4186 H   0  0  0  0  0  0
  -28.7356  -12.2086   21.4259 H   0  0  0  0  0  0
  -28.4125  -13.8970   21.7532 H   0  0  0  0  0  0
  -25.2728   -9.5691   22.4773 H   0  0  0  0  0  0
  -23.9980   -7.4636   22.7472 H   0  0  0  0  0  0
  -21.0794   -8.8776   19.8953 H   0  0  0  0  0  0
  -22.3651  -10.9676   19.6202 H   0  0  0  0  0  0
  -21.2015   -7.6147   23.9701 H   0  0  0  0  0  0
  -21.1473   -6.0519   25.9069 H   0  0  0  0  0  0
  -22.0593   -2.7598   23.2840 H   0  0  0  0  0  0
  -22.4070  -11.9949   22.4860 H   0  0  0  0  0  0
  -21.1083  -13.1313   22.2651 H   0  0  0  0  0  0
  -24.6372  -15.8306   20.4800 H   0  0  0  0  0  0
  -26.2426  -15.6179   20.0049 H   0  0  0  0  0  0
  -26.7222  -32.5396   23.1060 H   0  0  0  0  0  0
  -25.0046  -33.9682   25.0352 H   0  0  0  0  0  0
  -22.7266  -31.2944   21.3902 H   0  0  0  0  0  0
  -23.3783  -35.9569   23.3184 H   0  0  0  0  0  0
  -24.3616  -36.9005   22.2065 H   0  0  0  0  0  0
  -23.7172  -37.6418   23.6717 H   0  0  0  0  0  0
  -26.1118  -31.5231   20.5997 H   0  0  0  0  0  0
  -26.8543  -30.8178   22.0034 H   0  0  0  0  0  0
  -28.1410  -28.9438   21.1536 H   0  0  0  0  0  0
  -25.9598  -25.8553   19.0878 H   0  0  0  0  0  0
  -23.9620  -27.2621   19.0609 H   0  0  0  0  0  0
  -23.7772  -30.5728   19.4017 H   0  0  0  0  0  0
  -22.7665  -29.2347   19.8549 H   0  0  0  0  0  0
  -25.1247  -36.1873   25.0798 H   0  0  0  0  0  0
  -20.9973  -28.3286   24.1402 H   0  0  0  0  0  0
  -20.5683  -26.2310   23.3610 H   0  0  0  0  0  0
  -21.6653  -26.7448   22.1199 H   0  0  0  0  0  0
  -19.6913  -25.6295   21.1246 H   0  0  0  0  0  0
  -19.6683  -27.3193   20.6740 H   0  0  0  0  0  0
  -17.4193  -26.6665   21.4045 H   0  0  0  0  0  0
  -18.0349  -26.0080   22.9033 H   0  0  0  0  0  0
  -19.7948  -30.7276   24.2273 H   0  0  0  0  0  0
  -17.5025  -31.6270   24.5163 H   0  0  0  0  0  0
  -15.5360  -30.2992   23.7652 H   0  0  0  0  0  0
  -15.8675  -28.0813   22.7078 H   0  0  0  0  0  0
  -24.5892  -30.7125   25.7776 H   0  0  0  0  0  0
  -24.8949  -32.2951   26.4841 H   0  0  0  0  0  0
  -25.8045  -30.8955   27.0220 H   0  0  0  0  0  0
  -26.2929  -29.6747   24.1225 H   0  0  0  0  0  0
  -27.4022  -29.7266   25.4722 H   0  0  0  0  0  0
  -27.8809  -30.4269   23.9447 H   0  0  0  0  0  0
  -27.2644  -33.3612   26.2084 H   0  0  0  0  0  0
  -28.3831  -32.6957   25.0277 H   0  0  0  0  0  0
  -28.0780  -31.8464   26.5350 H   0  0  0  0  0  0
  -28.2438  -38.0201   24.7773 H   0  0  0  0  0  0
  -28.1288  -36.2774   24.5833 H   0  0  0  0  0  0
  -27.2407  -37.0868   25.8815 H   0  0  0  0  0  0
  -20.9400  -29.8753   21.6857 H   0  0  0  0  0  0
  -26.0106  -38.2811   24.1687 H   0  0  0  0  0  0
  -30.6880  -19.0073   23.7402 H   0  0  0  0  0  0
  -30.8290  -16.7672   22.6558 H   0  0  0  0  0  0
  -28.8901  -18.3309   19.0539 H   0  0  0  0  0  0
  -30.0266  -22.0246   22.2429 H   0  0  0  0  0  0
  -28.4214  -21.3617   22.7240 H   0  0  0  0  0  0
  -28.7825  -23.1206   16.5777 H   0  0  0  0  0  0
  -27.0950  -22.4153   16.4556 H   0  0  0  0  0  0
  -26.1361  -24.6474   16.9847 H   0  0  0  0  0  0
  -27.8187  -25.3507   17.1335 H   0  0  0  0  0  0
  -25.4693  -22.7041   18.3351 H   0  0  0  0  0  0
  -25.8740  -23.4497   19.8665 H   0  0  0  0  0  0
  -26.5318  -21.8600   19.4494 H   0  0  0  0  0  0
  -31.3974  -25.4517   18.3762 H   0  0  0  0  0  0
  -31.5685  -23.8994   19.1528 H   0  0  0  0  0  0
  -30.8481  -25.2571   20.0289 H   0  0  0  0  0  0
  -30.3586  -22.5159   20.1845 H   0  0  0  0  0  0
  -29.6398  -21.8322   18.7813 H   0  0  0  0  0  0
  -28.9606  -24.8151   21.2729 H   0  0  0  0  0  0
  -27.3076  -24.7270   20.8974 H   0  0  0  0  0  0
  -28.8221  -15.6639   20.0827 H   0  0  0  0  0  0
  1 25  1  0  0  0
  1 30  2  0  0  0
  1 87  1  0  0  0
  2  3  1  0  0  0
  2 25  1  0  0  0
  2 89  1  0  0  0
  2 90  1  0  0  0
  3  4  1  0  0  0
  3 91  1  0  0  0
  3 92  1  0  0  0
  4  5  1  0  0  0
  4 93  1  0  0  0
  4 94  1  0  0  0
  5  6  1  0  0  0
  5 26  1  0  0  0
  5 95  1  0  0  0
  6 25  1  0  0  0
  6 96  1  0  0  0
  6 97  1  0  0  0
  7  8  2  0  0  0
  7 26  1  0  0  0
  7 29  1  0  0  0
  8  9  1  0  0  0
  8 22  1  0  0  0
  9 10  1  0  0  0
  9 27  2  0  0  0
 10 11  2  0  0  0
 10 15  1  0  0  0
 11 12  1  0  0  0
 11 98  1  0  0  0
 12 13  2  0  0  0
 12 99  1  0  0  0
 13 14  1  0  0  0
 13 31  1  0  0  0
 14 15  2  0  0  0
 14100  1  0  0  0
 15101  1  0  0  0
 16 17  2  0  0  0
 16 21  1  0  0  0
 16 31  1  0  0  0
 17 18  1  0  0  0
 17102  1  0  0  0
 18 19  2  0  0  0
 18103  1  0  0  0
 19 20  1  0  0  0
 19 24  1  0  0  0
 20 21  2  0  0  0
 20104  1  0  0  0
 21 23  1  0  0  0
 22 28  1  0  0  0
 22 32  2  0  0  0
 26 27  1  0  0  0
 28105  1  0  0  0
 28106  1  0  0  0
 29107  1  0  0  0
 29108  1  0  0  0
 33 34  1  0  0  0
 33 66  1  0  0  0
 33 70  2  0  0  0
 34 36  1  0  0  0
 34 59  1  0  0  0
 34109  1  0  0  0
 35 44  2  0  0  0
 35 45  1  0  0  0
 35 68  1  0  0  0
 36 56  1  0  0  0
 36110  1  0  0  0
 37 39  1  0  0  0
 37 47  1  0  0  0
 37 66  1  0  0  0
 37111  1  0  0  0
 38 43  2  0  0  0
 38 46  1  0  0  0
 38 47  1  0  0  0
 39 64  1  0  0  0
 39 67  2  0  0  0
 40 52  1  0  0  0
 40 53  2  0  0  0
 40 58  1  0  0  0
 41112  1  0  0  0
 41113  1  0  0  0
 41114  1  0  0  0
 41 48  1  0  0  0
 42 43  1  0  0  0
 42 66  1  0  0  0
 42115  1  0  0  0
 42116  1  0  0  0
 43 44  1  0  0  0
 44117  1  0  0  0
 45 46  2  0  0  0
 45118  1  0  0  0
 46119  1  0  0  0
 47120  1  0  0  0
 47121  1  0  0  0
 48 56  1  0  0  0
 48 65  1  0  0  0
 48122  1  0  0  0
 49 50  1  0  0  0
 49 53  1  0  0  0
 49 64  1  0  0  0
 49123  1  0  0  0
 50 51  1  0  0  0
 50124  1  0  0  0
 50125  1  0  0  0
 51 52  1  0  0  0
 51126  1  0  0  0
 51127  1  0  0  0
 52128  1  0  0  0
 52129  1  0  0  0
 53 54  1  0  0  0
 54 55  2  0  0  0
 54130  1  0  0  0
 55 57  1  0  0  0
 55131  1  0  0  0
 56 69  2  0  0  0
 57 58  2  0  0  0
 57132  1  0  0  0
 58133  1  0  0  0
 59 60  1  0  0  0
 59 61  1  0  0  0
 59 62  1  0  0  0
 60134  1  0  0  0
 60135  1  0  0  0
 60136  1  0  0  0
 61137  1  0  0  0
 61138  1  0  0  0
 61139  1  0  0  0
 62140  1  0  0  0
 62141  1  0  0  0
 62142  1  0  0  0
 63 65  1  0  0  0
 63143  1  0  0  0
 63144  1  0  0  0
 63145  1  0  0  0
 64146  1  0  0  0
 65147  1  0  0  0
 68 84  1  0  0  0
 71 72  2  0  0  0
 71 74  1  0  0  0
 71148  1  0  0  0
 72 76  1  0  0  0
 72149  1  0  0  0
 73 75  1  0  0  0
 73 76  2  0  0  0
 73150  1  0  0  0
 74 75  2  0  0  0
 74 77  1  0  0  0
 75 86  1  0  0  0
 76 87  1  0  0  0
 77 86  1  0  0  0
 77151  1  0  0  0
 77152  1  0  0  0
 78 79  1  0  0  0
 78 80  1  0  0  0
 78153  1  0  0  0
 78154  1  0  0  0
 79 80  1  0  0  0
 79155  1  0  0  0
 79156  1  0  0  0
 80 81  1  0  0  0
 80 85  1  0  0  0
 81157  1  0  0  0
 81158  1  0  0  0
 81159  1  0  0  0
 82 88  1  0  0  0
 82160  1  0  0  0
 82161  1  0  0  0
 82162  1  0  0  0
 83 86  1  0  0  0
 83163  1  0  0  0
 83164  1  0  0  0
 83 85  1  0  0  0
 84 85  1  0  0  0
 84165  1  0  0  0
 84166  1  0  0  0
 85 88  1  0  0  0
 87167  1  0  0  0
M  ISO  4   1 100  68 101  84 101  87 100
M  END
> <chiral flag>
0

> <version>
0

> <s_m_source_file>
/data/baiqing/PycharmProjects/Reinvent-master-3.2/result/LINK_invent/BTK/process_docking_weight1_custom_product_contain_oxygen_bond_distance_aromatic_linkinvent_7_9_3/rearranged_h_0148.sdf

> <i_m_source_file_index>
49

> <r_mmod_Potential_Energy-OPLS-2005>
832.173034667969

> <r_mmod_Stretch_Energy-OPLS-2005>
176.905548095703

> <r_mmod_Bend_Energy-OPLS-2005>
567.292907714844

> <r_mmod_Torsional_Energy-OPLS-2005>
349.534790039062

> <r_mmod_Improper_Torsional_Energy-OPLS-2005>
21.2010402679443

> <r_mmod_Van_der_Waal_Energy-OPLS-2005>
133.145141601562

> <r_mmod_Electrostatic_Energy-OPLS-2005>
-294.337554931641

> <r_mmod_Solvation_Energy-OPLS-2005>
-220.348861694336

> <b_mmod_Minimization_Converged-OPLS-2005>
0

> <r_mmod_RMS_Derivative-OPLS-2005>
2.8786563873291

$$$$
49
                    3D
 Structure written by MMmdl.
152160  0  0  1  0            999 V2000
  -30.5775  -14.7522   20.4682 C   0  0  0  0  0  0
  -30.4444  -12.4595   19.4643 C   0  0  0  0  0  0
  -29.5128  -12.5197   18.2315 C   0  0  0  0  0  0
  -28.0374  -12.3393   18.6448 C   0  0  0  0  0  0
  -27.6454  -13.2263   19.8559 C   0  0  2  0  0  0
  -28.6932  -13.1356   20.9878 C   0  0  0  0  0  0
  -25.2519  -13.8177   20.5684 C   0  0  0  0  0  0
  -24.1813  -13.0427   20.9196 C   0  0  0  0  0  0
  -24.6401  -11.6905   20.8737 C   0  0  0  0  0  0
  -23.9076  -10.4286   21.0401 C   0  0  0  0  0  0
  -24.3628   -9.4198   21.9178 C   0  0  0  0  0  0
  -23.6296   -8.2237   22.0753 C   0  0  0  0  0  0
  -22.4275   -8.0282   21.3547 C   0  0  0  0  0  0
  -21.9914   -9.0252   20.4647 C   0  0  0  0  0  0
  -22.7248  -10.2126   20.3052 C   0  0  0  0  0  0
  -21.6854   -6.0732   22.5278 C   0  0  0  0  0  0
  -21.4015   -6.5634   23.8208 C   0  0  0  0  0  0
  -21.3660   -5.6789   24.9171 C   0  0  0  0  0  0
  -21.6046   -4.3051   24.7225 C   0  0  0  0  0  0
  -21.8819   -3.8141   23.4342 C   0  0  0  0  0  0
  -21.9191   -4.6957   22.3399 C   0  0  0  0  0  0
  -22.7836  -13.5203   21.1859 C   0  0  0  0  0  0
  -22.1661   -4.2140   21.0977 F   0  0  0  0  0  0
  -21.5626   -3.4537   25.7737 F   0  0  0  0  0  0
  -29.9947  -13.5043   20.4116 N   0  0  0  0  0  0
  -26.2954  -12.9380   20.3293 N   0  0  0  0  0  0
  -25.9329  -11.6524   20.5746 N   0  0  0  0  0  0
  -22.0497  -12.8198   22.0425 N   0  0  0  0  0  0
  -25.4186  -15.1916   20.4104 N   0  0  0  0  0  0
  -31.7639  -14.8985   20.1554 O   0  0  0  0  0  0
  -21.6643   -6.8877   21.4243 O   0  0  0  0  0  0
  -22.3513  -14.5511   20.6715 O   0  0  0  0  0  0
  -24.6292  -31.8566   23.1951 C   0  0  0  0  0  0
  -25.9116  -32.4766   23.8318 C   0  0  1  0  0  0
  -27.2265  -27.2605   20.1531 C   0  0  0  0  0  0
  -25.5904  -33.8564   24.2233 N   0  0  0  0  0  0
  -23.4274  -30.4744   21.5377 C   0  0  2  0  0  0
  -24.8776  -28.9100   20.1189 C   0  0  0  0  0  0
  -22.7493  -29.4607   22.4915 C   0  0  0  0  0  0
  -18.0295  -28.1398   22.8491 C   0  0  0  0  0  0
  -24.1488  -36.7273   23.2644 C   0  0  0  0  0  0
  -25.9725  -30.7691   21.3744 C   0  0  0  0  0  0
  -26.0469  -29.3865   20.7263 C   0  0  0  0  0  0
  -27.2258  -28.5765   20.7252 C   0  0  0  0  0  0
  -26.0386  -26.8404   19.5238 C   0  0  0  0  0  0
  -24.8786  -27.6443   19.5067 C   0  0  0  0  0  0
  -23.6491  -29.8001   20.1568 C   0  0  0  0  0  0
  -25.4114  -36.3067   24.0331 C   0  0  1  0  0  0
  -20.5902  -28.3703   23.1276 C   0  0  2  0  0  0
  -20.6775  -26.9420   22.5421 C   0  0  0  0  0  0
  -19.5749  -26.6384   21.5226 C   0  0  0  0  0  0
  -18.1926  -26.7941   22.1629 C   0  0  0  0  0  0
  -19.1555  -28.8864   23.2872 C   0  0  0  0  0  0
  -18.9480  -30.1466   23.8897 C   0  0  0  0  0  0
  -17.6484  -30.6599   24.0566 C   0  0  0  0  0  0
  -25.9052  -34.9447   23.5087 C   0  0  0  0  0  0
  -16.5367  -29.9103   23.6336 C   0  0  0  0  0  0
  -16.7283  -28.6515   23.0363 C   0  0  0  0  0  0
  -26.4482  -31.6589   25.0704 C   0  0  0  0  0  0
  -25.3687  -31.3771   26.1414 C   0  0  0  0  0  0
  -27.0314  -30.3004   24.6177 C   0  0  0  0  0  0
  -27.6026  -32.4333   25.7482 C   0  0  0  0  0  0
  -27.5583  -37.1781   24.8461 C   0  0  0  0  0  0
  -21.4206  -29.3038   22.3651 N   0  0  0  0  0  0
  -26.4281  -37.3769   23.9426 N   0  0  0  0  0  0
  -24.6949  -31.0526   22.0920 N   0  0  0  0  0  0
  -23.4186  -28.8184   23.3048 O   0  0  0  0  0  0
  -28.3501  -26.4055   20.1150 O   0  0  0  0  0  0
  -26.5639  -34.8926   22.4665 O   0  0  0  0  0  0
  -23.5442  -32.1397   23.7231 O   0  0  0  0  0  0
  -30.6214  -19.5143   20.7013 C   0  0  0  0  0  0
  -30.9077  -18.0832   20.7783 C   0  0  0  0  0  0
  -29.3130  -19.8531   20.4138 C   0  0  0  0  0  0
  -29.8342  -17.2281   20.5913 C   0  0  0  0  0  0
  -28.2602  -23.6717   20.3360 C   0  0  0  0  0  0
  -28.9490  -22.4901   20.6087 C   0  0  0  0  0  0
  -27.8331  -25.2301   22.3106 C   0  0  0  0  0  0
  -28.7093  -24.9691   23.5294 C   0  0  0  0  0  0
  -28.5087  -25.1363   20.9265 C   0  0  2  0  0  0
  -28.6498  -21.1361   20.2084 N   0  0  0  0  0  0
  -29.7172  -15.8250   20.6638 N   0  0  0  0  0  0
  -26.6237  -25.4344   22.4498 O   0  0  0  0  0  0
  -28.4315  -18.3024   20.2792 S   0  0  0  0  0  0
  -31.4823  -12.6017   19.1585 H   0  0  0  0  0  0
  -30.4019  -11.4743   19.9303 H   0  0  0  0  0  0
  -29.7927  -11.7573   17.5026 H   0  0  0  0  0  0
  -29.6359  -13.4816   17.7298 H   0  0  0  0  0  0
  -27.8889  -11.2877   18.8920 H   0  0  0  0  0  0
  -27.3806  -12.5452   17.7982 H   0  0  0  0  0  0
  -27.6421  -14.2516   19.4867 H   0  0  0  0  0  0
  -28.7293  -12.1270   21.4005 H   0  0  0  0  0  0
  -28.4275  -13.7906   21.8192 H   0  0  0  0  0  0
  -25.2777   -9.5663   22.4749 H   0  0  0  0  0  0
  -23.9997   -7.4627   22.7481 H   0  0  0  0  0  0
  -21.0838   -8.8777   19.8959 H   0  0  0  0  0  0
  -22.3712  -10.9665   19.6159 H   0  0  0  0  0  0
  -21.2015   -7.6143   23.9709 H   0  0  0  0  0  0
  -21.1482   -6.0520   25.9072 H   0  0  0  0  0  0
  -22.0598   -2.7603   23.2847 H   0  0  0  0  0  0
  -22.4121  -11.9848   22.4789 H   0  0  0  0  0  0
  -21.1124  -13.1221   22.2669 H   0  0  0  0  0  0
  -24.6417  -15.8354   20.5147 H   0  0  0  0  0  0
  -26.2528  -15.6386   20.0542 H   0  0  0  0  0  0
  -26.7174  -32.5426   23.1056 H   0  0  0  0  0  0
  -25.0026  -33.9710   25.0367 H   0  0  0  0  0  0
  -22.7218  -31.2938   21.3850 H   0  0  0  0  0  0
  -23.3763  -35.9590   23.3294 H   0  0  0  0  0  0
  -24.3577  -36.8908   22.2059 H   0  0  0  0  0  0
  -23.7232  -37.6464   23.6681 H   0  0  0  0  0  0
  -26.1044  -31.5259   20.5996 H   0  0  0  0  0  0
  -26.8523  -30.8272   22.0053 H   0  0  0  0  0  0
  -28.1284  -28.9450   21.1909 H   0  0  0  0  0  0
  -26.0073  -25.8684   19.0521 H   0  0  0  0  0  0
  -23.9831  -27.2737   19.0271 H   0  0  0  0  0  0
  -23.7772  -30.5740   19.3989 H   0  0  0  0  0  0
  -22.7688  -29.2321   19.8508 H   0  0  0  0  0  0
  -25.1298  -36.1900   25.0823 H   0  0  0  0  0  0
  -20.9982  -28.3287   24.1400 H   0  0  0  0  0  0
  -20.5685  -26.2314   23.3625 H   0  0  0  0  0  0
  -21.6640  -26.7437   22.1210 H   0  0  0  0  0  0
  -19.6903  -25.6287   21.1268 H   0  0  0  0  0  0
  -19.6696  -27.3185   20.6750 H   0  0  0  0  0  0
  -17.4196  -26.6707   21.4023 H   0  0  0  0  0  0
  -18.0303  -26.0091   22.9030 H   0  0  0  0  0  0
  -19.7968  -30.7281   24.2249 H   0  0  0  0  0  0
  -17.5050  -31.6285   24.5168 H   0  0  0  0  0  0
  -15.5370  -30.3014   23.7666 H   0  0  0  0  0  0
  -15.8677  -28.0839   22.7082 H   0  0  0  0  0  0
  -24.5865  -30.7115   25.7756 H   0  0  0  0  0  0
  -24.8871  -32.2953   26.4785 H   0  0  0  0  0  0
  -25.7983  -30.8995   27.0225 H   0  0  0  0  0  0
  -26.2891  -29.6769   24.1181 H   0  0  0  0  0  0
  -27.3982  -29.7252   25.4685 H   0  0  0  0  0  0
  -27.8773  -30.4290   23.9423 H   0  0  0  0  0  0
  -27.2623  -33.3642   26.2039 H   0  0  0  0  0  0
  -28.3848  -32.6883   25.0316 H   0  0  0  0  0  0
  -28.0676  -31.8469   26.5420 H   0  0  0  0  0  0
  -28.2566  -38.0111   24.7530 H   0  0  0  0  0  0
  -28.1103  -36.2633   24.6239 H   0  0  0  0  0  0
  -27.2300  -37.1370   25.8863 H   0  0  0  0  0  0
  -20.9380  -29.8736   21.6843 H   0  0  0  0  0  0
  -26.0154  -38.2834   24.1458 H   0  0  0  0  0  0
  -31.4096  -20.2404   20.8400 H   0  0  0  0  0  0
  -31.9113  -17.7435   20.9927 H   0  0  0  0  0  0
  -27.3970  -23.6166   19.6886 H   0  0  0  0  0  0
  -29.8223  -22.5370   21.2466 H   0  0  0  0  0  0
  -29.0131  -23.9223   23.5602 H   0  0  0  0  0  0
  -28.1677  -25.2023   24.4462 H   0  0  0  0  0  0
  -29.6035  -25.5903   23.4929 H   0  0  0  0  0  0
  -29.5758  -25.1343   21.1537 H   0  0  0  0  0  0
  -27.7508  -21.0099   19.7489 H   0  0  0  0  0  0
  -28.7706  -15.5069   20.8061 H   0  0  0  0  0  0
  1 25  1  0  0  0
  1 30  2  0  0  0
  1 81  1  0  0  0
  2  3  1  0  0  0
  2 25  1  0  0  0
  2 84  1  0  0  0
  2 85  1  0  0  0
  3  4  1  0  0  0
  3 86  1  0  0  0
  3 87  1  0  0  0
  4  5  1  0  0  0
  4 88  1  0  0  0
  4 89  1  0  0  0
  5  6  1  0  0  0
  5 26  1  0  0  0
  5 90  1  0  0  0
  6 25  1  0  0  0
  6 91  1  0  0  0
  6 92  1  0  0  0
  7  8  2  0  0  0
  7 26  1  0  0  0
  7 29  1  0  0  0
  8  9  1  0  0  0
  8 22  1  0  0  0
  9 10  1  0  0  0
  9 27  2  0  0  0
 10 11  2  0  0  0
 10 15  1  0  0  0
 11 12  1  0  0  0
 11 93  1  0  0  0
 12 13  2  0  0  0
 12 94  1  0  0  0
 13 14  1  0  0  0
 13 31  1  0  0  0
 14 15  2  0  0  0
 14 95  1  0  0  0
 15 96  1  0  0  0
 16 17  2  0  0  0
 16 21  1  0  0  0
 16 31  1  0  0  0
 17 18  1  0  0  0
 17 97  1  0  0  0
 18 19  2  0  0  0
 18 98  1  0  0  0
 19 20  1  0  0  0
 19 24  1  0  0  0
 20 21  2  0  0  0
 20 99  1  0  0  0
 21 23  1  0  0  0
 22 28  1  0  0  0
 22 32  2  0  0  0
 26 27  1  0  0  0
 28100  1  0  0  0
 28101  1  0  0  0
 29102  1  0  0  0
 29103  1  0  0  0
 33 34  1  0  0  0
 33 66  1  0  0  0
 33 70  2  0  0  0
 34 36  1  0  0  0
 34 59  1  0  0  0
 34104  1  0  0  0
 35 44  2  0  0  0
 35 45  1  0  0  0
 35 68  1  0  0  0
 36 56  1  0  0  0
 36105  1  0  0  0
 37 39  1  0  0  0
 37 47  1  0  0  0
 37 66  1  0  0  0
 37106  1  0  0  0
 38 43  2  0  0  0
 38 46  1  0  0  0
 38 47  1  0  0  0
 39 64  1  0  0  0
 39 67  2  0  0  0
 40 52  1  0  0  0
 40 53  2  0  0  0
 40 58  1  0  0  0
 41107  1  0  0  0
 41108  1  0  0  0
 41109  1  0  0  0
 41 48  1  0  0  0
 42 43  1  0  0  0
 42 66  1  0  0  0
 42110  1  0  0  0
 42111  1  0  0  0
 43 44  1  0  0  0
 44112  1  0  0  0
 45 46  2  0  0  0
 45113  1  0  0  0
 46114  1  0  0  0
 47115  1  0  0  0
 47116  1  0  0  0
 48 56  1  0  0  0
 48 65  1  0  0  0
 48117  1  0  0  0
 49 50  1  0  0  0
 49 53  1  0  0  0
 49 64  1  0  0  0
 49118  1  0  0  0
 50 51  1  0  0  0
 50119  1  0  0  0
 50120  1  0  0  0
 51 52  1  0  0  0
 51121  1  0  0  0
 51122  1  0  0  0
 52123  1  0  0  0
 52124  1  0  0  0
 53 54  1  0  0  0
 54 55  2  0  0  0
 54125  1  0  0  0
 55 57  1  0  0  0
 55126  1  0  0  0
 56 69  2  0  0  0
 57 58  2  0  0  0
 57127  1  0  0  0
 58128  1  0  0  0
 59 60  1  0  0  0
 59 61  1  0  0  0
 59 62  1  0  0  0
 60129  1  0  0  0
 60130  1  0  0  0
 60131  1  0  0  0
 61132  1  0  0  0
 61133  1  0  0  0
 61134  1  0  0  0
 62135  1  0  0  0
 62136  1  0  0  0
 62137  1  0  0  0
 63 65  1  0  0  0
 63138  1  0  0  0
 63139  1  0  0  0
 63140  1  0  0  0
 64141  1  0  0  0
 65142  1  0  0  0
 68 79  1  0  0  0
 71 72  1  0  0  0
 71 73  2  0  0  0
 71143  1  0  0  0
 72 74  2  0  0  0
 72144  1  0  0  0
 73 80  1  0  0  0
 73 83  1  0  0  0
 74 81  1  0  0  0
 74 83  1  0  0  0
 75 76  2  0  0  0
 75 79  1  0  0  0
 75145  1  0  0  0
 76 80  1  0  0  0
 76146  1  0  0  0
 77 78  1  0  0  0
 77 79  1  0  0  0
 77 82  2  0  0  0
 78147  1  0  0  0
 78148  1  0  0  0
 78149  1  0  0  0
 79150  1  0  0  0
 80151  1  0  0  0
 81152  1  0  0  0
M  ISO  4   1 100  68 101  79 101  81 100
M  END
> <chiral flag>
0

> <version>
0

> <s_m_source_file>
/data/baiqing/PycharmProjects/Reinvent-master-3.2/result/LINK_invent/BTK/process_docking_weight1_custom_product_contain_oxygen_bond_distance_aromatic_linkinvent_7_9_3/rearranged_h_0148.sdf

> <i_m_source_file_index>
50

> <r_mmod_Potential_Energy-OPLS-2005>
214.120452880859

> <r_mmod_Stretch_Energy-OPLS-2005>
114.085342407227

> <r_mmod_Bend_Energy-OPLS-2005>
187.634994506836

> <r_mmod_Torsional_Energy-OPLS-2005>
246.577499389648

> <r_mmod_Improper_Torsional_Energy-OPLS-2005>
6.70004034042358

> <r_mmod_Van_der_Waal_Energy-OPLS-2005>
106.172554016113

> <r_mmod_Electrostatic_Energy-OPLS-2005>
-299.555328369141

> <r_mmod_Solvation_Energy-OPLS-2005>
-229.919830322266

> <b_mmod_Minimization_Converged-OPLS-2005>
0

> <r_mmod_RMS_Derivative-OPLS-2005>
1.84518265724182

$$$$
50
                    3D
 Structure written by MMmdl.
156165  0  0  1  0            999 V2000
  -30.6632  -14.5831   20.4822 C   0  0  0  0  0  0
  -30.4278  -12.3487   19.4611 C   0  0  0  0  0  0
  -29.5065  -12.4806   18.2282 C   0  0  0  0  0  0
  -28.0269  -12.3447   18.6372 C   0  0  0  0  0  0
  -27.6554  -13.2189   19.8655 C   0  0  2  0  0  0
  -28.6978  -13.0727   20.9986 C   0  0  0  0  0  0
  -25.2562  -13.8180   20.5705 C   0  0  0  0  0  0
  -24.1826  -13.0440   20.9194 C   0  0  0  0  0  0
  -24.6395  -11.6911   20.8741 C   0  0  0  0  0  0
  -23.9064  -10.4292   21.0403 C   0  0  0  0  0  0
  -24.3615   -9.4207   21.9180 C   0  0  0  0  0  0
  -23.6293   -8.2240   22.0753 C   0  0  0  0  0  0
  -22.4270   -8.0280   21.3550 C   0  0  0  0  0  0
  -21.9906   -9.0250   20.4649 C   0  0  0  0  0  0
  -22.7236  -10.2129   20.3056 C   0  0  0  0  0  0
  -21.6850   -6.0736   22.5280 C   0  0  0  0  0  0
  -21.4012   -6.5640   23.8213 C   0  0  0  0  0  0
  -21.3662   -5.6793   24.9176 C   0  0  0  0  0  0
  -21.6044   -4.3056   24.7226 C   0  0  0  0  0  0
  -21.8818   -3.8148   23.4346 C   0  0  0  0  0  0
  -21.9189   -4.6965   22.3402 C   0  0  0  0  0  0
  -22.7847  -13.5233   21.1849 C   0  0  0  0  0  0
  -22.1659   -4.2152   21.0979 F   0  0  0  0  0  0
  -21.5626   -3.4540   25.7739 F   0  0  0  0  0  0
  -30.0209  -13.3784   20.4364 N   0  0  0  0  0  0
  -26.3000  -12.9375   20.3340 N   0  0  0  0  0  0
  -25.9327  -11.6524   20.5771 N   0  0  0  0  0  0
  -22.0483  -12.8228   22.0405 N   0  0  0  0  0  0
  -25.4265  -15.1904   20.4135 N   0  0  0  0  0  0
  -31.8301  -14.7112   20.1007 O   0  0  0  0  0  0
  -21.6636   -6.8877   21.4242 O   0  0  0  0  0  0
  -22.3531  -14.5537   20.6696 O   0  0  0  0  0  0
  -24.6217  -31.8636   23.2082 C   0  0  0  0  0  0
  -25.9085  -32.4799   23.8391 C   0  0  1  0  0  0
  -27.2197  -27.3581   20.1066 C   0  0  0  0  0  0
  -25.5920  -33.8603   24.2309 N   0  0  0  0  0  0
  -23.4129  -30.4902   21.5496 C   0  0  2  0  0  0
  -24.8583  -28.9574   20.1084 C   0  0  0  0  0  0
  -22.7453  -29.4636   22.4952 C   0  0  0  0  0  0
  -18.0280  -28.1379   22.8486 C   0  0  0  0  0  0
  -24.1486  -36.7304   23.2635 C   0  0  0  0  0  0
  -25.9516  -30.8071   21.3748 C   0  0  0  0  0  0
  -26.0253  -29.4391   20.7145 C   0  0  0  0  0  0
  -27.2089  -28.6491   20.7085 C   0  0  0  0  0  0
  -26.0334  -26.9319   19.4616 C   0  0  0  0  0  0
  -24.8621  -27.7072   19.4744 C   0  0  0  0  0  0
  -23.6245  -29.8310   20.1620 C   0  0  0  0  0  0
  -25.4110  -36.3098   24.0328 C   0  0  1  0  0  0
  -20.5879  -28.3674   23.1294 C   0  0  2  0  0  0
  -20.6770  -26.9402   22.5411 C   0  0  0  0  0  0
  -19.5745  -26.6379   21.5210 C   0  0  0  0  0  0
  -18.1925  -26.7923   22.1624 C   0  0  0  0  0  0
  -19.1533  -28.8842   23.2887 C   0  0  0  0  0  0
  -18.9457  -30.1448   23.8899 C   0  0  0  0  0  0
  -17.6460  -30.6582   24.0562 C   0  0  0  0  0  0
  -25.9040  -34.9464   23.5112 C   0  0  0  0  0  0
  -16.5349  -29.9083   23.6330 C   0  0  0  0  0  0
  -16.7270  -28.6502   23.0345 C   0  0  0  0  0  0
  -26.4490  -31.6603   25.0745 C   0  0  0  0  0  0
  -25.3740  -31.3732   26.1483 C   0  0  0  0  0  0
  -27.0324  -30.3031   24.6173 C   0  0  0  0  0  0
  -27.6049  -32.4337   25.7514 C   0  0  0  0  0  0
  -27.5578  -37.1807   24.8464 C   0  0  0  0  0  0
  -21.4171  -29.3037   22.3696 N   0  0  0  0  0  0
  -26.4291  -37.3787   23.9405 N   0  0  0  0  0  0
  -24.6807  -31.0686   22.1014 N   0  0  0  0  0  0
  -23.4198  -28.8157   23.3002 O   0  0  0  0  0  0
  -28.3405  -26.5239   20.1758 O   0  0  0  0  0  0
  -26.5601  -34.8921   22.4672 O   0  0  0  0  0  0
  -23.5390  -32.1411   23.7435 O   0  0  0  0  0  0
  -29.5917  -17.7775   17.6837 C   0  0  0  0  0  0
  -29.6140  -19.0845   18.1948 C   0  0  0  0  0  0
  -29.7015  -16.6809   18.5450 C   0  0  0  0  0  0
  -29.8084  -18.2231   20.4356 C   0  0  0  0  0  0
  -29.7151  -19.3811   19.5784 C   0  0  0  0  0  0
  -29.8324  -16.8708   19.9367 C   0  0  0  0  0  0
  -29.3165  -21.3460   21.2044 C   0  0  0  0  0  0
  -29.1128  -21.7946   19.1214 C   0  0  0  0  0  0
  -28.7096  -22.5440   20.4065 C   0  0  0  0  0  0
  -29.1094  -24.0510   20.6226 C   0  0  0  0  0  0
  -28.1146  -25.0855   19.9822 C   0  0  0  0  0  0
  -29.7981  -20.7911   19.9427 N   0  0  0  0  0  0
  -29.9092  -15.6836   20.7702 N   0  0  0  0  0  0
  -31.4736  -12.4429   19.1644 H   0  0  0  0  0  0
  -30.3356  -11.3570   19.9065 H   0  0  0  0  0  0
  -29.7589  -11.7180   17.4902 H   0  0  0  0  0  0
  -29.6708  -13.4399   17.7372 H   0  0  0  0  0  0
  -27.8507  -11.2934   18.8686 H   0  0  0  0  0  0
  -27.3774  -12.5813   17.7936 H   0  0  0  0  0  0
  -27.6777  -14.2547   19.5259 H   0  0  0  0  0  0
  -28.6907  -12.0575   21.3984 H   0  0  0  0  0  0
  -28.4579  -13.7276   21.8372 H   0  0  0  0  0  0
  -25.2761   -9.5683   22.4749 H   0  0  0  0  0  0
  -24.0007   -7.4630   22.7468 H   0  0  0  0  0  0
  -21.0838   -8.8771   19.8953 H   0  0  0  0  0  0
  -22.3699  -10.9666   19.6164 H   0  0  0  0  0  0
  -21.2007   -7.6147   23.9726 H   0  0  0  0  0  0
  -21.1485   -6.0517   25.9081 H   0  0  0  0  0  0
  -22.0595   -2.7612   23.2843 H   0  0  0  0  0  0
  -22.4103  -11.9903   22.4817 H   0  0  0  0  0  0
  -21.1096  -13.1254   22.2598 H   0  0  0  0  0  0
  -24.6606  -15.8447   20.5303 H   0  0  0  0  0  0
  -26.2795  -15.6332   20.0961 H   0  0  0  0  0  0
  -26.7153  -32.5484   23.1146 H   0  0  0  0  0  0
  -25.0092  -33.9765   25.0470 H   0  0  0  0  0  0
  -22.7040  -31.3095   21.4123 H   0  0  0  0  0  0
  -23.3745  -35.9641   23.3308 H   0  0  0  0  0  0
  -24.3577  -36.8911   22.2048 H   0  0  0  0  0  0
  -23.7247  -37.6510   23.6653 H   0  0  0  0  0  0
  -26.0788  -31.5743   20.6096 H   0  0  0  0  0  0
  -26.8335  -30.8535   22.0018 H   0  0  0  0  0  0
  -28.1030  -29.0106   21.1971 H   0  0  0  0  0  0
  -25.9776  -25.9848   18.9455 H   0  0  0  0  0  0
  -23.9696  -27.3363   18.9898 H   0  0  0  0  0  0
  -23.7381  -30.6098   19.4070 H   0  0  0  0  0  0
  -22.7459  -29.2574   19.8610 H   0  0  0  0  0  0
  -25.1289  -36.1954   25.0820 H   0  0  0  0  0  0
  -20.9974  -28.3246   24.1412 H   0  0  0  0  0  0
  -20.5669  -26.2282   23.3605 H   0  0  0  0  0  0
  -21.6640  -26.7435   22.1205 H   0  0  0  0  0  0
  -19.6905  -25.6290   21.1236 H   0  0  0  0  0  0
  -19.6683  -27.3191   20.6740 H   0  0  0  0  0  0
  -17.4194  -26.6666   21.4028 H   0  0  0  0  0  0
  -18.0330  -26.0067   22.9023 H   0  0  0  0  0  0
  -19.7932  -30.7261   24.2272 H   0  0  0  0  0  0
  -17.5012  -31.6262   24.5161 H   0  0  0  0  0  0
  -15.5348  -30.2982   23.7653 H   0  0  0  0  0  0
  -15.8670  -28.0822   22.7055 H   0  0  0  0  0  0
  -24.5904  -30.7088   25.7824 H   0  0  0  0  0  0
  -24.8947  -32.2898   26.4931 H   0  0  0  0  0  0
  -25.8081  -30.8900   27.0245 H   0  0  0  0  0  0
  -26.2888  -29.6792   24.1196 H   0  0  0  0  0  0
  -27.4029  -29.7275   25.4667 H   0  0  0  0  0  0
  -27.8761  -30.4323   23.9387 H   0  0  0  0  0  0
  -27.2652  -33.3630   26.2101 H   0  0  0  0  0  0
  -28.3858  -32.6908   25.0345 H   0  0  0  0  0  0
  -28.0721  -31.8461   26.5426 H   0  0  0  0  0  0
  -28.2598  -38.0101   24.7503 H   0  0  0  0  0  0
  -28.1068  -36.2629   24.6298 H   0  0  0  0  0  0
  -27.2294  -37.1469   25.8867 H   0  0  0  0  0  0
  -20.9334  -29.8780   21.6933 H   0  0  0  0  0  0
  -26.0171  -38.2861   24.1409 H   0  0  0  0  0  0
  -29.5018  -17.6186   16.6179 H   0  0  0  0  0  0
  -29.5657  -19.8830   17.4683 H   0  0  0  0  0  0
  -29.6807  -15.6905   18.1151 H   0  0  0  0  0  0
  -29.8994  -18.3789   21.5013 H   0  0  0  0  0  0
  -28.5659  -20.7235   21.6940 H   0  0  0  0  0  0
  -30.1242  -21.6243   21.8831 H   0  0  0  0  0  0
  -29.7933  -22.3506   18.4746 H   0  0  0  0  0  0
  -28.2468  -21.4167   18.5749 H   0  0  0  0  0  0
  -27.6274  -22.4535   20.5186 H   0  0  0  0  0  0
  -30.1132  -24.2293   20.2365 H   0  0  0  0  0  0
  -29.1664  -24.2551   21.6920 H   0  0  0  0  0  0
  -27.1428  -24.8204   20.4013 H   0  0  0  0  0  0
  -28.0563  -24.8940   18.9097 H   0  0  0  0  0  0
  -29.0772  -15.4912   21.3081 H   0  0  0  0  0  0
  1 25  1  0  0  0
  1 30  2  0  0  0
  1 83  1  0  0  0
  2  3  1  0  0  0
  2 25  1  0  0  0
  2 84  1  0  0  0
  2 85  1  0  0  0
  3  4  1  0  0  0
  3 86  1  0  0  0
  3 87  1  0  0  0
  4  5  1  0  0  0
  4 88  1  0  0  0
  4 89  1  0  0  0
  5  6  1  0  0  0
  5 26  1  0  0  0
  5 90  1  0  0  0
  6 25  1  0  0  0
  6 91  1  0  0  0
  6 92  1  0  0  0
  7  8  2  0  0  0
  7 26  1  0  0  0
  7 29  1  0  0  0
  8  9  1  0  0  0
  8 22  1  0  0  0
  9 10  1  0  0  0
  9 27  2  0  0  0
 10 11  2  0  0  0
 10 15  1  0  0  0
 11 12  1  0  0  0
 11 93  1  0  0  0
 12 13  2  0  0  0
 12 94  1  0  0  0
 13 14  1  0  0  0
 13 31  1  0  0  0
 14 15  2  0  0  0
 14 95  1  0  0  0
 15 96  1  0  0  0
 16 17  2  0  0  0
 16 21  1  0  0  0
 16 31  1  0  0  0
 17 18  1  0  0  0
 17 97  1  0  0  0
 18 19  2  0  0  0
 18 98  1  0  0  0
 19 20  1  0  0  0
 19 24  1  0  0  0
 20 21  2  0  0  0
 20 99  1  0  0  0
 21 23  1  0  0  0
 22 28  1  0  0  0
 22 32  2  0  0  0
 26 27  1  0  0  0
 28100  1  0  0  0
 28101  1  0  0  0
 29102  1  0  0  0
 29103  1  0  0  0
 33 34  1  0  0  0
 33 66  1  0  0  0
 33 70  2  0  0  0
 34 36  1  0  0  0
 34 59  1  0  0  0
 34104  1  0  0  0
 35 44  2  0  0  0
 35 45  1  0  0  0
 35 68  1  0  0  0
 36 56  1  0  0  0
 36105  1  0  0  0
 37 39  1  0  0  0
 37 47  1  0  0  0
 37 66  1  0  0  0
 37106  1  0  0  0
 38 43  2  0  0  0
 38 46  1  0  0  0
 38 47  1  0  0  0
 39 64  1  0  0  0
 39 67  2  0  0  0
 40 52  1  0  0  0
 40 53  2  0  0  0
 40 58  1  0  0  0
 41107  1  0  0  0
 41108  1  0  0  0
 41109  1  0  0  0
 41 48  1  0  0  0
 42 43  1  0  0  0
 42 66  1  0  0  0
 42110  1  0  0  0
 42111  1  0  0  0
 43 44  1  0  0  0
 44112  1  0  0  0
 45 46  2  0  0  0
 45113  1  0  0  0
 46114  1  0  0  0
 47115  1  0  0  0
 47116  1  0  0  0
 48 56  1  0  0  0
 48 65  1  0  0  0
 48117  1  0  0  0
 49 50  1  0  0  0
 49 53  1  0  0  0
 49 64  1  0  0  0
 49118  1  0  0  0
 50 51  1  0  0  0
 50119  1  0  0  0
 50120  1  0  0  0
 51 52  1  0  0  0
 51121  1  0  0  0
 51122  1  0  0  0
 52123  1  0  0  0
 52124  1  0  0  0
 53 54  1  0  0  0
 54 55  2  0  0  0
 54125  1  0  0  0
 55 57  1  0  0  0
 55126  1  0  0  0
 56 69  2  0  0  0
 57 58  2  0  0  0
 57127  1  0  0  0
 58128  1  0  0  0
 59 60  1  0  0  0
 59 61  1  0  0  0
 59 62  1  0  0  0
 60129  1  0  0  0
 60130  1  0  0  0
 60131  1  0  0  0
 61132  1  0  0  0
 61133  1  0  0  0
 61134  1  0  0  0
 62135  1  0  0  0
 62136  1  0  0  0
 62137  1  0  0  0
 63 65  1  0  0  0
 63138  1  0  0  0
 63139  1  0  0  0
 63140  1  0  0  0
 64141  1  0  0  0
 65142  1  0  0  0
 68 81  1  0  0  0
 71 72  2  0  0  0
 71 73  1  0  0  0
 71143  1  0  0  0
 72 75  1  0  0  0
 72144  1  0  0  0
 73 76  2  0  0  0
 73145  1  0  0  0
 74 75  2  0  0  0
 74 76  1  0  0  0
 74146  1  0  0  0
 75 82  1  0  0  0
 76 83  1  0  0  0
 77 79  1  0  0  0
 77 82  1  0  0  0
 77147  1  0  0  0
 77148  1  0  0  0
 78 79  1  0  0  0
 78 82  1  0  0  0
 78149  1  0  0  0
 78150  1  0  0  0
 79 80  1  0  0  0
 79151  1  0  0  0
 80 81  1  0  0  0
 80152  1  0  0  0
 80153  1  0  0  0
 81154  1  0  0  0
 81155  1  0  0  0
 83156  1  0  0  0
M  ISO  4   1 100  68 101  81 101  83 100
M  END
> <chiral flag>
0

> <version>
0

> <s_m_source_file>
/data/baiqing/PycharmProjects/Reinvent-master-3.2/result/LINK_invent/BTK/process_docking_weight1_custom_product_contain_oxygen_bond_distance_aromatic_linkinvent_7_9_3/rearranged_h_0148.sdf

> <i_m_source_file_index>
51

> <r_mmod_Potential_Energy-OPLS-2005>
125.591857910156

> <r_mmod_Stretch_Energy-OPLS-2005>
64.2649917602539

> <r_mmod_Bend_Energy-OPLS-2005>
152.965805053711

> <r_mmod_Torsional_Energy-OPLS-2005>
295.282470703125

> <r_mmod_Improper_Torsional_Energy-OPLS-2005>
13.2806024551392

> <r_mmod_Van_der_Waal_Energy-OPLS-2005>
151.105758666992

> <r_mmod_Electrostatic_Energy-OPLS-2005>
-350.939727783203

> <r_mmod_Solvation_Energy-OPLS-2005>
-236.559967041016

> <b_mmod_Minimization_Converged-OPLS-2005>
0

> <r_mmod_RMS_Derivative-OPLS-2005>
0.906158030033112

$$$$
51
                    3D
 Structure written by MMmdl.
158167  0  0  1  0            999 V2000
  -30.4867  -15.1608   20.3947 C   0  0  0  0  0  0
  -30.4342  -12.7473   19.4841 C   0  0  0  0  0  0
  -29.5144  -12.5455   18.2571 C   0  0  0  0  0  0
  -28.0638  -12.2839   18.7012 C   0  0  0  0  0  0
  -27.6082  -13.2631   19.8121 C   0  0  2  0  0  0
  -28.6536  -13.4190   20.9346 C   0  0  0  0  0  0
  -25.2408  -13.8247   20.5754 C   0  0  0  0  0  0
  -24.1744  -13.0448   20.9267 C   0  0  0  0  0  0
  -24.6386  -11.6939   20.8765 C   0  0  0  0  0  0
  -23.9079  -10.4301   21.0418 C   0  0  0  0  0  0
  -24.3624   -9.4209   21.9188 C   0  0  0  0  0  0
  -23.6302   -8.2237   22.0753 C   0  0  0  0  0  0
  -22.4282   -8.0278   21.3547 C   0  0  0  0  0  0
  -21.9922   -9.0250   20.4647 C   0  0  0  0  0  0
  -22.7254  -10.2133   20.3068 C   0  0  0  0  0  0
  -21.6850   -6.0740   22.5275 C   0  0  0  0  0  0
  -21.4012   -6.5649   23.8210 C   0  0  0  0  0  0
  -21.3659   -5.6807   24.9172 C   0  0  0  0  0  0
  -21.6050   -4.3070   24.7227 C   0  0  0  0  0  0
  -21.8813   -3.8155   23.4349 C   0  0  0  0  0  0
  -21.9190   -4.6966   22.3403 C   0  0  0  0  0  0
  -22.7764  -13.5197   21.1934 C   0  0  0  0  0  0
  -22.1658   -4.2155   21.0979 F   0  0  0  0  0  0
  -21.5622   -3.4555   25.7737 F   0  0  0  0  0  0
  -29.8836  -13.8905   20.2841 N   0  0  0  0  0  0
  -26.2805  -12.9489   20.3212 N   0  0  0  0  0  0
  -25.9314  -11.6609   20.5720 N   0  0  0  0  0  0
  -22.0435  -12.8146   22.0479 N   0  0  0  0  0  0
  -25.4115  -15.1967   20.4186 N   0  0  0  0  0  0
  -31.7197  -15.1414   20.2793 O   0  0  0  0  0  0
  -21.6643   -6.8873   21.4239 O   0  0  0  0  0  0
  -22.3421  -14.5500   20.6795 O   0  0  0  0  0  0
  -24.6563  -31.8319   23.1773 C   0  0  0  0  0  0
  -25.9274  -32.4623   23.8222 C   0  0  1  0  0  0
  -27.2167  -27.0009   20.1847 C   0  0  0  0  0  0
  -25.5963  -33.8437   24.2129 N   0  0  0  0  0  0
  -23.4677  -30.4468   21.5236 C   0  0  2  0  0  0
  -24.9186  -28.8419   20.1179 C   0  0  0  0  0  0
  -22.7621  -29.4516   22.4804 C   0  0  0  0  0  0
  -18.0321  -28.1409   22.8477 C   0  0  0  0  0  0
  -24.1491  -36.7231   23.2646 C   0  0  0  0  0  0
  -26.0323  -30.6625   21.3950 C   0  0  0  0  0  0
  -26.1011  -29.2584   20.7425 C   0  0  0  0  0  0
  -27.2508  -28.3589   20.7484 C   0  0  0  0  0  0
  -26.0055  -26.7156   19.5202 C   0  0  0  0  0  0
  -24.8906  -27.5878   19.4872 C   0  0  0  0  0  0
  -23.7031  -29.7630   20.1495 C   0  0  0  0  0  0
  -25.4125  -36.2991   24.0311 C   0  0  1  0  0  0
  -20.5941  -28.3780   23.1192 C   0  0  2  0  0  0
  -20.6824  -26.9465   22.5390 C   0  0  0  0  0  0
  -19.5779  -26.6374   21.5234 C   0  0  0  0  0  0
  -18.1965  -26.7932   22.1652 C   0  0  0  0  0  0
  -19.1578  -28.8910   23.2822 C   0  0  0  0  0  0
  -18.9481  -30.1493   23.8868 C   0  0  0  0  0  0
  -17.6474  -30.6599   24.0566 C   0  0  0  0  0  0
  -25.9083  -34.9368   23.5038 C   0  0  0  0  0  0
  -16.5370  -29.9085   23.6337 C   0  0  0  0  0  0
  -16.7302  -28.6503   23.0363 C   0  0  0  0  0  0
  -26.4556  -31.6531   25.0713 C   0  0  0  0  0  0
  -25.3715  -31.3756   26.1388 C   0  0  0  0  0  0
  -27.0440  -30.2902   24.6393 C   0  0  0  0  0  0
  -27.6049  -32.4339   25.7514 C   0  0  0  0  0  0
  -27.5571  -37.1768   24.8463 C   0  0  0  0  0  0
  -21.4301  -29.3100   22.3557 N   0  0  0  0  0  0
  -26.4279  -37.3715   23.9409 N   0  0  0  0  0  0
  -24.7396  -31.0064   22.0858 N   0  0  0  0  0  0
  -23.4194  -28.8077   23.3022 O   0  0  0  0  0  0
  -28.2468  -25.9472   20.1953 O   0  0  0  0  0  0
  -26.5691  -34.8893   22.4629 O   0  0  0  0  0  0
  -23.5650  -32.1255   23.6908 O   0  0  0  0  0  0
  -30.3047  -18.9517   23.1583 C   0  0  0  0  0  0
  -29.5827  -19.2287   20.9624 C   0  0  0  0  0  0
  -29.8830  -17.7320   21.0082 C   0  0  0  0  0  0
  -29.8051  -21.8957   20.4391 C   0  0  0  0  0  0
  -27.9239  -21.3804   20.3940 C   0  0  2  0  0  0
  -28.5735  -22.8207   19.9436 C   0  0  2  0  0  0
  -28.5878  -23.0818   18.4376 C   0  0  0  0  0  0
  -26.0633  -19.6247   20.2552 C   0  0  0  0  0  0
  -26.7262  -20.8459   19.6075 C   0  0  0  0  0  0
  -28.0072  -24.3851   20.5470 C   0  0  0  0  0  0
  -29.7998  -19.7573   22.2434 N   0  0  0  0  0  0
  -29.1643  -20.5270   20.1431 N   0  0  0  0  0  0
  -29.7620  -16.4380   20.3119 N   0  0  0  0  0  0
  -30.5747  -17.3529   22.5916 S   0  0  0  0  0  0
  -31.4522  -12.9493   19.1461 H   0  0  0  0  0  0
  -30.4893  -11.8392   20.0869 H   0  0  0  0  0  0
  -29.8713  -11.7198   17.6404 H   0  0  0  0  0  0
  -29.5476  -13.4363   17.6270 H   0  0  0  0  0  0
  -28.0132  -11.2594   19.0738 H   0  0  0  0  0  0
  -27.3862  -12.3301   17.8480 H   0  0  0  0  0  0
  -27.5258  -14.2310   19.3150 H   0  0  0  0  0  0
  -28.8112  -12.4873   21.4790 H   0  0  0  0  0  0
  -28.3197  -14.1574   21.6659 H   0  0  0  0  0  0
  -25.2760   -9.5678   22.4775 H   0  0  0  0  0  0
  -24.0013   -7.4620   22.7470 H   0  0  0  0  0  0
  -21.0857   -8.8785   19.8938 H   0  0  0  0  0  0
  -22.3723  -10.9681   19.6183 H   0  0  0  0  0  0
  -21.2017   -7.6161   23.9714 H   0  0  0  0  0  0
  -21.1481   -6.0540   25.9077 H   0  0  0  0  0  0
  -22.0593   -2.7620   23.2853 H   0  0  0  0  0  0
  -22.4079  -11.9791   22.4810 H   0  0  0  0  0  0
  -21.1056  -13.1139   22.2748 H   0  0  0  0  0  0
  -24.6514  -15.8584   20.5333 H   0  0  0  0  0  0
  -26.2691  -15.6299   20.1023 H   0  0  0  0  0  0
  -26.7346  -32.5195   23.0947 H   0  0  0  0  0  0
  -25.0060  -33.9527   25.0245 H   0  0  0  0  0  0
  -22.7782  -31.2770   21.3549 H   0  0  0  0  0  0
  -23.3760  -35.9553   23.3275 H   0  0  0  0  0  0
  -24.3578  -36.8905   22.2067 H   0  0  0  0  0  0
  -23.7243  -37.6412   23.6717 H   0  0  0  0  0  0
  -26.2029  -31.4055   20.6153 H   0  0  0  0  0  0
  -26.8973  -30.7202   22.0443 H   0  0  0  0  0  0
  -28.1528  -28.6786   21.2515 H   0  0  0  0  0  0
  -25.9023  -25.7580   19.0312 H   0  0  0  0  0  0
  -23.9913  -27.2618   18.9829 H   0  0  0  0  0  0
  -23.8552  -30.5297   19.3889 H   0  0  0  0  0  0
  -22.8152  -29.2116   19.8357 H   0  0  0  0  0  0
  -25.1318  -36.1802   25.0806 H   0  0  0  0  0  0
  -21.0027  -28.3392   24.1312 H   0  0  0  0  0  0
  -20.5754  -26.2387   23.3625 H   0  0  0  0  0  0
  -21.6679  -26.7495   22.1153 H   0  0  0  0  0  0
  -19.6957  -25.6264   21.1331 H   0  0  0  0  0  0
  -19.6695  -27.3137   20.6724 H   0  0  0  0  0  0
  -17.4226  -26.6648   21.4072 H   0  0  0  0  0  0
  -18.0394  -26.0105   22.9089 H   0  0  0  0  0  0
  -19.7959  -30.7318   24.2220 H   0  0  0  0  0  0
  -17.5028  -31.6272   24.5183 H   0  0  0  0  0  0
  -15.5369  -30.2979   23.7676 H   0  0  0  0  0  0
  -15.8702  -28.0805   22.7108 H   0  0  0  0  0  0
  -24.5912  -30.7079   25.7722 H   0  0  0  0  0  0
  -24.8887  -32.2946   26.4719 H   0  0  0  0  0  0
  -25.7982  -30.9003   27.0228 H   0  0  0  0  0  0
  -26.3090  -29.6591   24.1380 H   0  0  0  0  0  0
  -27.3972  -29.7247   25.5028 H   0  0  0  0  0  0
  -27.9037  -30.4094   23.9794 H   0  0  0  0  0  0
  -27.2605  -33.3675   26.1977 H   0  0  0  0  0  0
  -28.3917  -32.6842   25.0386 H   0  0  0  0  0  0
  -28.0650  -31.8542   26.5524 H   0  0  0  0  0  0
  -28.2569  -38.0081   24.7511 H   0  0  0  0  0  0
  -28.1087  -36.2608   24.6287 H   0  0  0  0  0  0
  -27.2292  -37.1413   25.8867 H   0  0  0  0  0  0
  -20.9543  -29.8783   21.6692 H   0  0  0  0  0  0
  -26.0135  -38.2781   24.1400 H   0  0  0  0  0  0
  -30.5210  -19.2933   24.1603 H   0  0  0  0  0  0
  -30.7182  -22.0640   19.8679 H   0  0  0  0  0  0
  -30.0141  -22.0759   21.4957 H   0  0  0  0  0  0
  -27.7041  -21.4061   21.4658 H   0  0  0  0  0  0
  -28.9562  -22.2220   17.8786 H   0  0  0  0  0  0
  -29.2356  -23.9238   18.1920 H   0  0  0  0  0  0
  -27.5914  -23.3157   18.0624 H   0  0  0  0  0  0
  -26.7608  -18.7934   20.3544 H   0  0  0  0  0  0
  -25.2221  -19.2797   19.6526 H   0  0  0  0  0  0
  -25.6860  -19.8685   21.2486 H   0  0  0  0  0  0
  -27.0148  -20.6068   18.5829 H   0  0  0  0  0  0
  -25.9758  -21.6333   19.5209 H   0  0  0  0  0  0
  -28.2174  -24.3656   21.6165 H   0  0  0  0  0  0
  -26.9210  -24.2991   20.5260 H   0  0  0  0  0  0
  -28.8579  -16.3223   19.8795 H   0  0  0  0  0  0
  1 25  1  0  0  0
  1 30  2  0  0  0
  1 83  1  0  0  0
  2  3  1  0  0  0
  2 25  1  0  0  0
  2 85  1  0  0  0
  2 86  1  0  0  0
  3  4  1  0  0  0
  3 87  1  0  0  0
  3 88  1  0  0  0
  4  5  1  0  0  0
  4 89  1  0  0  0
  4 90  1  0  0  0
  5  6  1  0  0  0
  5 26  1  0  0  0
  5 91  1  0  0  0
  6 25  1  0  0  0
  6 92  1  0  0  0
  6 93  1  0  0  0
  7  8  2  0  0  0
  7 26  1  0  0  0
  7 29  1  0  0  0
  8  9  1  0  0  0
  8 22  1  0  0  0
  9 10  1  0  0  0
  9 27  2  0  0  0
 10 11  2  0  0  0
 10 15  1  0  0  0
 11 12  1  0  0  0
 11 94  1  0  0  0
 12 13  2  0  0  0
 12 95  1  0  0  0
 13 14  1  0  0  0
 13 31  1  0  0  0
 14 15  2  0  0  0
 14 96  1  0  0  0
 15 97  1  0  0  0
 16 17  2  0  0  0
 16 21  1  0  0  0
 16 31  1  0  0  0
 17 18  1  0  0  0
 17 98  1  0  0  0
 18 19  2  0  0  0
 18 99  1  0  0  0
 19 20  1  0  0  0
 19 24  1  0  0  0
 20 21  2  0  0  0
 20100  1  0  0  0
 21 23  1  0  0  0
 22 28  1  0  0  0
 22 32  2  0  0  0
 26 27  1  0  0  0
 28101  1  0  0  0
 28102  1  0  0  0
 29103  1  0  0  0
 29104  1  0  0  0
 33 34  1  0  0  0
 33 66  1  0  0  0
 33 70  2  0  0  0
 34 36  1  0  0  0
 34 59  1  0  0  0
 34105  1  0  0  0
 35 44  2  0  0  0
 35 45  1  0  0  0
 35 68  1  0  0  0
 36 56  1  0  0  0
 36106  1  0  0  0
 37 39  1  0  0  0
 37 47  1  0  0  0
 37 66  1  0  0  0
 37107  1  0  0  0
 38 43  2  0  0  0
 38 46  1  0  0  0
 38 47  1  0  0  0
 39 64  1  0  0  0
 39 67  2  0  0  0
 40 52  1  0  0  0
 40 53  2  0  0  0
 40 58  1  0  0  0
 41108  1  0  0  0
 41109  1  0  0  0
 41110  1  0  0  0
 41 48  1  0  0  0
 42 43  1  0  0  0
 42 66  1  0  0  0
 42111  1  0  0  0
 42112  1  0  0  0
 43 44  1  0  0  0
 44113  1  0  0  0
 45 46  2  0  0  0
 45114  1  0  0  0
 46115  1  0  0  0
 47116  1  0  0  0
 47117  1  0  0  0
 48 56  1  0  0  0
 48 65  1  0  0  0
 48118  1  0  0  0
 49 50  1  0  0  0
 49 53  1  0  0  0
 49 64  1  0  0  0
 49119  1  0  0  0
 50 51  1  0  0  0
 50120  1  0  0  0
 50121  1  0  0  0
 51 52  1  0  0  0
 51122  1  0  0  0
 51123  1  0  0  0
 52124  1  0  0  0
 52125  1  0  0  0
 53 54  1  0  0  0
 54 55  2  0  0  0
 54126  1  0  0  0
 55 57  1  0  0  0
 55127  1  0  0  0
 56 69  2  0  0  0
 57 58  2  0  0  0
 57128  1  0  0  0
 58129  1  0  0  0
 59 60  1  0  0  0
 59 61  1  0  0  0
 59 62  1  0  0  0
 60130  1  0  0  0
 60131  1  0  0  0
 60132  1  0  0  0
 61133  1  0  0  0
 61134  1  0  0  0
 61135  1  0  0  0
 62136  1  0  0  0
 62137  1  0  0  0
 62138  1  0  0  0
 63 65  1  0  0  0
 63139  1  0  0  0
 63140  1  0  0  0
 63141  1  0  0  0
 64142  1  0  0  0
 65143  1  0  0  0
 68 80  1  0  0  0
 71 81  2  0  0  0
 71 84  1  0  0  0
 71144  1  0  0  0
 72 73  2  0  0  0
 72 81  1  0  0  0
 72 82  1  0  0  0
 73 83  1  0  0  0
 73 84  1  0  0  0
 74 76  1  0  0  0
 74 82  1  0  0  0
 74145  1  0  0  0
 74146  1  0  0  0
 75 76  1  0  0  0
 75 79  1  0  0  0
 75 82  1  0  0  0
 75147  1  0  0  0
 76 77  1  0  0  0
 76 80  1  0  0  0
 77148  1  0  0  0
 77149  1  0  0  0
 77150  1  0  0  0
 78 79  1  0  0  0
 78151  1  0  0  0
 78152  1  0  0  0
 78153  1  0  0  0
 79154  1  0  0  0
 79155  1  0  0  0
 80156  1  0  0  0
 80157  1  0  0  0
 83158  1  0  0  0
M  ISO  4   1 100  68 101  80 101  83 100
M  END
> <chiral flag>
0

> <version>
0

> <s_m_source_file>
/data/baiqing/PycharmProjects/Reinvent-master-3.2/result/LINK_invent/BTK/process_docking_weight1_custom_product_contain_oxygen_bond_distance_aromatic_linkinvent_7_9_3/rearranged_h_0148.sdf

> <i_m_source_file_index>
52

> <r_mmod_Potential_Energy-OPLS-2005>
1033.35595703125

> <r_mmod_Stretch_Energy-OPLS-2005>
443.029846191406

> <r_mmod_Bend_Energy-OPLS-2005>
466.425842285156

> <r_mmod_Torsional_Energy-OPLS-2005>
322.976776123047

> <r_mmod_Improper_Torsional_Energy-OPLS-2005>
17.0143280029297

> <r_mmod_Van_der_Waal_Energy-OPLS-2005>
116.020919799805

> <r_mmod_Electrostatic_Energy-OPLS-2005>
-456.506286621094

> <r_mmod_Solvation_Energy-OPLS-2005>
-233.542922973633

> <b_mmod_Minimization_Converged-OPLS-2005>
0

> <r_mmod_RMS_Derivative-OPLS-2005>
1.96009755134583

$$$$
52
                    3D
 Structure written by MMmdl.
156165  0  0  1  0            999 V2000
  -30.6534  -14.7596   20.4170 C   0  0  0  0  0  0
  -30.4252  -12.4652   19.4611 C   0  0  0  0  0  0
  -29.5042  -12.4811   18.2244 C   0  0  0  0  0  0
  -28.0341  -12.3072   18.6529 C   0  0  0  0  0  0
  -27.6343  -13.2360   19.8320 C   0  0  2  0  0  0
  -28.6861  -13.2331   20.9601 C   0  0  0  0  0  0
  -25.2516  -13.8203   20.5714 C   0  0  0  0  0  0
  -24.1803  -13.0445   20.9213 C   0  0  0  0  0  0
  -24.6392  -11.6922   20.8752 C   0  0  0  0  0  0
  -23.9072  -10.4294   21.0401 C   0  0  0  0  0  0
  -24.3619   -9.4208   21.9179 C   0  0  0  0  0  0
  -23.6292   -8.2244   22.0759 C   0  0  0  0  0  0
  -22.4276   -8.0276   21.3549 C   0  0  0  0  0  0
  -21.9908   -9.0251   20.4654 C   0  0  0  0  0  0
  -22.7237  -10.2130   20.3055 C   0  0  0  0  0  0
  -21.6854   -6.0725   22.5277 C   0  0  0  0  0  0
  -21.4012   -6.5634   23.8210 C   0  0  0  0  0  0
  -21.3664   -5.6791   24.9174 C   0  0  0  0  0  0
  -21.6045   -4.3053   24.7224 C   0  0  0  0  0  0
  -21.8824   -3.8141   23.4348 C   0  0  0  0  0  0
  -21.9195   -4.6953   22.3400 C   0  0  0  0  0  0
  -22.7829  -13.5231   21.1868 C   0  0  0  0  0  0
  -22.1664   -4.2135   21.0978 F   0  0  0  0  0  0
  -21.5631   -3.4543   25.7740 F   0  0  0  0  0  0
  -29.9711  -13.5662   20.3413 N   0  0  0  0  0  0
  -26.2929  -12.9416   20.3251 N   0  0  0  0  0  0
  -25.9326  -11.6560   20.5756 N   0  0  0  0  0  0
  -22.0461  -12.8237   22.0427 N   0  0  0  0  0  0
  -25.4235  -15.1923   20.4129 N   0  0  0  0  0  0
  -31.8819  -14.7293   20.2914 O   0  0  0  0  0  0
  -21.6647   -6.8867   21.4241 O   0  0  0  0  0  0
  -22.3524  -14.5531   20.6703 O   0  0  0  0  0  0
  -24.6370  -31.8526   23.1964 C   0  0  0  0  0  0
  -25.9176  -32.4741   23.8313 C   0  0  1  0  0  0
  -27.2107  -27.2309   20.1186 C   0  0  0  0  0  0
  -25.5964  -33.8551   24.2235 N   0  0  0  0  0  0
  -23.4320  -30.4790   21.5426 C   0  0  2  0  0  0
  -24.8748  -28.9273   20.1116 C   0  0  0  0  0  0
  -22.7522  -29.4587   22.4906 C   0  0  0  0  0  0
  -18.0286  -28.1387   22.8474 C   0  0  0  0  0  0
  -24.1484  -36.7292   23.2630 C   0  0  0  0  0  0
  -25.9834  -30.7601   21.3756 C   0  0  0  0  0  0
  -26.0542  -29.3818   20.7150 C   0  0  0  0  0  0
  -27.2259  -28.5496   20.7009 C   0  0  0  0  0  0
  -25.9899  -26.8509   19.5119 C   0  0  0  0  0  0
  -24.8496  -27.6699   19.5008 C   0  0  0  0  0  0
  -23.6499  -29.8182   20.1588 C   0  0  0  0  0  0
  -25.4109  -36.3068   24.0313 C   0  0  1  0  0  0
  -20.5894  -28.3695   23.1263 C   0  0  2  0  0  0
  -20.6768  -26.9407   22.5414 C   0  0  0  0  0  0
  -19.5747  -26.6374   21.5213 C   0  0  0  0  0  0
  -18.1925  -26.7929   22.1623 C   0  0  0  0  0  0
  -19.1545  -28.8862   23.2857 C   0  0  0  0  0  0
  -18.9462  -30.1463   23.8879 C   0  0  0  0  0  0
  -17.6460  -30.6579   24.0557 C   0  0  0  0  0  0
  -25.9065  -34.9438   23.5077 C   0  0  0  0  0  0
  -16.5350  -29.9074   23.6335 C   0  0  0  0  0  0
  -16.7273  -28.6498   23.0346 C   0  0  0  0  0  0
  -26.4516  -31.6574   25.0715 C   0  0  0  0  0  0
  -25.3726  -31.3736   26.1423 C   0  0  0  0  0  0
  -27.0344  -30.2980   24.6221 C   0  0  0  0  0  0
  -27.6067  -32.4310   25.7495 C   0  0  0  0  0  0
  -27.5563  -37.1793   24.8456 C   0  0  0  0  0  0
  -21.4225  -29.3047   22.3660 N   0  0  0  0  0  0
  -26.4272  -37.3777   23.9409 N   0  0  0  0  0  0
  -24.7041  -31.0471   22.0954 N   0  0  0  0  0  0
  -23.4203  -28.8108   23.2999 O   0  0  0  0  0  0
  -28.3014  -26.3121   20.1617 O   0  0  0  0  0  0
  -26.5627  -34.8925   22.4634 O   0  0  0  0  0  0
  -23.5509  -32.1358   23.7252 O   0  0  0  0  0  0
  -29.0030  -19.7851   21.1514 C   0  0  0  0  0  0
  -29.3490  -18.5295   20.4617 C   0  0  0  0  0  0
  -29.4965  -18.7889   19.1340 C   0  0  0  0  0  0
  -28.9451  -20.9608   20.3767 C   0  0  0  0  0  0
  -29.5091  -17.0427   20.9895 C   0  0  0  0  0  0
  -29.7369  -17.6959   18.1515 C   0  0  0  0  0  0
  -30.5309  -16.5182   18.7689 C   0  0  0  0  0  0
  -28.1019  -24.6951   18.3096 C   0  0  0  0  0  0
  -29.0668  -23.6554   20.4006 C   0  0  0  0  0  0
  -28.0916  -24.8392   19.8471 C   0  0  1  0  0  0
  -29.9999  -15.9441   20.0408 N   0  0  0  0  0  0
  -28.4694  -22.2931   20.7265 N   0  0  0  0  0  0
  -29.3759  -20.5130   18.7346 S   0  0  0  0  0  0
  -31.4656  -12.5783   19.1498 H   0  0  0  0  0  0
  -30.3685  -11.5059   19.9790 H   0  0  0  0  0  0
  -29.7893  -11.6875   17.5323 H   0  0  0  0  0  0
  -29.6265  -13.4195   17.6808 H   0  0  0  0  0  0
  -27.9053  -11.2648   18.9480 H   0  0  0  0  0  0
  -27.3703  -12.4630   17.8021 H   0  0  0  0  0  0
  -27.6107  -14.2450   19.4200 H   0  0  0  0  0  0
  -28.7338  -12.2644   21.4581 H   0  0  0  0  0  0
  -28.4313  -13.9693   21.7237 H   0  0  0  0  0  0
  -25.2751   -9.5693   22.4771 H   0  0  0  0  0  0
  -23.9996   -7.4636   22.7482 H   0  0  0  0  0  0
  -21.0835   -8.8764   19.8966 H   0  0  0  0  0  0
  -22.3673  -10.9673   19.6179 H   0  0  0  0  0  0
  -21.2003   -7.6143   23.9711 H   0  0  0  0  0  0
  -21.1488   -6.0520   25.9078 H   0  0  0  0  0  0
  -22.0601   -2.7604   23.2850 H   0  0  0  0  0  0
  -22.4061  -11.9895   22.4826 H   0  0  0  0  0  0
  -21.1085  -13.1294   22.2626 H   0  0  0  0  0  0
  -24.6593  -15.8494   20.5229 H   0  0  0  0  0  0
  -26.2761  -15.6306   20.0873 H   0  0  0  0  0  0
  -26.7242  -32.5373   23.1050 H   0  0  0  0  0  0
  -25.0095  -33.9686   25.0371 H   0  0  0  0  0  0
  -22.7290  -31.3017   21.3964 H   0  0  0  0  0  0
  -23.3746  -35.9627   23.3286 H   0  0  0  0  0  0
  -24.3569  -36.8932   22.2048 H   0  0  0  0  0  0
  -23.7240  -37.6488   23.6666 H   0  0  0  0  0  0
  -26.1191  -31.5184   20.6032 H   0  0  0  0  0  0
  -26.8638  -30.8122   22.0047 H   0  0  0  0  0  0
  -28.1292  -28.8975   21.1810 H   0  0  0  0  0  0
  -25.8556  -25.8838   19.0559 H   0  0  0  0  0  0
  -23.9427  -27.3068   19.0374 H   0  0  0  0  0  0
  -23.7797  -30.5949   19.4048 H   0  0  0  0  0  0
  -22.7686  -29.2549   19.8482 H   0  0  0  0  0  0
  -25.1291  -36.1901   25.0806 H   0  0  0  0  0  0
  -20.9970  -28.3268   24.1392 H   0  0  0  0  0  0
  -20.5642  -26.2307   23.3622 H   0  0  0  0  0  0
  -21.6632  -26.7401   22.1224 H   0  0  0  0  0  0
  -19.6890  -25.6281   21.1248 H   0  0  0  0  0  0
  -19.6687  -27.3182   20.6743 H   0  0  0  0  0  0
  -17.4190  -26.6675   21.4027 H   0  0  0  0  0  0
  -18.0318  -26.0075   22.9033 H   0  0  0  0  0  0
  -19.7934  -30.7289   24.2232 H   0  0  0  0  0  0
  -17.5004  -31.6260   24.5167 H   0  0  0  0  0  0
  -15.5349  -30.2962   23.7673 H   0  0  0  0  0  0
  -15.8671  -28.0814   22.7058 H   0  0  0  0  0  0
  -24.5940  -30.7045   25.7739 H   0  0  0  0  0  0
  -24.8876  -32.2906   26.4781 H   0  0  0  0  0  0
  -25.8036  -30.8956   27.0231 H   0  0  0  0  0  0
  -26.2919  -29.6745   24.1230 H   0  0  0  0  0  0
  -27.3978  -29.7244   25.4757 H   0  0  0  0  0  0
  -27.8830  -30.4224   23.9497 H   0  0  0  0  0  0
  -27.2683  -33.3631   26.2042 H   0  0  0  0  0  0
  -28.3902  -32.6843   25.0334 H   0  0  0  0  0  0
  -28.0713  -31.8444   26.5435 H   0  0  0  0  0  0
  -28.2576  -38.0096   24.7513 H   0  0  0  0  0  0
  -28.1066  -36.2627   24.6271 H   0  0  0  0  0  0
  -27.2285  -37.1431   25.8861 H   0  0  0  0  0  0
  -20.9397  -29.8820   21.6926 H   0  0  0  0  0  0
  -26.0145  -38.2841   24.1450 H   0  0  0  0  0  0
  -28.7783  -19.7658   22.2081 H   0  0  0  0  0  0
  -28.5452  -16.7026   21.3709 H   0  0  0  0  0  0
  -30.1677  -17.0479   21.8587 H   0  0  0  0  0  0
  -30.2653  -18.0837   17.2800 H   0  0  0  0  0  0
  -28.7773  -17.3313   17.7836 H   0  0  0  0  0  0
  -31.5479  -16.8724   18.9524 H   0  0  0  0  0  0
  -30.6173  -15.7317   18.0155 H   0  0  0  0  0  0
  -27.7169  -23.7194   18.0110 H   0  0  0  0  0  0
  -29.1165  -24.7763   17.9185 H   0  0  0  0  0  0
  -27.5162  -25.4510   17.7926 H   0  0  0  0  0  0
  -29.4961  -24.0100   21.3391 H   0  0  0  0  0  0
  -29.9258  -23.5305   19.7389 H   0  0  0  0  0  0
  -27.1076  -24.5791   20.2372 H   0  0  0  0  0  0
  -27.9158  -22.3153   21.5810 H   0  0  0  0  0  0
  1 25  1  0  0  0
  1 30  2  0  0  0
  1 81  1  0  0  0
  2  3  1  0  0  0
  2 25  1  0  0  0
  2 84  1  0  0  0
  2 85  1  0  0  0
  3  4  1  0  0  0
  3 86  1  0  0  0
  3 87  1  0  0  0
  4  5  1  0  0  0
  4 88  1  0  0  0
  4 89  1  0  0  0
  5  6  1  0  0  0
  5 26  1  0  0  0
  5 90  1  0  0  0
  6 25  1  0  0  0
  6 91  1  0  0  0
  6 92  1  0  0  0
  7  8  2  0  0  0
  7 26  1  0  0  0
  7 29  1  0  0  0
  8  9  1  0  0  0
  8 22  1  0  0  0
  9 10  1  0  0  0
  9 27  2  0  0  0
 10 11  2  0  0  0
 10 15  1  0  0  0
 11 12  1  0  0  0
 11 93  1  0  0  0
 12 13  2  0  0  0
 12 94  1  0  0  0
 13 14  1  0  0  0
 13 31  1  0  0  0
 14 15  2  0  0  0
 14 95  1  0  0  0
 15 96  1  0  0  0
 16 17  2  0  0  0
 16 21  1  0  0  0
 16 31  1  0  0  0
 17 18  1  0  0  0
 17 97  1  0  0  0
 18 19  2  0  0  0
 18 98  1  0  0  0
 19 20  1  0  0  0
 19 24  1  0  0  0
 20 21  2  0  0  0
 20 99  1  0  0  0
 21 23  1  0  0  0
 22 28  1  0  0  0
 22 32  2  0  0  0
 26 27  1  0  0  0
 28100  1  0  0  0
 28101  1  0  0  0
 29102  1  0  0  0
 29103  1  0  0  0
 33 34  1  0  0  0
 33 66  1  0  0  0
 33 70  2  0  0  0
 34 36  1  0  0  0
 34 59  1  0  0  0
 34104  1  0  0  0
 35 44  2  0  0  0
 35 45  1  0  0  0
 35 68  1  0  0  0
 36 56  1  0  0  0
 36105  1  0  0  0
 37 39  1  0  0  0
 37 47  1  0  0  0
 37 66  1  0  0  0
 37106  1  0  0  0
 38 43  2  0  0  0
 38 46  1  0  0  0
 38 47  1  0  0  0
 39 64  1  0  0  0
 39 67  2  0  0  0
 40 52  1  0  0  0
 40 53  2  0  0  0
 40 58  1  0  0  0
 41107  1  0  0  0
 41108  1  0  0  0
 41109  1  0  0  0
 41 48  1  0  0  0
 42 43  1  0  0  0
 42 66  1  0  0  0
 42110  1  0  0  0
 42111  1  0  0  0
 43 44  1  0  0  0
 44112  1  0  0  0
 45 46  2  0  0  0
 45113  1  0  0  0
 46114  1  0  0  0
 47115  1  0  0  0
 47116  1  0  0  0
 48 56  1  0  0  0
 48 65  1  0  0  0
 48117  1  0  0  0
 49 50  1  0  0  0
 49 53  1  0  0  0
 49 64  1  0  0  0
 49118  1  0  0  0
 50 51  1  0  0  0
 50119  1  0  0  0
 50120  1  0  0  0
 51 52  1  0  0  0
 51121  1  0  0  0
 51122  1  0  0  0
 52123  1  0  0  0
 52124  1  0  0  0
 53 54  1  0  0  0
 54 55  2  0  0  0
 54125  1  0  0  0
 55 57  1  0  0  0
 55126  1  0  0  0
 56 69  2  0  0  0
 57 58  2  0  0  0
 57127  1  0  0  0
 58128  1  0  0  0
 59 60  1  0  0  0
 59 61  1  0  0  0
 59 62  1  0  0  0
 60129  1  0  0  0
 60130  1  0  0  0
 60131  1  0  0  0
 61132  1  0  0  0
 61133  1  0  0  0
 61134  1  0  0  0
 62135  1  0  0  0
 62136  1  0  0  0
 62137  1  0  0  0
 63 65  1  0  0  0
 63138  1  0  0  0
 63139  1  0  0  0
 63140  1  0  0  0
 64141  1  0  0  0
 65142  1  0  0  0
 68 80  1  0  0  0
 71 72  1  0  0  0
 71 74  2  0  0  0
 71143  1  0  0  0
 72 73  2  0  0  0
 72 75  1  0  0  0
 73 76  1  0  0  0
 73 83  1  0  0  0
 74 82  1  0  0  0
 74 83  1  0  0  0
 75 81  1  0  0  0
 75144  1  0  0  0
 75145  1  0  0  0
 76 77  1  0  0  0
 76146  1  0  0  0
 76147  1  0  0  0
 77 81  1  0  0  0
 77148  1  0  0  0
 77149  1  0  0  0
 78150  1  0  0  0
 78151  1  0  0  0
 78152  1  0  0  0
 78 80  1  0  0  0
 79 80  1  0  0  0
 79 82  1  0  0  0
 79153  1  0  0  0
 79154  1  0  0  0
 80155  1  0  0  0
 82156  1  0  0  0
M  ISO  4   1 100  68 101  80 101  81 100
M  END
> <chiral flag>
0

> <version>
0

> <s_m_source_file>
/data/baiqing/PycharmProjects/Reinvent-master-3.2/result/LINK_invent/BTK/process_docking_weight1_custom_product_contain_oxygen_bond_distance_aromatic_linkinvent_7_9_3/rearranged_h_0148.sdf

> <i_m_source_file_index>
53

> <r_mmod_Potential_Energy-OPLS-2005>
367.369812011719

> <r_mmod_Stretch_Energy-OPLS-2005>
134.847259521484

> <r_mmod_Bend_Energy-OPLS-2005>
196.744491577148

> <r_mmod_Torsional_Energy-OPLS-2005>
308.330230712891

> <r_mmod_Improper_Torsional_Energy-OPLS-2005>
25.9553337097168

> <r_mmod_Van_der_Waal_Energy-OPLS-2005>
126.489196777344

> <r_mmod_Electrostatic_Energy-OPLS-2005>
-321.474945068359

> <r_mmod_Solvation_Energy-OPLS-2005>
-211.400238037109

> <b_mmod_Minimization_Converged-OPLS-2005>
0

> <r_mmod_RMS_Derivative-OPLS-2005>
1.94105386734009

$$$$
53
                    3D
 Structure written by MMmdl.
160169  0  0  1  0            999 V2000
  -30.5145  -14.9665   20.4409 C   0  0  0  0  0  0
  -30.4409  -12.5981   19.5225 C   0  0  0  0  0  0
  -29.5284  -12.5393   18.2738 C   0  0  0  0  0  0
  -28.0559  -12.3384   18.6720 C   0  0  0  0  0  0
  -27.6348  -13.2520   19.8509 C   0  0  2  0  0  0
  -28.6692  -13.2597   20.9981 C   0  0  0  0  0  0
  -25.2492  -13.8250   20.5726 C   0  0  0  0  0  0
  -24.1801  -13.0478   20.9199 C   0  0  0  0  0  0
  -24.6396  -11.6952   20.8763 C   0  0  0  0  0  0
  -23.9082  -10.4316   21.0434 C   0  0  0  0  0  0
  -24.3620   -9.4212   21.9207 C   0  0  0  0  0  0
  -23.6287   -8.2242   22.0784 C   0  0  0  0  0  0
  -22.4273   -8.0296   21.3560 C   0  0  0  0  0  0
  -21.9921   -9.0275   20.4661 C   0  0  0  0  0  0
  -22.7260  -10.2150   20.3077 C   0  0  0  0  0  0
  -21.6862   -6.0730   22.5285 C   0  0  0  0  0  0
  -21.4022   -6.5644   23.8217 C   0  0  0  0  0  0
  -21.3658   -5.6803   24.9175 C   0  0  0  0  0  0
  -21.6038   -4.3069   24.7223 C   0  0  0  0  0  0
  -21.8824   -3.8148   23.4355 C   0  0  0  0  0  0
  -21.9205   -4.6952   22.3411 C   0  0  0  0  0  0
  -22.7814  -13.5230   21.1830 C   0  0  0  0  0  0
  -22.1670   -4.2139   21.0989 F   0  0  0  0  0  0
  -21.5618   -3.4559   25.7738 F   0  0  0  0  0  0
  -29.9506  -13.6865   20.4229 N   0  0  0  0  0  0
  -26.2908  -12.9475   20.3270 N   0  0  0  0  0  0
  -25.9333  -11.6591   20.5739 N   0  0  0  0  0  0
  -22.0453  -12.8228   22.0377 N   0  0  0  0  0  0
  -25.4210  -15.1985   20.4145 N   0  0  0  0  0  0
  -31.6859  -15.0557   20.0583 O   0  0  0  0  0  0
  -21.6654   -6.8878   21.4257 O   0  0  0  0  0  0
  -22.3483  -14.5519   20.6657 O   0  0  0  0  0  0
  -24.6475  -31.8424   23.1894 C   0  0  0  0  0  0
  -25.9240  -32.4665   23.8285 C   0  0  1  0  0  0
  -27.1846  -27.0751   20.1997 C   0  0  0  0  0  0
  -25.5988  -33.8473   24.2188 N   0  0  0  0  0  0
  -23.4551  -30.4626   21.5354 C   0  0  2  0  0  0
  -24.9022  -28.8888   20.1139 C   0  0  0  0  0  0
  -22.7598  -29.4522   22.4844 C   0  0  0  0  0  0
  -18.0307  -28.1384   22.8469 C   0  0  0  0  0  0
  -24.1511  -36.7225   23.2646 C   0  0  0  0  0  0
  -26.0156  -30.6930   21.4052 C   0  0  0  0  0  0
  -26.0775  -29.2993   20.7557 C   0  0  0  0  0  0
  -27.2188  -28.4081   20.7889 C   0  0  0  0  0  0
  -26.0256  -26.8336   19.4280 C   0  0  0  0  0  0
  -24.8902  -27.6679   19.4314 C   0  0  0  0  0  0
  -23.6835  -29.7959   20.1549 C   0  0  0  0  0  0
  -25.4130  -36.2990   24.0330 C   0  0  1  0  0  0
  -20.5920  -28.3720   23.1209 C   0  0  2  0  0  0
  -20.6788  -26.9406   22.5393 C   0  0  0  0  0  0
  -19.5762  -26.6358   21.5203 C   0  0  0  0  0  0
  -18.1945  -26.7922   22.1608 C   0  0  0  0  0  0
  -19.1560  -28.8873   23.2841 C   0  0  0  0  0  0
  -18.9468  -30.1478   23.8843 C   0  0  0  0  0  0
  -17.6460  -30.6587   24.0544 C   0  0  0  0  0  0
  -25.9087  -34.9371   23.5061 C   0  0  0  0  0  0
  -16.5353  -29.9067   23.6349 C   0  0  0  0  0  0
  -16.7284  -28.6489   23.0364 C   0  0  0  0  0  0
  -26.4538  -31.6518   25.0725 C   0  0  0  0  0  0
  -25.3724  -31.3706   26.1414 C   0  0  0  0  0  0
  -27.0408  -30.2899   24.6357 C   0  0  0  0  0  0
  -27.6068  -32.4287   25.7489 C   0  0  0  0  0  0
  -27.5591  -37.1748   24.8450 C   0  0  0  0  0  0
  -21.4290  -29.3024   22.3564 N   0  0  0  0  0  0
  -26.4274  -37.3716   23.9432 N   0  0  0  0  0  0
  -24.7253  -31.0233   22.0959 N   0  0  0  0  0  0
  -23.4220  -28.8056   23.3008 O   0  0  0  0  0  0
  -28.1882  -26.0208   20.2904 O   0  0  0  0  0  0
  -26.5659  -34.8870   22.4637 O   0  0  0  0  0  0
  -23.5574  -32.1333   23.7059 O   0  0  0  0  0  0
  -29.2495  -18.8640   18.1745 C   0  0  0  0  0  0
  -29.0534  -20.0859   18.8600 C   0  0  0  0  0  0
  -29.5439  -17.6479   18.8316 C   0  0  0  0  0  0
  -29.4121  -18.8685   20.9239 C   0  0  0  0  0  0
  -29.1366  -20.1876   20.2628 C   0  0  0  0  0  0
  -29.6331  -17.5536   20.2371 C   0  0  0  0  0  0
  -28.3790  -24.3268   22.2017 C   0  0  0  0  0  0
  -28.7192  -23.1567   20.0589 C   0  0  0  0  0  0
  -27.9976  -22.9552   22.8812 C   0  0  0  0  0  0
  -28.9572  -21.7146   20.9180 C   0  0  1  0  0  0
  -27.9398  -24.4968   20.7258 C   0  0  2  0  0  0
  -26.4149  -24.1888   20.6714 C   0  0  0  0  0  0
  -29.7668  -16.1268   20.8142 N   0  0  0  0  0  0
  -27.9587  -21.7410   21.9982 N   0  3  0  0  0  0
  -31.4727  -12.7618   19.2096 H   0  0  0  0  0  0
  -30.4424  -11.6408   20.0456 H   0  0  0  0  0  0
  -29.8456  -11.7356   17.6072 H   0  0  0  0  0  0
  -29.6331  -13.4660   17.7083 H   0  0  0  0  0  0
  -27.9256  -11.2909   18.9454 H   0  0  0  0  0  0
  -27.4107  -12.5161   17.8102 H   0  0  0  0  0  0
  -27.6033  -14.2593   19.4342 H   0  0  0  0  0  0
  -28.7544  -12.2721   21.4545 H   0  0  0  0  0  0
  -28.3575  -13.9414   21.7899 H   0  0  0  0  0  0
  -25.2776   -9.5680   22.4766 H   0  0  0  0  0  0
  -24.0012   -7.4641   22.7519 H   0  0  0  0  0  0
  -21.0857   -8.8778   19.8966 H   0  0  0  0  0  0
  -22.3735  -10.9670   19.6171 H   0  0  0  0  0  0
  -21.2017   -7.6152   23.9698 H   0  0  0  0  0  0
  -21.1479   -6.0549   25.9078 H   0  0  0  0  0  0
  -22.0603   -2.7606   23.2867 H   0  0  0  0  0  0
  -22.4073  -11.9908   22.4773 H   0  0  0  0  0  0
  -21.1058  -13.1257   22.2537 H   0  0  0  0  0  0
  -24.6576  -15.8578   20.5182 H   0  0  0  0  0  0
  -26.2638  -15.6291   20.0556 H   0  0  0  0  0  0
  -26.7297  -32.5240   23.0998 H   0  0  0  0  0  0
  -25.0137  -33.9589   25.0333 H   0  0  0  0  0  0
  -22.7594  -31.2908   21.3818 H   0  0  0  0  0  0
  -23.3791  -35.9537   23.3226 H   0  0  0  0  0  0
  -24.3623  -36.8927   22.2072 H   0  0  0  0  0  0
  -23.7209  -37.6389   23.6717 H   0  0  0  0  0  0
  -26.1865  -31.4411   20.6303 H   0  0  0  0  0  0
  -26.8805  -30.7372   22.0546 H   0  0  0  0  0  0
  -28.1056  -28.7110   21.3258 H   0  0  0  0  0  0
  -25.9600  -25.9435   18.8257 H   0  0  0  0  0  0
  -24.0068  -27.3604   18.8877 H   0  0  0  0  0  0
  -23.8262  -30.5716   19.4027 H   0  0  0  0  0  0
  -22.7970  -29.2426   19.8396 H   0  0  0  0  0  0
  -25.1303  -36.1822   25.0822 H   0  0  0  0  0  0
  -21.0032  -28.3294   24.1325 H   0  0  0  0  0  0
  -20.5663  -26.2324   23.3625 H   0  0  0  0  0  0
  -21.6657  -26.7371   22.1192 H   0  0  0  0  0  0
  -19.6933  -25.6268   21.1247 H   0  0  0  0  0  0
  -19.6709  -27.3157   20.6730 H   0  0  0  0  0  0
  -17.4220  -26.6677   21.4002 H   0  0  0  0  0  0
  -18.0326  -26.0055   22.8987 H   0  0  0  0  0  0
  -19.7921  -30.7333   24.2172 H   0  0  0  0  0  0
  -17.4987  -31.6256   24.5135 H   0  0  0  0  0  0
  -15.5348  -30.2944   23.7697 H   0  0  0  0  0  0
  -15.8682  -28.0800   22.7092 H   0  0  0  0  0  0
  -24.5912  -30.7051   25.7707 H   0  0  0  0  0  0
  -24.8917  -32.2890   26.4796 H   0  0  0  0  0  0
  -25.8017  -30.8883   27.0208 H   0  0  0  0  0  0
  -26.3034  -29.6599   24.1368 H   0  0  0  0  0  0
  -27.3976  -29.7218   25.4956 H   0  0  0  0  0  0
  -27.8971  -30.4095   23.9722 H   0  0  0  0  0  0
  -27.2662  -33.3599   26.2029 H   0  0  0  0  0  0
  -28.3882  -32.6823   25.0311 H   0  0  0  0  0  0
  -28.0746  -31.8445   26.5425 H   0  0  0  0  0  0
  -28.2516  -38.0127   24.7589 H   0  0  0  0  0  0
  -28.1178  -36.2659   24.6157 H   0  0  0  0  0  0
  -27.2340  -37.1242   25.8854 H   0  0  0  0  0  0
  -20.9533  -29.8761   21.6742 H   0  0  0  0  0  0
  -26.0143  -38.2788   24.1464 H   0  0  0  0  0  0
  -29.1580  -18.8588   17.0977 H   0  0  0  0  0  0
  -28.8455  -20.9665   18.2727 H   0  0  0  0  0  0
  -29.6500  -16.7567   18.2283 H   0  0  0  0  0  0
  -29.4629  -18.8608   22.0032 H   0  0  0  0  0  0
  -29.4625  -24.4446   22.2486 H   0  0  0  0  0  0
  -27.9875  -25.1387   22.8124 H   0  0  0  0  0  0
  -28.1934  -22.9294   19.1333 H   0  0  0  0  0  0
  -29.7055  -23.4870   19.7329 H   0  0  0  0  0  0
  -27.0120  -23.0463   23.3398 H   0  0  0  0  0  0
  -28.6879  -22.7665   23.7040 H   0  0  0  0  0  0
  -29.9100  -21.8522   21.4374 H   0  0  0  0  0  0
  -26.1281  -23.2442   21.1196 H   0  0  0  0  0  0
  -26.0573  -24.0903   19.6496 H   0  0  0  0  0  0
  -25.8207  -24.9361   21.2009 H   0  0  0  0  0  0
  -28.9830  -15.8807   21.4006 H   0  0  0  0  0  0
  -27.0561  -21.6916   21.5540 H   0  0  0  0  0  0
  -28.0420  -20.9131   22.5630 H   0  0  0  0  0  0
  1 25  1  0  0  0
  1 30  2  0  0  0
  1 83  1  0  0  0
  2  3  1  0  0  0
  2 25  1  0  0  0
  2 85  1  0  0  0
  2 86  1  0  0  0
  3  4  1  0  0  0
  3 87  1  0  0  0
  3 88  1  0  0  0
  4  5  1  0  0  0
  4 89  1  0  0  0
  4 90  1  0  0  0
  5  6  1  0  0  0
  5 26  1  0  0  0
  5 91  1  0  0  0
  6 25  1  0  0  0
  6 92  1  0  0  0
  6 93  1  0  0  0
  7  8  2  0  0  0
  7 26  1  0  0  0
  7 29  1  0  0  0
  8  9  1  0  0  0
  8 22  1  0  0  0
  9 10  1  0  0  0
  9 27  2  0  0  0
 10 11  2  0  0  0
 10 15  1  0  0  0
 11 12  1  0  0  0
 11 94  1  0  0  0
 12 13  2  0  0  0
 12 95  1  0  0  0
 13 14  1  0  0  0
 13 31  1  0  0  0
 14 15  2  0  0  0
 14 96  1  0  0  0
 15 97  1  0  0  0
 16 17  2  0  0  0
 16 21  1  0  0  0
 16 31  1  0  0  0
 17 18  1  0  0  0
 17 98  1  0  0  0
 18 19  2  0  0  0
 18 99  1  0  0  0
 19 20  1  0  0  0
 19 24  1  0  0  0
 20 21  2  0  0  0
 20100  1  0  0  0
 21 23  1  0  0  0
 22 28  1  0  0  0
 22 32  2  0  0  0
 26 27  1  0  0  0
 28101  1  0  0  0
 28102  1  0  0  0
 29103  1  0  0  0
 29104  1  0  0  0
 33 34  1  0  0  0
 33 66  1  0  0  0
 33 70  2  0  0  0
 34 36  1  0  0  0
 34 59  1  0  0  0
 34105  1  0  0  0
 35 44  2  0  0  0
 35 45  1  0  0  0
 35 68  1  0  0  0
 36 56  1  0  0  0
 36106  1  0  0  0
 37 39  1  0  0  0
 37 47  1  0  0  0
 37 66  1  0  0  0
 37107  1  0  0  0
 38 43  2  0  0  0
 38 46  1  0  0  0
 38 47  1  0  0  0
 39 64  1  0  0  0
 39 67  2  0  0  0
 40 52  1  0  0  0
 40 53  2  0  0  0
 40 58  1  0  0  0
 41108  1  0  0  0
 41109  1  0  0  0
 41110  1  0  0  0
 41 48  1  0  0  0
 42 43  1  0  0  0
 42 66  1  0  0  0
 42111  1  0  0  0
 42112  1  0  0  0
 43 44  1  0  0  0
 44113  1  0  0  0
 45 46  2  0  0  0
 45114  1  0  0  0
 46115  1  0  0  0
 47116  1  0  0  0
 47117  1  0  0  0
 48 56  1  0  0  0
 48 65  1  0  0  0
 48118  1  0  0  0
 49 50  1  0  0  0
 49 53  1  0  0  0
 49 64  1  0  0  0
 49119  1  0  0  0
 50 51  1  0  0  0
 50120  1  0  0  0
 50121  1  0  0  0
 51 52  1  0  0  0
 51122  1  0  0  0
 51123  1  0  0  0
 52124  1  0  0  0
 52125  1  0  0  0
 53 54  1  0  0  0
 54 55  2  0  0  0
 54126  1  0  0  0
 55 57  1  0  0  0
 55127  1  0  0  0
 56 69  2  0  0  0
 57 58  2  0  0  0
 57128  1  0  0  0
 58129  1  0  0  0
 59 60  1  0  0  0
 59 61  1  0  0  0
 59 62  1  0  0  0
 60130  1  0  0  0
 60131  1  0  0  0
 60132  1  0  0  0
 61133  1  0  0  0
 61134  1  0  0  0
 61135  1  0  0  0
 62136  1  0  0  0
 62137  1  0  0  0
 62138  1  0  0  0
 63 65  1  0  0  0
 63139  1  0  0  0
 63140  1  0  0  0
 63141  1  0  0  0
 64142  1  0  0  0
 65143  1  0  0  0
 68 81  1  0  0  0
 71 72  2  0  0  0
 71 73  1  0  0  0
 71144  1  0  0  0
 72 75  1  0  0  0
 72145  1  0  0  0
 73 76  2  0  0  0
 73146  1  0  0  0
 74 75  2  0  0  0
 74 76  1  0  0  0
 74147  1  0  0  0
 75 80  1  0  0  0
 76 83  1  0  0  0
 77 79  1  0  0  0
 77 81  1  0  0  0
 77148  1  0  0  0
 77149  1  0  0  0
 78 80  1  0  0  0
 78 81  1  0  0  0
 78150  1  0  0  0
 78151  1  0  0  0
 79 84  1  0  0  0
 79152  1  0  0  0
 79153  1  0  0  0
 80 84  1  0  0  0
 80154  1  0  0  0
 81 82  1  0  0  0
 82155  1  0  0  0
 82156  1  0  0  0
 82157  1  0  0  0
 83158  1  0  0  0
 84159  1  0  0  0
 84160  1  0  0  0
M  CHG  1  84   1
M  ISO  4   1 100  68 101  81 101  83 100
M  END
> <chiral flag>
0

> <version>
0

> <s_m_source_file>
/data/baiqing/PycharmProjects/Reinvent-master-3.2/result/LINK_invent/BTK/process_docking_weight1_custom_product_contain_oxygen_bond_distance_aromatic_linkinvent_7_9_3/rearranged_h_0148.sdf

> <i_m_source_file_index>
54

> <r_mmod_Potential_Energy-OPLS-2005>
489.292388916016

> <r_mmod_Stretch_Energy-OPLS-2005>
308.949340820312

> <r_mmod_Bend_Energy-OPLS-2005>
274.698059082031

> <r_mmod_Torsional_Energy-OPLS-2005>
315.567199707031

> <r_mmod_Improper_Torsional_Energy-OPLS-2005>
4.05674028396606

> <r_mmod_Van_der_Waal_Energy-OPLS-2005>
147.709701538086

> <r_mmod_Electrostatic_Energy-OPLS-2005>
-313.772338867188

> <r_mmod_Solvation_Energy-OPLS-2005>
-481.521575927734

> <b_mmod_Minimization_Converged-OPLS-2005>
0

> <r_mmod_RMS_Derivative-OPLS-2005>
4.63136577606201

$$$$
54
                    3D
 Structure written by MMmdl.
160169  0  0  1  0            999 V2000
  -30.5789  -14.7149   20.4998 C   0  0  0  0  0  0
  -30.4508  -12.4411   19.4624 C   0  0  0  0  0  0
  -29.5155  -12.5195   18.2331 C   0  0  0  0  0  0
  -28.0396  -12.3428   18.6445 C   0  0  0  0  0  0
  -27.6542  -13.2187   19.8656 C   0  0  2  0  0  0
  -28.6992  -13.0864   20.9966 C   0  0  0  0  0  0
  -25.2565  -13.8168   20.5693 C   0  0  0  0  0  0
  -24.1832  -13.0435   20.9194 C   0  0  0  0  0  0
  -24.6402  -11.6906   20.8741 C   0  0  0  0  0  0
  -23.9069  -10.4291   21.0403 C   0  0  0  0  0  0
  -24.3618   -9.4207   21.9182 C   0  0  0  0  0  0
  -23.6292   -8.2242   22.0753 C   0  0  0  0  0  0
  -22.4274   -8.0282   21.3544 C   0  0  0  0  0  0
  -21.9912   -9.0254   20.4644 C   0  0  0  0  0  0
  -22.7242  -10.2131   20.3051 C   0  0  0  0  0  0
  -21.6853   -6.0737   22.5282 C   0  0  0  0  0  0
  -21.4012   -6.5640   23.8215 C   0  0  0  0  0  0
  -21.3659   -5.6791   24.9176 C   0  0  0  0  0  0
  -21.6045   -4.3054   24.7225 C   0  0  0  0  0  0
  -21.8820   -3.8147   23.4345 C   0  0  0  0  0  0
  -21.9193   -4.6966   22.3403 C   0  0  0  0  0  0
  -22.7854  -13.5228   21.1854 C   0  0  0  0  0  0
  -22.1662   -4.2152   21.0980 F   0  0  0  0  0  0
  -21.5629   -3.4537   25.7736 F   0  0  0  0  0  0
  -30.0084  -13.4634   20.4366 N   0  0  0  0  0  0
  -26.2996  -12.9351   20.3329 N   0  0  0  0  0  0
  -25.9333  -11.6506   20.5761 N   0  0  0  0  0  0
  -22.0491  -12.8216   22.0403 N   0  0  0  0  0  0
  -25.4280  -15.1890   20.4121 N   0  0  0  0  0  0
  -31.7226  -14.9159   20.0808 O   0  0  0  0  0  0
  -21.6637   -6.8879   21.4242 O   0  0  0  0  0  0
  -22.3545  -14.5540   20.6710 O   0  0  0  0  0  0
  -24.6310  -31.8560   23.1995 C   0  0  0  0  0  0
  -25.9137  -32.4761   23.8341 C   0  0  1  0  0  0
  -27.2228  -27.2677   20.1216 C   0  0  0  0  0  0
  -25.5936  -33.8564   24.2262 N   0  0  0  0  0  0
  -23.4278  -30.4792   21.5432 C   0  0  2  0  0  0
  -24.8754  -28.9303   20.1084 C   0  0  0  0  0  0
  -22.7504  -29.4605   22.4916 C   0  0  0  0  0  0
  -18.0293  -28.1392   22.8489 C   0  0  0  0  0  0
  -24.1485  -36.7277   23.2639 C   0  0  0  0  0  0
  -25.9744  -30.7693   21.3808 C   0  0  0  0  0  0
  -26.0469  -29.3932   20.7207 C   0  0  0  0  0  0
  -27.2216  -28.5737   20.7192 C   0  0  0  0  0  0
  -26.0298  -26.8827   19.4650 C   0  0  0  0  0  0
  -24.8719  -27.6823   19.4702 C   0  0  0  0  0  0
  -23.6457  -29.8157   20.1584 C   0  0  0  0  0  0
  -25.4113  -36.3072   24.0328 C   0  0  1  0  0  0
  -20.5899  -28.3701   23.1272 C   0  0  2  0  0  0
  -20.6780  -26.9419   22.5408 C   0  0  0  0  0  0
  -19.5753  -26.6392   21.5213 C   0  0  0  0  0  0
  -18.1934  -26.7938   22.1623 C   0  0  0  0  0  0
  -19.1548  -28.8862   23.2877 C   0  0  0  0  0  0
  -18.9467  -30.1462   23.8894 C   0  0  0  0  0  0
  -17.6466  -30.6592   24.0566 C   0  0  0  0  0  0
  -25.9057  -34.9444   23.5097 C   0  0  0  0  0  0
  -16.5356  -29.9090   23.6336 C   0  0  0  0  0  0
  -16.7280  -28.6508   23.0357 C   0  0  0  0  0  0
  -26.4503  -31.6587   25.0731 C   0  0  0  0  0  0
  -25.3722  -31.3740   26.1448 C   0  0  0  0  0  0
  -27.0355  -30.3004   24.6222 C   0  0  0  0  0  0
  -27.6054  -32.4331   25.7507 C   0  0  0  0  0  0
  -27.5578  -37.1795   24.8462 C   0  0  0  0  0  0
  -21.4212  -29.3046   22.3659 N   0  0  0  0  0  0
  -26.4284  -37.3774   23.9415 N   0  0  0  0  0  0
  -24.6967  -31.0527   22.0972 N   0  0  0  0  0  0
  -23.4207  -28.8144   23.3010 O   0  0  0  0  0  0
  -28.3160  -26.3681   20.1968 O   0  0  0  0  0  0
  -26.5629  -34.8918   22.4666 O   0  0  0  0  0  0
  -23.5460  -32.1384   23.7287 O   0  0  0  0  0  0
  -28.8796  -17.9243   21.7221 C   0  0  0  0  0  0
  -28.7651  -19.3410   21.6639 C   0  0  0  0  0  0
  -30.4398  -18.0535   19.9497 C   0  0  0  0  0  0
  -29.7441  -17.2078   20.8603 C   0  0  0  0  0  0
  -29.4714  -20.1325   20.7239 C   0  0  0  0  0  0
  -26.9563  -22.0809   20.9712 C   0  0  0  0  0  0
  -29.5666  -22.5438   19.5944 C   0  0  0  0  0  0
  -28.3881  -22.4617   21.3222 C   0  0  2  0  0  0
  -29.0246  -23.7044   20.5448 C   0  0  1  0  0  0
  -25.8815  -22.7815   21.7898 C   0  0  0  0  0  0
  -30.1140  -24.4460   21.3295 C   0  0  0  0  0  0
  -28.0798  -24.8968   19.9682 C   0  0  0  0  0  0
  -30.2996  -19.4302   19.8879 N   0  0  0  0  0  0
  -29.4458  -21.6178   20.7306 N   0  0  0  0  0  0
  -29.7579  -15.7283   20.9459 N   0  0  0  0  0  0
  -26.6024  -21.2796   20.1030 O   0  0  0  0  0  0
  -31.4878  -12.5917   19.1570 H   0  0  0  0  0  0
  -30.4140  -11.4480   19.9125 H   0  0  0  0  0  0
  -29.7920  -11.7613   17.4991 H   0  0  0  0  0  0
  -29.6428  -13.4834   17.7378 H   0  0  0  0  0  0
  -27.8877  -11.2898   18.8850 H   0  0  0  0  0  0
  -27.3825  -12.5587   17.8012 H   0  0  0  0  0  0
  -27.6675  -14.2520   19.5185 H   0  0  0  0  0  0
  -28.7300  -12.0623   21.3715 H   0  0  0  0  0  0
  -28.4280  -13.7042   21.8538 H   0  0  0  0  0  0
  -25.2761   -9.5684   22.4759 H   0  0  0  0  0  0
  -24.0004   -7.4632   22.7472 H   0  0  0  0  0  0
  -21.0845   -8.8771   19.8946 H   0  0  0  0  0  0
  -22.3703  -10.9668   19.6158 H   0  0  0  0  0  0
  -21.2001   -7.6149   23.9720 H   0  0  0  0  0  0
  -21.1482   -6.0520   25.9080 H   0  0  0  0  0  0
  -22.0597   -2.7610   23.2843 H   0  0  0  0  0  0
  -22.4097  -11.9867   22.4777 H   0  0  0  0  0  0
  -21.1106  -13.1241   22.2601 H   0  0  0  0  0  0
  -24.6575  -15.8405   20.5148 H   0  0  0  0  0  0
  -26.2738  -15.6279   20.0707 H   0  0  0  0  0  0
  -26.7205  -32.5411   23.1086 H   0  0  0  0  0  0
  -25.0083  -33.9704   25.0409 H   0  0  0  0  0  0
  -22.7244  -31.3018   21.3985 H   0  0  0  0  0  0
  -23.3759  -35.9596   23.3289 H   0  0  0  0  0  0
  -24.3578  -36.8911   22.2055 H   0  0  0  0  0  0
  -23.7223  -37.6469   23.6669 H   0  0  0  0  0  0
  -26.1152  -31.5315   20.6131 H   0  0  0  0  0  0
  -26.8514  -30.8161   22.0147 H   0  0  0  0  0  0
  -28.1153  -28.9202   21.2190 H   0  0  0  0  0  0
  -25.9571  -25.9379   18.9481 H   0  0  0  0  0  0
  -23.9780  -27.3257   18.9768 H   0  0  0  0  0  0
  -23.7691  -30.5933   19.4036 H   0  0  0  0  0  0
  -22.7642  -29.2489   19.8531 H   0  0  0  0  0  0
  -25.1295  -36.1916   25.0821 H   0  0  0  0  0  0
  -20.9996  -28.3274   24.1391 H   0  0  0  0  0  0
  -20.5680  -26.2311   23.3612 H   0  0  0  0  0  0
  -21.6647  -26.7445   22.1199 H   0  0  0  0  0  0
  -19.6913  -25.6304   21.1238 H   0  0  0  0  0  0
  -19.6687  -27.3207   20.6745 H   0  0  0  0  0  0
  -17.4207  -26.6698   21.4020 H   0  0  0  0  0  0
  -18.0322  -26.0080   22.9015 H   0  0  0  0  0  0
  -19.7941  -30.7281   24.2261 H   0  0  0  0  0  0
  -17.5020  -31.6271   24.5171 H   0  0  0  0  0  0
  -15.5356  -30.2988   23.7664 H   0  0  0  0  0  0
  -15.8682  -28.0825   22.7074 H   0  0  0  0  0  0
  -24.5891  -30.7099   25.7774 H   0  0  0  0  0  0
  -24.8919  -32.2910   26.4870 H   0  0  0  0  0  0
  -25.8032  -30.8914   27.0229 H   0  0  0  0  0  0
  -26.2945  -29.6749   24.1228 H   0  0  0  0  0  0
  -27.4018  -29.7269   25.4747 H   0  0  0  0  0  0
  -27.8831  -30.4281   23.9485 H   0  0  0  0  0  0
  -27.2667  -33.3646   26.2056 H   0  0  0  0  0  0
  -28.3883  -32.6866   25.0346 H   0  0  0  0  0  0
  -28.0702  -31.8472   26.5448 H   0  0  0  0  0  0
  -28.2582  -38.0105   24.7531 H   0  0  0  0  0  0
  -28.1086  -36.2640   24.6257 H   0  0  0  0  0  0
  -27.2305  -37.1408   25.8865 H   0  0  0  0  0  0
  -20.9396  -29.8771   21.6868 H   0  0  0  0  0  0
  -26.0159  -38.2843   24.1427 H   0  0  0  0  0  0
  -28.2935  -17.3881   22.4545 H   0  0  0  0  0  0
  -28.1168  -19.8210   22.3816 H   0  0  0  0  0  0
  -31.1141  -17.6222   19.2246 H   0  0  0  0  0  0
  -30.5918  -22.6817   19.2487 H   0  0  0  0  0  0
  -28.8997  -22.2861   18.7686 H   0  0  0  0  0  0
  -28.5284  -22.5484   22.4004 H   0  0  0  0  0  0
  -26.3134  -23.5707   22.4050 H   0  0  0  0  0  0
  -25.3837  -22.0668   22.4443 H   0  0  0  0  0  0
  -25.1364  -23.2266   21.1305 H   0  0  0  0  0  0
  -30.8392  -23.7590   21.7667 H   0  0  0  0  0  0
  -29.6894  -25.0269   22.1490 H   0  0  0  0  0  0
  -30.6707  -25.1324   20.6907 H   0  0  0  0  0  0
  -27.0813  -24.7056   20.3507 H   0  0  0  0  0  0
  -27.9970  -24.7680   18.8885 H   0  0  0  0  0  0
  -28.9314  -15.3455   21.3810 H   0  0  0  0  0  0
  1 25  1  0  0  0
  1 30  2  0  0  0
  1 85  1  0  0  0
  2  3  1  0  0  0
  2 25  1  0  0  0
  2 87  1  0  0  0
  2 88  1  0  0  0
  3  4  1  0  0  0
  3 89  1  0  0  0
  3 90  1  0  0  0
  4  5  1  0  0  0
  4 91  1  0  0  0
  4 92  1  0  0  0
  5  6  1  0  0  0
  5 26  1  0  0  0
  5 93  1  0  0  0
  6 25  1  0  0  0
  6 94  1  0  0  0
  6 95  1  0  0  0
  7  8  2  0  0  0
  7 26  1  0  0  0
  7 29  1  0  0  0
  8  9  1  0  0  0
  8 22  1  0  0  0
  9 10  1  0  0  0
  9 27  2  0  0  0
 10 11  2  0  0  0
 10 15  1  0  0  0
 11 12  1  0  0  0
 11 96  1  0  0  0
 12 13  2  0  0  0
 12 97  1  0  0  0
 13 14  1  0  0  0
 13 31  1  0  0  0
 14 15  2  0  0  0
 14 98  1  0  0  0
 15 99  1  0  0  0
 16 17  2  0  0  0
 16 21  1  0  0  0
 16 31  1  0  0  0
 17 18  1  0  0  0
 17100  1  0  0  0
 18 19  2  0  0  0
 18101  1  0  0  0
 19 20  1  0  0  0
 19 24  1  0  0  0
 20 21  2  0  0  0
 20102  1  0  0  0
 21 23  1  0  0  0
 22 28  1  0  0  0
 22 32  2  0  0  0
 26 27  1  0  0  0
 28103  1  0  0  0
 28104  1  0  0  0
 29105  1  0  0  0
 29106  1  0  0  0
 33 34  1  0  0  0
 33 66  1  0  0  0
 33 70  2  0  0  0
 34 36  1  0  0  0
 34 59  1  0  0  0
 34107  1  0  0  0
 35 44  2  0  0  0
 35 45  1  0  0  0
 35 68  1  0  0  0
 36 56  1  0  0  0
 36108  1  0  0  0
 37 39  1  0  0  0
 37 47  1  0  0  0
 37 66  1  0  0  0
 37109  1  0  0  0
 38 43  2  0  0  0
 38 46  1  0  0  0
 38 47  1  0  0  0
 39 64  1  0  0  0
 39 67  2  0  0  0
 40 52  1  0  0  0
 40 53  2  0  0  0
 40 58  1  0  0  0
 41110  1  0  0  0
 41111  1  0  0  0
 41112  1  0  0  0
 41 48  1  0  0  0
 42 43  1  0  0  0
 42 66  1  0  0  0
 42113  1  0  0  0
 42114  1  0  0  0
 43 44  1  0  0  0
 44115  1  0  0  0
 45 46  2  0  0  0
 45116  1  0  0  0
 46117  1  0  0  0
 47118  1  0  0  0
 47119  1  0  0  0
 48 56  1  0  0  0
 48 65  1  0  0  0
 48120  1  0  0  0
 49 50  1  0  0  0
 49 53  1  0  0  0
 49 64  1  0  0  0
 49121  1  0  0  0
 50 51  1  0  0  0
 50122  1  0  0  0
 50123  1  0  0  0
 51 52  1  0  0  0
 51124  1  0  0  0
 51125  1  0  0  0
 52126  1  0  0  0
 52127  1  0  0  0
 53 54  1  0  0  0
 54 55  2  0  0  0
 54128  1  0  0  0
 55 57  1  0  0  0
 55129  1  0  0  0
 56 69  2  0  0  0
 57 58  2  0  0  0
 57130  1  0  0  0
 58131  1  0  0  0
 59 60  1  0  0  0
 59 61  1  0  0  0
 59 62  1  0  0  0
 60132  1  0  0  0
 60133  1  0  0  0
 60134  1  0  0  0
 61135  1  0  0  0
 61136  1  0  0  0
 61137  1  0  0  0
 62138  1  0  0  0
 62139  1  0  0  0
 62140  1  0  0  0
 63 65  1  0  0  0
 63141  1  0  0  0
 63142  1  0  0  0
 63143  1  0  0  0
 64144  1  0  0  0
 65145  1  0  0  0
 68 82  1  0  0  0
 71 72  2  0  0  0
 71 74  1  0  0  0
 71146  1  0  0  0
 72 75  1  0  0  0
 72147  1  0  0  0
 73 74  2  0  0  0
 73 83  1  0  0  0
 73148  1  0  0  0
 74 85  1  0  0  0
 75 83  2  0  0  0
 75 84  1  0  0  0
 76 80  1  0  0  0
 76 86  2  0  0  0
 76 78  1  0  0  0
 77 79  1  0  0  0
 77 84  1  0  0  0
 77149  1  0  0  0
 77150  1  0  0  0
 78 79  1  0  0  0
 78 84  1  0  0  0
 78151  1  0  0  0
 79 81  1  0  0  0
 79 82  1  0  0  0
 80152  1  0  0  0
 80153  1  0  0  0
 80154  1  0  0  0
 81155  1  0  0  0
 81156  1  0  0  0
 81157  1  0  0  0
 82158  1  0  0  0
 82159  1  0  0  0
 85160  1  0  0  0
M  ISO  4   1 100  68 101  82 101  85 100
M  END
> <chiral flag>
0

> <version>
0

> <s_m_source_file>
/data/baiqing/PycharmProjects/Reinvent-master-3.2/result/LINK_invent/BTK/process_docking_weight1_custom_product_contain_oxygen_bond_distance_aromatic_linkinvent_7_9_3/rearranged_h_0148.sdf

> <i_m_source_file_index>
55

> <r_mmod_Potential_Energy-OPLS-2005>
-51.9232406616211

> <r_mmod_Stretch_Energy-OPLS-2005>
114.626388549805

> <r_mmod_Bend_Energy-OPLS-2005>
230.858184814453

> <r_mmod_Torsional_Energy-OPLS-2005>
259.830169677734

> <r_mmod_Improper_Torsional_Energy-OPLS-2005>
9.17493629455566

> <r_mmod_Van_der_Waal_Energy-OPLS-2005>
150.100814819336

> <r_mmod_Electrostatic_Energy-OPLS-2005>
-650.623718261719

> <r_mmod_Solvation_Energy-OPLS-2005>
-243.729553222656

> <b_mmod_Minimization_Converged-OPLS-2005>
0

> <r_mmod_RMS_Derivative-OPLS-2005>
0.491466343402863

$$$$
55
                    3D
 Structure written by MMmdl.
158166  0  0  1  0            999 V2000
  -30.7416  -14.4951   20.5805 C   0  0  0  0  0  0
  -30.4172  -12.3318   19.4194 C   0  0  0  0  0  0
  -29.4851  -12.4897   18.2009 C   0  0  0  0  0  0
  -28.0081  -12.3595   18.6169 C   0  0  0  0  0  0
  -27.6548  -13.2141   19.8621 C   0  0  2  0  0  0
  -28.6999  -13.0224   20.9789 C   0  0  0  0  0  0
  -25.2570  -13.8183   20.5696 C   0  0  0  0  0  0
  -24.1833  -13.0445   20.9197 C   0  0  0  0  0  0
  -24.6408  -11.6915   20.8762 C   0  0  0  0  0  0
  -23.9089  -10.4292   21.0424 C   0  0  0  0  0  0
  -24.3644   -9.4200   21.9194 C   0  0  0  0  0  0
  -23.6315   -8.2232   22.0753 C   0  0  0  0  0  0
  -22.4295   -8.0284   21.3553 C   0  0  0  0  0  0
  -21.9932   -9.0260   20.4646 C   0  0  0  0  0  0
  -22.7266  -10.2133   20.3061 C   0  0  0  0  0  0
  -21.6856   -6.0746   22.5286 C   0  0  0  0  0  0
  -21.4009   -6.5645   23.8229 C   0  0  0  0  0  0
  -21.3655   -5.6792   24.9181 C   0  0  0  0  0  0
  -21.6045   -4.3058   24.7227 C   0  0  0  0  0  0
  -21.8818   -3.8154   23.4344 C   0  0  0  0  0  0
  -21.9191   -4.6974   22.3407 C   0  0  0  0  0  0
  -22.7855  -13.5234   21.1866 C   0  0  0  0  0  0
  -22.1657   -4.2164   21.0986 F   0  0  0  0  0  0
  -21.5634   -3.4542   25.7735 F   0  0  0  0  0  0
  -30.0267  -13.3396   20.4213 N   0  0  0  0  0  0
  -26.3008  -12.9367   20.3339 N   0  0  0  0  0  0
  -25.9341  -11.6517   20.5793 N   0  0  0  0  0  0
  -22.0490  -12.8211   22.0408 N   0  0  0  0  0  0
  -25.4288  -15.1908   20.4138 N   0  0  0  0  0  0
  -31.8632  -14.6287   20.0883 O   0  0  0  0  0  0
  -21.6646   -6.8890   21.4251 O   0  0  0  0  0  0
  -22.3532  -14.5544   20.6728 O   0  0  0  0  0  0
  -24.6132  -31.8690   23.2104 C   0  0  0  0  0  0
  -25.9040  -32.4823   23.8394 C   0  0  1  0  0  0
  -27.2313  -27.4458   20.1160 C   0  0  0  0  0  0
  -25.5919  -33.8620   24.2341 N   0  0  0  0  0  0
  -23.3998  -30.4924   21.5491 C   0  0  2  0  0  0
  -24.8490  -28.9585   20.1133 C   0  0  0  0  0  0
  -22.7401  -29.4675   22.4992 C   0  0  0  0  0  0
  -18.0270  -28.1385   22.8493 C   0  0  0  0  0  0
  -24.1486  -36.7296   23.2628 C   0  0  0  0  0  0
  -25.9256  -30.8417   21.3587 C   0  0  0  0  0  0
  -26.0060  -29.4760   20.7098 C   0  0  0  0  0  0
  -27.2048  -28.7283   20.7063 C   0  0  0  0  0  0
  -26.0652  -26.9411   19.5051 C   0  0  0  0  0  0
  -24.8735  -27.6905   19.5042 C   0  0  0  0  0  0
  -23.6084  -29.8221   20.1629 C   0  0  0  0  0  0
  -25.4102  -36.3108   24.0347 C   0  0  1  0  0  0
  -20.5858  -28.3670   23.1321 C   0  0  2  0  0  0
  -20.6762  -26.9404   22.5428 C   0  0  0  0  0  0
  -19.5752  -26.6389   21.5216 C   0  0  0  0  0  0
  -18.1918  -26.7937   22.1607 C   0  0  0  0  0  0
  -19.1517  -28.8843   23.2911 C   0  0  0  0  0  0
  -18.9450  -30.1447   23.8924 C   0  0  0  0  0  0
  -17.6451  -30.6589   24.0573 C   0  0  0  0  0  0
  -25.9038  -34.9475   23.5135 C   0  0  0  0  0  0
  -16.5345  -29.9097   23.6333 C   0  0  0  0  0  0
  -16.7257  -28.6510   23.0346 C   0  0  0  0  0  0
  -26.4470  -31.6583   25.0703 C   0  0  0  0  0  0
  -25.3762  -31.3701   26.1478 C   0  0  0  0  0  0
  -27.0244  -30.3014   24.6044 C   0  0  0  0  0  0
  -27.6094  -32.4249   25.7441 C   0  0  0  0  0  0
  -27.5602  -37.1778   24.8448 C   0  0  0  0  0  0
  -21.4131  -29.3044   22.3736 N   0  0  0  0  0  0
  -26.4276  -37.3806   23.9443 N   0  0  0  0  0  0
  -24.6641  -31.0811   22.0988 N   0  0  0  0  0  0
  -23.4181  -28.8227   23.3032 O   0  0  0  0  0  0
  -28.3740  -26.6835   20.1451 O   0  0  0  0  0  0
  -26.5587  -34.8928   22.4690 O   0  0  0  0  0  0
  -23.5336  -32.1434   23.7522 O   0  0  0  0  0  0
  -30.0761  -18.8895   19.5485 C   0  0  0  0  0  0
  -30.4029  -17.4958   19.5824 C   0  0  0  0  0  0
  -29.3882  -19.3628   20.6334 C   0  0  0  0  0  0
  -29.9884  -16.8321   20.7415 C   0  0  0  0  0  0
  -28.6613  -22.9769   20.8600 C   0  0  0  0  0  0
  -31.1991  -17.0050   18.4628 C   0  0  0  0  0  0
  -28.7403  -24.2188   20.3079 C   0  0  0  0  0  0
  -29.1287  -21.7605   20.1882 C   0  0  0  0  0  0
  -30.4159  -16.3685   17.3236 C   0  0  0  0  0  0
  -30.0907  -15.3816   22.6988 C   0  0  0  0  0  0
  -28.2779  -25.5138   20.9830 C   0  0  0  0  0  0
  -28.9742  -20.6374   20.9272 N   0  0  0  0  0  0
  -30.1539  -15.5384   21.2348 N   0  0  0  0  0  0
  -32.4151  -17.1737   18.3314 O   0  0  0  0  0  0
  -29.6123  -21.7591   19.0523 O   0  0  0  0  0  0
  -29.2410  -24.4759   19.0873 O   0  0  0  0  0  0
  -29.0954  -18.0202   21.7149 S   0  0  0  0  0  0
  -31.4595  -12.4232   19.1073 H   0  0  0  0  0  0
  -30.3276  -11.3294   19.8418 H   0  0  0  0  0  0
  -29.7245  -11.7412   17.4448 H   0  0  0  0  0  0
  -29.6437  -13.4595   17.7311 H   0  0  0  0  0  0
  -27.8154  -11.3062   18.8245 H   0  0  0  0  0  0
  -27.3569  -12.6246   17.7824 H   0  0  0  0  0  0
  -27.6908  -14.2595   19.5547 H   0  0  0  0  0  0
  -28.6927  -11.9905   21.3323 H   0  0  0  0  0  0
  -28.4326  -13.6269   21.8408 H   0  0  0  0  0  0
  -25.2791   -9.5666   22.4770 H   0  0  0  0  0  0
  -24.0035   -7.4610   22.7458 H   0  0  0  0  0  0
  -21.0873   -8.8781   19.8948 H   0  0  0  0  0  0
  -22.3748  -10.9675   19.6169 H   0  0  0  0  0  0
  -21.1996   -7.6147   23.9733 H   0  0  0  0  0  0
  -21.1478   -6.0518   25.9084 H   0  0  0  0  0  0
  -22.0602   -2.7620   23.2838 H   0  0  0  0  0  0
  -22.4097  -11.9855   22.4763 H   0  0  0  0  0  0
  -21.1095  -13.1214   22.2603 H   0  0  0  0  0  0
  -24.6684  -15.8507   20.5365 H   0  0  0  0  0  0
  -26.2939  -15.6325   20.1299 H   0  0  0  0  0  0
  -26.7111  -32.5541   23.1158 H   0  0  0  0  0  0
  -25.0151  -33.9784   25.0542 H   0  0  0  0  0  0
  -22.6881  -31.3083   21.4077 H   0  0  0  0  0  0
  -23.3788  -35.9584   23.3215 H   0  0  0  0  0  0
  -24.3620  -36.8982   22.2062 H   0  0  0  0  0  0
  -23.7170  -37.6451   23.6681 H   0  0  0  0  0  0
  -26.0289  -31.6062   20.5873 H   0  0  0  0  0  0
  -26.8164  -30.9008   21.9718 H   0  0  0  0  0  0
  -28.0971  -29.1208   21.1740 H   0  0  0  0  0  0
  -26.0809  -25.9644   19.0410 H   0  0  0  0  0  0
  -23.9856  -27.2861   19.0378 H   0  0  0  0  0  0
  -23.7132  -30.5953   19.4006 H   0  0  0  0  0  0
  -22.7343  -29.2389   19.8679 H   0  0  0  0  0  0
  -25.1270  -36.1962   25.0836 H   0  0  0  0  0  0
  -20.9946  -28.3230   24.1442 H   0  0  0  0  0  0
  -20.5634  -26.2288   23.3620 H   0  0  0  0  0  0
  -21.6635  -26.7437   22.1228 H   0  0  0  0  0  0
  -19.6907  -25.6296   21.1246 H   0  0  0  0  0  0
  -19.6705  -27.3208   20.6754 H   0  0  0  0  0  0
  -17.4201  -26.6711   21.3991 H   0  0  0  0  0  0
  -18.0298  -26.0058   22.8973 H   0  0  0  0  0  0
  -19.7928  -30.7264   24.2295 H   0  0  0  0  0  0
  -17.5007  -31.6276   24.5167 H   0  0  0  0  0  0
  -15.5345  -30.3011   23.7646 H   0  0  0  0  0  0
  -15.8651  -28.0851   22.7045 H   0  0  0  0  0  0
  -24.5961  -30.6992   25.7856 H   0  0  0  0  0  0
  -24.8917  -32.2854   26.4893 H   0  0  0  0  0  0
  -25.8142  -30.8928   27.0251 H   0  0  0  0  0  0
  -26.2737  -29.6801   24.1144 H   0  0  0  0  0  0
  -27.4064  -29.7229   25.4461 H   0  0  0  0  0  0
  -27.8564  -30.4312   23.9119 H   0  0  0  0  0  0
  -27.2812  -33.3623   26.1940 H   0  0  0  0  0  0
  -28.3952  -32.6657   25.0267 H   0  0  0  0  0  0
  -28.0680  -31.8380   26.5407 H   0  0  0  0  0  0
  -28.2550  -38.0147   24.7615 H   0  0  0  0  0  0
  -28.1172  -36.2694   24.6101 H   0  0  0  0  0  0
  -27.2357  -37.1208   25.8854 H   0  0  0  0  0  0
  -20.9288  -29.8784   21.6974 H   0  0  0  0  0  0
  -26.0166  -38.2866   24.1537 H   0  0  0  0  0  0
  -30.3927  -19.4965   18.7126 H   0  0  0  0  0  0
  -28.2360  -22.8923   21.8500 H   0  0  0  0  0  0
  -29.3430  -16.4552   17.5032 H   0  0  0  0  0  0
  -30.6893  -15.3184   17.2229 H   0  0  0  0  0  0
  -30.6511  -16.8769   16.3858 H   0  0  0  0  0  0
  -29.0646  -15.4774   23.0555 H   0  0  0  0  0  0
  -30.6946  -16.1418   23.1972 H   0  0  0  0  0  0
  -30.4669  -14.4170   23.0486 H   0  0  0  0  0  0
  -28.9019  -25.6829   21.8613 H   0  0  0  0  0  0
  -27.2671  -25.3573   21.3667 H   0  0  0  0  0  0
  -28.5247  -20.7614   21.8248 H   0  0  0  0  0  0
  -29.5093  -23.6395   18.7141 H   0  0  0  0  0  0
  1 25  1  0  0  0
  1 30  2  0  0  0
  1 83  1  0  0  0
  2  3  1  0  0  0
  2 25  1  0  0  0
  2 88  1  0  0  0
  2 89  1  0  0  0
  3  4  1  0  0  0
  3 90  1  0  0  0
  3 91  1  0  0  0
  4  5  1  0  0  0
  4 92  1  0  0  0
  4 93  1  0  0  0
  5  6  1  0  0  0
  5 26  1  0  0  0
  5 94  1  0  0  0
  6 25  1  0  0  0
  6 95  1  0  0  0
  6 96  1  0  0  0
  7  8  2  0  0  0
  7 26  1  0  0  0
  7 29  1  0  0  0
  8  9  1  0  0  0
  8 22  1  0  0  0
  9 10  1  0  0  0
  9 27  2  0  0  0
 10 11  2  0  0  0
 10 15  1  0  0  0
 11 12  1  0  0  0
 11 97  1  0  0  0
 12 13  2  0  0  0
 12 98  1  0  0  0
 13 14  1  0  0  0
 13 31  1  0  0  0
 14 15  2  0  0  0
 14 99  1  0  0  0
 15100  1  0  0  0
 16 17  2  0  0  0
 16 21  1  0  0  0
 16 31  1  0  0  0
 17 18  1  0  0  0
 17101  1  0  0  0
 18 19  2  0  0  0
 18102  1  0  0  0
 19 20  1  0  0  0
 19 24  1  0  0  0
 20 21  2  0  0  0
 20103  1  0  0  0
 21 23  1  0  0  0
 22 28  1  0  0  0
 22 32  2  0  0  0
 26 27  1  0  0  0
 28104  1  0  0  0
 28105  1  0  0  0
 29106  1  0  0  0
 29107  1  0  0  0
 33 34  1  0  0  0
 33 66  1  0  0  0
 33 70  2  0  0  0
 34 36  1  0  0  0
 34 59  1  0  0  0
 34108  1  0  0  0
 35 44  2  0  0  0
 35 45  1  0  0  0
 35 68  1  0  0  0
 36 56  1  0  0  0
 36109  1  0  0  0
 37 39  1  0  0  0
 37 47  1  0  0  0
 37 66  1  0  0  0
 37110  1  0  0  0
 38 43  2  0  0  0
 38 46  1  0  0  0
 38 47  1  0  0  0
 39 64  1  0  0  0
 39 67  2  0  0  0
 40 52  1  0  0  0
 40 53  2  0  0  0
 40 58  1  0  0  0
 41111  1  0  0  0
 41112  1  0  0  0
 41113  1  0  0  0
 41 48  1  0  0  0
 42 43  1  0  0  0
 42 66  1  0  0  0
 42114  1  0  0  0
 42115  1  0  0  0
 43 44  1  0  0  0
 44116  1  0  0  0
 45 46  2  0  0  0
 45117  1  0  0  0
 46118  1  0  0  0
 47119  1  0  0  0
 47120  1  0  0  0
 48 56  1  0  0  0
 48 65  1  0  0  0
 48121  1  0  0  0
 49 50  1  0  0  0
 49 53  1  0  0  0
 49 64  1  0  0  0
 49122  1  0  0  0
 50 51  1  0  0  0
 50123  1  0  0  0
 50124  1  0  0  0
 51 52  1  0  0  0
 51125  1  0  0  0
 51126  1  0  0  0
 52127  1  0  0  0
 52128  1  0  0  0
 53 54  1  0  0  0
 54 55  2  0  0  0
 54129  1  0  0  0
 55 57  1  0  0  0
 55130  1  0  0  0
 56 69  2  0  0  0
 57 58  2  0  0  0
 57131  1  0  0  0
 58132  1  0  0  0
 59 60  1  0  0  0
 59 61  1  0  0  0
 59 62  1  0  0  0
 60133  1  0  0  0
 60134  1  0  0  0
 60135  1  0  0  0
 61136  1  0  0  0
 61137  1  0  0  0
 61138  1  0  0  0
 62139  1  0  0  0
 62140  1  0  0  0
 62141  1  0  0  0
 63 65  1  0  0  0
 63142  1  0  0  0
 63143  1  0  0  0
 63144  1  0  0  0
 64145  1  0  0  0
 65146  1  0  0  0
 68 81  1  0  0  0
 71 72  1  0  0  0
 71 73  2  0  0  0
 71147  1  0  0  0
 72 74  2  0  0  0
 72 76  1  0  0  0
 73 82  1  0  0  0
 73 87  1  0  0  0
 74 83  1  0  0  0
 74 87  1  0  0  0
 75 77  2  0  0  0
 75 78  1  0  0  0
 75148  1  0  0  0
 76 79  1  0  0  0
 76 84  2  0  0  0
 77 81  1  0  0  0
 77 86  1  0  0  0
 78 82  1  0  0  0
 78 85  2  0  0  0
 79149  1  0  0  0
 79150  1  0  0  0
 79151  1  0  0  0
 80 83  1  0  0  0
 80152  1  0  0  0
 80153  1  0  0  0
 80154  1  0  0  0
 81155  1  0  0  0
 81156  1  0  0  0
 82157  1  0  0  0
 86158  1  0  0  0
M  ISO  4   1 100  68 101  81 101  83 100
M  END
> <chiral flag>
0

> <version>
0

> <s_m_source_file>
/data/baiqing/PycharmProjects/Reinvent-master-3.2/result/LINK_invent/BTK/process_docking_weight1_custom_product_contain_oxygen_bond_distance_aromatic_linkinvent_7_9_3/rearranged_h_0148.sdf

> <i_m_source_file_index>
56

> <r_mmod_Potential_Energy-OPLS-2005>
123.916053771973

> <r_mmod_Stretch_Energy-OPLS-2005>
47.0740623474121

> <r_mmod_Bend_Energy-OPLS-2005>
128.072906494141

> <r_mmod_Torsional_Energy-OPLS-2005>
335.071411132812

> <r_mmod_Improper_Torsional_Energy-OPLS-2005>
4.17093849182129

> <r_mmod_Van_der_Waal_Energy-OPLS-2005>
152.064575195312

> <r_mmod_Electrostatic_Energy-OPLS-2005>
-324.463104248047

> <r_mmod_Solvation_Energy-OPLS-2005>
-233.708740234375

> <b_mmod_Minimization_Converged-OPLS-2005>
0

> <r_mmod_RMS_Derivative-OPLS-2005>
2.74200677871704

$$$$
56
                    3D
 Structure written by MMmdl.
162171  0  0  1  0            999 V2000
  -30.6742  -14.5974   20.5059 C   0  0  0  0  0  0
  -30.4217  -12.3686   19.4490 C   0  0  0  0  0  0
  -29.4967  -12.4954   18.2208 C   0  0  0  0  0  0
  -28.0207  -12.3490   18.6325 C   0  0  0  0  0  0
  -27.6500  -13.2229   19.8606 C   0  0  2  0  0  0
  -28.6953  -13.0901   20.9925 C   0  0  0  0  0  0
  -25.2546  -13.8221   20.5701 C   0  0  0  0  0  0
  -24.1816  -13.0475   20.9187 C   0  0  0  0  0  0
  -24.6384  -11.6941   20.8734 C   0  0  0  0  0  0
  -23.9050  -10.4319   21.0392 C   0  0  0  0  0  0
  -24.3600   -9.4241   21.9180 C   0  0  0  0  0  0
  -23.6284   -8.2275   22.0748 C   0  0  0  0  0  0
  -22.4276   -8.0294   21.3539 C   0  0  0  0  0  0
  -21.9899   -9.0263   20.4646 C   0  0  0  0  0  0
  -22.7219  -10.2154   20.3041 C   0  0  0  0  0  0
  -21.6855   -6.0734   22.5277 C   0  0  0  0  0  0
  -21.4020   -6.5624   23.8212 C   0  0  0  0  0  0
  -21.3662   -5.6775   24.9167 C   0  0  0  0  0  0
  -21.6035   -4.3037   24.7217 C   0  0  0  0  0  0
  -21.8825   -3.8134   23.4339 C   0  0  0  0  0  0
  -21.9209   -4.6961   22.3397 C   0  0  0  0  0  0
  -22.7836  -13.5272   21.1818 C   0  0  0  0  0  0
  -22.1668   -4.2150   21.0971 F   0  0  0  0  0  0
  -21.5624   -3.4517   25.7726 F   0  0  0  0  0  0
  -30.0156  -13.4011   20.4248 N   0  0  0  0  0  0
  -26.2967  -12.9412   20.3314 N   0  0  0  0  0  0
  -25.9309  -11.6552   20.5720 N   0  0  0  0  0  0
  -22.0459  -12.8282   22.0372 N   0  0  0  0  0  0
  -25.4241  -15.1948   20.4125 N   0  0  0  0  0  0
  -31.8403  -14.7027   20.1185 O   0  0  0  0  0  0
  -21.6643   -6.8890   21.4244 O   0  0  0  0  0  0
  -22.3536  -14.5583   20.6659 O   0  0  0  0  0  0
  -24.6196  -31.8620   23.2060 C   0  0  0  0  0  0
  -25.9080  -32.4783   23.8353 C   0  0  1  0  0  0
  -27.2305  -27.3577   20.1068 C   0  0  0  0  0  0
  -25.5935  -33.8582   24.2307 N   0  0  0  0  0  0
  -23.4103  -30.4902   21.5450 C   0  0  2  0  0  0
  -24.8563  -28.9434   20.1117 C   0  0  0  0  0  0
  -22.7440  -29.4651   22.4916 C   0  0  0  0  0  0
  -18.0289  -28.1375   22.8495 C   0  0  0  0  0  0
  -24.1497  -36.7297   23.2637 C   0  0  0  0  0  0
  -25.9453  -30.8069   21.3685 C   0  0  0  0  0  0
  -26.0200  -29.4354   20.7118 C   0  0  0  0  0  0
  -27.2055  -28.6523   20.7026 C   0  0  0  0  0  0
  -26.0381  -26.8970   19.5016 C   0  0  0  0  0  0
  -24.8645  -27.6754   19.5048 C   0  0  0  0  0  0
  -23.6248  -29.8250   20.1582 C   0  0  0  0  0  0
  -25.4120  -36.3082   24.0328 C   0  0  1  0  0  0
  -20.5879  -28.3699   23.1301 C   0  0  2  0  0  0
  -20.6810  -26.9408   22.5432 C   0  0  0  0  0  0
  -19.5781  -26.6335   21.5241 C   0  0  0  0  0  0
  -18.1940  -26.7930   22.1618 C   0  0  0  0  0  0
  -19.1540  -28.8852   23.2898 C   0  0  0  0  0  0
  -18.9466  -30.1451   23.8913 C   0  0  0  0  0  0
  -17.6478  -30.6598   24.0558 C   0  0  0  0  0  0
  -25.9043  -34.9447   23.5104 C   0  0  0  0  0  0
  -16.5372  -29.9101   23.6313 C   0  0  0  0  0  0
  -16.7288  -28.6509   23.0343 C   0  0  0  0  0  0
  -26.4512  -31.6579   25.0705 C   0  0  0  0  0  0
  -25.3781  -31.3709   26.1465 C   0  0  0  0  0  0
  -27.0346  -30.3008   24.6110 C   0  0  0  0  0  0
  -27.6069  -32.4304   25.7480 C   0  0  0  0  0  0
  -27.5587  -37.1809   24.8463 C   0  0  0  0  0  0
  -21.4151  -29.3082   22.3700 N   0  0  0  0  0  0
  -26.4305  -37.3776   23.9409 N   0  0  0  0  0  0
  -24.6771  -31.0691   22.0977 N   0  0  0  0  0  0
  -23.4205  -28.8158   23.2934 O   0  0  0  0  0  0
  -28.3954  -26.5894   20.1537 O   0  0  0  0  0  0
  -26.5572  -34.8907   22.4646 O   0  0  0  0  0  0
  -23.5382  -32.1400   23.7430 O   0  0  0  0  0  0
  -31.5693  -19.0539   20.0487 C   0  0  0  0  0  0
  -30.5826  -19.9721   20.4658 C   0  0  0  0  0  0
  -31.3831  -17.6588   20.1792 C   0  0  0  0  0  0
  -29.1993  -18.0703   21.1270 C   0  0  0  0  0  0
  -29.3826  -19.4933   21.0229 C   0  0  0  0  0  0
  -30.1867  -17.1204   20.7215 C   0  0  0  0  0  0
  -28.3507  -20.4109   21.5925 C   0  0  0  0  0  0
  -28.3543  -24.0438   20.5542 C   0  0  0  0  0  0
  -25.8104  -22.4120   20.0041 C   0  0  0  0  0  0
  -27.0201  -22.4391   19.0564 C   0  0  0  0  0  0
  -26.3502  -21.8085   21.3157 C   0  0  0  0  0  0
  -28.2197  -22.5425   20.0082 C   0  0  2  0  0  0
  -28.4847  -25.2507   19.5538 C   0  0  0  0  0  0
  -27.7952  -21.5603   21.0678 N   0  0  0  0  0  0
  -29.9296  -15.6854   20.8711 N   0  0  0  0  0  0
  -27.8785  -20.0256   22.7807 N   0  3  0  0  0  0
  -28.3566  -24.2779   21.7676 O   0  0  0  0  0  0
  -31.4647  -12.4625   19.1414 H   0  0  0  0  0  0
  -30.3294  -11.3792   19.8985 H   0  0  0  0  0  0
  -29.7464  -11.7313   17.4836 H   0  0  0  0  0  0
  -29.6512  -13.4564   17.7288 H   0  0  0  0  0  0
  -27.8491  -11.2968   18.8579 H   0  0  0  0  0  0
  -27.3645  -12.5834   17.7933 H   0  0  0  0  0  0
  -27.6690  -14.2561   19.5133 H   0  0  0  0  0  0
  -28.6983  -12.0801   21.4053 H   0  0  0  0  0  0
  -28.4461  -13.7537   21.8208 H   0  0  0  0  0  0
  -25.2748   -9.5732   22.4759 H   0  0  0  0  0  0
  -24.0000   -7.4676   22.7470 H   0  0  0  0  0  0
  -21.0820   -8.8772   19.8968 H   0  0  0  0  0  0
  -22.3657  -10.9681   19.6139 H   0  0  0  0  0  0
  -21.1999   -7.6135   23.9709 H   0  0  0  0  0  0
  -21.1474   -6.0501   25.9071 H   0  0  0  0  0  0
  -22.0603   -2.7599   23.2830 H   0  0  0  0  0  0
  -22.4058  -11.9972   22.4813 H   0  0  0  0  0  0
  -21.1063  -13.1321   22.2518 H   0  0  0  0  0  0
  -24.6532  -15.8430   20.5331 H   0  0  0  0  0  0
  -26.2519  -15.6355   20.0302 H   0  0  0  0  0  0
  -26.7136  -32.5482   23.1097 H   0  0  0  0  0  0
  -25.0220  -33.9734   25.0542 H   0  0  0  0  0  0
  -22.7014  -31.3082   21.4054 H   0  0  0  0  0  0
  -23.3746  -35.9639   23.3291 H   0  0  0  0  0  0
  -24.3600  -36.8911   22.2051 H   0  0  0  0  0  0
  -23.7249  -37.6506   23.6647 H   0  0  0  0  0  0
  -26.0681  -31.5748   20.6032 H   0  0  0  0  0  0
  -26.8280  -30.8566   21.9933 H   0  0  0  0  0  0
  -28.1018  -29.0335   21.1742 H   0  0  0  0  0  0
  -25.9748  -25.9267   19.0359 H   0  0  0  0  0  0
  -23.9658  -27.2858   19.0454 H   0  0  0  0  0  0
  -23.7490  -30.6019   19.4025 H   0  0  0  0  0  0
  -22.7424  -29.2605   19.8530 H   0  0  0  0  0  0
  -25.1297  -36.1937   25.0821 H   0  0  0  0  0  0
  -20.9958  -28.3316   24.1419 H   0  0  0  0  0  0
  -20.5729  -26.2292   23.3634 H   0  0  0  0  0  0
  -21.6670  -26.7456   22.1215 H   0  0  0  0  0  0
  -19.6928  -25.6211   21.1347 H   0  0  0  0  0  0
  -19.6740  -27.3086   20.6721 H   0  0  0  0  0  0
  -17.4240  -26.6729   21.3982 H   0  0  0  0  0  0
  -18.0291  -26.0025   22.8960 H   0  0  0  0  0  0
  -19.7940  -30.7252   24.2301 H   0  0  0  0  0  0
  -17.5054  -31.6286   24.5142 H   0  0  0  0  0  0
  -15.5376  -30.3031   23.7620 H   0  0  0  0  0  0
  -15.8688  -28.0840   22.7035 H   0  0  0  0  0  0
  -24.5940  -30.7073   25.7838 H   0  0  0  0  0  0
  -24.9020  -32.2883   26.4929 H   0  0  0  0  0  0
  -25.8153  -30.8887   27.0216 H   0  0  0  0  0  0
  -26.2902  -29.6752   24.1186 H   0  0  0  0  0  0
  -27.4137  -29.7278   25.4585 H   0  0  0  0  0  0
  -27.8727  -30.4330   23.9260 H   0  0  0  0  0  0
  -27.2669  -33.3581   26.2098 H   0  0  0  0  0  0
  -28.3871  -32.6890   25.0307 H   0  0  0  0  0  0
  -28.0748  -31.8402   26.5378 H   0  0  0  0  0  0
  -28.2601  -38.0114   24.7510 H   0  0  0  0  0  0
  -28.1081  -36.2636   24.6280 H   0  0  0  0  0  0
  -27.2303  -37.1455   25.8869 H   0  0  0  0  0  0
  -20.9286  -29.8957   21.7064 H   0  0  0  0  0  0
  -26.0170  -38.2848   24.1405 H   0  0  0  0  0  0
  -32.4976  -19.4239   19.6362 H   0  0  0  0  0  0
  -30.7724  -21.0345   20.3915 H   0  0  0  0  0  0
  -32.1927  -17.0270   19.8499 H   0  0  0  0  0  0
  -28.2746  -17.6982   21.5461 H   0  0  0  0  0  0
  -24.9901  -21.8276   19.5875 H   0  0  0  0  0  0
  -25.4334  -23.4173   20.1905 H   0  0  0  0  0  0
  -26.9478  -23.2372   18.3184 H   0  0  0  0  0  0
  -27.0834  -21.5026   18.4987 H   0  0  0  0  0  0
  -25.8033  -20.8845   21.5193 H   0  0  0  0  0  0
  -26.1985  -22.4732   22.1668 H   0  0  0  0  0  0
  -29.1378  -22.2412   19.5066 H   0  0  0  0  0  0
  -27.8160  -25.1410   18.7052 H   0  0  0  0  0  0
  -29.4858  -25.1705   19.1309 H   0  0  0  0  0  0
  -29.0096  -15.4446   21.2045 H   0  0  0  0  0  0
  -28.3301  -19.2553   23.2453 H   0  0  0  0  0  0
  -27.3098  -20.6441   23.3317 H   0  0  0  0  0  0
  1 25  1  0  0  0
  1 30  2  0  0  0
  1 85  1  0  0  0
  2  3  1  0  0  0
  2 25  1  0  0  0
  2 88  1  0  0  0
  2 89  1  0  0  0
  3  4  1  0  0  0
  3 90  1  0  0  0
  3 91  1  0  0  0
  4  5  1  0  0  0
  4 92  1  0  0  0
  4 93  1  0  0  0
  5  6  1  0  0  0
  5 26  1  0  0  0
  5 94  1  0  0  0
  6 25  1  0  0  0
  6 95  1  0  0  0
  6 96  1  0  0  0
  7  8  2  0  0  0
  7 26  1  0  0  0
  7 29  1  0  0  0
  8  9  1  0  0  0
  8 22  1  0  0  0
  9 10  1  0  0  0
  9 27  2  0  0  0
 10 11  2  0  0  0
 10 15  1  0  0  0
 11 12  1  0  0  0
 11 97  1  0  0  0
 12 13  2  0  0  0
 12 98  1  0  0  0
 13 14  1  0  0  0
 13 31  1  0  0  0
 14 15  2  0  0  0
 14 99  1  0  0  0
 15100  1  0  0  0
 16 17  2  0  0  0
 16 21  1  0  0  0
 16 31  1  0  0  0
 17 18  1  0  0  0
 17101  1  0  0  0
 18 19  2  0  0  0
 18102  1  0  0  0
 19 20  1  0  0  0
 19 24  1  0  0  0
 20 21  2  0  0  0
 20103  1  0  0  0
 21 23  1  0  0  0
 22 28  1  0  0  0
 22 32  2  0  0  0
 26 27  1  0  0  0
 28104  1  0  0  0
 28105  1  0  0  0
 29106  1  0  0  0
 29107  1  0  0  0
 33 34  1  0  0  0
 33 66  1  0  0  0
 33 70  2  0  0  0
 34 36  1  0  0  0
 34 59  1  0  0  0
 34108  1  0  0  0
 35 44  2  0  0  0
 35 45  1  0  0  0
 35 68  1  0  0  0
 36 56  1  0  0  0
 36109  1  0  0  0
 37 39  1  0  0  0
 37 47  1  0  0  0
 37 66  1  0  0  0
 37110  1  0  0  0
 38 43  2  0  0  0
 38 46  1  0  0  0
 38 47  1  0  0  0
 39 64  1  0  0  0
 39 67  2  0  0  0
 40 52  1  0  0  0
 40 53  2  0  0  0
 40 58  1  0  0  0
 41111  1  0  0  0
 41112  1  0  0  0
 41113  1  0  0  0
 41 48  1  0  0  0
 42 43  1  0  0  0
 42 66  1  0  0  0
 42114  1  0  0  0
 42115  1  0  0  0
 43 44  1  0  0  0
 44116  1  0  0  0
 45 46  2  0  0  0
 45117  1  0  0  0
 46118  1  0  0  0
 47119  1  0  0  0
 47120  1  0  0  0
 48 56  1  0  0  0
 48 65  1  0  0  0
 48121  1  0  0  0
 49 50  1  0  0  0
 49 53  1  0  0  0
 49 64  1  0  0  0
 49122  1  0  0  0
 50 51  1  0  0  0
 50123  1  0  0  0
 50124  1  0  0  0
 51 52  1  0  0  0
 51125  1  0  0  0
 51126  1  0  0  0
 52127  1  0  0  0
 52128  1  0  0  0
 53 54  1  0  0  0
 54 55  2  0  0  0
 54129  1  0  0  0
 55 57  1  0  0  0
 55130  1  0  0  0
 56 69  2  0  0  0
 57 58  2  0  0  0
 57131  1  0  0  0
 58132  1  0  0  0
 59 60  1  0  0  0
 59 61  1  0  0  0
 59 62  1  0  0  0
 60133  1  0  0  0
 60134  1  0  0  0
 60135  1  0  0  0
 61136  1  0  0  0
 61137  1  0  0  0
 61138  1  0  0  0
 62139  1  0  0  0
 62140  1  0  0  0
 62141  1  0  0  0
 63 65  1  0  0  0
 63142  1  0  0  0
 63143  1  0  0  0
 63144  1  0  0  0
 64145  1  0  0  0
 65146  1  0  0  0
 68 83  1  0  0  0
 71 72  2  0  0  0
 71 73  1  0  0  0
 71147  1  0  0  0
 72 75  1  0  0  0
 72148  1  0  0  0
 73 76  2  0  0  0
 73149  1  0  0  0
 74 75  2  0  0  0
 74 76  1  0  0  0
 74150  1  0  0  0
 75 77  1  0  0  0
 76 85  1  0  0  0
 77 84  1  0  0  0
 77 86  2  0  0  0
 78 83  1  0  0  0
 78 87  2  0  0  0
 78 82  1  0  0  0
 79 80  1  0  0  0
 79 81  1  0  0  0
 79151  1  0  0  0
 79152  1  0  0  0
 80 82  1  0  0  0
 80153  1  0  0  0
 80154  1  0  0  0
 81 84  1  0  0  0
 81155  1  0  0  0
 81156  1  0  0  0
 82 84  1  0  0  0
 82157  1  0  0  0
 83158  1  0  0  0
 83159  1  0  0  0
 85160  1  0  0  0
 86161  1  0  0  0
 86162  1  0  0  0
M  CHG  1  86   1
M  ISO  4   1 100  68 101  83 101  85 100
M  END
> <chiral flag>
0

> <version>
0

> <s_m_source_file>
/data/baiqing/PycharmProjects/Reinvent-master-3.2/result/LINK_invent/BTK/process_docking_weight1_custom_product_contain_oxygen_bond_distance_aromatic_linkinvent_7_9_3/rearranged_h_0148.sdf

> <i_m_source_file_index>
57

> <r_mmod_Potential_Energy-OPLS-2005>
-16.2948951721191

> <r_mmod_Stretch_Energy-OPLS-2005>
73.4437561035156

> <r_mmod_Bend_Energy-OPLS-2005>
189.94694519043

> <r_mmod_Torsional_Energy-OPLS-2005>
293.770812988281

> <r_mmod_Improper_Torsional_Energy-OPLS-2005>
5.87732744216919

> <r_mmod_Van_der_Waal_Energy-OPLS-2005>
156.106948852539

> <r_mmod_Electrostatic_Energy-OPLS-2005>
-339.557434082031

> <r_mmod_Solvation_Energy-OPLS-2005>
-429.717895507812

> <b_mmod_Minimization_Converged-OPLS-2005>
0

> <r_mmod_RMS_Derivative-OPLS-2005>
3.16217470169067

$$$$
57
                    3D
 Structure written by MMmdl.
156164  0  0  1  0            999 V2000
  -30.6583  -14.4804   20.6020 C   0  0  0  0  0  0
  -30.4370  -12.3169   19.4147 C   0  0  0  0  0  0
  -29.4977  -12.5100   18.2043 C   0  0  0  0  0  0
  -28.0178  -12.3652   18.6153 C   0  0  0  0  0  0
  -27.6657  -13.1954   19.8779 C   0  0  2  0  0  0
  -28.7034  -12.9380   20.9929 C   0  0  0  0  0  0
  -25.2613  -13.8135   20.5673 C   0  0  0  0  0  0
  -24.1844  -13.0431   20.9159 C   0  0  0  0  0  0
  -24.6379  -11.6893   20.8712 C   0  0  0  0  0  0
  -23.9033  -10.4290   21.0386 C   0  0  0  0  0  0
  -24.3599   -9.4217   21.9173 C   0  0  0  0  0  0
  -23.6285   -8.2249   22.0756 C   0  0  0  0  0  0
  -22.4272   -8.0276   21.3541 C   0  0  0  0  0  0
  -21.9890   -9.0241   20.4642 C   0  0  0  0  0  0
  -22.7202  -10.2129   20.3041 C   0  0  0  0  0  0
  -21.6849   -6.0727   22.5277 C   0  0  0  0  0  0
  -21.4017   -6.5630   23.8209 C   0  0  0  0  0  0
  -21.3663   -5.6785   24.9172 C   0  0  0  0  0  0
  -21.6043   -4.3048   24.7222 C   0  0  0  0  0  0
  -21.8819   -3.8140   23.4339 C   0  0  0  0  0  0
  -21.9195   -4.6956   22.3398 C   0  0  0  0  0  0
  -22.7878  -13.5248   21.1831 C   0  0  0  0  0  0
  -22.1661   -4.2136   21.0978 F   0  0  0  0  0  0
  -21.5629   -3.4533   25.7734 F   0  0  0  0  0  0
  -30.0401  -13.2734   20.4609 N   0  0  0  0  0  0
  -26.3036  -12.9284   20.3358 N   0  0  0  0  0  0
  -25.9304  -11.6456   20.5752 N   0  0  0  0  0  0
  -22.0506  -12.8264   22.0403 N   0  0  0  0  0  0
  -25.4376  -15.1853   20.4125 N   0  0  0  0  0  0
  -31.7298  -14.7607   20.0547 O   0  0  0  0  0  0
  -21.6637   -6.8871   21.4241 O   0  0  0  0  0  0
  -22.3569  -14.5545   20.6658 O   0  0  0  0  0  0
  -24.6169  -31.8650   23.2074 C   0  0  0  0  0  0
  -25.9065  -32.4794   23.8358 C   0  0  1  0  0  0
  -27.2412  -27.4155   20.0841 C   0  0  0  0  0  0
  -25.5929  -33.8597   24.2295 N   0  0  0  0  0  0
  -23.4032  -30.4871   21.5492 C   0  0  2  0  0  0
  -24.8477  -28.9460   20.1138 C   0  0  0  0  0  0
  -22.7403  -29.4648   22.5003 C   0  0  0  0  0  0
  -18.0269  -28.1370   22.8483 C   0  0  0  0  0  0
  -24.1498  -36.7291   23.2633 C   0  0  0  0  0  0
  -25.9331  -30.8221   21.3633 C   0  0  0  0  0  0
  -26.0081  -29.4562   20.7072 C   0  0  0  0  0  0
  -27.2006  -28.6953   20.6914 C   0  0  0  0  0  0
  -26.0526  -26.9151   19.5022 C   0  0  0  0  0  0
  -24.8655  -27.6744   19.5136 C   0  0  0  0  0  0
  -23.6085  -29.8122   20.1657 C   0  0  0  0  0  0
  -25.4120  -36.3083   24.0329 C   0  0  1  0  0  0
  -20.5859  -28.3659   23.1316 C   0  0  2  0  0  0
  -20.6772  -26.9402   22.5411 C   0  0  0  0  0  0
  -19.5755  -26.6384   21.5200 C   0  0  0  0  0  0
  -18.1929  -26.7922   22.1606 C   0  0  0  0  0  0
  -19.1516  -28.8831   23.2895 C   0  0  0  0  0  0
  -18.9441  -30.1432   23.8912 C   0  0  0  0  0  0
  -17.6444  -30.6569   24.0554 C   0  0  0  0  0  0
  -25.9052  -34.9455   23.5100 C   0  0  0  0  0  0
  -16.5338  -29.9066   23.6316 C   0  0  0  0  0  0
  -16.7259  -28.6483   23.0340 C   0  0  0  0  0  0
  -26.4496  -31.6588   25.0698 C   0  0  0  0  0  0
  -25.3763  -31.3688   26.1443 C   0  0  0  0  0  0
  -27.0336  -30.3026   24.6102 C   0  0  0  0  0  0
  -27.6067  -32.4313   25.7466 C   0  0  0  0  0  0
  -27.5586  -37.1784   24.8458 C   0  0  0  0  0  0
  -21.4127  -29.3032   22.3736 N   0  0  0  0  0  0
  -26.4308  -37.3779   23.9403 N   0  0  0  0  0  0
  -24.6690  -31.0733   22.0977 N   0  0  0  0  0  0
  -23.4173  -28.8204   23.3056 O   0  0  0  0  0  0
  -28.4388  -26.7191   20.1101 O   0  0  0  0  0  0
  -26.5596  -34.8911   22.4649 O   0  0  0  0  0  0
  -23.5365  -32.1407   23.7473 O   0  0  0  0  0  0
  -28.9568  -17.3907   22.1458 C   0  0  0  0  0  0
  -29.7602  -16.6847   21.2769 C   0  0  0  0  0  0
  -29.3948  -19.1073   20.7152 C   0  0  0  0  0  0
  -28.8673  -22.8427   19.6807 C   0  0  0  0  0  0
  -26.9961  -21.2877   20.3356 C   0  0  0  0  0  0
  -30.0928  -25.7157   18.8163 C   0  0  0  0  0  0
  -28.5005  -24.2386   20.2629 C   0  0  0  0  0  0
  -28.4963  -21.5825   20.5165 C   0  0  1  0  0  0
  -28.6671  -25.5075   19.3564 C   0  0  1  0  0  0
  -28.7565  -18.7393   21.8239 N   0  0  0  0  0  0
  -29.9928  -15.3408   21.3969 N   0  0  0  0  0  0
  -29.2979  -20.3942   20.1710 N   0  0  0  0  0  0
  -29.4162  -22.7272   18.5812 O   0  0  0  0  0  0
  -30.3260  -17.7714   20.0011 S   0  0  0  0  0  0
  -31.4771  -12.4470   19.1115 H   0  0  0  0  0  0
  -30.3655  -11.2962   19.7948 H   0  0  0  0  0  0
  -29.7397  -11.7845   17.4254 H   0  0  0  0  0  0
  -29.6608  -13.4951   17.7650 H   0  0  0  0  0  0
  -27.8266  -11.3076   18.8053 H   0  0  0  0  0  0
  -27.3655  -12.6429   17.7871 H   0  0  0  0  0  0
  -27.7217  -14.2485   19.6012 H   0  0  0  0  0  0
  -28.6848  -11.8870   21.2825 H   0  0  0  0  0  0
  -28.4396  -13.4817   21.9004 H   0  0  0  0  0  0
  -25.2741   -9.5702   22.4743 H   0  0  0  0  0  0
  -23.9990   -7.4644   22.7478 H   0  0  0  0  0  0
  -21.0816   -8.8747   19.8951 H   0  0  0  0  0  0
  -22.3644  -10.9667   19.6150 H   0  0  0  0  0  0
  -21.2016   -7.6141   23.9711 H   0  0  0  0  0  0
  -21.1483   -6.0514   25.9072 H   0  0  0  0  0  0
  -22.0604   -2.7603   23.2840 H   0  0  0  0  0  0
  -22.4096  -11.9913   22.4781 H   0  0  0  0  0  0
  -21.1123  -13.1292   22.2587 H   0  0  0  0  0  0
  -24.6786  -15.8464   20.5346 H   0  0  0  0  0  0
  -26.2949  -15.6245   20.1017 H   0  0  0  0  0  0
  -26.7135  -32.5493   23.1114 H   0  0  0  0  0  0
  -25.0143  -33.9753   25.0483 H   0  0  0  0  0  0
  -22.6926  -31.3026   21.4078 H   0  0  0  0  0  0
  -23.3771  -35.9609   23.3290 H   0  0  0  0  0  0
  -24.3591  -36.8915   22.2051 H   0  0  0  0  0  0
  -23.7245  -37.6488   23.6655 H   0  0  0  0  0  0
  -26.0542  -31.5930   20.6001 H   0  0  0  0  0  0
  -26.8183  -30.8680   21.9862 H   0  0  0  0  0  0
  -28.0980  -29.0909   21.1452 H   0  0  0  0  0  0
  -26.0151  -25.9359   19.0522 H   0  0  0  0  0  0
  -23.9683  -27.2702   19.0655 H   0  0  0  0  0  0
  -23.7092  -30.5817   19.4000 H   0  0  0  0  0  0
  -22.7335  -29.2244   19.8807 H   0  0  0  0  0  0
  -25.1310  -36.1940   25.0829 H   0  0  0  0  0  0
  -20.9938  -28.3214   24.1440 H   0  0  0  0  0  0
  -20.5674  -26.2262   23.3585 H   0  0  0  0  0  0
  -21.6641  -26.7459   22.1198 H   0  0  0  0  0  0
  -19.6916  -25.6294   21.1219 H   0  0  0  0  0  0
  -19.6704  -27.3205   20.6741 H   0  0  0  0  0  0
  -17.4204  -26.6649   21.4011 H   0  0  0  0  0  0
  -18.0344  -26.0068   22.9016 H   0  0  0  0  0  0
  -19.7922  -30.7236   24.2303 H   0  0  0  0  0  0
  -17.4991  -31.6256   24.5143 H   0  0  0  0  0  0
  -15.5330  -30.2958   23.7637 H   0  0  0  0  0  0
  -15.8661  -28.0792   22.7058 H   0  0  0  0  0  0
  -24.5958  -30.7020   25.7765 H   0  0  0  0  0  0
  -24.8945  -32.2845   26.4875 H   0  0  0  0  0  0
  -25.8129  -30.8864   27.0193 H   0  0  0  0  0  0
  -26.2883  -29.6751   24.1217 H   0  0  0  0  0  0
  -27.4163  -29.7304   25.4557 H   0  0  0  0  0  0
  -27.8682  -30.4332   23.9211 H   0  0  0  0  0  0
  -27.2696  -33.3619   26.2032 H   0  0  0  0  0  0
  -28.3881  -32.6868   25.0297 H   0  0  0  0  0  0
  -28.0721  -31.8451   26.5384 H   0  0  0  0  0  0
  -28.2596  -38.0094   24.7536 H   0  0  0  0  0  0
  -28.1101  -36.2634   24.6267 H   0  0  0  0  0  0
  -27.2292  -37.1397   25.8855 H   0  0  0  0  0  0
  -20.9285  -29.8741   21.6953 H   0  0  0  0  0  0
  -26.0190  -38.2850   24.1418 H   0  0  0  0  0  0
  -28.4538  -16.9992   23.0193 H   0  0  0  0  0  0
  -26.3822  -22.1478   20.6054 H   0  0  0  0  0  0
  -26.6705  -20.4588   20.9656 H   0  0  0  0  0  0
  -26.7626  -21.0282   19.3022 H   0  0  0  0  0  0
  -30.3681  -24.9718   18.0707 H   0  0  0  0  0  0
  -30.8328  -25.6812   19.6175 H   0  0  0  0  0  0
  -30.1811  -26.6870   18.3291 H   0  0  0  0  0  0
  -29.1008  -24.3734   21.1623 H   0  0  0  0  0  0
  -27.4657  -24.1880   20.6007 H   0  0  0  0  0  0
  -28.6823  -21.8045   21.5687 H   0  0  0  0  0  0
  -28.0105  -25.4394   18.4901 H   0  0  0  0  0  0
  -29.3263  -14.8637   21.9861 H   0  0  0  0  0  0
  -29.8795  -20.5514   19.3508 H   0  0  0  0  0  0
  1 25  1  0  0  0
  1 30  2  0  0  0
  1 81  1  0  0  0
  2  3  1  0  0  0
  2 25  1  0  0  0
  2 85  1  0  0  0
  2 86  1  0  0  0
  3  4  1  0  0  0
  3 87  1  0  0  0
  3 88  1  0  0  0
  4  5  1  0  0  0
  4 89  1  0  0  0
  4 90  1  0  0  0
  5  6  1  0  0  0
  5 26  1  0  0  0
  5 91  1  0  0  0
  6 25  1  0  0  0
  6 92  1  0  0  0
  6 93  1  0  0  0
  7  8  2  0  0  0
  7 26  1  0  0  0
  7 29  1  0  0  0
  8  9  1  0  0  0
  8 22  1  0  0  0
  9 10  1  0  0  0
  9 27  2  0  0  0
 10 11  2  0  0  0
 10 15  1  0  0  0
 11 12  1  0  0  0
 11 94  1  0  0  0
 12 13  2  0  0  0
 12 95  1  0  0  0
 13 14  1  0  0  0
 13 31  1  0  0  0
 14 15  2  0  0  0
 14 96  1  0  0  0
 15 97  1  0  0  0
 16 17  2  0  0  0
 16 21  1  0  0  0
 16 31  1  0  0  0
 17 18  1  0  0  0
 17 98  1  0  0  0
 18 19  2  0  0  0
 18 99  1  0  0  0
 19 20  1  0  0  0
 19 24  1  0  0  0
 20 21  2  0  0  0
 20100  1  0  0  0
 21 23  1  0  0  0
 22 28  1  0  0  0
 22 32  2  0  0  0
 26 27  1  0  0  0
 28101  1  0  0  0
 28102  1  0  0  0
 29103  1  0  0  0
 29104  1  0  0  0
 33 34  1  0  0  0
 33 66  1  0  0  0
 33 70  2  0  0  0
 34 36  1  0  0  0
 34 59  1  0  0  0
 34105  1  0  0  0
 35 44  2  0  0  0
 35 45  1  0  0  0
 35 68  1  0  0  0
 36 56  1  0  0  0
 36106  1  0  0  0
 37 39  1  0  0  0
 37 47  1  0  0  0
 37 66  1  0  0  0
 37107  1  0  0  0
 38 43  2  0  0  0
 38 46  1  0  0  0
 38 47  1  0  0  0
 39 64  1  0  0  0
 39 67  2  0  0  0
 40 52  1  0  0  0
 40 53  2  0  0  0
 40 58  1  0  0  0
 41108  1  0  0  0
 41109  1  0  0  0
 41110  1  0  0  0
 41 48  1  0  0  0
 42 43  1  0  0  0
 42 66  1  0  0  0
 42111  1  0  0  0
 42112  1  0  0  0
 43 44  1  0  0  0
 44113  1  0  0  0
 45 46  2  0  0  0
 45114  1  0  0  0
 46115  1  0  0  0
 47116  1  0  0  0
 47117  1  0  0  0
 48 56  1  0  0  0
 48 65  1  0  0  0
 48118  1  0  0  0
 49 50  1  0  0  0
 49 53  1  0  0  0
 49 64  1  0  0  0
 49119  1  0  0  0
 50 51  1  0  0  0
 50120  1  0  0  0
 50121  1  0  0  0
 51 52  1  0  0  0
 51122  1  0  0  0
 51123  1  0  0  0
 52124  1  0  0  0
 52125  1  0  0  0
 53 54  1  0  0  0
 54 55  2  0  0  0
 54126  1  0  0  0
 55 57  1  0  0  0
 55127  1  0  0  0
 56 69  2  0  0  0
 57 58  2  0  0  0
 57128  1  0  0  0
 58129  1  0  0  0
 59 60  1  0  0  0
 59 61  1  0  0  0
 59 62  1  0  0  0
 60130  1  0  0  0
 60131  1  0  0  0
 60132  1  0  0  0
 61133  1  0  0  0
 61134  1  0  0  0
 61135  1  0  0  0
 62136  1  0  0  0
 62137  1  0  0  0
 62138  1  0  0  0
 63 65  1  0  0  0
 63139  1  0  0  0
 63140  1  0  0  0
 63141  1  0  0  0
 64142  1  0  0  0
 65143  1  0  0  0
 68 79  1  0  0  0
 71 72  2  0  0  0
 71 80  1  0  0  0
 71144  1  0  0  0
 72 81  1  0  0  0
 72 84  1  0  0  0
 73 80  2  0  0  0
 73 82  1  0  0  0
 73 84  1  0  0  0
 74 77  1  0  0  0
 74 78  1  0  0  0
 74 83  2  0  0  0
 75145  1  0  0  0
 75146  1  0  0  0
 75147  1  0  0  0
 75 78  1  0  0  0
 76148  1  0  0  0
 76149  1  0  0  0
 76150  1  0  0  0
 76 79  1  0  0  0
 77 79  1  0  0  0
 77151  1  0  0  0
 77152  1  0  0  0
 78 82  1  0  0  0
 78153  1  0  0  0
 79154  1  0  0  0
 81155  1  0  0  0
 82156  1  0  0  0
M  ISO  4   1 100  68 101  79 101  81 100
M  END
> <chiral flag>
0

> <version>
0

> <s_m_source_file>
/data/baiqing/PycharmProjects/Reinvent-master-3.2/result/LINK_invent/BTK/process_docking_weight1_custom_product_contain_oxygen_bond_distance_aromatic_linkinvent_7_9_3/rearranged_h_0148.sdf

> <i_m_source_file_index>
58

> <r_mmod_Potential_Energy-OPLS-2005>
-158.965057373047

> <r_mmod_Stretch_Energy-OPLS-2005>
41.9733428955078

> <r_mmod_Bend_Energy-OPLS-2005>
127.243171691895

> <r_mmod_Torsional_Energy-OPLS-2005>
184.709487915039

> <r_mmod_Improper_Torsional_Energy-OPLS-2005>
3.46650624275208

> <r_mmod_Van_der_Waal_Energy-OPLS-2005>
125.645782470703

> <r_mmod_Electrostatic_Energy-OPLS-2005>
-426.117431640625

> <r_mmod_Solvation_Energy-OPLS-2005>
-230.569046020508

> <b_mmod_Minimization_Converged-OPLS-2005>
0

> <r_mmod_RMS_Derivative-OPLS-2005>
2.15040469169617

$$$$
58
                    3D
 Structure written by MMmdl.
160169  0  0  1  0            999 V2000
  -30.6806  -14.7052   20.4824 C   0  0  0  0  0  0
  -30.4493  -12.4502   19.4368 C   0  0  0  0  0  0
  -29.5119  -12.5395   18.2111 C   0  0  0  0  0  0
  -28.0361  -12.3815   18.6271 C   0  0  0  0  0  0
  -27.6612  -13.2417   19.8571 C   0  0  2  0  0  0
  -28.7222  -13.1527   20.9807 C   0  0  0  0  0  0
  -25.2553  -13.8211   20.5641 C   0  0  0  0  0  0
  -24.1882  -13.0457   20.9129 C   0  0  0  0  0  0
  -24.6474  -11.6930   20.8706 C   0  0  0  0  0  0
  -23.9139  -10.4289   21.0324 C   0  0  0  0  0  0
  -24.3661   -9.4203   21.9093 C   0  0  0  0  0  0
  -23.6353   -8.2232   22.0726 C   0  0  0  0  0  0
  -22.4335   -8.0249   21.3529 C   0  0  0  0  0  0
  -21.9915   -9.0248   20.4667 C   0  0  0  0  0  0
  -22.7241  -10.2142   20.3037 C   0  0  0  0  0  0
  -21.6885   -6.0703   22.5260 C   0  0  0  0  0  0
  -21.4003   -6.5625   23.8169 C   0  0  0  0  0  0
  -21.3674   -5.6781   24.9144 C   0  0  0  0  0  0
  -21.6067   -4.3044   24.7205 C   0  0  0  0  0  0
  -21.8825   -3.8107   23.4311 C   0  0  0  0  0  0
  -21.9197   -4.6918   22.3368 C   0  0  0  0  0  0
  -22.7847  -13.5171   21.1823 C   0  0  0  0  0  0
  -22.1659   -4.2067   21.0948 F   0  0  0  0  0  0
  -21.5684   -3.4556   25.7727 F   0  0  0  0  0  0
  -30.0291  -13.4917   20.3950 N   0  0  0  0  0  0
  -26.3087  -12.9468   20.3310 N   0  0  0  0  0  0
  -25.9443  -11.6614   20.5768 N   0  0  0  0  0  0
  -22.0533  -12.8223   22.0427 N   0  0  0  0  0  0
  -25.4240  -15.1948   20.4086 N   0  0  0  0  0  0
  -31.8474  -14.8195   20.1010 O   0  0  0  0  0  0
  -21.6685   -6.8847   21.4229 O   0  0  0  0  0  0
  -22.3467  -14.5410   20.6580 O   0  0  0  0  0  0
  -24.6279  -31.8557   23.1949 C   0  0  0  0  0  0
  -25.9090  -32.4751   23.8359 C   0  0  1  0  0  0
  -27.2313  -27.2381   20.1763 C   0  0  0  0  0  0
  -25.5891  -33.8555   24.2281 N   0  0  0  0  0  0
  -23.4305  -30.4732   21.5289 C   0  0  2  0  0  0
  -24.8872  -28.9022   20.1102 C   0  0  0  0  0  0
  -22.7495  -29.4611   22.4844 C   0  0  0  0  0  0
  -18.0281  -28.1405   22.8480 C   0  0  0  0  0  0
  -24.1458  -36.7268   23.2661 C   0  0  0  0  0  0
  -25.9761  -30.7612   21.3824 C   0  0  0  0  0  0
  -26.0503  -29.3778   20.7279 C   0  0  0  0  0  0
  -27.2162  -28.5497   20.7628 C   0  0  0  0  0  0
  -26.0553  -26.8252   19.5242 C   0  0  0  0  0  0
  -24.8927  -27.6286   19.5099 C   0  0  0  0  0  0
  -23.6605  -29.7970   20.1472 C   0  0  0  0  0  0
  -25.4091  -36.3075   24.0364 C   0  0  1  0  0  0
  -20.5884  -28.3701   23.1306 C   0  0  2  0  0  0
  -20.6729  -26.9401   22.5473 C   0  0  0  0  0  0
  -19.5754  -26.6366   21.5219 C   0  0  0  0  0  0
  -18.1912  -26.7978   22.1581 C   0  0  0  0  0  0
  -19.1539  -28.8872   23.2899 C   0  0  0  0  0  0
  -18.9452  -30.1441   23.8949 C   0  0  0  0  0  0
  -17.6460  -30.6602   24.0572 C   0  0  0  0  0  0
  -25.9045  -34.9441   23.5132 C   0  0  0  0  0  0
  -16.5349  -29.9117   23.6289 C   0  0  0  0  0  0
  -16.7271  -28.6530   23.0336 C   0  0  0  0  0  0
  -26.4468  -31.6628   25.0771 C   0  0  0  0  0  0
  -25.3743  -31.3810   26.1554 C   0  0  0  0  0  0
  -27.0272  -30.3020   24.6306 C   0  0  0  0  0  0
  -27.6065  -32.4395   25.7444 C   0  0  0  0  0  0
  -27.5591  -37.1760   24.8464 C   0  0  0  0  0  0
  -21.4190  -29.3054   22.3656 N   0  0  0  0  0  0
  -26.4269  -37.3776   23.9448 N   0  0  0  0  0  0
  -24.6945  -31.0528   22.0892 N   0  0  0  0  0  0
  -23.4224  -28.8189   23.2940 O   0  0  0  0  0  0
  -28.3268  -26.3558   20.3271 O   0  0  0  0  0  0
  -26.5630  -34.8918   22.4692 O   0  0  0  0  0  0
  -23.5436  -32.1394   23.7227 O   0  0  0  0  0  0
  -29.1488  -18.2268   20.4308 C   0  0  0  0  0  0
  -31.3555  -17.8955   21.0944 C   0  0  0  0  0  0
  -30.1818  -17.2552   20.7571 C   0  0  0  0  0  0
  -29.5025  -19.5764   20.5360 C   0  0  0  0  0  0
  -26.7737  -23.0120   19.4079 C   0  0  0  0  0  0
  -29.1200  -22.3239   20.1176 C   0  0  0  0  0  0
  -26.3567  -21.5170   19.6231 C   0  0  0  0  0  0
  -28.5815  -20.8385   20.3969 C   0  0  1  0  0  0
  -28.0203  -23.5072   20.2216 C   0  0  1  0  0  0
  -27.9333  -20.3765   18.0300 C   0  0  0  0  0  0
  -28.4882  -24.9891   19.7101 C   0  0  0  0  0  0
  -29.9265  -15.8031   20.8251 N   0  0  0  0  0  0
  -27.4847  -20.5662   19.4417 N   0  3  2  0  0  0
  -31.1783  -19.6537   21.0459 S   0  0  0  0  0  0
  -31.4859  -12.5893   19.1208 H   0  0  0  0  0  0
  -30.4009  -11.4602   19.8897 H   0  0  0  0  0  0
  -29.7879  -11.7833   17.4739 H   0  0  0  0  0  0
  -29.6459  -13.5046   17.7176 H   0  0  0  0  0  0
  -27.8619  -11.3288   18.8376 H   0  0  0  0  0  0
  -27.3835  -12.6355   17.7874 H   0  0  0  0  0  0
  -27.6665  -14.2711   19.5071 H   0  0  0  0  0  0
  -28.7580  -12.1625   21.4299 H   0  0  0  0  0  0
  -28.4844  -13.8448   21.7890 H   0  0  0  0  0  0
  -25.2815   -9.5709   22.4640 H   0  0  0  0  0  0
  -24.0084   -7.4629   22.7477 H   0  0  0  0  0  0
  -21.0774   -8.8741   19.9053 H   0  0  0  0  0  0
  -22.3583  -10.9668   19.6172 H   0  0  0  0  0  0
  -21.1978   -7.6123   23.9639 H   0  0  0  0  0  0
  -21.1517   -6.0522   25.9053 H   0  0  0  0  0  0
  -22.0599   -2.7565   23.2834 H   0  0  0  0  0  0
  -22.4229  -11.9973   22.4928 H   0  0  0  0  0  0
  -21.1146  -13.1250   22.2673 H   0  0  0  0  0  0
  -24.6626  -15.8490   20.5507 H   0  0  0  0  0  0
  -26.2762  -15.6394   20.0999 H   0  0  0  0  0  0
  -26.7193  -32.5404   23.1149 H   0  0  0  0  0  0
  -24.9994  -33.9729   25.0401 H   0  0  0  0  0  0
  -22.7280  -31.2931   21.3721 H   0  0  0  0  0  0
  -23.3746  -35.9573   23.3308 H   0  0  0  0  0  0
  -24.3582  -36.8882   22.2084 H   0  0  0  0  0  0
  -23.7162  -37.6442   23.6685 H   0  0  0  0  0  0
  -26.1346  -31.5218   20.6187 H   0  0  0  0  0  0
  -26.8479  -30.8114   22.0211 H   0  0  0  0  0  0
  -28.0872  -28.8949   21.3054 H   0  0  0  0  0  0
  -26.0158  -25.8386   19.0900 H   0  0  0  0  0  0
  -23.9940  -27.2344   19.0558 H   0  0  0  0  0  0
  -23.8160  -30.5773   19.4021 H   0  0  0  0  0  0
  -22.7802  -29.2451   19.8130 H   0  0  0  0  0  0
  -25.1260  -36.1927   25.0865 H   0  0  0  0  0  0
  -21.0004  -28.3255   24.1420 H   0  0  0  0  0  0
  -20.5475  -26.2326   23.3679 H   0  0  0  0  0  0
  -21.6619  -26.7321   22.1374 H   0  0  0  0  0  0
  -19.6889  -25.6250   21.1289 H   0  0  0  0  0  0
  -19.6763  -27.3123   20.6715 H   0  0  0  0  0  0
  -17.4209  -26.6788   21.3929 H   0  0  0  0  0  0
  -18.0244  -26.0102   22.8948 H   0  0  0  0  0  0
  -19.7930  -30.7201   24.2412 H   0  0  0  0  0  0
  -17.5024  -31.6295   24.5159 H   0  0  0  0  0  0
  -15.5356  -30.3043   23.7599 H   0  0  0  0  0  0
  -15.8664  -28.0852   22.7055 H   0  0  0  0  0  0
  -24.5934  -30.7102   25.7960 H   0  0  0  0  0  0
  -24.8916  -32.2977   26.4964 H   0  0  0  0  0  0
  -25.8156  -30.9072   27.0342 H   0  0  0  0  0  0
  -26.2834  -29.6789   24.1332 H   0  0  0  0  0  0
  -27.3878  -29.7301   25.4869 H   0  0  0  0  0  0
  -27.8772  -30.4242   23.9591 H   0  0  0  0  0  0
  -27.2670  -33.3613   26.2186 H   0  0  0  0  0  0
  -28.3701  -32.7132   25.0148 H   0  0  0  0  0  0
  -28.0966  -31.8480   26.5189 H   0  0  0  0  0  0
  -28.2625  -38.0031   24.7474 H   0  0  0  0  0  0
  -28.1046  -36.2574   24.6263 H   0  0  0  0  0  0
  -27.2381  -37.1405   25.8886 H   0  0  0  0  0  0
  -20.9339  -29.8845   21.6946 H   0  0  0  0  0  0
  -26.0155  -38.2847   24.1456 H   0  0  0  0  0  0
  -28.1602  -17.8949   20.1497 H   0  0  0  0  0  0
  -32.3072  -17.4787   21.4114 H   0  0  0  0  0  0
  -25.9182  -23.6462   19.6473 H   0  0  0  0  0  0
  -26.9565  -23.1662   18.3398 H   0  0  0  0  0  0
  -29.5709  -22.3491   19.1243 H   0  0  0  0  0  0
  -29.9399  -22.5370   20.8033 H   0  0  0  0  0  0
  -25.5521  -21.2075   18.9500 H   0  0  0  0  0  0
  -25.9520  -21.3809   20.6311 H   0  0  0  0  0  0
  -28.1059  -20.9005   21.3761 H   0  0  0  0  0  0
  -27.7629  -23.5544   21.2811 H   0  0  0  0  0  0
  -27.3076  -19.6471   17.5156 H   0  0  0  0  0  0
  -28.9529  -19.9949   17.9700 H   0  0  0  0  0  0
  -27.9188  -21.3001   17.4551 H   0  0  0  0  0  0
  -28.2391  -25.0849   18.6590 H   0  0  0  0  0  0
  -29.5723  -24.8841   19.6947 H   0  0  0  0  0  0
  -28.9798  -15.5624   21.0755 H   0  0  0  0  0  0
  -27.1282  -19.6686   19.7329 H   0  0  0  0  0  0
  1 25  1  0  0  0
  1 30  2  0  0  0
  1 82  1  0  0  0
  2  3  1  0  0  0
  2 25  1  0  0  0
  2 85  1  0  0  0
  2 86  1  0  0  0
  3  4  1  0  0  0
  3 87  1  0  0  0
  3 88  1  0  0  0
  4  5  1  0  0  0
  4 89  1  0  0  0
  4 90  1  0  0  0
  5  6  1  0  0  0
  5 26  1  0  0  0
  5 91  1  0  0  0
  6 25  1  0  0  0
  6 92  1  0  0  0
  6 93  1  0  0  0
  7  8  2  0  0  0
  7 26  1  0  0  0
  7 29  1  0  0  0
  8  9  1  0  0  0
  8 22  1  0  0  0
  9 10  1  0  0  0
  9 27  2  0  0  0
 10 11  2  0  0  0
 10 15  1  0  0  0
 11 12  1  0  0  0
 11 94  1  0  0  0
 12 13  2  0  0  0
 12 95  1  0  0  0
 13 14  1  0  0  0
 13 31  1  0  0  0
 14 15  2  0  0  0
 14 96  1  0  0  0
 15 97  1  0  0  0
 16 17  2  0  0  0
 16 21  1  0  0  0
 16 31  1  0  0  0
 17 18  1  0  0  0
 17 98  1  0  0  0
 18 19  2  0  0  0
 18 99  1  0  0  0
 19 20  1  0  0  0
 19 24  1  0  0  0
 20 21  2  0  0  0
 20100  1  0  0  0
 21 23  1  0  0  0
 22 28  1  0  0  0
 22 32  2  0  0  0
 26 27  1  0  0  0
 28101  1  0  0  0
 28102  1  0  0  0
 29103  1  0  0  0
 29104  1  0  0  0
 33 34  1  0  0  0
 33 66  1  0  0  0
 33 70  2  0  0  0
 34 36  1  0  0  0
 34 59  1  0  0  0
 34105  1  0  0  0
 35 44  2  0  0  0
 35 45  1  0  0  0
 35 68  1  0  0  0
 36 56  1  0  0  0
 36106  1  0  0  0
 37 39  1  0  0  0
 37 47  1  0  0  0
 37 66  1  0  0  0
 37107  1  0  0  0
 38 43  2  0  0  0
 38 46  1  0  0  0
 38 47  1  0  0  0
 39 64  1  0  0  0
 39 67  2  0  0  0
 40 52  1  0  0  0
 40 53  2  0  0  0
 40 58  1  0  0  0
 41108  1  0  0  0
 41109  1  0  0  0
 41110  1  0  0  0
 41 48  1  0  0  0
 42 43  1  0  0  0
 42 66  1  0  0  0
 42111  1  0  0  0
 42112  1  0  0  0
 43 44  1  0  0  0
 44113  1  0  0  0
 45 46  2  0  0  0
 45114  1  0  0  0
 46115  1  0  0  0
 47116  1  0  0  0
 47117  1  0  0  0
 48 56  1  0  0  0
 48 65  1  0  0  0
 48118  1  0  0  0
 49 50  1  0  0  0
 49 53  1  0  0  0
 49 64  1  0  0  0
 49119  1  0  0  0
 50 51  1  0  0  0
 50120  1  0  0  0
 50121  1  0  0  0
 51 52  1  0  0  0
 51122  1  0  0  0
 51123  1  0  0  0
 52124  1  0  0  0
 52125  1  0  0  0
 53 54  1  0  0  0
 54 55  2  0  0  0
 54126  1  0  0  0
 55 57  1  0  0  0
 55127  1  0  0  0
 56 69  2  0  0  0
 57 58  2  0  0  0
 57128  1  0  0  0
 58129  1  0  0  0
 59 60  1  0  0  0
 59 61  1  0  0  0
 59 62  1  0  0  0
 60130  1  0  0  0
 60131  1  0  0  0
 60132  1  0  0  0
 61133  1  0  0  0
 61134  1  0  0  0
 61135  1  0  0  0
 62136  1  0  0  0
 62137  1  0  0  0
 62138  1  0  0  0
 63 65  1  0  0  0
 63139  1  0  0  0
 63140  1  0  0  0
 63141  1  0  0  0
 64142  1  0  0  0
 65143  1  0  0  0
 68 81  1  0  0  0
 71 73  1  0  0  0
 71 74  2  0  0  0
 71144  1  0  0  0
 72 73  2  0  0  0
 72 84  1  0  0  0
 72145  1  0  0  0
 73 82  1  0  0  0
 74 84  1  0  0  0
 74 78  1  0  0  0
 75 77  1  0  0  0
 75 79  1  0  0  0
 75146  1  0  0  0
 75147  1  0  0  0
 76 78  1  0  0  0
 76 79  1  0  0  0
 76148  1  0  0  0
 76149  1  0  0  0
 77 83  1  0  0  0
 77150  1  0  0  0
 77151  1  0  0  0
 78 83  1  0  0  0
 78152  1  0  0  0
 79 81  1  0  0  0
 79153  1  0  0  0
 80154  1  0  0  0
 80155  1  0  0  0
 80156  1  0  0  0
 80 83  1  0  0  0
 81157  1  0  0  0
 81158  1  0  0  0
 82159  1  0  0  0
 83160  1  0  0  0
M  CHG  1  83   1
M  ISO  4   1 100  68 101  81 101  82 100
M  END
> <chiral flag>
0

> <version>
0

> <s_m_source_file>
/data/baiqing/PycharmProjects/Reinvent-master-3.2/result/LINK_invent/BTK/process_docking_weight1_custom_product_contain_oxygen_bond_distance_aromatic_linkinvent_7_9_3/rearranged_h_0148.sdf

> <i_m_source_file_index>
59

> <r_mmod_Potential_Energy-OPLS-2005>
74.1811599731445

> <r_mmod_Stretch_Energy-OPLS-2005>
114.151298522949

> <r_mmod_Bend_Energy-OPLS-2005>
209.584167480469

> <r_mmod_Torsional_Energy-OPLS-2005>
253.820877075195

> <r_mmod_Improper_Torsional_Energy-OPLS-2005>
5.25819253921509

> <r_mmod_Van_der_Waal_Energy-OPLS-2005>
115.600921630859

> <r_mmod_Electrostatic_Energy-OPLS-2005>
-246.539657592773

> <r_mmod_Solvation_Energy-OPLS-2005>
-465.793731689453

> <b_mmod_Minimization_Converged-OPLS-2005>
0

> <r_mmod_RMS_Derivative-OPLS-2005>
9.1655158996582

$$$$
59
                    3D
 Structure written by MMmdl.
158167  0  0  1  0            999 V2000
  -30.6780  -14.6111   20.5043 C   0  0  0  0  0  0
  -30.4198  -12.3770   19.4549 C   0  0  0  0  0  0
  -29.4996  -12.4974   18.2227 C   0  0  0  0  0  0
  -28.0237  -12.3429   18.6365 C   0  0  0  0  0  0
  -27.6483  -13.2238   19.8588 C   0  0  2  0  0  0
  -28.6934  -13.1069   20.9911 C   0  0  0  0  0  0
  -25.2534  -13.8190   20.5692 C   0  0  0  0  0  0
  -24.1813  -13.0443   20.9202 C   0  0  0  0  0  0
  -24.6393  -11.6918   20.8749 C   0  0  0  0  0  0
  -23.9068  -10.4295   21.0409 C   0  0  0  0  0  0
  -24.3619   -9.4209   21.9184 C   0  0  0  0  0  0
  -23.6295   -8.2244   22.0754 C   0  0  0  0  0  0
  -22.4277   -8.0282   21.3544 C   0  0  0  0  0  0
  -21.9912   -9.0256   20.4647 C   0  0  0  0  0  0
  -22.7240  -10.2136   20.3057 C   0  0  0  0  0  0
  -21.6854   -6.0736   22.5279 C   0  0  0  0  0  0
  -21.4015   -6.5640   23.8212 C   0  0  0  0  0  0
  -21.3659   -5.6793   24.9175 C   0  0  0  0  0  0
  -21.6044   -4.3056   24.7226 C   0  0  0  0  0  0
  -21.8819   -3.8147   23.4347 C   0  0  0  0  0  0
  -21.9193   -4.6963   22.3403 C   0  0  0  0  0  0
  -22.7834  -13.5228   21.1860 C   0  0  0  0  0  0
  -22.1662   -4.2149   21.0980 F   0  0  0  0  0  0
  -21.5628   -3.4539   25.7738 F   0  0  0  0  0  0
  -30.0075  -13.4207   20.4154 N   0  0  0  0  0  0
  -26.2966  -12.9387   20.3318 N   0  0  0  0  0  0
  -25.9323  -11.6534   20.5769 N   0  0  0  0  0  0
  -22.0480  -12.8218   22.0417 N   0  0  0  0  0  0
  -25.4227  -15.1913   20.4092 N   0  0  0  0  0  0
  -31.8486  -14.6934   20.1245 O   0  0  0  0  0  0
  -21.6641   -6.8879   21.4240 O   0  0  0  0  0  0
  -22.3519  -14.5534   20.6708 O   0  0  0  0  0  0
  -24.6228  -31.8617   23.2042 C   0  0  0  0  0  0
  -25.9087  -32.4790   23.8366 C   0  0  1  0  0  0
  -27.2245  -27.3549   20.1157 C   0  0  0  0  0  0
  -25.5914  -33.8591   24.2295 N   0  0  0  0  0  0
  -23.4163  -30.4844   21.5453 C   0  0  2  0  0  0
  -24.8660  -28.9441   20.1083 C   0  0  0  0  0  0
  -22.7463  -29.4628   22.4942 C   0  0  0  0  0  0
  -18.0283  -28.1383   22.8489 C   0  0  0  0  0  0
  -24.1489  -36.7301   23.2639 C   0  0  0  0  0  0
  -25.9537  -30.8038   21.3705 C   0  0  0  0  0  0
  -26.0319  -29.4337   20.7133 C   0  0  0  0  0  0
  -27.2192  -28.6483   20.7114 C   0  0  0  0  0  0
  -26.0457  -26.9064   19.4879 C   0  0  0  0  0  0
  -24.8724  -27.6841   19.4868 C   0  0  0  0  0  0
  -23.6304  -29.8185   20.1600 C   0  0  0  0  0  0
  -25.4112  -36.3092   24.0332 C   0  0  1  0  0  0
  -20.5882  -28.3683   23.1290 C   0  0  2  0  0  0
  -20.6773  -26.9409   22.5412 C   0  0  0  0  0  0
  -19.5749  -26.6384   21.5214 C   0  0  0  0  0  0
  -18.1929  -26.7927   22.1626 C   0  0  0  0  0  0
  -19.1536  -28.8850   23.2886 C   0  0  0  0  0  0
  -18.9460  -30.1454   23.8899 C   0  0  0  0  0  0
  -17.6460  -30.6587   24.0563 C   0  0  0  0  0  0
  -25.9043  -34.9458   23.5113 C   0  0  0  0  0  0
  -16.5351  -29.9086   23.6330 C   0  0  0  0  0  0
  -16.7271  -28.6503   23.0351 C   0  0  0  0  0  0
  -26.4485  -31.6589   25.0722 C   0  0  0  0  0  0
  -25.3731  -31.3721   26.1459 C   0  0  0  0  0  0
  -27.0320  -30.3016   24.6151 C   0  0  0  0  0  0
  -27.6054  -32.4315   25.7488 C   0  0  0  0  0  0
  -27.5580  -37.1806   24.8465 C   0  0  0  0  0  0
  -21.4178  -29.3039   22.3686 N   0  0  0  0  0  0
  -26.4294  -37.3782   23.9407 N   0  0  0  0  0  0
  -24.6828  -31.0656   22.0976 N   0  0  0  0  0  0
  -23.4199  -28.8169   23.3013 O   0  0  0  0  0  0
  -28.3029  -26.4753   20.1673 O   0  0  0  0  0  0
  -26.5611  -34.8921   22.4679 O   0  0  0  0  0  0
  -23.5398  -32.1399   23.7388 O   0  0  0  0  0  0
  -32.2017  -18.7263   21.4315 C   0  0  0  0  0  0
  -31.3475  -19.8164   21.1946 C   0  0  0  0  0  0
  -31.7367  -17.4057   21.3041 C   0  0  0  0  0  0
  -29.5387  -18.2605   20.6981 C   0  0  0  0  0  0
  -29.9990  -19.6219   20.8283 C   0  0  0  0  0  0
  -30.4037  -17.1257   20.9171 C   0  0  0  0  0  0
  -29.2291  -23.4439   19.8163 C   0  0  0  0  0  0
  -28.5265  -23.9266   20.8653 C   0  0  0  0  0  0
  -29.6261  -21.9548   19.6071 C   0  0  0  0  0  0
  -28.0572  -22.9315   21.9281 C   0  0  0  0  0  0
  -28.8931  -21.6238   22.0060 C   0  0  0  0  0  0
  -29.1007  -20.8991   20.6538 C   0  0  2  0  0  0
  -28.1193  -25.4117   21.1591 C   0  0  0  0  0  0
  -29.9509  -15.7361   20.8098 N   0  0  0  0  0  0
  -31.4647  -12.4691   19.1537 H   0  0  0  0  0  0
  -30.3290  -11.3891   19.9092 H   0  0  0  0  0  0
  -29.7607  -11.7414   17.4809 H   0  0  0  0  0  0
  -29.6492  -13.4650   17.7408 H   0  0  0  0  0  0
  -27.8592  -11.2914   18.8748 H   0  0  0  0  0  0
  -27.3691  -12.5681   17.7937 H   0  0  0  0  0  0
  -27.6602  -14.2549   19.5053 H   0  0  0  0  0  0
  -28.6983  -12.0999   21.4107 H   0  0  0  0  0  0
  -28.4485  -13.7770   21.8166 H   0  0  0  0  0  0
  -25.2764   -9.5685   22.4759 H   0  0  0  0  0  0
  -24.0005   -7.4635   22.7471 H   0  0  0  0  0  0
  -21.0844   -8.8775   19.8952 H   0  0  0  0  0  0
  -22.3699  -10.9675   19.6167 H   0  0  0  0  0  0
  -21.2007   -7.6149   23.9716 H   0  0  0  0  0  0
  -21.1481   -6.0524   25.9078 H   0  0  0  0  0  0
  -22.0598   -2.7609   23.2847 H   0  0  0  0  0  0
  -22.4100  -11.9882   22.4805 H   0  0  0  0  0  0
  -21.1097  -13.1240   22.2624 H   0  0  0  0  0  0
  -24.6527  -15.8431   20.5144 H   0  0  0  0  0  0
  -26.2664  -15.6305   20.0639 H   0  0  0  0  0  0
  -26.7158  -32.5477   23.1123 H   0  0  0  0  0  0
  -25.0064  -33.9741   25.0441 H   0  0  0  0  0  0
  -22.7086  -31.3037   21.4028 H   0  0  0  0  0  0
  -23.3749  -35.9636   23.3306 H   0  0  0  0  0  0
  -24.3581  -36.8914   22.2052 H   0  0  0  0  0  0
  -23.7244  -37.6507   23.6654 H   0  0  0  0  0  0
  -26.0794  -31.5687   20.6029 H   0  0  0  0  0  0
  -26.8361  -30.8544   21.9968 H   0  0  0  0  0  0
  -28.1130  -29.0127   21.1983 H   0  0  0  0  0  0
  -26.0279  -25.9299   19.0241 H   0  0  0  0  0  0
  -23.9781  -27.3019   19.0141 H   0  0  0  0  0  0
  -23.7441  -30.5947   19.4023 H   0  0  0  0  0  0
  -22.7524  -29.2433   19.8603 H   0  0  0  0  0  0
  -25.1292  -36.1949   25.0825 H   0  0  0  0  0  0
  -20.9977  -28.3255   24.1410 H   0  0  0  0  0  0
  -20.5678  -26.2291   23.3608 H   0  0  0  0  0  0
  -21.6642  -26.7444   22.1201 H   0  0  0  0  0  0
  -19.6910  -25.6296   21.1240 H   0  0  0  0  0  0
  -19.6686  -27.3197   20.6746 H   0  0  0  0  0  0
  -17.4198  -26.6674   21.4030 H   0  0  0  0  0  0
  -18.0331  -26.0070   22.9024 H   0  0  0  0  0  0
  -19.7936  -30.7270   24.2268 H   0  0  0  0  0  0
  -17.5015  -31.6268   24.5164 H   0  0  0  0  0  0
  -15.5351  -30.2989   23.7654 H   0  0  0  0  0  0
  -15.8670  -28.0824   22.7064 H   0  0  0  0  0  0
  -24.5891  -30.7088   25.7789 H   0  0  0  0  0  0
  -24.8941  -32.2889   26.4909 H   0  0  0  0  0  0
  -25.8063  -30.8876   27.0219 H   0  0  0  0  0  0
  -26.2882  -29.6774   24.1184 H   0  0  0  0  0  0
  -27.4037  -29.7261   25.4640 H   0  0  0  0  0  0
  -27.8744  -30.4310   23.9352 H   0  0  0  0  0  0
  -27.2674  -33.3618   26.2066 H   0  0  0  0  0  0
  -28.3863  -32.6869   25.0313 H   0  0  0  0  0  0
  -28.0721  -31.8436   26.5402 H   0  0  0  0  0  0
  -28.2602  -38.0098   24.7506 H   0  0  0  0  0  0
  -28.1071  -36.2629   24.6300 H   0  0  0  0  0  0
  -27.2297  -37.1464   25.8868 H   0  0  0  0  0  0
  -20.9350  -29.8762   21.6902 H   0  0  0  0  0  0
  -26.0179  -38.2860   24.1402 H   0  0  0  0  0  0
  -33.2262  -18.9048   21.7273 H   0  0  0  0  0  0
  -31.7370  -20.8173   21.3206 H   0  0  0  0  0  0
  -32.4339  -16.6110   21.5247 H   0  0  0  0  0  0
  -28.5057  -18.0886   20.4297 H   0  0  0  0  0  0
  -29.5741  -24.1358   19.0603 H   0  0  0  0  0  0
  -30.7155  -21.9564   19.6083 H   0  0  0  0  0  0
  -29.3384  -21.6445   18.6022 H   0  0  0  0  0  0
  -27.0104  -22.6961   21.7319 H   0  0  0  0  0  0
  -28.0838  -23.4178   22.9043 H   0  0  0  0  0  0
  -28.4274  -20.9406   22.7175 H   0  0  0  0  0  0
  -29.8662  -21.8741   22.4301 H   0  0  0  0  0  0
  -28.1194  -20.5631   20.3150 H   0  0  0  0  0  0
  -28.6691  -25.7202   22.0489 H   0  0  0  0  0  0
  -27.0750  -25.3713   21.4761 H   0  0  0  0  0  0
  -28.9627  -15.5798   20.9352 H   0  0  0  0  0  0
  1 25  1  0  0  0
  1 30  2  0  0  0
  1 84  1  0  0  0
  2  3  1  0  0  0
  2 25  1  0  0  0
  2 85  1  0  0  0
  2 86  1  0  0  0
  3  4  1  0  0  0
  3 87  1  0  0  0
  3 88  1  0  0  0
  4  5  1  0  0  0
  4 89  1  0  0  0
  4 90  1  0  0  0
  5  6  1  0  0  0
  5 26  1  0  0  0
  5 91  1  0  0  0
  6 25  1  0  0  0
  6 92  1  0  0  0
  6 93  1  0  0  0
  7  8  2  0  0  0
  7 26  1  0  0  0
  7 29  1  0  0  0
  8  9  1  0  0  0
  8 22  1  0  0  0
  9 10  1  0  0  0
  9 27  2  0  0  0
 10 11  2  0  0  0
 10 15  1  0  0  0
 11 12  1  0  0  0
 11 94  1  0  0  0
 12 13  2  0  0  0
 12 95  1  0  0  0
 13 14  1  0  0  0
 13 31  1  0  0  0
 14 15  2  0  0  0
 14 96  1  0  0  0
 15 97  1  0  0  0
 16 17  2  0  0  0
 16 21  1  0  0  0
 16 31  1  0  0  0
 17 18  1  0  0  0
 17 98  1  0  0  0
 18 19  2  0  0  0
 18 99  1  0  0  0
 19 20  1  0  0  0
 19 24  1  0  0  0
 20 21  2  0  0  0
 20100  1  0  0  0
 21 23  1  0  0  0
 22 28  1  0  0  0
 22 32  2  0  0  0
 26 27  1  0  0  0
 28101  1  0  0  0
 28102  1  0  0  0
 29103  1  0  0  0
 29104  1  0  0  0
 33 34  1  0  0  0
 33 66  1  0  0  0
 33 70  2  0  0  0
 34 36  1  0  0  0
 34 59  1  0  0  0
 34105  1  0  0  0
 35 44  2  0  0  0
 35 45  1  0  0  0
 35 68  1  0  0  0
 36 56  1  0  0  0
 36106  1  0  0  0
 37 39  1  0  0  0
 37 47  1  0  0  0
 37 66  1  0  0  0
 37107  1  0  0  0
 38 43  2  0  0  0
 38 46  1  0  0  0
 38 47  1  0  0  0
 39 64  1  0  0  0
 39 67  2  0  0  0
 40 52  1  0  0  0
 40 53  2  0  0  0
 40 58  1  0  0  0
 41108  1  0  0  0
 41109  1  0  0  0
 41110  1  0  0  0
 41 48  1  0  0  0
 42 43  1  0  0  0
 42 66  1  0  0  0
 42111  1  0  0  0
 42112  1  0  0  0
 43 44  1  0  0  0
 44113  1  0  0  0
 45 46  2  0  0  0
 45114  1  0  0  0
 46115  1  0  0  0
 47116  1  0  0  0
 47117  1  0  0  0
 48 56  1  0  0  0
 48 65  1  0  0  0
 48118  1  0  0  0
 49 50  1  0  0  0
 49 53  1  0  0  0
 49 64  1  0  0  0
 49119  1  0  0  0
 50 51  1  0  0  0
 50120  1  0  0  0
 50121  1  0  0  0
 51 52  1  0  0  0
 51122  1  0  0  0
 51123  1  0  0  0
 52124  1  0  0  0
 52125  1  0  0  0
 53 54  1  0  0  0
 54 55  2  0  0  0
 54126  1  0  0  0
 55 57  1  0  0  0
 55127  1  0  0  0
 56 69  2  0  0  0
 57 58  2  0  0  0
 57128  1  0  0  0
 58129  1  0  0  0
 59 60  1  0  0  0
 59 61  1  0  0  0
 59 62  1  0  0  0
 60130  1  0  0  0
 60131  1  0  0  0
 60132  1  0  0  0
 61133  1  0  0  0
 61134  1  0  0  0
 61135  1  0  0  0
 62136  1  0  0  0
 62137  1  0  0  0
 62138  1  0  0  0
 63 65  1  0  0  0
 63139  1  0  0  0
 63140  1  0  0  0
 63141  1  0  0  0
 64142  1  0  0  0
 65143  1  0  0  0
 68 83  1  0  0  0
 71 72  2  0  0  0
 71 73  1  0  0  0
 71144  1  0  0  0
 72 75  1  0  0  0
 72145  1  0  0  0
 73 76  2  0  0  0
 73146  1  0  0  0
 74 75  2  0  0  0
 74 76  1  0  0  0
 74147  1  0  0  0
 75 82  1  0  0  0
 76 84  1  0  0  0
 77 78  2  0  0  0
 77 79  1  0  0  0
 77148  1  0  0  0
 78 80  1  0  0  0
 78 83  1  0  0  0
 79 82  1  0  0  0
 79149  1  0  0  0
 79150  1  0  0  0
 80 81  1  0  0  0
 80151  1  0  0  0
 80152  1  0  0  0
 81 82  1  0  0  0
 81153  1  0  0  0
 81154  1  0  0  0
 82155  1  0  0  0
 83156  1  0  0  0
 83157  1  0  0  0
 84158  1  0  0  0
M  ISO  4   1 100  68 101  83 101  84 100
M  END
> <chiral flag>
0

> <version>
0

> <s_m_source_file>
/data/baiqing/PycharmProjects/Reinvent-master-3.2/result/LINK_invent/BTK/process_docking_weight1_custom_product_contain_oxygen_bond_distance_aromatic_linkinvent_7_9_3/rearranged_h_0148.sdf

> <i_m_source_file_index>
60

> <r_mmod_Potential_Energy-OPLS-2005>
89.2293014526367

> <r_mmod_Stretch_Energy-OPLS-2005>
71.842414855957

> <r_mmod_Bend_Energy-OPLS-2005>
127.955696105957

> <r_mmod_Torsional_Energy-OPLS-2005>
246.561233520508

> <r_mmod_Improper_Torsional_Energy-OPLS-2005>
5.12933158874512

> <r_mmod_Van_der_Waal_Energy-OPLS-2005>
151.450500488281

> <r_mmod_Electrostatic_Energy-OPLS-2005>
-359.854309082031

> <r_mmod_Solvation_Energy-OPLS-2005>
-196.629058837891

> <b_mmod_Minimization_Converged-OPLS-2005>
0

> <r_mmod_RMS_Derivative-OPLS-2005>
0.121373496949673

$$$$
60
                    3D
 Structure written by MMmdl.
167176  0  0  1  0            999 V2000
  -30.7127  -14.4706   20.5626 C   0  0  0  0  0  0
  -30.4192  -12.3079   19.4149 C   0  0  0  0  0  0
  -29.4894  -12.5036   18.2007 C   0  0  0  0  0  0
  -28.0124  -12.3624   18.6190 C   0  0  0  0  0  0
  -27.6576  -13.2029   19.8750 C   0  0  2  0  0  0
  -28.7054  -13.0004   20.9927 C   0  0  0  0  0  0
  -25.2576  -13.8138   20.5692 C   0  0  0  0  0  0
  -24.1831  -13.0421   20.9193 C   0  0  0  0  0  0
  -24.6385  -11.6888   20.8748 C   0  0  0  0  0  0
  -23.9052  -10.4279   21.0409 C   0  0  0  0  0  0
  -24.3608   -9.4195   21.9186 C   0  0  0  0  0  0
  -23.6286   -8.2229   22.0753 C   0  0  0  0  0  0
  -22.4268   -8.0271   21.3542 C   0  0  0  0  0  0
  -21.9902   -9.0244   20.4647 C   0  0  0  0  0  0
  -22.7228  -10.2123   20.3058 C   0  0  0  0  0  0
  -21.6849   -6.0727   22.5277 C   0  0  0  0  0  0
  -21.4012   -6.5634   23.8209 C   0  0  0  0  0  0
  -21.3664   -5.6789   24.9175 C   0  0  0  0  0  0
  -21.6045   -4.3052   24.7227 C   0  0  0  0  0  0
  -21.8820   -3.8141   23.4350 C   0  0  0  0  0  0
  -21.9191   -4.6955   22.3403 C   0  0  0  0  0  0
  -22.7858  -13.5224   21.1856 C   0  0  0  0  0  0
  -22.1660   -4.2141   21.0980 F   0  0  0  0  0  0
  -21.5632   -3.4539   25.7742 F   0  0  0  0  0  0
  -30.0321  -13.3006   20.4280 N   0  0  0  0  0  0
  -26.3005  -12.9298   20.3386 N   0  0  0  0  0  0
  -25.9310  -11.6464   20.5785 N   0  0  0  0  0  0
  -22.0505  -12.8210   22.0413 N   0  0  0  0  0  0
  -25.4288  -15.1855   20.4076 N   0  0  0  0  0  0
  -31.8571  -14.6304   20.1288 O   0  0  0  0  0  0
  -21.6633   -6.8868   21.4238 O   0  0  0  0  0  0
  -22.3545  -14.5536   20.6715 O   0  0  0  0  0  0
  -24.6156  -31.8694   23.2116 C   0  0  0  0  0  0
  -25.9054  -32.4827   23.8404 C   0  0  1  0  0  0
  -27.2250  -27.4285   20.0902 C   0  0  0  0  0  0
  -25.5915  -33.8626   24.2332 N   0  0  0  0  0  0
  -23.4031  -30.4960   21.5529 C   0  0  2  0  0  0
  -24.8478  -28.9681   20.1117 C   0  0  0  0  0  0
  -22.7415  -29.4674   22.4990 C   0  0  0  0  0  0
  -18.0274  -28.1380   22.8489 C   0  0  0  0  0  0
  -24.1489  -36.7317   23.2630 C   0  0  0  0  0  0
  -25.9351  -30.8314   21.3690 C   0  0  0  0  0  0
  -26.0111  -29.4685   20.7106 C   0  0  0  0  0  0
  -27.2050  -28.7073   20.6964 C   0  0  0  0  0  0
  -26.0466  -26.9606   19.4631 C   0  0  0  0  0  0
  -24.8612  -27.7140   19.4836 C   0  0  0  0  0  0
  -23.6109  -29.8352   20.1654 C   0  0  0  0  0  0
  -25.4106  -36.3116   24.0336 C   0  0  1  0  0  0
  -20.5864  -28.3676   23.1314 C   0  0  2  0  0  0
  -20.6769  -26.9413   22.5417 C   0  0  0  0  0  0
  -19.5748  -26.6387   21.5216 C   0  0  0  0  0  0
  -18.1923  -26.7924   22.1624 C   0  0  0  0  0  0
  -19.1522  -28.8843   23.2896 C   0  0  0  0  0  0
  -18.9452  -30.1445   23.8911 C   0  0  0  0  0  0
  -17.6455  -30.6586   24.0567 C   0  0  0  0  0  0
  -25.9042  -34.9481   23.5129 C   0  0  0  0  0  0
  -16.5346  -29.9092   23.6323 C   0  0  0  0  0  0
  -16.7262  -28.6509   23.0343 C   0  0  0  0  0  0
  -26.4474  -31.6598   25.0733 C   0  0  0  0  0  0
  -25.3737  -31.3716   26.1480 C   0  0  0  0  0  0
  -27.0290  -30.3030   24.6120 C   0  0  0  0  0  0
  -27.6055  -32.4312   25.7490 C   0  0  0  0  0  0
  -27.5593  -37.1798   24.8450 C   0  0  0  0  0  0
  -21.4144  -29.3045   22.3726 N   0  0  0  0  0  0
  -26.4289  -37.3805   23.9422 N   0  0  0  0  0  0
  -24.6694  -31.0793   22.1023 N   0  0  0  0  0  0
  -23.4186  -28.8207   23.3025 O   0  0  0  0  0  0
  -28.3638  -26.6464   20.1167 O   0  0  0  0  0  0
  -26.5604  -34.8929   22.4689 O   0  0  0  0  0  0
  -23.5349  -32.1456   23.7506 O   0  0  0  0  0  0
  -31.9950  -18.3735   22.3364 C   0  0  0  0  0  0
  -31.5637  -17.0706   22.0484 C   0  0  0  0  0  0
  -31.2925  -19.4771   21.8282 C   0  0  0  0  0  0
  -29.7369  -17.9729   20.6698 C   0  0  0  0  0  0
  -30.4402  -16.8542   21.2220 C   0  0  0  0  0  0
  -30.1549  -19.3047   21.0058 C   0  0  0  0  0  0
  -29.2895  -24.3314   20.3259 C   0  0  0  0  0  0
  -27.5797  -17.5646   17.8192 C   0  0  0  0  0  0
  -27.8419  -18.7054   18.8037 C   0  0  0  0  0  0
  -28.8188  -16.8958   18.4169 C   0  0  0  0  0  0
  -28.5607  -17.6848   19.7181 C   0  0  0  0  0  0
  -30.9774  -21.7356   19.1555 C   0  0  0  0  0  0
  -28.9097  -22.8345   20.2181 C   0  0  0  0  0  0
  -28.1058  -25.2883   20.5372 C   0  0  0  0  0  0
  -30.0309  -21.7682   20.3700 C   0  0  1  0  0  0
  -29.9893  -15.5085   21.0283 N   0  0  0  0  0  0
  -29.4321  -20.4380   20.5728 N   0  0  0  0  0  0
  -30.4548  -24.7373   20.2632 O   0  0  0  0  0  0
  -31.4638  -12.4017   19.1123 H   0  0  0  0  0  0
  -30.3150  -11.2999   19.8193 H   0  0  0  0  0  0
  -29.7266  -11.7757   17.4236 H   0  0  0  0  0  0
  -29.6571  -13.4872   17.7585 H   0  0  0  0  0  0
  -27.8292  -11.3066   18.8208 H   0  0  0  0  0  0
  -27.3579  -12.6305   17.7889 H   0  0  0  0  0  0
  -27.6878  -14.2472   19.5761 H   0  0  0  0  0  0
  -28.6850  -11.9697   21.3495 H   0  0  0  0  0  0
  -28.4749  -13.6157   21.8638 H   0  0  0  0  0  0
  -25.2755   -9.5666   22.4759 H   0  0  0  0  0  0
  -23.9996   -7.4616   22.7468 H   0  0  0  0  0  0
  -21.0832   -8.8763   19.8953 H   0  0  0  0  0  0
  -22.3692  -10.9662   19.6165 H   0  0  0  0  0  0
  -21.2003   -7.6142   23.9709 H   0  0  0  0  0  0
  -21.1489   -6.0523   25.9077 H   0  0  0  0  0  0
  -22.0596   -2.7602   23.2854 H   0  0  0  0  0  0
  -22.4127  -11.9858   22.4771 H   0  0  0  0  0  0
  -21.1131  -13.1236   22.2648 H   0  0  0  0  0  0
  -24.6576  -15.8365   20.5072 H   0  0  0  0  0  0
  -26.2684  -15.6177   20.0480 H   0  0  0  0  0  0
  -26.7128  -32.5537   23.1168 H   0  0  0  0  0  0
  -25.0072  -33.9787   25.0484 H   0  0  0  0  0  0
  -22.6921  -31.3138   21.4171 H   0  0  0  0  0  0
  -23.3761  -35.9639   23.3269 H   0  0  0  0  0  0
  -24.3599  -36.8958   22.2052 H   0  0  0  0  0  0
  -23.7221  -37.6504   23.6663 H   0  0  0  0  0  0
  -26.0548  -31.6011   20.6054 H   0  0  0  0  0  0
  -26.8200  -30.8779   21.9920 H   0  0  0  0  0  0
  -28.1000  -29.0861   21.1700 H   0  0  0  0  0  0
  -26.0243  -26.0171   18.9388 H   0  0  0  0  0  0
  -23.9716  -27.3296   19.0036 H   0  0  0  0  0  0
  -23.7203  -30.6141   19.4096 H   0  0  0  0  0  0
  -22.7341  -29.2580   19.8664 H   0  0  0  0  0  0
  -25.1275  -36.1980   25.0827 H   0  0  0  0  0  0
  -20.9950  -28.3245   24.1437 H   0  0  0  0  0  0
  -20.5693  -26.2285   23.3605 H   0  0  0  0  0  0
  -21.6638  -26.7470   22.1200 H   0  0  0  0  0  0
  -19.6916  -25.6303   21.1238 H   0  0  0  0  0  0
  -19.6681  -27.3205   20.6752 H   0  0  0  0  0  0
  -17.4196  -26.6674   21.4020 H   0  0  0  0  0  0
  -18.0318  -26.0059   22.9014 H   0  0  0  0  0  0
  -19.7929  -30.7253   24.2290 H   0  0  0  0  0  0
  -17.5014  -31.6269   24.5166 H   0  0  0  0  0  0
  -15.5351  -30.3005   23.7637 H   0  0  0  0  0  0
  -15.8658  -28.0840   22.7048 H   0  0  0  0  0  0
  -24.5900  -30.7078   25.7813 H   0  0  0  0  0  0
  -24.8946  -32.2879   26.4938 H   0  0  0  0  0  0
  -25.8083  -30.8869   27.0230 H   0  0  0  0  0  0
  -26.2832  -29.6809   24.1157 H   0  0  0  0  0  0
  -27.4022  -29.7254   25.4587 H   0  0  0  0  0  0
  -27.8694  -30.4324   23.9293 H   0  0  0  0  0  0
  -27.2677  -33.3603   26.2094 H   0  0  0  0  0  0
  -28.3851  -32.6884   25.0306 H   0  0  0  0  0  0
  -28.0738  -31.8420   26.5385 H   0  0  0  0  0  0
  -28.2565  -38.0142   24.7579 H   0  0  0  0  0  0
  -28.1136  -36.2681   24.6167 H   0  0  0  0  0  0
  -27.2330  -37.1319   25.8854 H   0  0  0  0  0  0
  -20.9308  -29.8783   21.6958 H   0  0  0  0  0  0
  -26.0178  -38.2875   24.1463 H   0  0  0  0  0  0
  -32.8547  -18.5302   22.9726 H   0  0  0  0  0  0
  -32.0981  -16.2354   22.4800 H   0  0  0  0  0  0
  -31.6430  -20.4582   22.1100 H   0  0  0  0  0  0
  -27.6655  -17.8355   16.7659 H   0  0  0  0  0  0
  -26.6550  -17.0215   18.0248 H   0  0  0  0  0  0
  -26.9507  -19.1672   19.2308 H   0  0  0  0  0  0
  -28.5044  -19.4450   18.3499 H   0  0  0  0  0  0
  -29.7380  -17.2047   17.9155 H   0  0  0  0  0  0
  -28.7691  -15.8126   18.4944 H   0  0  0  0  0  0
  -27.8020  -17.1714   20.3123 H   0  0  0  0  0  0
  -31.4822  -22.6908   19.0123 H   0  0  0  0  0  0
  -30.4377  -21.5105   18.2344 H   0  0  0  0  0  0
  -31.7581  -20.9834   19.2729 H   0  0  0  0  0  0
  -28.3923  -22.6924   19.2692 H   0  0  0  0  0  0
  -28.1615  -22.6631   20.9926 H   0  0  0  0  0  0
  -27.8501  -25.2895   21.5971 H   0  0  0  0  0  0
  -27.2638  -24.8424   20.0136 H   0  0  0  0  0  0
  -30.6058  -22.0435   21.2541 H   0  0  0  0  0  0
  -29.0116  -15.3242   21.1893 H   0  0  0  0  0  0
  -28.6039  -20.2343   20.0217 H   0  0  0  0  0  0
  1 25  1  0  0  0
  1 30  2  0  0  0
  1 86  1  0  0  0
  2  3  1  0  0  0
  2 25  1  0  0  0
  2 89  1  0  0  0
  2 90  1  0  0  0
  3  4  1  0  0  0
  3 91  1  0  0  0
  3 92  1  0  0  0
  4  5  1  0  0  0
  4 93  1  0  0  0
  4 94  1  0  0  0
  5  6  1  0  0  0
  5 26  1  0  0  0
  5 95  1  0  0  0
  6 25  1  0  0  0
  6 96  1  0  0  0
  6 97  1  0  0  0
  7  8  2  0  0  0
  7 26  1  0  0  0
  7 29  1  0  0  0
  8  9  1  0  0  0
  8 22  1  0  0  0
  9 10  1  0  0  0
  9 27  2  0  0  0
 10 11  2  0  0  0
 10 15  1  0  0  0
 11 12  1  0  0  0
 11 98  1  0  0  0
 12 13  2  0  0  0
 12 99  1  0  0  0
 13 14  1  0  0  0
 13 31  1  0  0  0
 14 15  2  0  0  0
 14100  1  0  0  0
 15101  1  0  0  0
 16 17  2  0  0  0
 16 21  1  0  0  0
 16 31  1  0  0  0
 17 18  1  0  0  0
 17102  1  0  0  0
 18 19  2  0  0  0
 18103  1  0  0  0
 19 20  1  0  0  0
 19 24  1  0  0  0
 20 21  2  0  0  0
 20104  1  0  0  0
 21 23  1  0  0  0
 22 28  1  0  0  0
 22 32  2  0  0  0
 26 27  1  0  0  0
 28105  1  0  0  0
 28106  1  0  0  0
 29107  1  0  0  0
 29108  1  0  0  0
 33 34  1  0  0  0
 33 66  1  0  0  0
 33 70  2  0  0  0
 34 36  1  0  0  0
 34 59  1  0  0  0
 34109  1  0  0  0
 35 44  2  0  0  0
 35 45  1  0  0  0
 35 68  1  0  0  0
 36 56  1  0  0  0
 36110  1  0  0  0
 37 39  1  0  0  0
 37 47  1  0  0  0
 37 66  1  0  0  0
 37111  1  0  0  0
 38 43  2  0  0  0
 38 46  1  0  0  0
 38 47  1  0  0  0
 39 64  1  0  0  0
 39 67  2  0  0  0
 40 52  1  0  0  0
 40 53  2  0  0  0
 40 58  1  0  0  0
 41112  1  0  0  0
 41113  1  0  0  0
 41114  1  0  0  0
 41 48  1  0  0  0
 42 43  1  0  0  0
 42 66  1  0  0  0
 42115  1  0  0  0
 42116  1  0  0  0
 43 44  1  0  0  0
 44117  1  0  0  0
 45 46  2  0  0  0
 45118  1  0  0  0
 46119  1  0  0  0
 47120  1  0  0  0
 47121  1  0  0  0
 48 56  1  0  0  0
 48 65  1  0  0  0
 48122  1  0  0  0
 49 50  1  0  0  0
 49 53  1  0  0  0
 49 64  1  0  0  0
 49123  1  0  0  0
 50 51  1  0  0  0
 50124  1  0  0  0
 50125  1  0  0  0
 51 52  1  0  0  0
 51126  1  0  0  0
 51127  1  0  0  0
 52128  1  0  0  0
 52129  1  0  0  0
 53 54  1  0  0  0
 54 55  2  0  0  0
 54130  1  0  0  0
 55 57  1  0  0  0
 55131  1  0  0  0
 56 69  2  0  0  0
 57 58  2  0  0  0
 57132  1  0  0  0
 58133  1  0  0  0
 59 60  1  0  0  0
 59 61  1  0  0  0
 59 62  1  0  0  0
 60134  1  0  0  0
 60135  1  0  0  0
 60136  1  0  0  0
 61137  1  0  0  0
 61138  1  0  0  0
 61139  1  0  0  0
 62140  1  0  0  0
 62141  1  0  0  0
 62142  1  0  0  0
 63 65  1  0  0  0
 63143  1  0  0  0
 63144  1  0  0  0
 63145  1  0  0  0
 64146  1  0  0  0
 65147  1  0  0  0
 68 84  1  0  0  0
 71 72  2  0  0  0
 71 73  1  0  0  0
 71148  1  0  0  0
 72 75  1  0  0  0
 72149  1  0  0  0
 73 76  2  0  0  0
 73150  1  0  0  0
 74 75  2  0  0  0
 74 76  1  0  0  0
 74 81  1  0  0  0
 75 86  1  0  0  0
 76 87  1  0  0  0
 77 83  1  0  0  0
 77 84  1  0  0  0
 77 88  2  0  0  0
 78 79  1  0  0  0
 78 80  1  0  0  0
 78151  1  0  0  0
 78152  1  0  0  0
 79 81  1  0  0  0
 79153  1  0  0  0
 79154  1  0  0  0
 80 81  1  0  0  0
 80155  1  0  0  0
 80156  1  0  0  0
 81157  1  0  0  0
 82158  1  0  0  0
 82159  1  0  0  0
 82160  1  0  0  0
 82 85  1  0  0  0
 83 85  1  0  0  0
 83161  1  0  0  0
 83162  1  0  0  0
 84163  1  0  0  0
 84164  1  0  0  0
 85 87  1  0  0  0
 85165  1  0  0  0
 86166  1  0  0  0
 87167  1  0  0  0
M  ISO  4   1 100  68 101  84 101  86 100
M  END
> <chiral flag>
0

> <version>
0

> <s_m_source_file>
/data/baiqing/PycharmProjects/Reinvent-master-3.2/result/LINK_invent/BTK/process_docking_weight1_custom_product_contain_oxygen_bond_distance_aromatic_linkinvent_7_9_3/rearranged_h_0148.sdf

> <i_m_source_file_index>
61

> <r_mmod_Potential_Energy-OPLS-2005>
71.6222915649414

> <r_mmod_Stretch_Energy-OPLS-2005>
43.7483444213867

> <r_mmod_Bend_Energy-OPLS-2005>
131.028961181641

> <r_mmod_Torsional_Energy-OPLS-2005>
245.509872436523

> <r_mmod_Improper_Torsional_Energy-OPLS-2005>
6.02721309661865

> <r_mmod_Van_der_Waal_Energy-OPLS-2005>
153.690200805664

> <r_mmod_Electrostatic_Energy-OPLS-2005>
-297.020874023438

> <r_mmod_Solvation_Energy-OPLS-2005>
-226.889999389648

> <b_mmod_Minimization_Converged-OPLS-2005>
0

> <r_mmod_RMS_Derivative-OPLS-2005>
0.694602072238922

$$$$
61
                    3D
 Structure written by MMmdl.
170179  0  0  1  0            999 V2000
  -30.7401  -14.4547   20.4038 C   0  0  0  0  0  0
  -30.4037  -12.2272   19.4454 C   0  0  0  0  0  0
  -29.4914  -12.3356   18.2066 C   0  0  0  0  0  0
  -27.9967  -12.3379   18.6128 C   0  0  0  0  0  0
  -27.6480  -13.2038   19.8596 C   0  0  2  0  0  0
  -28.7075  -13.0734   20.9737 C   0  0  0  0  0  0
  -25.2578  -13.8155   20.5738 C   0  0  0  0  0  0
  -24.1835  -13.0447   20.9224 C   0  0  0  0  0  0
  -24.6395  -11.6904   20.8819 C   0  0  0  0  0  0
  -23.9071  -10.4299   21.0461 C   0  0  0  0  0  0
  -24.3630   -9.4203   21.9219 C   0  0  0  0  0  0
  -23.6314   -8.2228   22.0747 C   0  0  0  0  0  0
  -22.4288   -8.0282   21.3535 C   0  0  0  0  0  0
  -21.9942   -9.0269   20.4644 C   0  0  0  0  0  0
  -22.7263  -10.2152   20.3088 C   0  0  0  0  0  0
  -21.6847   -6.0776   22.5280 C   0  0  0  0  0  0
  -21.4014   -6.5678   23.8222 C   0  0  0  0  0  0
  -21.3646   -5.6816   24.9175 C   0  0  0  0  0  0
  -21.6036   -4.3079   24.7209 C   0  0  0  0  0  0
  -21.8824   -3.8186   23.4322 C   0  0  0  0  0  0
  -21.9195   -4.7012   22.3392 C   0  0  0  0  0  0
  -22.7848  -13.5217   21.1886 C   0  0  0  0  0  0
  -22.1664   -4.2217   21.0963 F   0  0  0  0  0  0
  -21.5619   -3.4544   25.7710 F   0  0  0  0  0  0
  -30.0274  -13.2997   20.3687 N   0  0  0  0  0  0
  -26.2988  -12.9297   20.3401 N   0  0  0  0  0  0
  -25.9323  -11.6470   20.5889 N   0  0  0  0  0  0
  -22.0501  -12.8190   22.0431 N   0  0  0  0  0  0
  -25.4344  -15.1888   20.4154 N   0  0  0  0  0  0
  -31.9665  -14.4911   20.3003 O   0  0  0  0  0  0
  -21.6619   -6.8905   21.4238 O   0  0  0  0  0  0
  -22.3516  -14.5516   20.6721 O   0  0  0  0  0  0
  -24.6058  -31.8711   23.2119 C   0  0  0  0  0  0
  -25.8969  -32.4828   23.8409 C   0  0  1  0  0  0
  -27.2525  -27.4792   20.0663 C   0  0  0  0  0  0
  -25.5878  -33.8631   24.2333 N   0  0  0  0  0  0
  -23.3937  -30.4884   21.5532 C   0  0  2  0  0  0
  -24.8413  -28.9584   20.1190 C   0  0  0  0  0  0
  -22.7387  -29.4614   22.5028 C   0  0  0  0  0  0
  -18.0253  -28.1297   22.8471 C   0  0  0  0  0  0
  -24.1493  -36.7310   23.2643 C   0  0  0  0  0  0
  -25.9187  -30.8419   21.3638 C   0  0  0  0  0  0
  -25.9961  -29.4789   20.7127 C   0  0  0  0  0  0
  -27.1947  -28.7395   20.6945 C   0  0  0  0  0  0
  -26.0678  -26.9492   19.4954 C   0  0  0  0  0  0
  -24.8689  -27.6883   19.5163 C   0  0  0  0  0  0
  -23.6013  -29.8185   20.1690 C   0  0  0  0  0  0
  -25.4113  -36.3113   24.0341 C   0  0  1  0  0  0
  -20.5843  -28.3565   23.1334 C   0  0  2  0  0  0
  -20.6734  -26.9308   22.5415 C   0  0  0  0  0  0
  -19.5738  -26.6321   21.5175 C   0  0  0  0  0  0
  -18.1907  -26.7837   22.1586 C   0  0  0  0  0  0
  -19.1510  -28.8752   23.2883 C   0  0  0  0  0  0
  -18.9438  -30.1361   23.8877 C   0  0  0  0  0  0
  -17.6449  -30.6521   24.0523 C   0  0  0  0  0  0
  -25.9036  -34.9480   23.5141 C   0  0  0  0  0  0
  -16.5339  -29.9023   23.6292 C   0  0  0  0  0  0
  -16.7251  -28.6436   23.0322 C   0  0  0  0  0  0
  -26.4438  -31.6606   25.0707 C   0  0  0  0  0  0
  -25.3738  -31.3704   26.1486 C   0  0  0  0  0  0
  -27.0261  -30.3076   24.5995 C   0  0  0  0  0  0
  -27.6008  -32.4336   25.7477 C   0  0  0  0  0  0
  -27.5587  -37.1804   24.8468 C   0  0  0  0  0  0
  -21.4121  -29.2971   22.3782 N   0  0  0  0  0  0
  -26.4301  -37.3785   23.9412 N   0  0  0  0  0  0
  -24.6572  -31.0831   22.1007 N   0  0  0  0  0  0
  -23.4180  -28.8124   23.3033 O   0  0  0  0  0  0
  -28.4786  -26.8502   20.0736 O   0  0  0  0  0  0
  -26.5590  -34.8923   22.4694 O   0  0  0  0  0  0
  -23.5257  -32.1458   23.7533 O   0  0  0  0  0  0
  -31.1511  -19.2559   20.2465 C   0  0  0  0  0  0
  -32.0522  -19.8561   18.0521 C   0  0  0  0  0  0
  -31.0530  -17.9080   19.8452 C   0  0  0  0  0  0
  -31.3676  -17.5719   18.5026 C   0  0  0  0  0  0
  -31.9671  -18.5162   17.6402 C   0  0  0  0  0  0
  -31.5373  -20.2395   19.3053 C   0  0  0  0  0  0
  -30.0189  -22.0738   19.5669 C   0  0  0  0  0  0
  -30.8490  -16.2638   17.9485 C   0  0  0  0  0  0
  -30.4649  -16.8566   20.8086 C   0  0  0  0  0  0
  -29.6298  -15.8453   18.7845 C   0  0  0  0  0  0
  -32.3938  -18.1493   16.2272 C   0  0  0  0  0  0
  -28.3241  -24.1602   21.0319 C   0  0  0  0  0  0
  -30.6673  -25.0590   20.7178 C   0  0  0  0  0  0
  -29.7361  -23.4680   18.9885 C   0  0  0  0  0  0
  -28.7833  -25.7796   19.1850 C   0  0  0  0  0  0
  -29.3818  -24.6018   19.9935 C   0  0  0  0  0  0
  -30.0348  -15.5880   20.1779 N   0  0  0  0  0  0
  -31.2811  -21.6148   19.5091 N   0  0  0  0  0  0
  -29.0861  -21.4115   20.0318 O   0  0  0  0  0  0
  -31.4551  -12.2653   19.1548 H   0  0  0  0  0  0
  -30.2594  -11.2609   19.9336 H   0  0  0  0  0  0
  -29.6764  -11.4805   17.5542 H   0  0  0  0  0  0
  -29.7579  -13.1914   17.5930 H   0  0  0  0  0  0
  -27.7352  -11.3000   18.8163 H   0  0  0  0  0  0
  -27.3713  -12.6351   17.7689 H   0  0  0  0  0  0
  -27.6421  -14.2388   19.5401 H   0  0  0  0  0  0
  -28.6677  -12.0828   21.4321 H   0  0  0  0  0  0
  -28.5151  -13.7954   21.7697 H   0  0  0  0  0  0
  -25.2775   -9.5661   22.4796 H   0  0  0  0  0  0
  -24.0046   -7.4594   22.7425 H   0  0  0  0  0  0
  -21.0897   -8.8797   19.8913 H   0  0  0  0  0  0
  -22.3750  -10.9716   19.6208 H   0  0  0  0  0  0
  -21.2011   -7.6185   23.9754 H   0  0  0  0  0  0
  -21.1453   -6.0529   25.9085 H   0  0  0  0  0  0
  -22.0617   -2.7653   23.2788 H   0  0  0  0  0  0
  -22.4141  -11.9828   22.4753 H   0  0  0  0  0  0
  -21.1129  -13.1190   22.2703 H   0  0  0  0  0  0
  -24.6784  -15.8542   20.5385 H   0  0  0  0  0  0
  -26.3015  -15.6245   20.1258 H   0  0  0  0  0  0
  -26.7022  -32.5551   23.1161 H   0  0  0  0  0  0
  -25.0044  -33.9820   25.0483 H   0  0  0  0  0  0
  -22.6762  -31.2983   21.4110 H   0  0  0  0  0  0
  -23.3757  -35.9643   23.3326 H   0  0  0  0  0  0
  -24.3583  -36.8903   22.2055 H   0  0  0  0  0  0
  -23.7252  -37.6516   23.6645 H   0  0  0  0  0  0
  -26.0327  -31.6109   20.5986 H   0  0  0  0  0  0
  -26.8053  -30.8931   21.9839 H   0  0  0  0  0  0
  -28.0887  -29.1404   21.1530 H   0  0  0  0  0  0
  -26.0316  -25.9718   19.0398 H   0  0  0  0  0  0
  -23.9768  -27.2747   19.0641 H   0  0  0  0  0  0
  -23.7045  -30.5916   19.4075 H   0  0  0  0  0  0
  -22.7274  -29.2337   19.8747 H   0  0  0  0  0  0
  -25.1288  -36.1984   25.0829 H   0  0  0  0  0  0
  -20.9903  -28.3096   24.1469 H   0  0  0  0  0  0
  -20.5580  -26.2167   23.3578 H   0  0  0  0  0  0
  -21.6606  -26.7317   22.1240 H   0  0  0  0  0  0
  -19.6903  -25.6244   21.1175 H   0  0  0  0  0  0
  -19.6678  -27.3138   20.6709 H   0  0  0  0  0  0
  -17.4167  -26.6545   21.3990 H   0  0  0  0  0  0
  -18.0333  -25.9959   22.8974 H   0  0  0  0  0  0
  -19.7936  -30.7147   24.2247 H   0  0  0  0  0  0
  -17.5027  -31.6207   24.5105 H   0  0  0  0  0  0
  -15.5340  -30.2925   23.7619 H   0  0  0  0  0  0
  -15.8642  -28.0762   22.7038 H   0  0  0  0  0  0
  -24.5890  -30.7045   25.7879 H   0  0  0  0  0  0
  -24.8939  -32.2865   26.4959 H   0  0  0  0  0  0
  -25.8134  -30.8890   27.0239 H   0  0  0  0  0  0
  -26.2776  -29.6858   24.1063 H   0  0  0  0  0  0
  -27.4128  -29.7250   25.4367 H   0  0  0  0  0  0
  -27.8566  -30.4453   23.9063 H   0  0  0  0  0  0
  -27.2598  -33.3630   26.2065 H   0  0  0  0  0  0
  -28.3814  -32.6927   25.0308 H   0  0  0  0  0  0
  -28.0668  -31.8460   26.5399 H   0  0  0  0  0  0
  -28.2595  -38.0109   24.7517 H   0  0  0  0  0  0
  -28.1087  -36.2637   24.6292 H   0  0  0  0  0  0
  -27.2302  -37.1455   25.8869 H   0  0  0  0  0  0
  -20.9245  -29.8779   21.7102 H   0  0  0  0  0  0
  -26.0197  -38.2863   24.1413 H   0  0  0  0  0  0
  -30.7996  -19.5541   21.2246 H   0  0  0  0  0  0
  -32.3818  -20.6033   17.3461 H   0  0  0  0  0  0
  -31.6366  -15.5091   17.9368 H   0  0  0  0  0  0
  -30.5281  -16.3981   16.9150 H   0  0  0  0  0  0
  -29.6029  -17.2824   21.3211 H   0  0  0  0  0  0
  -31.2060  -16.6632   21.5861 H   0  0  0  0  0  0
  -29.1465  -15.0083   18.3042 H   0  0  0  0  0  0
  -28.8779  -16.6384   18.7649 H   0  0  0  0  0  0
  -33.1878  -18.8057   15.8716 H   0  0  0  0  0  0
  -31.5493  -18.2450   15.5451 H   0  0  0  0  0  0
  -32.7660  -17.1253   16.1720 H   0  0  0  0  0  0
  -28.7072  -23.3988   21.7122 H   0  0  0  0  0  0
  -27.4390  -23.7546   20.5409 H   0  0  0  0  0  0
  -27.9946  -24.9912   21.6563 H   0  0  0  0  0  0
  -31.1482  -24.2377   21.2519 H   0  0  0  0  0  0
  -30.4580  -25.8414   21.4481 H   0  0  0  0  0  0
  -31.3990  -25.4614   20.0164 H   0  0  0  0  0  0
  -28.9027  -23.3295   18.2974 H   0  0  0  0  0  0
  -30.5704  -23.7771   18.3562 H   0  0  0  0  0  0
  -27.9446  -25.4378   18.5864 H   0  0  0  0  0  0
  -29.5090  -26.1538   18.4610 H   0  0  0  0  0  0
  -31.9579  -22.2629   19.1308 H   0  0  0  0  0  0
  1 25  1  0  0  0
  1 30  2  0  0  0
  1 87  1  0  0  0
  2  3  1  0  0  0
  2 25  1  0  0  0
  2 90  1  0  0  0
  2 91  1  0  0  0
  3  4  1  0  0  0
  3 92  1  0  0  0
  3 93  1  0  0  0
  4  5  1  0  0  0
  4 94  1  0  0  0
  4 95  1  0  0  0
  5  6  1  0  0  0
  5 26  1  0  0  0
  5 96  1  0  0  0
  6 25  1  0  0  0
  6 97  1  0  0  0
  6 98  1  0  0  0
  7  8  2  0  0  0
  7 26  1  0  0  0
  7 29  1  0  0  0
  8  9  1  0  0  0
  8 22  1  0  0  0
  9 10  1  0  0  0
  9 27  2  0  0  0
 10 11  2  0  0  0
 10 15  1  0  0  0
 11 12  1  0  0  0
 11 99  1  0  0  0
 12 13  2  0  0  0
 12100  1  0  0  0
 13 14  1  0  0  0
 13 31  1  0  0  0
 14 15  2  0  0  0
 14101  1  0  0  0
 15102  1  0  0  0
 16 17  2  0  0  0
 16 21  1  0  0  0
 16 31  1  0  0  0
 17 18  1  0  0  0
 17103  1  0  0  0
 18 19  2  0  0  0
 18104  1  0  0  0
 19 20  1  0  0  0
 19 24  1  0  0  0
 20 21  2  0  0  0
 20105  1  0  0  0
 21 23  1  0  0  0
 22 28  1  0  0  0
 22 32  2  0  0  0
 26 27  1  0  0  0
 28106  1  0  0  0
 28107  1  0  0  0
 29108  1  0  0  0
 29109  1  0  0  0
 33 34  1  0  0  0
 33 66  1  0  0  0
 33 70  2  0  0  0
 34 36  1  0  0  0
 34 59  1  0  0  0
 34110  1  0  0  0
 35 44  2  0  0  0
 35 45  1  0  0  0
 35 68  1  0  0  0
 36 56  1  0  0  0
 36111  1  0  0  0
 37 39  1  0  0  0
 37 47  1  0  0  0
 37 66  1  0  0  0
 37112  1  0  0  0
 38 43  2  0  0  0
 38 46  1  0  0  0
 38 47  1  0  0  0
 39 64  1  0  0  0
 39 67  2  0  0  0
 40 52  1  0  0  0
 40 53  2  0  0  0
 40 58  1  0  0  0
 41113  1  0  0  0
 41114  1  0  0  0
 41115  1  0  0  0
 41 48  1  0  0  0
 42 43  1  0  0  0
 42 66  1  0  0  0
 42116  1  0  0  0
 42117  1  0  0  0
 43 44  1  0  0  0
 44118  1  0  0  0
 45 46  2  0  0  0
 45119  1  0  0  0
 46120  1  0  0  0
 47121  1  0  0  0
 47122  1  0  0  0
 48 56  1  0  0  0
 48 65  1  0  0  0
 48123  1  0  0  0
 49 50  1  0  0  0
 49 53  1  0  0  0
 49 64  1  0  0  0
 49124  1  0  0  0
 50 51  1  0  0  0
 50125  1  0  0  0
 50126  1  0  0  0
 51 52  1  0  0  0
 51127  1  0  0  0
 51128  1  0  0  0
 52129  1  0  0  0
 52130  1  0  0  0
 53 54  1  0  0  0
 54 55  2  0  0  0
 54131  1  0  0  0
 55 57  1  0  0  0
 55132  1  0  0  0
 56 69  2  0  0  0
 57 58  2  0  0  0
 57133  1  0  0  0
 58134  1  0  0  0
 59 60  1  0  0  0
 59 61  1  0  0  0
 59 62  1  0  0  0
 60135  1  0  0  0
 60136  1  0  0  0
 60137  1  0  0  0
 61138  1  0  0  0
 61139  1  0  0  0
 61140  1  0  0  0
 62141  1  0  0  0
 62142  1  0  0  0
 62143  1  0  0  0
 63 65  1  0  0  0
 63144  1  0  0  0
 63145  1  0  0  0
 63146  1  0  0  0
 64147  1  0  0  0
 65148  1  0  0  0
 68 85  1  0  0  0
 71 73  2  0  0  0
 71 76  1  0  0  0
 71149  1  0  0  0
 72 75  1  0  0  0
 72 76  2  0  0  0
 72150  1  0  0  0
 73 74  1  0  0  0
 73 79  1  0  0  0
 74 75  2  0  0  0
 74 78  1  0  0  0
 75 81  1  0  0  0
 76 88  1  0  0  0
 77 84  1  0  0  0
 77 88  1  0  0  0
 77 89  2  0  0  0
 78 80  1  0  0  0
 78151  1  0  0  0
 78152  1  0  0  0
 79 87  1  0  0  0
 79153  1  0  0  0
 79154  1  0  0  0
 80 87  1  0  0  0
 80155  1  0  0  0
 80156  1  0  0  0
 81157  1  0  0  0
 81158  1  0  0  0
 81159  1  0  0  0
 82160  1  0  0  0
 82161  1  0  0  0
 82162  1  0  0  0
 82 86  1  0  0  0
 83 86  1  0  0  0
 83163  1  0  0  0
 83164  1  0  0  0
 83165  1  0  0  0
 84 86  1  0  0  0
 84166  1  0  0  0
 84167  1  0  0  0
 85 86  1  0  0  0
 85168  1  0  0  0
 85169  1  0  0  0
 88170  1  0  0  0
M  ISO  4   1 100  68 101  85 101  87 100
M  END
> <chiral flag>
0

> <version>
0

> <s_m_source_file>
/data/baiqing/PycharmProjects/Reinvent-master-3.2/result/LINK_invent/BTK/process_docking_weight1_custom_product_contain_oxygen_bond_distance_aromatic_linkinvent_7_9_3/rearranged_h_0148.sdf

> <i_m_source_file_index>
62

> <r_mmod_Potential_Energy-OPLS-2005>
196.069458007812

> <r_mmod_Stretch_Energy-OPLS-2005>
38.0226860046387

> <r_mmod_Bend_Energy-OPLS-2005>
124.020027160645

> <r_mmod_Torsional_Energy-OPLS-2005>
354.165313720703

> <r_mmod_Improper_Torsional_Energy-OPLS-2005>
18.596076965332

> <r_mmod_Van_der_Waal_Energy-OPLS-2005>
185.449264526367

> <r_mmod_Electrostatic_Energy-OPLS-2005>
-343.172210693359

> <r_mmod_Solvation_Energy-OPLS-2005>
-217.804580688477

> <b_mmod_Minimization_Converged-OPLS-2005>
0

> <r_mmod_RMS_Derivative-OPLS-2005>
3.17442011833191

$$$$
62
                    3D
 Structure written by MMmdl.
165174  0  0  1  0            999 V2000
  -30.6236  -14.6560   20.4583 C   0  0  0  0  0  0
  -30.4278  -12.3841   19.4793 C   0  0  0  0  0  0
  -29.5174  -12.5039   18.2365 C   0  0  0  0  0  0
  -28.0328  -12.3666   18.6315 C   0  0  0  0  0  0
  -27.6514  -13.2302   19.8639 C   0  0  2  0  0  0
  -28.6910  -13.1030   21.0003 C   0  0  0  0  0  0
  -25.2534  -13.8200   20.5686 C   0  0  0  0  0  0
  -24.1805  -13.0455   20.9182 C   0  0  0  0  0  0
  -24.6397  -11.6930   20.8746 C   0  0  0  0  0  0
  -23.9087  -10.4304   21.0428 C   0  0  0  0  0  0
  -24.3628   -9.4211   21.9203 C   0  0  0  0  0  0
  -23.6292   -8.2251   22.0760 C   0  0  0  0  0  0
  -22.4275   -8.0295   21.3550 C   0  0  0  0  0  0
  -21.9922   -9.0282   20.4657 C   0  0  0  0  0  0
  -22.7266  -10.2147   20.3074 C   0  0  0  0  0  0
  -21.6852   -6.0739   22.5277 C   0  0  0  0  0  0
  -21.4013   -6.5637   23.8207 C   0  0  0  0  0  0
  -21.3649   -5.6784   24.9168 C   0  0  0  0  0  0
  -21.6040   -4.3049   24.7207 C   0  0  0  0  0  0
  -21.8817   -3.8150   23.4329 C   0  0  0  0  0  0
  -21.9192   -4.6975   22.3389 C   0  0  0  0  0  0
  -22.7828  -13.5251   21.1843 C   0  0  0  0  0  0
  -22.1662   -4.2167   21.0965 F   0  0  0  0  0  0
  -21.5631   -3.4526   25.7718 F   0  0  0  0  0  0
  -30.0094  -13.4290   20.4385 N   0  0  0  0  0  0
  -26.2968  -12.9405   20.3305 N   0  0  0  0  0  0
  -25.9330  -11.6553   20.5751 N   0  0  0  0  0  0
  -22.0451  -12.8267   22.0410 N   0  0  0  0  0  0
  -25.4267  -15.1919   20.4123 N   0  0  0  0  0  0
  -31.7879  -14.7867   20.0677 O   0  0  0  0  0  0
  -21.6639   -6.8891   21.4240 O   0  0  0  0  0  0
  -22.3526  -14.5570   20.6700 O   0  0  0  0  0  0
  -24.6279  -31.8584   23.2034 C   0  0  0  0  0  0
  -25.9128  -32.4764   23.8362 C   0  0  1  0  0  0
  -27.2204  -27.3132   20.1101 C   0  0  0  0  0  0
  -25.5935  -33.8564   24.2274 N   0  0  0  0  0  0
  -23.4211  -30.4838   21.5457 C   0  0  2  0  0  0
  -24.8667  -28.9423   20.1078 C   0  0  0  0  0  0
  -22.7481  -29.4613   22.4932 C   0  0  0  0  0  0
  -18.0290  -28.1385   22.8483 C   0  0  0  0  0  0
  -24.1482  -36.7281   23.2638 C   0  0  0  0  0  0
  -25.9637  -30.7872   21.3764 C   0  0  0  0  0  0
  -26.0370  -29.4156   20.7147 C   0  0  0  0  0  0
  -27.2171  -28.6122   20.7071 C   0  0  0  0  0  0
  -26.0298  -26.9027   19.4679 C   0  0  0  0  0  0
  -24.8659  -27.6914   19.4743 C   0  0  0  0  0  0
  -23.6353  -29.8217   20.1598 C   0  0  0  0  0  0
  -25.4105  -36.3057   24.0320 C   0  0  1  0  0  0
  -20.5888  -28.3684   23.1278 C   0  0  2  0  0  0
  -20.6776  -26.9407   22.5402 C   0  0  0  0  0  0
  -19.5749  -26.6385   21.5207 C   0  0  0  0  0  0
  -18.1932  -26.7936   22.1618 C   0  0  0  0  0  0
  -19.1546  -28.8854   23.2878 C   0  0  0  0  0  0
  -18.9464  -30.1461   23.8896 C   0  0  0  0  0  0
  -17.6465  -30.6587   24.0561 C   0  0  0  0  0  0
  -25.9048  -34.9434   23.5090 C   0  0  0  0  0  0
  -16.5355  -29.9082   23.6335 C   0  0  0  0  0  0
  -16.7277  -28.6499   23.0354 C   0  0  0  0  0  0
  -26.4517  -31.6581   25.0737 C   0  0  0  0  0  0
  -25.3761  -31.3722   26.1470 C   0  0  0  0  0  0
  -27.0361  -30.3000   24.6203 C   0  0  0  0  0  0
  -27.6069  -32.4324   25.7510 C   0  0  0  0  0  0
  -27.5562  -37.1793   24.8462 C   0  0  0  0  0  0
  -21.4190  -29.3038   22.3668 N   0  0  0  0  0  0
  -26.4273  -37.3758   23.9405 N   0  0  0  0  0  0
  -24.6895  -31.0603   22.0979 N   0  0  0  0  0  0
  -23.4203  -28.8147   23.3007 O   0  0  0  0  0  0
  -28.3256  -26.4454   20.1669 O   0  0  0  0  0  0
  -26.5612  -34.8903   22.4653 O   0  0  0  0  0  0
  -23.5443  -32.1379   23.7365 O   0  0  0  0  0  0
  -29.1199  -19.2326   18.3157 C   0  0  0  0  0  0
  -29.4235  -16.8220   18.6028 C   0  0  0  0  0  0
  -29.6572  -18.3317   20.5068 C   0  0  0  0  0  0
  -29.1258  -17.9276   17.7835 C   0  0  0  0  0  0
  -29.3973  -19.4921   19.6787 C   0  0  0  0  0  0
  -29.6956  -16.9803   19.9804 C   0  0  0  0  0  0
  -28.3964  -22.7324   21.5173 C   0  0  0  0  0  0
  -30.1490  -23.2976   19.7976 C   0  0  0  0  0  0
  -28.1887  -21.3635   20.7781 C   0  0  0  0  0  0
  -29.8290  -21.9007   19.1664 C   0  0  0  0  0  0
  -29.0874  -23.9380   20.7588 C   0  0  0  0  0  0
  -28.7797  -17.7257   16.3211 C   0  0  0  0  0  0
  -29.8509  -24.7592   21.8236 C   0  0  0  0  0  0
  -28.0727  -24.9792   20.0798 C   0  0  0  0  0  0
  -29.4131  -20.8641   20.1391 N   0  0  0  0  0  0
  -29.8594  -15.7548   20.7736 N   0  0  0  0  0  0
  -31.4775  -12.4755   19.1950 H   0  0  0  0  0  0
  -30.3284  -11.3966   19.9318 H   0  0  0  0  0  0
  -29.7798  -11.7456   17.4978 H   0  0  0  0  0  0
  -29.6833  -13.4664   17.7506 H   0  0  0  0  0  0
  -27.8405  -11.3132   18.8402 H   0  0  0  0  0  0
  -27.3984  -12.6275   17.7834 H   0  0  0  0  0  0
  -27.6662  -14.2664   19.5267 H   0  0  0  0  0  0
  -28.6916  -12.0906   21.4043 H   0  0  0  0  0  0
  -28.4387  -13.7575   21.8363 H   0  0  0  0  0  0
  -25.2761   -9.5670   22.4795 H   0  0  0  0  0  0
  -23.9983   -7.4626   22.7466 H   0  0  0  0  0  0
  -21.0850   -8.8833   19.8953 H   0  0  0  0  0  0
  -22.3748  -10.9704   19.6189 H   0  0  0  0  0  0
  -21.2013   -7.6144   23.9708 H   0  0  0  0  0  0
  -21.1475   -6.0519   25.9068 H   0  0  0  0  0  0
  -22.0614   -2.7613   23.2826 H   0  0  0  0  0  0
  -22.4034  -11.9920   22.4804 H   0  0  0  0  0  0
  -21.1085  -13.1341   22.2628 H   0  0  0  0  0  0
  -24.6599  -15.8480   20.5121 H   0  0  0  0  0  0
  -26.2788  -15.6290   20.0855 H   0  0  0  0  0  0
  -26.7195  -32.5430   23.1111 H   0  0  0  0  0  0
  -25.0091  -33.9715   25.0422 H   0  0  0  0  0  0
  -22.7151  -31.3046   21.4043 H   0  0  0  0  0  0
  -23.3731  -35.9628   23.3308 H   0  0  0  0  0  0
  -24.3571  -36.8903   22.2051 H   0  0  0  0  0  0
  -23.7265  -37.6491   23.6670 H   0  0  0  0  0  0
  -26.0999  -31.5541   20.6127 H   0  0  0  0  0  0
  -26.8413  -30.8319   22.0094 H   0  0  0  0  0  0
  -28.1122  -28.9678   21.1974 H   0  0  0  0  0  0
  -25.9725  -25.9517   18.9611 H   0  0  0  0  0  0
  -23.9713  -27.3264   18.9883 H   0  0  0  0  0  0
  -23.7536  -30.5993   19.4039 H   0  0  0  0  0  0
  -22.7554  -29.2508   19.8570 H   0  0  0  0  0  0
  -25.1289  -36.1890   25.0813 H   0  0  0  0  0  0
  -20.9988  -28.3260   24.1395 H   0  0  0  0  0  0
  -20.5675  -26.2292   23.3598 H   0  0  0  0  0  0
  -21.6646  -26.7436   22.1200 H   0  0  0  0  0  0
  -19.6906  -25.6297   21.1240 H   0  0  0  0  0  0
  -19.6688  -27.3191   20.6735 H   0  0  0  0  0  0
  -17.4197  -26.6685   21.4022 H   0  0  0  0  0  0
  -18.0326  -26.0080   22.9013 H   0  0  0  0  0  0
  -19.7941  -30.7279   24.2258 H   0  0  0  0  0  0
  -17.5018  -31.6273   24.5158 H   0  0  0  0  0  0
  -15.5355  -30.2977   23.7670 H   0  0  0  0  0  0
  -15.8678  -28.0818   22.7071 H   0  0  0  0  0  0
  -24.5929  -30.7073   25.7811 H   0  0  0  0  0  0
  -24.8974  -32.2895   26.4910 H   0  0  0  0  0  0
  -25.8107  -30.8895   27.0235 H   0  0  0  0  0  0
  -26.2934  -29.6743   24.1238 H   0  0  0  0  0  0
  -27.4058  -29.7265   25.4715 H   0  0  0  0  0  0
  -27.8810  -30.4270   23.9429 H   0  0  0  0  0  0
  -27.2662  -33.3610   26.2101 H   0  0  0  0  0  0
  -28.3878  -32.6908   25.0345 H   0  0  0  0  0  0
  -28.0743  -31.8453   26.5425 H   0  0  0  0  0  0
  -28.2582  -38.0082   24.7487 H   0  0  0  0  0  0
  -28.1052  -36.2618   24.6304 H   0  0  0  0  0  0
  -27.2287  -37.1467   25.8866 H   0  0  0  0  0  0
  -20.9361  -29.8761   21.6884 H   0  0  0  0  0  0
  -26.0141  -38.2822   24.1420 H   0  0  0  0  0  0
  -28.8811  -20.0387   17.6371 H   0  0  0  0  0  0
  -29.4013  -15.8322   18.1684 H   0  0  0  0  0  0
  -29.8423  -18.4837   21.5605 H   0  0  0  0  0  0
  -28.9990  -22.4867   22.3930 H   0  0  0  0  0  0
  -27.4431  -23.0564   21.9363 H   0  0  0  0  0  0
  -30.3842  -24.0047   19.0013 H   0  0  0  0  0  0
  -31.0861  -23.1717   20.3405 H   0  0  0  0  0  0
  -27.4069  -21.4741   20.0232 H   0  0  0  0  0  0
  -27.8209  -20.6189   21.4868 H   0  0  0  0  0  0
  -30.7081  -21.5528   18.6206 H   0  0  0  0  0  0
  -29.0443  -22.0418   18.4210 H   0  0  0  0  0  0
  -29.3873  -18.3729   15.6872 H   0  0  0  0  0  0
  -27.7309  -17.9712   16.1485 H   0  0  0  0  0  0
  -28.9414  -16.6962   16.0000 H   0  0  0  0  0  0
  -30.5495  -24.1449   22.3930 H   0  0  0  0  0  0
  -29.1660  -25.2175   22.5385 H   0  0  0  0  0  0
  -30.4356  -25.5579   21.3658 H   0  0  0  0  0  0
  -27.1078  -24.7984   20.5530 H   0  0  0  0  0  0
  -27.9351  -24.7107   19.0323 H   0  0  0  0  0  0
  -29.0503  -15.5245   21.3305 H   0  0  0  0  0  0
  1 25  1  0  0  0
  1 30  2  0  0  0
  1 86  1  0  0  0
  2  3  1  0  0  0
  2 25  1  0  0  0
  2 87  1  0  0  0
  2 88  1  0  0  0
  3  4  1  0  0  0
  3 89  1  0  0  0
  3 90  1  0  0  0
  4  5  1  0  0  0
  4 91  1  0  0  0
  4 92  1  0  0  0
  5  6  1  0  0  0
  5 26  1  0  0  0
  5 93  1  0  0  0
  6 25  1  0  0  0
  6 94  1  0  0  0
  6 95  1  0  0  0
  7  8  2  0  0  0
  7 26  1  0  0  0
  7 29  1  0  0  0
  8  9  1  0  0  0
  8 22  1  0  0  0
  9 10  1  0  0  0
  9 27  2  0  0  0
 10 11  2  0  0  0
 10 15  1  0  0  0
 11 12  1  0  0  0
 11 96  1  0  0  0
 12 13  2  0  0  0
 12 97  1  0  0  0
 13 14  1  0  0  0
 13 31  1  0  0  0
 14 15  2  0  0  0
 14 98  1  0  0  0
 15 99  1  0  0  0
 16 17  2  0  0  0
 16 21  1  0  0  0
 16 31  1  0  0  0
 17 18  1  0  0  0
 17100  1  0  0  0
 18 19  2  0  0  0
 18101  1  0  0  0
 19 20  1  0  0  0
 19 24  1  0  0  0
 20 21  2  0  0  0
 20102  1  0  0  0
 21 23  1  0  0  0
 22 28  1  0  0  0
 22 32  2  0  0  0
 26 27  1  0  0  0
 28103  1  0  0  0
 28104  1  0  0  0
 29105  1  0  0  0
 29106  1  0  0  0
 33 34  1  0  0  0
 33 66  1  0  0  0
 33 70  2  0  0  0
 34 36  1  0  0  0
 34 59  1  0  0  0
 34107  1  0  0  0
 35 44  2  0  0  0
 35 45  1  0  0  0
 35 68  1  0  0  0
 36 56  1  0  0  0
 36108  1  0  0  0
 37 39  1  0  0  0
 37 47  1  0  0  0
 37 66  1  0  0  0
 37109  1  0  0  0
 38 43  2  0  0  0
 38 46  1  0  0  0
 38 47  1  0  0  0
 39 64  1  0  0  0
 39 67  2  0  0  0
 40 52  1  0  0  0
 40 53  2  0  0  0
 40 58  1  0  0  0
 41110  1  0  0  0
 41111  1  0  0  0
 41112  1  0  0  0
 41 48  1  0  0  0
 42 43  1  0  0  0
 42 66  1  0  0  0
 42113  1  0  0  0
 42114  1  0  0  0
 43 44  1  0  0  0
 44115  1  0  0  0
 45 46  2  0  0  0
 45116  1  0  0  0
 46117  1  0  0  0
 47118  1  0  0  0
 47119  1  0  0  0
 48 56  1  0  0  0
 48 65  1  0  0  0
 48120  1  0  0  0
 49 50  1  0  0  0
 49 53  1  0  0  0
 49 64  1  0  0  0
 49121  1  0  0  0
 50 51  1  0  0  0
 50122  1  0  0  0
 50123  1  0  0  0
 51 52  1  0  0  0
 51124  1  0  0  0
 51125  1  0  0  0
 52126  1  0  0  0
 52127  1  0  0  0
 53 54  1  0  0  0
 54 55  2  0  0  0
 54128  1  0  0  0
 55 57  1  0  0  0
 55129  1  0  0  0
 56 69  2  0  0  0
 57 58  2  0  0  0
 57130  1  0  0  0
 58131  1  0  0  0
 59 60  1  0  0  0
 59 61  1  0  0  0
 59 62  1  0  0  0
 60132  1  0  0  0
 60133  1  0  0  0
 60134  1  0  0  0
 61135  1  0  0  0
 61136  1  0  0  0
 61137  1  0  0  0
 62138  1  0  0  0
 62139  1  0  0  0
 62140  1  0  0  0
 63 65  1  0  0  0
 63141  1  0  0  0
 63142  1  0  0  0
 63143  1  0  0  0
 64144  1  0  0  0
 65145  1  0  0  0
 68 84  1  0  0  0
 71 74  2  0  0  0
 71 75  1  0  0  0
 71146  1  0  0  0
 72 74  1  0  0  0
 72 76  2  0  0  0
 72147  1  0  0  0
 73 75  2  0  0  0
 73 76  1  0  0  0
 73148  1  0  0  0
 74 82  1  0  0  0
 75 85  1  0  0  0
 76 86  1  0  0  0
 77 79  1  0  0  0
 77 81  1  0  0  0
 77149  1  0  0  0
 77150  1  0  0  0
 78 80  1  0  0  0
 78 81  1  0  0  0
 78151  1  0  0  0
 78152  1  0  0  0
 79 85  1  0  0  0
 79153  1  0  0  0
 79154  1  0  0  0
 80 85  1  0  0  0
 80155  1  0  0  0
 80156  1  0  0  0
 81 83  1  0  0  0
 81 84  1  0  0  0
 82157  1  0  0  0
 82158  1  0  0  0
 82159  1  0  0  0
 83160  1  0  0  0
 83161  1  0  0  0
 83162  1  0  0  0
 84163  1  0  0  0
 84164  1  0  0  0
 86165  1  0  0  0
M  ISO  4   1 100  68 101  84 101  86 100
M  END
> <chiral flag>
0

> <version>
0

> <s_m_source_file>
/data/baiqing/PycharmProjects/Reinvent-master-3.2/result/LINK_invent/BTK/process_docking_weight1_custom_product_contain_oxygen_bond_distance_aromatic_linkinvent_7_9_3/rearranged_h_0148.sdf

> <i_m_source_file_index>
63

> <r_mmod_Potential_Energy-OPLS-2005>
213.985321044922

> <r_mmod_Stretch_Energy-OPLS-2005>
90.9838943481445

> <r_mmod_Bend_Energy-OPLS-2005>
151.637405395508

> <r_mmod_Torsional_Energy-OPLS-2005>
320.032501220703

> <r_mmod_Improper_Torsional_Energy-OPLS-2005>
11.4445352554321

> <r_mmod_Van_der_Waal_Energy-OPLS-2005>
153.851654052734

> <r_mmod_Electrostatic_Energy-OPLS-2005>
-345.831359863281

> <r_mmod_Solvation_Energy-OPLS-2005>
-222.698623657227

> <b_mmod_Minimization_Converged-OPLS-2005>
0

> <r_mmod_RMS_Derivative-OPLS-2005>
2.1479868888855

$$$$
63
                    3D
 Structure written by MMmdl.
165174  0  0  1  0            999 V2000
  -30.6047  -14.6506   20.5033 C   0  0  0  0  0  0
  -30.4456  -12.4008   19.4498 C   0  0  0  0  0  0
  -29.5104  -12.5069   18.2231 C   0  0  0  0  0  0
  -28.0331  -12.3417   18.6353 C   0  0  0  0  0  0
  -27.6531  -13.2116   19.8625 C   0  0  2  0  0  0
  -28.6992  -13.0620   20.9909 C   0  0  0  0  0  0
  -25.2558  -13.8152   20.5685 C   0  0  0  0  0  0
  -24.1831  -13.0418   20.9214 C   0  0  0  0  0  0
  -24.6400  -11.6893   20.8759 C   0  0  0  0  0  0
  -23.9071  -10.4278   21.0418 C   0  0  0  0  0  0
  -24.3621   -9.4189   21.9193 C   0  0  0  0  0  0
  -23.6293   -8.2227   22.0762 C   0  0  0  0  0  0
  -22.4274   -8.0276   21.3550 C   0  0  0  0  0  0
  -21.9920   -9.0252   20.4646 C   0  0  0  0  0  0
  -22.7252  -10.2129   20.3056 C   0  0  0  0  0  0
  -21.6844   -6.0736   22.5284 C   0  0  0  0  0  0
  -21.4012   -6.5642   23.8219 C   0  0  0  0  0  0
  -21.3658   -5.6798   24.9184 C   0  0  0  0  0  0
  -21.6039   -4.3060   24.7230 C   0  0  0  0  0  0
  -21.8820   -3.8149   23.4352 C   0  0  0  0  0  0
  -21.9193   -4.6965   22.3406 C   0  0  0  0  0  0
  -22.7854  -13.5213   21.1874 C   0  0  0  0  0  0
  -22.1660   -4.2152   21.0982 F   0  0  0  0  0  0
  -21.5629   -3.4542   25.7740 F   0  0  0  0  0  0
  -30.0122  -13.4169   20.4278 N   0  0  0  0  0  0
  -26.2986  -12.9326   20.3305 N   0  0  0  0  0  0
  -25.9324  -11.6487   20.5751 N   0  0  0  0  0  0
  -22.0494  -12.8194   22.0424 N   0  0  0  0  0  0
  -25.4226  -15.1875   20.4070 N   0  0  0  0  0  0
  -31.7754  -14.8262   20.1513 O   0  0  0  0  0  0
  -21.6627   -6.8883   21.4249 O   0  0  0  0  0  0
  -22.3543  -14.5523   20.6724 O   0  0  0  0  0  0
  -24.6270  -31.8599   23.2037 C   0  0  0  0  0  0
  -25.9116  -32.4782   23.8368 C   0  0  1  0  0  0
  -27.2248  -27.3159   20.1125 C   0  0  0  0  0  0
  -25.5927  -33.8584   24.2288 N   0  0  0  0  0  0
  -23.4202  -30.4843   21.5476 C   0  0  2  0  0  0
  -24.8658  -28.9411   20.1134 C   0  0  0  0  0  0
  -22.7477  -29.4621   22.4947 C   0  0  0  0  0  0
  -18.0286  -28.1384   22.8496 C   0  0  0  0  0  0
  -24.1485  -36.7286   23.2640 C   0  0  0  0  0  0
  -25.9627  -30.7899   21.3747 C   0  0  0  0  0  0
  -26.0370  -29.4176   20.7159 C   0  0  0  0  0  0
  -27.2193  -28.6174   20.7049 C   0  0  0  0  0  0
  -26.0256  -26.8955   19.4877 C   0  0  0  0  0  0
  -24.8621  -27.6848   19.4917 C   0  0  0  0  0  0
  -23.6345  -29.8213   20.1629 C   0  0  0  0  0  0
  -25.4114  -36.3087   24.0330 C   0  0  1  0  0  0
  -20.5885  -28.3681   23.1287 C   0  0  2  0  0  0
  -20.6766  -26.9403   22.5419 C   0  0  0  0  0  0
  -19.5744  -26.6383   21.5214 C   0  0  0  0  0  0
  -18.1920  -26.7928   22.1626 C   0  0  0  0  0  0
  -19.1537  -28.8852   23.2888 C   0  0  0  0  0  0
  -18.9461  -30.1456   23.8896 C   0  0  0  0  0  0
  -17.6461  -30.6589   24.0565 C   0  0  0  0  0  0
  -25.9053  -34.9455   23.5106 C   0  0  0  0  0  0
  -16.5351  -29.9088   23.6333 C   0  0  0  0  0  0
  -16.7272  -28.6504   23.0356 C   0  0  0  0  0  0
  -26.4501  -31.6597   25.0738 C   0  0  0  0  0  0
  -25.3734  -31.3703   26.1459 C   0  0  0  0  0  0
  -27.0373  -30.3037   24.6184 C   0  0  0  0  0  0
  -27.6049  -32.4343   25.7521 C   0  0  0  0  0  0
  -27.5580  -37.1799   24.8469 C   0  0  0  0  0  0
  -21.4190  -29.3036   22.3686 N   0  0  0  0  0  0
  -26.4288  -37.3787   23.9419 N   0  0  0  0  0  0
  -24.6893  -31.0607   22.0990 N   0  0  0  0  0  0
  -23.4199  -28.8152   23.3020 O   0  0  0  0  0  0
  -28.3425  -26.4623   20.1643 O   0  0  0  0  0  0
  -26.5624  -34.8919   22.4673 O   0  0  0  0  0  0
  -23.5434  -32.1399   23.7353 O   0  0  0  0  0  0
  -28.6906  -19.3352   20.4082 C   0  0  0  0  0  0
  -28.6836  -17.9108   20.4547 C   0  0  0  0  0  0
  -31.0394  -17.8902   20.8937 C   0  0  0  0  0  0
  -31.0586  -19.3254   20.8750 C   0  0  0  0  0  0
  -29.8638  -20.1021   20.6344 C   0  0  0  0  0  0
  -29.8538  -17.1422   20.6942 C   0  0  0  0  0  0
  -32.3833  -19.9306   21.0853 C   0  0  0  0  0  0
  -29.5919  -23.7259   21.7173 C   0  0  0  0  0  0
  -30.1667  -22.2897   21.8594 C   0  0  0  0  0  0
  -28.8996  -22.4295   19.8769 C   0  0  0  0  0  0
  -29.2628  -23.9320   20.2278 C   0  0  2  0  0  0
  -30.5218  -24.3537   19.4431 C   0  0  0  0  0  0
  -28.1192  -25.0113   19.9457 C   0  0  0  0  0  0
  -29.8153  -21.5507   20.6435 N   0  0  0  0  0  0
  -33.1690  -19.5178   22.0819 N   0  0  0  0  0  0
  -29.7502  -15.6841   20.7903 N   0  0  0  0  0  0
  -32.8442  -20.8810   20.2738 N   0  3  0  0  0  0
  -31.4842  -12.5408   19.1446 H   0  0  0  0  0  0
  -30.3921  -11.4047   19.8911 H   0  0  0  0  0  0
  -29.7767  -11.7528   17.4808 H   0  0  0  0  0  0
  -29.6484  -13.4744   17.7379 H   0  0  0  0  0  0
  -27.8730  -11.2890   18.8696 H   0  0  0  0  0  0
  -27.3775  -12.5674   17.7932 H   0  0  0  0  0  0
  -27.6691  -14.2459   19.5201 H   0  0  0  0  0  0
  -28.7149  -12.0361   21.3636 H   0  0  0  0  0  0
  -28.4439  -13.6839   21.8502 H   0  0  0  0  0  0
  -25.2775   -9.5657   22.4758 H   0  0  0  0  0  0
  -24.0001   -7.4617   22.7485 H   0  0  0  0  0  0
  -21.0855   -8.8777   19.8941 H   0  0  0  0  0  0
  -22.3730  -10.9670   19.6155 H   0  0  0  0  0  0
  -21.2006   -7.6154   23.9722 H   0  0  0  0  0  0
  -21.1476   -6.0530   25.9088 H   0  0  0  0  0  0
  -22.0599   -2.7613   23.2849 H   0  0  0  0  0  0
  -22.4115  -11.9839   22.4776 H   0  0  0  0  0  0
  -21.1110  -13.1211   22.2636 H   0  0  0  0  0  0
  -24.6407  -15.8276   20.4999 H   0  0  0  0  0  0
  -26.2368  -15.6174   19.9913 H   0  0  0  0  0  0
  -26.7179  -32.5459   23.1115 H   0  0  0  0  0  0
  -25.0077  -33.9741   25.0434 H   0  0  0  0  0  0
  -22.7140  -31.3049   21.4058 H   0  0  0  0  0  0
  -23.3761  -35.9604   23.3297 H   0  0  0  0  0  0
  -24.3560  -36.8927   22.2055 H   0  0  0  0  0  0
  -23.7226  -37.6476   23.6675 H   0  0  0  0  0  0
  -26.0923  -31.5532   20.6063 H   0  0  0  0  0  0
  -26.8438  -30.8386   22.0028 H   0  0  0  0  0  0
  -28.1181  -28.9787   21.1850 H   0  0  0  0  0  0
  -25.9478  -25.9381   18.9967 H   0  0  0  0  0  0
  -23.9640  -27.3125   19.0184 H   0  0  0  0  0  0
  -23.7547  -30.5988   19.4080 H   0  0  0  0  0  0
  -22.7540  -29.2522   19.8593 H   0  0  0  0  0  0
  -25.1291  -36.1935   25.0820 H   0  0  0  0  0  0
  -20.9977  -28.3259   24.1409 H   0  0  0  0  0  0
  -20.5658  -26.2289   23.3615 H   0  0  0  0  0  0
  -21.6634  -26.7418   22.1226 H   0  0  0  0  0  0
  -19.6895  -25.6299   21.1236 H   0  0  0  0  0  0
  -19.6682  -27.3195   20.6746 H   0  0  0  0  0  0
  -17.4195  -26.6697   21.4023 H   0  0  0  0  0  0
  -18.0302  -26.0069   22.9017 H   0  0  0  0  0  0
  -19.7941  -30.7275   24.2261 H   0  0  0  0  0  0
  -17.5017  -31.6265   24.5177 H   0  0  0  0  0  0
  -15.5345  -30.2984   23.7664 H   0  0  0  0  0  0
  -15.8680  -28.0820   22.7065 H   0  0  0  0  0  0
  -24.5943  -30.7013   25.7784 H   0  0  0  0  0  0
  -24.8872  -32.2848   26.4865 H   0  0  0  0  0  0
  -25.8075  -30.8915   27.0247 H   0  0  0  0  0  0
  -26.2962  -29.6769   24.1209 H   0  0  0  0  0  0
  -27.4097  -29.7304   25.4684 H   0  0  0  0  0  0
  -27.8811  -30.4356   23.9408 H   0  0  0  0  0  0
  -27.2656  -33.3651   26.2080 H   0  0  0  0  0  0
  -28.3875  -32.6894   25.0363 H   0  0  0  0  0  0
  -28.0701  -31.8481   26.5460 H   0  0  0  0  0  0
  -28.2586  -38.0107   24.7539 H   0  0  0  0  0  0
  -28.1095  -36.2637   24.6286 H   0  0  0  0  0  0
  -27.2295  -37.1444   25.8871 H   0  0  0  0  0  0
  -20.9357  -29.8781   21.6927 H   0  0  0  0  0  0
  -26.0168  -38.2857   24.1450 H   0  0  0  0  0  0
  -27.7527  -19.8381   20.2264 H   0  0  0  0  0  0
  -27.7415  -17.4057   20.3017 H   0  0  0  0  0  0
  -31.9609  -17.3542   21.0754 H   0  0  0  0  0  0
  -30.2723  -24.4850   22.1069 H   0  0  0  0  0  0
  -28.6755  -23.7971   22.3052 H   0  0  0  0  0  0
  -29.7735  -21.7978   22.7513 H   0  0  0  0  0  0
  -31.2503  -22.3431   21.9674 H   0  0  0  0  0  0
  -28.9767  -22.2375   18.8054 H   0  0  0  0  0  0
  -27.8707  -22.2157   20.1706 H   0  0  0  0  0  0
  -31.3585  -23.6780   19.6170 H   0  0  0  0  0  0
  -30.8471  -25.3552   19.7281 H   0  0  0  0  0  0
  -30.3283  -24.3662   18.3700 H   0  0  0  0  0  0
  -27.2433  -24.7072   20.5220 H   0  0  0  0  0  0
  -27.8480  -24.8897   18.8963 H   0  0  0  0  0  0
  -32.8144  -18.8368   22.7384 H   0  0  0  0  0  0
  -34.0833  -19.9032   22.2566 H   0  0  0  0  0  0
  -28.8179  -15.3485   20.9772 H   0  0  0  0  0  0
  -32.2048  -21.2561   19.5869 H   0  0  0  0  0  0
  -33.7568  -21.2961   20.3669 H   0  0  0  0  0  0
  1 25  1  0  0  0
  1 30  2  0  0  0
  1 86  1  0  0  0
  2  3  1  0  0  0
  2 25  1  0  0  0
  2 88  1  0  0  0
  2 89  1  0  0  0
  3  4  1  0  0  0
  3 90  1  0  0  0
  3 91  1  0  0  0
  4  5  1  0  0  0
  4 92  1  0  0  0
  4 93  1  0  0  0
  5  6  1  0  0  0
  5 26  1  0  0  0
  5 94  1  0  0  0
  6 25  1  0  0  0
  6 95  1  0  0  0
  6 96  1  0  0  0
  7  8  2  0  0  0
  7 26  1  0  0  0
  7 29  1  0  0  0
  8  9  1  0  0  0
  8 22  1  0  0  0
  9 10  1  0  0  0
  9 27  2  0  0  0
 10 11  2  0  0  0
 10 15  1  0  0  0
 11 12  1  0  0  0
 11 97  1  0  0  0
 12 13  2  0  0  0
 12 98  1  0  0  0
 13 14  1  0  0  0
 13 31  1  0  0  0
 14 15  2  0  0  0
 14 99  1  0  0  0
 15100  1  0  0  0
 16 17  2  0  0  0
 16 21  1  0  0  0
 16 31  1  0  0  0
 17 18  1  0  0  0
 17101  1  0  0  0
 18 19  2  0  0  0
 18102  1  0  0  0
 19 20  1  0  0  0
 19 24  1  0  0  0
 20 21  2  0  0  0
 20103  1  0  0  0
 21 23  1  0  0  0
 22 28  1  0  0  0
 22 32  2  0  0  0
 26 27  1  0  0  0
 28104  1  0  0  0
 28105  1  0  0  0
 29106  1  0  0  0
 29107  1  0  0  0
 33 34  1  0  0  0
 33 66  1  0  0  0
 33 70  2  0  0  0
 34 36  1  0  0  0
 34 59  1  0  0  0
 34108  1  0  0  0
 35 44  2  0  0  0
 35 45  1  0  0  0
 35 68  1  0  0  0
 36 56  1  0  0  0
 36109  1  0  0  0
 37 39  1  0  0  0
 37 47  1  0  0  0
 37 66  1  0  0  0
 37110  1  0  0  0
 38 43  2  0  0  0
 38 46  1  0  0  0
 38 47  1  0  0  0
 39 64  1  0  0  0
 39 67  2  0  0  0
 40 52  1  0  0  0
 40 53  2  0  0  0
 40 58  1  0  0  0
 41111  1  0  0  0
 41112  1  0  0  0
 41113  1  0  0  0
 41 48  1  0  0  0
 42 43  1  0  0  0
 42 66  1  0  0  0
 42114  1  0  0  0
 42115  1  0  0  0
 43 44  1  0  0  0
 44116  1  0  0  0
 45 46  2  0  0  0
 45117  1  0  0  0
 46118  1  0  0  0
 47119  1  0  0  0
 47120  1  0  0  0
 48 56  1  0  0  0
 48 65  1  0  0  0
 48121  1  0  0  0
 49 50  1  0  0  0
 49 53  1  0  0  0
 49 64  1  0  0  0
 49122  1  0  0  0
 50 51  1  0  0  0
 50123  1  0  0  0
 50124  1  0  0  0
 51 52  1  0  0  0
 51125  1  0  0  0
 51126  1  0  0  0
 52127  1  0  0  0
 52128  1  0  0  0
 53 54  1  0  0  0
 54 55  2  0  0  0
 54129  1  0  0  0
 55 57  1  0  0  0
 55130  1  0  0  0
 56 69  2  0  0  0
 57 58  2  0  0  0
 57131  1  0  0  0
 58132  1  0  0  0
 59 60  1  0  0  0
 59 61  1  0  0  0
 59 62  1  0  0  0
 60133  1  0  0  0
 60134  1  0  0  0
 60135  1  0  0  0
 61136  1  0  0  0
 61137  1  0  0  0
 61138  1  0  0  0
 62139  1  0  0  0
 62140  1  0  0  0
 62141  1  0  0  0
 63 65  1  0  0  0
 63142  1  0  0  0
 63143  1  0  0  0
 63144  1  0  0  0
 64145  1  0  0  0
 65146  1  0  0  0
 68 83  1  0  0  0
 71 72  2  0  0  0
 71 75  1  0  0  0
 71147  1  0  0  0
 72 76  1  0  0  0
 72148  1  0  0  0
 73 74  1  0  0  0
 73 76  2  0  0  0
 73149  1  0  0  0
 74 75  2  0  0  0
 74 77  1  0  0  0
 75 84  1  0  0  0
 76 86  1  0  0  0
 77 85  1  0  0  0
 77 87  2  0  0  0
 78 79  1  0  0  0
 78 81  1  0  0  0
 78150  1  0  0  0
 78151  1  0  0  0
 79 84  1  0  0  0
 79152  1  0  0  0
 79153  1  0  0  0
 80 81  1  0  0  0
 80 84  1  0  0  0
 80154  1  0  0  0
 80155  1  0  0  0
 81 82  1  0  0  0
 81 83  1  0  0  0
 82156  1  0  0  0
 82157  1  0  0  0
 82158  1  0  0  0
 83159  1  0  0  0
 83160  1  0  0  0
 85161  1  0  0  0
 85162  1  0  0  0
 86163  1  0  0  0
 87164  1  0  0  0
 87165  1  0  0  0
M  CHG  1  87   1
M  ISO  4   1 100  68 101  83 101  86 100
M  END
> <chiral flag>
0

> <version>
0

> <s_m_source_file>
/data/baiqing/PycharmProjects/Reinvent-master-3.2/result/LINK_invent/BTK/process_docking_weight1_custom_product_contain_oxygen_bond_distance_aromatic_linkinvent_7_9_3/rearranged_h_0148.sdf

> <i_m_source_file_index>
64

> <r_mmod_Potential_Energy-OPLS-2005>
-27.5457000732422

> <r_mmod_Stretch_Energy-OPLS-2005>
83.0470504760742

> <r_mmod_Bend_Energy-OPLS-2005>
185.200866699219

> <r_mmod_Torsional_Energy-OPLS-2005>
294.781066894531

> <r_mmod_Improper_Torsional_Energy-OPLS-2005>
8.02152919769287

> <r_mmod_Van_der_Waal_Energy-OPLS-2005>
145.527481079102

> <r_mmod_Electrostatic_Energy-OPLS-2005>
-371.735137939453

> <r_mmod_Solvation_Energy-OPLS-2005>
-424.195709228516

> <b_mmod_Minimization_Converged-OPLS-2005>
0

> <r_mmod_RMS_Derivative-OPLS-2005>
1.15048670768738

$$$$
64
                    3D
 Structure written by MMmdl.
154162  0  0  1  0            999 V2000
  -30.6638  -14.5680   20.5306 C   0  0  0  0  0  0
  -30.4259  -12.3595   19.4309 C   0  0  0  0  0  0
  -29.4951  -12.5169   18.2097 C   0  0  0  0  0  0
  -28.0179  -12.3593   18.6252 C   0  0  0  0  0  0
  -27.6534  -13.2156   19.8673 C   0  0  2  0  0  0
  -28.7002  -13.0460   20.9913 C   0  0  0  0  0  0
  -25.2566  -13.8172   20.5700 C   0  0  0  0  0  0
  -24.1828  -13.0435   20.9187 C   0  0  0  0  0  0
  -24.6393  -11.6909   20.8734 C   0  0  0  0  0  0
  -23.9061  -10.4295   21.0412 C   0  0  0  0  0  0
  -24.3618   -9.4211   21.9180 C   0  0  0  0  0  0
  -23.6294   -8.2246   22.0748 C   0  0  0  0  0  0
  -22.4279   -8.0279   21.3542 C   0  0  0  0  0  0
  -21.9910   -9.0253   20.4653 C   0  0  0  0  0  0
  -22.7237  -10.2131   20.3069 C   0  0  0  0  0  0
  -21.6858   -6.0742   22.5287 C   0  0  0  0  0  0
  -21.4012   -6.5642   23.8216 C   0  0  0  0  0  0
  -21.3661   -5.6795   24.9179 C   0  0  0  0  0  0
  -21.6046   -4.3054   24.7232 C   0  0  0  0  0  0
  -21.8819   -3.8152   23.4351 C   0  0  0  0  0  0
  -21.9195   -4.6967   22.3406 C   0  0  0  0  0  0
  -22.7853  -13.5225   21.1860 C   0  0  0  0  0  0
  -22.1665   -4.2155   21.0986 F   0  0  0  0  0  0
  -21.5635   -3.4537   25.7743 F   0  0  0  0  0  0
  -30.0180  -13.3694   20.4239 N   0  0  0  0  0  0
  -26.2998  -12.9358   20.3365 N   0  0  0  0  0  0
  -25.9319  -11.6505   20.5765 N   0  0  0  0  0  0
  -22.0506  -12.8203   22.0413 N   0  0  0  0  0  0
  -25.4284  -15.1891   20.4096 N   0  0  0  0  0  0
  -31.8229  -14.7231   20.1399 O   0  0  0  0  0  0
  -21.6640   -6.8878   21.4247 O   0  0  0  0  0  0
  -22.3542  -14.5543   20.6732 O   0  0  0  0  0  0
  -24.6207  -31.8629   23.2052 C   0  0  0  0  0  0
  -25.9074  -32.4798   23.8368 C   0  0  1  0  0  0
  -27.2274  -27.3701   20.1098 C   0  0  0  0  0  0
  -25.5909  -33.8600   24.2298 N   0  0  0  0  0  0
  -23.4123  -30.4854   21.5469 C   0  0  2  0  0  0
  -24.8600  -28.9433   20.1137 C   0  0  0  0  0  0
  -22.7442  -29.4635   22.4962 C   0  0  0  0  0  0
  -18.0279  -28.1372   22.8482 C   0  0  0  0  0  0
  -24.1490  -36.7303   23.2639 C   0  0  0  0  0  0
  -25.9484  -30.8089   21.3687 C   0  0  0  0  0  0
  -26.0259  -29.4395   20.7119 C   0  0  0  0  0  0
  -27.2168  -28.6643   20.6995 C   0  0  0  0  0  0
  -26.0454  -26.9094   19.4935 C   0  0  0  0  0  0
  -24.8690  -27.6816   19.4951 C   0  0  0  0  0  0
  -23.6252  -29.8172   20.1626 C   0  0  0  0  0  0
  -25.4113  -36.3097   24.0336 C   0  0  1  0  0  0
  -20.5872  -28.3673   23.1295 C   0  0  2  0  0  0
  -20.6767  -26.9399   22.5414 C   0  0  0  0  0  0
  -19.5747  -26.6376   21.5210 C   0  0  0  0  0  0
  -18.1925  -26.7916   22.1621 C   0  0  0  0  0  0
  -19.1530  -28.8839   23.2884 C   0  0  0  0  0  0
  -18.9455  -30.1441   23.8901 C   0  0  0  0  0  0
  -17.6458  -30.6580   24.0562 C   0  0  0  0  0  0
  -25.9045  -34.9466   23.5118 C   0  0  0  0  0  0
  -16.5350  -29.9079   23.6327 C   0  0  0  0  0  0
  -16.7268  -28.6496   23.0350 C   0  0  0  0  0  0
  -26.4476  -31.6589   25.0718 C   0  0  0  0  0  0
  -25.3726  -31.3710   26.1456 C   0  0  0  0  0  0
  -27.0316  -30.3022   24.6132 C   0  0  0  0  0  0
  -27.6041  -32.4316   25.7488 C   0  0  0  0  0  0
  -27.5584  -37.1808   24.8461 C   0  0  0  0  0  0
  -21.4164  -29.3037   22.3707 N   0  0  0  0  0  0
  -26.4295  -37.3786   23.9409 N   0  0  0  0  0  0
  -24.6786  -31.0679   22.0978 N   0  0  0  0  0  0
  -23.4186  -28.8172   23.3022 O   0  0  0  0  0  0
  -28.3545  -26.5576   20.1126 O   0  0  0  0  0  0
  -26.5613  -34.8920   22.4683 O   0  0  0  0  0  0
  -23.5385  -32.1408   23.7410 O   0  0  0  0  0  0
  -28.9380  -18.0040   19.0911 C   0  0  0  0  0  0
  -28.6579  -19.3352   18.6545 C   0  0  0  0  0  0
  -29.6689  -18.0914   20.2465 C   0  0  0  0  0  0
  -29.2090  -20.1670   19.5858 C   0  0  0  0  0  0
  -28.8366  -24.0563   19.8361 C   0  0  0  0  0  0
  -29.9227  -22.5720   21.6233 C   0  0  0  0  0  0
  -30.3354  -17.0385   21.1331 C   0  0  0  0  0  0
  -28.1691  -25.2087   20.6597 C   0  0  0  0  0  0
  -28.9315  -22.5907   20.4466 C   0  0  2  0  0  0
  -29.3042  -21.5735   19.4330 N   0  0  0  0  0  0
  -29.9111  -15.6231   20.9356 N   0  0  0  0  0  0
  -29.2709  -24.2979   18.7043 O   0  0  0  0  0  0
  -29.8249  -19.4369   20.5802 O   0  0  0  0  0  0
  -31.4684  -12.4703   19.1271 H   0  0  0  0  0  0
  -30.3398  -11.3565   19.8519 H   0  0  0  0  0  0
  -29.7485  -11.7880   17.4384 H   0  0  0  0  0  0
  -29.6457  -13.4997   17.7597 H   0  0  0  0  0  0
  -27.8413  -11.3045   18.8385 H   0  0  0  0  0  0
  -27.3624  -12.6119   17.7907 H   0  0  0  0  0  0
  -27.6789  -14.2562   19.5407 H   0  0  0  0  0  0
  -28.6992  -12.0212   21.3657 H   0  0  0  0  0  0
  -28.4591  -13.6738   21.8502 H   0  0  0  0  0  0
  -25.2762   -9.5691   22.4748 H   0  0  0  0  0  0
  -24.0018   -7.4636   22.7457 H   0  0  0  0  0  0
  -21.0852   -8.8765   19.8933 H   0  0  0  0  0  0
  -22.3704  -10.9668   19.6169 H   0  0  0  0  0  0
  -21.1995   -7.6147   23.9727 H   0  0  0  0  0  0
  -21.1487   -6.0522   25.9083 H   0  0  0  0  0  0
  -22.0595   -2.7615   23.2854 H   0  0  0  0  0  0
  -22.4117  -11.9836   22.4763 H   0  0  0  0  0  0
  -21.1131  -13.1232   22.2649 H   0  0  0  0  0  0
  -24.6586  -15.8423   20.5061 H   0  0  0  0  0  0
  -26.2803  -15.6293   20.0869 H   0  0  0  0  0  0
  -26.7144  -32.5489   23.1127 H   0  0  0  0  0  0
  -25.0070  -33.9753   25.0451 H   0  0  0  0  0  0
  -22.7036  -31.3040   21.4041 H   0  0  0  0  0  0
  -23.3754  -35.9632   23.3299 H   0  0  0  0  0  0
  -24.3582  -36.8922   22.2052 H   0  0  0  0  0  0
  -23.7235  -37.6504   23.6658 H   0  0  0  0  0  0
  -26.0733  -31.5749   20.6016 H   0  0  0  0  0  0
  -26.8311  -30.8586   21.9944 H   0  0  0  0  0  0
  -28.1158  -29.0421   21.1674 H   0  0  0  0  0  0
  -26.0289  -25.9431   19.0096 H   0  0  0  0  0  0
  -23.9765  -27.2968   19.0206 H   0  0  0  0  0  0
  -23.7381  -30.5919   19.4034 H   0  0  0  0  0  0
  -22.7479  -29.2405   19.8642 H   0  0  0  0  0  0
  -25.1291  -36.1961   25.0830 H   0  0  0  0  0  0
  -20.9965  -28.3245   24.1415 H   0  0  0  0  0  0
  -20.5661  -26.2281   23.3611 H   0  0  0  0  0  0
  -21.6638  -26.7428   22.1214 H   0  0  0  0  0  0
  -19.6911  -25.6288   21.1239 H   0  0  0  0  0  0
  -19.6690  -27.3188   20.6743 H   0  0  0  0  0  0
  -17.4194  -26.6664   21.4022 H   0  0  0  0  0  0
  -18.0326  -26.0053   22.9014 H   0  0  0  0  0  0
  -19.7931  -30.7254   24.2271 H   0  0  0  0  0  0
  -17.5013  -31.6261   24.5161 H   0  0  0  0  0  0
  -15.5350  -30.2987   23.7644 H   0  0  0  0  0  0
  -15.8669  -28.0823   22.7061 H   0  0  0  0  0  0
  -24.5902  -30.7057   25.7785 H   0  0  0  0  0  0
  -24.8919  -32.2874   26.4892 H   0  0  0  0  0  0
  -25.8066  -30.8881   27.0222 H   0  0  0  0  0  0
  -26.2879  -29.6781   24.1162 H   0  0  0  0  0  0
  -27.4042  -29.7261   25.4611 H   0  0  0  0  0  0
  -27.8732  -30.4322   23.9325 H   0  0  0  0  0  0
  -27.2652  -33.3616   26.2065 H   0  0  0  0  0  0
  -28.3853  -32.6876   25.0318 H   0  0  0  0  0  0
  -28.0704  -31.8442   26.5406 H   0  0  0  0  0  0
  -28.2594  -38.0112   24.7522 H   0  0  0  0  0  0
  -28.1090  -36.2645   24.6274 H   0  0  0  0  0  0
  -27.2305  -37.1439   25.8863 H   0  0  0  0  0  0
  -20.9333  -29.8769   21.6932 H   0  0  0  0  0  0
  -26.0184  -38.2866   24.1405 H   0  0  0  0  0  0
  -28.6721  -17.0842   18.5898 H   0  0  0  0  0  0
  -28.1424  -19.6356   17.7535 H   0  0  0  0  0  0
  -29.6324  -23.2788   22.4000 H   0  0  0  0  0  0
  -30.9317  -22.8331   21.2996 H   0  0  0  0  0  0
  -29.9686  -21.5898   22.0945 H   0  0  0  0  0  0
  -30.1389  -17.2870   22.1763 H   0  0  0  0  0  0
  -31.4178  -17.1178   21.0230 H   0  0  0  0  0  0
  -28.5916  -25.1991   21.6636 H   0  0  0  0  0  0
  -27.1136  -24.9667   20.7789 H   0  0  0  0  0  0
  -27.9426  -22.3260   20.8229 H   0  0  0  0  0  0
  -29.1393  -21.9182   18.4899 H   0  0  0  0  0  0
  -28.9583  -15.4107   21.1855 H   0  0  0  0  0  0
  1 25  1  0  0  0
  1 30  2  0  0  0
  1 81  1  0  0  0
  2  3  1  0  0  0
  2 25  1  0  0  0
  2 84  1  0  0  0
  2 85  1  0  0  0
  3  4  1  0  0  0
  3 86  1  0  0  0
  3 87  1  0  0  0
  4  5  1  0  0  0
  4 88  1  0  0  0
  4 89  1  0  0  0
  5  6  1  0  0  0
  5 26  1  0  0  0
  5 90  1  0  0  0
  6 25  1  0  0  0
  6 91  1  0  0  0
  6 92  1  0  0  0
  7  8  2  0  0  0
  7 26  1  0  0  0
  7 29  1  0  0  0
  8  9  1  0  0  0
  8 22  1  0  0  0
  9 10  1  0  0  0
  9 27  2  0  0  0
 10 11  2  0  0  0
 10 15  1  0  0  0
 11 12  1  0  0  0
 11 93  1  0  0  0
 12 13  2  0  0  0
 12 94  1  0  0  0
 13 14  1  0  0  0
 13 31  1  0  0  0
 14 15  2  0  0  0
 14 95  1  0  0  0
 15 96  1  0  0  0
 16 17  2  0  0  0
 16 21  1  0  0  0
 16 31  1  0  0  0
 17 18  1  0  0  0
 17 97  1  0  0  0
 18 19  2  0  0  0
 18 98  1  0  0  0
 19 20  1  0  0  0
 19 24  1  0  0  0
 20 21  2  0  0  0
 20 99  1  0  0  0
 21 23  1  0  0  0
 22 28  1  0  0  0
 22 32  2  0  0  0
 26 27  1  0  0  0
 28100  1  0  0  0
 28101  1  0  0  0
 29102  1  0  0  0
 29103  1  0  0  0
 33 34  1  0  0  0
 33 66  1  0  0  0
 33 70  2  0  0  0
 34 36  1  0  0  0
 34 59  1  0  0  0
 34104  1  0  0  0
 35 44  2  0  0  0
 35 45  1  0  0  0
 35 68  1  0  0  0
 36 56  1  0  0  0
 36105  1  0  0  0
 37 39  1  0  0  0
 37 47  1  0  0  0
 37 66  1  0  0  0
 37106  1  0  0  0
 38 43  2  0  0  0
 38 46  1  0  0  0
 38 47  1  0  0  0
 39 64  1  0  0  0
 39 67  2  0  0  0
 40 52  1  0  0  0
 40 53  2  0  0  0
 40 58  1  0  0  0
 41107  1  0  0  0
 41108  1  0  0  0
 41109  1  0  0  0
 41 48  1  0  0  0
 42 43  1  0  0  0
 42 66  1  0  0  0
 42110  1  0  0  0
 42111  1  0  0  0
 43 44  1  0  0  0
 44112  1  0  0  0
 45 46  2  0  0  0
 45113  1  0  0  0
 46114  1  0  0  0
 47115  1  0  0  0
 47116  1  0  0  0
 48 56  1  0  0  0
 48 65  1  0  0  0
 48117  1  0  0  0
 49 50  1  0  0  0
 49 53  1  0  0  0
 49 64  1  0  0  0
 49118  1  0  0  0
 50 51  1  0  0  0
 50119  1  0  0  0
 50120  1  0  0  0
 51 52  1  0  0  0
 51121  1  0  0  0
 51122  1  0  0  0
 52123  1  0  0  0
 52124  1  0  0  0
 53 54  1  0  0  0
 54 55  2  0  0  0
 54125  1  0  0  0
 55 57  1  0  0  0
 55126  1  0  0  0
 56 69  2  0  0  0
 57 58  2  0  0  0
 57127  1  0  0  0
 58128  1  0  0  0
 59 60  1  0  0  0
 59 61  1  0  0  0
 59 62  1  0  0  0
 60129  1  0  0  0
 60130  1  0  0  0
 60131  1  0  0  0
 61132  1  0  0  0
 61133  1  0  0  0
 61134  1  0  0  0
 62135  1  0  0  0
 62136  1  0  0  0
 62137  1  0  0  0
 63 65  1  0  0  0
 63138  1  0  0  0
 63139  1  0  0  0
 63140  1  0  0  0
 64141  1  0  0  0
 65142  1  0  0  0
 68 78  1  0  0  0
 71 72  1  0  0  0
 71 73  2  0  0  0
 71143  1  0  0  0
 72 74  2  0  0  0
 72144  1  0  0  0
 73 77  1  0  0  0
 73 83  1  0  0  0
 74 80  1  0  0  0
 74 83  1  0  0  0
 75 78  1  0  0  0
 75 79  1  0  0  0
 75 82  2  0  0  0
 76145  1  0  0  0
 76146  1  0  0  0
 76147  1  0  0  0
 76 79  1  0  0  0
 77 81  1  0  0  0
 77148  1  0  0  0
 77149  1  0  0  0
 78150  1  0  0  0
 78151  1  0  0  0
 79 80  1  0  0  0
 79152  1  0  0  0
 80153  1  0  0  0
 81154  1  0  0  0
M  ISO  4   1 100  68 101  78 101  81 100
M  END
> <chiral flag>
0

> <version>
0

> <s_m_source_file>
/data/baiqing/PycharmProjects/Reinvent-master-3.2/result/LINK_invent/BTK/process_docking_weight1_custom_product_contain_oxygen_bond_distance_aromatic_linkinvent_7_9_3/rearranged_h_0148.sdf

> <i_m_source_file_index>
65

> <r_mmod_Potential_Energy-OPLS-2005>
-103.013977050781

> <r_mmod_Stretch_Energy-OPLS-2005>
56.4935836791992

> <r_mmod_Bend_Energy-OPLS-2005>
118.033126831055

> <r_mmod_Torsional_Energy-OPLS-2005>
219.973281860352

> <r_mmod_Improper_Torsional_Energy-OPLS-2005>
6.97520208358765

> <r_mmod_Van_der_Waal_Energy-OPLS-2005>
119.844299316406

> <r_mmod_Electrostatic_Energy-OPLS-2005>
-413.107513427734

> <r_mmod_Solvation_Energy-OPLS-2005>
-239.924240112305

> <b_mmod_Minimization_Converged-OPLS-2005>
0

> <r_mmod_RMS_Derivative-OPLS-2005>
1.53214502334595

$$$$
65
                    3D
 Structure written by MMmdl.
155163  0  0  1  0            999 V2000
  -30.5772  -14.7703   20.4484 C   0  0  0  0  0  0
  -30.4462  -12.4759   19.4544 C   0  0  0  0  0  0
  -29.5073  -12.5044   18.2271 C   0  0  0  0  0  0
  -28.0386  -12.3121   18.6526 C   0  0  0  0  0  0
  -27.6399  -13.2233   19.8446 C   0  0  2  0  0  0
  -28.6921  -13.1671   20.9745 C   0  0  0  0  0  0
  -25.2527  -13.8174   20.5701 C   0  0  0  0  0  0
  -24.1812  -13.0429   20.9229 C   0  0  0  0  0  0
  -24.6404  -11.6904   20.8759 C   0  0  0  0  0  0
  -23.9074  -10.4288   21.0419 C   0  0  0  0  0  0
  -24.3629   -9.4203   21.9197 C   0  0  0  0  0  0
  -23.6305   -8.2235   22.0759 C   0  0  0  0  0  0
  -22.4275   -8.0281   21.3560 C   0  0  0  0  0  0
  -21.9921   -9.0255   20.4649 C   0  0  0  0  0  0
  -22.7246  -10.2138   20.3063 C   0  0  0  0  0  0
  -21.6856   -6.0758   22.5287 C   0  0  0  0  0  0
  -21.4013   -6.5647   23.8226 C   0  0  0  0  0  0
  -21.3647   -5.6788   24.9178 C   0  0  0  0  0  0
  -21.6059   -4.3060   24.7216 C   0  0  0  0  0  0
  -21.8809   -3.8164   23.4332 C   0  0  0  0  0  0
  -21.9190   -4.6990   22.3405 C   0  0  0  0  0  0
  -22.7835  -13.5229   21.1885 C   0  0  0  0  0  0
  -22.1659   -4.2171   21.0984 F   0  0  0  0  0  0
  -21.5624   -3.4543   25.7733 F   0  0  0  0  0  0
  -29.9820  -13.5329   20.3765 N   0  0  0  0  0  0
  -26.2940  -12.9357   20.3259 N   0  0  0  0  0  0
  -25.9323  -11.6514   20.5760 N   0  0  0  0  0  0
  -22.0468  -12.8211   22.0421 N   0  0  0  0  0  0
  -25.4201  -15.1904   20.4159 N   0  0  0  0  0  0
  -31.7888  -14.8847   20.2380 O   0  0  0  0  0  0
  -21.6632   -6.8882   21.4245 O   0  0  0  0  0  0
  -22.3525  -14.5550   20.6739 O   0  0  0  0  0  0
  -24.6282  -31.8537   23.1992 C   0  0  0  0  0  0
  -25.9120  -32.4738   23.8318 C   0  0  1  0  0  0
  -27.2144  -27.2494   20.1432 C   0  0  0  0  0  0
  -25.5937  -33.8551   24.2239 N   0  0  0  0  0  0
  -23.4252  -30.4787   21.5426 C   0  0  2  0  0  0
  -24.8764  -28.9252   20.1117 C   0  0  0  0  0  0
  -22.7511  -29.4557   22.4900 C   0  0  0  0  0  0
  -18.0296  -28.1360   22.8451 C   0  0  0  0  0  0
  -24.1501  -36.7287   23.2641 C   0  0  0  0  0  0
  -25.9732  -30.7654   21.3816 C   0  0  0  0  0  0
  -26.0473  -29.3875   20.7248 C   0  0  0  0  0  0
  -27.2194  -28.5622   20.7268 C   0  0  0  0  0  0
  -26.0265  -26.8635   19.4848 C   0  0  0  0  0  0
  -24.8719  -27.6745   19.4754 C   0  0  0  0  0  0
  -23.6473  -29.8158   20.1593 C   0  0  0  0  0  0
  -25.4105  -36.3075   24.0336 C   0  0  1  0  0  0
  -20.5894  -28.3658   23.1265 C   0  0  2  0  0  0
  -20.6791  -26.9383   22.5407 C   0  0  0  0  0  0
  -19.5773  -26.6338   21.5204 C   0  0  0  0  0  0
  -18.1933  -26.7882   22.1599 C   0  0  0  0  0  0
  -19.1553  -28.8823   23.2847 C   0  0  0  0  0  0
  -18.9479  -30.1426   23.8877 C   0  0  0  0  0  0
  -17.6485  -30.6573   24.0543 C   0  0  0  0  0  0
  -25.9049  -34.9438   23.5086 C   0  0  0  0  0  0
  -16.5369  -29.9066   23.6330 C   0  0  0  0  0  0
  -16.7279  -28.6487   23.0330 C   0  0  0  0  0  0
  -26.4493  -31.6583   25.0708 C   0  0  0  0  0  0
  -25.3691  -31.3776   26.1441 C   0  0  0  0  0  0
  -27.0311  -30.3009   24.6155 C   0  0  0  0  0  0
  -27.6049  -32.4323   25.7484 C   0  0  0  0  0  0
  -27.5565  -37.1787   24.8464 C   0  0  0  0  0  0
  -21.4205  -29.3028   22.3687 N   0  0  0  0  0  0
  -26.4272  -37.3767   23.9408 N   0  0  0  0  0  0
  -24.6947  -31.0501   22.0982 N   0  0  0  0  0  0
  -23.4238  -28.8044   23.2929 O   0  0  0  0  0  0
  -28.3051  -26.3438   20.1854 O   0  0  0  0  0  0
  -26.5597  -34.8931   22.4645 O   0  0  0  0  0  0
  -23.5432  -32.1328   23.7321 O   0  0  0  0  0  0
  -29.4178  -18.3869   19.9744 C   0  0  0  0  0  0
  -29.6730  -19.7040   20.5925 C   0  0  0  0  0  0
  -29.8970  -17.2481   20.6599 C   0  0  0  0  0  0
  -30.3066  -19.5372   21.8054 C   0  0  0  0  0  0
  -29.3974  -21.0878   19.9471 C   0  0  0  0  0  0
  -27.9145  -24.8877   22.0824 C   0  0  0  0  0  0
  -29.1369  -23.7537   20.0919 C   0  0  0  0  0  0
  -28.0698  -24.8922   20.5519 C   0  0  2  0  0  0
  -30.7387  -20.4863   22.7281 N   0  0  0  0  0  0
  -29.5651  -21.1571   18.6175 N   0  0  0  0  0  0
  -29.7295  -15.8719   20.4022 N   0  0  0  0  0  0
  -29.0520  -22.2841   20.5889 N   0  3  0  0  0  0
  -30.6511  -17.8334   22.1334 S   0  0  0  0  0  0
  -31.4773  -12.6404   19.1367 H   0  0  0  0  0  0
  -30.4281  -11.4982   19.9398 H   0  0  0  0  0  0
  -29.7916  -11.7278   17.5140 H   0  0  0  0  0  0
  -29.6161  -13.4546   17.7042 H   0  0  0  0  0  0
  -27.9152  -11.2651   18.9342 H   0  0  0  0  0  0
  -27.3722  -12.4780   17.8044 H   0  0  0  0  0  0
  -27.6226  -14.2388   19.4493 H   0  0  0  0  0  0
  -28.7351  -12.1729   21.4209 H   0  0  0  0  0  0
  -28.4256  -13.8567   21.7797 H   0  0  0  0  0  0
  -25.2772   -9.5682   22.4775 H   0  0  0  0  0  0
  -24.0016   -7.4621   22.7479 H   0  0  0  0  0  0
  -21.0853   -8.8787   19.8947 H   0  0  0  0  0  0
  -22.3719  -10.9690   19.6177 H   0  0  0  0  0  0
  -21.1996   -7.6151   23.9733 H   0  0  0  0  0  0
  -21.1481   -6.0524   25.9087 H   0  0  0  0  0  0
  -22.0599   -2.7620   23.2833 H   0  0  0  0  0  0
  -22.4065  -11.9860   22.4790 H   0  0  0  0  0  0
  -21.1107  -13.1265   22.2639 H   0  0  0  0  0  0
  -24.6495  -15.8390   20.5380 H   0  0  0  0  0  0
  -26.2663  -15.6428   20.0989 H   0  0  0  0  0  0
  -26.7172  -32.5396   23.1030 H   0  0  0  0  0  0
  -25.0189  -33.9713   25.0454 H   0  0  0  0  0  0
  -22.7181  -31.2978   21.3909 H   0  0  0  0  0  0
  -23.3802  -35.9585   23.3288 H   0  0  0  0  0  0
  -24.3603  -36.8913   22.2060 H   0  0  0  0  0  0
  -23.7216  -37.6465   23.6661 H   0  0  0  0  0  0
  -26.1019  -31.5265   20.6081 H   0  0  0  0  0  0
  -26.8562  -30.8182   22.0063 H   0  0  0  0  0  0
  -28.1160  -28.9027   21.2262 H   0  0  0  0  0  0
  -25.9707  -25.9162   18.9747 H   0  0  0  0  0  0
  -23.9800  -27.3232   18.9761 H   0  0  0  0  0  0
  -23.7829  -30.5954   19.4116 H   0  0  0  0  0  0
  -22.7621  -29.2578   19.8456 H   0  0  0  0  0  0
  -25.1286  -36.1925   25.0830 H   0  0  0  0  0  0
  -20.9960  -28.3232   24.1401 H   0  0  0  0  0  0
  -20.5698  -26.2258   23.3590 H   0  0  0  0  0  0
  -21.6638  -26.7378   22.1186 H   0  0  0  0  0  0
  -19.6959  -25.6258   21.1224 H   0  0  0  0  0  0
  -19.6755  -27.3151   20.6729 H   0  0  0  0  0  0
  -17.4213  -26.6649   21.4016 H   0  0  0  0  0  0
  -18.0349  -26.0016   22.8994 H   0  0  0  0  0  0
  -19.7977  -30.7230   24.2242 H   0  0  0  0  0  0
  -17.5062  -31.6255   24.5129 H   0  0  0  0  0  0
  -15.5381  -30.2977   23.7662 H   0  0  0  0  0  0
  -15.8662  -28.0819   22.7030 H   0  0  0  0  0  0
  -24.5911  -30.7049   25.7791 H   0  0  0  0  0  0
  -24.8838  -32.2986   26.4744 H   0  0  0  0  0  0
  -25.8020  -30.9071   27.0298 H   0  0  0  0  0  0
  -26.2863  -29.6792   24.1165 H   0  0  0  0  0  0
  -27.4014  -29.7231   25.4630 H   0  0  0  0  0  0
  -27.8740  -30.4324   23.9363 H   0  0  0  0  0  0
  -27.2687  -33.3717   26.1928 H   0  0  0  0  0  0
  -28.3952  -32.6713   25.0352 H   0  0  0  0  0  0
  -28.0587  -31.8497   26.5534 H   0  0  0  0  0  0
  -28.2537  -38.0121   24.7506 H   0  0  0  0  0  0
  -28.1120  -36.2633   24.6293 H   0  0  0  0  0  0
  -27.2310  -37.1424   25.8883 H   0  0  0  0  0  0
  -20.9386  -29.8817   21.6956 H   0  0  0  0  0  0
  -26.0195  -38.2848   24.1470 H   0  0  0  0  0  0
  -28.8958  -18.3280   19.0293 H   0  0  0  0  0  0
  -27.5646  -23.9217   22.4425 H   0  0  0  0  0  0
  -27.1859  -25.6305   22.4130 H   0  0  0  0  0  0
  -28.8597  -25.1029   22.5801 H   0  0  0  0  0  0
  -30.1247  -24.1011   20.3917 H   0  0  0  0  0  0
  -29.1526  -23.7449   19.0026 H   0  0  0  0  0  0
  -27.1163  -24.5690   20.1358 H   0  0  0  0  0  0
  -31.4580  -21.1114   22.3762 H   0  0  0  0  0  0
  -31.0765  -20.0902   23.6032 H   0  0  0  0  0  0
  -29.8644  -20.3413   18.1019 H   0  0  0  0  0  0
  -29.4359  -22.0035   18.0900 H   0  0  0  0  0  0
  -28.7759  -15.6002   20.2213 H   0  0  0  0  0  0
  -28.9542  -22.1927   21.5930 H   0  0  0  0  0  0
  1 25  1  0  0  0
  1 30  2  0  0  0
  1 81  1  0  0  0
  2  3  1  0  0  0
  2 25  1  0  0  0
  2 84  1  0  0  0
  2 85  1  0  0  0
  3  4  1  0  0  0
  3 86  1  0  0  0
  3 87  1  0  0  0
  4  5  1  0  0  0
  4 88  1  0  0  0
  4 89  1  0  0  0
  5  6  1  0  0  0
  5 26  1  0  0  0
  5 90  1  0  0  0
  6 25  1  0  0  0
  6 91  1  0  0  0
  6 92  1  0  0  0
  7  8  2  0  0  0
  7 26  1  0  0  0
  7 29  1  0  0  0
  8  9  1  0  0  0
  8 22  1  0  0  0
  9 10  1  0  0  0
  9 27  2  0  0  0
 10 11  2  0  0  0
 10 15  1  0  0  0
 11 12  1  0  0  0
 11 93  1  0  0  0
 12 13  2  0  0  0
 12 94  1  0  0  0
 13 14  1  0  0  0
 13 31  1  0  0  0
 14 15  2  0  0  0
 14 95  1  0  0  0
 15 96  1  0  0  0
 16 17  2  0  0  0
 16 21  1  0  0  0
 16 31  1  0  0  0
 17 18  1  0  0  0
 17 97  1  0  0  0
 18 19  2  0  0  0
 18 98  1  0  0  0
 19 20  1  0  0  0
 19 24  1  0  0  0
 20 21  2  0  0  0
 20 99  1  0  0  0
 21 23  1  0  0  0
 22 28  1  0  0  0
 22 32  2  0  0  0
 26 27  1  0  0  0
 28100  1  0  0  0
 28101  1  0  0  0
 29102  1  0  0  0
 29103  1  0  0  0
 33 34  1  0  0  0
 33 66  1  0  0  0
 33 70  2  0  0  0
 34 36  1  0  0  0
 34 59  1  0  0  0
 34104  1  0  0  0
 35 44  2  0  0  0
 35 45  1  0  0  0
 35 68  1  0  0  0
 36 56  1  0  0  0
 36105  1  0  0  0
 37 39  1  0  0  0
 37 47  1  0  0  0
 37 66  1  0  0  0
 37106  1  0  0  0
 38 43  2  0  0  0
 38 46  1  0  0  0
 38 47  1  0  0  0
 39 64  1  0  0  0
 39 67  2  0  0  0
 40 52  1  0  0  0
 40 53  2  0  0  0
 40 58  1  0  0  0
 41107  1  0  0  0
 41108  1  0  0  0
 41109  1  0  0  0
 41 48  1  0  0  0
 42 43  1  0  0  0
 42 66  1  0  0  0
 42110  1  0  0  0
 42111  1  0  0  0
 43 44  1  0  0  0
 44112  1  0  0  0
 45 46  2  0  0  0
 45113  1  0  0  0
 46114  1  0  0  0
 47115  1  0  0  0
 47116  1  0  0  0
 48 56  1  0  0  0
 48 65  1  0  0  0
 48117  1  0  0  0
 49 50  1  0  0  0
 49 53  1  0  0  0
 49 64  1  0  0  0
 49118  1  0  0  0
 50 51  1  0  0  0
 50119  1  0  0  0
 50120  1  0  0  0
 51 52  1  0  0  0
 51121  1  0  0  0
 51122  1  0  0  0
 52123  1  0  0  0
 52124  1  0  0  0
 53 54  1  0  0  0
 54 55  2  0  0  0
 54125  1  0  0  0
 55 57  1  0  0  0
 55126  1  0  0  0
 56 69  2  0  0  0
 57 58  2  0  0  0
 57127  1  0  0  0
 58128  1  0  0  0
 59 60  1  0  0  0
 59 61  1  0  0  0
 59 62  1  0  0  0
 60129  1  0  0  0
 60130  1  0  0  0
 60131  1  0  0  0
 61132  1  0  0  0
 61133  1  0  0  0
 61134  1  0  0  0
 62135  1  0  0  0
 62136  1  0  0  0
 62137  1  0  0  0
 63 65  1  0  0  0
 63138  1  0  0  0
 63139  1  0  0  0
 63140  1  0  0  0
 64141  1  0  0  0
 65142  1  0  0  0
 68 78  1  0  0  0
 71 72  1  0  0  0
 71 73  2  0  0  0
 71143  1  0  0  0
 72 74  2  0  0  0
 72 75  1  0  0  0
 73 81  1  0  0  0
 73 83  1  0  0  0
 74 79  1  0  0  0
 74 83  1  0  0  0
 75 80  1  0  0  0
 75 82  2  0  0  0
 76144  1  0  0  0
 76145  1  0  0  0
 76146  1  0  0  0
 76 78  1  0  0  0
 77 78  1  0  0  0
 77 82  1  0  0  0
 77147  1  0  0  0
 77148  1  0  0  0
 78149  1  0  0  0
 79150  1  0  0  0
 79151  1  0  0  0
 80152  1  0  0  0
 80153  1  0  0  0
 81154  1  0  0  0
 82155  1  0  0  0
M  CHG  1  82   1
M  ISO  4   1 100  68 101  78 101  81 100
M  END
> <chiral flag>
0

> <version>
0

> <s_m_source_file>
/data/baiqing/PycharmProjects/Reinvent-master-3.2/result/LINK_invent/BTK/process_docking_weight1_custom_product_contain_oxygen_bond_distance_aromatic_linkinvent_7_9_3/rearranged_h_0148.sdf

> <i_m_source_file_index>
66

> <r_mmod_Potential_Energy-OPLS-2005>
83.6210556030273

> <r_mmod_Stretch_Energy-OPLS-2005>
126.452430725098

> <r_mmod_Bend_Energy-OPLS-2005>
167.154739379883

> <r_mmod_Torsional_Energy-OPLS-2005>
259.72412109375

> <r_mmod_Improper_Torsional_Energy-OPLS-2005>
16.4669551849365

> <r_mmod_Van_der_Waal_Energy-OPLS-2005>
114.35620880127

> <r_mmod_Electrostatic_Energy-OPLS-2005>
-226.449569702148

> <r_mmod_Solvation_Energy-OPLS-2005>
-473.024566650391

> <b_mmod_Minimization_Converged-OPLS-2005>
0

> <r_mmod_RMS_Derivative-OPLS-2005>
4.77839994430542

$$$$
66
                    3D
 Structure written by MMmdl.
163172  0  0  1  0            999 V2000
  -30.6556  -14.5871   20.5120 C   0  0  0  0  0  0
  -30.4316  -12.3618   19.4534 C   0  0  0  0  0  0
  -29.5087  -12.5157   18.2236 C   0  0  0  0  0  0
  -28.0263  -12.3831   18.6250 C   0  0  0  0  0  0
  -27.6587  -13.2291   19.8760 C   0  0  2  0  0  0
  -28.7030  -13.0511   21.0015 C   0  0  0  0  0  0
  -25.2581  -13.8228   20.5753 C   0  0  0  0  0  0
  -24.1849  -13.0463   20.9202 C   0  0  0  0  0  0
  -24.6427  -11.6935   20.8763 C   0  0  0  0  0  0
  -23.9086  -10.4321   21.0440 C   0  0  0  0  0  0
  -24.3627   -9.4223   21.9211 C   0  0  0  0  0  0
  -23.6289   -8.2265   22.0780 C   0  0  0  0  0  0
  -22.4264   -8.0324   21.3579 C   0  0  0  0  0  0
  -21.9914   -9.0307   20.4684 C   0  0  0  0  0  0
  -22.7259  -10.2177   20.3083 C   0  0  0  0  0  0
  -21.6857   -6.0758   22.5288 C   0  0  0  0  0  0
  -21.4030   -6.5655   23.8228 C   0  0  0  0  0  0
  -21.3656   -5.6796   24.9179 C   0  0  0  0  0  0
  -21.6038   -4.3058   24.7216 C   0  0  0  0  0  0
  -21.8817   -3.8158   23.4331 C   0  0  0  0  0  0
  -21.9201   -4.6986   22.3397 C   0  0  0  0  0  0
  -22.7862  -13.5228   21.1848 C   0  0  0  0  0  0
  -22.1665   -4.2175   21.0975 F   0  0  0  0  0  0
  -21.5597   -3.4528   25.7718 F   0  0  0  0  0  0
  -30.0262  -13.3733   20.4476 N   0  0  0  0  0  0
  -26.3025  -12.9429   20.3382 N   0  0  0  0  0  0
  -25.9363  -11.6560   20.5770 N   0  0  0  0  0  0
  -22.0492  -12.8239   22.0411 N   0  0  0  0  0  0
  -25.4238  -15.1961   20.4187 N   0  0  0  0  0  0
  -31.7944  -14.7515   20.0617 O   0  0  0  0  0  0
  -21.6624   -6.8921   21.4264 O   0  0  0  0  0  0
  -22.3547  -14.5523   20.6689 O   0  0  0  0  0  0
  -24.6209  -31.8616   23.2071 C   0  0  0  0  0  0
  -25.9075  -32.4779   23.8389 C   0  0  1  0  0  0
  -27.2308  -27.3543   20.0925 C   0  0  0  0  0  0
  -25.5910  -33.8588   24.2297 N   0  0  0  0  0  0
  -23.4132  -30.4859   21.5475 C   0  0  2  0  0  0
  -24.8590  -28.9452   20.1103 C   0  0  0  0  0  0
  -22.7438  -29.4633   22.4947 C   0  0  0  0  0  0
  -18.0276  -28.1379   22.8483 C   0  0  0  0  0  0
  -24.1473  -36.7283   23.2649 C   0  0  0  0  0  0
  -25.9524  -30.7969   21.3798 C   0  0  0  0  0  0
  -26.0254  -29.4305   20.7130 C   0  0  0  0  0  0
  -27.2101  -28.6459   20.6976 C   0  0  0  0  0  0
  -26.0325  -26.8997   19.4948 C   0  0  0  0  0  0
  -24.8625  -27.6813   19.4982 C   0  0  0  0  0  0
  -23.6269  -29.8230   20.1613 C   0  0  0  0  0  0
  -25.4105  -36.3079   24.0332 C   0  0  1  0  0  0
  -20.5868  -28.3667   23.1293 C   0  0  2  0  0  0
  -20.6756  -26.9392   22.5415 C   0  0  0  0  0  0
  -19.5743  -26.6378   21.5204 C   0  0  0  0  0  0
  -18.1925  -26.7925   22.1615 C   0  0  0  0  0  0
  -19.1528  -28.8843   23.2881 C   0  0  0  0  0  0
  -18.9458  -30.1447   23.8890 C   0  0  0  0  0  0
  -17.6460  -30.6585   24.0567 C   0  0  0  0  0  0
  -25.9046  -34.9450   23.5110 C   0  0  0  0  0  0
  -16.5346  -29.9084   23.6339 C   0  0  0  0  0  0
  -16.7264  -28.6504   23.0352 C   0  0  0  0  0  0
  -26.4485  -31.6609   25.0763 C   0  0  0  0  0  0
  -25.3743  -31.3760   26.1516 C   0  0  0  0  0  0
  -27.0345  -30.3034   24.6256 C   0  0  0  0  0  0
  -27.6044  -32.4366   25.7497 C   0  0  0  0  0  0
  -27.5570  -37.1794   24.8467 C   0  0  0  0  0  0
  -21.4162  -29.3024   22.3686 N   0  0  0  0  0  0
  -26.4283  -37.3771   23.9407 N   0  0  0  0  0  0
  -24.6798  -31.0645   22.1009 N   0  0  0  0  0  0
  -23.4176  -28.8189   23.3028 O   0  0  0  0  0  0
  -28.3906  -26.5734   20.1261 O   0  0  0  0  0  0
  -26.5623  -34.8908   22.4681 O   0  0  0  0  0  0
  -23.5386  -32.1414   23.7417 O   0  0  0  0  0  0
  -29.6234  -19.5872   19.2426 C   0  0  0  0  0  0
  -29.9178  -18.1684   21.2021 C   0  0  0  0  0  0
  -29.6693  -17.1418   19.0121 C   0  0  0  0  0  0
  -29.8224  -19.4923   20.6367 C   0  0  0  0  0  0
  -29.5296  -18.4279   18.4451 C   0  0  0  0  0  0
  -29.8753  -16.9791   20.4030 C   0  0  0  0  0  0
  -28.7489  -24.1930   20.5039 C   0  0  0  0  0  0
  -30.0184  -20.7228   21.4870 C   0  0  0  0  0  0
  -28.4356  -25.2427   19.6836 C   0  0  0  0  0  0
  -29.0672  -24.3429   21.9639 C   0  0  0  0  0  0
  -28.9478  -22.7021   20.1230 C   0  0  0  0  0  0
  -29.8250  -23.0688   22.3528 C   0  0  0  0  0  0
  -28.2936  -25.0944   18.1774 C   0  0  0  0  0  0
  -29.6056  -22.0364   21.2979 N   0  0  0  0  0  0
  -29.2981  -18.5614   17.0763 N   0  0  0  0  0  0
  -29.9293  -15.6420   20.9741 N   0  0  0  0  0  0
  -30.7246  -20.5145   22.5989 N   0  3  0  0  0  0
  -31.4763  -12.4682   19.1558 H   0  0  0  0  0  0
  -30.3462  -11.3567   19.8699 H   0  0  0  0  0  0
  -29.7543  -11.7667   17.4697 H   0  0  0  0  0  0
  -29.6780  -13.4862   17.7528 H   0  0  0  0  0  0
  -27.8342  -11.3271   18.8224 H   0  0  0  0  0  0
  -27.3869  -12.6597   17.7861 H   0  0  0  0  0  0
  -27.6852  -14.2742   19.5650 H   0  0  0  0  0  0
  -28.6959  -12.0228   21.3651 H   0  0  0  0  0  0
  -28.4608  -13.6743   21.8637 H   0  0  0  0  0  0
  -25.2811   -9.5631   22.4744 H   0  0  0  0  0  0
  -24.0018   -7.4608   22.7437 H   0  0  0  0  0  0
  -21.0872   -8.8804   19.8954 H   0  0  0  0  0  0
  -22.3766  -10.9697   19.6135 H   0  0  0  0  0  0
  -21.2048   -7.6169   23.9742 H   0  0  0  0  0  0
  -21.1467   -6.0525   25.9075 H   0  0  0  0  0  0
  -22.0601   -2.7622   23.2817 H   0  0  0  0  0  0
  -22.4083  -11.9905   22.4843 H   0  0  0  0  0  0
  -21.1102  -13.1274   22.2579 H   0  0  0  0  0  0
  -24.6582  -15.8488   20.5504 H   0  0  0  0  0  0
  -26.2670  -15.6400   20.0811 H   0  0  0  0  0  0
  -26.7130  -32.5452   23.1130 H   0  0  0  0  0  0
  -25.0058  -33.9746   25.0444 H   0  0  0  0  0  0
  -22.7050  -31.3057   21.4069 H   0  0  0  0  0  0
  -23.3728  -35.9621   23.3333 H   0  0  0  0  0  0
  -24.3560  -36.8890   22.2060 H   0  0  0  0  0  0
  -23.7222  -37.6491   23.6660 H   0  0  0  0  0  0
  -26.0984  -31.5705   20.6248 H   0  0  0  0  0  0
  -26.8266  -30.8280   22.0199 H   0  0  0  0  0  0
  -28.1104  -29.0193   21.1672 H   0  0  0  0  0  0
  -25.9773  -25.9292   19.0258 H   0  0  0  0  0  0
  -23.9630  -27.3026   19.0328 H   0  0  0  0  0  0
  -23.7454  -30.6034   19.4082 H   0  0  0  0  0  0
  -22.7461  -29.2537   19.8582 H   0  0  0  0  0  0
  -25.1274  -36.1943   25.0823 H   0  0  0  0  0  0
  -20.9949  -28.3223   24.1419 H   0  0  0  0  0  0
  -20.5630  -26.2268   23.3600 H   0  0  0  0  0  0
  -21.6624  -26.7411   22.1220 H   0  0  0  0  0  0
  -19.6902  -25.6284   21.1235 H   0  0  0  0  0  0
  -19.6700  -27.3180   20.6726 H   0  0  0  0  0  0
  -17.4182  -26.6659   21.4027 H   0  0  0  0  0  0
  -18.0343  -26.0071   22.9019 H   0  0  0  0  0  0
  -19.7939  -30.7266   24.2248 H   0  0  0  0  0  0
  -17.5020  -31.6268   24.5164 H   0  0  0  0  0  0
  -15.5346  -30.2987   23.7678 H   0  0  0  0  0  0
  -15.8663  -28.0832   22.7061 H   0  0  0  0  0  0
  -24.5869  -30.7163   25.7857 H   0  0  0  0  0  0
  -24.9009  -32.2941   26.5003 H   0  0  0  0  0  0
  -25.8096  -30.8889   27.0253 H   0  0  0  0  0  0
  -26.2943  -29.6764   24.1277 H   0  0  0  0  0  0
  -27.4014  -29.7320   25.4793 H   0  0  0  0  0  0
  -27.8816  -30.4313   23.9516 H   0  0  0  0  0  0
  -27.2644  -33.3642   26.2114 H   0  0  0  0  0  0
  -28.3810  -32.6989   25.0300 H   0  0  0  0  0  0
  -28.0770  -31.8499   26.5385 H   0  0  0  0  0  0
  -28.2597  -38.0082   24.7484 H   0  0  0  0  0  0
  -28.1052  -36.2608   24.6307 H   0  0  0  0  0  0
  -27.2295  -37.1454   25.8876 H   0  0  0  0  0  0
  -20.9318  -29.8749   21.6912 H   0  0  0  0  0  0
  -26.0164  -38.2841   24.1432 H   0  0  0  0  0  0
  -29.5483  -20.5490   18.7656 H   0  0  0  0  0  0
  -30.0551  -18.0461   22.2678 H   0  0  0  0  0  0
  -29.5913  -16.2758   18.3730 H   0  0  0  0  0  0
  -28.1430  -24.4330   22.5370 H   0  0  0  0  0  0
  -29.6615  -25.2409   22.1413 H   0  0  0  0  0  0
  -29.5787  -22.6438   19.2352 H   0  0  0  0  0  0
  -27.9876  -22.2346   19.9045 H   0  0  0  0  0  0
  -29.4905  -22.7225   23.3326 H   0  0  0  0  0  0
  -30.8924  -23.2891   22.4259 H   0  0  0  0  0  0
  -29.2127  -24.6933   17.7515 H   0  0  0  0  0  0
  -28.0995  -26.0555   17.6972 H   0  0  0  0  0  0
  -27.4790  -24.4136   17.9288 H   0  0  0  0  0  0
  -28.9108  -19.4387   16.7457 H   0  0  0  0  0  0
  -28.9089  -17.7636   16.5819 H   0  0  0  0  0  0
  -29.1213  -15.3821   21.5172 H   0  0  0  0  0  0
  -31.1223  -19.6042   22.7680 H   0  0  0  0  0  0
  -30.9789  -21.2660   23.2150 H   0  0  0  0  0  0
  1 25  1  0  0  0
  1 30  2  0  0  0
  1 86  1  0  0  0
  2  3  1  0  0  0
  2 25  1  0  0  0
  2 88  1  0  0  0
  2 89  1  0  0  0
  3  4  1  0  0  0
  3 90  1  0  0  0
  3 91  1  0  0  0
  4  5  1  0  0  0
  4 92  1  0  0  0
  4 93  1  0  0  0
  5  6  1  0  0  0
  5 26  1  0  0  0
  5 94  1  0  0  0
  6 25  1  0  0  0
  6 95  1  0  0  0
  6 96  1  0  0  0
  7  8  2  0  0  0
  7 26  1  0  0  0
  7 29  1  0  0  0
  8  9  1  0  0  0
  8 22  1  0  0  0
  9 10  1  0  0  0
  9 27  2  0  0  0
 10 11  2  0  0  0
 10 15  1  0  0  0
 11 12  1  0  0  0
 11 97  1  0  0  0
 12 13  2  0  0  0
 12 98  1  0  0  0
 13 14  1  0  0  0
 13 31  1  0  0  0
 14 15  2  0  0  0
 14 99  1  0  0  0
 15100  1  0  0  0
 16 17  2  0  0  0
 16 21  1  0  0  0
 16 31  1  0  0  0
 17 18  1  0  0  0
 17101  1  0  0  0
 18 19  2  0  0  0
 18102  1  0  0  0
 19 20  1  0  0  0
 19 24  1  0  0  0
 20 21  2  0  0  0
 20103  1  0  0  0
 21 23  1  0  0  0
 22 28  1  0  0  0
 22 32  2  0  0  0
 26 27  1  0  0  0
 28104  1  0  0  0
 28105  1  0  0  0
 29106  1  0  0  0
 29107  1  0  0  0
 33 34  1  0  0  0
 33 66  1  0  0  0
 33 70  2  0  0  0
 34 36  1  0  0  0
 34 59  1  0  0  0
 34108  1  0  0  0
 35 44  2  0  0  0
 35 45  1  0  0  0
 35 68  1  0  0  0
 36 56  1  0  0  0
 36109  1  0  0  0
 37 39  1  0  0  0
 37 47  1  0  0  0
 37 66  1  0  0  0
 37110  1  0  0  0
 38 43  2  0  0  0
 38 46  1  0  0  0
 38 47  1  0  0  0
 39 64  1  0  0  0
 39 67  2  0  0  0
 40 52  1  0  0  0
 40 53  2  0  0  0
 40 58  1  0  0  0
 41111  1  0  0  0
 41112  1  0  0  0
 41113  1  0  0  0
 41 48  1  0  0  0
 42 43  1  0  0  0
 42 66  1  0  0  0
 42114  1  0  0  0
 42115  1  0  0  0
 43 44  1  0  0  0
 44116  1  0  0  0
 45 46  2  0  0  0
 45117  1  0  0  0
 46118  1  0  0  0
 47119  1  0  0  0
 47120  1  0  0  0
 48 56  1  0  0  0
 48 65  1  0  0  0
 48121  1  0  0  0
 49 50  1  0  0  0
 49 53  1  0  0  0
 49 64  1  0  0  0
 49122  1  0  0  0
 50 51  1  0  0  0
 50123  1  0  0  0
 50124  1  0  0  0
 51 52  1  0  0  0
 51125  1  0  0  0
 51126  1  0  0  0
 52127  1  0  0  0
 52128  1  0  0  0
 53 54  1  0  0  0
 54 55  2  0  0  0
 54129  1  0  0  0
 55 57  1  0  0  0
 55130  1  0  0  0
 56 69  2  0  0  0
 57 58  2  0  0  0
 57131  1  0  0  0
 58132  1  0  0  0
 59 60  1  0  0  0
 59 61  1  0  0  0
 59 62  1  0  0  0
 60133  1  0  0  0
 60134  1  0  0  0
 60135  1  0  0  0
 61136  1  0  0  0
 61137  1  0  0  0
 61138  1  0  0  0
 62139  1  0  0  0
 62140  1  0  0  0
 62141  1  0  0  0
 63 65  1  0  0  0
 63142  1  0  0  0
 63143  1  0  0  0
 63144  1  0  0  0
 64145  1  0  0  0
 65146  1  0  0  0
 68 79  1  0  0  0
 71 74  2  0  0  0
 71 75  1  0  0  0
 71147  1  0  0  0
 72 74  1  0  0  0
 72 76  2  0  0  0
 72148  1  0  0  0
 73 75  2  0  0  0
 73 76  1  0  0  0
 73149  1  0  0  0
 74 78  1  0  0  0
 75 85  1  0  0  0
 76 86  1  0  0  0
 77 79  2  0  0  0
 77 80  1  0  0  0
 77 81  1  0  0  0
 78 84  1  0  0  0
 78 87  2  0  0  0
 79 83  1  0  0  0
 80 82  1  0  0  0
 80150  1  0  0  0
 80151  1  0  0  0
 81 84  1  0  0  0
 81152  1  0  0  0
 81153  1  0  0  0
 82 84  1  0  0  0
 82154  1  0  0  0
 82155  1  0  0  0
 83156  1  0  0  0
 83157  1  0  0  0
 83158  1  0  0  0
 85159  1  0  0  0
 85160  1  0  0  0
 86161  1  0  0  0
 87162  1  0  0  0
 87163  1  0  0  0
M  CHG  1  87   1
M  ISO  4   1 100  68 101  79 101  86 100
M  END
> <chiral flag>
0

> <version>
0

> <s_m_source_file>
/data/baiqing/PycharmProjects/Reinvent-master-3.2/result/LINK_invent/BTK/process_docking_weight1_custom_product_contain_oxygen_bond_distance_aromatic_linkinvent_7_9_3/rearranged_h_0148.sdf

> <i_m_source_file_index>
67

> <r_mmod_Potential_Energy-OPLS-2005>
-113.951454162598

> <r_mmod_Stretch_Energy-OPLS-2005>
68.4423370361328

> <r_mmod_Bend_Energy-OPLS-2005>
150.217132568359

> <r_mmod_Torsional_Energy-OPLS-2005>
274.152313232422

> <r_mmod_Improper_Torsional_Energy-OPLS-2005>
9.0421781539917

> <r_mmod_Van_der_Waal_Energy-OPLS-2005>
151.865798950195

> <r_mmod_Electrostatic_Energy-OPLS-2005>
-379.881408691406

> <r_mmod_Solvation_Energy-OPLS-2005>
-419.44775390625

> <b_mmod_Minimization_Converged-OPLS-2005>
0

> <r_mmod_RMS_Derivative-OPLS-2005>
3.61759686470032

$$$$
67
                    3D
 Structure written by MMmdl.
161170  0  0  1  0            999 V2000
  -30.5312  -14.8614   20.4615 C   0  0  0  0  0  0
  -30.4598  -12.5284   19.4895 C   0  0  0  0  0  0
  -29.5289  -12.5217   18.2515 C   0  0  0  0  0  0
  -28.0546  -12.3269   18.6619 C   0  0  0  0  0  0
  -27.6454  -13.2328   19.8519 C   0  0  2  0  0  0
  -28.6906  -13.1806   20.9893 C   0  0  0  0  0  0
  -25.2552  -13.8223   20.5724 C   0  0  0  0  0  0
  -24.1832  -13.0475   20.9225 C   0  0  0  0  0  0
  -24.6406  -11.6947   20.8750 C   0  0  0  0  0  0
  -23.9076  -10.4325   21.0406 C   0  0  0  0  0  0
  -24.3628   -9.4239   21.9182 C   0  0  0  0  0  0
  -23.6302   -8.2271   22.0751 C   0  0  0  0  0  0
  -22.4280   -8.0304   21.3548 C   0  0  0  0  0  0
  -21.9914   -9.0287   20.4660 C   0  0  0  0  0  0
  -22.7246  -10.2164   20.3066 C   0  0  0  0  0  0
  -21.6862   -6.0755   22.5279 C   0  0  0  0  0  0
  -21.4030   -6.5652   23.8216 C   0  0  0  0  0  0
  -21.3656   -5.6794   24.9173 C   0  0  0  0  0  0
  -21.6029   -4.3055   24.7216 C   0  0  0  0  0  0
  -21.8825   -3.8159   23.4337 C   0  0  0  0  0  0
  -21.9209   -4.6988   22.3399 C   0  0  0  0  0  0
  -22.7845  -13.5258   21.1866 C   0  0  0  0  0  0
  -22.1675   -4.2175   21.0974 F   0  0  0  0  0  0
  -21.5611   -3.4530   25.7727 F   0  0  0  0  0  0
  -29.9809  -13.5885   20.4124 N   0  0  0  0  0  0
  -26.2966  -12.9413   20.3273 N   0  0  0  0  0  0
  -25.9334  -11.6557   20.5730 N   0  0  0  0  0  0
  -22.0477  -12.8261   22.0417 N   0  0  0  0  0  0
  -25.4248  -15.1962   20.4185 N   0  0  0  0  0  0
  -31.7118  -15.0157   20.1270 O   0  0  0  0  0  0
  -21.6651   -6.8896   21.4233 O   0  0  0  0  0  0
  -22.3537  -14.5563   20.6720 O   0  0  0  0  0  0
  -24.6405  -31.8477   23.1903 C   0  0  0  0  0  0
  -25.9191  -32.4713   23.8292 C   0  0  1  0  0  0
  -27.2147  -27.1706   20.1436 C   0  0  0  0  0  0
  -25.5946  -33.8519   24.2211 N   0  0  0  0  0  0
  -23.4426  -30.4684   21.5349 C   0  0  2  0  0  0
  -24.8918  -28.9050   20.1073 C   0  0  0  0  0  0
  -22.7566  -29.4565   22.4863 C   0  0  0  0  0  0
  -18.0312  -28.1395   22.8481 C   0  0  0  0  0  0
  -24.1497  -36.7259   23.2639 C   0  0  0  0  0  0
  -25.9969  -30.7317   21.3875 C   0  0  0  0  0  0
  -26.0669  -29.3477   20.7263 C   0  0  0  0  0  0
  -27.2294  -28.4946   20.7310 C   0  0  0  0  0  0
  -26.0200  -26.8306   19.4696 C   0  0  0  0  0  0
  -24.8786  -27.6590   19.4649 C   0  0  0  0  0  0
  -23.6667  -29.8017   20.1529 C   0  0  0  0  0  0
  -25.4122  -36.3043   24.0323 C   0  0  1  0  0  0
  -20.5925  -28.3719   23.1241 C   0  0  2  0  0  0
  -20.6790  -26.9422   22.5406 C   0  0  0  0  0  0
  -19.5755  -26.6378   21.5218 C   0  0  0  0  0  0
  -18.1941  -26.7931   22.1632 C   0  0  0  0  0  0
  -19.1568  -28.8872   23.2851 C   0  0  0  0  0  0
  -18.9480  -30.1474   23.8866 C   0  0  0  0  0  0
  -17.6473  -30.6582   24.0563 C   0  0  0  0  0  0
  -25.9071  -34.9417   23.5076 C   0  0  0  0  0  0
  -16.5366  -29.9071   23.6337 C   0  0  0  0  0  0
  -16.7300  -28.6499   23.0342 C   0  0  0  0  0  0
  -26.4512  -31.6563   25.0719 C   0  0  0  0  0  0
  -25.3693  -31.3749   26.1408 C   0  0  0  0  0  0
  -27.0381  -30.2961   24.6302 C   0  0  0  0  0  0
  -27.6055  -32.4322   25.7487 C   0  0  0  0  0  0
  -27.5587  -37.1777   24.8458 C   0  0  0  0  0  0
  -21.4259  -29.3047   22.3613 N   0  0  0  0  0  0
  -26.4288  -37.3752   23.9416 N   0  0  0  0  0  0
  -24.7122  -31.0372   22.0925 N   0  0  0  0  0  0
  -23.4227  -28.8115   23.2999 O   0  0  0  0  0  0
  -28.2674  -26.1979   20.2384 O   0  0  0  0  0  0
  -26.5655  -34.8909   22.4658 O   0  0  0  0  0  0
  -23.5530  -32.1339   23.7147 O   0  0  0  0  0  0
  -28.8844  -19.3761   21.6506 C   0  0  0  0  0  0
  -28.9516  -17.9520   21.8893 C   0  0  0  0  0  0
  -29.4894  -19.6751   20.4548 C   0  0  0  0  0  0
  -29.6397  -17.3415   20.8685 C   0  0  0  0  0  0
  -30.9363  -24.5622   21.0399 C   0  0  0  0  0  0
  -31.3346  -25.7854   21.4255 C   0  0  0  0  0  0
  -29.8098  -20.9251   19.6298 C   0  0  0  0  0  0
  -31.5739  -23.8175   19.8746 C   0  0  0  0  0  0
  -29.7797  -23.8384   21.7054 C   0  0  0  0  0  0
  -30.5177  -23.2018   18.9281 C   0  0  0  0  0  0
  -28.7936  -23.3508   20.6341 C   0  0  1  0  0  0
  -28.0062  -24.6925   19.9930 C   0  0  0  0  0  0
  -29.5644  -22.3527   19.7083 N   0  0  0  0  0  0
  -29.6490  -15.9223   20.7287 N   0  0  0  0  0  0
  -30.5402  -20.4996   18.5829 N   0  3  0  0  0  0
  -29.9578  -18.3888   19.9618 O   0  0  0  0  0  0
  -31.4935  -12.7004   19.1856 H   0  0  0  0  0  0
  -30.4552  -11.5587   19.9883 H   0  0  0  0  0  0
  -29.8303  -11.7376   17.5557 H   0  0  0  0  0  0
  -29.6363  -13.4645   17.7122 H   0  0  0  0  0  0
  -27.9230  -11.2787   18.9332 H   0  0  0  0  0  0
  -27.3983  -12.5049   17.8088 H   0  0  0  0  0  0
  -27.6349  -14.2498   19.4584 H   0  0  0  0  0  0
  -28.7566  -12.1782   21.4141 H   0  0  0  0  0  0
  -28.4022  -13.8343   21.8147 H   0  0  0  0  0  0
  -25.2771   -9.5723   22.4758 H   0  0  0  0  0  0
  -24.0037   -7.4660   22.7460 H   0  0  0  0  0  0
  -21.0849   -8.8809   19.8956 H   0  0  0  0  0  0
  -22.3702  -10.9709   19.6183 H   0  0  0  0  0  0
  -21.2022   -7.6160   23.9736 H   0  0  0  0  0  0
  -21.1458   -6.0512   25.9077 H   0  0  0  0  0  0
  -22.0605   -2.7627   23.2823 H   0  0  0  0  0  0
  -22.4082  -11.9933   22.4828 H   0  0  0  0  0  0
  -21.1094  -13.1296   22.2597 H   0  0  0  0  0  0
  -24.6546  -15.8441   20.5445 H   0  0  0  0  0  0
  -26.2622  -15.6449   20.0694 H   0  0  0  0  0  0
  -26.7263  -32.5331   23.1028 H   0  0  0  0  0  0
  -25.0060  -33.9633   25.0337 H   0  0  0  0  0  0
  -22.7440  -31.2938   21.3836 H   0  0  0  0  0  0
  -23.3769  -35.9578   23.3278 H   0  0  0  0  0  0
  -24.3595  -36.8908   22.2057 H   0  0  0  0  0  0
  -23.7236  -37.6446   23.6685 H   0  0  0  0  0  0
  -26.1571  -31.4919   20.6217 H   0  0  0  0  0  0
  -26.8651  -30.7741   22.0339 H   0  0  0  0  0  0
  -28.1232  -28.8239   21.2414 H   0  0  0  0  0  0
  -25.9319  -25.8850   18.9558 H   0  0  0  0  0  0
  -23.9827  -27.3201   18.9628 H   0  0  0  0  0  0
  -23.7993  -30.5760   19.3964 H   0  0  0  0  0  0
  -22.7832  -29.2401   19.8447 H   0  0  0  0  0  0
  -25.1305  -36.1871   25.0811 H   0  0  0  0  0  0
  -21.0024  -28.3301   24.1359 H   0  0  0  0  0  0
  -20.5687  -26.2330   23.3622 H   0  0  0  0  0  0
  -21.6653  -26.7420   22.1201 H   0  0  0  0  0  0
  -19.6907  -25.6283   21.1253 H   0  0  0  0  0  0
  -19.6676  -27.3186   20.6743 H   0  0  0  0  0  0
  -17.4210  -26.6693   21.4033 H   0  0  0  0  0  0
  -18.0326  -26.0075   22.9031 H   0  0  0  0  0  0
  -19.7948  -30.7311   24.2207 H   0  0  0  0  0  0
  -17.5016  -31.6254   24.5175 H   0  0  0  0  0  0
  -15.5361  -30.2954   23.7665 H   0  0  0  0  0  0
  -15.8710  -28.0810   22.7049 H   0  0  0  0  0  0
  -24.5872  -30.7104   25.7714 H   0  0  0  0  0  0
  -24.8873  -32.2928   26.4785 H   0  0  0  0  0  0
  -25.7956  -30.8939   27.0219 H   0  0  0  0  0  0
  -26.3004  -29.6674   24.1302 H   0  0  0  0  0  0
  -27.3986  -29.7272   25.4883 H   0  0  0  0  0  0
  -27.8915  -30.4201   23.9632 H   0  0  0  0  0  0
  -27.2662  -33.3639   26.2031 H   0  0  0  0  0  0
  -28.3862  -32.6856   25.0302 H   0  0  0  0  0  0
  -28.0727  -31.8470   26.5417 H   0  0  0  0  0  0
  -28.2571  -38.0109   24.7556 H   0  0  0  0  0  0
  -28.1120  -36.2643   24.6217 H   0  0  0  0  0  0
  -27.2322  -37.1345   25.8865 H   0  0  0  0  0  0
  -20.9467  -29.8764   21.6797 H   0  0  0  0  0  0
  -26.0158  -38.2823   24.1422 H   0  0  0  0  0  0
  -28.4212  -20.1099   22.2937 H   0  0  0  0  0  0
  -28.5138  -17.4325   22.7308 H   0  0  0  0  0  0
  -32.1465  -26.2977   20.9306 H   0  0  0  0  0  0
  -30.8451  -26.3025   22.2391 H   0  0  0  0  0  0
  -32.2037  -23.0235   20.2766 H   0  0  0  0  0  0
  -32.2336  -24.4857   19.3198 H   0  0  0  0  0  0
  -29.2753  -24.4823   22.4273 H   0  0  0  0  0  0
  -30.1715  -22.9878   22.2656 H   0  0  0  0  0  0
  -31.0202  -22.7080   18.1008 H   0  0  0  0  0  0
  -29.9714  -24.0042   18.4374 H   0  0  0  0  0  0
  -28.0336  -22.7434   21.1262 H   0  0  0  0  0  0
  -26.9882  -24.5390   20.3505 H   0  0  0  0  0  0
  -27.9255  -24.5615   18.9142 H   0  0  0  0  0  0
  -28.7749  -15.5237   21.0323 H   0  0  0  0  0  0
  -30.7383  -19.5107   18.5248 H   0  0  0  0  0  0
  -30.8738  -21.1088   17.8542 H   0  0  0  0  0  0
  1 25  1  0  0  0
  1 30  2  0  0  0
  1 84  1  0  0  0
  2  3  1  0  0  0
  2 25  1  0  0  0
  2 87  1  0  0  0
  2 88  1  0  0  0
  3  4  1  0  0  0
  3 89  1  0  0  0
  3 90  1  0  0  0
  4  5  1  0  0  0
  4 91  1  0  0  0
  4 92  1  0  0  0
  5  6  1  0  0  0
  5 26  1  0  0  0
  5 93  1  0  0  0
  6 25  1  0  0  0
  6 94  1  0  0  0
  6 95  1  0  0  0
  7  8  2  0  0  0
  7 26  1  0  0  0
  7 29  1  0  0  0
  8  9  1  0  0  0
  8 22  1  0  0  0
  9 10  1  0  0  0
  9 27  2  0  0  0
 10 11  2  0  0  0
 10 15  1  0  0  0
 11 12  1  0  0  0
 11 96  1  0  0  0
 12 13  2  0  0  0
 12 97  1  0  0  0
 13 14  1  0  0  0
 13 31  1  0  0  0
 14 15  2  0  0  0
 14 98  1  0  0  0
 15 99  1  0  0  0
 16 17  2  0  0  0
 16 21  1  0  0  0
 16 31  1  0  0  0
 17 18  1  0  0  0
 17100  1  0  0  0
 18 19  2  0  0  0
 18101  1  0  0  0
 19 20  1  0  0  0
 19 24  1  0  0  0
 20 21  2  0  0  0
 20102  1  0  0  0
 21 23  1  0  0  0
 22 28  1  0  0  0
 22 32  2  0  0  0
 26 27  1  0  0  0
 28103  1  0  0  0
 28104  1  0  0  0
 29105  1  0  0  0
 29106  1  0  0  0
 33 34  1  0  0  0
 33 66  1  0  0  0
 33 70  2  0  0  0
 34 36  1  0  0  0
 34 59  1  0  0  0
 34107  1  0  0  0
 35 44  2  0  0  0
 35 45  1  0  0  0
 35 68  1  0  0  0
 36 56  1  0  0  0
 36108  1  0  0  0
 37 39  1  0  0  0
 37 47  1  0  0  0
 37 66  1  0  0  0
 37109  1  0  0  0
 38 43  2  0  0  0
 38 46  1  0  0  0
 38 47  1  0  0  0
 39 64  1  0  0  0
 39 67  2  0  0  0
 40 52  1  0  0  0
 40 53  2  0  0  0
 40 58  1  0  0  0
 41110  1  0  0  0
 41111  1  0  0  0
 41112  1  0  0  0
 41 48  1  0  0  0
 42 43  1  0  0  0
 42 66  1  0  0  0
 42113  1  0  0  0
 42114  1  0  0  0
 43 44  1  0  0  0
 44115  1  0  0  0
 45 46  2  0  0  0
 45116  1  0  0  0
 46117  1  0  0  0
 47118  1  0  0  0
 47119  1  0  0  0
 48 56  1  0  0  0
 48 65  1  0  0  0
 48120  1  0  0  0
 49 50  1  0  0  0
 49 53  1  0  0  0
 49 64  1  0  0  0
 49121  1  0  0  0
 50 51  1  0  0  0
 50122  1  0  0  0
 50123  1  0  0  0
 51 52  1  0  0  0
 51124  1  0  0  0
 51125  1  0  0  0
 52126  1  0  0  0
 52127  1  0  0  0
 53 54  1  0  0  0
 54 55  2  0  0  0
 54128  1  0  0  0
 55 57  1  0  0  0
 55129  1  0  0  0
 56 69  2  0  0  0
 57 58  2  0  0  0
 57130  1  0  0  0
 58131  1  0  0  0
 59 60  1  0  0  0
 59 61  1  0  0  0
 59 62  1  0  0  0
 60132  1  0  0  0
 60133  1  0  0  0
 60134  1  0  0  0
 61135  1  0  0  0
 61136  1  0  0  0
 61137  1  0  0  0
 62138  1  0  0  0
 62139  1  0  0  0
 62140  1  0  0  0
 63 65  1  0  0  0
 63141  1  0  0  0
 63142  1  0  0  0
 63143  1  0  0  0
 64144  1  0  0  0
 65145  1  0  0  0
 68 82  1  0  0  0
 71 72  1  0  0  0
 71 73  2  0  0  0
 71146  1  0  0  0
 72 74  2  0  0  0
 72147  1  0  0  0
 73 77  1  0  0  0
 73 86  1  0  0  0
 74 84  1  0  0  0
 74 86  1  0  0  0
 75 76  2  0  0  0
 75 78  1  0  0  0
 75 79  1  0  0  0
 76148  1  0  0  0
 76149  1  0  0  0
 77 83  1  0  0  0
 77 85  2  0  0  0
 78 80  1  0  0  0
 78150  1  0  0  0
 78151  1  0  0  0
 79 81  1  0  0  0
 79152  1  0  0  0
 79153  1  0  0  0
 80 83  1  0  0  0
 80154  1  0  0  0
 80155  1  0  0  0
 81 82  1  0  0  0
 81 83  1  0  0  0
 81156  1  0  0  0
 82157  1  0  0  0
 82158  1  0  0  0
 84159  1  0  0  0
 85160  1  0  0  0
 85161  1  0  0  0
M  CHG  1  85   1
M  ISO  4   1 100  68 101  82 101  84 100
M  END
> <chiral flag>
0

> <version>
0

> <s_m_source_file>
/data/baiqing/PycharmProjects/Reinvent-master-3.2/result/LINK_invent/BTK/process_docking_weight1_custom_product_contain_oxygen_bond_distance_aromatic_linkinvent_7_9_3/rearranged_h_0148.sdf

> <i_m_source_file_index>
68

> <r_mmod_Potential_Energy-OPLS-2005>
355.927978515625

> <r_mmod_Stretch_Energy-OPLS-2005>
205.614532470703

> <r_mmod_Bend_Energy-OPLS-2005>
310.449615478516

> <r_mmod_Torsional_Energy-OPLS-2005>
275.205993652344

> <r_mmod_Improper_Torsional_Energy-OPLS-2005>
7.5453519821167

> <r_mmod_Van_der_Waal_Energy-OPLS-2005>
140.221572875977

> <r_mmod_Electrostatic_Energy-OPLS-2005>
-293.059906005859

> <r_mmod_Solvation_Energy-OPLS-2005>
-441.345245361328

> <b_mmod_Minimization_Converged-OPLS-2005>
0

> <r_mmod_RMS_Derivative-OPLS-2005>
1.86188697814941

$$$$
68
                    3D
 Structure written by MMmdl.
169178  0  0  1  0            999 V2000
  -30.7226  -14.4834   20.4700 C   0  0  0  0  0  0
  -30.4000  -12.2865   19.4570 C   0  0  0  0  0  0
  -29.4962  -12.4755   18.2216 C   0  0  0  0  0  0
  -28.0117  -12.3683   18.6204 C   0  0  0  0  0  0
  -27.6516  -13.2241   19.8651 C   0  0  2  0  0  0
  -28.6920  -13.0706   20.9979 C   0  0  0  0  0  0
  -25.2555  -13.8192   20.5701 C   0  0  0  0  0  0
  -24.1838  -13.0451   20.9180 C   0  0  0  0  0  0
  -24.6427  -11.6911   20.8758 C   0  0  0  0  0  0
  -23.9087  -10.4289   21.0406 C   0  0  0  0  0  0
  -24.3626   -9.4200   21.9191 C   0  0  0  0  0  0
  -23.6298   -8.2232   22.0762 C   0  0  0  0  0  0
  -22.4287   -8.0281   21.3528 C   0  0  0  0  0  0
  -21.9928   -9.0266   20.4630 C   0  0  0  0  0  0
  -22.7266  -10.2141   20.3050 C   0  0  0  0  0  0
  -21.6847   -6.0744   22.5267 C   0  0  0  0  0  0
  -21.4007   -6.5642   23.8213 C   0  0  0  0  0  0
  -21.3671   -5.6799   24.9169 C   0  0  0  0  0  0
  -21.6040   -4.3055   24.7223 C   0  0  0  0  0  0
  -21.8824   -3.8155   23.4328 C   0  0  0  0  0  0
  -21.9192   -4.6970   22.3380 C   0  0  0  0  0  0
  -22.7851  -13.5215   21.1856 C   0  0  0  0  0  0
  -22.1662   -4.2167   21.0951 F   0  0  0  0  0  0
  -21.5642   -3.4527   25.7723 F   0  0  0  0  0  0
  -30.0219  -13.3212   20.4274 N   0  0  0  0  0  0
  -26.2987  -12.9407   20.3323 N   0  0  0  0  0  0
  -25.9340  -11.6553   20.5762 N   0  0  0  0  0  0
  -22.0484  -12.8197   22.0393 N   0  0  0  0  0  0
  -25.4274  -15.1916   20.4133 N   0  0  0  0  0  0
  -31.9231  -14.5399   20.1892 O   0  0  0  0  0  0
  -21.6643   -6.8897   21.4236 O   0  0  0  0  0  0
  -22.3538  -14.5541   20.6723 O   0  0  0  0  0  0
  -24.6169  -31.8638   23.2155 C   0  0  0  0  0  0
  -25.9057  -32.4799   23.8414 C   0  0  1  0  0  0
  -27.2340  -27.4353   20.1006 C   0  0  0  0  0  0
  -25.5880  -33.8616   24.2325 N   0  0  0  0  0  0
  -23.4068  -30.4850   21.5566 C   0  0  2  0  0  0
  -24.8566  -28.9683   20.1072 C   0  0  0  0  0  0
  -22.7467  -29.4567   22.5012 C   0  0  0  0  0  0
  -18.0264  -28.1390   22.8466 C   0  0  0  0  0  0
  -24.1507  -36.7361   23.2636 C   0  0  0  0  0  0
  -25.9359  -30.8335   21.3681 C   0  0  0  0  0  0
  -26.0187  -29.4767   20.7011 C   0  0  0  0  0  0
  -27.2143  -28.7225   20.6867 C   0  0  0  0  0  0
  -26.0598  -26.9610   19.4720 C   0  0  0  0  0  0
  -24.8709  -27.7110   19.4846 C   0  0  0  0  0  0
  -23.6147  -29.8230   20.1703 C   0  0  0  0  0  0
  -25.4109  -36.3101   24.0311 C   0  0  1  0  0  0
  -20.5840  -28.3671   23.1343 C   0  0  2  0  0  0
  -20.6731  -26.9406   22.5429 C   0  0  0  0  0  0
  -19.5724  -26.6380   21.5216 C   0  0  0  0  0  0
  -18.1914  -26.7950   22.1610 C   0  0  0  0  0  0
  -19.1501  -28.8857   23.2876 C   0  0  0  0  0  0
  -18.9428  -30.1461   23.8888 C   0  0  0  0  0  0
  -17.6430  -30.6590   24.0566 C   0  0  0  0  0  0
  -25.9039  -34.9463   23.5124 C   0  0  0  0  0  0
  -16.5325  -29.9083   23.6323 C   0  0  0  0  0  0
  -16.7254  -28.6495   23.0346 C   0  0  0  0  0  0
  -26.4478  -31.6610   25.0771 C   0  0  0  0  0  0
  -25.3736  -31.3704   26.1513 C   0  0  0  0  0  0
  -27.0320  -30.3035   24.6196 C   0  0  0  0  0  0
  -27.6030  -32.4384   25.7532 C   0  0  0  0  0  0
  -27.5601  -37.1808   24.8436 C   0  0  0  0  0  0
  -21.4195  -29.3014   22.3792 N   0  0  0  0  0  0
  -26.4307  -37.3781   23.9393 N   0  0  0  0  0  0
  -24.6698  -31.0726   22.1049 N   0  0  0  0  0  0
  -23.4218  -28.8038   23.3000 O   0  0  0  0  0  0
  -28.3721  -26.6459   20.1733 O   0  0  0  0  0  0
  -26.5620  -34.8905   22.4714 O   0  0  0  0  0  0
  -23.5348  -32.1399   23.7546 O   0  0  0  0  0  0
  -30.6643  -25.7521   22.0960 C   0  0  0  0  0  0
  -31.9282  -25.3318   22.5361 C   0  0  0  0  0  0
  -31.6346  -23.2978   21.2745 C   0  0  0  0  0  0
  -29.9160  -18.1415   20.1809 C   0  0  0  0  0  0
  -30.9118  -16.7586   18.5713 C   0  0  0  0  0  0
  -29.8155  -24.9472   21.2860 C   0  0  0  0  0  0
  -30.3627  -23.7053   20.7699 C   0  0  0  0  0  0
  -32.4048  -24.0774   22.1498 C   0  0  0  0  0  0
  -30.2841  -16.8068   19.7926 C   0  0  0  0  0  0
  -30.3023  -19.0913   19.2469 C   0  0  0  0  0  0
  -29.7365  -21.3468   20.0653 C   0  0  0  0  0  0
  -27.3163  -24.4571   20.6618 C   0  0  0  0  0  0
  -27.8095  -25.9934   22.4775 C   0  0  0  0  0  0
  -29.7992  -22.8533   19.6438 C   0  0  2  0  0  0
  -28.3582  -25.5143   21.0967 C   0  0  0  0  0  0
  -33.6436  -23.6192   22.5955 N   0  0  0  0  0  0
  -30.0007  -15.6208   20.5560 N   0  0  0  0  0  0
  -30.1995  -20.4446   19.1788 N   0  0  0  0  0  0
  -30.5346  -23.1519   18.4034 N   0  3  0  0  0  0
  -29.2558  -21.0176   21.1542 O   0  0  0  0  0  0
  -31.0899  -18.3330   17.8859 S   0  0  0  0  0  0
  -31.4536  -12.3339   19.1724 H   0  0  0  0  0  0
  -30.2500  -11.2995   19.8975 H   0  0  0  0  0  0
  -29.7327  -11.7229   17.4688 H   0  0  0  0  0  0
  -29.6851  -13.4442   17.7564 H   0  0  0  0  0  0
  -27.8050  -11.3164   18.8221 H   0  0  0  0  0  0
  -27.3778  -12.6501   17.7787 H   0  0  0  0  0  0
  -27.6742  -14.2620   19.5358 H   0  0  0  0  0  0
  -28.6571  -12.0657   21.4229 H   0  0  0  0  0  0
  -28.4773  -13.7534   21.8204 H   0  0  0  0  0  0
  -25.2757   -9.5680   22.4783 H   0  0  0  0  0  0
  -24.0004   -7.4624   22.7482 H   0  0  0  0  0  0
  -21.0868   -8.8786   19.8916 H   0  0  0  0  0  0
  -22.3728  -10.9695   19.6165 H   0  0  0  0  0  0
  -21.1997   -7.6160   23.9718 H   0  0  0  0  0  0
  -21.1494   -6.0524   25.9086 H   0  0  0  0  0  0
  -22.0597   -2.7615   23.2811 H   0  0  0  0  0  0
  -22.4109  -11.9854   22.4765 H   0  0  0  0  0  0
  -21.1090  -13.1214   22.2586 H   0  0  0  0  0  0
  -24.6632  -15.8499   20.5227 H   0  0  0  0  0  0
  -26.2833  -15.6240   20.0901 H   0  0  0  0  0  0
  -26.7149  -32.5490   23.1189 H   0  0  0  0  0  0
  -24.9954  -33.9788   25.0403 H   0  0  0  0  0  0
  -22.6907  -31.2983   21.4203 H   0  0  0  0  0  0
  -23.3742  -35.9726   23.3275 H   0  0  0  0  0  0
  -24.3573  -36.9067   22.2056 H   0  0  0  0  0  0
  -23.7317  -37.6561   23.6718 H   0  0  0  0  0  0
  -26.0530  -31.6019   20.6023 H   0  0  0  0  0  0
  -26.8241  -30.8845   21.9841 H   0  0  0  0  0  0
  -28.1082  -29.1034   21.1562 H   0  0  0  0  0  0
  -26.0381  -26.0025   18.9787 H   0  0  0  0  0  0
  -23.9798  -27.3227   19.0117 H   0  0  0  0  0  0
  -23.7017  -30.5971   19.4096 H   0  0  0  0  0  0
  -22.7457  -29.2295   19.8842 H   0  0  0  0  0  0
  -25.1262  -36.1938   25.0788 H   0  0  0  0  0  0
  -20.9863  -28.3224   24.1491 H   0  0  0  0  0  0
  -20.5695  -26.2262   23.3598 H   0  0  0  0  0  0
  -21.6605  -26.7478   22.1208 H   0  0  0  0  0  0
  -19.6908  -25.6288   21.1266 H   0  0  0  0  0  0
  -19.6697  -27.3165   20.6727 H   0  0  0  0  0  0
  -17.4196  -26.6717   21.4004 H   0  0  0  0  0  0
  -18.0270  -26.0084   22.8974 H   0  0  0  0  0  0
  -19.7898  -30.7258   24.2300 H   0  0  0  0  0  0
  -17.4982  -31.6277   24.5179 H   0  0  0  0  0  0
  -15.5326  -30.2975   23.7691 H   0  0  0  0  0  0
  -15.8643  -28.0833   22.7075 H   0  0  0  0  0  0
  -24.5916  -30.7057   25.7832 H   0  0  0  0  0  0
  -24.8916  -32.2861   26.4963 H   0  0  0  0  0  0
  -25.8088  -30.8850   27.0281 H   0  0  0  0  0  0
  -26.2874  -29.6771   24.1260 H   0  0  0  0  0  0
  -27.4069  -29.7272   25.4676 H   0  0  0  0  0  0
  -27.8724  -30.4330   23.9374 H   0  0  0  0  0  0
  -27.2622  -33.3704   26.2081 H   0  0  0  0  0  0
  -28.3844  -32.6980   25.0372 H   0  0  0  0  0  0
  -28.0722  -31.8565   26.5489 H   0  0  0  0  0  0
  -28.2531  -38.0179   24.7512 H   0  0  0  0  0  0
  -28.1175  -36.2698   24.6189 H   0  0  0  0  0  0
  -27.2316  -37.1376   25.8837 H   0  0  0  0  0  0
  -20.9434  -29.8763   21.6983 H   0  0  0  0  0  0
  -26.0180  -38.2861   24.1396 H   0  0  0  0  0  0
  -30.3505  -26.7332   22.4192 H   0  0  0  0  0  0
  -32.5120  -25.9774   23.1770 H   0  0  0  0  0  0
  -32.0622  -22.3542   20.9611 H   0  0  0  0  0  0
  -29.4144  -18.3519   21.1157 H   0  0  0  0  0  0
  -31.2996  -15.9059   18.0269 H   0  0  0  0  0  0
  -27.4814  -23.4941   21.1495 H   0  0  0  0  0  0
  -27.2787  -24.3403   19.5813 H   0  0  0  0  0  0
  -26.3048  -24.7383   20.9466 H   0  0  0  0  0  0
  -27.8598  -25.1873   23.2096 H   0  0  0  0  0  0
  -26.7583  -26.2839   22.4258 H   0  0  0  0  0  0
  -28.3272  -26.8578   22.8911 H   0  0  0  0  0  0
  -28.7896  -23.0659   19.3580 H   0  0  0  0  0  0
  -34.0886  -24.0797   23.3864 H   0  0  0  0  0  0
  -33.8701  -22.6289   22.5397 H   0  0  0  0  0  0
  -29.0817  -15.5559   20.9688 H   0  0  0  0  0  0
  -30.5269  -20.8164   18.3013 H   0  0  0  0  0  0
  -31.4949  -22.8684   18.4670 H   0  0  0  0  0  0
  -30.5189  -24.1471   18.2661 H   0  0  0  0  0  0
  -30.0895  -22.7228   17.6133 H   0  0  0  0  0  0
  1 25  1  0  0  0
  1 30  2  0  0  0
  1 87  1  0  0  0
  2  3  1  0  0  0
  2 25  1  0  0  0
  2 92  1  0  0  0
  2 93  1  0  0  0
  3  4  1  0  0  0
  3 94  1  0  0  0
  3 95  1  0  0  0
  4  5  1  0  0  0
  4 96  1  0  0  0
  4 97  1  0  0  0
  5  6  1  0  0  0
  5 26  1  0  0  0
  5 98  1  0  0  0
  6 25  1  0  0  0
  6 99  1  0  0  0
  6100  1  0  0  0
  7  8  2  0  0  0
  7 26  1  0  0  0
  7 29  1  0  0  0
  8  9  1  0  0  0
  8 22  1  0  0  0
  9 10  1  0  0  0
  9 27  2  0  0  0
 10 11  2  0  0  0
 10 15  1  0  0  0
 11 12  1  0  0  0
 11101  1  0  0  0
 12 13  2  0  0  0
 12102  1  0  0  0
 13 14  1  0  0  0
 13 31  1  0  0  0
 14 15  2  0  0  0
 14103  1  0  0  0
 15104  1  0  0  0
 16 17  2  0  0  0
 16 21  1  0  0  0
 16 31  1  0  0  0
 17 18  1  0  0  0
 17105  1  0  0  0
 18 19  2  0  0  0
 18106  1  0  0  0
 19 20  1  0  0  0
 19 24  1  0  0  0
 20 21  2  0  0  0
 20107  1  0  0  0
 21 23  1  0  0  0
 22 28  1  0  0  0
 22 32  2  0  0  0
 26 27  1  0  0  0
 28108  1  0  0  0
 28109  1  0  0  0
 29110  1  0  0  0
 29111  1  0  0  0
 33 34  1  0  0  0
 33 66  1  0  0  0
 33 70  2  0  0  0
 34 36  1  0  0  0
 34 59  1  0  0  0
 34112  1  0  0  0
 35 44  2  0  0  0
 35 45  1  0  0  0
 35 68  1  0  0  0
 36 56  1  0  0  0
 36113  1  0  0  0
 37 39  1  0  0  0
 37 47  1  0  0  0
 37 66  1  0  0  0
 37114  1  0  0  0
 38 43  2  0  0  0
 38 46  1  0  0  0
 38 47  1  0  0  0
 39 64  1  0  0  0
 39 67  2  0  0  0
 40 52  1  0  0  0
 40 53  2  0  0  0
 40 58  1  0  0  0
 41115  1  0  0  0
 41116  1  0  0  0
 41117  1  0  0  0
 41 48  1  0  0  0
 42 43  1  0  0  0
 42 66  1  0  0  0
 42118  1  0  0  0
 42119  1  0  0  0
 43 44  1  0  0  0
 44120  1  0  0  0
 45 46  2  0  0  0
 45121  1  0  0  0
 46122  1  0  0  0
 47123  1  0  0  0
 47124  1  0  0  0
 48 56  1  0  0  0
 48 65  1  0  0  0
 48125  1  0  0  0
 49 50  1  0  0  0
 49 53  1  0  0  0
 49 64  1  0  0  0
 49126  1  0  0  0
 50 51  1  0  0  0
 50127  1  0  0  0
 50128  1  0  0  0
 51 52  1  0  0  0
 51129  1  0  0  0
 51130  1  0  0  0
 52131  1  0  0  0
 52132  1  0  0  0
 53 54  1  0  0  0
 54 55  2  0  0  0
 54133  1  0  0  0
 55 57  1  0  0  0
 55134  1  0  0  0
 56 69  2  0  0  0
 57 58  2  0  0  0
 57135  1  0  0  0
 58136  1  0  0  0
 59 60  1  0  0  0
 59 61  1  0  0  0
 59 62  1  0  0  0
 60137  1  0  0  0
 60138  1  0  0  0
 60139  1  0  0  0
 61140  1  0  0  0
 61141  1  0  0  0
 61142  1  0  0  0
 62143  1  0  0  0
 62144  1  0  0  0
 62145  1  0  0  0
 63 65  1  0  0  0
 63146  1  0  0  0
 63147  1  0  0  0
 63148  1  0  0  0
 64149  1  0  0  0
 65150  1  0  0  0
 68 85  1  0  0  0
 71 72  2  0  0  0
 71 76  1  0  0  0
 71151  1  0  0  0
 72 78  1  0  0  0
 72152  1  0  0  0
 73 77  1  0  0  0
 73 78  2  0  0  0
 73153  1  0  0  0
 74 79  1  0  0  0
 74 80  2  0  0  0
 74154  1  0  0  0
 75 79  2  0  0  0
 75 91  1  0  0  0
 75155  1  0  0  0
 76 77  2  0  0  0
 76 85  1  0  0  0
 77 84  1  0  0  0
 78 86  1  0  0  0
 79 87  1  0  0  0
 80 88  1  0  0  0
 80 91  1  0  0  0
 81 84  1  0  0  0
 81 88  1  0  0  0
 81 90  2  0  0  0
 82156  1  0  0  0
 82157  1  0  0  0
 82158  1  0  0  0
 82 85  1  0  0  0
 83 85  1  0  0  0
 83159  1  0  0  0
 83160  1  0  0  0
 83161  1  0  0  0
 84 89  1  0  0  0
 84162  1  0  0  0
 86163  1  0  0  0
 86164  1  0  0  0
 87165  1  0  0  0
 88166  1  0  0  0
 89167  1  0  0  0
 89168  1  0  0  0
 89169  1  0  0  0
M  CHG  1  89   1
M  ISO  4   1 100  68 101  85 101  87 100
M  END
> <chiral flag>
0

> <version>
0

> <s_m_source_file>
/data/baiqing/PycharmProjects/Reinvent-master-3.2/result/LINK_invent/BTK/process_docking_weight1_custom_product_contain_oxygen_bond_distance_aromatic_linkinvent_7_9_3/rearranged_h_0148.sdf

> <i_m_source_file_index>
69

> <r_mmod_Potential_Energy-OPLS-2005>
-301.495056152344

> <r_mmod_Stretch_Energy-OPLS-2005>
58.1596984863281

> <r_mmod_Bend_Energy-OPLS-2005>
160.924850463867

> <r_mmod_Torsional_Energy-OPLS-2005>
284.784637451172

> <r_mmod_Improper_Torsional_Energy-OPLS-2005>
10.5571174621582

> <r_mmod_Van_der_Waal_Energy-OPLS-2005>
182.023620605469

> <r_mmod_Electrostatic_Energy-OPLS-2005>
-479.227142333984

> <r_mmod_Solvation_Energy-OPLS-2005>
-544.479553222656

> <b_mmod_Minimization_Converged-OPLS-2005>
0

> <r_mmod_RMS_Derivative-OPLS-2005>
5.31571578979492

$$$$
69
                    3D
 Structure written by MMmdl.
159167  0  0  1  0            999 V2000
  -30.6487  -14.5343   20.5354 C   0  0  0  0  0  0
  -30.4358  -12.3344   19.4252 C   0  0  0  0  0  0
  -29.4994  -12.4995   18.2084 C   0  0  0  0  0  0
  -28.0205  -12.3509   18.6225 C   0  0  0  0  0  0
  -27.6578  -13.2026   19.8681 C   0  0  2  0  0  0
  -28.7030  -13.0034   20.9896 C   0  0  0  0  0  0
  -25.2591  -13.8160   20.5689 C   0  0  0  0  0  0
  -24.1836  -13.0435   20.9167 C   0  0  0  0  0  0
  -24.6385  -11.6899   20.8725 C   0  0  0  0  0  0
  -23.9049  -10.4290   21.0402 C   0  0  0  0  0  0
  -24.3607   -9.4208   21.9178 C   0  0  0  0  0  0
  -23.6288   -8.2243   22.0752 C   0  0  0  0  0  0
  -22.4270   -8.0278   21.3545 C   0  0  0  0  0  0
  -21.9901   -9.0248   20.4647 C   0  0  0  0  0  0
  -22.7225  -10.2129   20.3053 C   0  0  0  0  0  0
  -21.6854   -6.0731   22.5278 C   0  0  0  0  0  0
  -21.4015   -6.5636   23.8211 C   0  0  0  0  0  0
  -21.3660   -5.6790   24.9174 C   0  0  0  0  0  0
  -21.6045   -4.3054   24.7226 C   0  0  0  0  0  0
  -21.8819   -3.8144   23.4348 C   0  0  0  0  0  0
  -21.9194   -4.6959   22.3403 C   0  0  0  0  0  0
  -22.7861  -13.5233   21.1840 C   0  0  0  0  0  0
  -22.1661   -4.2146   21.0982 F   0  0  0  0  0  0
  -21.5630   -3.4538   25.7738 F   0  0  0  0  0  0
  -30.0262  -13.3268   20.4303 N   0  0  0  0  0  0
  -26.3009  -12.9311   20.3341 N   0  0  0  0  0  0
  -25.9309  -11.6477   20.5752 N   0  0  0  0  0  0
  -22.0506  -12.8226   22.0402 N   0  0  0  0  0  0
  -25.4295  -15.1893   20.4165 N   0  0  0  0  0  0
  -31.8142  -14.7194   20.1705 O   0  0  0  0  0  0
  -21.6638   -6.8873   21.4242 O   0  0  0  0  0  0
  -22.3542  -14.5540   20.6693 O   0  0  0  0  0  0
  -24.6169  -31.8659   23.2073 C   0  0  0  0  0  0
  -25.9050  -32.4813   23.8381 C   0  0  1  0  0  0
  -27.2341  -27.4057   20.1136 C   0  0  0  0  0  0
  -25.5895  -33.8612   24.2312 N   0  0  0  0  0  0
  -23.4071  -30.4870   21.5482 C   0  0  2  0  0  0
  -24.8558  -28.9432   20.1209 C   0  0  0  0  0  0
  -22.7424  -29.4646   22.4983 C   0  0  0  0  0  0
  -18.0275  -28.1375   22.8492 C   0  0  0  0  0  0
  -24.1486  -36.7315   23.2637 C   0  0  0  0  0  0
  -25.9378  -30.8228   21.3643 C   0  0  0  0  0  0
  -26.0167  -29.4515   20.7186 C   0  0  0  0  0  0
  -27.2121  -28.6911   20.7095 C   0  0  0  0  0  0
  -26.0587  -26.9148   19.5119 C   0  0  0  0  0  0
  -24.8722  -27.6746   19.5143 C   0  0  0  0  0  0
  -23.6190  -29.8145   20.1651 C   0  0  0  0  0  0
  -25.4107  -36.3108   24.0336 C   0  0  1  0  0  0
  -20.5867  -28.3666   23.1313 C   0  0  2  0  0  0
  -20.6764  -26.9400   22.5417 C   0  0  0  0  0  0
  -19.5742  -26.6383   21.5213 C   0  0  0  0  0  0
  -18.1921  -26.7923   22.1625 C   0  0  0  0  0  0
  -19.1524  -28.8837   23.2900 C   0  0  0  0  0  0
  -18.9452  -30.1443   23.8910 C   0  0  0  0  0  0
  -17.6454  -30.6584   24.0564 C   0  0  0  0  0  0
  -25.9036  -34.9472   23.5124 C   0  0  0  0  0  0
  -16.5345  -29.9085   23.6324 C   0  0  0  0  0  0
  -16.7264  -28.6500   23.0348 C   0  0  0  0  0  0
  -26.4470  -31.6596   25.0716 C   0  0  0  0  0  0
  -25.3731  -31.3712   26.1463 C   0  0  0  0  0  0
  -27.0298  -30.3034   24.6101 C   0  0  0  0  0  0
  -27.6047  -32.4313   25.7480 C   0  0  0  0  0  0
  -27.5584  -37.1806   24.8461 C   0  0  0  0  0  0
  -21.4149  -29.3031   22.3720 N   0  0  0  0  0  0
  -26.4292  -37.3795   23.9413 N   0  0  0  0  0  0
  -24.6722  -31.0737   22.0984 N   0  0  0  0  0  0
  -23.4183  -28.8191   23.3038 O   0  0  0  0  0  0
  -28.3853  -26.6467   20.0558 O   0  0  0  0  0  0
  -26.5606  -34.8927   22.4690 O   0  0  0  0  0  0
  -23.5354  -32.1420   23.7450 O   0  0  0  0  0  0
  -30.7429  -19.2600   21.3745 C   0  0  0  0  0  0
  -29.5919  -19.2336   20.6238 C   0  0  0  0  0  0
  -29.2107  -17.8626   20.3356 C   0  0  0  0  0  0
  -30.0408  -16.8992   20.8709 C   0  0  0  0  0  0
  -28.9448  -20.4822   20.1396 C   0  0  0  0  0  0
  -28.5367  -24.1522   20.3883 C   0  0  0  0  0  0
  -30.0516  -23.4226   22.3345 C   0  0  0  0  0  0
  -30.7058  -22.9291   19.9811 C   0  0  0  0  0  0
  -28.7424  -21.6523   21.1420 C   0  0  0  0  0  0
  -28.4988  -25.5789   21.0254 C   0  0  0  0  0  0
  -29.4961  -23.0343   20.9411 C   0  0  0  0  0  0
  -28.0800  -17.5131   19.5814 N   0  0  0  0  0  0
  -29.8134  -15.5533   20.8364 N   0  0  0  0  0  0
  -28.4881  -20.6183   19.0010 O   0  0  0  0  0  0
  -27.8104  -23.8984   19.4232 O   0  0  0  0  0  0
  -31.3682  -17.6608   21.7126 S   0  0  0  0  0  0
  -31.4773  -12.4583   19.1222 H   0  0  0  0  0  0
  -30.3595  -11.3269   19.8371 H   0  0  0  0  0  0
  -29.7467  -11.7658   17.4400 H   0  0  0  0  0  0
  -29.6557  -13.4798   17.7550 H   0  0  0  0  0  0
  -27.8408  -11.2958   18.8328 H   0  0  0  0  0  0
  -27.3678  -12.6081   17.7876 H   0  0  0  0  0  0
  -27.6892  -14.2446   19.5510 H   0  0  0  0  0  0
  -28.6933  -11.9705   21.3412 H   0  0  0  0  0  0
  -28.4651  -13.6126   21.8635 H   0  0  0  0  0  0
  -25.2755   -9.5685   22.4746 H   0  0  0  0  0  0
  -24.0002   -7.4633   22.7468 H   0  0  0  0  0  0
  -21.0833   -8.8760   19.8951 H   0  0  0  0  0  0
  -22.3681  -10.9663   19.6159 H   0  0  0  0  0  0
  -21.2006   -7.6146   23.9713 H   0  0  0  0  0  0
  -21.1484   -6.0522   25.9077 H   0  0  0  0  0  0
  -22.0600   -2.7606   23.2849 H   0  0  0  0  0  0
  -22.4128  -11.9886   22.4785 H   0  0  0  0  0  0
  -21.1127  -13.1254   22.2616 H   0  0  0  0  0  0
  -24.6615  -15.8382   20.5459 H   0  0  0  0  0  0
  -26.2875  -15.6581   20.1482 H   0  0  0  0  0  0
  -26.7123  -32.5522   23.1147 H   0  0  0  0  0  0
  -25.0037  -33.9770   25.0451 H   0  0  0  0  0  0
  -22.6970  -31.3040   21.4050 H   0  0  0  0  0  0
  -23.3748  -35.9646   23.3294 H   0  0  0  0  0  0
  -24.3584  -36.8938   22.2053 H   0  0  0  0  0  0
  -23.7235  -37.6515   23.6658 H   0  0  0  0  0  0
  -26.0504  -31.5838   20.5907 H   0  0  0  0  0  0
  -26.8257  -30.8814   21.9822 H   0  0  0  0  0  0
  -28.1124  -29.0838   21.1613 H   0  0  0  0  0  0
  -26.0631  -25.9442   19.0362 H   0  0  0  0  0  0
  -23.9809  -27.2778   19.0482 H   0  0  0  0  0  0
  -23.7311  -30.5868   19.4032 H   0  0  0  0  0  0
  -22.7426  -29.2354   19.8687 H   0  0  0  0  0  0
  -25.1282  -36.1971   25.0829 H   0  0  0  0  0  0
  -20.9959  -28.3230   24.1434 H   0  0  0  0  0  0
  -20.5665  -26.2273   23.3604 H   0  0  0  0  0  0
  -21.6634  -26.7439   22.1210 H   0  0  0  0  0  0
  -19.6904  -25.6297   21.1233 H   0  0  0  0  0  0
  -19.6682  -27.3201   20.6749 H   0  0  0  0  0  0
  -17.4192  -26.6672   21.4027 H   0  0  0  0  0  0
  -18.0324  -26.0062   22.9018 H   0  0  0  0  0  0
  -19.7928  -30.7255   24.2287 H   0  0  0  0  0  0
  -17.5009  -31.6266   24.5163 H   0  0  0  0  0  0
  -15.5346  -30.2993   23.7639 H   0  0  0  0  0  0
  -15.8664  -28.0824   22.7056 H   0  0  0  0  0  0
  -24.5892  -30.7076   25.7797 H   0  0  0  0  0  0
  -24.8936  -32.2873   26.4923 H   0  0  0  0  0  0
  -25.8075  -30.8866   27.0215 H   0  0  0  0  0  0
  -26.2842  -29.6800   24.1150 H   0  0  0  0  0  0
  -27.4056  -29.7269   25.4565 H   0  0  0  0  0  0
  -27.8685  -30.4349   23.9260 H   0  0  0  0  0  0
  -27.2673  -33.3609   26.2076 H   0  0  0  0  0  0
  -28.3849  -32.6876   25.0300 H   0  0  0  0  0  0
  -28.0723  -31.8421   26.5380 H   0  0  0  0  0  0
  -28.2594  -38.0111   24.7525 H   0  0  0  0  0  0
  -28.1088  -36.2644   24.6263 H   0  0  0  0  0  0
  -27.2307  -37.1429   25.8865 H   0  0  0  0  0  0
  -20.9314  -29.8752   21.6937 H   0  0  0  0  0  0
  -26.0181  -38.2872   24.1420 H   0  0  0  0  0  0
  -31.2846  -20.1272   21.7285 H   0  0  0  0  0  0
  -30.7220  -24.2818   22.2940 H   0  0  0  0  0  0
  -30.6380  -22.6106   22.7665 H   0  0  0  0  0  0
  -29.2530  -23.6499   23.0426 H   0  0  0  0  0  0
  -31.2440  -23.8763   19.9164 H   0  0  0  0  0  0
  -30.4011  -22.6724   18.9655 H   0  0  0  0  0  0
  -31.4229  -22.1778   20.3127 H   0  0  0  0  0  0
  -28.9755  -21.2489   22.1272 H   0  0  0  0  0  0
  -27.6687  -21.8376   21.1821 H   0  0  0  0  0  0
  -29.4073  -25.7714   21.5906 H   0  0  0  0  0  0
  -27.6744  -25.6182   21.7386 H   0  0  0  0  0  0
  -27.6872  -18.2639   19.0223 H   0  0  0  0  0  0
  -28.1923  -16.6766   19.0219 H   0  0  0  0  0  0
  -28.8447  -15.2896   20.9199 H   0  0  0  0  0  0
  1 25  1  0  0  0
  1 30  2  0  0  0
  1 83  1  0  0  0
  2  3  1  0  0  0
  2 25  1  0  0  0
  2 87  1  0  0  0
  2 88  1  0  0  0
  3  4  1  0  0  0
  3 89  1  0  0  0
  3 90  1  0  0  0
  4  5  1  0  0  0
  4 91  1  0  0  0
  4 92  1  0  0  0
  5  6  1  0  0  0
  5 26  1  0  0  0
  5 93  1  0  0  0
  6 25  1  0  0  0
  6 94  1  0  0  0
  6 95  1  0  0  0
  7  8  2  0  0  0
  7 26  1  0  0  0
  7 29  1  0  0  0
  8  9  1  0  0  0
  8 22  1  0  0  0
  9 10  1  0  0  0
  9 27  2  0  0  0
 10 11  2  0  0  0
 10 15  1  0  0  0
 11 12  1  0  0  0
 11 96  1  0  0  0
 12 13  2  0  0  0
 12 97  1  0  0  0
 13 14  1  0  0  0
 13 31  1  0  0  0
 14 15  2  0  0  0
 14 98  1  0  0  0
 15 99  1  0  0  0
 16 17  2  0  0  0
 16 21  1  0  0  0
 16 31  1  0  0  0
 17 18  1  0  0  0
 17100  1  0  0  0
 18 19  2  0  0  0
 18101  1  0  0  0
 19 20  1  0  0  0
 19 24  1  0  0  0
 20 21  2  0  0  0
 20102  1  0  0  0
 21 23  1  0  0  0
 22 28  1  0  0  0
 22 32  2  0  0  0
 26 27  1  0  0  0
 28103  1  0  0  0
 28104  1  0  0  0
 29105  1  0  0  0
 29106  1  0  0  0
 33 34  1  0  0  0
 33 66  1  0  0  0
 33 70  2  0  0  0
 34 36  1  0  0  0
 34 59  1  0  0  0
 34107  1  0  0  0
 35 44  2  0  0  0
 35 45  1  0  0  0
 35 68  1  0  0  0
 36 56  1  0  0  0
 36108  1  0  0  0
 37 39  1  0  0  0
 37 47  1  0  0  0
 37 66  1  0  0  0
 37109  1  0  0  0
 38 43  2  0  0  0
 38 46  1  0  0  0
 38 47  1  0  0  0
 39 64  1  0  0  0
 39 67  2  0  0  0
 40 52  1  0  0  0
 40 53  2  0  0  0
 40 58  1  0  0  0
 41110  1  0  0  0
 41111  1  0  0  0
 41112  1  0  0  0
 41 48  1  0  0  0
 42 43  1  0  0  0
 42 66  1  0  0  0
 42113  1  0  0  0
 42114  1  0  0  0
 43 44  1  0  0  0
 44115  1  0  0  0
 45 46  2  0  0  0
 45116  1  0  0  0
 46117  1  0  0  0
 47118  1  0  0  0
 47119  1  0  0  0
 48 56  1  0  0  0
 48 65  1  0  0  0
 48120  1  0  0  0
 49 50  1  0  0  0
 49 53  1  0  0  0
 49 64  1  0  0  0
 49121  1  0  0  0
 50 51  1  0  0  0
 50122  1  0  0  0
 50123  1  0  0  0
 51 52  1  0  0  0
 51124  1  0  0  0
 51125  1  0  0  0
 52126  1  0  0  0
 52127  1  0  0  0
 53 54  1  0  0  0
 54 55  2  0  0  0
 54128  1  0  0  0
 55 57  1  0  0  0
 55129  1  0  0  0
 56 69  2  0  0  0
 57 58  2  0  0  0
 57130  1  0  0  0
 58131  1  0  0  0
 59 60  1  0  0  0
 59 61  1  0  0  0
 59 62  1  0  0  0
 60132  1  0  0  0
 60133  1  0  0  0
 60134  1  0  0  0
 61135  1  0  0  0
 61136  1  0  0  0
 61137  1  0  0  0
 62138  1  0  0  0
 62139  1  0  0  0
 62140  1  0  0  0
 63 65  1  0  0  0
 63141  1  0  0  0
 63142  1  0  0  0
 63143  1  0  0  0
 64144  1  0  0  0
 65145  1  0  0  0
 68 80  1  0  0  0
 71 72  2  0  0  0
 71 86  1  0  0  0
 71146  1  0  0  0
 72 73  1  0  0  0
 72 75  1  0  0  0
 73 74  2  0  0  0
 73 82  1  0  0  0
 74 83  1  0  0  0
 74 86  1  0  0  0
 75 79  1  0  0  0
 75 84  2  0  0  0
 76 80  1  0  0  0
 76 81  1  0  0  0
 76 85  2  0  0  0
 77147  1  0  0  0
 77148  1  0  0  0
 77149  1  0  0  0
 77 81  1  0  0  0
 78 81  1  0  0  0
 78150  1  0  0  0
 78151  1  0  0  0
 78152  1  0  0  0
 79 81  1  0  0  0
 79153  1  0  0  0
 79154  1  0  0  0
 80155  1  0  0  0
 80156  1  0  0  0
 82157  1  0  0  0
 82158  1  0  0  0
 83159  1  0  0  0
M  ISO  4   1 100  68 101  80 101  83 100
M  END
> <chiral flag>
0

> <version>
0

> <s_m_source_file>
/data/baiqing/PycharmProjects/Reinvent-master-3.2/result/LINK_invent/BTK/process_docking_weight1_custom_product_contain_oxygen_bond_distance_aromatic_linkinvent_7_9_3/rearranged_h_0148.sdf

> <i_m_source_file_index>
70

> <r_mmod_Potential_Energy-OPLS-2005>
-28.137228012085

> <r_mmod_Stretch_Energy-OPLS-2005>
49.512882232666

> <r_mmod_Bend_Energy-OPLS-2005>
119.246162414551

> <r_mmod_Torsional_Energy-OPLS-2005>
300.860595703125

> <r_mmod_Improper_Torsional_Energy-OPLS-2005>
11.5208082199097

> <r_mmod_Van_der_Waal_Energy-OPLS-2005>
124.870971679688

> <r_mmod_Electrostatic_Energy-OPLS-2005>
-414.960754394531

> <r_mmod_Solvation_Energy-OPLS-2005>
-239.276580810547

> <b_mmod_Minimization_Converged-OPLS-2005>
0

> <r_mmod_RMS_Derivative-OPLS-2005>
0.452512502670288

$$$$
70
                    3D
 Structure written by MMmdl.
161170  0  0  1  0            999 V2000
  -30.6179  -14.8639   20.4428 C   0  0  0  0  0  0
  -30.4185  -12.5377   19.4910 C   0  0  0  0  0  0
  -29.5076  -12.5191   18.2456 C   0  0  0  0  0  0
  -28.0388  -12.3247   18.6630 C   0  0  0  0  0  0
  -27.6276  -13.2490   19.8406 C   0  0  2  0  0  0
  -28.6720  -13.2603   20.9768 C   0  0  0  0  0  0
  -25.2439  -13.8208   20.5692 C   0  0  0  0  0  0
  -24.1771  -13.0434   20.9231 C   0  0  0  0  0  0
  -24.6391  -11.6922   20.8752 C   0  0  0  0  0  0
  -23.9080  -10.4289   21.0399 C   0  0  0  0  0  0
  -24.3629   -9.4204   21.9179 C   0  0  0  0  0  0
  -23.6306   -8.2240   22.0751 C   0  0  0  0  0  0
  -22.4289   -8.0280   21.3540 C   0  0  0  0  0  0
  -21.9921   -9.0253   20.4643 C   0  0  0  0  0  0
  -22.7249  -10.2132   20.3051 C   0  0  0  0  0  0
  -21.6852   -6.0736   22.5276 C   0  0  0  0  0  0
  -21.4010   -6.5639   23.8209 C   0  0  0  0  0  0
  -21.3664   -5.6792   24.9171 C   0  0  0  0  0  0
  -21.6046   -4.3056   24.7219 C   0  0  0  0  0  0
  -21.8820   -3.8147   23.4341 C   0  0  0  0  0  0
  -21.9196   -4.6964   22.3399 C   0  0  0  0  0  0
  -22.7792  -13.5204   21.1888 C   0  0  0  0  0  0
  -22.1658   -4.2144   21.0976 F   0  0  0  0  0  0
  -21.5642   -3.4541   25.7736 F   0  0  0  0  0  0
  -29.9504  -13.6470   20.3705 N   0  0  0  0  0  0
  -26.2869  -12.9456   20.3255 N   0  0  0  0  0  0
  -25.9323  -11.6582   20.5744 N   0  0  0  0  0  0
  -22.0444  -12.8192   22.0443 N   0  0  0  0  0  0
  -25.4072  -15.1924   20.4051 N   0  0  0  0  0  0
  -31.8213  -14.8470   20.1595 O   0  0  0  0  0  0
  -21.6642   -6.8883   21.4240 O   0  0  0  0  0  0
  -22.3474  -14.5510   20.6740 O   0  0  0  0  0  0
  -24.6383  -31.8481   23.1902 C   0  0  0  0  0  0
  -25.9173  -32.4714   23.8281 C   0  0  1  0  0  0
  -27.2149  -27.1889   20.1650 C   0  0  0  0  0  0
  -25.5949  -33.8522   24.2220 N   0  0  0  0  0  0
  -23.4389  -30.4678   21.5352 C   0  0  2  0  0  0
  -24.8879  -28.9007   20.1097 C   0  0  0  0  0  0
  -22.7541  -29.4569   22.4883 C   0  0  0  0  0  0
  -18.0300  -28.1388   22.8491 C   0  0  0  0  0  0
  -24.1490  -36.7255   23.2644 C   0  0  0  0  0  0
  -25.9904  -30.7448   21.3750 C   0  0  0  0  0  0
  -26.0633  -29.3622   20.7151 C   0  0  0  0  0  0
  -27.2353  -28.5280   20.7116 C   0  0  0  0  0  0
  -26.0193  -26.8140   19.5188 C   0  0  0  0  0  0
  -24.8759  -27.6409   19.4901 C   0  0  0  0  0  0
  -23.6600  -29.7935   20.1546 C   0  0  0  0  0  0
  -25.4120  -36.3048   24.0327 C   0  0  1  0  0  0
  -20.5917  -28.3705   23.1258 C   0  0  2  0  0  0
  -20.6785  -26.9416   22.5415 C   0  0  0  0  0  0
  -19.5759  -26.6379   21.5223 C   0  0  0  0  0  0
  -18.1934  -26.7937   22.1625 C   0  0  0  0  0  0
  -19.1559  -28.8867   23.2867 C   0  0  0  0  0  0
  -18.9471  -30.1467   23.8886 C   0  0  0  0  0  0
  -17.6469  -30.6590   24.0563 C   0  0  0  0  0  0
  -25.9071  -34.9422   23.5082 C   0  0  0  0  0  0
  -16.5363  -29.9080   23.6340 C   0  0  0  0  0  0
  -16.7286  -28.6498   23.0364 C   0  0  0  0  0  0
  -26.4515  -31.6556   25.0695 C   0  0  0  0  0  0
  -25.3720  -31.3746   26.1411 C   0  0  0  0  0  0
  -27.0359  -30.2958   24.6222 C   0  0  0  0  0  0
  -27.6068  -32.4302   25.7467 C   0  0  0  0  0  0
  -27.5585  -37.1773   24.8458 C   0  0  0  0  0  0
  -21.4240  -29.3040   22.3633 N   0  0  0  0  0  0
  -26.4283  -37.3759   23.9424 N   0  0  0  0  0  0
  -24.7092  -31.0398   22.0893 N   0  0  0  0  0  0
  -23.4219  -28.8125   23.3011 O   0  0  0  0  0  0
  -28.2636  -26.2165   20.2440 O   0  0  0  0  0  0
  -26.5645  -34.8910   22.4653 O   0  0  0  0  0  0
  -23.5513  -32.1327   23.7161 O   0  0  0  0  0  0
  -29.7150  -20.1092   19.9294 C   0  0  0  0  0  0
  -29.7534  -18.6401   20.1599 C   0  0  0  0  0  0
  -28.8264  -18.2104   21.0171 C   0  0  0  0  0  0
  -28.7292  -20.8271   20.6442 C   0  0  0  0  0  0
  -28.6527  -23.4643   20.2612 C   0  0  0  0  0  0
  -30.5371  -17.3704   19.7384 C   0  0  0  0  0  0
  -28.8516  -16.6907   21.2577 C   0  0  0  0  0  0
  -27.6887  -23.8507   23.2981 C   0  0  0  0  0  0
  -27.7996  -26.2936   23.0614 C   0  0  0  0  0  0
  -29.8635  -24.9566   22.6947 C   0  0  0  0  0  0
  -27.9991  -24.8450   20.9050 C   0  0  1  0  0  0
  -28.3371  -24.9780   22.4535 C   0  0  0  0  0  0
  -29.9513  -16.1199   20.4019 N   0  0  0  0  0  0
  -28.3363  -22.1956   20.7827 N   0  0  0  0  0  0
  -29.4166  -23.5650   19.2983 O   0  0  0  0  0  0
  -27.8589  -19.5758   21.6053 S   0  0  0  0  0  0
  -31.4591  -12.6538   19.1839 H   0  0  0  0  0  0
  -30.3733  -11.5834   20.0176 H   0  0  0  0  0  0
  -29.8115  -11.7242   17.5631 H   0  0  0  0  0  0
  -29.6126  -13.4557   17.6967 H   0  0  0  0  0  0
  -27.9207  -11.2820   18.9577 H   0  0  0  0  0  0
  -27.3754  -12.4757   17.8106 H   0  0  0  0  0  0
  -27.5989  -14.2558   19.4234 H   0  0  0  0  0  0
  -28.7439  -12.2811   21.4527 H   0  0  0  0  0  0
  -28.3862  -13.9634   21.7602 H   0  0  0  0  0  0
  -25.2755   -9.5695   22.4771 H   0  0  0  0  0  0
  -24.0018   -7.4638   22.7475 H   0  0  0  0  0  0
  -21.0855   -8.8777   19.8951 H   0  0  0  0  0  0
  -22.3695  -10.9687   19.6183 H   0  0  0  0  0  0
  -21.1985   -7.6145   23.9711 H   0  0  0  0  0  0
  -21.1489   -6.0513   25.9077 H   0  0  0  0  0  0
  -22.0595   -2.7608   23.2829 H   0  0  0  0  0  0
  -22.4054  -11.9839   22.4815 H   0  0  0  0  0  0
  -21.1070  -13.1232   22.2661 H   0  0  0  0  0  0
  -24.6352  -15.8414   20.5102 H   0  0  0  0  0  0
  -26.2410  -15.6281   20.0335 H   0  0  0  0  0  0
  -26.7239  -32.5342   23.1013 H   0  0  0  0  0  0
  -25.0096  -33.9644   25.0370 H   0  0  0  0  0  0
  -22.7392  -31.2919   21.3827 H   0  0  0  0  0  0
  -23.3772  -35.9563   23.3274 H   0  0  0  0  0  0
  -24.3589  -36.8908   22.2063 H   0  0  0  0  0  0
  -23.7209  -37.6432   23.6686 H   0  0  0  0  0  0
  -26.1380  -31.5032   20.6053 H   0  0  0  0  0  0
  -26.8642  -30.7935   22.0131 H   0  0  0  0  0  0
  -28.1351  -28.8834   21.1940 H   0  0  0  0  0  0
  -25.9536  -25.8390   19.0573 H   0  0  0  0  0  0
  -23.9776  -27.2830   19.0071 H   0  0  0  0  0  0
  -23.7859  -30.5656   19.3945 H   0  0  0  0  0  0
  -22.7781  -29.2253   19.8512 H   0  0  0  0  0  0
  -25.1306  -36.1875   25.0820 H   0  0  0  0  0  0
  -21.0016  -28.3280   24.1376 H   0  0  0  0  0  0
  -20.5674  -26.2316   23.3623 H   0  0  0  0  0  0
  -21.6643  -26.7418   22.1211 H   0  0  0  0  0  0
  -19.6909  -25.6283   21.1257 H   0  0  0  0  0  0
  -19.6697  -27.3185   20.6750 H   0  0  0  0  0  0
  -17.4213  -26.6702   21.4015 H   0  0  0  0  0  0
  -18.0315  -26.0079   22.9016 H   0  0  0  0  0  0
  -19.7950  -30.7287   24.2242 H   0  0  0  0  0  0
  -17.5025  -31.6268   24.5154 H   0  0  0  0  0  0
  -15.5361  -30.2975   23.7671 H   0  0  0  0  0  0
  -15.8688  -28.0808   22.7088 H   0  0  0  0  0  0
  -24.5863  -30.7142   25.7724 H   0  0  0  0  0  0
  -24.8949  -32.2933   26.4837 H   0  0  0  0  0  0
  -25.8003  -30.8891   27.0190 H   0  0  0  0  0  0
  -26.2955  -29.6693   24.1238 H   0  0  0  0  0  0
  -27.4012  -29.7234   25.4759 H   0  0  0  0  0  0
  -27.8847  -30.4213   23.9501 H   0  0  0  0  0  0
  -27.2692  -33.3628   26.2009 H   0  0  0  0  0  0
  -28.3897  -32.6823   25.0299 H   0  0  0  0  0  0
  -28.0723  -31.8446   26.5406 H   0  0  0  0  0  0
  -28.2572  -38.0101   24.7554 H   0  0  0  0  0  0
  -28.1111  -36.2635   24.6219 H   0  0  0  0  0  0
  -27.2316  -37.1340   25.8861 H   0  0  0  0  0  0
  -20.9431  -29.8751   21.6824 H   0  0  0  0  0  0
  -26.0155  -38.2824   24.1443 H   0  0  0  0  0  0
  -30.4178  -20.5805   19.2574 H   0  0  0  0  0  0
  -31.5885  -17.4745   20.0103 H   0  0  0  0  0  0
  -30.5035  -17.2404   18.6558 H   0  0  0  0  0  0
  -27.8969  -16.2444   20.9866 H   0  0  0  0  0  0
  -29.0413  -16.4691   22.3082 H   0  0  0  0  0  0
  -27.7299  -24.0743   24.3650 H   0  0  0  0  0  0
  -28.1943  -22.8925   23.1965 H   0  0  0  0  0  0
  -26.6354  -23.7156   23.0479 H   0  0  0  0  0  0
  -27.8959  -26.3169   24.1474 H   0  0  0  0  0  0
  -26.7448  -26.4474   22.8339 H   0  0  0  0  0  0
  -28.3595  -27.1550   22.7032 H   0  0  0  0  0  0
  -30.1050  -25.1436   23.7417 H   0  0  0  0  0  0
  -30.3703  -25.7195   22.1026 H   0  0  0  0  0  0
  -30.3096  -23.9952   22.4382 H   0  0  0  0  0  0
  -26.9243  -24.6769   20.8370 H   0  0  0  0  0  0
  -27.6471  -22.3058   21.5145 H   0  0  0  0  0  0
  1 25  1  0  0  0
  1 30  2  0  0  0
  1 83  1  0  0  0
  2  3  1  0  0  0
  2 25  1  0  0  0
  2 87  1  0  0  0
  2 88  1  0  0  0
  3  4  1  0  0  0
  3 89  1  0  0  0
  3 90  1  0  0  0
  4  5  1  0  0  0
  4 91  1  0  0  0
  4 92  1  0  0  0
  5  6  1  0  0  0
  5 26  1  0  0  0
  5 93  1  0  0  0
  6 25  1  0  0  0
  6 94  1  0  0  0
  6 95  1  0  0  0
  7  8  2  0  0  0
  7 26  1  0  0  0
  7 29  1  0  0  0
  8  9  1  0  0  0
  8 22  1  0  0  0
  9 10  1  0  0  0
  9 27  2  0  0  0
 10 11  2  0  0  0
 10 15  1  0  0  0
 11 12  1  0  0  0
 11 96  1  0  0  0
 12 13  2  0  0  0
 12 97  1  0  0  0
 13 14  1  0  0  0
 13 31  1  0  0  0
 14 15  2  0  0  0
 14 98  1  0  0  0
 15 99  1  0  0  0
 16 17  2  0  0  0
 16 21  1  0  0  0
 16 31  1  0  0  0
 17 18  1  0  0  0
 17100  1  0  0  0
 18 19  2  0  0  0
 18101  1  0  0  0
 19 20  1  0  0  0
 19 24  1  0  0  0
 20 21  2  0  0  0
 20102  1  0  0  0
 21 23  1  0  0  0
 22 28  1  0  0  0
 22 32  2  0  0  0
 26 27  1  0  0  0
 28103  1  0  0  0
 28104  1  0  0  0
 29105  1  0  0  0
 29106  1  0  0  0
 33 34  1  0  0  0
 33 66  1  0  0  0
 33 70  2  0  0  0
 34 36  1  0  0  0
 34 59  1  0  0  0
 34107  1  0  0  0
 35 44  2  0  0  0
 35 45  1  0  0  0
 35 68  1  0  0  0
 36 56  1  0  0  0
 36108  1  0  0  0
 37 39  1  0  0  0
 37 47  1  0  0  0
 37 66  1  0  0  0
 37109  1  0  0  0
 38 43  2  0  0  0
 38 46  1  0  0  0
 38 47  1  0  0  0
 39 64  1  0  0  0
 39 67  2  0  0  0
 40 52  1  0  0  0
 40 53  2  0  0  0
 40 58  1  0  0  0
 41110  1  0  0  0
 41111  1  0  0  0
 41112  1  0  0  0
 41 48  1  0  0  0
 42 43  1  0  0  0
 42 66  1  0  0  0
 42113  1  0  0  0
 42114  1  0  0  0
 43 44  1  0  0  0
 44115  1  0  0  0
 45 46  2  0  0  0
 45116  1  0  0  0
 46117  1  0  0  0
 47118  1  0  0  0
 47119  1  0  0  0
 48 56  1  0  0  0
 48 65  1  0  0  0
 48120  1  0  0  0
 49 50  1  0  0  0
 49 53  1  0  0  0
 49 64  1  0  0  0
 49121  1  0  0  0
 50 51  1  0  0  0
 50122  1  0  0  0
 50123  1  0  0  0
 51 52  1  0  0  0
 51124  1  0  0  0
 51125  1  0  0  0
 52126  1  0  0  0
 52127  1  0  0  0
 53 54  1  0  0  0
 54 55  2  0  0  0
 54128  1  0  0  0
 55 57  1  0  0  0
 55129  1  0  0  0
 56 69  2  0  0  0
 57 58  2  0  0  0
 57130  1  0  0  0
 58131  1  0  0  0
 59 60  1  0  0  0
 59 61  1  0  0  0
 59 62  1  0  0  0
 60132  1  0  0  0
 60133  1  0  0  0
 60134  1  0  0  0
 61135  1  0  0  0
 61136  1  0  0  0
 61137  1  0  0  0
 62138  1  0  0  0
 62139  1  0  0  0
 62140  1  0  0  0
 63 65  1  0  0  0
 63141  1  0  0  0
 63142  1  0  0  0
 63143  1  0  0  0
 64144  1  0  0  0
 65145  1  0  0  0
 68 81  1  0  0  0
 71 72  1  0  0  0
 71 74  2  0  0  0
 71146  1  0  0  0
 72 73  2  0  0  0
 72 76  1  0  0  0
 73 77  1  0  0  0
 73 86  1  0  0  0
 74 84  1  0  0  0
 74 86  1  0  0  0
 75 81  1  0  0  0
 75 84  1  0  0  0
 75 85  2  0  0  0
 76 83  1  0  0  0
 76147  1  0  0  0
 76148  1  0  0  0
 77 83  1  0  0  0
 77149  1  0  0  0
 77150  1  0  0  0
 78151  1  0  0  0
 78152  1  0  0  0
 78153  1  0  0  0
 78 82  1  0  0  0
 79 82  1  0  0  0
 79154  1  0  0  0
 79155  1  0  0  0
 79156  1  0  0  0
 80 82  1  0  0  0
 80157  1  0  0  0
 80158  1  0  0  0
 80159  1  0  0  0
 81 82  1  0  0  0
 81160  1  0  0  0
 84161  1  0  0  0
M  ISO  4   1 100  68 101  81 101  83 100
M  END
> <chiral flag>
0

> <version>
0

> <s_m_source_file>
/data/baiqing/PycharmProjects/Reinvent-master-3.2/result/LINK_invent/BTK/process_docking_weight1_custom_product_contain_oxygen_bond_distance_aromatic_linkinvent_7_9_3/rearranged_h_0148.sdf

> <i_m_source_file_index>
71

> <r_mmod_Potential_Energy-OPLS-2005>
527.674133300781

> <r_mmod_Stretch_Energy-OPLS-2005>
188.78239440918

> <r_mmod_Bend_Energy-OPLS-2005>
305.950622558594

> <r_mmod_Torsional_Energy-OPLS-2005>
271.396606445312

> <r_mmod_Improper_Torsional_Energy-OPLS-2005>
13.5917510986328

> <r_mmod_Van_der_Waal_Energy-OPLS-2005>
110.840805053711

> <r_mmod_Electrostatic_Energy-OPLS-2005>
-284.060516357422

> <r_mmod_Solvation_Energy-OPLS-2005>
-224.573883056641

> <b_mmod_Minimization_Converged-OPLS-2005>
0

> <r_mmod_RMS_Derivative-OPLS-2005>
1.82944393157959

$$$$
71
                    3D
 Structure written by MMmdl.
163172  0  0  1  0            999 V2000
  -30.6473  -14.6079   20.5184 C   0  0  0  0  0  0
  -30.4415  -12.3886   19.4374 C   0  0  0  0  0  0
  -29.5039  -12.5166   18.2151 C   0  0  0  0  0  0
  -28.0318  -12.3373   18.6386 C   0  0  0  0  0  0
  -27.6572  -13.1936   19.8768 C   0  0  2  0  0  0
  -28.7065  -13.0491   21.0019 C   0  0  0  0  0  0
  -25.2555  -13.8092   20.5671 C   0  0  0  0  0  0
  -24.1791  -13.0393   20.9162 C   0  0  0  0  0  0
  -24.6367  -11.6863   20.8754 C   0  0  0  0  0  0
  -23.9028  -10.4259   21.0410 C   0  0  0  0  0  0
  -24.3582   -9.4165   21.9175 C   0  0  0  0  0  0
  -23.6264   -8.2201   22.0754 C   0  0  0  0  0  0
  -22.4229   -8.0288   21.3553 C   0  0  0  0  0  0
  -21.9848   -9.0250   20.4652 C   0  0  0  0  0  0
  -22.7200  -10.2114   20.3059 C   0  0  0  0  0  0
  -21.6824   -6.0712   22.5255 C   0  0  0  0  0  0
  -21.4006   -6.5605   23.8196 C   0  0  0  0  0  0
  -21.3665   -5.6766   24.9168 C   0  0  0  0  0  0
  -21.6047   -4.3033   24.7207 C   0  0  0  0  0  0
  -21.8834   -3.8133   23.4323 C   0  0  0  0  0  0
  -21.9190   -4.6947   22.3392 C   0  0  0  0  0  0
  -22.7817  -13.5213   21.1837 C   0  0  0  0  0  0
  -22.1649   -4.2136   21.0965 F   0  0  0  0  0  0
  -21.5647   -3.4531   25.7713 F   0  0  0  0  0  0
  -30.0254  -13.3904   20.4396 N   0  0  0  0  0  0
  -26.2995  -12.9235   20.3407 N   0  0  0  0  0  0
  -25.9287  -11.6408   20.5789 N   0  0  0  0  0  0
  -22.0449  -12.8232   22.0402 N   0  0  0  0  0  0
  -25.4331  -15.1799   20.4025 N   0  0  0  0  0  0
  -31.7808  -14.7900   20.0623 O   0  0  0  0  0  0
  -21.6620   -6.8841   21.4210 O   0  0  0  0  0  0
  -22.3521  -14.5557   20.6726 O   0  0  0  0  0  0
  -24.6210  -31.8638   23.2058 C   0  0  0  0  0  0
  -25.9100  -32.4787   23.8352 C   0  0  1  0  0  0
  -27.2272  -27.3559   20.1251 C   0  0  0  0  0  0
  -25.5951  -33.8592   24.2310 N   0  0  0  0  0  0
  -23.4119  -30.4871   21.5470 C   0  0  2  0  0  0
  -24.8615  -28.9470   20.1140 C   0  0  0  0  0  0
  -22.7446  -29.4628   22.4943 C   0  0  0  0  0  0
  -18.0281  -28.1385   22.8446 C   0  0  0  0  0  0
  -24.1494  -36.7292   23.2619 C   0  0  0  0  0  0
  -25.9476  -30.8080   21.3684 C   0  0  0  0  0  0
  -26.0247  -29.4351   20.7210 C   0  0  0  0  0  0
  -27.2123  -28.6502   20.7188 C   0  0  0  0  0  0
  -26.0459  -26.9164   19.4836 C   0  0  0  0  0  0
  -24.8725  -27.6925   19.4844 C   0  0  0  0  0  0
  -23.6261  -29.8208   20.1611 C   0  0  0  0  0  0
  -25.4103  -36.3080   24.0331 C   0  0  1  0  0  0
  -20.5871  -28.3690   23.1293 C   0  0  2  0  0  0
  -20.6790  -26.9414   22.5425 C   0  0  0  0  0  0
  -19.5784  -26.6377   21.5207 C   0  0  0  0  0  0
  -18.1946  -26.7938   22.1581 C   0  0  0  0  0  0
  -19.1534  -28.8854   23.2867 C   0  0  0  0  0  0
  -18.9462  -30.1454   23.8886 C   0  0  0  0  0  0
  -17.6462  -30.6584   24.0561 C   0  0  0  0  0  0
  -25.9035  -34.9448   23.5110 C   0  0  0  0  0  0
  -16.5348  -29.9077   23.6320 C   0  0  0  0  0  0
  -16.7276  -28.6507   23.0319 C   0  0  0  0  0  0
  -26.4496  -31.6560   25.0683 C   0  0  0  0  0  0
  -25.3753  -31.3734   26.1428 C   0  0  0  0  0  0
  -27.0276  -30.2963   24.6086 C   0  0  0  0  0  0
  -27.6075  -32.4246   25.7469 C   0  0  0  0  0  0
  -27.5593  -37.1788   24.8439 C   0  0  0  0  0  0
  -21.4166  -29.3054   22.3699 N   0  0  0  0  0  0
  -26.4283  -37.3771   23.9420 N   0  0  0  0  0  0
  -24.6785  -31.0688   22.0988 N   0  0  0  0  0  0
  -23.4188  -28.8160   23.3000 O   0  0  0  0  0  0
  -28.3603  -26.5425   20.1560 O   0  0  0  0  0  0
  -26.5568  -34.8920   22.4642 O   0  0  0  0  0  0
  -23.5392  -32.1410   23.7427 O   0  0  0  0  0  0
  -28.3400  -18.2806   18.8779 C   0  0  0  0  0  0
  -29.0181  -19.4572   19.2474 C   0  0  0  0  0  0
  -28.6836  -17.0437   19.4505 C   0  0  0  0  0  0
  -30.3613  -18.1481   20.8184 C   0  0  0  0  0  0
  -30.0378  -19.4204   20.2217 C   0  0  0  0  0  0
  -29.7002  -16.9360   20.4230 C   0  0  0  0  0  0
  -30.8538  -20.6517   20.4795 C   0  0  0  0  0  0
  -30.6005  -24.3723   20.9512 C   0  0  0  0  0  0
  -31.4137  -23.0744   20.8241 C   0  0  0  0  0  0
  -29.0880  -22.6069   20.5210 C   0  0  0  0  0  0
  -29.3205  -24.1227   20.1440 C   0  0  2  0  0  0
  -29.5737  -24.2437   18.6226 C   0  0  0  0  0  0
  -28.1673  -25.1306   20.5246 C   0  0  0  0  0  0
  -30.4466  -21.9724   20.5751 N   0  0  0  0  0  0
  -29.9157  -15.6364   21.0308 N   0  0  0  0  0  0
  -32.1654  -20.4287   20.5773 N   0  3  0  0  0  0
  -31.4785  -12.5203   19.1256 H   0  0  0  0  0  0
  -30.3878  -11.3876   19.8643 H   0  0  0  0  0  0
  -29.7633  -11.7736   17.4579 H   0  0  0  0  0  0
  -29.6362  -13.4910   17.7418 H   0  0  0  0  0  0
  -27.8785  -11.2815   18.8603 H   0  0  0  0  0  0
  -27.3716  -12.5705   17.8015 H   0  0  0  0  0  0
  -27.6720  -14.2229   19.5410 H   0  0  0  0  0  0
  -28.7155  -12.0258   21.3816 H   0  0  0  0  0  0
  -28.4478  -13.6765   21.8573 H   0  0  0  0  0  0
  -25.2742   -9.5638   22.4741 H   0  0  0  0  0  0
  -23.9998   -7.4550   22.7437 H   0  0  0  0  0  0
  -21.0790   -8.8767   19.8925 H   0  0  0  0  0  0
  -22.3674  -10.9660   19.6167 H   0  0  0  0  0  0
  -21.1992   -7.6104   23.9692 H   0  0  0  0  0  0
  -21.1470   -6.0497   25.9069 H   0  0  0  0  0  0
  -22.0615   -2.7585   23.2837 H   0  0  0  0  0  0
  -22.4039  -11.9869   22.4769 H   0  0  0  0  0  0
  -21.1094  -13.1284   22.2648 H   0  0  0  0  0  0
  -24.6790  -15.8492   20.5170 H   0  0  0  0  0  0
  -26.2986  -15.6085   20.1078 H   0  0  0  0  0  0
  -26.7151  -32.5497   23.1101 H   0  0  0  0  0  0
  -25.0220  -33.9728   25.0535 H   0  0  0  0  0  0
  -22.7028  -31.3053   21.4055 H   0  0  0  0  0  0
  -23.3775  -35.9602   23.3224 H   0  0  0  0  0  0
  -24.3614  -36.8959   22.2048 H   0  0  0  0  0  0
  -23.7230  -37.6476   23.6660 H   0  0  0  0  0  0
  -26.0593  -31.5656   20.5910 H   0  0  0  0  0  0
  -26.8345  -30.8714   21.9854 H   0  0  0  0  0  0
  -28.1046  -29.0169   21.2050 H   0  0  0  0  0  0
  -26.0121  -25.9665   18.9689 H   0  0  0  0  0  0
  -23.9845  -27.3207   18.9916 H   0  0  0  0  0  0
  -23.7422  -30.5947   19.4013 H   0  0  0  0  0  0
  -22.7481  -29.2452   19.8607 H   0  0  0  0  0  0
  -25.1269  -36.1929   25.0821 H   0  0  0  0  0  0
  -20.9946  -28.3300   24.1423 H   0  0  0  0  0  0
  -20.5688  -26.2299   23.3629 H   0  0  0  0  0  0
  -21.6668  -26.7466   22.1245 H   0  0  0  0  0  0
  -19.6958  -25.6285   21.1255 H   0  0  0  0  0  0
  -19.6747  -27.3170   20.6728 H   0  0  0  0  0  0
  -17.4227  -26.6677   21.3976 H   0  0  0  0  0  0
  -18.0333  -26.0101   22.8993 H   0  0  0  0  0  0
  -19.7931  -30.7271   24.2268 H   0  0  0  0  0  0
  -17.5009  -31.6260   24.5167 H   0  0  0  0  0  0
  -15.5355  -30.2965   23.7661 H   0  0  0  0  0  0
  -15.8673  -28.0829   22.7020 H   0  0  0  0  0  0
  -24.6020  -30.6930   25.7845 H   0  0  0  0  0  0
  -24.8831  -32.2908   26.4666 H   0  0  0  0  0  0
  -25.8122  -30.9134   27.0299 H   0  0  0  0  0  0
  -26.2816  -29.6782   24.1081 H   0  0  0  0  0  0
  -27.3942  -29.7134   25.4546 H   0  0  0  0  0  0
  -27.8698  -30.4207   23.9276 H   0  0  0  0  0  0
  -27.2719  -33.3571   26.2013 H   0  0  0  0  0  0
  -28.3932  -32.6751   25.0330 H   0  0  0  0  0  0
  -28.0676  -31.8374   26.5430 H   0  0  0  0  0  0
  -28.2545  -38.0144   24.7535 H   0  0  0  0  0  0
  -28.1146  -36.2678   24.6161 H   0  0  0  0  0  0
  -27.2331  -37.1324   25.8842 H   0  0  0  0  0  0
  -20.9331  -29.8788   21.6926 H   0  0  0  0  0  0
  -26.0163  -38.2834   24.1461 H   0  0  0  0  0  0
  -27.5618  -18.3157   18.1284 H   0  0  0  0  0  0
  -28.7707  -20.3746   18.7355 H   0  0  0  0  0  0
  -28.1403  -16.1787   19.1145 H   0  0  0  0  0  0
  -31.1344  -18.0974   21.5733 H   0  0  0  0  0  0
  -31.1550  -25.2390   20.5895 H   0  0  0  0  0  0
  -30.3743  -24.5483   22.0057 H   0  0  0  0  0  0
  -32.0092  -22.9038   21.7239 H   0  0  0  0  0  0
  -32.1048  -23.1559   19.9813 H   0  0  0  0  0  0
  -28.4150  -22.1286   19.8119 H   0  0  0  0  0  0
  -28.6254  -22.5221   21.5078 H   0  0  0  0  0  0
  -30.3964  -23.6175   18.2785 H   0  0  0  0  0  0
  -29.8069  -25.2721   18.3451 H   0  0  0  0  0  0
  -28.6881  -23.9484   18.0578 H   0  0  0  0  0  0
  -28.0084  -25.0999   21.6047 H   0  0  0  0  0  0
  -27.2559  -24.7220   20.0946 H   0  0  0  0  0  0
  -29.0897  -15.2772   21.4858 H   0  0  0  0  0  0
  -32.5138  -19.5007   20.3861 H   0  0  0  0  0  0
  -32.8340  -21.1681   20.7077 H   0  0  0  0  0  0
  1 25  1  0  0  0
  1 30  2  0  0  0
  1 85  1  0  0  0
  2  3  1  0  0  0
  2 25  1  0  0  0
  2 87  1  0  0  0
  2 88  1  0  0  0
  3  4  1  0  0  0
  3 89  1  0  0  0
  3 90  1  0  0  0
  4  5  1  0  0  0
  4 91  1  0  0  0
  4 92  1  0  0  0
  5  6  1  0  0  0
  5 26  1  0  0  0
  5 93  1  0  0  0
  6 25  1  0  0  0
  6 94  1  0  0  0
  6 95  1  0  0  0
  7  8  2  0  0  0
  7 26  1  0  0  0
  7 29  1  0  0  0
  8  9  1  0  0  0
  8 22  1  0  0  0
  9 10  1  0  0  0
  9 27  2  0  0  0
 10 11  2  0  0  0
 10 15  1  0  0  0
 11 12  1  0  0  0
 11 96  1  0  0  0
 12 13  2  0  0  0
 12 97  1  0  0  0
 13 14  1  0  0  0
 13 31  1  0  0  0
 14 15  2  0  0  0
 14 98  1  0  0  0
 15 99  1  0  0  0
 16 17  2  0  0  0
 16 21  1  0  0  0
 16 31  1  0  0  0
 17 18  1  0  0  0
 17100  1  0  0  0
 18 19  2  0  0  0
 18101  1  0  0  0
 19 20  1  0  0  0
 19 24  1  0  0  0
 20 21  2  0  0  0
 20102  1  0  0  0
 21 23  1  0  0  0
 22 28  1  0  0  0
 22 32  2  0  0  0
 26 27  1  0  0  0
 28103  1  0  0  0
 28104  1  0  0  0
 29105  1  0  0  0
 29106  1  0  0  0
 33 34  1  0  0  0
 33 66  1  0  0  0
 33 70  2  0  0  0
 34 36  1  0  0  0
 34 59  1  0  0  0
 34107  1  0  0  0
 35 44  2  0  0  0
 35 45  1  0  0  0
 35 68  1  0  0  0
 36 56  1  0  0  0
 36108  1  0  0  0
 37 39  1  0  0  0
 37 47  1  0  0  0
 37 66  1  0  0  0
 37109  1  0  0  0
 38 43  2  0  0  0
 38 46  1  0  0  0
 38 47  1  0  0  0
 39 64  1  0  0  0
 39 67  2  0  0  0
 40 52  1  0  0  0
 40 53  2  0  0  0
 40 58  1  0  0  0
 41110  1  0  0  0
 41111  1  0  0  0
 41112  1  0  0  0
 41 48  1  0  0  0
 42 43  1  0  0  0
 42 66  1  0  0  0
 42113  1  0  0  0
 42114  1  0  0  0
 43 44  1  0  0  0
 44115  1  0  0  0
 45 46  2  0  0  0
 45116  1  0  0  0
 46117  1  0  0  0
 47118  1  0  0  0
 47119  1  0  0  0
 48 56  1  0  0  0
 48 65  1  0  0  0
 48120  1  0  0  0
 49 50  1  0  0  0
 49 53  1  0  0  0
 49 64  1  0  0  0
 49121  1  0  0  0
 50 51  1  0  0  0
 50122  1  0  0  0
 50123  1  0  0  0
 51 52  1  0  0  0
 51124  1  0  0  0
 51125  1  0  0  0
 52126  1  0  0  0
 52127  1  0  0  0
 53 54  1  0  0  0
 54 55  2  0  0  0
 54128  1  0  0  0
 55 57  1  0  0  0
 55129  1  0  0  0
 56 69  2  0  0  0
 57 58  2  0  0  0
 57130  1  0  0  0
 58131  1  0  0  0
 59 60  1  0  0  0
 59 61  1  0  0  0
 59 62  1  0  0  0
 60132  1  0  0  0
 60133  1  0  0  0
 60134  1  0  0  0
 61135  1  0  0  0
 61136  1  0  0  0
 61137  1  0  0  0
 62138  1  0  0  0
 62139  1  0  0  0
 62140  1  0  0  0
 63 65  1  0  0  0
 63141  1  0  0  0
 63142  1  0  0  0
 63143  1  0  0  0
 64144  1  0  0  0
 65145  1  0  0  0
 68 83  1  0  0  0
 71 72  2  0  0  0
 71 73  1  0  0  0
 71146  1  0  0  0
 72 75  1  0  0  0
 72147  1  0  0  0
 73 76  2  0  0  0
 73148  1  0  0  0
 74 75  2  0  0  0
 74 76  1  0  0  0
 74149  1  0  0  0
 75 77  1  0  0  0
 76 85  1  0  0  0
 77 84  1  0  0  0
 77 86  2  0  0  0
 78 79  1  0  0  0
 78 81  1  0  0  0
 78150  1  0  0  0
 78151  1  0  0  0
 79 84  1  0  0  0
 79152  1  0  0  0
 79153  1  0  0  0
 80 81  1  0  0  0
 80 84  1  0  0  0
 80154  1  0  0  0
 80155  1  0  0  0
 81 82  1  0  0  0
 81 83  1  0  0  0
 82156  1  0  0  0
 82157  1  0  0  0
 82158  1  0  0  0
 83159  1  0  0  0
 83160  1  0  0  0
 85161  1  0  0  0
 86162  1  0  0  0
 86163  1  0  0  0
M  CHG  1  86   1
M  ISO  4   1 100  68 101  83 101  85 100
M  END
> <chiral flag>
0

> <version>
0

> <s_m_source_file>
/data/baiqing/PycharmProjects/Reinvent-master-3.2/result/LINK_invent/BTK/process_docking_weight1_custom_product_contain_oxygen_bond_distance_aromatic_linkinvent_7_9_3/rearranged_h_0148.sdf

> <i_m_source_file_index>
72

> <r_mmod_Potential_Energy-OPLS-2005>
-38.9489936828613

> <r_mmod_Stretch_Energy-OPLS-2005>
67.9067687988281

> <r_mmod_Bend_Energy-OPLS-2005>
165.703414916992

> <r_mmod_Torsional_Energy-OPLS-2005>
327.254302978516

> <r_mmod_Improper_Torsional_Energy-OPLS-2005>
7.21761178970337

> <r_mmod_Van_der_Waal_Energy-OPLS-2005>
147.691268920898

> <r_mmod_Electrostatic_Energy-OPLS-2005>
-386.386871337891

> <r_mmod_Solvation_Energy-OPLS-2005>
-404.357543945312

> <b_mmod_Minimization_Converged-OPLS-2005>
0

> <r_mmod_RMS_Derivative-OPLS-2005>
3.96800708770752

$$$$
72
                    3D
 Structure written by MMmdl.
154163  0  0  1  0            999 V2000
  -30.5867  -14.7800   20.4624 C   0  0  0  0  0  0
  -30.4423  -12.4870   19.4469 C   0  0  0  0  0  0
  -29.4992  -12.5102   18.2226 C   0  0  0  0  0  0
  -28.0346  -12.3131   18.6563 C   0  0  0  0  0  0
  -27.6395  -13.2246   19.8503 C   0  0  2  0  0  0
  -28.6931  -13.1594   20.9761 C   0  0  0  0  0  0
  -25.2504  -13.8179   20.5771 C   0  0  0  0  0  0
  -24.1769  -13.0416   20.9199 C   0  0  0  0  0  0
  -24.6352  -11.6892   20.8724 C   0  0  0  0  0  0
  -23.9038  -10.4276   21.0392 C   0  0  0  0  0  0
  -24.3597   -9.4206   21.9182 C   0  0  0  0  0  0
  -23.6269   -8.2234   22.0775 C   0  0  0  0  0  0
  -22.4254   -8.0267   21.3559 C   0  0  0  0  0  0
  -21.9890   -9.0251   20.4664 C   0  0  0  0  0  0
  -22.7205  -10.2133   20.3059 C   0  0  0  0  0  0
  -21.6848   -6.0705   22.5271 C   0  0  0  0  0  0
  -21.4006   -6.5620   23.8200 C   0  0  0  0  0  0
  -21.3672   -5.6774   24.9173 C   0  0  0  0  0  0
  -21.6049   -4.3037   24.7223 C   0  0  0  0  0  0
  -21.8815   -3.8133   23.4344 C   0  0  0  0  0  0
  -21.9190   -4.6938   22.3401 C   0  0  0  0  0  0
  -22.7796  -13.5233   21.1848 C   0  0  0  0  0  0
  -22.1649   -4.2126   21.0971 F   0  0  0  0  0  0
  -21.5651   -3.4536   25.7740 F   0  0  0  0  0  0
  -29.9821  -13.5411   20.3842 N   0  0  0  0  0  0
  -26.2926  -12.9363   20.3326 N   0  0  0  0  0  0
  -25.9289  -11.6512   20.5773 N   0  0  0  0  0  0
  -22.0419  -12.8260   22.0399 N   0  0  0  0  0  0
  -25.4206  -15.1916   20.4324 N   0  0  0  0  0  0
  -31.7909  -14.8781   20.1998 O   0  0  0  0  0  0
  -21.6633   -6.8860   21.4236 O   0  0  0  0  0  0
  -22.3510  -14.5556   20.6702 O   0  0  0  0  0  0
  -24.6357  -31.8511   23.1873 C   0  0  0  0  0  0
  -25.9156  -32.4733   23.8240 C   0  0  1  0  0  0
  -27.2160  -27.2220   20.1847 C   0  0  0  0  0  0
  -25.5885  -33.8512   24.2153 N   0  0  0  0  0  0
  -23.4364  -30.4754   21.5304 C   0  0  2  0  0  0
  -24.8863  -28.9153   20.1065 C   0  0  0  0  0  0
  -22.7565  -29.4585   22.4817 C   0  0  0  0  0  0
  -18.0326  -28.1427   22.8512 C   0  0  0  0  0  0
  -24.1489  -36.7299   23.2652 C   0  0  0  0  0  0
  -25.9777  -30.7721   21.3517 C   0  0  0  0  0  0
  -26.0540  -29.3791   20.7218 C   0  0  0  0  0  0
  -27.2252  -28.5485   20.7460 C   0  0  0  0  0  0
  -26.0263  -26.8338   19.5308 C   0  0  0  0  0  0
  -24.8812  -27.6517   19.4911 C   0  0  0  0  0  0
  -23.6586  -29.8069   20.1473 C   0  0  0  0  0  0
  -25.4086  -36.3035   24.0343 C   0  0  1  0  0  0
  -20.5954  -28.3709   23.1263 C   0  0  2  0  0  0
  -20.6812  -26.9413   22.5423 C   0  0  0  0  0  0
  -19.5753  -26.6379   21.5272 C   0  0  0  0  0  0
  -18.1937  -26.7959   22.1680 C   0  0  0  0  0  0
  -19.1597  -28.8875   23.2910 C   0  0  0  0  0  0
  -18.9503  -30.1485   23.8912 C   0  0  0  0  0  0
  -17.6496  -30.6589   24.0577 C   0  0  0  0  0  0
  -25.9049  -34.9426   23.5047 C   0  0  0  0  0  0
  -16.5385  -29.9088   23.6333 C   0  0  0  0  0  0
  -16.7329  -28.6545   23.0295 C   0  0  0  0  0  0
  -26.4481  -31.6543   25.0627 C   0  0  0  0  0  0
  -25.3660  -31.3757   26.1317 C   0  0  0  0  0  0
  -27.0245  -30.2956   24.5987 C   0  0  0  0  0  0
  -27.6034  -32.4245   25.7420 C   0  0  0  0  0  0
  -27.5550  -37.1789   24.8461 C   0  0  0  0  0  0
  -21.4248  -29.3080   22.3650 N   0  0  0  0  0  0
  -26.4226  -37.3745   23.9454 N   0  0  0  0  0  0
  -24.7061  -31.0467   22.0860 N   0  0  0  0  0  0
  -23.4282  -28.8130   23.2911 O   0  0  0  0  0  0
  -28.2816  -26.2852   20.2410 O   0  0  0  0  0  0
  -26.5622  -34.8945   22.4639 O   0  0  0  0  0  0
  -23.5496  -32.1297   23.7158 O   0  0  0  0  0  0
  -29.2887  -18.4414   20.3162 C   0  0  0  0  0  0
  -29.8457  -19.7773   20.6457 C   0  0  0  0  0  0
  -31.0555  -19.5950   21.2874 C   0  0  0  0  0  0
  -30.0408  -17.2925   20.6763 C   0  0  0  0  0  0
  -29.4753  -23.3317   19.3109 C   0  0  0  0  0  0
  -28.7193  -23.5563   20.3857 C   0  0  0  0  0  0
  -29.9121  -21.8693   19.1789 C   0  0  0  0  0  0
  -28.6096  -22.1585   21.1083 C   0  0  0  0  0  0
  -32.0304  -20.6133   21.7942 C   0  0  0  0  0  0
  -28.0032  -24.9207   20.8551 C   0  0  0  0  0  0
  -29.2768  -21.0943   20.2634 N   0  0  0  0  0  0
  -29.7662  -15.9082   20.5536 N   0  0  0  0  0  0
  -31.4852  -17.8906   21.4625 S   0  0  0  0  0  0
  -31.4704  -12.6529   19.1192 H   0  0  0  0  0  0
  -30.4378  -11.5079   19.9273 H   0  0  0  0  0  0
  -29.7833  -11.7383   17.5073 H   0  0  0  0  0  0
  -29.6002  -13.4638   17.7002 H   0  0  0  0  0  0
  -27.9147  -11.2660   18.9432 H   0  0  0  0  0  0
  -27.3606  -12.4726   17.8123 H   0  0  0  0  0  0
  -27.6288  -14.2425   19.4603 H   0  0  0  0  0  0
  -28.7443  -12.1536   21.3942 H   0  0  0  0  0  0
  -28.4282  -13.8240   21.8001 H   0  0  0  0  0  0
  -25.2741   -9.5681   22.4770 H   0  0  0  0  0  0
  -23.9971   -7.4634   22.7511 H   0  0  0  0  0  0
  -21.0814   -8.8751   19.8988 H   0  0  0  0  0  0
  -22.3637  -10.9670   19.6183 H   0  0  0  0  0  0
  -21.1975   -7.6135   23.9702 H   0  0  0  0  0  0
  -21.1514   -6.0512   25.9079 H   0  0  0  0  0  0
  -22.0589   -2.7596   23.2847 H   0  0  0  0  0  0
  -22.4000  -11.9889   22.4770 H   0  0  0  0  0  0
  -21.1069  -13.1391   22.2634 H   0  0  0  0  0  0
  -24.6584  -15.8414   20.5870 H   0  0  0  0  0  0
  -26.2806  -15.6545   20.1756 H   0  0  0  0  0  0
  -26.7240  -32.5381   23.1000 H   0  0  0  0  0  0
  -24.9969  -33.9593   25.0251 H   0  0  0  0  0  0
  -22.7403  -31.3028   21.3791 H   0  0  0  0  0  0
  -23.3733  -35.9655   23.3244 H   0  0  0  0  0  0
  -24.3630  -36.8945   22.2085 H   0  0  0  0  0  0
  -23.7251  -37.6506   23.6688 H   0  0  0  0  0  0
  -26.0654  -31.5094   20.5528 H   0  0  0  0  0  0
  -26.8799  -30.8638   21.9452 H   0  0  0  0  0  0
  -28.1171  -28.9002   21.2486 H   0  0  0  0  0  0
  -25.9723  -25.8583   19.0695 H   0  0  0  0  0  0
  -23.9872  -27.2919   19.0030 H   0  0  0  0  0  0
  -23.7847  -30.5800   19.3880 H   0  0  0  0  0  0
  -22.7780  -29.2412   19.8404 H   0  0  0  0  0  0
  -25.1266  -36.1850   25.0820 H   0  0  0  0  0  0
  -21.0097  -28.3268   24.1355 H   0  0  0  0  0  0
  -20.5765  -26.2317   23.3635 H   0  0  0  0  0  0
  -21.6657  -26.7392   22.1179 H   0  0  0  0  0  0
  -19.6898  -25.6299   21.1244 H   0  0  0  0  0  0
  -19.6672  -27.3254   20.6857 H   0  0  0  0  0  0
  -17.4223  -26.6760   21.4058 H   0  0  0  0  0  0
  -18.0271  -26.0109   22.9079 H   0  0  0  0  0  0
  -19.7982  -30.7313   24.2265 H   0  0  0  0  0  0
  -17.5048  -31.6277   24.5168 H   0  0  0  0  0  0
  -15.5416  -30.2991   23.7627 H   0  0  0  0  0  0
  -15.8743  -28.0898   22.6897 H   0  0  0  0  0  0
  -24.5910  -30.6992   25.7666 H   0  0  0  0  0  0
  -24.8770  -32.2955   26.4527 H   0  0  0  0  0  0
  -25.7923  -30.9113   27.0212 H   0  0  0  0  0  0
  -26.2734  -29.6771   24.1021 H   0  0  0  0  0  0
  -27.4012  -29.7113   25.4397 H   0  0  0  0  0  0
  -27.8584  -30.4272   23.9089 H   0  0  0  0  0  0
  -27.2666  -33.3624   26.1846 H   0  0  0  0  0  0
  -28.3927  -32.6610   25.0278 H   0  0  0  0  0  0
  -28.0562  -31.8417   26.5441 H   0  0  0  0  0  0
  -28.2504  -38.0153   24.7500 H   0  0  0  0  0  0
  -28.1085  -36.2650   24.6212 H   0  0  0  0  0  0
  -27.2307  -37.1355   25.8882 H   0  0  0  0  0  0
  -20.9412  -29.8875   21.6913 H   0  0  0  0  0  0
  -26.0091  -38.2801   24.1499 H   0  0  0  0  0  0
  -28.3422  -18.3811   19.7943 H   0  0  0  0  0  0
  -29.7590  -24.0827   18.5853 H   0  0  0  0  0  0
  -30.9976  -21.8113   19.2630 H   0  0  0  0  0  0
  -29.6174  -21.4808   18.2018 H   0  0  0  0  0  0
  -27.5590  -21.9069   21.2727 H   0  0  0  0  0  0
  -29.0846  -22.2025   22.0898 H   0  0  0  0  0  0
  -32.3005  -20.4057   22.8327 H   0  0  0  0  0  0
  -31.6314  -21.6250   21.7505 H   0  0  0  0  0  0
  -32.9508  -20.5878   21.2062 H   0  0  0  0  0  0
  -28.2304  -25.0257   21.9197 H   0  0  0  0  0  0
  -26.9339  -24.7084   20.8267 H   0  0  0  0  0  0
  -28.7848  -15.6806   20.5289 H   0  0  0  0  0  0
  1 25  1  0  0  0
  1 30  2  0  0  0
  1 82  1  0  0  0
  2  3  1  0  0  0
  2 25  1  0  0  0
  2 84  1  0  0  0
  2 85  1  0  0  0
  3  4  1  0  0  0
  3 86  1  0  0  0
  3 87  1  0  0  0
  4  5  1  0  0  0
  4 88  1  0  0  0
  4 89  1  0  0  0
  5  6  1  0  0  0
  5 26  1  0  0  0
  5 90  1  0  0  0
  6 25  1  0  0  0
  6 91  1  0  0  0
  6 92  1  0  0  0
  7  8  2  0  0  0
  7 26  1  0  0  0
  7 29  1  0  0  0
  8  9  1  0  0  0
  8 22  1  0  0  0
  9 10  1  0  0  0
  9 27  2  0  0  0
 10 11  2  0  0  0
 10 15  1  0  0  0
 11 12  1  0  0  0
 11 93  1  0  0  0
 12 13  2  0  0  0
 12 94  1  0  0  0
 13 14  1  0  0  0
 13 31  1  0  0  0
 14 15  2  0  0  0
 14 95  1  0  0  0
 15 96  1  0  0  0
 16 17  2  0  0  0
 16 21  1  0  0  0
 16 31  1  0  0  0
 17 18  1  0  0  0
 17 97  1  0  0  0
 18 19  2  0  0  0
 18 98  1  0  0  0
 19 20  1  0  0  0
 19 24  1  0  0  0
 20 21  2  0  0  0
 20 99  1  0  0  0
 21 23  1  0  0  0
 22 28  1  0  0  0
 22 32  2  0  0  0
 26 27  1  0  0  0
 28100  1  0  0  0
 28101  1  0  0  0
 29102  1  0  0  0
 29103  1  0  0  0
 33 34  1  0  0  0
 33 66  1  0  0  0
 33 70  2  0  0  0
 34 36  1  0  0  0
 34 59  1  0  0  0
 34104  1  0  0  0
 35 44  2  0  0  0
 35 45  1  0  0  0
 35 68  1  0  0  0
 36 56  1  0  0  0
 36105  1  0  0  0
 37 39  1  0  0  0
 37 47  1  0  0  0
 37 66  1  0  0  0
 37106  1  0  0  0
 38 43  2  0  0  0
 38 46  1  0  0  0
 38 47  1  0  0  0
 39 64  1  0  0  0
 39 67  2  0  0  0
 40 52  1  0  0  0
 40 53  2  0  0  0
 40 58  1  0  0  0
 41107  1  0  0  0
 41108  1  0  0  0
 41109  1  0  0  0
 41 48  1  0  0  0
 42 43  1  0  0  0
 42 66  1  0  0  0
 42110  1  0  0  0
 42111  1  0  0  0
 43 44  1  0  0  0
 44112  1  0  0  0
 45 46  2  0  0  0
 45113  1  0  0  0
 46114  1  0  0  0
 47115  1  0  0  0
 47116  1  0  0  0
 48 56  1  0  0  0
 48 65  1  0  0  0
 48117  1  0  0  0
 49 50  1  0  0  0
 49 53  1  0  0  0
 49 64  1  0  0  0
 49118  1  0  0  0
 50 51  1  0  0  0
 50119  1  0  0  0
 50120  1  0  0  0
 51 52  1  0  0  0
 51121  1  0  0  0
 51122  1  0  0  0
 52123  1  0  0  0
 52124  1  0  0  0
 53 54  1  0  0  0
 54 55  2  0  0  0
 54125  1  0  0  0
 55 57  1  0  0  0
 55126  1  0  0  0
 56 69  2  0  0  0
 57 58  2  0  0  0
 57127  1  0  0  0
 58128  1  0  0  0
 59 60  1  0  0  0
 59 61  1  0  0  0
 59 62  1  0  0  0
 60129  1  0  0  0
 60130  1  0  0  0
 60131  1  0  0  0
 61132  1  0  0  0
 61133  1  0  0  0
 61134  1  0  0  0
 62135  1  0  0  0
 62136  1  0  0  0
 62137  1  0  0  0
 63 65  1  0  0  0
 63138  1  0  0  0
 63139  1  0  0  0
 63140  1  0  0  0
 64141  1  0  0  0
 65142  1  0  0  0
 68 80  1  0  0  0
 71 72  1  0  0  0
 71 74  2  0  0  0
 71143  1  0  0  0
 72 73  2  0  0  0
 72 81  1  0  0  0
 73 79  1  0  0  0
 73 83  1  0  0  0
 74 82  1  0  0  0
 74 83  1  0  0  0
 75 76  2  0  0  0
 75 77  1  0  0  0
 75144  1  0  0  0
 76 78  1  0  0  0
 76 80  1  0  0  0
 77 81  1  0  0  0
 77145  1  0  0  0
 77146  1  0  0  0
 78 81  1  0  0  0
 78147  1  0  0  0
 78148  1  0  0  0
 79149  1  0  0  0
 79150  1  0  0  0
 79151  1  0  0  0
 80152  1  0  0  0
 80153  1  0  0  0
 82154  1  0  0  0
M  ISO  4   1 100  68 101  80 101  82 100
M  END
> <chiral flag>
0

> <version>
0

> <s_m_source_file>
/data/baiqing/PycharmProjects/Reinvent-master-3.2/result/LINK_invent/BTK/process_docking_weight1_custom_product_contain_oxygen_bond_distance_aromatic_linkinvent_7_9_3/rearranged_h_0148.sdf

> <i_m_source_file_index>
73

> <r_mmod_Potential_Energy-OPLS-2005>
266.187622070312

> <r_mmod_Stretch_Energy-OPLS-2005>
134.143981933594

> <r_mmod_Bend_Energy-OPLS-2005>
228.850326538086

> <r_mmod_Torsional_Energy-OPLS-2005>
256.998809814453

> <r_mmod_Improper_Torsional_Energy-OPLS-2005>
9.56931304931641

> <r_mmod_Van_der_Waal_Energy-OPLS-2005>
107.014739990234

> <r_mmod_Electrostatic_Energy-OPLS-2005>
-353.047485351562

> <r_mmod_Solvation_Energy-OPLS-2005>
-227.006195068359

> <b_mmod_Minimization_Converged-OPLS-2005>
0

> <r_mmod_RMS_Derivative-OPLS-2005>
5.68898582458496

$$$$
73
                    3D
 Structure written by MMmdl.
159168  0  0  1  0            999 V2000
  -30.5496  -14.8464   20.4182 C   0  0  0  0  0  0
  -30.4594  -12.5039   19.5117 C   0  0  0  0  0  0
  -29.5327  -12.4707   18.2742 C   0  0  0  0  0  0
  -28.0589  -12.2938   18.6932 C   0  0  0  0  0  0
  -27.6493  -13.2262   19.8604 C   0  0  2  0  0  0
  -28.6992  -13.1809   20.9954 C   0  0  0  0  0  0
  -25.2589  -13.8163   20.5796 C   0  0  0  0  0  0
  -24.1846  -13.0400   20.9289 C   0  0  0  0  0  0
  -24.6432  -11.6873   20.8788 C   0  0  0  0  0  0
  -23.9101  -10.4253   21.0433 C   0  0  0  0  0  0
  -24.3630   -9.4166   21.9213 C   0  0  0  0  0  0
  -23.6291   -8.2201   22.0769 C   0  0  0  0  0  0
  -22.4264   -8.0277   21.3559 C   0  0  0  0  0  0
  -21.9910   -9.0253   20.4658 C   0  0  0  0  0  0
  -22.7253  -10.2142   20.3086 C   0  0  0  0  0  0
  -21.6830   -6.0751   22.5285 C   0  0  0  0  0  0
  -21.3999   -6.5661   23.8225 C   0  0  0  0  0  0
  -21.3673   -5.6812   24.9187 C   0  0  0  0  0  0
  -21.6037   -4.3065   24.7223 C   0  0  0  0  0  0
  -21.8808   -3.8177   23.4346 C   0  0  0  0  0  0
  -21.9181   -4.6992   22.3420 C   0  0  0  0  0  0
  -22.7888  -13.5193   21.1929 C   0  0  0  0  0  0
  -22.1663   -4.2181   21.1000 F   0  0  0  0  0  0
  -21.5618   -3.4569   25.7753 F   0  0  0  0  0  0
  -29.9879  -13.5806   20.4106 N   0  0  0  0  0  0
  -26.2999  -12.9340   20.3376 N   0  0  0  0  0  0
  -25.9383  -11.6517   20.5820 N   0  0  0  0  0  0
  -22.0556  -12.8140   22.0471 N   0  0  0  0  0  0
  -25.4217  -15.1884   20.4283 N   0  0  0  0  0  0
  -31.7295  -14.9852   20.0708 O   0  0  0  0  0  0
  -21.6615   -6.8875   21.4240 O   0  0  0  0  0  0
  -22.3555  -14.5477   20.6771 O   0  0  0  0  0  0
  -24.6363  -31.8452   23.1921 C   0  0  0  0  0  0
  -25.9188  -32.4666   23.8299 C   0  0  1  0  0  0
  -27.2291  -27.2050   20.1435 C   0  0  0  0  0  0
  -25.5984  -33.8500   24.2157 N   0  0  0  0  0  0
  -23.4357  -30.4676   21.5314 C   0  0  2  0  0  0
  -24.8898  -28.9075   20.1152 C   0  0  0  0  0  0
  -22.7555  -29.4537   22.4840 C   0  0  0  0  0  0
  -18.0281  -28.1419   22.8421 C   0  0  0  0  0  0
  -24.1521  -36.7242   23.2629 C   0  0  0  0  0  0
  -25.9882  -30.7534   21.3809 C   0  0  0  0  0  0
  -26.0668  -29.3698   20.7173 C   0  0  0  0  0  0
  -27.2362  -28.5324   20.7150 C   0  0  0  0  0  0
  -26.0179  -26.8292   19.5103 C   0  0  0  0  0  0
  -24.8692  -27.6460   19.5068 C   0  0  0  0  0  0
  -23.6635  -29.7958   20.1518 C   0  0  0  0  0  0
  -25.4154  -36.2983   24.0273 C   0  0  1  0  0  0
  -20.5892  -28.3703   23.1228 C   0  0  2  0  0  0
  -20.6776  -26.9417   22.5376 C   0  0  0  0  0  0
  -19.5772  -26.6385   21.5157 C   0  0  0  0  0  0
  -18.1953  -26.7940   22.1574 C   0  0  0  0  0  0
  -19.1542  -28.8883   23.2808 C   0  0  0  0  0  0
  -18.9465  -30.1470   23.8829 C   0  0  0  0  0  0
  -17.6467  -30.6607   24.0537 C   0  0  0  0  0  0
  -25.9094  -34.9377   23.4992 C   0  0  0  0  0  0
  -16.5342  -29.9095   23.6345 C   0  0  0  0  0  0
  -16.7269  -28.6529   23.0334 C   0  0  0  0  0  0
  -26.4565  -31.6532   25.0710 C   0  0  0  0  0  0
  -25.3781  -31.3742   26.1408 C   0  0  0  0  0  0
  -27.0439  -30.2918   24.6299 C   0  0  0  0  0  0
  -27.6081  -32.4330   25.7516 C   0  0  0  0  0  0
  -27.5566  -37.1780   24.8479 C   0  0  0  0  0  0
  -21.4254  -29.3027   22.3626 N   0  0  0  0  0  0
  -26.4287  -37.3689   23.9386 N   0  0  0  0  0  0
  -24.7040  -31.0439   22.0866 N   0  0  0  0  0  0
  -23.4238  -28.8091   23.2958 O   0  0  0  0  0  0
  -28.3128  -26.2740   20.2152 O   0  0  0  0  0  0
  -26.5651  -34.8850   22.4551 O   0  0  0  0  0  0
  -23.5507  -32.1302   23.7191 O   0  0  0  0  0  0
  -28.4205  -19.0232   19.3083 C   0  0  0  0  0  0
  -28.4817  -17.5923   19.4395 C   0  0  0  0  0  0
  -29.4047  -19.5829   20.0824 C   0  0  0  0  0  0
  -29.5582  -17.2570   20.2228 C   0  0  0  0  0  0
  -29.1253  -23.5865   20.1920 C   0  0  0  0  0  0
  -28.8666  -22.2002   20.3197 C   0  0  0  0  0  0
  -32.0446  -22.0447   20.0811 C   0  0  0  0  0  0
  -30.5273  -24.1432   19.9776 C   0  0  0  0  0  0
  -31.6691  -23.3922   20.6965 C   0  0  0  0  0  0
  -30.9626  -21.2635   19.3418 C   0  0  0  0  0  0
  -27.4743  -21.8168   20.7913 C   0  0  0  0  0  0
  -28.0133  -24.7753   20.1807 C   0  0  0  0  0  0
  -29.7415  -21.0264   20.1180 N   0  0  0  0  0  0
  -29.7137  -15.9283   20.7037 N   0  0  0  0  0  0
  -33.1958  -21.6064   20.1751 O   0  0  0  0  0  0
  -30.1538  -18.4915   20.6430 O   0  0  0  0  0  0
  -31.4943  -12.6536   19.2123 H   0  0  0  0  0  0
  -30.4477  -11.5485   20.0373 H   0  0  0  0  0  0
  -29.8269  -11.6429   17.6247 H   0  0  0  0  0  0
  -29.6435  -13.3875   17.6899 H   0  0  0  0  0  0
  -27.9441  -11.2538   19.0083 H   0  0  0  0  0  0
  -27.3916  -12.4268   17.8427 H   0  0  0  0  0  0
  -27.6331  -14.2357   19.4509 H   0  0  0  0  0  0
  -28.7668  -12.1750   21.4149 H   0  0  0  0  0  0
  -28.4267  -13.8333   21.8281 H   0  0  0  0  0  0
  -25.2759   -9.5631   22.4794 H   0  0  0  0  0  0
  -24.0009   -7.4576   22.7483 H   0  0  0  0  0  0
  -21.0843   -8.8766   19.8958 H   0  0  0  0  0  0
  -22.3696  -10.9703   19.6214 H   0  0  0  0  0  0
  -21.1976   -7.6180   23.9729 H   0  0  0  0  0  0
  -21.1520   -6.0567   25.9091 H   0  0  0  0  0  0
  -22.0573   -2.7656   23.2846 H   0  0  0  0  0  0
  -22.4193  -11.9740   22.4730 H   0  0  0  0  0  0
  -21.1221  -13.1175   22.2830 H   0  0  0  0  0  0
  -24.6437  -15.8227   20.5621 H   0  0  0  0  0  0
  -26.2371  -15.6412   20.0391 H   0  0  0  0  0  0
  -26.7239  -32.5270   23.1030 H   0  0  0  0  0  0
  -25.0181  -33.9643   25.0329 H   0  0  0  0  0  0
  -22.7257  -31.2816   21.3685 H   0  0  0  0  0  0
  -23.3712  -35.9640   23.3328 H   0  0  0  0  0  0
  -24.3564  -36.8847   22.2027 H   0  0  0  0  0  0
  -23.7368  -37.6477   23.6669 H   0  0  0  0  0  0
  -26.1406  -31.5251   20.6287 H   0  0  0  0  0  0
  -26.8569  -30.7968   22.0277 H   0  0  0  0  0  0
  -28.1393  -28.8734   21.2034 H   0  0  0  0  0  0
  -25.9145  -25.8715   19.0269 H   0  0  0  0  0  0
  -23.9536  -27.2857   19.0552 H   0  0  0  0  0  0
  -23.8015  -30.5578   19.3854 H   0  0  0  0  0  0
  -22.7871  -29.2275   19.8379 H   0  0  0  0  0  0
  -25.1348  -36.1755   25.0751 H   0  0  0  0  0  0
  -20.9921  -28.3286   24.1370 H   0  0  0  0  0  0
  -20.5661  -26.2313   23.3588 H   0  0  0  0  0  0
  -21.6660  -26.7461   22.1183 H   0  0  0  0  0  0
  -19.6969  -25.6281   21.1245 H   0  0  0  0  0  0
  -19.6751  -27.3142   20.6652 H   0  0  0  0  0  0
  -17.4218  -26.6574   21.4015 H   0  0  0  0  0  0
  -18.0434  -26.0122   22.9027 H   0  0  0  0  0  0
  -19.7941  -30.7284   24.2206 H   0  0  0  0  0  0
  -17.5030  -31.6280   24.5145 H   0  0  0  0  0  0
  -15.5354  -30.2979   23.7750 H   0  0  0  0  0  0
  -15.8645  -28.0839   22.7102 H   0  0  0  0  0  0
  -24.5912  -30.7142   25.7712 H   0  0  0  0  0  0
  -24.9049  -32.2960   26.4817 H   0  0  0  0  0  0
  -25.8087  -30.8892   27.0174 H   0  0  0  0  0  0
  -26.3064  -29.6617   24.1303 H   0  0  0  0  0  0
  -27.4009  -29.7248   25.4897 H   0  0  0  0  0  0
  -27.8989  -30.4085   23.9643 H   0  0  0  0  0  0
  -27.2603  -33.3579   26.2131 H   0  0  0  0  0  0
  -28.3912  -32.6980   25.0402 H   0  0  0  0  0  0
  -28.0752  -31.8455   26.5421 H   0  0  0  0  0  0
  -28.2598  -38.0052   24.7390 H   0  0  0  0  0  0
  -28.1041  -36.2553   24.6470 H   0  0  0  0  0  0
  -27.2260  -37.1621   25.8879 H   0  0  0  0  0  0
  -20.9495  -29.8728   21.6762 H   0  0  0  0  0  0
  -26.0130  -38.2741   24.1340 H   0  0  0  0  0  0
  -27.7195  -19.5804   18.7034 H   0  0  0  0  0  0
  -27.7853  -16.8934   18.9959 H   0  0  0  0  0  0
  -30.5370  -25.1644   20.3609 H   0  0  0  0  0  0
  -30.7199  -24.2237   18.9089 H   0  0  0  0  0  0
  -32.5622  -24.0149   20.6828 H   0  0  0  0  0  0
  -31.4163  -23.2380   21.7460 H   0  0  0  0  0  0
  -31.4160  -20.3260   19.0140 H   0  0  0  0  0  0
  -30.6968  -21.7965   18.4261 H   0  0  0  0  0  0
  -26.7136  -22.4939   20.4085 H   0  0  0  0  0  0
  -27.4638  -21.8503   21.8855 H   0  0  0  0  0  0
  -27.1471  -20.8307   20.4873 H   0  0  0  0  0  0
  -27.2687  -24.5637   20.9512 H   0  0  0  0  0  0
  -27.5354  -24.6043   19.2206 H   0  0  0  0  0  0
  -28.8227  -15.5398   20.9707 H   0  0  0  0  0  0
  1 25  1  0  0  0
  1 30  2  0  0  0
  1 84  1  0  0  0
  2  3  1  0  0  0
  2 25  1  0  0  0
  2 87  1  0  0  0
  2 88  1  0  0  0
  3  4  1  0  0  0
  3 89  1  0  0  0
  3 90  1  0  0  0
  4  5  1  0  0  0
  4 91  1  0  0  0
  4 92  1  0  0  0
  5  6  1  0  0  0
  5 26  1  0  0  0
  5 93  1  0  0  0
  6 25  1  0  0  0
  6 94  1  0  0  0
  6 95  1  0  0  0
  7  8  2  0  0  0
  7 26  1  0  0  0
  7 29  1  0  0  0
  8  9  1  0  0  0
  8 22  1  0  0  0
  9 10  1  0  0  0
  9 27  2  0  0  0
 10 11  2  0  0  0
 10 15  1  0  0  0
 11 12  1  0  0  0
 11 96  1  0  0  0
 12 13  2  0  0  0
 12 97  1  0  0  0
 13 14  1  0  0  0
 13 31  1  0  0  0
 14 15  2  0  0  0
 14 98  1  0  0  0
 15 99  1  0  0  0
 16 17  2  0  0  0
 16 21  1  0  0  0
 16 31  1  0  0  0
 17 18  1  0  0  0
 17100  1  0  0  0
 18 19  2  0  0  0
 18101  1  0  0  0
 19 20  1  0  0  0
 19 24  1  0  0  0
 20 21  2  0  0  0
 20102  1  0  0  0
 21 23  1  0  0  0
 22 28  1  0  0  0
 22 32  2  0  0  0
 26 27  1  0  0  0
 28103  1  0  0  0
 28104  1  0  0  0
 29105  1  0  0  0
 29106  1  0  0  0
 33 34  1  0  0  0
 33 66  1  0  0  0
 33 70  2  0  0  0
 34 36  1  0  0  0
 34 59  1  0  0  0
 34107  1  0  0  0
 35 44  2  0  0  0
 35 45  1  0  0  0
 35 68  1  0  0  0
 36 56  1  0  0  0
 36108  1  0  0  0
 37 39  1  0  0  0
 37 47  1  0  0  0
 37 66  1  0  0  0
 37109  1  0  0  0
 38 43  2  0  0  0
 38 46  1  0  0  0
 38 47  1  0  0  0
 39 64  1  0  0  0
 39 67  2  0  0  0
 40 52  1  0  0  0
 40 53  2  0  0  0
 40 58  1  0  0  0
 41110  1  0  0  0
 41111  1  0  0  0
 41112  1  0  0  0
 41 48  1  0  0  0
 42 43  1  0  0  0
 42 66  1  0  0  0
 42113  1  0  0  0
 42114  1  0  0  0
 43 44  1  0  0  0
 44115  1  0  0  0
 45 46  2  0  0  0
 45116  1  0  0  0
 46117  1  0  0  0
 47118  1  0  0  0
 47119  1  0  0  0
 48 56  1  0  0  0
 48 65  1  0  0  0
 48120  1  0  0  0
 49 50  1  0  0  0
 49 53  1  0  0  0
 49 64  1  0  0  0
 49121  1  0  0  0
 50 51  1  0  0  0
 50122  1  0  0  0
 50123  1  0  0  0
 51 52  1  0  0  0
 51124  1  0  0  0
 51125  1  0  0  0
 52126  1  0  0  0
 52127  1  0  0  0
 53 54  1  0  0  0
 54 55  2  0  0  0
 54128  1  0  0  0
 55 57  1  0  0  0
 55129  1  0  0  0
 56 69  2  0  0  0
 57 58  2  0  0  0
 57130  1  0  0  0
 58131  1  0  0  0
 59 60  1  0  0  0
 59 61  1  0  0  0
 59 62  1  0  0  0
 60132  1  0  0  0
 60133  1  0  0  0
 60134  1  0  0  0
 61135  1  0  0  0
 61136  1  0  0  0
 61137  1  0  0  0
 62138  1  0  0  0
 62139  1  0  0  0
 62140  1  0  0  0
 63 65  1  0  0  0
 63141  1  0  0  0
 63142  1  0  0  0
 63143  1  0  0  0
 64144  1  0  0  0
 65145  1  0  0  0
 68 82  1  0  0  0
 71 72  1  0  0  0
 71 73  2  0  0  0
 71146  1  0  0  0
 72 74  2  0  0  0
 72147  1  0  0  0
 73 83  1  0  0  0
 73 86  1  0  0  0
 74 84  1  0  0  0
 74 86  1  0  0  0
 75 76  2  0  0  0
 75 78  1  0  0  0
 75 82  1  0  0  0
 76 81  1  0  0  0
 76 83  1  0  0  0
 77 79  1  0  0  0
 77 80  1  0  0  0
 77 85  2  0  0  0
 78 79  1  0  0  0
 78148  1  0  0  0
 78149  1  0  0  0
 79150  1  0  0  0
 79151  1  0  0  0
 80 83  1  0  0  0
 80152  1  0  0  0
 80153  1  0  0  0
 81154  1  0  0  0
 81155  1  0  0  0
 81156  1  0  0  0
 82157  1  0  0  0
 82158  1  0  0  0
 84159  1  0  0  0
M  ISO  4   1 100  68 101  82 101  84 100
M  END
> <chiral flag>
0

> <version>
0

> <s_m_source_file>
/data/baiqing/PycharmProjects/Reinvent-master-3.2/result/LINK_invent/BTK/process_docking_weight1_custom_product_contain_oxygen_bond_distance_aromatic_linkinvent_7_9_3/rearranged_h_0148.sdf

> <i_m_source_file_index>
74

> <r_mmod_Potential_Energy-OPLS-2005>
367.213714599609

> <r_mmod_Stretch_Energy-OPLS-2005>
173.828964233398

> <r_mmod_Bend_Energy-OPLS-2005>
228.946762084961

> <r_mmod_Torsional_Energy-OPLS-2005>
286.050872802734

> <r_mmod_Improper_Torsional_Energy-OPLS-2005>
10.6547784805298

> <r_mmod_Van_der_Waal_Energy-OPLS-2005>
132.262023925781

> <r_mmod_Electrostatic_Energy-OPLS-2005>
-365.512603759766

> <r_mmod_Solvation_Energy-OPLS-2005>
-231.701416015625

> <b_mmod_Minimization_Converged-OPLS-2005>
0

> <r_mmod_RMS_Derivative-OPLS-2005>
7.27744007110596

$$$$
74
                    3D
 Structure written by MMmdl.
159168  0  0  1  0            999 V2000
  -30.5517  -14.8189   20.4833 C   0  0  0  0  0  0
  -30.4615  -12.5009   19.4894 C   0  0  0  0  0  0
  -29.5326  -12.5086   18.2507 C   0  0  0  0  0  0
  -28.0595  -12.3103   18.6634 C   0  0  0  0  0  0
  -27.6463  -13.2228   19.8464 C   0  0  2  0  0  0
  -28.6872  -13.1578   20.9869 C   0  0  0  0  0  0
  -25.2551  -13.8175   20.5710 C   0  0  0  0  0  0
  -24.1817  -13.0432   20.9187 C   0  0  0  0  0  0
  -24.6395  -11.6919   20.8708 C   0  0  0  0  0  0
  -23.9080  -10.4298   21.0390 C   0  0  0  0  0  0
  -24.3639   -9.4199   21.9169 C   0  0  0  0  0  0
  -23.6299   -8.2236   22.0748 C   0  0  0  0  0  0
  -22.4275   -8.0279   21.3534 C   0  0  0  0  0  0
  -21.9915   -9.0248   20.4630 C   0  0  0  0  0  0
  -22.7250  -10.2127   20.3032 C   0  0  0  0  0  0
  -21.6832   -6.0737   22.5269 C   0  0  0  0  0  0
  -21.4007   -6.5641   23.8208 C   0  0  0  0  0  0
  -21.3654   -5.6796   24.9170 C   0  0  0  0  0  0
  -21.6036   -4.3057   24.7220 C   0  0  0  0  0  0
  -21.8823   -3.8151   23.4340 C   0  0  0  0  0  0
  -21.9206   -4.6971   22.3404 C   0  0  0  0  0  0
  -22.7842  -13.5203   21.1858 C   0  0  0  0  0  0
  -22.1662   -4.2157   21.0978 F   0  0  0  0  0  0
  -21.5632   -3.4544   25.7738 F   0  0  0  0  0  0
  -29.9961  -13.5510   20.4286 N   0  0  0  0  0  0
  -26.2940  -12.9349   20.3222 N   0  0  0  0  0  0
  -25.9296  -11.6507   20.5657 N   0  0  0  0  0  0
  -22.0506  -12.8183   22.0427 N   0  0  0  0  0  0
  -25.4332  -15.1913   20.4241 N   0  0  0  0  0  0
  -31.7093  -15.0005   20.0841 O   0  0  0  0  0  0
  -21.6625   -6.8883   21.4228 O   0  0  0  0  0  0
  -22.3513  -14.5498   20.6699 O   0  0  0  0  0  0
  -24.6346  -31.8489   23.1924 C   0  0  0  0  0  0
  -25.9159  -32.4715   23.8291 C   0  0  1  0  0  0
  -27.2573  -27.2371   20.1510 C   0  0  0  0  0  0
  -25.5953  -33.8529   24.2219 N   0  0  0  0  0  0
  -23.4346  -30.4630   21.5338 C   0  0  2  0  0  0
  -24.8911  -28.8939   20.1224 C   0  0  0  0  0  0
  -22.7511  -29.4563   22.4900 C   0  0  0  0  0  0
  -18.0284  -28.1380   22.8480 C   0  0  0  0  0  0
  -24.1474  -36.7245   23.2639 C   0  0  0  0  0  0
  -25.9798  -30.7547   21.3746 C   0  0  0  0  0  0
  -26.0607  -29.3701   20.7305 C   0  0  0  0  0  0
  -27.2427  -28.5562   20.7271 C   0  0  0  0  0  0
  -26.0626  -26.8297   19.5135 C   0  0  0  0  0  0
  -24.8995  -27.6326   19.5018 C   0  0  0  0  0  0
  -23.6567  -29.7795   20.1581 C   0  0  0  0  0  0
  -25.4105  -36.3041   24.0324 C   0  0  1  0  0  0
  -20.5893  -28.3694   23.1271 C   0  0  2  0  0  0
  -20.6758  -26.9398   22.5444 C   0  0  0  0  0  0
  -19.5759  -26.6377   21.5218 C   0  0  0  0  0  0
  -18.1925  -26.7927   22.1603 C   0  0  0  0  0  0
  -19.1542  -28.8860   23.2870 C   0  0  0  0  0  0
  -18.9463  -30.1453   23.8891 C   0  0  0  0  0  0
  -17.6468  -30.6586   24.0564 C   0  0  0  0  0  0
  -25.9064  -34.9428   23.5072 C   0  0  0  0  0  0
  -16.5355  -29.9082   23.6339 C   0  0  0  0  0  0
  -16.7275  -28.6498   23.0366 C   0  0  0  0  0  0
  -26.4527  -31.6557   25.0696 C   0  0  0  0  0  0
  -25.3760  -31.3735   26.1421 C   0  0  0  0  0  0
  -27.0357  -30.2959   24.6210 C   0  0  0  0  0  0
  -27.6062  -32.4296   25.7501 C   0  0  0  0  0  0
  -27.5555  -37.1794   24.8470 C   0  0  0  0  0  0
  -21.4220  -29.3029   22.3649 N   0  0  0  0  0  0
  -26.4262  -37.3753   23.9425 N   0  0  0  0  0  0
  -24.7010  -31.0440   22.0880 N   0  0  0  0  0  0
  -23.4204  -28.8132   23.3032 O   0  0  0  0  0  0
  -28.3834  -26.3651   20.1443 O   0  0  0  0  0  0
  -26.5653  -34.8910   22.4649 O   0  0  0  0  0  0
  -23.5487  -32.1313   23.7211 O   0  0  0  0  0  0
  -28.2537  -17.6795   21.3343 C   0  0  0  0  0  0
  -28.2134  -19.1025   21.2135 C   0  0  0  0  0  0
  -29.3813  -19.5656   20.6520 C   0  0  0  0  0  0
  -29.4635  -17.2351   20.8600 C   0  0  0  0  0  0
  -31.5200  -22.6429   19.7685 C   0  0  0  0  0  0
  -30.6625  -23.8710   20.1907 C   0  0  0  0  0  0
  -31.1621  -21.3320   20.5141 C   0  0  0  0  0  0
  -28.8354  -22.1770   20.6506 C   0  0  0  0  0  0
  -29.1449  -23.6454   19.9867 C   0  0  2  0  0  0
  -28.8515  -23.5947   18.4712 C   0  0  0  0  0  0
  -28.2570  -24.9117   20.5672 C   0  0  0  0  0  0
  -29.7478  -20.9756   20.3723 N   0  0  0  0  0  0
  -29.6983  -15.8318   20.9121 N   0  0  0  0  0  0
  -30.1999  -18.3935   20.4304 O   0  0  0  0  0  0
  -26.8493  -20.0210   21.7530 Cl  0  0  0  0  0  0
  -31.4949  -12.6696   19.1827 H   0  0  0  0  0  0
  -30.4464  -11.5284   19.9833 H   0  0  0  0  0  0
  -29.8384  -11.7264   17.5536 H   0  0  0  0  0  0
  -29.6382  -13.4522   17.7129 H   0  0  0  0  0  0
  -27.9436  -11.2668   18.9601 H   0  0  0  0  0  0
  -27.3988  -12.4546   17.8075 H   0  0  0  0  0  0
  -27.6399  -14.2384   19.4529 H   0  0  0  0  0  0
  -28.7367  -12.1494   21.4016 H   0  0  0  0  0  0
  -28.3845  -13.8031   21.8112 H   0  0  0  0  0  0
  -25.2803   -9.5667   22.4711 H   0  0  0  0  0  0
  -24.0021   -7.4632   22.7463 H   0  0  0  0  0  0
  -21.0839   -8.8741   19.8945 H   0  0  0  0  0  0
  -22.3706  -10.9645   19.6122 H   0  0  0  0  0  0
  -21.1985   -7.6150   23.9706 H   0  0  0  0  0  0
  -21.1456   -6.0527   25.9073 H   0  0  0  0  0  0
  -22.0623   -2.7613   23.2828 H   0  0  0  0  0  0
  -22.4154  -11.9846   22.4769 H   0  0  0  0  0  0
  -21.1090  -13.1120   22.2601 H   0  0  0  0  0  0
  -24.6827  -15.8579   20.5734 H   0  0  0  0  0  0
  -26.2766  -15.6254   20.0736 H   0  0  0  0  0  0
  -26.7226  -32.5374   23.1038 H   0  0  0  0  0  0
  -25.0124  -33.9649   25.0387 H   0  0  0  0  0  0
  -22.7341  -31.2867   21.3759 H   0  0  0  0  0  0
  -23.3736  -35.9568   23.3299 H   0  0  0  0  0  0
  -24.3552  -36.8874   22.2047 H   0  0  0  0  0  0
  -23.7235  -37.6450   23.6663 H   0  0  0  0  0  0
  -26.1158  -31.5070   20.5958 H   0  0  0  0  0  0
  -26.8604  -30.8178   22.0029 H   0  0  0  0  0  0
  -28.1398  -28.9246   21.2074 H   0  0  0  0  0  0
  -26.0283  -25.8699   19.0184 H   0  0  0  0  0  0
  -24.0111  -27.2651   19.0071 H   0  0  0  0  0  0
  -23.7743  -30.5456   19.3890 H   0  0  0  0  0  0
  -22.7826  -29.1979   19.8587 H   0  0  0  0  0  0
  -25.1284  -36.1848   25.0810 H   0  0  0  0  0  0
  -20.9973  -28.3273   24.1398 H   0  0  0  0  0  0
  -20.5579  -26.2316   23.3661 H   0  0  0  0  0  0
  -21.6634  -26.7367   22.1298 H   0  0  0  0  0  0
  -19.6922  -25.6290   21.1253 H   0  0  0  0  0  0
  -19.6710  -27.3183   20.6742 H   0  0  0  0  0  0
  -17.4203  -26.6700   21.3985 H   0  0  0  0  0  0
  -18.0292  -26.0058   22.8973 H   0  0  0  0  0  0
  -19.7945  -30.7268   24.2246 H   0  0  0  0  0  0
  -17.5024  -31.6260   24.5166 H   0  0  0  0  0  0
  -15.5354  -30.2988   23.7661 H   0  0  0  0  0  0
  -15.8670  -28.0811   22.7095 H   0  0  0  0  0  0
  -24.6049  -30.6917   25.7838 H   0  0  0  0  0  0
  -24.8804  -32.2882   26.4679 H   0  0  0  0  0  0
  -25.8122  -30.9144   27.0302 H   0  0  0  0  0  0
  -26.2944  -29.6742   24.1171 H   0  0  0  0  0  0
  -27.3950  -29.7188   25.4739 H   0  0  0  0  0  0
  -27.8861  -30.4190   23.9497 H   0  0  0  0  0  0
  -27.2684  -33.3652   26.1959 H   0  0  0  0  0  0
  -28.3970  -32.6743   25.0404 H   0  0  0  0  0  0
  -28.0608  -31.8487   26.5536 H   0  0  0  0  0  0
  -28.2589  -38.0072   24.7478 H   0  0  0  0  0  0
  -28.1028  -36.2605   24.6307 H   0  0  0  0  0  0
  -27.2284  -37.1461   25.8879 H   0  0  0  0  0  0
  -20.9399  -29.8727   21.6828 H   0  0  0  0  0  0
  -26.0117  -38.2813   24.1434 H   0  0  0  0  0  0
  -27.4603  -17.0697   21.7419 H   0  0  0  0  0  0
  -31.4423  -22.4782   18.6943 H   0  0  0  0  0  0
  -32.5738  -22.8700   19.9425 H   0  0  0  0  0  0
  -30.9705  -24.7567   19.6311 H   0  0  0  0  0  0
  -30.8664  -24.1014   21.2361 H   0  0  0  0  0  0
  -31.4079  -21.4457   21.5722 H   0  0  0  0  0  0
  -31.7893  -20.5171   20.1477 H   0  0  0  0  0  0
  -27.8223  -21.9208   20.3502 H   0  0  0  0  0  0
  -28.8253  -22.3036   21.7367 H   0  0  0  0  0  0
  -29.2349  -22.6904   17.9998 H   0  0  0  0  0  0
  -29.3043  -24.4458   17.9606 H   0  0  0  0  0  0
  -27.7832  -23.6434   18.2600 H   0  0  0  0  0  0
  -28.4236  -24.9331   21.6445 H   0  0  0  0  0  0
  -27.2105  -24.6197   20.4833 H   0  0  0  0  0  0
  -28.8984  -15.3636   21.3103 H   0  0  0  0  0  0
  1 25  1  0  0  0
  1 30  2  0  0  0
  1 83  1  0  0  0
  2  3  1  0  0  0
  2 25  1  0  0  0
  2 86  1  0  0  0
  2 87  1  0  0  0
  3  4  1  0  0  0
  3 88  1  0  0  0
  3 89  1  0  0  0
  4  5  1  0  0  0
  4 90  1  0  0  0
  4 91  1  0  0  0
  5  6  1  0  0  0
  5 26  1  0  0  0
  5 92  1  0  0  0
  6 25  1  0  0  0
  6 93  1  0  0  0
  6 94  1  0  0  0
  7  8  2  0  0  0
  7 26  1  0  0  0
  7 29  1  0  0  0
  8  9  1  0  0  0
  8 22  1  0  0  0
  9 10  1  0  0  0
  9 27  2  0  0  0
 10 11  2  0  0  0
 10 15  1  0  0  0
 11 12  1  0  0  0
 11 95  1  0  0  0
 12 13  2  0  0  0
 12 96  1  0  0  0
 13 14  1  0  0  0
 13 31  1  0  0  0
 14 15  2  0  0  0
 14 97  1  0  0  0
 15 98  1  0  0  0
 16 17  2  0  0  0
 16 21  1  0  0  0
 16 31  1  0  0  0
 17 18  1  0  0  0
 17 99  1  0  0  0
 18 19  2  0  0  0
 18100  1  0  0  0
 19 20  1  0  0  0
 19 24  1  0  0  0
 20 21  2  0  0  0
 20101  1  0  0  0
 21 23  1  0  0  0
 22 28  1  0  0  0
 22 32  2  0  0  0
 26 27  1  0  0  0
 28102  1  0  0  0
 28103  1  0  0  0
 29104  1  0  0  0
 29105  1  0  0  0
 33 34  1  0  0  0
 33 66  1  0  0  0
 33 70  2  0  0  0
 34 36  1  0  0  0
 34 59  1  0  0  0
 34106  1  0  0  0
 35 44  2  0  0  0
 35 45  1  0  0  0
 35 68  1  0  0  0
 36 56  1  0  0  0
 36107  1  0  0  0
 37 39  1  0  0  0
 37 47  1  0  0  0
 37 66  1  0  0  0
 37108  1  0  0  0
 38 43  2  0  0  0
 38 46  1  0  0  0
 38 47  1  0  0  0
 39 64  1  0  0  0
 39 67  2  0  0  0
 40 52  1  0  0  0
 40 53  2  0  0  0
 40 58  1  0  0  0
 41109  1  0  0  0
 41110  1  0  0  0
 41111  1  0  0  0
 41 48  1  0  0  0
 42 43  1  0  0  0
 42 66  1  0  0  0
 42112  1  0  0  0
 42113  1  0  0  0
 43 44  1  0  0  0
 44114  1  0  0  0
 45 46  2  0  0  0
 45115  1  0  0  0
 46116  1  0  0  0
 47117  1  0  0  0
 47118  1  0  0  0
 48 56  1  0  0  0
 48 65  1  0  0  0
 48119  1  0  0  0
 49 50  1  0  0  0
 49 53  1  0  0  0
 49 64  1  0  0  0
 49120  1  0  0  0
 50 51  1  0  0  0
 50121  1  0  0  0
 50122  1  0  0  0
 51 52  1  0  0  0
 51123  1  0  0  0
 51124  1  0  0  0
 52125  1  0  0  0
 52126  1  0  0  0
 53 54  1  0  0  0
 54 55  2  0  0  0
 54127  1  0  0  0
 55 57  1  0  0  0
 55128  1  0  0  0
 56 69  2  0  0  0
 57 58  2  0  0  0
 57129  1  0  0  0
 58130  1  0  0  0
 59 60  1  0  0  0
 59 61  1  0  0  0
 59 62  1  0  0  0
 60131  1  0  0  0
 60132  1  0  0  0
 60133  1  0  0  0
 61134  1  0  0  0
 61135  1  0  0  0
 61136  1  0  0  0
 62137  1  0  0  0
 62138  1  0  0  0
 62139  1  0  0  0
 63 65  1  0  0  0
 63140  1  0  0  0
 63141  1  0  0  0
 63142  1  0  0  0
 64143  1  0  0  0
 65144  1  0  0  0
 68 81  1  0  0  0
 71 72  1  0  0  0
 71 74  2  0  0  0
 71145  1  0  0  0
 72 73  2  0  0  0
 72 85  1  0  0  0
 73 82  1  0  0  0
 73 84  1  0  0  0
 74 83  1  0  0  0
 74 84  1  0  0  0
 75 76  1  0  0  0
 75 77  1  0  0  0
 75146  1  0  0  0
 75147  1  0  0  0
 76 79  1  0  0  0
 76148  1  0  0  0
 76149  1  0  0  0
 77 82  1  0  0  0
 77150  1  0  0  0
 77151  1  0  0  0
 78 79  1  0  0  0
 78 82  1  0  0  0
 78152  1  0  0  0
 78153  1  0  0  0
 79 80  1  0  0  0
 79 81  1  0  0  0
 80154  1  0  0  0
 80155  1  0  0  0
 80156  1  0  0  0
 81157  1  0  0  0
 81158  1  0  0  0
 83159  1  0  0  0
M  ISO  4   1 100  68 101  81 101  83 100
M  END
> <chiral flag>
0

> <version>
0

> <s_m_source_file>
/data/baiqing/PycharmProjects/Reinvent-master-3.2/result/LINK_invent/BTK/process_docking_weight1_custom_product_contain_oxygen_bond_distance_aromatic_linkinvent_7_9_3/rearranged_h_0148.sdf

> <i_m_source_file_index>
75

> <r_mmod_Potential_Energy-OPLS-2005>
367.399780273438

> <r_mmod_Stretch_Energy-OPLS-2005>
166.050659179688

> <r_mmod_Bend_Energy-OPLS-2005>
266.860504150391

> <r_mmod_Torsional_Energy-OPLS-2005>
262.916290283203

> <r_mmod_Improper_Torsional_Energy-OPLS-2005>
5.30977296829224

> <r_mmod_Van_der_Waal_Energy-OPLS-2005>
116.506408691406

> <r_mmod_Electrostatic_Energy-OPLS-2005>
-331.867462158203

> <r_mmod_Solvation_Energy-OPLS-2005>
-227.152603149414

> <b_mmod_Minimization_Converged-OPLS-2005>
0

> <r_mmod_RMS_Derivative-OPLS-2005>
4.71735525131226

$$$$
75
                    3D
 Structure written by MMmdl.
161170  0  0  1  0            999 V2000
  -30.6096  -14.7568   20.4389 C   0  0  0  0  0  0
  -30.4241  -12.4574   19.4845 C   0  0  0  0  0  0
  -29.5126  -12.5061   18.2396 C   0  0  0  0  0  0
  -28.0355  -12.3354   18.6448 C   0  0  0  0  0  0
  -27.6351  -13.2366   19.8439 C   0  0  2  0  0  0
  -28.6776  -13.1880   20.9831 C   0  0  0  0  0  0
  -25.2377  -13.8128   20.5521 C   0  0  0  0  0  0
  -24.1749  -13.0400   20.9224 C   0  0  0  0  0  0
  -24.6393  -11.6899   20.8800 C   0  0  0  0  0  0
  -23.9068  -10.4281   21.0457 C   0  0  0  0  0  0
  -24.3614   -9.4178   21.9233 C   0  0  0  0  0  0
  -23.6301   -8.2204   22.0748 C   0  0  0  0  0  0
  -22.4286   -8.0261   21.3530 C   0  0  0  0  0  0
  -21.9922   -9.0236   20.4628 C   0  0  0  0  0  0
  -22.7237  -10.2130   20.3078 C   0  0  0  0  0  0
  -21.6851   -6.0728   22.5297 C   0  0  0  0  0  0
  -21.3989   -6.5629   23.8227 C   0  0  0  0  0  0
  -21.3664   -5.6779   24.9196 C   0  0  0  0  0  0
  -21.6065   -4.3050   24.7236 C   0  0  0  0  0  0
  -21.8812   -3.8140   23.4360 C   0  0  0  0  0  0
  -21.9177   -4.6957   22.3413 C   0  0  0  0  0  0
  -22.7772  -13.5181   21.1899 C   0  0  0  0  0  0
  -22.1665   -4.2148   21.0989 F   0  0  0  0  0  0
  -21.5640   -3.4517   25.7745 F   0  0  0  0  0  0
  -29.9804  -13.5315   20.4025 N   0  0  0  0  0  0
  -26.2879  -12.9399   20.3228 N   0  0  0  0  0  0
  -25.9326  -11.6540   20.5797 N   0  0  0  0  0  0
  -22.0424  -12.8181   22.0470 N   0  0  0  0  0  0
  -25.3844  -15.1795   20.3550 N   0  0  0  0  0  0
  -31.7977  -14.8375   20.1170 O   0  0  0  0  0  0
  -21.6640   -6.8872   21.4252 O   0  0  0  0  0  0
  -22.3465  -14.5497   20.6761 O   0  0  0  0  0  0
  -24.6279  -31.8555   23.1968 C   0  0  0  0  0  0
  -25.9120  -32.4754   23.8324 C   0  0  1  0  0  0
  -27.2285  -27.2825   20.1483 C   0  0  0  0  0  0
  -25.5925  -33.8564   24.2232 N   0  0  0  0  0  0
  -23.4243  -30.4726   21.5399 C   0  0  2  0  0  0
  -24.8756  -28.9156   20.1160 C   0  0  0  0  0  0
  -22.7489  -29.4576   22.4921 C   0  0  0  0  0  0
  -18.0296  -28.1371   22.8462 C   0  0  0  0  0  0
  -24.1490  -36.7287   23.2625 C   0  0  0  0  0  0
  -25.9651  -30.7783   21.3686 C   0  0  0  0  0  0
  -26.0433  -29.3965   20.7247 C   0  0  0  0  0  0
  -27.2262  -28.5934   20.7276 C   0  0  0  0  0  0
  -26.0446  -26.8590   19.5114 C   0  0  0  0  0  0
  -24.8778  -27.6517   19.5004 C   0  0  0  0  0  0
  -23.6452  -29.8006   20.1572 C   0  0  0  0  0  0
  -25.4112  -36.3075   24.0313 C   0  0  1  0  0  0
  -20.5896  -28.3659   23.1273 C   0  0  2  0  0  0
  -20.6811  -26.9409   22.5405 C   0  0  0  0  0  0
  -19.5777  -26.6369   21.5186 C   0  0  0  0  0  0
  -18.1961  -26.7914   22.1599 C   0  0  0  0  0  0
  -19.1550  -28.8838   23.2869 C   0  0  0  0  0  0
  -18.9464  -30.1446   23.8879 C   0  0  0  0  0  0
  -17.6451  -30.6588   24.0539 C   0  0  0  0  0  0
  -25.9058  -34.9454   23.5061 C   0  0  0  0  0  0
  -16.5347  -29.9086   23.6317 C   0  0  0  0  0  0
  -16.7278  -28.6489   23.0339 C   0  0  0  0  0  0
  -26.4505  -31.6579   25.0692 C   0  0  0  0  0  0
  -25.3722  -31.3749   26.1401 C   0  0  0  0  0  0
  -27.0319  -30.3011   24.6121 C   0  0  0  0  0  0
  -27.6065  -32.4311   25.7472 C   0  0  0  0  0  0
  -27.5578  -37.1795   24.8451 C   0  0  0  0  0  0
  -21.4190  -29.3033   22.3686 N   0  0  0  0  0  0
  -26.4278  -37.3776   23.9411 N   0  0  0  0  0  0
  -24.6905  -31.0540   22.0927 N   0  0  0  0  0  0
  -23.4194  -28.8110   23.3007 O   0  0  0  0  0  0
  -28.3385  -26.4121   20.1374 O   0  0  0  0  0  0
  -26.5614  -34.8915   22.4628 O   0  0  0  0  0  0
  -23.5425  -32.1356   23.7282 O   0  0  0  0  0  0
  -28.4600  -20.3301   21.9844 C   0  0  0  0  0  0
  -28.7961  -18.9323   21.8013 C   0  0  0  0  0  0
  -29.5489  -18.6666   20.6755 C   0  0  0  0  0  0
  -28.8566  -21.2311   21.0172 C   0  0  0  0  0  0
  -28.6434  -23.7346   20.3138 C   0  0  0  0  0  0
  -27.2917  -16.9088   22.3420 C   0  0  0  0  0  0
  -26.9221  -17.9915   23.3219 C   0  0  0  0  0  0
  -28.3397  -17.8966   22.7842 C   0  0  0  0  0  0
  -29.4582  -17.4511   23.7051 C   0  0  0  0  0  0
  -27.2670  -25.1482   22.0746 C   0  0  0  0  0  0
  -30.2448  -17.3333   20.1748 C   0  0  0  0  0  0
  -28.3697  -25.1765   20.9918 C   0  0  2  0  0  0
  -28.6268  -22.6143   21.1274 N   0  0  0  0  0  0
  -29.8505  -15.9108   20.5883 N   0  0  0  0  0  0
  -28.8877  -23.6562   19.1076 O   0  0  0  0  0  0
  -29.7282  -20.2443   19.8065 S   0  0  0  0  0  0
  -31.4688  -12.5674   19.1905 H   0  0  0  0  0  0
  -30.3578  -11.4858   19.9771 H   0  0  0  0  0  0
  -29.7985  -11.7292   17.5274 H   0  0  0  0  0  0
  -29.6457  -13.4575   17.7239 H   0  0  0  0  0  0
  -27.8904  -11.2867   18.9033 H   0  0  0  0  0  0
  -27.3804  -12.5268   17.7933 H   0  0  0  0  0  0
  -27.6238  -14.2558   19.4554 H   0  0  0  0  0  0
  -28.7076  -12.1992   21.4447 H   0  0  0  0  0  0
  -28.4108  -13.8875   21.7770 H   0  0  0  0  0  0
  -25.2768   -9.5675   22.4802 H   0  0  0  0  0  0
  -24.0018   -7.4595   22.7444 H   0  0  0  0  0  0
  -21.0859   -8.8762   19.8933 H   0  0  0  0  0  0
  -22.3712  -10.9671   19.6183 H   0  0  0  0  0  0
  -21.1976   -7.6138   23.9732 H   0  0  0  0  0  0
  -21.1502   -6.0516   25.9102 H   0  0  0  0  0  0
  -22.0586   -2.7596   23.2862 H   0  0  0  0  0  0
  -22.4019  -11.9852   22.4893 H   0  0  0  0  0  0
  -21.1043  -13.1190   22.2664 H   0  0  0  0  0  0
  -24.5881  -15.8015   20.4202 H   0  0  0  0  0  0
  -26.1837  -15.6069   19.9084 H   0  0  0  0  0  0
  -26.7182  -32.5437   23.1060 H   0  0  0  0  0  0
  -25.0164  -33.9697   25.0431 H   0  0  0  0  0  0
  -22.7182  -31.2912   21.3918 H   0  0  0  0  0  0
  -23.3765  -35.9610   23.3266 H   0  0  0  0  0  0
  -24.3567  -36.8923   22.2039 H   0  0  0  0  0  0
  -23.7242  -37.6482   23.6657 H   0  0  0  0  0  0
  -26.0819  -31.5344   20.5917 H   0  0  0  0  0  0
  -26.8482  -30.8407   21.9930 H   0  0  0  0  0  0
  -28.1235  -28.9597   21.2048 H   0  0  0  0  0  0
  -26.0195  -25.8874   19.0382 H   0  0  0  0  0  0
  -23.9837  -27.2774   19.0198 H   0  0  0  0  0  0
  -23.7669  -30.5723   19.3944 H   0  0  0  0  0  0
  -22.7656  -29.2259   19.8603 H   0  0  0  0  0  0
  -25.1309  -36.1901   25.0807 H   0  0  0  0  0  0
  -20.9984  -28.3257   24.1408 H   0  0  0  0  0  0
  -20.5703  -26.2279   23.3577 H   0  0  0  0  0  0
  -21.6696  -26.7447   22.1226 H   0  0  0  0  0  0
  -19.6961  -25.6275   21.1249 H   0  0  0  0  0  0
  -19.6744  -27.3126   20.6687 H   0  0  0  0  0  0
  -17.4240  -26.6673   21.3984 H   0  0  0  0  0  0
  -18.0345  -26.0059   22.8979 H   0  0  0  0  0  0
  -19.7919  -30.7288   24.2266 H   0  0  0  0  0  0
  -17.5001  -31.6266   24.5147 H   0  0  0  0  0  0
  -15.5348  -30.2968   23.7673 H   0  0  0  0  0  0
  -15.8679  -28.0804   22.7072 H   0  0  0  0  0  0
  -24.5886  -30.7110   25.7729 H   0  0  0  0  0  0
  -24.8928  -32.2931   26.4821 H   0  0  0  0  0  0
  -25.8026  -30.8929   27.0189 H   0  0  0  0  0  0
  -26.2879  -29.6795   24.1141 H   0  0  0  0  0  0
  -27.4008  -29.7246   25.4618 H   0  0  0  0  0  0
  -27.8753  -30.4314   23.9346 H   0  0  0  0  0  0
  -27.2689  -33.3613   26.2061 H   0  0  0  0  0  0
  -28.3885  -32.6860   25.0307 H   0  0  0  0  0  0
  -28.0719  -31.8419   26.5371 H   0  0  0  0  0  0
  -28.2593  -38.0103   24.7520 H   0  0  0  0  0  0
  -28.1086  -36.2634   24.6271 H   0  0  0  0  0  0
  -27.2286  -37.1434   25.8850 H   0  0  0  0  0  0
  -20.9359  -29.8827   21.6956 H   0  0  0  0  0  0
  -26.0156  -38.2844   24.1446 H   0  0  0  0  0  0
  -27.9105  -20.6283   22.8671 H   0  0  0  0  0  0
  -26.9403  -17.0140   21.3176 H   0  0  0  0  0  0
  -27.3400  -15.8905   22.7220 H   0  0  0  0  0  0
  -26.7469  -17.6992   24.3558 H   0  0  0  0  0  0
  -26.2733  -18.7854   22.9505 H   0  0  0  0  0  0
  -30.2765  -17.0113   23.1338 H   0  0  0  0  0  0
  -29.1009  -16.7029   24.4150 H   0  0  0  0  0  0
  -29.8449  -18.3026   24.2656 H   0  0  0  0  0  0
  -27.3406  -26.0287   22.7135 H   0  0  0  0  0  0
  -27.3540  -24.2819   22.7327 H   0  0  0  0  0  0
  -26.2678  -25.1324   21.6413 H   0  0  0  0  0  0
  -31.3050  -17.4340   20.4056 H   0  0  0  0  0  0
  -30.2029  -17.3485   19.0856 H   0  0  0  0  0  0
  -29.2920  -25.3224   21.5542 H   0  0  0  0  0  0
  -28.3479  -22.8820   22.0616 H   0  0  0  0  0  0
  -28.8776  -15.7745   20.8080 H   0  0  0  0  0  0
  1 25  1  0  0  0
  1 30  2  0  0  0
  1 84  1  0  0  0
  2  3  1  0  0  0
  2 25  1  0  0  0
  2 87  1  0  0  0
  2 88  1  0  0  0
  3  4  1  0  0  0
  3 89  1  0  0  0
  3 90  1  0  0  0
  4  5  1  0  0  0
  4 91  1  0  0  0
  4 92  1  0  0  0
  5  6  1  0  0  0
  5 26  1  0  0  0
  5 93  1  0  0  0
  6 25  1  0  0  0
  6 94  1  0  0  0
  6 95  1  0  0  0
  7  8  2  0  0  0
  7 26  1  0  0  0
  7 29  1  0  0  0
  8  9  1  0  0  0
  8 22  1  0  0  0
  9 10  1  0  0  0
  9 27  2  0  0  0
 10 11  2  0  0  0
 10 15  1  0  0  0
 11 12  1  0  0  0
 11 96  1  0  0  0
 12 13  2  0  0  0
 12 97  1  0  0  0
 13 14  1  0  0  0
 13 31  1  0  0  0
 14 15  2  0  0  0
 14 98  1  0  0  0
 15 99  1  0  0  0
 16 17  2  0  0  0
 16 21  1  0  0  0
 16 31  1  0  0  0
 17 18  1  0  0  0
 17100  1  0  0  0
 18 19  2  0  0  0
 18101  1  0  0  0
 19 20  1  0  0  0
 19 24  1  0  0  0
 20 21  2  0  0  0
 20102  1  0  0  0
 21 23  1  0  0  0
 22 28  1  0  0  0
 22 32  2  0  0  0
 26 27  1  0  0  0
 28103  1  0  0  0
 28104  1  0  0  0
 29105  1  0  0  0
 29106  1  0  0  0
 33 34  1  0  0  0
 33 66  1  0  0  0
 33 70  2  0  0  0
 34 36  1  0  0  0
 34 59  1  0  0  0
 34107  1  0  0  0
 35 44  2  0  0  0
 35 45  1  0  0  0
 35 68  1  0  0  0
 36 56  1  0  0  0
 36108  1  0  0  0
 37 39  1  0  0  0
 37 47  1  0  0  0
 37 66  1  0  0  0
 37109  1  0  0  0
 38 43  2  0  0  0
 38 46  1  0  0  0
 38 47  1  0  0  0
 39 64  1  0  0  0
 39 67  2  0  0  0
 40 52  1  0  0  0
 40 53  2  0  0  0
 40 58  1  0  0  0
 41110  1  0  0  0
 41111  1  0  0  0
 41112  1  0  0  0
 41 48  1  0  0  0
 42 43  1  0  0  0
 42 66  1  0  0  0
 42113  1  0  0  0
 42114  1  0  0  0
 43 44  1  0  0  0
 44115  1  0  0  0
 45 46  2  0  0  0
 45116  1  0  0  0
 46117  1  0  0  0
 47118  1  0  0  0
 47119  1  0  0  0
 48 56  1  0  0  0
 48 65  1  0  0  0
 48120  1  0  0  0
 49 50  1  0  0  0
 49 53  1  0  0  0
 49 64  1  0  0  0
 49121  1  0  0  0
 50 51  1  0  0  0
 50122  1  0  0  0
 50123  1  0  0  0
 51 52  1  0  0  0
 51124  1  0  0  0
 51125  1  0  0  0
 52126  1  0  0  0
 52127  1  0  0  0
 53 54  1  0  0  0
 54 55  2  0  0  0
 54128  1  0  0  0
 55 57  1  0  0  0
 55129  1  0  0  0
 56 69  2  0  0  0
 57 58  2  0  0  0
 57130  1  0  0  0
 58131  1  0  0  0
 59 60  1  0  0  0
 59 61  1  0  0  0
 59 62  1  0  0  0
 60132  1  0  0  0
 60133  1  0  0  0
 60134  1  0  0  0
 61135  1  0  0  0
 61136  1  0  0  0
 61137  1  0  0  0
 62138  1  0  0  0
 62139  1  0  0  0
 62140  1  0  0  0
 63 65  1  0  0  0
 63141  1  0  0  0
 63142  1  0  0  0
 63143  1  0  0  0
 64144  1  0  0  0
 65145  1  0  0  0
 68 82  1  0  0  0
 71 72  1  0  0  0
 71 74  2  0  0  0
 71146  1  0  0  0
 72 73  2  0  0  0
 72 78  1  0  0  0
 73 81  1  0  0  0
 73 86  1  0  0  0
 74 83  1  0  0  0
 74 86  1  0  0  0
 75 82  1  0  0  0
 75 83  1  0  0  0
 75 85  2  0  0  0
 76 77  1  0  0  0
 76 78  1  0  0  0
 76147  1  0  0  0
 76148  1  0  0  0
 77 78  1  0  0  0
 77149  1  0  0  0
 77150  1  0  0  0
 78 79  1  0  0  0
 79151  1  0  0  0
 79152  1  0  0  0
 79153  1  0  0  0
 80154  1  0  0  0
 80155  1  0  0  0
 80156  1  0  0  0
 80 82  1  0  0  0
 81 84  1  0  0  0
 81157  1  0  0  0
 81158  1  0  0  0
 82159  1  0  0  0
 83160  1  0  0  0
 84161  1  0  0  0
M  ISO  4   1 100  68 101  82 101  84 100
M  END
> <chiral flag>
0

> <version>
0

> <s_m_source_file>
/data/baiqing/PycharmProjects/Reinvent-master-3.2/result/LINK_invent/BTK/process_docking_weight1_custom_product_contain_oxygen_bond_distance_aromatic_linkinvent_7_9_3/rearranged_h_0148.sdf

> <i_m_source_file_index>
76

> <r_mmod_Potential_Energy-OPLS-2005>
124.091407775879

> <r_mmod_Stretch_Energy-OPLS-2005>
113.375534057617

> <r_mmod_Bend_Energy-OPLS-2005>
211.930221557617

> <r_mmod_Torsional_Energy-OPLS-2005>
273.653228759766

> <r_mmod_Improper_Torsional_Energy-OPLS-2005>
7.21020793914795

> <r_mmod_Van_der_Waal_Energy-OPLS-2005>
102.842491149902

> <r_mmod_Electrostatic_Energy-OPLS-2005>
-435.077728271484

> <r_mmod_Solvation_Energy-OPLS-2005>
-232.155395507812

> <b_mmod_Minimization_Converged-OPLS-2005>
0

> <r_mmod_RMS_Derivative-OPLS-2005>
4.27534294128418

$$$$
76
                    3D
 Structure written by MMmdl.
160169  0  0  1  0            999 V2000
  -30.6779  -14.5733   20.4778 C   0  0  0  0  0  0
  -30.4145  -12.3456   19.4568 C   0  0  0  0  0  0
  -29.5000  -12.4914   18.2221 C   0  0  0  0  0  0
  -28.0206  -12.3468   18.6300 C   0  0  0  0  0  0
  -27.6470  -13.2219   19.8575 C   0  0  2  0  0  0
  -28.6892  -13.0920   20.9911 C   0  0  0  0  0  0
  -25.2525  -13.8187   20.5698 C   0  0  0  0  0  0
  -24.1804  -13.0437   20.9200 C   0  0  0  0  0  0
  -24.6381  -11.6912   20.8740 C   0  0  0  0  0  0
  -23.9059  -10.4292   21.0397 C   0  0  0  0  0  0
  -24.3619   -9.4212   21.9173 C   0  0  0  0  0  0
  -23.6297   -8.2245   22.0750 C   0  0  0  0  0  0
  -22.4278   -8.0273   21.3544 C   0  0  0  0  0  0
  -21.9909   -9.0241   20.4648 C   0  0  0  0  0  0
  -22.7231  -10.2125   20.3052 C   0  0  0  0  0  0
  -21.6857   -6.0740   22.5281 C   0  0  0  0  0  0
  -21.4018   -6.5642   23.8214 C   0  0  0  0  0  0
  -21.3662   -5.6791   24.9173 C   0  0  0  0  0  0
  -21.6038   -4.3051   24.7225 C   0  0  0  0  0  0
  -21.8816   -3.8147   23.4346 C   0  0  0  0  0  0
  -21.9198   -4.6968   22.3407 C   0  0  0  0  0  0
  -22.7823  -13.5222   21.1856 C   0  0  0  0  0  0
  -22.1656   -4.2151   21.0981 F   0  0  0  0  0  0
  -21.5634   -3.4535   25.7740 F   0  0  0  0  0  0
  -30.0091  -13.3852   20.4215 N   0  0  0  0  0  0
  -26.2951  -12.9379   20.3307 N   0  0  0  0  0  0
  -25.9312  -11.6527   20.5760 N   0  0  0  0  0  0
  -22.0469  -12.8213   22.0414 N   0  0  0  0  0  0
  -25.4216  -15.1920   20.4144 N   0  0  0  0  0  0
  -31.8747  -14.6375   20.1868 O   0  0  0  0  0  0
  -21.6641   -6.8875   21.4241 O   0  0  0  0  0  0
  -22.3505  -14.5529   20.6705 O   0  0  0  0  0  0
  -24.6220  -31.8645   23.2073 C   0  0  0  0  0  0
  -25.9089  -32.4803   23.8384 C   0  0  1  0  0  0
  -27.2248  -27.3739   20.0952 C   0  0  0  0  0  0
  -25.5914  -33.8602   24.2306 N   0  0  0  0  0  0
  -23.4126  -30.4911   21.5494 C   0  0  2  0  0  0
  -24.8571  -28.9548   20.1125 C   0  0  0  0  0  0
  -22.7444  -29.4657   22.4951 C   0  0  0  0  0  0
  -18.0278  -28.1400   22.8493 C   0  0  0  0  0  0
  -24.1487  -36.7305   23.2636 C   0  0  0  0  0  0
  -25.9501  -30.8116   21.3702 C   0  0  0  0  0  0
  -26.0249  -29.4437   20.7117 C   0  0  0  0  0  0
  -27.2122  -28.6614   20.7004 C   0  0  0  0  0  0
  -26.0257  -26.9142   19.5015 C   0  0  0  0  0  0
  -24.8551  -27.6916   19.5039 C   0  0  0  0  0  0
  -23.6247  -29.8305   20.1625 C   0  0  0  0  0  0
  -25.4109  -36.3098   24.0331 C   0  0  1  0  0  0
  -20.5879  -28.3698   23.1297 C   0  0  2  0  0  0
  -20.6775  -26.9424   22.5424 C   0  0  0  0  0  0
  -19.5752  -26.6402   21.5223 C   0  0  0  0  0  0
  -18.1925  -26.7953   22.1622 C   0  0  0  0  0  0
  -19.1530  -28.8863   23.2900 C   0  0  0  0  0  0
  -18.9456  -30.1464   23.8925 C   0  0  0  0  0  0
  -17.6456  -30.6600   24.0578 C   0  0  0  0  0  0
  -25.9043  -34.9464   23.5117 C   0  0  0  0  0  0
  -16.5349  -29.9104   23.6331 C   0  0  0  0  0  0
  -16.7268  -28.6520   23.0356 C   0  0  0  0  0  0
  -26.4493  -31.6594   25.0732 C   0  0  0  0  0  0
  -25.3741  -31.3720   26.1467 C   0  0  0  0  0  0
  -27.0319  -30.3021   24.6156 C   0  0  0  0  0  0
  -27.6067  -32.4314   25.7493 C   0  0  0  0  0  0
  -27.5584  -37.1803   24.8454 C   0  0  0  0  0  0
  -21.4164  -29.3055   22.3688 N   0  0  0  0  0  0
  -26.4286  -37.3789   23.9413 N   0  0  0  0  0  0
  -24.6804  -31.0701   22.1001 N   0  0  0  0  0  0
  -23.4182  -28.8186   23.3011 O   0  0  0  0  0  0
  -28.3458  -26.5455   20.1385 O   0  0  0  0  0  0
  -26.5611  -34.8921   22.4681 O   0  0  0  0  0  0
  -23.5395  -32.1411   23.7438 O   0  0  0  0  0  0
  -30.9882  -19.6223   19.1347 C   0  0  0  0  0  0
  -29.6748  -18.2512   20.6733 C   0  0  0  0  0  0
  -31.1346  -17.1949   19.0350 C   0  0  0  0  0  0
  -30.0278  -19.5506   20.1637 C   0  0  0  0  0  0
  -31.5106  -18.4611   18.5482 C   0  0  0  0  0  0
  -30.2534  -17.0476   20.1391 C   0  0  0  0  0  0
  -28.6999  -24.2307   19.2799 C   0  0  0  0  0  0
  -28.4775  -25.5730   19.1577 C   0  0  0  0  0  0
  -29.5443  -20.8506   20.7316 C   0  0  0  0  0  0
  -28.7461  -23.3433   18.0582 C   0  0  0  0  0  0
  -28.9008  -23.3426   20.5175 C   0  0  0  0  0  0
  -28.8470  -21.8956   18.5492 C   0  0  0  0  0  0
  -29.1451  -21.9475   19.9979 N   0  0  0  0  0  0
  -32.4091  -18.5715   17.4861 N   0  0  0  0  0  0
  -29.9377  -15.7117   20.6478 N   0  0  0  0  0  0
  -29.5552  -20.9765   22.0546 N   0  3  0  0  0  0
  -31.4622  -12.4293   19.1610 H   0  0  0  0  0  0
  -30.3079  -11.3555   19.9028 H   0  0  0  0  0  0
  -29.7570  -11.7418   17.4724 H   0  0  0  0  0  0
  -29.6606  -13.4638   17.7534 H   0  0  0  0  0  0
  -27.8459  -11.2946   18.8576 H   0  0  0  0  0  0
  -27.3716  -12.5846   17.7859 H   0  0  0  0  0  0
  -27.6621  -14.2555   19.5112 H   0  0  0  0  0  0
  -28.6796  -12.0842   21.4097 H   0  0  0  0  0  0
  -28.4539  -13.7668   21.8153 H   0  0  0  0  0  0
  -25.2762   -9.5695   22.4747 H   0  0  0  0  0  0
  -24.0013   -7.4642   22.7469 H   0  0  0  0  0  0
  -21.0845   -8.8749   19.8955 H   0  0  0  0  0  0
  -22.3676  -10.9659   19.6160 H   0  0  0  0  0  0
  -21.1998   -7.6147   23.9723 H   0  0  0  0  0  0
  -21.1487   -6.0518   25.9079 H   0  0  0  0  0  0
  -22.0596   -2.7612   23.2852 H   0  0  0  0  0  0
  -22.4084  -11.9880   22.4813 H   0  0  0  0  0  0
  -21.1086  -13.1231   22.2613 H   0  0  0  0  0  0
  -24.6511  -15.8423   20.5256 H   0  0  0  0  0  0
  -26.2690  -15.6375   20.0864 H   0  0  0  0  0  0
  -26.7158  -32.5490   23.1140 H   0  0  0  0  0  0
  -25.0048  -33.9757   25.0441 H   0  0  0  0  0  0
  -22.7047  -31.3109   21.4088 H   0  0  0  0  0  0
  -23.3753  -35.9632   23.3283 H   0  0  0  0  0  0
  -24.3588  -36.8944   22.2055 H   0  0  0  0  0  0
  -23.7230  -37.6496   23.6673 H   0  0  0  0  0  0
  -26.0717  -31.5781   20.6034 H   0  0  0  0  0  0
  -26.8340  -30.8613   21.9947 H   0  0  0  0  0  0
  -28.1103  -29.0308   21.1752 H   0  0  0  0  0  0
  -25.9676  -25.9354   19.0479 H   0  0  0  0  0  0
  -23.9555  -27.3040   19.0467 H   0  0  0  0  0  0
  -23.7441  -30.6088   19.4074 H   0  0  0  0  0  0
  -22.7454  -29.2601   19.8584 H   0  0  0  0  0  0
  -25.1292  -36.1953   25.0818 H   0  0  0  0  0  0
  -20.9976  -28.3284   24.1418 H   0  0  0  0  0  0
  -20.5686  -26.2310   23.3624 H   0  0  0  0  0  0
  -21.6641  -26.7476   22.1209 H   0  0  0  0  0  0
  -19.6915  -25.6312   21.1253 H   0  0  0  0  0  0
  -19.6698  -27.3217   20.6756 H   0  0  0  0  0  0
  -17.4204  -26.6723   21.4011 H   0  0  0  0  0  0
  -18.0307  -26.0090   22.9006 H   0  0  0  0  0  0
  -19.7926  -30.7282   24.2308 H   0  0  0  0  0  0
  -17.5006  -31.6285   24.5173 H   0  0  0  0  0  0
  -15.5353  -30.3020   23.7639 H   0  0  0  0  0  0
  -15.8664  -28.0851   22.7066 H   0  0  0  0  0  0
  -24.5919  -30.7067   25.7796 H   0  0  0  0  0  0
  -24.8932  -32.2883   26.4904 H   0  0  0  0  0  0
  -25.8075  -30.8890   27.0234 H   0  0  0  0  0  0
  -26.2877  -29.6783   24.1194 H   0  0  0  0  0  0
  -27.4033  -29.7266   25.4645 H   0  0  0  0  0  0
  -27.8739  -30.4307   23.9352 H   0  0  0  0  0  0
  -27.2693  -33.3602   26.2109 H   0  0  0  0  0  0
  -28.3861  -32.6898   25.0309 H   0  0  0  0  0  0
  -28.0763  -31.8419   26.5381 H   0  0  0  0  0  0
  -28.2587  -38.0118   24.7524 H   0  0  0  0  0  0
  -28.1100  -36.2651   24.6246 H   0  0  0  0  0  0
  -27.2313  -37.1401   25.8859 H   0  0  0  0  0  0
  -20.9328  -29.8779   21.6909 H   0  0  0  0  0  0
  -26.0172  -38.2858   24.1446 H   0  0  0  0  0  0
  -31.3359  -20.5872   18.7947 H   0  0  0  0  0  0
  -28.9745  -18.1848   21.4950 H   0  0  0  0  0  0
  -31.5512  -16.3321   18.5395 H   0  0  0  0  0  0
  -28.3520  -26.0146   18.1778 H   0  0  0  0  0  0
  -29.6097  -23.6035   17.4454 H   0  0  0  0  0  0
  -27.8519  -23.4876   17.4503 H   0  0  0  0  0  0
  -28.0118  -23.3748   21.1489 H   0  0  0  0  0  0
  -29.7519  -23.7061   21.0957 H   0  0  0  0  0  0
  -29.5777  -21.3608   17.9476 H   0  0  0  0  0  0
  -27.8918  -21.3864   18.4080 H   0  0  0  0  0  0
  -32.4363  -19.4406   16.9620 H   0  0  0  0  0  0
  -32.5598  -17.7583   16.8968 H   0  0  0  0  0  0
  -29.0140  -15.5800   21.0314 H   0  0  0  0  0  0
  -29.9083  -20.2183   22.6186 H   0  0  0  0  0  0
  -29.2116  -21.8002   22.5175 H   0  0  0  0  0  0
  1 25  1  0  0  0
  1 30  2  0  0  0
  1 85  1  0  0  0
  2  3  1  0  0  0
  2 25  1  0  0  0
  2 87  1  0  0  0
  2 88  1  0  0  0
  3  4  1  0  0  0
  3 89  1  0  0  0
  3 90  1  0  0  0
  4  5  1  0  0  0
  4 91  1  0  0  0
  4 92  1  0  0  0
  5  6  1  0  0  0
  5 26  1  0  0  0
  5 93  1  0  0  0
  6 25  1  0  0  0
  6 94  1  0  0  0
  6 95  1  0  0  0
  7  8  2  0  0  0
  7 26  1  0  0  0
  7 29  1  0  0  0
  8  9  1  0  0  0
  8 22  1  0  0  0
  9 10  1  0  0  0
  9 27  2  0  0  0
 10 11  2  0  0  0
 10 15  1  0  0  0
 11 12  1  0  0  0
 11 96  1  0  0  0
 12 13  2  0  0  0
 12 97  1  0  0  0
 13 14  1  0  0  0
 13 31  1  0  0  0
 14 15  2  0  0  0
 14 98  1  0  0  0
 15 99  1  0  0  0
 16 17  2  0  0  0
 16 21  1  0  0  0
 16 31  1  0  0  0
 17 18  1  0  0  0
 17100  1  0  0  0
 18 19  2  0  0  0
 18101  1  0  0  0
 19 20  1  0  0  0
 19 24  1  0  0  0
 20 21  2  0  0  0
 20102  1  0  0  0
 21 23  1  0  0  0
 22 28  1  0  0  0
 22 32  2  0  0  0
 26 27  1  0  0  0
 28103  1  0  0  0
 28104  1  0  0  0
 29105  1  0  0  0
 29106  1  0  0  0
 33 34  1  0  0  0
 33 66  1  0  0  0
 33 70  2  0  0  0
 34 36  1  0  0  0
 34 59  1  0  0  0
 34107  1  0  0  0
 35 44  2  0  0  0
 35 45  1  0  0  0
 35 68  1  0  0  0
 36 56  1  0  0  0
 36108  1  0  0  0
 37 39  1  0  0  0
 37 47  1  0  0  0
 37 66  1  0  0  0
 37109  1  0  0  0
 38 43  2  0  0  0
 38 46  1  0  0  0
 38 47  1  0  0  0
 39 64  1  0  0  0
 39 67  2  0  0  0
 40 52  1  0  0  0
 40 53  2  0  0  0
 40 58  1  0  0  0
 41110  1  0  0  0
 41111  1  0  0  0
 41112  1  0  0  0
 41 48  1  0  0  0
 42 43  1  0  0  0
 42 66  1  0  0  0
 42113  1  0  0  0
 42114  1  0  0  0
 43 44  1  0  0  0
 44115  1  0  0  0
 45 46  2  0  0  0
 45116  1  0  0  0
 46117  1  0  0  0
 47118  1  0  0  0
 47119  1  0  0  0
 48 56  1  0  0  0
 48 65  1  0  0  0
 48120  1  0  0  0
 49 50  1  0  0  0
 49 53  1  0  0  0
 49 64  1  0  0  0
 49121  1  0  0  0
 50 51  1  0  0  0
 50122  1  0  0  0
 50123  1  0  0  0
 51 52  1  0  0  0
 51124  1  0  0  0
 51125  1  0  0  0
 52126  1  0  0  0
 52127  1  0  0  0
 53 54  1  0  0  0
 54 55  2  0  0  0
 54128  1  0  0  0
 55 57  1  0  0  0
 55129  1  0  0  0
 56 69  2  0  0  0
 57 58  2  0  0  0
 57130  1  0  0  0
 58131  1  0  0  0
 59 60  1  0  0  0
 59 61  1  0  0  0
 59 62  1  0  0  0
 60132  1  0  0  0
 60133  1  0  0  0
 60134  1  0  0  0
 61135  1  0  0  0
 61136  1  0  0  0
 61137  1  0  0  0
 62138  1  0  0  0
 62139  1  0  0  0
 62140  1  0  0  0
 63 65  1  0  0  0
 63141  1  0  0  0
 63142  1  0  0  0
 63143  1  0  0  0
 64144  1  0  0  0
 65145  1  0  0  0
 68 78  1  0  0  0
 71 74  2  0  0  0
 71 75  1  0  0  0
 71146  1  0  0  0
 72 74  1  0  0  0
 72 76  2  0  0  0
 72147  1  0  0  0
 73 75  2  0  0  0
 73 76  1  0  0  0
 73148  1  0  0  0
 74 79  1  0  0  0
 75 84  1  0  0  0
 76 85  1  0  0  0
 77 78  2  0  0  0
 77 80  1  0  0  0
 77 81  1  0  0  0
 78149  1  0  0  0
 79 83  1  0  0  0
 79 86  2  0  0  0
 80 82  1  0  0  0
 80150  1  0  0  0
 80151  1  0  0  0
 81 83  1  0  0  0
 81152  1  0  0  0
 81153  1  0  0  0
 82 83  1  0  0  0
 82154  1  0  0  0
 82155  1  0  0  0
 84156  1  0  0  0
 84157  1  0  0  0
 85158  1  0  0  0
 86159  1  0  0  0
 86160  1  0  0  0
M  CHG  1  86   1
M  ISO  4   1 100  68 101  78 101  85 100
M  END
> <chiral flag>
0

> <version>
0

> <s_m_source_file>
/data/baiqing/PycharmProjects/Reinvent-master-3.2/result/LINK_invent/BTK/process_docking_weight1_custom_product_contain_oxygen_bond_distance_aromatic_linkinvent_7_9_3/rearranged_h_0148.sdf

> <i_m_source_file_index>
77

> <r_mmod_Potential_Energy-OPLS-2005>
-143.128570556641

> <r_mmod_Stretch_Energy-OPLS-2005>
61.5303611755371

> <r_mmod_Bend_Energy-OPLS-2005>
140.988159179688

> <r_mmod_Torsional_Energy-OPLS-2005>
262.379425048828

> <r_mmod_Improper_Torsional_Energy-OPLS-2005>
9.15755844116211

> <r_mmod_Van_der_Waal_Energy-OPLS-2005>
159.705535888672

> <r_mmod_Electrostatic_Energy-OPLS-2005>
-400.101501464844

> <r_mmod_Solvation_Energy-OPLS-2005>
-412.138916015625

> <b_mmod_Minimization_Converged-OPLS-2005>
0

> <r_mmod_RMS_Derivative-OPLS-2005>
1.304931640625

$$$$
77
                    3D
 Structure written by MMmdl.
163172  0  0  1  0            999 V2000
  -30.6697  -14.4934   20.5866 C   0  0  0  0  0  0
  -30.4378  -12.3241   19.4187 C   0  0  0  0  0  0
  -29.5011  -12.5161   18.2061 C   0  0  0  0  0  0
  -28.0205  -12.3713   18.6158 C   0  0  0  0  0  0
  -27.6661  -13.2009   19.8784 C   0  0  2  0  0  0
  -28.7071  -12.9584   20.9948 C   0  0  0  0  0  0
  -25.2617  -13.8154   20.5670 C   0  0  0  0  0  0
  -24.1856  -13.0442   20.9163 C   0  0  0  0  0  0
  -24.6393  -11.6901   20.8728 C   0  0  0  0  0  0
  -23.9042  -10.4295   21.0406 C   0  0  0  0  0  0
  -24.3604   -9.4213   21.9183 C   0  0  0  0  0  0
  -23.6283   -8.2247   22.0758 C   0  0  0  0  0  0
  -22.4267   -8.0283   21.3539 C   0  0  0  0  0  0
  -21.9893   -9.0254   20.4646 C   0  0  0  0  0  0
  -22.7213  -10.2138   20.3054 C   0  0  0  0  0  0
  -21.6854   -6.0729   22.5270 C   0  0  0  0  0  0
  -21.4017   -6.5632   23.8202 C   0  0  0  0  0  0
  -21.3658   -5.6787   24.9166 C   0  0  0  0  0  0
  -21.6047   -4.3051   24.7213 C   0  0  0  0  0  0
  -21.8823   -3.8139   23.4336 C   0  0  0  0  0  0
  -21.9195   -4.6956   22.3393 C   0  0  0  0  0  0
  -22.7880  -13.5252   21.1828 C   0  0  0  0  0  0
  -22.1665   -4.2142   21.0969 F   0  0  0  0  0  0
  -21.5626   -3.4531   25.7723 F   0  0  0  0  0  0
  -30.0413  -13.2893   20.4560 N   0  0  0  0  0  0
  -26.3044  -12.9305   20.3364 N   0  0  0  0  0  0
  -25.9317  -11.6467   20.5758 N   0  0  0  0  0  0
  -22.0509  -12.8259   22.0388 N   0  0  0  0  0  0
  -25.4360  -15.1872   20.4074 N   0  0  0  0  0  0
  -31.7681  -14.7352   20.0765 O   0  0  0  0  0  0
  -21.6642   -6.8875   21.4234 O   0  0  0  0  0  0
  -22.3564  -14.5559   20.6678 O   0  0  0  0  0  0
  -24.6168  -31.8658   23.2092 C   0  0  0  0  0  0
  -25.9052  -32.4814   23.8395 C   0  0  1  0  0  0
  -27.2427  -27.4187   20.0823 C   0  0  0  0  0  0
  -25.5897  -33.8614   24.2322 N   0  0  0  0  0  0
  -23.4062  -30.4895   21.5482 C   0  0  2  0  0  0
  -24.8535  -28.9523   20.1128 C   0  0  0  0  0  0
  -22.7422  -29.4645   22.4957 C   0  0  0  0  0  0
  -18.0279  -28.1376   22.8490 C   0  0  0  0  0  0
  -24.1483  -36.7314   23.2639 C   0  0  0  0  0  0
  -25.9375  -30.8235   21.3671 C   0  0  0  0  0  0
  -26.0136  -29.4562   20.7128 C   0  0  0  0  0  0
  -27.2051  -28.6921   20.7033 C   0  0  0  0  0  0
  -26.0532  -26.9237   19.4988 C   0  0  0  0  0  0
  -24.8676  -27.6839   19.5076 C   0  0  0  0  0  0
  -23.6176  -29.8233   20.1620 C   0  0  0  0  0  0
  -25.4106  -36.3110   24.0338 C   0  0  1  0  0  0
  -20.5872  -28.3667   23.1304 C   0  0  2  0  0  0
  -20.6767  -26.9399   22.5408 C   0  0  0  0  0  0
  -19.5744  -26.6380   21.5207 C   0  0  0  0  0  0
  -18.1927  -26.7922   22.1624 C   0  0  0  0  0  0
  -19.1531  -28.8837   23.2897 C   0  0  0  0  0  0
  -18.9459  -30.1442   23.8913 C   0  0  0  0  0  0
  -17.6460  -30.6579   24.0568 C   0  0  0  0  0  0
  -25.9034  -34.9472   23.5128 C   0  0  0  0  0  0
  -16.5349  -29.9086   23.6322 C   0  0  0  0  0  0
  -16.7269  -28.6501   23.0345 C   0  0  0  0  0  0
  -26.4474  -31.6604   25.0730 C   0  0  0  0  0  0
  -25.3741  -31.3726   26.1484 C   0  0  0  0  0  0
  -27.0307  -30.3044   24.6127 C   0  0  0  0  0  0
  -27.6055  -32.4324   25.7480 C   0  0  0  0  0  0
  -27.5582  -37.1811   24.8464 C   0  0  0  0  0  0
  -21.4147  -29.3031   22.3703 N   0  0  0  0  0  0
  -26.4292  -37.3794   23.9411 N   0  0  0  0  0  0
  -24.6715  -31.0741   22.1002 N   0  0  0  0  0  0
  -23.4182  -28.8186   23.3009 O   0  0  0  0  0  0
  -28.4173  -26.6841   20.1168 O   0  0  0  0  0  0
  -26.5595  -34.8925   22.4689 O   0  0  0  0  0  0
  -23.5354  -32.1418   23.7472 O   0  0  0  0  0  0
  -30.4684  -19.0663   20.2996 C   0  0  0  0  0  0
  -28.4147  -18.7946   21.5556 C   0  0  0  0  0  0
  -30.7245  -17.6714   20.4193 C   0  0  0  0  0  0
  -28.6690  -17.4119   21.6790 C   0  0  0  0  0  0
  -29.3005  -19.6463   20.8567 C   0  0  0  0  0  0
  -29.8188  -16.8226   21.1080 C   0  0  0  0  0  0
  -28.9570  -21.0949   20.7660 C   0  0  0  0  0  0
  -28.7026  -22.1675   17.2433 C   0  0  0  0  0  0
  -27.6363  -22.9626   17.9941 C   0  0  0  0  0  0
  -29.2522  -21.2104   18.3012 C   0  0  0  0  0  0
  -28.2382  -23.1443   19.3992 C   0  0  2  0  0  0
  -29.2304  -24.3498   19.4951 C   0  0  0  0  0  0
  -28.7309  -25.7679   19.0501 C   0  0  0  0  0  0
  -28.8899  -21.8068   19.6059 N   0  0  0  0  0  0
  -29.9611  -15.4065   21.2818 N   0  0  0  0  0  0
  -28.6329  -21.7196   21.8951 N   0  3  0  0  0  0
  -31.4790  -12.4474   19.1153 H   0  0  0  0  0  0
  -30.3613  -11.3072   19.8067 H   0  0  0  0  0  0
  -29.7425  -11.7914   17.4266 H   0  0  0  0  0  0
  -29.6650  -13.5021   17.7687 H   0  0  0  0  0  0
  -27.8289  -11.3144   18.8012 H   0  0  0  0  0  0
  -27.3728  -12.6558   17.7856 H   0  0  0  0  0  0
  -27.7154  -14.2519   19.5938 H   0  0  0  0  0  0
  -28.6906  -11.9122   21.3037 H   0  0  0  0  0  0
  -28.4515  -13.5203   21.8940 H   0  0  0  0  0  0
  -25.2760   -9.5686   22.4741 H   0  0  0  0  0  0
  -23.9989   -7.4643   22.7482 H   0  0  0  0  0  0
  -21.0818   -8.8774   19.8954 H   0  0  0  0  0  0
  -22.3680  -10.9675   19.6157 H   0  0  0  0  0  0
  -21.2016   -7.6143   23.9700 H   0  0  0  0  0  0
  -21.1475   -6.0519   25.9066 H   0  0  0  0  0  0
  -22.0607   -2.7599   23.2841 H   0  0  0  0  0  0
  -22.4110  -11.9914   22.4776 H   0  0  0  0  0  0
  -21.1127  -13.1296   22.2579 H   0  0  0  0  0  0
  -24.6686  -15.8437   20.5032 H   0  0  0  0  0  0
  -26.2784  -15.6161   20.0458 H   0  0  0  0  0  0
  -26.7123  -32.5526   23.1159 H   0  0  0  0  0  0
  -25.0055  -33.9770   25.0472 H   0  0  0  0  0  0
  -22.6963  -31.3074   21.4079 H   0  0  0  0  0  0
  -23.3738  -35.9653   23.3307 H   0  0  0  0  0  0
  -24.3577  -36.8924   22.2053 H   0  0  0  0  0  0
  -23.7237  -37.6522   23.6647 H   0  0  0  0  0  0
  -26.0546  -31.5893   20.5990 H   0  0  0  0  0  0
  -26.8237  -30.8759   21.9879 H   0  0  0  0  0  0
  -28.0996  -29.0767   21.1733 H   0  0  0  0  0  0
  -26.0139  -25.9394   19.0569 H   0  0  0  0  0  0
  -23.9707  -27.2832   19.0548 H   0  0  0  0  0  0
  -23.7334  -30.6004   19.4055 H   0  0  0  0  0  0
  -22.7404  -29.2482   19.8597 H   0  0  0  0  0  0
  -25.1281  -36.1977   25.0830 H   0  0  0  0  0  0
  -20.9973  -28.3238   24.1422 H   0  0  0  0  0  0
  -20.5666  -26.2278   23.3600 H   0  0  0  0  0  0
  -21.6639  -26.7435   22.1206 H   0  0  0  0  0  0
  -19.6905  -25.6295   21.1226 H   0  0  0  0  0  0
  -19.6681  -27.3199   20.6745 H   0  0  0  0  0  0
  -17.4195  -26.6671   21.4031 H   0  0  0  0  0  0
  -18.0331  -26.0059   22.9016 H   0  0  0  0  0  0
  -19.7937  -30.7253   24.2292 H   0  0  0  0  0  0
  -17.5016  -31.6261   24.5167 H   0  0  0  0  0  0
  -15.5352  -30.2996   23.7630 H   0  0  0  0  0  0
  -15.8672  -28.0824   22.7050 H   0  0  0  0  0  0
  -24.5883  -30.7111   25.7821 H   0  0  0  0  0  0
  -24.8975  -32.2895   26.4963 H   0  0  0  0  0  0
  -25.8087  -30.8859   27.0223 H   0  0  0  0  0  0
  -26.2860  -29.6797   24.1181 H   0  0  0  0  0  0
  -27.4071  -29.7291   25.4595 H   0  0  0  0  0  0
  -27.8697  -30.4358   23.9290 H   0  0  0  0  0  0
  -27.2683  -33.3614   26.2089 H   0  0  0  0  0  0
  -28.3842  -32.6903   25.0287 H   0  0  0  0  0  0
  -28.0751  -31.8434   26.5367 H   0  0  0  0  0  0
  -28.2605  -38.0105   24.7507 H   0  0  0  0  0  0
  -28.1071  -36.2635   24.6284 H   0  0  0  0  0  0
  -27.2302  -37.1463   25.8868 H   0  0  0  0  0  0
  -20.9307  -29.8767   21.6937 H   0  0  0  0  0  0
  -26.0180  -38.2873   24.1408 H   0  0  0  0  0  0
  -31.1867  -19.6885   19.7843 H   0  0  0  0  0  0
  -27.5133  -19.1980   21.9954 H   0  0  0  0  0  0
  -31.6263  -17.2707   19.9794 H   0  0  0  0  0  0
  -27.9538  -16.8035   22.2148 H   0  0  0  0  0  0
  -29.4956  -22.8221   16.8787 H   0  0  0  0  0  0
  -28.2897  -21.6400   16.3835 H   0  0  0  0  0  0
  -26.7163  -22.3805   18.0678 H   0  0  0  0  0  0
  -27.3792  -23.8791   17.4697 H   0  0  0  0  0  0
  -30.3300  -21.0843   18.1929 H   0  0  0  0  0  0
  -28.7849  -20.2300   18.1913 H   0  0  0  0  0  0
  -27.4203  -23.2983   20.1068 H   0  0  0  0  0  0
  -30.1057  -24.1072   18.8924 H   0  0  0  0  0  0
  -29.6106  -24.4234   20.5140 H   0  0  0  0  0  0
  -27.9781  -25.7274   18.2698 H   0  0  0  0  0  0
  -29.5715  -26.2420   18.5426 H   0  0  0  0  0  0
  -29.1949  -14.9788   21.7766 H   0  0  0  0  0  0
  -28.7068  -21.2156   22.7660 H   0  0  0  0  0  0
  -28.4351  -22.7041   21.9239 H   0  0  0  0  0  0
  1 25  1  0  0  0
  1 30  2  0  0  0
  1 85  1  0  0  0
  2  3  1  0  0  0
  2 25  1  0  0  0
  2 87  1  0  0  0
  2 88  1  0  0  0
  3  4  1  0  0  0
  3 89  1  0  0  0
  3 90  1  0  0  0
  4  5  1  0  0  0
  4 91  1  0  0  0
  4 92  1  0  0  0
  5  6  1  0  0  0
  5 26  1  0  0  0
  5 93  1  0  0  0
  6 25  1  0  0  0
  6 94  1  0  0  0
  6 95  1  0  0  0
  7  8  2  0  0  0
  7 26  1  0  0  0
  7 29  1  0  0  0
  8  9  1  0  0  0
  8 22  1  0  0  0
  9 10  1  0  0  0
  9 27  2  0  0  0
 10 11  2  0  0  0
 10 15  1  0  0  0
 11 12  1  0  0  0
 11 96  1  0  0  0
 12 13  2  0  0  0
 12 97  1  0  0  0
 13 14  1  0  0  0
 13 31  1  0  0  0
 14 15  2  0  0  0
 14 98  1  0  0  0
 15 99  1  0  0  0
 16 17  2  0  0  0
 16 21  1  0  0  0
 16 31  1  0  0  0
 17 18  1  0  0  0
 17100  1  0  0  0
 18 19  2  0  0  0
 18101  1  0  0  0
 19 20  1  0  0  0
 19 24  1  0  0  0
 20 21  2  0  0  0
 20102  1  0  0  0
 21 23  1  0  0  0
 22 28  1  0  0  0
 22 32  2  0  0  0
 26 27  1  0  0  0
 28103  1  0  0  0
 28104  1  0  0  0
 29105  1  0  0  0
 29106  1  0  0  0
 33 34  1  0  0  0
 33 66  1  0  0  0
 33 70  2  0  0  0
 34 36  1  0  0  0
 34 59  1  0  0  0
 34107  1  0  0  0
 35 44  2  0  0  0
 35 45  1  0  0  0
 35 68  1  0  0  0
 36 56  1  0  0  0
 36108  1  0  0  0
 37 39  1  0  0  0
 37 47  1  0  0  0
 37 66  1  0  0  0
 37109  1  0  0  0
 38 43  2  0  0  0
 38 46  1  0  0  0
 38 47  1  0  0  0
 39 64  1  0  0  0
 39 67  2  0  0  0
 40 52  1  0  0  0
 40 53  2  0  0  0
 40 58  1  0  0  0
 41110  1  0  0  0
 41111  1  0  0  0
 41112  1  0  0  0
 41 48  1  0  0  0
 42 43  1  0  0  0
 42 66  1  0  0  0
 42113  1  0  0  0
 42114  1  0  0  0
 43 44  1  0  0  0
 44115  1  0  0  0
 45 46  2  0  0  0
 45116  1  0  0  0
 46117  1  0  0  0
 47118  1  0  0  0
 47119  1  0  0  0
 48 56  1  0  0  0
 48 65  1  0  0  0
 48120  1  0  0  0
 49 50  1  0  0  0
 49 53  1  0  0  0
 49 64  1  0  0  0
 49121  1  0  0  0
 50 51  1  0  0  0
 50122  1  0  0  0
 50123  1  0  0  0
 51 52  1  0  0  0
 51124  1  0  0  0
 51125  1  0  0  0
 52126  1  0  0  0
 52127  1  0  0  0
 53 54  1  0  0  0
 54 55  2  0  0  0
 54128  1  0  0  0
 55 57  1  0  0  0
 55129  1  0  0  0
 56 69  2  0  0  0
 57 58  2  0  0  0
 57130  1  0  0  0
 58131  1  0  0  0
 59 60  1  0  0  0
 59 61  1  0  0  0
 59 62  1  0  0  0
 60132  1  0  0  0
 60133  1  0  0  0
 60134  1  0  0  0
 61135  1  0  0  0
 61136  1  0  0  0
 61137  1  0  0  0
 62138  1  0  0  0
 62139  1  0  0  0
 62140  1  0  0  0
 63 65  1  0  0  0
 63141  1  0  0  0
 63142  1  0  0  0
 63143  1  0  0  0
 64144  1  0  0  0
 65145  1  0  0  0
 68 83  1  0  0  0
 71 73  2  0  0  0
 71 75  1  0  0  0
 71146  1  0  0  0
 72 74  1  0  0  0
 72 75  2  0  0  0
 72147  1  0  0  0
 73 76  1  0  0  0
 73148  1  0  0  0
 74 76  2  0  0  0
 74149  1  0  0  0
 75 77  1  0  0  0
 76 85  1  0  0  0
 77 84  1  0  0  0
 77 86  2  0  0  0
 78 79  1  0  0  0
 78 80  1  0  0  0
 78150  1  0  0  0
 78151  1  0  0  0
 79 81  1  0  0  0
 79152  1  0  0  0
 79153  1  0  0  0
 80 84  1  0  0  0
 80154  1  0  0  0
 80155  1  0  0  0
 81 82  1  0  0  0
 81 84  1  0  0  0
 81156  1  0  0  0
 82 83  1  0  0  0
 82157  1  0  0  0
 82158  1  0  0  0
 83159  1  0  0  0
 83160  1  0  0  0
 85161  1  0  0  0
 86162  1  0  0  0
 86163  1  0  0  0
M  CHG  1  86   1
M  ISO  4   1 100  68 101  83 101  85 100
M  END
> <chiral flag>
0

> <version>
0

> <s_m_source_file>
/data/baiqing/PycharmProjects/Reinvent-master-3.2/result/LINK_invent/BTK/process_docking_weight1_custom_product_contain_oxygen_bond_distance_aromatic_linkinvent_7_9_3/rearranged_h_0148.sdf

> <i_m_source_file_index>
78

> <r_mmod_Potential_Energy-OPLS-2005>
-68.4007263183594

> <r_mmod_Stretch_Energy-OPLS-2005>
47.2682151794434

> <r_mmod_Bend_Energy-OPLS-2005>
158.475509643555

> <r_mmod_Torsional_Energy-OPLS-2005>
305.419586181641

> <r_mmod_Improper_Torsional_Energy-OPLS-2005>
4.56943464279175

> <r_mmod_Van_der_Waal_Energy-OPLS-2005>
153.554473876953

> <r_mmod_Electrostatic_Energy-OPLS-2005>
-357.584625244141

> <r_mmod_Solvation_Energy-OPLS-2005>
-394.978393554688

> <b_mmod_Minimization_Converged-OPLS-2005>
0

> <r_mmod_RMS_Derivative-OPLS-2005>
1.33390295505524

$$$$
78
                    3D
 Structure written by MMmdl.
161170  0  0  1  0            999 V2000
  -30.5950  -14.6446   20.5064 C   0  0  0  0  0  0
  -30.4415  -12.3945   19.4486 C   0  0  0  0  0  0
  -29.5085  -12.5157   18.2223 C   0  0  0  0  0  0
  -28.0286  -12.3559   18.6288 C   0  0  0  0  0  0
  -27.6538  -13.2122   19.8671 C   0  0  2  0  0  0
  -28.6989  -13.0430   20.9934 C   0  0  0  0  0  0
  -25.2567  -13.8151   20.5690 C   0  0  0  0  0  0
  -24.1827  -13.0429   20.9179 C   0  0  0  0  0  0
  -24.6391  -11.6895   20.8736 C   0  0  0  0  0  0
  -23.9058  -10.4290   21.0410 C   0  0  0  0  0  0
  -24.3609   -9.4202   21.9190 C   0  0  0  0  0  0
  -23.6280   -8.2242   22.0764 C   0  0  0  0  0  0
  -22.4257   -8.0288   21.3556 C   0  0  0  0  0  0
  -21.9891   -9.0261   20.4660 C   0  0  0  0  0  0
  -22.7226  -10.2140   20.3062 C   0  0  0  0  0  0
  -21.6849   -6.0735   22.5282 C   0  0  0  0  0  0
  -21.4007   -6.5636   23.8216 C   0  0  0  0  0  0
  -21.3661   -5.6790   24.9176 C   0  0  0  0  0  0
  -21.6045   -4.3055   24.7223 C   0  0  0  0  0  0
  -21.8817   -3.8146   23.4344 C   0  0  0  0  0  0
  -21.9183   -4.6962   22.3399 C   0  0  0  0  0  0
  -22.7854  -13.5230   21.1849 C   0  0  0  0  0  0
  -22.1658   -4.2148   21.0979 F   0  0  0  0  0  0
  -21.5629   -3.4541   25.7735 F   0  0  0  0  0  0
  -30.0125  -13.4047   20.4360 N   0  0  0  0  0  0
  -26.2989  -12.9321   20.3321 N   0  0  0  0  0  0
  -25.9318  -11.6482   20.5753 N   0  0  0  0  0  0
  -22.0490  -12.8226   22.0398 N   0  0  0  0  0  0
  -25.4286  -15.1877   20.4133 N   0  0  0  0  0  0
  -31.7523  -14.8333   20.1179 O   0  0  0  0  0  0
  -21.6629   -6.8880   21.4246 O   0  0  0  0  0  0
  -22.3548  -14.5547   20.6700 O   0  0  0  0  0  0
  -24.6263  -31.8585   23.2012 C   0  0  0  0  0  0
  -25.9112  -32.4767   23.8342 C   0  0  1  0  0  0
  -27.2298  -27.3100   20.1123 C   0  0  0  0  0  0
  -25.5931  -33.8570   24.2279 N   0  0  0  0  0  0
  -23.4199  -30.4810   21.5432 C   0  0  2  0  0  0
  -24.8650  -28.9301   20.1128 C   0  0  0  0  0  0
  -22.7473  -29.4620   22.4929 C   0  0  0  0  0  0
  -18.0288  -28.1383   22.8482 C   0  0  0  0  0  0
  -24.1487  -36.7289   23.2639 C   0  0  0  0  0  0
  -25.9606  -30.7855   21.3718 C   0  0  0  0  0  0
  -26.0326  -29.4108   20.7157 C   0  0  0  0  0  0
  -27.2131  -28.6115   20.7053 C   0  0  0  0  0  0
  -26.0302  -26.8732   19.5024 C   0  0  0  0  0  0
  -24.8660  -27.6669   19.5011 C   0  0  0  0  0  0
  -23.6342  -29.8121   20.1593 C   0  0  0  0  0  0
  -25.4114  -36.3085   24.0332 C   0  0  1  0  0  0
  -20.5888  -28.3690   23.1277 C   0  0  2  0  0  0
  -20.6778  -26.9412   22.5407 C   0  0  0  0  0  0
  -19.5759  -26.6385   21.5208 C   0  0  0  0  0  0
  -18.1935  -26.7926   22.1619 C   0  0  0  0  0  0
  -19.1540  -28.8853   23.2871 C   0  0  0  0  0  0
  -18.9465  -30.1451   23.8893 C   0  0  0  0  0  0
  -17.6467  -30.6585   24.0562 C   0  0  0  0  0  0
  -25.9053  -34.9450   23.5107 C   0  0  0  0  0  0
  -16.5358  -29.9085   23.6329 C   0  0  0  0  0  0
  -16.7275  -28.6501   23.0352 C   0  0  0  0  0  0
  -26.4497  -31.6576   25.0715 C   0  0  0  0  0  0
  -25.3728  -31.3715   26.1445 C   0  0  0  0  0  0
  -27.0334  -30.2998   24.6167 C   0  0  0  0  0  0
  -27.6058  -32.4303   25.7496 C   0  0  0  0  0  0
  -27.5576  -37.1803   24.8470 C   0  0  0  0  0  0
  -21.4191  -29.3040   22.3668 N   0  0  0  0  0  0
  -26.4290  -37.3779   23.9414 N   0  0  0  0  0  0
  -24.6878  -31.0586   22.0957 N   0  0  0  0  0  0
  -23.4198  -28.8168   23.3017 O   0  0  0  0  0  0
  -28.3863  -26.5133   20.1657 O   0  0  0  0  0  0
  -26.5611  -34.8920   22.4670 O   0  0  0  0  0  0
  -23.5427  -32.1392   23.7335 O   0  0  0  0  0  0
  -28.6043  -17.8174   21.2528 C   0  0  0  0  0  0
  -30.8382  -17.9129   20.1996 C   0  0  0  0  0  0
  -28.6264  -19.2259   21.1552 C   0  0  0  0  0  0
  -29.6764  -20.0125   20.6196 C   0  0  0  0  0  0
  -29.7629  -17.1219   20.7643 C   0  0  0  0  0  0
  -30.8189  -19.3576   20.1171 C   0  0  0  0  0  0
  -27.9216  -20.5031   21.4871 C   0  0  0  0  0  0
  -27.2955  -23.8119   21.4750 C   0  0  0  0  0  0
  -29.7639  -24.2459   21.6616 C   0  0  0  0  0  0
  -28.9556  -22.4698   20.0236 C   0  0  0  0  0  0
  -28.4769  -25.1193   19.6567 C   0  0  0  0  0  0
  -28.6188  -23.9015   20.6907 C   0  0  0  0  0  0
  -29.1018  -21.2923   20.9449 N   0  0  0  0  0  0
  -31.8973  -20.0947   19.6317 N   0  0  0  0  0  0
  -29.7522  -15.6587   20.8884 N   0  0  0  0  0  0
  -31.4821  -12.5282   19.1501 H   0  0  0  0  0  0
  -30.3817  -11.3943   19.8801 H   0  0  0  0  0  0
  -29.7730  -11.7683   17.4737 H   0  0  0  0  0  0
  -29.6533  -13.4877   17.7479 H   0  0  0  0  0  0
  -27.8555  -11.3019   18.8455 H   0  0  0  0  0  0
  -27.3786  -12.6030   17.7883 H   0  0  0  0  0  0
  -27.6764  -14.2521   19.5411 H   0  0  0  0  0  0
  -28.7153  -12.0097   21.3446 H   0  0  0  0  0  0
  -28.4449  -13.6447   21.8673 H   0  0  0  0  0  0
  -25.2758   -9.5664   22.4761 H   0  0  0  0  0  0
  -23.9989   -7.4612   22.7462 H   0  0  0  0  0  0
  -21.0829   -8.8766   19.8955 H   0  0  0  0  0  0
  -22.3682  -10.9675   19.6166 H   0  0  0  0  0  0
  -21.2003   -7.6145   23.9716 H   0  0  0  0  0  0
  -21.1492   -6.0527   25.9078 H   0  0  0  0  0  0
  -22.0594   -2.7608   23.2841 H   0  0  0  0  0  0
  -22.4095  -11.9877   22.4786 H   0  0  0  0  0  0
  -21.1111  -13.1275   22.2597 H   0  0  0  0  0  0
  -24.6583  -15.8392   20.5160 H   0  0  0  0  0  0
  -26.2690  -15.6244   20.0581 H   0  0  0  0  0  0
  -26.7179  -32.5433   23.1084 H   0  0  0  0  0  0
  -25.0102  -33.9711   25.0440 H   0  0  0  0  0  0
  -22.7136  -31.3014   21.3979 H   0  0  0  0  0  0
  -23.3752  -35.9617   23.3309 H   0  0  0  0  0  0
  -24.3572  -36.8903   22.2050 H   0  0  0  0  0  0
  -23.7239  -37.6496   23.6651 H   0  0  0  0  0  0
  -26.0933  -31.5465   20.6016 H   0  0  0  0  0  0
  -26.8409  -30.8333   22.0017 H   0  0  0  0  0  0
  -28.1127  -28.9784   21.1791 H   0  0  0  0  0  0
  -25.9440  -25.9057   19.0355 H   0  0  0  0  0  0
  -23.9674  -27.2874   19.0354 H   0  0  0  0  0  0
  -23.7558  -30.5866   19.4008 H   0  0  0  0  0  0
  -22.7521  -29.2437   19.8583 H   0  0  0  0  0  0
  -25.1293  -36.1931   25.0821 H   0  0  0  0  0  0
  -20.9983  -28.3268   24.1400 H   0  0  0  0  0  0
  -20.5682  -26.2297   23.3607 H   0  0  0  0  0  0
  -21.6643  -26.7443   22.1200 H   0  0  0  0  0  0
  -19.6923  -25.6298   21.1234 H   0  0  0  0  0  0
  -19.6697  -27.3196   20.6741 H   0  0  0  0  0  0
  -17.4204  -26.6666   21.4020 H   0  0  0  0  0  0
  -18.0336  -26.0064   22.9012 H   0  0  0  0  0  0
  -19.7939  -30.7262   24.2263 H   0  0  0  0  0  0
  -17.5025  -31.6268   24.5162 H   0  0  0  0  0  0
  -15.5361  -30.2996   23.7652 H   0  0  0  0  0  0
  -15.8670  -28.0826   22.7079 H   0  0  0  0  0  0
  -24.5906  -30.7059   25.7781 H   0  0  0  0  0  0
  -24.8916  -32.2882   26.4864 H   0  0  0  0  0  0
  -25.8056  -30.8900   27.0223 H   0  0  0  0  0  0
  -26.2921  -29.6782   24.1139 H   0  0  0  0  0  0
  -27.3978  -29.7221   25.4674 H   0  0  0  0  0  0
  -27.8808  -30.4289   23.9435 H   0  0  0  0  0  0
  -27.2670  -33.3598   26.2083 H   0  0  0  0  0  0
  -28.3872  -32.6869   25.0331 H   0  0  0  0  0  0
  -28.0723  -31.8415   26.5408 H   0  0  0  0  0  0
  -28.2602  -38.0093   24.7507 H   0  0  0  0  0  0
  -28.1061  -36.2624   24.6304 H   0  0  0  0  0  0
  -27.2288  -37.1464   25.8870 H   0  0  0  0  0  0
  -20.9364  -29.8755   21.6873 H   0  0  0  0  0  0
  -26.0175  -38.2853   24.1415 H   0  0  0  0  0  0
  -27.7640  -17.3004   21.6956 H   0  0  0  0  0  0
  -31.7173  -17.3993   19.8397 H   0  0  0  0  0  0
  -27.7735  -20.6383   22.5595 H   0  0  0  0  0  0
  -26.9999  -20.6460   20.9211 H   0  0  0  0  0  0
  -26.4752  -23.5001   20.8286 H   0  0  0  0  0  0
  -27.0247  -24.7762   21.9066 H   0  0  0  0  0  0
  -27.3587  -23.1024   22.2998 H   0  0  0  0  0  0
  -29.8879  -23.4741   22.4215 H   0  0  0  0  0  0
  -29.5834  -25.1870   22.1806 H   0  0  0  0  0  0
  -30.7131  -24.3379   21.1334 H   0  0  0  0  0  0
  -29.8755  -22.5576   19.4435 H   0  0  0  0  0  0
  -28.1773  -22.2262   19.2987 H   0  0  0  0  0  0
  -27.7063  -24.8845   18.9275 H   0  0  0  0  0  0
  -29.3861  -25.1170   19.0550 H   0  0  0  0  0  0
  -31.8995  -21.0748   19.8982 H   0  0  0  0  0  0
  -32.8163  -19.6786   19.7401 H   0  0  0  0  0  0
  -28.8805  -15.2890   21.2335 H   0  0  0  0  0  0
  1 25  1  0  0  0
  1 30  2  0  0  0
  1 85  1  0  0  0
  2  3  1  0  0  0
  2 25  1  0  0  0
  2 86  1  0  0  0
  2 87  1  0  0  0
  3  4  1  0  0  0
  3 88  1  0  0  0
  3 89  1  0  0  0
  4  5  1  0  0  0
  4 90  1  0  0  0
  4 91  1  0  0  0
  5  6  1  0  0  0
  5 26  1  0  0  0
  5 92  1  0  0  0
  6 25  1  0  0  0
  6 93  1  0  0  0
  6 94  1  0  0  0
  7  8  2  0  0  0
  7 26  1  0  0  0
  7 29  1  0  0  0
  8  9  1  0  0  0
  8 22  1  0  0  0
  9 10  1  0  0  0
  9 27  2  0  0  0
 10 11  2  0  0  0
 10 15  1  0  0  0
 11 12  1  0  0  0
 11 95  1  0  0  0
 12 13  2  0  0  0
 12 96  1  0  0  0
 13 14  1  0  0  0
 13 31  1  0  0  0
 14 15  2  0  0  0
 14 97  1  0  0  0
 15 98  1  0  0  0
 16 17  2  0  0  0
 16 21  1  0  0  0
 16 31  1  0  0  0
 17 18  1  0  0  0
 17 99  1  0  0  0
 18 19  2  0  0  0
 18100  1  0  0  0
 19 20  1  0  0  0
 19 24  1  0  0  0
 20 21  2  0  0  0
 20101  1  0  0  0
 21 23  1  0  0  0
 22 28  1  0  0  0
 22 32  2  0  0  0
 26 27  1  0  0  0
 28102  1  0  0  0
 28103  1  0  0  0
 29104  1  0  0  0
 29105  1  0  0  0
 33 34  1  0  0  0
 33 66  1  0  0  0
 33 70  2  0  0  0
 34 36  1  0  0  0
 34 59  1  0  0  0
 34106  1  0  0  0
 35 44  2  0  0  0
 35 45  1  0  0  0
 35 68  1  0  0  0
 36 56  1  0  0  0
 36107  1  0  0  0
 37 39  1  0  0  0
 37 47  1  0  0  0
 37 66  1  0  0  0
 37108  1  0  0  0
 38 43  2  0  0  0
 38 46  1  0  0  0
 38 47  1  0  0  0
 39 64  1  0  0  0
 39 67  2  0  0  0
 40 52  1  0  0  0
 40 53  2  0  0  0
 40 58  1  0  0  0
 41109  1  0  0  0
 41110  1  0  0  0
 41111  1  0  0  0
 41 48  1  0  0  0
 42 43  1  0  0  0
 42 66  1  0  0  0
 42112  1  0  0  0
 42113  1  0  0  0
 43 44  1  0  0  0
 44114  1  0  0  0
 45 46  2  0  0  0
 45115  1  0  0  0
 46116  1  0  0  0
 47117  1  0  0  0
 47118  1  0  0  0
 48 56  1  0  0  0
 48 65  1  0  0  0
 48119  1  0  0  0
 49 50  1  0  0  0
 49 53  1  0  0  0
 49 64  1  0  0  0
 49120  1  0  0  0
 50 51  1  0  0  0
 50121  1  0  0  0
 50122  1  0  0  0
 51 52  1  0  0  0
 51123  1  0  0  0
 51124  1  0  0  0
 52125  1  0  0  0
 52126  1  0  0  0
 53 54  1  0  0  0
 54 55  2  0  0  0
 54127  1  0  0  0
 55 57  1  0  0  0
 55128  1  0  0  0
 56 69  2  0  0  0
 57 58  2  0  0  0
 57129  1  0  0  0
 58130  1  0  0  0
 59 60  1  0  0  0
 59 61  1  0  0  0
 59 62  1  0  0  0
 60131  1  0  0  0
 60132  1  0  0  0
 60133  1  0  0  0
 61134  1  0  0  0
 61135  1  0  0  0
 61136  1  0  0  0
 62137  1  0  0  0
 62138  1  0  0  0
 62139  1  0  0  0
 63 65  1  0  0  0
 63140  1  0  0  0
 63141  1  0  0  0
 63142  1  0  0  0
 64143  1  0  0  0
 65144  1  0  0  0
 68 81  1  0  0  0
 71 73  2  0  0  0
 71 75  1  0  0  0
 71145  1  0  0  0
 72 75  2  0  0  0
 72 76  1  0  0  0
 72146  1  0  0  0
 73 74  1  0  0  0
 73 77  1  0  0  0
 74 76  2  0  0  0
 74 83  1  0  0  0
 75 85  1  0  0  0
 76 84  1  0  0  0
 77 83  1  0  0  0
 77147  1  0  0  0
 77148  1  0  0  0
 78149  1  0  0  0
 78150  1  0  0  0
 78151  1  0  0  0
 78 82  1  0  0  0
 79 82  1  0  0  0
 79152  1  0  0  0
 79153  1  0  0  0
 79154  1  0  0  0
 80 82  1  0  0  0
 80 83  1  0  0  0
 80155  1  0  0  0
 80156  1  0  0  0
 81 82  1  0  0  0
 81157  1  0  0  0
 81158  1  0  0  0
 84159  1  0  0  0
 84160  1  0  0  0
 85161  1  0  0  0
M  ISO  4   1 100  68 101  81 101  85 100
M  END
> <chiral flag>
0

> <version>
0

> <s_m_source_file>
/data/baiqing/PycharmProjects/Reinvent-master-3.2/result/LINK_invent/BTK/process_docking_weight1_custom_product_contain_oxygen_bond_distance_aromatic_linkinvent_7_9_3/rearranged_h_0148.sdf

> <i_m_source_file_index>
79

> <r_mmod_Potential_Energy-OPLS-2005>
450.133056640625

> <r_mmod_Stretch_Energy-OPLS-2005>
110.313438415527

> <r_mmod_Bend_Energy-OPLS-2005>
524.796569824219

> <r_mmod_Torsional_Energy-OPLS-2005>
226.741241455078

> <r_mmod_Improper_Torsional_Energy-OPLS-2005>
14.0558891296387

> <r_mmod_Van_der_Waal_Energy-OPLS-2005>
132.715484619141

> <r_mmod_Electrostatic_Energy-OPLS-2005>
-383.674530029297

> <r_mmod_Solvation_Energy-OPLS-2005>
-222.972122192383

> <b_mmod_Minimization_Converged-OPLS-2005>
0

> <r_mmod_RMS_Derivative-OPLS-2005>
1.6013001203537

$$$$
79
                    3D
 Structure written by MMmdl.
172181  0  0  1  0            999 V2000
  -30.6624  -14.4854   20.5978 C   0  0  0  0  0  0
  -30.4431  -12.3234   19.3996 C   0  0  0  0  0  0
  -29.4969  -12.5240   18.1942 C   0  0  0  0  0  0
  -28.0145  -12.3815   18.6053 C   0  0  0  0  0  0
  -27.6699  -13.1969   19.8818 C   0  0  2  0  0  0
  -28.7162  -12.9177   20.9845 C   0  0  0  0  0  0
  -25.2639  -13.8135   20.5672 C   0  0  0  0  0  0
  -24.1860  -13.0422   20.9160 C   0  0  0  0  0  0
  -24.6406  -11.6898   20.8721 C   0  0  0  0  0  0
  -23.9060  -10.4294   21.0376 C   0  0  0  0  0  0
  -24.3616   -9.4204   21.9160 C   0  0  0  0  0  0
  -23.6289   -8.2240   22.0752 C   0  0  0  0  0  0
  -22.4272   -8.0287   21.3553 C   0  0  0  0  0  0
  -21.9903   -9.0248   20.4651 C   0  0  0  0  0  0
  -22.7226  -10.2123   20.3034 C   0  0  0  0  0  0
  -21.6861   -6.0728   22.5289 C   0  0  0  0  0  0
  -21.4013   -6.5634   23.8212 C   0  0  0  0  0  0
  -21.3656   -5.6790   24.9176 C   0  0  0  0  0  0
  -21.6037   -4.3050   24.7231 C   0  0  0  0  0  0
  -21.8813   -3.8137   23.4355 C   0  0  0  0  0  0
  -21.9194   -4.6954   22.3407 C   0  0  0  0  0  0
  -22.7882  -13.5229   21.1820 C   0  0  0  0  0  0
  -22.1664   -4.2136   21.0978 F   0  0  0  0  0  0
  -21.5634   -3.4536   25.7742 F   0  0  0  0  0  0
  -30.0489  -13.2737   20.4483 N   0  0  0  0  0  0
  -26.3081  -12.9293   20.3405 N   0  0  0  0  0  0
  -25.9335  -11.6467   20.5772 N   0  0  0  0  0  0
  -22.0512  -12.8232   22.0386 N   0  0  0  0  0  0
  -25.4355  -15.1849   20.4077 N   0  0  0  0  0  0
  -31.7296  -14.7851   20.0527 O   0  0  0  0  0  0
  -21.6640   -6.8875   21.4260 O   0  0  0  0  0  0
  -22.3568  -14.5522   20.6652 O   0  0  0  0  0  0
  -24.6184  -31.8651   23.2102 C   0  0  0  0  0  0
  -25.9066  -32.4819   23.8393 C   0  0  1  0  0  0
  -27.2377  -27.4237   20.0893 C   0  0  0  0  0  0
  -25.5904  -33.8617   24.2317 N   0  0  0  0  0  0
  -23.4085  -30.4900   21.5492 C   0  0  2  0  0  0
  -24.8588  -28.9604   20.1079 C   0  0  0  0  0  0
  -22.7440  -29.4648   22.4981 C   0  0  0  0  0  0
  -18.0269  -28.1389   22.8493 C   0  0  0  0  0  0
  -24.1480  -36.7306   23.2636 C   0  0  0  0  0  0
  -25.9406  -30.8300   21.3634 C   0  0  0  0  0  0
  -26.0224  -29.4672   20.7023 C   0  0  0  0  0  0
  -27.2210  -28.7086   20.6872 C   0  0  0  0  0  0
  -26.0577  -26.9380   19.4886 C   0  0  0  0  0  0
  -24.8732  -27.6969   19.4937 C   0  0  0  0  0  0
  -23.6193  -29.8263   20.1624 C   0  0  0  0  0  0
  -25.4106  -36.3108   24.0334 C   0  0  1  0  0  0
  -20.5861  -28.3679   23.1318 C   0  0  2  0  0  0
  -20.6767  -26.9415   22.5422 C   0  0  0  0  0  0
  -19.5747  -26.6389   21.5222 C   0  0  0  0  0  0
  -18.1917  -26.7938   22.1628 C   0  0  0  0  0  0
  -19.1517  -28.8854   23.2900 C   0  0  0  0  0  0
  -18.9448  -30.1451   23.8924 C   0  0  0  0  0  0
  -17.6452  -30.6591   24.0571 C   0  0  0  0  0  0
  -25.9040  -34.9476   23.5121 C   0  0  0  0  0  0
  -16.5340  -29.9096   23.6332 C   0  0  0  0  0  0
  -16.7260  -28.6512   23.0355 C   0  0  0  0  0  0
  -26.4477  -31.6613   25.0733 C   0  0  0  0  0  0
  -25.3727  -31.3724   26.1468 C   0  0  0  0  0  0
  -27.0310  -30.3060   24.6115 C   0  0  0  0  0  0
  -27.6055  -32.4332   25.7483 C   0  0  0  0  0  0
  -27.5578  -37.1804   24.8464 C   0  0  0  0  0  0
  -21.4163  -29.3040   22.3729 N   0  0  0  0  0  0
  -26.4298  -37.3797   23.9405 N   0  0  0  0  0  0
  -24.6742  -31.0739   22.1005 N   0  0  0  0  0  0
  -23.4207  -28.8175   23.3013 O   0  0  0  0  0  0
  -28.3364  -26.5841   20.1503 O   0  0  0  0  0  0
  -26.5609  -34.8927   22.4684 O   0  0  0  0  0  0
  -23.5368  -32.1382   23.7500 O   0  0  0  0  0  0
  -29.3998  -19.4618   22.1233 C   0  0  0  0  0  0
  -29.1345  -17.1212   22.6837 C   0  0  0  0  0  0
  -30.3601  -17.7510   20.6664 C   0  0  0  0  0  0
  -28.8784  -18.4710   22.9703 C   0  0  0  0  0  0
  -30.1112  -19.1416   20.9471 C   0  0  0  0  0  0
  -29.8810  -16.7365   21.5535 C   0  0  0  0  0  0
  -28.1877  -25.5548   21.0661 C   0  0  0  0  0  0
  -28.7566  -24.3157   21.0896 C   0  0  0  0  0  0
  -29.7437  -23.7799   20.1083 C   0  0  0  0  0  0
  -26.7348  -18.1400   24.4325 C   0  0  0  0  0  0
  -26.7209  -19.5749   23.9628 C   0  0  0  0  0  0
  -28.0373  -18.8517   24.1489 C   0  0  0  0  0  0
  -29.3030  -21.1589   19.4964 C   0  0  0  0  0  0
  -30.5459  -20.3483   20.0610 C   0  0  2  0  0  0
  -29.3181  -22.6941   19.0618 C   0  0  2  0  0  0
  -29.9749  -15.3161   21.4022 N   0  0  0  0  0  0
  -28.3785  -23.4721   22.2489 N   0  3  0  0  0  0
  -31.4930  -19.9143   19.0150 N   0  3  0  0  0  0
  -30.1002  -22.9714   17.8367 N   0  3  0  0  0  0
  -30.9134  -24.1769   20.1303 O   0  0  0  0  0  0
  -31.4845  -12.4552   19.0998 H   0  0  0  0  0  0
  -30.3754  -11.3035   19.7787 H   0  0  0  0  0  0
  -29.7324  -11.8100   17.4028 H   0  0  0  0  0  0
  -29.6627  -13.5160   17.7707 H   0  0  0  0  0  0
  -27.8183  -11.3230   18.7791 H   0  0  0  0  0  0
  -27.3617  -12.6732   17.7818 H   0  0  0  0  0  0
  -27.7245  -14.2530   19.6187 H   0  0  0  0  0  0
  -28.7031  -11.8592   21.2481 H   0  0  0  0  0  0
  -28.4589  -13.4294   21.9128 H   0  0  0  0  0  0
  -25.2755   -9.5678   22.4737 H   0  0  0  0  0  0
  -23.9996   -7.4630   22.7468 H   0  0  0  0  0  0
  -21.0828   -8.8726   19.8970 H   0  0  0  0  0  0
  -22.3649  -10.9643   19.6135 H   0  0  0  0  0  0
  -21.2001   -7.6141   23.9722 H   0  0  0  0  0  0
  -21.1496   -6.0511   25.9077 H   0  0  0  0  0  0
  -22.0601   -2.7605   23.2852 H   0  0  0  0  0  0
  -22.4137  -11.9892   22.4780 H   0  0  0  0  0  0
  -21.1147  -13.1257   22.2608 H   0  0  0  0  0  0
  -24.6703  -15.8402   20.5266 H   0  0  0  0  0  0
  -26.2965  -15.6309   20.1167 H   0  0  0  0  0  0
  -26.7149  -32.5517   23.1165 H   0  0  0  0  0  0
  -25.0067  -33.9780   25.0467 H   0  0  0  0  0  0
  -22.6984  -31.3078   21.4115 H   0  0  0  0  0  0
  -23.3750  -35.9635   23.3307 H   0  0  0  0  0  0
  -24.3578  -36.8907   22.2051 H   0  0  0  0  0  0
  -23.7237  -37.6512   23.6651 H   0  0  0  0  0  0
  -26.0554  -31.6007   20.5992 H   0  0  0  0  0  0
  -26.8280  -30.8831   21.9826 H   0  0  0  0  0  0
  -28.1181  -29.0887   21.1557 H   0  0  0  0  0  0
  -26.0492  -25.9570   19.0362 H   0  0  0  0  0  0
  -23.9777  -27.3001   19.0348 H   0  0  0  0  0  0
  -23.7269  -30.6039   19.4044 H   0  0  0  0  0  0
  -22.7431  -29.2459   19.8675 H   0  0  0  0  0  0
  -25.1282  -36.1976   25.0835 H   0  0  0  0  0  0
  -20.9949  -28.3242   24.1442 H   0  0  0  0  0  0
  -20.5685  -26.2284   23.3603 H   0  0  0  0  0  0
  -21.6636  -26.7467   22.1200 H   0  0  0  0  0  0
  -19.6912  -25.6302   21.1241 H   0  0  0  0  0  0
  -19.6687  -27.3216   20.6765 H   0  0  0  0  0  0
  -17.4188  -26.6690   21.4018 H   0  0  0  0  0  0
  -18.0313  -26.0070   22.9018 H   0  0  0  0  0  0
  -19.7916  -30.7258   24.2314 H   0  0  0  0  0  0
  -17.5002  -31.6286   24.5163 H   0  0  0  0  0  0
  -15.5343  -30.3014   23.7642 H   0  0  0  0  0  0
  -15.8650  -28.0844   22.7066 H   0  0  0  0  0  0
  -24.5901  -30.7077   25.7793 H   0  0  0  0  0  0
  -24.8909  -32.2880   26.4914 H   0  0  0  0  0  0
  -25.8048  -30.8883   27.0233 H   0  0  0  0  0  0
  -26.2863  -29.6824   24.1162 H   0  0  0  0  0  0
  -27.4079  -29.7307   25.4578 H   0  0  0  0  0  0
  -27.8696  -30.4378   23.9273 H   0  0  0  0  0  0
  -27.2691  -33.3636   26.2067 H   0  0  0  0  0  0
  -28.3856  -32.6884   25.0297 H   0  0  0  0  0  0
  -28.0739  -31.8452   26.5380 H   0  0  0  0  0  0
  -28.2602  -38.0097   24.7528 H   0  0  0  0  0  0
  -28.1061  -36.2631   24.6268 H   0  0  0  0  0  0
  -27.2293  -37.1437   25.8867 H   0  0  0  0  0  0
  -20.9339  -29.8770   21.6943 H   0  0  0  0  0  0
  -26.0172  -38.2867   24.1431 H   0  0  0  0  0  0
  -29.2137  -20.4949   22.3728 H   0  0  0  0  0  0
  -28.7274  -16.3696   23.3448 H   0  0  0  0  0  0
  -30.8899  -17.4455   19.7740 H   0  0  0  0  0  0
  -27.4975  -25.8471   21.8492 H   0  0  0  0  0  0
  -26.3913  -17.3887   23.7242 H   0  0  0  0  0  0
  -26.4683  -17.9565   25.4722 H   0  0  0  0  0  0
  -26.4399  -20.3284   24.6983 H   0  0  0  0  0  0
  -26.3729  -19.7601   22.9477 H   0  0  0  0  0  0
  -28.6564  -19.1463   24.9934 H   0  0  0  0  0  0
  -28.5263  -21.1151   20.2565 H   0  0  0  0  0  0
  -28.8699  -20.5738   18.6825 H   0  0  0  0  0  0
  -31.1038  -21.0114   20.7253 H   0  0  0  0  0  0
  -28.2872  -22.9234   18.7834 H   0  0  0  0  0  0
  -29.2636  -14.8099   21.9071 H   0  0  0  0  0  0
  -29.1885  -23.0266   22.6410 H   0  0  0  0  0  0
  -27.9767  -24.0349   22.9761 H   0  0  0  0  0  0
  -27.6977  -22.7756   22.0028 H   0  0  0  0  0  0
  -32.2574  -19.4302   19.4544 H   0  0  0  0  0  0
  -31.8915  -20.6821   18.5101 H   0  0  0  0  0  0
  -31.0659  -19.2847   18.3580 H   0  0  0  0  0  0
  -31.0854  -23.0007   18.0302 H   0  0  0  0  0  0
  -29.8651  -23.8950   17.5177 H   0  0  0  0  0  0
  -29.8952  -22.3295   17.0926 H   0  0  0  0  0  0
  1 25  1  0  0  0
  1 30  2  0  0  0
  1 86  1  0  0  0
  2  3  1  0  0  0
  2 25  1  0  0  0
  2 91  1  0  0  0
  2 92  1  0  0  0
  3  4  1  0  0  0
  3 93  1  0  0  0
  3 94  1  0  0  0
  4  5  1  0  0  0
  4 95  1  0  0  0
  4 96  1  0  0  0
  5  6  1  0  0  0
  5 26  1  0  0  0
  5 97  1  0  0  0
  6 25  1  0  0  0
  6 98  1  0  0  0
  6 99  1  0  0  0
  7  8  2  0  0  0
  7 26  1  0  0  0
  7 29  1  0  0  0
  8  9  1  0  0  0
  8 22  1  0  0  0
  9 10  1  0  0  0
  9 27  2  0  0  0
 10 11  2  0  0  0
 10 15  1  0  0  0
 11 12  1  0  0  0
 11100  1  0  0  0
 12 13  2  0  0  0
 12101  1  0  0  0
 13 14  1  0  0  0
 13 31  1  0  0  0
 14 15  2  0  0  0
 14102  1  0  0  0
 15103  1  0  0  0
 16 17  2  0  0  0
 16 21  1  0  0  0
 16 31  1  0  0  0
 17 18  1  0  0  0
 17104  1  0  0  0
 18 19  2  0  0  0
 18105  1  0  0  0
 19 20  1  0  0  0
 19 24  1  0  0  0
 20 21  2  0  0  0
 20106  1  0  0  0
 21 23  1  0  0  0
 22 28  1  0  0  0
 22 32  2  0  0  0
 26 27  1  0  0  0
 28107  1  0  0  0
 28108  1  0  0  0
 29109  1  0  0  0
 29110  1  0  0  0
 33 34  1  0  0  0
 33 66  1  0  0  0
 33 70  2  0  0  0
 34 36  1  0  0  0
 34 59  1  0  0  0
 34111  1  0  0  0
 35 44  2  0  0  0
 35 45  1  0  0  0
 35 68  1  0  0  0
 36 56  1  0  0  0
 36112  1  0  0  0
 37 39  1  0  0  0
 37 47  1  0  0  0
 37 66  1  0  0  0
 37113  1  0  0  0
 38 43  2  0  0  0
 38 46  1  0  0  0
 38 47  1  0  0  0
 39 64  1  0  0  0
 39 67  2  0  0  0
 40 52  1  0  0  0
 40 53  2  0  0  0
 40 58  1  0  0  0
 41114  1  0  0  0
 41115  1  0  0  0
 41116  1  0  0  0
 41 48  1  0  0  0
 42 43  1  0  0  0
 42 66  1  0  0  0
 42117  1  0  0  0
 42118  1  0  0  0
 43 44  1  0  0  0
 44119  1  0  0  0
 45 46  2  0  0  0
 45120  1  0  0  0
 46121  1  0  0  0
 47122  1  0  0  0
 47123  1  0  0  0
 48 56  1  0  0  0
 48 65  1  0  0  0
 48124  1  0  0  0
 49 50  1  0  0  0
 49 53  1  0  0  0
 49 64  1  0  0  0
 49125  1  0  0  0
 50 51  1  0  0  0
 50126  1  0  0  0
 50127  1  0  0  0
 51 52  1  0  0  0
 51128  1  0  0  0
 51129  1  0  0  0
 52130  1  0  0  0
 52131  1  0  0  0
 53 54  1  0  0  0
 54 55  2  0  0  0
 54132  1  0  0  0
 55 57  1  0  0  0
 55133  1  0  0  0
 56 69  2  0  0  0
 57 58  2  0  0  0
 57134  1  0  0  0
 58135  1  0  0  0
 59 60  1  0  0  0
 59 61  1  0  0  0
 59 62  1  0  0  0
 60136  1  0  0  0
 60137  1  0  0  0
 60138  1  0  0  0
 61139  1  0  0  0
 61140  1  0  0  0
 61141  1  0  0  0
 62142  1  0  0  0
 62143  1  0  0  0
 62144  1  0  0  0
 63 65  1  0  0  0
 63145  1  0  0  0
 63146  1  0  0  0
 63147  1  0  0  0
 64148  1  0  0  0
 65149  1  0  0  0
 68 77  1  0  0  0
 71 74  2  0  0  0
 71 75  1  0  0  0
 71150  1  0  0  0
 72 74  1  0  0  0
 72 76  2  0  0  0
 72151  1  0  0  0
 73 75  2  0  0  0
 73 76  1  0  0  0
 73152  1  0  0  0
 74 82  1  0  0  0
 75 84  1  0  0  0
 76 86  1  0  0  0
 77 78  2  0  0  0
 77153  1  0  0  0
 78 79  1  0  0  0
 78 87  1  0  0  0
 79 85  1  0  0  0
 79 90  2  0  0  0
 80 81  1  0  0  0
 80 82  1  0  0  0
 80154  1  0  0  0
 80155  1  0  0  0
 81 82  1  0  0  0
 81156  1  0  0  0
 81157  1  0  0  0
 82158  1  0  0  0
 83 84  1  0  0  0
 83 85  1  0  0  0
 83159  1  0  0  0
 83160  1  0  0  0
 84 88  1  0  0  0
 84161  1  0  0  0
 85 89  1  0  0  0
 85162  1  0  0  0
 86163  1  0  0  0
 87164  1  0  0  0
 87165  1  0  0  0
 87166  1  0  0  0
 88167  1  0  0  0
 88168  1  0  0  0
 88169  1  0  0  0
 89170  1  0  0  0
 89171  1  0  0  0
 89172  1  0  0  0
M  CHG  3  87   1  88   1  89   1
M  ISO  4   1 100  68 101  77 101  86 100
M  END
> <chiral flag>
0

> <version>
0

> <s_m_source_file>
/data/baiqing/PycharmProjects/Reinvent-master-3.2/result/LINK_invent/BTK/process_docking_weight1_custom_product_contain_oxygen_bond_distance_aromatic_linkinvent_7_9_3/rearranged_h_0148.sdf

> <i_m_source_file_index>
80

> <r_mmod_Potential_Energy-OPLS-2005>
-891.663208007812

> <r_mmod_Stretch_Energy-OPLS-2005>
57.7107467651367

> <r_mmod_Bend_Energy-OPLS-2005>
166.600814819336

> <r_mmod_Torsional_Energy-OPLS-2005>
284.898712158203

> <r_mmod_Improper_Torsional_Energy-OPLS-2005>
3.16832160949707

> <r_mmod_Van_der_Waal_Energy-OPLS-2005>
136.645294189453

> <r_mmod_Electrostatic_Energy-OPLS-2005>
393.386199951172

> <r_mmod_Solvation_Energy-OPLS-2005>
-1952.5009765625

> <b_mmod_Minimization_Converged-OPLS-2005>
0

> <r_mmod_RMS_Derivative-OPLS-2005>
3.36383461952209

$$$$
80
                    3D
 Structure written by MMmdl.
156165  0  0  1  0            999 V2000
  -30.6308  -14.5993   20.5204 C   0  0  0  0  0  0
  -30.4335  -12.3696   19.4414 C   0  0  0  0  0  0
  -29.5025  -12.5184   18.2177 C   0  0  0  0  0  0
  -28.0244  -12.3593   18.6280 C   0  0  0  0  0  0
  -27.6575  -13.2123   19.8707 C   0  0  2  0  0  0
  -28.7012  -13.0346   20.9965 C   0  0  0  0  0  0
  -25.2598  -13.8162   20.5688 C   0  0  0  0  0  0
  -24.1848  -13.0434   20.9176 C   0  0  0  0  0  0
  -24.6402  -11.6901   20.8724 C   0  0  0  0  0  0
  -23.9061  -10.4293   21.0402 C   0  0  0  0  0  0
  -24.3616   -9.4210   21.9178 C   0  0  0  0  0  0
  -23.6292   -8.2243   22.0753 C   0  0  0  0  0  0
  -22.4280   -8.0274   21.3539 C   0  0  0  0  0  0
  -21.9910   -9.0251   20.4643 C   0  0  0  0  0  0
  -22.7233  -10.2129   20.3050 C   0  0  0  0  0  0
  -21.6856   -6.0736   22.5283 C   0  0  0  0  0  0
  -21.4014   -6.5643   23.8218 C   0  0  0  0  0  0
  -21.3663   -5.6797   24.9182 C   0  0  0  0  0  0
  -21.6043   -4.3059   24.7237 C   0  0  0  0  0  0
  -21.8819   -3.8146   23.4365 C   0  0  0  0  0  0
  -21.9198   -4.6958   22.3415 C   0  0  0  0  0  0
  -22.7872  -13.5224   21.1847 C   0  0  0  0  0  0
  -22.1664   -4.2141   21.0989 F   0  0  0  0  0  0
  -21.5630   -3.4545   25.7751 F   0  0  0  0  0  0
  -30.0213  -13.3753   20.4416 N   0  0  0  0  0  0
  -26.3017  -12.9329   20.3346 N   0  0  0  0  0  0
  -25.9334  -11.6485   20.5752 N   0  0  0  0  0  0
  -22.0528  -12.8207   22.0398 N   0  0  0  0  0  0
  -25.4356  -15.1876   20.4108 N   0  0  0  0  0  0
  -31.7777  -14.7742   20.0991 O   0  0  0  0  0  0
  -21.6635   -6.8878   21.4243 O   0  0  0  0  0  0
  -22.3548  -14.5533   20.6708 O   0  0  0  0  0  0
  -24.6261  -31.8616   23.2052 C   0  0  0  0  0  0
  -25.9114  -32.4790   23.8378 C   0  0  1  0  0  0
  -27.2166  -27.3274   20.1117 C   0  0  0  0  0  0
  -25.5933  -33.8594   24.2296 N   0  0  0  0  0  0
  -23.4190  -30.4870   21.5503 C   0  0  2  0  0  0
  -24.8626  -28.9518   20.1092 C   0  0  0  0  0  0
  -22.7484  -29.4634   22.4976 C   0  0  0  0  0  0
  -18.0286  -28.1380   22.8485 C   0  0  0  0  0  0
  -24.1492  -36.7306   23.2635 C   0  0  0  0  0  0
  -25.9608  -30.7952   21.3768 C   0  0  0  0  0  0
  -26.0337  -29.4260   20.7143 C   0  0  0  0  0  0
  -27.2151  -28.6267   20.7039 C   0  0  0  0  0  0
  -26.0197  -26.9106   19.4793 C   0  0  0  0  0  0
  -24.8582  -27.6994   19.4812 C   0  0  0  0  0  0
  -23.6302  -29.8279   20.1634 C   0  0  0  0  0  0
  -25.4116  -36.3102   24.0331 C   0  0  1  0  0  0
  -20.5885  -28.3685   23.1295 C   0  0  2  0  0  0
  -20.6779  -26.9415   22.5407 C   0  0  0  0  0  0
  -19.5754  -26.6388   21.5210 C   0  0  0  0  0  0
  -18.1935  -26.7926   22.1620 C   0  0  0  0  0  0
  -19.1535  -28.8851   23.2883 C   0  0  0  0  0  0
  -18.9450  -30.1457   23.8891 C   0  0  0  0  0  0
  -17.6449  -30.6583   24.0561 C   0  0  0  0  0  0
  -25.9052  -34.9464   23.5116 C   0  0  0  0  0  0
  -16.5346  -29.9074   23.6331 C   0  0  0  0  0  0
  -16.7273  -28.6496   23.0348 C   0  0  0  0  0  0
  -26.4482  -31.6594   25.0749 C   0  0  0  0  0  0
  -25.3710  -31.3711   26.1468 C   0  0  0  0  0  0
  -27.0310  -30.3016   24.6193 C   0  0  0  0  0  0
  -27.6057  -32.4308   25.7514 C   0  0  0  0  0  0
  -27.5592  -37.1806   24.8458 C   0  0  0  0  0  0
  -21.4198  -29.3045   22.3708 N   0  0  0  0  0  0
  -26.4297  -37.3794   23.9409 N   0  0  0  0  0  0
  -24.6877  -31.0636   22.1005 N   0  0  0  0  0  0
  -23.4209  -28.8167   23.3053 O   0  0  0  0  0  0
  -28.3263  -26.4677   20.1726 O   0  0  0  0  0  0
  -26.5627  -34.8927   22.4686 O   0  0  0  0  0  0
  -23.5429  -32.1413   23.7383 O   0  0  0  0  0  0
  -30.7472  -19.1473   19.7316 C   0  0  0  0  0  0
  -28.7954  -19.2899   21.0765 C   0  0  0  0  0  0
  -30.8363  -17.7453   19.9600 C   0  0  0  0  0  0
  -28.8651  -17.8838   21.3140 C   0  0  0  0  0  0
  -29.7207  -19.9884   20.2511 C   0  0  0  0  0  0
  -29.8794  -17.0647   20.7504 C   0  0  0  0  0  0
  -27.8571  -21.9290   19.1107 C   0  0  0  0  0  0
  -29.1827  -21.4934   18.4892 C   0  0  0  0  0  0
  -28.6823  -22.3980   20.3134 C   0  0  2  0  0  0
  -29.1560  -23.9230   20.3535 C   0  0  0  0  0  0
  -28.0465  -25.0192   20.0639 C   0  0  0  0  0  0
  -29.7053  -21.4013   19.8550 N   0  0  0  0  0  0
  -29.8463  -15.6230   20.9763 N   0  0  0  0  0  0
  -31.4748  -12.4889   19.1375 H   0  0  0  0  0  0
  -30.3557  -11.3648   19.8594 H   0  0  0  0  0  0
  -29.7583  -11.7875   17.4499 H   0  0  0  0  0  0
  -29.6510  -13.4990   17.7638 H   0  0  0  0  0  0
  -27.8509  -11.3037   18.8391 H   0  0  0  0  0  0
  -27.3714  -12.6130   17.7923 H   0  0  0  0  0  0
  -27.6856  -14.2537   19.5494 H   0  0  0  0  0  0
  -28.7038  -12.0039   21.3533 H   0  0  0  0  0  0
  -28.4497  -13.6436   21.8652 H   0  0  0  0  0  0
  -25.2771   -9.5680   22.4745 H   0  0  0  0  0  0
  -24.0010   -7.4634   22.7472 H   0  0  0  0  0  0
  -21.0844   -8.8771   19.8948 H   0  0  0  0  0  0
  -22.3705  -10.9668   19.6150 H   0  0  0  0  0  0
  -21.2002   -7.6151   23.9712 H   0  0  0  0  0  0
  -21.1481   -6.0534   25.9081 H   0  0  0  0  0  0
  -22.0596   -2.7607   23.2869 H   0  0  0  0  0  0
  -22.4160  -11.9862   22.4760 H   0  0  0  0  0  0
  -21.1145  -13.1221   22.2620 H   0  0  0  0  0  0
  -24.6738  -15.8492   20.5147 H   0  0  0  0  0  0
  -26.2890  -15.6200   20.0805 H   0  0  0  0  0  0
  -26.7194  -32.5457   23.1140 H   0  0  0  0  0  0
  -25.0061  -33.9730   25.0430 H   0  0  0  0  0  0
  -22.7132  -31.3081   21.4127 H   0  0  0  0  0  0
  -23.3764  -35.9628   23.3276 H   0  0  0  0  0  0
  -24.3587  -36.8944   22.2054 H   0  0  0  0  0  0
  -23.7227  -37.6495   23.6665 H   0  0  0  0  0  0
  -26.0944  -31.5612   20.6116 H   0  0  0  0  0  0
  -26.8401  -30.8380   22.0077 H   0  0  0  0  0  0
  -28.1130  -28.9843   21.1872 H   0  0  0  0  0  0
  -25.9366  -25.9570   18.9820 H   0  0  0  0  0  0
  -23.9635  -27.3302   18.9975 H   0  0  0  0  0  0
  -23.7453  -30.6058   19.4081 H   0  0  0  0  0  0
  -22.7498  -29.2556   19.8645 H   0  0  0  0  0  0
  -25.1293  -36.1957   25.0825 H   0  0  0  0  0  0
  -20.9959  -28.3238   24.1422 H   0  0  0  0  0  0
  -20.5684  -26.2289   23.3594 H   0  0  0  0  0  0
  -21.6649  -26.7458   22.1196 H   0  0  0  0  0  0
  -19.6914  -25.6296   21.1236 H   0  0  0  0  0  0
  -19.6684  -27.3206   20.6743 H   0  0  0  0  0  0
  -17.4204  -26.6676   21.4023 H   0  0  0  0  0  0
  -18.0337  -26.0067   22.9012 H   0  0  0  0  0  0
  -19.7922  -30.7285   24.2257 H   0  0  0  0  0  0
  -17.4992  -31.6256   24.5173 H   0  0  0  0  0  0
  -15.5338  -30.2963   23.7660 H   0  0  0  0  0  0
  -15.8678  -28.0809   22.7060 H   0  0  0  0  0  0
  -24.5896  -30.7058   25.7775 H   0  0  0  0  0  0
  -24.8885  -32.2863   26.4911 H   0  0  0  0  0  0
  -25.8027  -30.8864   27.0234 H   0  0  0  0  0  0
  -26.2872  -29.6785   24.1210 H   0  0  0  0  0  0
  -27.3989  -29.7256   25.4695 H   0  0  0  0  0  0
  -27.8761  -30.4296   23.9425 H   0  0  0  0  0  0
  -27.2691  -33.3606   26.2113 H   0  0  0  0  0  0
  -28.3858  -32.6865   25.0332 H   0  0  0  0  0  0
  -28.0740  -31.8412   26.5403 H   0  0  0  0  0  0
  -28.2594  -38.0121   24.7549 H   0  0  0  0  0  0
  -28.1105  -36.2658   24.6233 H   0  0  0  0  0  0
  -27.2315  -37.1400   25.8860 H   0  0  0  0  0  0
  -20.9386  -29.8764   21.6908 H   0  0  0  0  0  0
  -26.0182  -38.2871   24.1405 H   0  0  0  0  0  0
  -31.4981  -19.5930   19.0946 H   0  0  0  0  0  0
  -27.9768  -19.8347   21.5245 H   0  0  0  0  0  0
  -31.6465  -17.2058   19.4933 H   0  0  0  0  0  0
  -28.1024  -17.4352   21.9353 H   0  0  0  0  0  0
  -27.1830  -21.0996   19.3380 H   0  0  0  0  0  0
  -27.3417  -22.7075   18.5510 H   0  0  0  0  0  0
  -29.6685  -22.2824   17.9121 H   0  0  0  0  0  0
  -29.1223  -20.5610   17.9237 H   0  0  0  0  0  0
  -28.2041  -22.0980   21.2478 H   0  0  0  0  0  0
  -29.9636  -24.0799   19.6376 H   0  0  0  0  0  0
  -29.5989  -24.1295   21.3287 H   0  0  0  0  0  0
  -27.1997  -24.7915   20.7145 H   0  0  0  0  0  0
  -27.7180  -24.8398   19.0412 H   0  0  0  0  0  0
  -29.0008  -15.2878   21.4113 H   0  0  0  0  0  0
  1 25  1  0  0  0
  1 30  2  0  0  0
  1 83  1  0  0  0
  2  3  1  0  0  0
  2 25  1  0  0  0
  2 84  1  0  0  0
  2 85  1  0  0  0
  3  4  1  0  0  0
  3 86  1  0  0  0
  3 87  1  0  0  0
  4  5  1  0  0  0
  4 88  1  0  0  0
  4 89  1  0  0  0
  5  6  1  0  0  0
  5 26  1  0  0  0
  5 90  1  0  0  0
  6 25  1  0  0  0
  6 91  1  0  0  0
  6 92  1  0  0  0
  7  8  2  0  0  0
  7 26  1  0  0  0
  7 29  1  0  0  0
  8  9  1  0  0  0
  8 22  1  0  0  0
  9 10  1  0  0  0
  9 27  2  0  0  0
 10 11  2  0  0  0
 10 15  1  0  0  0
 11 12  1  0  0  0
 11 93  1  0  0  0
 12 13  2  0  0  0
 12 94  1  0  0  0
 13 14  1  0  0  0
 13 31  1  0  0  0
 14 15  2  0  0  0
 14 95  1  0  0  0
 15 96  1  0  0  0
 16 17  2  0  0  0
 16 21  1  0  0  0
 16 31  1  0  0  0
 17 18  1  0  0  0
 17 97  1  0  0  0
 18 19  2  0  0  0
 18 98  1  0  0  0
 19 20  1  0  0  0
 19 24  1  0  0  0
 20 21  2  0  0  0
 20 99  1  0  0  0
 21 23  1  0  0  0
 22 28  1  0  0  0
 22 32  2  0  0  0
 26 27  1  0  0  0
 28100  1  0  0  0
 28101  1  0  0  0
 29102  1  0  0  0
 29103  1  0  0  0
 33 34  1  0  0  0
 33 66  1  0  0  0
 33 70  2  0  0  0
 34 36  1  0  0  0
 34 59  1  0  0  0
 34104  1  0  0  0
 35 44  2  0  0  0
 35 45  1  0  0  0
 35 68  1  0  0  0
 36 56  1  0  0  0
 36105  1  0  0  0
 37 39  1  0  0  0
 37 47  1  0  0  0
 37 66  1  0  0  0
 37106  1  0  0  0
 38 43  2  0  0  0
 38 46  1  0  0  0
 38 47  1  0  0  0
 39 64  1  0  0  0
 39 67  2  0  0  0
 40 52  1  0  0  0
 40 53  2  0  0  0
 40 58  1  0  0  0
 41107  1  0  0  0
 41108  1  0  0  0
 41109  1  0  0  0
 41 48  1  0  0  0
 42 43  1  0  0  0
 42 66  1  0  0  0
 42110  1  0  0  0
 42111  1  0  0  0
 43 44  1  0  0  0
 44112  1  0  0  0
 45 46  2  0  0  0
 45113  1  0  0  0
 46114  1  0  0  0
 47115  1  0  0  0
 47116  1  0  0  0
 48 56  1  0  0  0
 48 65  1  0  0  0
 48117  1  0  0  0
 49 50  1  0  0  0
 49 53  1  0  0  0
 49 64  1  0  0  0
 49118  1  0  0  0
 50 51  1  0  0  0
 50119  1  0  0  0
 50120  1  0  0  0
 51 52  1  0  0  0
 51121  1  0  0  0
 51122  1  0  0  0
 52123  1  0  0  0
 52124  1  0  0  0
 53 54  1  0  0  0
 54 55  2  0  0  0
 54125  1  0  0  0
 55 57  1  0  0  0
 55126  1  0  0  0
 56 69  2  0  0  0
 57 58  2  0  0  0
 57127  1  0  0  0
 58128  1  0  0  0
 59 60  1  0  0  0
 59 61  1  0  0  0
 59 62  1  0  0  0
 60129  1  0  0  0
 60130  1  0  0  0
 60131  1  0  0  0
 61132  1  0  0  0
 61133  1  0  0  0
 61134  1  0  0  0
 62135  1  0  0  0
 62136  1  0  0  0
 62137  1  0  0  0
 63 65  1  0  0  0
 63138  1  0  0  0
 63139  1  0  0  0
 63140  1  0  0  0
 64141  1  0  0  0
 65142  1  0  0  0
 68 81  1  0  0  0
 71 73  2  0  0  0
 71 75  1  0  0  0
 71143  1  0  0  0
 72 74  1  0  0  0
 72 75  2  0  0  0
 72144  1  0  0  0
 73 76  1  0  0  0
 73145  1  0  0  0
 74 76  2  0  0  0
 74146  1  0  0  0
 75 82  1  0  0  0
 76 83  1  0  0  0
 77 78  1  0  0  0
 77 79  1  0  0  0
 77147  1  0  0  0
 77148  1  0  0  0
 78 82  1  0  0  0
 78149  1  0  0  0
 78150  1  0  0  0
 79 80  1  0  0  0
 79 82  1  0  0  0
 79151  1  0  0  0
 80 81  1  0  0  0
 80152  1  0  0  0
 80153  1  0  0  0
 81154  1  0  0  0
 81155  1  0  0  0
 83156  1  0  0  0
M  ISO  4   1 100  68 101  81 101  83 100
M  END
> <chiral flag>
0

> <version>
0

> <s_m_source_file>
/data/baiqing/PycharmProjects/Reinvent-master-3.2/result/LINK_invent/BTK/process_docking_weight1_custom_product_contain_oxygen_bond_distance_aromatic_linkinvent_7_9_3/rearranged_h_0148.sdf

> <i_m_source_file_index>
81

> <r_mmod_Potential_Energy-OPLS-2005>
91.8183441162109

> <r_mmod_Stretch_Energy-OPLS-2005>
77.3531799316406

> <r_mmod_Bend_Energy-OPLS-2005>
164.416931152344

> <r_mmod_Torsional_Energy-OPLS-2005>
257.584045410156

> <r_mmod_Improper_Torsional_Energy-OPLS-2005>
11.525710105896

> <r_mmod_Van_der_Waal_Energy-OPLS-2005>
157.481689453125

> <r_mmod_Electrostatic_Energy-OPLS-2005>
-389.586853027344

> <r_mmod_Solvation_Energy-OPLS-2005>
-228.29833984375

> <b_mmod_Minimization_Converged-OPLS-2005>
0

> <r_mmod_RMS_Derivative-OPLS-2005>
1.68133914470673

$$$$
81
                    3D
 Structure written by MMmdl.
162171  0  0  1  0            999 V2000
  -30.6028  -14.7670   20.4316 C   0  0  0  0  0  0
  -30.4313  -12.4631   19.4830 C   0  0  0  0  0  0
  -29.5136  -12.5081   18.2413 C   0  0  0  0  0  0
  -28.0392  -12.3320   18.6510 C   0  0  0  0  0  0
  -27.6402  -13.2358   19.8483 C   0  0  2  0  0  0
  -28.6830  -13.1820   20.9862 C   0  0  0  0  0  0
  -25.2507  -13.8204   20.5703 C   0  0  0  0  0  0
  -24.1797  -13.0443   20.9202 C   0  0  0  0  0  0
  -24.6394  -11.6920   20.8738 C   0  0  0  0  0  0
  -23.9073  -10.4294   21.0401 C   0  0  0  0  0  0
  -24.3620   -9.4208   21.9181 C   0  0  0  0  0  0
  -23.6291   -8.2245   22.0754 C   0  0  0  0  0  0
  -22.4274   -8.0284   21.3544 C   0  0  0  0  0  0
  -21.9909   -9.0258   20.4648 C   0  0  0  0  0  0
  -22.7242  -10.2135   20.3056 C   0  0  0  0  0  0
  -21.6857   -6.0734   22.5275 C   0  0  0  0  0  0
  -21.4016   -6.5638   23.8210 C   0  0  0  0  0  0
  -21.3658   -5.6790   24.9171 C   0  0  0  0  0  0
  -21.6043   -4.3051   24.7226 C   0  0  0  0  0  0
  -21.8819   -3.8146   23.4346 C   0  0  0  0  0  0
  -21.9193   -4.6959   22.3400 C   0  0  0  0  0  0
  -22.7822  -13.5226   21.1861 C   0  0  0  0  0  0
  -22.1664   -4.2146   21.0978 F   0  0  0  0  0  0
  -21.5623   -3.4534   25.7738 F   0  0  0  0  0  0
  -29.9850  -13.5337   20.4065 N   0  0  0  0  0  0
  -26.2930  -12.9418   20.3264 N   0  0  0  0  0  0
  -25.9325  -11.6555   20.5729 N   0  0  0  0  0  0
  -22.0470  -12.8222   22.0420 N   0  0  0  0  0  0
  -25.4203  -15.1930   20.4146 N   0  0  0  0  0  0
  -31.8007  -14.8388   20.1443 O   0  0  0  0  0  0
  -21.6642   -6.8878   21.4239 O   0  0  0  0  0  0
  -22.3508  -14.5534   20.6707 O   0  0  0  0  0  0
  -24.6326  -31.8537   23.1966 C   0  0  0  0  0  0
  -25.9142  -32.4745   23.8318 C   0  0  1  0  0  0
  -27.2178  -27.2488   20.1381 C   0  0  0  0  0  0
  -25.5930  -33.8547   24.2242 N   0  0  0  0  0  0
  -23.4301  -30.4749   21.5406 C   0  0  2  0  0  0
  -24.8776  -28.9169   20.1133 C   0  0  0  0  0  0
  -22.7509  -29.4590   22.4908 C   0  0  0  0  0  0
  -18.0292  -28.1385   22.8484 C   0  0  0  0  0  0
  -24.1492  -36.7281   23.2639 C   0  0  0  0  0  0
  -25.9766  -30.7634   21.3774 C   0  0  0  0  0  0
  -26.0502  -29.3834   20.7218 C   0  0  0  0  0  0
  -27.2261  -28.5638   20.7182 C   0  0  0  0  0  0
  -26.0259  -26.8528   19.4960 C   0  0  0  0  0  0
  -24.8711  -27.6599   19.4879 C   0  0  0  0  0  0
  -23.6494  -29.8059   20.1580 C   0  0  0  0  0  0
  -25.4118  -36.3062   24.0324 C   0  0  1  0  0  0
  -20.5898  -28.3692   23.1268 C   0  0  2  0  0  0
  -20.6782  -26.9410   22.5407 C   0  0  0  0  0  0
  -19.5756  -26.6380   21.5212 C   0  0  0  0  0  0
  -18.1935  -26.7927   22.1625 C   0  0  0  0  0  0
  -19.1548  -28.8857   23.2871 C   0  0  0  0  0  0
  -18.9468  -30.1458   23.8890 C   0  0  0  0  0  0
  -17.6469  -30.6587   24.0560 C   0  0  0  0  0  0
  -25.9058  -34.9435   23.5088 C   0  0  0  0  0  0
  -16.5359  -29.9082   23.6330 C   0  0  0  0  0  0
  -16.7280  -28.6498   23.0352 C   0  0  0  0  0  0
  -26.4506  -31.6576   25.0715 C   0  0  0  0  0  0
  -25.3725  -31.3732   26.1432 C   0  0  0  0  0  0
  -27.0354  -30.2991   24.6210 C   0  0  0  0  0  0
  -27.6055  -32.4319   25.7491 C   0  0  0  0  0  0
  -27.5579  -37.1796   24.8464 C   0  0  0  0  0  0
  -21.4215  -29.3040   22.3657 N   0  0  0  0  0  0
  -26.4289  -37.3764   23.9407 N   0  0  0  0  0  0
  -24.6990  -31.0491   22.0944 N   0  0  0  0  0  0
  -23.4202  -28.8131   23.3016 O   0  0  0  0  0  0
  -28.3083  -26.3476   20.1519 O   0  0  0  0  0  0
  -26.5637  -34.8913   22.4662 O   0  0  0  0  0  0
  -23.5472  -32.1356   23.7258 O   0  0  0  0  0  0
  -29.3723  -18.5756   20.5582 C   0  0  0  0  0  0
  -29.9902  -17.2978   20.0942 C   0  0  0  0  0  0
  -29.6108  -19.7213   19.7497 C   0  0  0  0  0  0
  -30.6859  -17.5444   18.9403 C   0  0  0  0  0  0
  -28.4387  -23.2054   18.6180 C   0  0  0  0  0  0
  -29.0010  -21.7839   18.3800 C   0  0  0  0  0  0
  -28.9315  -23.6401   20.0090 C   0  0  1  0  0  0
  -28.8645  -22.1625   20.7280 C   0  0  0  0  0  0
  -30.3959  -24.1191   19.8842 C   0  0  0  0  0  0
  -27.4446  -21.8963   21.2662 C   0  0  0  0  0  0
  -29.8483  -22.0281   21.9067 C   0  0  0  0  0  0
  -28.0849  -24.9161   20.5903 C   0  0  0  0  0  0
  -29.1695  -21.1267   19.6801 N   0  0  0  0  0  0
  -29.8332  -15.9119   20.6409 N   0  0  0  0  0  0
  -31.2877  -16.6041   18.1733 F   0  0  0  0  0  0
  -30.6483  -19.2063   18.4198 S   0  0  0  0  0  0
  -31.4733  -12.5825   19.1813 H   0  0  0  0  0  0
  -30.3725  -11.4896   19.9727 H   0  0  0  0  0  0
  -29.7989  -11.7306   17.5313 H   0  0  0  0  0  0
  -29.6408  -13.4597   17.7223 H   0  0  0  0  0  0
  -27.8976  -11.2840   18.9177 H   0  0  0  0  0  0
  -27.3855  -12.5195   17.7981 H   0  0  0  0  0  0
  -27.6298  -14.2552   19.4618 H   0  0  0  0  0  0
  -28.7186  -12.1880   21.4350 H   0  0  0  0  0  0
  -28.4147  -13.8705   21.7893 H   0  0  0  0  0  0
  -25.2763   -9.5683   22.4758 H   0  0  0  0  0  0
  -23.9995   -7.4637   22.7478 H   0  0  0  0  0  0
  -21.0838   -8.8783   19.8960 H   0  0  0  0  0  0
  -22.3699  -10.9673   19.6168 H   0  0  0  0  0  0
  -21.2015   -7.6148   23.9711 H   0  0  0  0  0  0
  -21.1479   -6.0523   25.9072 H   0  0  0  0  0  0
  -22.0601   -2.7607   23.2852 H   0  0  0  0  0  0
  -22.4086  -11.9887   22.4816 H   0  0  0  0  0  0
  -21.1088  -13.1250   22.2622 H   0  0  0  0  0  0
  -24.6526  -15.8466   20.5278 H   0  0  0  0  0  0
  -26.2658  -15.6322   20.0746 H   0  0  0  0  0  0
  -26.7210  -32.5395   23.1059 H   0  0  0  0  0  0
  -25.0059  -33.9676   25.0375 H   0  0  0  0  0  0
  -22.7274  -31.2973   21.3926 H   0  0  0  0  0  0
  -23.3752  -35.9616   23.3299 H   0  0  0  0  0  0
  -24.3580  -36.8908   22.2054 H   0  0  0  0  0  0
  -23.7249  -37.6482   23.6671 H   0  0  0  0  0  0
  -26.1158  -31.5226   20.6063 H   0  0  0  0  0  0
  -26.8538  -30.8147   22.0107 H   0  0  0  0  0  0
  -28.1266  -28.9180   21.2003 H   0  0  0  0  0  0
  -25.9761  -25.8943   18.9994 H   0  0  0  0  0  0
  -23.9758  -27.3004   18.9994 H   0  0  0  0  0  0
  -23.7753  -30.5807   19.4010 H   0  0  0  0  0  0
  -22.7675  -29.2398   19.8527 H   0  0  0  0  0  0
  -25.1302  -36.1905   25.0817 H   0  0  0  0  0  0
  -20.9990  -28.3273   24.1389 H   0  0  0  0  0  0
  -20.5676  -26.2306   23.3612 H   0  0  0  0  0  0
  -21.6651  -26.7428   22.1206 H   0  0  0  0  0  0
  -19.6918  -25.6289   21.1245 H   0  0  0  0  0  0
  -19.6692  -27.3187   20.6740 H   0  0  0  0  0  0
  -17.4204  -26.6665   21.4029 H   0  0  0  0  0  0
  -18.0341  -26.0070   22.9023 H   0  0  0  0  0  0
  -19.7944  -30.7275   24.2255 H   0  0  0  0  0  0
  -17.5020  -31.6266   24.5161 H   0  0  0  0  0  0
  -15.5356  -30.2981   23.7656 H   0  0  0  0  0  0
  -15.8681  -28.0813   22.7072 H   0  0  0  0  0  0
  -24.5907  -30.7071   25.7762 H   0  0  0  0  0  0
  -24.8907  -32.2903   26.4835 H   0  0  0  0  0  0
  -25.8038  -30.8925   27.0222 H   0  0  0  0  0  0
  -26.2938  -29.6732   24.1228 H   0  0  0  0  0  0
  -27.4023  -29.7259   25.4734 H   0  0  0  0  0  0
  -27.8825  -30.4257   23.9463 H   0  0  0  0  0  0
  -27.2663  -33.3631   26.2043 H   0  0  0  0  0  0
  -28.3884  -32.6857   25.0332 H   0  0  0  0  0  0
  -28.0706  -31.8458   26.5427 H   0  0  0  0  0  0
  -28.2594  -38.0095   24.7510 H   0  0  0  0  0  0
  -28.1077  -36.2625   24.6294 H   0  0  0  0  0  0
  -27.2297  -37.1450   25.8867 H   0  0  0  0  0  0
  -20.9404  -29.8761   21.6858 H   0  0  0  0  0  0
  -26.0166  -38.2837   24.1404 H   0  0  0  0  0  0
  -28.7428  -18.5973   21.4351 H   0  0  0  0  0  0
  -27.3492  -23.1631   18.6083 H   0  0  0  0  0  0
  -28.7266  -23.8996   17.8273 H   0  0  0  0  0  0
  -29.9711  -21.8634   17.8875 H   0  0  0  0  0  0
  -28.3473  -21.2076   17.7235 H   0  0  0  0  0  0
  -31.0523  -23.3418   19.4923 H   0  0  0  0  0  0
  -30.7941  -24.4326   20.8488 H   0  0  0  0  0  0
  -30.4724  -24.9758   19.2137 H   0  0  0  0  0  0
  -27.1731  -22.6133   22.0415 H   0  0  0  0  0  0
  -27.3659  -20.9027   21.7088 H   0  0  0  0  0  0
  -26.6874  -21.9593   20.4851 H   0  0  0  0  0  0
  -29.6896  -22.8175   22.6418 H   0  0  0  0  0  0
  -30.8877  -22.0831   21.5839 H   0  0  0  0  0  0
  -29.7289  -21.0757   22.4236 H   0  0  0  0  0  0
  -28.2750  -24.9395   21.6636 H   0  0  0  0  0  0
  -27.0274  -24.6644   20.5236 H   0  0  0  0  0  0
  -28.9456  -15.7339   21.0831 H   0  0  0  0  0  0
  1 25  1  0  0  0
  1 30  2  0  0  0
  1 84  1  0  0  0
  2  3  1  0  0  0
  2 25  1  0  0  0
  2 87  1  0  0  0
  2 88  1  0  0  0
  3  4  1  0  0  0
  3 89  1  0  0  0
  3 90  1  0  0  0
  4  5  1  0  0  0
  4 91  1  0  0  0
  4 92  1  0  0  0
  5  6  1  0  0  0
  5 26  1  0  0  0
  5 93  1  0  0  0
  6 25  1  0  0  0
  6 94  1  0  0  0
  6 95  1  0  0  0
  7  8  2  0  0  0
  7 26  1  0  0  0
  7 29  1  0  0  0
  8  9  1  0  0  0
  8 22  1  0  0  0
  9 10  1  0  0  0
  9 27  2  0  0  0
 10 11  2  0  0  0
 10 15  1  0  0  0
 11 12  1  0  0  0
 11 96  1  0  0  0
 12 13  2  0  0  0
 12 97  1  0  0  0
 13 14  1  0  0  0
 13 31  1  0  0  0
 14 15  2  0  0  0
 14 98  1  0  0  0
 15 99  1  0  0  0
 16 17  2  0  0  0
 16 21  1  0  0  0
 16 31  1  0  0  0
 17 18  1  0  0  0
 17100  1  0  0  0
 18 19  2  0  0  0
 18101  1  0  0  0
 19 20  1  0  0  0
 19 24  1  0  0  0
 20 21  2  0  0  0
 20102  1  0  0  0
 21 23  1  0  0  0
 22 28  1  0  0  0
 22 32  2  0  0  0
 26 27  1  0  0  0
 28103  1  0  0  0
 28104  1  0  0  0
 29105  1  0  0  0
 29106  1  0  0  0
 33 34  1  0  0  0
 33 66  1  0  0  0
 33 70  2  0  0  0
 34 36  1  0  0  0
 34 59  1  0  0  0
 34107  1  0  0  0
 35 44  2  0  0  0
 35 45  1  0  0  0
 35 68  1  0  0  0
 36 56  1  0  0  0
 36108  1  0  0  0
 37 39  1  0  0  0
 37 47  1  0  0  0
 37 66  1  0  0  0
 37109  1  0  0  0
 38 43  2  0  0  0
 38 46  1  0  0  0
 38 47  1  0  0  0
 39 64  1  0  0  0
 39 67  2  0  0  0
 40 52  1  0  0  0
 40 53  2  0  0  0
 40 58  1  0  0  0
 41110  1  0  0  0
 41111  1  0  0  0
 41112  1  0  0  0
 41 48  1  0  0  0
 42 43  1  0  0  0
 42 66  1  0  0  0
 42113  1  0  0  0
 42114  1  0  0  0
 43 44  1  0  0  0
 44115  1  0  0  0
 45 46  2  0  0  0
 45116  1  0  0  0
 46117  1  0  0  0
 47118  1  0  0  0
 47119  1  0  0  0
 48 56  1  0  0  0
 48 65  1  0  0  0
 48120  1  0  0  0
 49 50  1  0  0  0
 49 53  1  0  0  0
 49 64  1  0  0  0
 49121  1  0  0  0
 50 51  1  0  0  0
 50122  1  0  0  0
 50123  1  0  0  0
 51 52  1  0  0  0
 51124  1  0  0  0
 51125  1  0  0  0
 52126  1  0  0  0
 52127  1  0  0  0
 53 54  1  0  0  0
 54 55  2  0  0  0
 54128  1  0  0  0
 55 57  1  0  0  0
 55129  1  0  0  0
 56 69  2  0  0  0
 57 58  2  0  0  0
 57130  1  0  0  0
 58131  1  0  0  0
 59 60  1  0  0  0
 59 61  1  0  0  0
 59 62  1  0  0  0
 60132  1  0  0  0
 60133  1  0  0  0
 60134  1  0  0  0
 61135  1  0  0  0
 61136  1  0  0  0
 61137  1  0  0  0
 62138  1  0  0  0
 62139  1  0  0  0
 62140  1  0  0  0
 63 65  1  0  0  0
 63141  1  0  0  0
 63142  1  0  0  0
 63143  1  0  0  0
 64144  1  0  0  0
 65145  1  0  0  0
 68 82  1  0  0  0
 71 72  1  0  0  0
 71 73  2  0  0  0
 71146  1  0  0  0
 72 74  2  0  0  0
 72 84  1  0  0  0
 73 83  1  0  0  0
 73 86  1  0  0  0
 74 85  1  0  0  0
 74 86  1  0  0  0
 75 76  1  0  0  0
 75 77  1  0  0  0
 75147  1  0  0  0
 75148  1  0  0  0
 76 83  1  0  0  0
 76149  1  0  0  0
 76150  1  0  0  0
 77 78  1  0  0  0
 77 79  1  0  0  0
 77 82  1  0  0  0
 78 80  1  0  0  0
 78 81  1  0  0  0
 78 83  1  0  0  0
 79151  1  0  0  0
 79152  1  0  0  0
 79153  1  0  0  0
 80154  1  0  0  0
 80155  1  0  0  0
 80156  1  0  0  0
 81157  1  0  0  0
 81158  1  0  0  0
 81159  1  0  0  0
 82160  1  0  0  0
 82161  1  0  0  0
 84162  1  0  0  0
M  ISO  4   1 100  68 101  82 101  84 100
M  END
> <chiral flag>
0

> <version>
0

> <s_m_source_file>
/data/baiqing/PycharmProjects/Reinvent-master-3.2/result/LINK_invent/BTK/process_docking_weight1_custom_product_contain_oxygen_bond_distance_aromatic_linkinvent_7_9_3/rearranged_h_0148.sdf

> <i_m_source_file_index>
82

> <r_mmod_Potential_Energy-OPLS-2005>
311.953430175781

> <r_mmod_Stretch_Energy-OPLS-2005>
141.742279052734

> <r_mmod_Bend_Energy-OPLS-2005>
230.86376953125

> <r_mmod_Torsional_Energy-OPLS-2005>
343.68798828125

> <r_mmod_Improper_Torsional_Energy-OPLS-2005>
4.34039449691772

> <r_mmod_Van_der_Waal_Energy-OPLS-2005>
120.639961242676

> <r_mmod_Electrostatic_Energy-OPLS-2005>
-406.212951660156

> <r_mmod_Solvation_Energy-OPLS-2005>
-216.455383300781

> <b_mmod_Minimization_Converged-OPLS-2005>
0

> <r_mmod_RMS_Derivative-OPLS-2005>
0.830802857875824

$$$$
82
                    3D
 Structure written by MMmdl.
152161  0  0  1  0            999 V2000
  -30.7557  -14.5764   20.4601 C   0  0  0  0  0  0
  -30.3931  -12.3457   19.4852 C   0  0  0  0  0  0
  -29.4984  -12.4784   18.2359 C   0  0  0  0  0  0
  -28.0203  -12.3365   18.6373 C   0  0  0  0  0  0
  -27.6402  -13.2348   19.8452 C   0  0  2  0  0  0
  -28.6810  -13.1554   20.9847 C   0  0  0  0  0  0
  -25.2486  -13.8215   20.5670 C   0  0  0  0  0  0
  -24.1796  -13.0452   20.9223 C   0  0  0  0  0  0
  -24.6388  -11.6935   20.8754 C   0  0  0  0  0  0
  -23.9068  -10.4305   21.0406 C   0  0  0  0  0  0
  -24.3622   -9.4218   21.9177 C   0  0  0  0  0  0
  -23.6304   -8.2247   22.0744 C   0  0  0  0  0  0
  -22.4283   -8.0282   21.3541 C   0  0  0  0  0  0
  -21.9916   -9.0254   20.4640 C   0  0  0  0  0  0
  -22.7240  -10.2139   20.3054 C   0  0  0  0  0  0
  -21.6857   -6.0735   22.5277 C   0  0  0  0  0  0
  -21.4014   -6.5637   23.8212 C   0  0  0  0  0  0
  -21.3664   -5.6788   24.9172 C   0  0  0  0  0  0
  -21.6043   -4.3050   24.7218 C   0  0  0  0  0  0
  -21.8822   -3.8145   23.4340 C   0  0  0  0  0  0
  -21.9193   -4.6963   22.3397 C   0  0  0  0  0  0
  -22.7817  -13.5227   21.1876 C   0  0  0  0  0  0
  -22.1664   -4.2149   21.0977 F   0  0  0  0  0  0
  -21.5629   -3.4537   25.7734 F   0  0  0  0  0  0
  -30.0070  -13.4268   20.4223 N   0  0  0  0  0  0
  -26.2920  -12.9438   20.3245 N   0  0  0  0  0  0
  -25.9314  -11.6576   20.5740 N   0  0  0  0  0  0
  -22.0465  -12.8222   22.0439 N   0  0  0  0  0  0
  -25.4128  -15.1938   20.4027 N   0  0  0  0  0  0
  -31.9413  -14.5339   20.1184 O   0  0  0  0  0  0
  -21.6644   -6.8883   21.4242 O   0  0  0  0  0  0
  -22.3499  -14.5525   20.6710 O   0  0  0  0  0  0
  -24.6225  -31.8642   23.2068 C   0  0  0  0  0  0
  -25.9087  -32.4804   23.8379 C   0  0  1  0  0  0
  -27.2096  -27.3503   20.1044 C   0  0  0  0  0  0
  -25.5912  -33.8605   24.2305 N   0  0  0  0  0  0
  -23.4130  -30.4927   21.5494 C   0  0  2  0  0  0
  -24.8552  -28.9593   20.1091 C   0  0  0  0  0  0
  -22.7451  -29.4660   22.4943 C   0  0  0  0  0  0
  -18.0288  -28.1392   22.8496 C   0  0  0  0  0  0
  -24.1487  -36.7303   23.2635 C   0  0  0  0  0  0
  -25.9535  -30.8035   21.3761 C   0  0  0  0  0  0
  -26.0240  -29.4352   20.7159 C   0  0  0  0  0  0
  -27.2048  -28.6401   20.7104 C   0  0  0  0  0  0
  -26.0210  -26.9336   19.4563 C   0  0  0  0  0  0
  -24.8536  -27.7122   19.4717 C   0  0  0  0  0  0
  -23.6237  -29.8356   20.1615 C   0  0  0  0  0  0
  -25.4110  -36.3100   24.0331 C   0  0  1  0  0  0
  -20.5884  -28.3690   23.1290 C   0  0  2  0  0  0
  -20.6781  -26.9417   22.5408 C   0  0  0  0  0  0
  -19.5756  -26.6392   21.5210 C   0  0  0  0  0  0
  -18.1937  -26.7941   22.1622 C   0  0  0  0  0  0
  -19.1539  -28.8856   23.2897 C   0  0  0  0  0  0
  -18.9463  -30.1462   23.8907 C   0  0  0  0  0  0
  -17.6464  -30.6594   24.0568 C   0  0  0  0  0  0
  -25.9042  -34.9466   23.5115 C   0  0  0  0  0  0
  -16.5357  -29.9097   23.6330 C   0  0  0  0  0  0
  -16.7276  -28.6514   23.0352 C   0  0  0  0  0  0
  -26.4485  -31.6604   25.0736 C   0  0  0  0  0  0
  -25.3728  -31.3734   26.1469 C   0  0  0  0  0  0
  -27.0317  -30.3035   24.6160 C   0  0  0  0  0  0
  -27.6059  -32.4327   25.7493 C   0  0  0  0  0  0
  -27.5584  -37.1809   24.8464 C   0  0  0  0  0  0
  -21.4171  -29.3049   22.3680 N   0  0  0  0  0  0
  -26.4296  -37.3788   23.9405 N   0  0  0  0  0  0
  -24.6817  -31.0688   22.1005 N   0  0  0  0  0  0
  -23.4193  -28.8189   23.2997 O   0  0  0  0  0  0
  -28.3207  -26.5030   20.1755 O   0  0  0  0  0  0
  -26.5610  -34.8921   22.4682 O   0  0  0  0  0  0
  -23.5397  -32.1420   23.7422 O   0  0  0  0  0  0
  -28.9895  -16.5176   20.9149 C   0  0  0  0  0  0
  -31.1871  -17.0484   20.4933 C   0  0  0  0  0  0
  -29.1496  -17.8876   20.8403 C   0  0  0  0  0  0
  -30.4560  -18.1901   20.5773 C   0  0  0  0  0  0
  -28.8700  -22.5428   19.8978 C   0  0  0  0  0  0
  -29.2803  -20.0366   20.1582 C   0  0  0  0  0  0
  -29.0804  -23.9895   20.4676 C   0  0  0  0  0  0
  -28.0802  -25.0741   19.9182 C   0  0  0  0  0  0
  -30.2786  -15.9727   20.6696 N   0  0  0  0  0  0
  -28.3849  -19.0611   20.8515 N   0  0  0  0  0  0
  -30.6612  -19.5494   20.3705 N   0  0  0  0  0  0
  -29.1590  -21.4384   20.6504 N   0  0  0  0  0  0
  -28.4814  -22.4276   18.7328 O   0  0  0  0  0  0
  -31.4445  -12.3710   19.1936 H   0  0  0  0  0  0
  -30.2516  -11.3704   19.9541 H   0  0  0  0  0  0
  -29.7588  -11.7154   17.5009 H   0  0  0  0  0  0
  -29.6655  -13.4422   17.7526 H   0  0  0  0  0  0
  -27.8514  -11.2885   18.8872 H   0  0  0  0  0  0
  -27.3727  -12.5517   17.7871 H   0  0  0  0  0  0
  -27.6411  -14.2565   19.4666 H   0  0  0  0  0  0
  -28.6693  -12.1626   21.4370 H   0  0  0  0  0  0
  -28.4468  -13.8483   21.7930 H   0  0  0  0  0  0
  -25.2764   -9.5698   22.4758 H   0  0  0  0  0  0
  -24.0013   -7.4635   22.7460 H   0  0  0  0  0  0
  -21.0842   -8.8767   19.8950 H   0  0  0  0  0  0
  -22.3683  -10.9675   19.6170 H   0  0  0  0  0  0
  -21.2008   -7.6146   23.9718 H   0  0  0  0  0  0
  -21.1485   -6.0516   25.9078 H   0  0  0  0  0  0
  -22.0598   -2.7607   23.2836 H   0  0  0  0  0  0
  -22.4085  -11.9892   22.4844 H   0  0  0  0  0  0
  -21.1075  -13.1232   22.2630 H   0  0  0  0  0  0
  -24.6326  -15.8352   20.4943 H   0  0  0  0  0  0
  -26.2285  -15.6245   19.9887 H   0  0  0  0  0  0
  -26.7150  -32.5477   23.1122 H   0  0  0  0  0  0
  -25.0068  -33.9766   25.0455 H   0  0  0  0  0  0
  -22.7061  -31.3131   21.4128 H   0  0  0  0  0  0
  -23.3752  -35.9634   23.3307 H   0  0  0  0  0  0
  -24.3578  -36.8908   22.2047 H   0  0  0  0  0  0
  -23.7242  -37.6509   23.6651 H   0  0  0  0  0  0
  -26.0837  -31.5686   20.6095 H   0  0  0  0  0  0
  -26.8345  -30.8478   22.0038 H   0  0  0  0  0  0
  -28.0991  -28.9973   21.2018 H   0  0  0  0  0  0
  -25.9530  -25.9909   18.9348 H   0  0  0  0  0  0
  -23.9598  -27.3462   18.9855 H   0  0  0  0  0  0
  -23.7424  -30.6152   19.4083 H   0  0  0  0  0  0
  -22.7438  -29.2654   19.8581 H   0  0  0  0  0  0
  -25.1296  -36.1955   25.0827 H   0  0  0  0  0  0
  -20.9991  -28.3262   24.1403 H   0  0  0  0  0  0
  -20.5682  -26.2299   23.3604 H   0  0  0  0  0  0
  -21.6657  -26.7458   22.1200 H   0  0  0  0  0  0
  -19.6915  -25.6298   21.1246 H   0  0  0  0  0  0
  -19.6698  -27.3199   20.6736 H   0  0  0  0  0  0
  -17.4209  -26.6690   21.4022 H   0  0  0  0  0  0
  -18.0343  -26.0087   22.9019 H   0  0  0  0  0  0
  -19.7939  -30.7285   24.2277 H   0  0  0  0  0  0
  -17.5015  -31.6271   24.5176 H   0  0  0  0  0  0
  -15.5358  -30.2997   23.7650 H   0  0  0  0  0  0
  -15.8678  -28.0831   22.7058 H   0  0  0  0  0  0
  -24.5903  -30.7081   25.7798 H   0  0  0  0  0  0
  -24.8919  -32.2901   26.4897 H   0  0  0  0  0  0
  -25.8060  -30.8912   27.0240 H   0  0  0  0  0  0
  -26.2878  -29.6797   24.1192 H   0  0  0  0  0  0
  -27.4039  -29.7278   25.4643 H   0  0  0  0  0  0
  -27.8739  -30.4336   23.9359 H   0  0  0  0  0  0
  -27.2686  -33.3621   26.2091 H   0  0  0  0  0  0
  -28.3855  -32.6893   25.0310 H   0  0  0  0  0  0
  -28.0743  -31.8439   26.5387 H   0  0  0  0  0  0
  -28.2614  -38.0095   24.7516 H   0  0  0  0  0  0
  -28.1074  -36.2635   24.6293 H   0  0  0  0  0  0
  -27.2309  -37.1459   25.8868 H   0  0  0  0  0  0
  -20.9330  -29.8773   21.6905 H   0  0  0  0  0  0
  -26.0182  -38.2864   24.1409 H   0  0  0  0  0  0
  -28.1165  -15.9034   21.0646 H   0  0  0  0  0  0
  -32.2337  -16.8926   20.2683 H   0  0  0  0  0  0
  -29.0651  -19.9973   19.0862 H   0  0  0  0  0  0
  -30.0962  -24.2867   20.2074 H   0  0  0  0  0  0
  -29.0348  -23.9652   21.5560 H   0  0  0  0  0  0
  -27.1172  -24.7897   20.3457 H   0  0  0  0  0  0
  -27.9916  -24.9593   18.8369 H   0  0  0  0  0  0
  -27.4273  -18.9852   20.5157 H   0  0  0  0  0  0
  -31.3521  -19.7989   19.6655 H   0  0  0  0  0  0
  -29.4472  -21.6091   21.6046 H   0  0  0  0  0  0
  1 25  1  0  0  0
  1 30  2  0  0  0
  1 79  1  0  0  0
  2  3  1  0  0  0
  2 25  1  0  0  0
  2 84  1  0  0  0
  2 85  1  0  0  0
  3  4  1  0  0  0
  3 86  1  0  0  0
  3 87  1  0  0  0
  4  5  1  0  0  0
  4 88  1  0  0  0
  4 89  1  0  0  0
  5  6  1  0  0  0
  5 26  1  0  0  0
  5 90  1  0  0  0
  6 25  1  0  0  0
  6 91  1  0  0  0
  6 92  1  0  0  0
  7  8  2  0  0  0
  7 26  1  0  0  0
  7 29  1  0  0  0
  8  9  1  0  0  0
  8 22  1  0  0  0
  9 10  1  0  0  0
  9 27  2  0  0  0
 10 11  2  0  0  0
 10 15  1  0  0  0
 11 12  1  0  0  0
 11 93  1  0  0  0
 12 13  2  0  0  0
 12 94  1  0  0  0
 13 14  1  0  0  0
 13 31  1  0  0  0
 14 15  2  0  0  0
 14 95  1  0  0  0
 15 96  1  0  0  0
 16 17  2  0  0  0
 16 21  1  0  0  0
 16 31  1  0  0  0
 17 18  1  0  0  0
 17 97  1  0  0  0
 18 19  2  0  0  0
 18 98  1  0  0  0
 19 20  1  0  0  0
 19 24  1  0  0  0
 20 21  2  0  0  0
 20 99  1  0  0  0
 21 23  1  0  0  0
 22 28  1  0  0  0
 22 32  2  0  0  0
 26 27  1  0  0  0
 28100  1  0  0  0
 28101  1  0  0  0
 29102  1  0  0  0
 29103  1  0  0  0
 33 34  1  0  0  0
 33 66  1  0  0  0
 33 70  2  0  0  0
 34 36  1  0  0  0
 34 59  1  0  0  0
 34104  1  0  0  0
 35 44  2  0  0  0
 35 45  1  0  0  0
 35 68  1  0  0  0
 36 56  1  0  0  0
 36105  1  0  0  0
 37 39  1  0  0  0
 37 47  1  0  0  0
 37 66  1  0  0  0
 37106  1  0  0  0
 38 43  2  0  0  0
 38 46  1  0  0  0
 38 47  1  0  0  0
 39 64  1  0  0  0
 39 67  2  0  0  0
 40 52  1  0  0  0
 40 53  2  0  0  0
 40 58  1  0  0  0
 41107  1  0  0  0
 41108  1  0  0  0
 41109  1  0  0  0
 41 48  1  0  0  0
 42 43  1  0  0  0
 42 66  1  0  0  0
 42110  1  0  0  0
 42111  1  0  0  0
 43 44  1  0  0  0
 44112  1  0  0  0
 45 46  2  0  0  0
 45113  1  0  0  0
 46114  1  0  0  0
 47115  1  0  0  0
 47116  1  0  0  0
 48 56  1  0  0  0
 48 65  1  0  0  0
 48117  1  0  0  0
 49 50  1  0  0  0
 49 53  1  0  0  0
 49 64  1  0  0  0
 49118  1  0  0  0
 50 51  1  0  0  0
 50119  1  0  0  0
 50120  1  0  0  0
 51 52  1  0  0  0
 51121  1  0  0  0
 51122  1  0  0  0
 52123  1  0  0  0
 52124  1  0  0  0
 53 54  1  0  0  0
 54 55  2  0  0  0
 54125  1  0  0  0
 55 57  1  0  0  0
 55126  1  0  0  0
 56 69  2  0  0  0
 57 58  2  0  0  0
 57127  1  0  0  0
 58128  1  0  0  0
 59 60  1  0  0  0
 59 61  1  0  0  0
 59 62  1  0  0  0
 60129  1  0  0  0
 60130  1  0  0  0
 60131  1  0  0  0
 61132  1  0  0  0
 61133  1  0  0  0
 61134  1  0  0  0
 62135  1  0  0  0
 62136  1  0  0  0
 62137  1  0  0  0
 63 65  1  0  0  0
 63138  1  0  0  0
 63139  1  0  0  0
 63140  1  0  0  0
 64141  1  0  0  0
 65142  1  0  0  0
 68 78  1  0  0  0
 71 73  2  0  0  0
 71 79  1  0  0  0
 71143  1  0  0  0
 72 74  2  0  0  0
 72 79  1  0  0  0
 72144  1  0  0  0
 73 74  1  0  0  0
 73 80  1  0  0  0
 74 81  1  0  0  0
 75 77  1  0  0  0
 75 82  1  0  0  0
 75 83  2  0  0  0
 76 80  1  0  0  0
 76 81  1  0  0  0
 76 82  1  0  0  0
 76145  1  0  0  0
 77 78  1  0  0  0
 77146  1  0  0  0
 77147  1  0  0  0
 78148  1  0  0  0
 78149  1  0  0  0
 80150  1  0  0  0
 81151  1  0  0  0
 82152  1  0  0  0
M  ISO  4   1 100  68 101  78 101  79 100
M  END
> <chiral flag>
0

> <version>
0

> <s_m_source_file>
/data/baiqing/PycharmProjects/Reinvent-master-3.2/result/LINK_invent/BTK/process_docking_weight1_custom_product_contain_oxygen_bond_distance_aromatic_linkinvent_7_9_3/rearranged_h_0148.sdf

> <i_m_source_file_index>
83

> <r_mmod_Potential_Energy-OPLS-2005>
-51.7436027526855

> <r_mmod_Stretch_Energy-OPLS-2005>
75.1373672485352

> <r_mmod_Bend_Energy-OPLS-2005>
226.917922973633

> <r_mmod_Torsional_Energy-OPLS-2005>
178.924301147461

> <r_mmod_Improper_Torsional_Energy-OPLS-2005>
16.4314880371094

> <r_mmod_Van_der_Waal_Energy-OPLS-2005>
139.148971557617

> <r_mmod_Electrostatic_Energy-OPLS-2005>
-473.987670898438

> <r_mmod_Solvation_Energy-OPLS-2005>
-262.169006347656

> <b_mmod_Minimization_Converged-OPLS-2005>
0

> <r_mmod_RMS_Derivative-OPLS-2005>
1.26916599273682

$$$$
83
                    3D
 Structure written by MMmdl.
161170  0  0  1  0            999 V2000
  -30.6204  -14.7340   20.4292 C   0  0  0  0  0  0
  -30.4285  -12.4380   19.4846 C   0  0  0  0  0  0
  -29.5139  -12.5057   18.2412 C   0  0  0  0  0  0
  -28.0376  -12.3371   18.6495 C   0  0  0  0  0  0
  -27.6438  -13.2352   19.8523 C   0  0  2  0  0  0
  -28.6865  -13.1693   20.9910 C   0  0  0  0  0  0
  -25.2512  -13.8209   20.5691 C   0  0  0  0  0  0
  -24.1800  -13.0446   20.9197 C   0  0  0  0  0  0
  -24.6393  -11.6923   20.8728 C   0  0  0  0  0  0
  -23.9077  -10.4291   21.0395 C   0  0  0  0  0  0
  -24.3623   -9.4208   21.9176 C   0  0  0  0  0  0
  -23.6292   -8.2248   22.0751 C   0  0  0  0  0  0
  -22.4274   -8.0280   21.3544 C   0  0  0  0  0  0
  -21.9912   -9.0259   20.4651 C   0  0  0  0  0  0
  -22.7247  -10.2135   20.3053 C   0  0  0  0  0  0
  -21.6858   -6.0734   22.5276 C   0  0  0  0  0  0
  -21.4020   -6.5639   23.8211 C   0  0  0  0  0  0
  -21.3659   -5.6788   24.9171 C   0  0  0  0  0  0
  -21.6040   -4.3050   24.7222 C   0  0  0  0  0  0
  -21.8817   -3.8146   23.4343 C   0  0  0  0  0  0
  -21.9196   -4.6963   22.3399 C   0  0  0  0  0  0
  -22.7817  -13.5224   21.1859 C   0  0  0  0  0  0
  -22.1660   -4.2151   21.0977 F   0  0  0  0  0  0
  -21.5632   -3.4533   25.7735 F   0  0  0  0  0  0
  -29.9949  -13.5064   20.4161 N   0  0  0  0  0  0
  -26.2944  -12.9425   20.3280 N   0  0  0  0  0  0
  -25.9325  -11.6562   20.5739 N   0  0  0  0  0  0
  -22.0467  -12.8215   22.0418 N   0  0  0  0  0  0
  -25.4214  -15.1932   20.4125 N   0  0  0  0  0  0
  -31.8041  -14.8162   20.0903 O   0  0  0  0  0  0
  -21.6638   -6.8875   21.4237 O   0  0  0  0  0  0
  -22.3500  -14.5530   20.6701 O   0  0  0  0  0  0
  -24.6331  -31.8551   23.1993 C   0  0  0  0  0  0
  -25.9158  -32.4753   23.8336 C   0  0  1  0  0  0
  -27.2139  -27.2525   20.1158 C   0  0  0  0  0  0
  -25.5944  -33.8556   24.2261 N   0  0  0  0  0  0
  -23.4292  -30.4803   21.5436 C   0  0  2  0  0  0
  -24.8746  -28.9316   20.1069 C   0  0  0  0  0  0
  -22.7516  -29.4604   22.4911 C   0  0  0  0  0  0
  -18.0296  -28.1395   22.8480 C   0  0  0  0  0  0
  -24.1491  -36.7281   23.2642 C   0  0  0  0  0  0
  -25.9779  -30.7633   21.3829 C   0  0  0  0  0  0
  -26.0482  -29.3870   20.7211 C   0  0  0  0  0  0
  -27.2185  -28.5586   20.7185 C   0  0  0  0  0  0
  -26.0178  -26.8802   19.4577 C   0  0  0  0  0  0
  -24.8652  -27.6867   19.4652 C   0  0  0  0  0  0
  -23.6463  -29.8188   20.1584 C   0  0  0  0  0  0
  -25.4117  -36.3068   24.0329 C   0  0  1  0  0  0
  -20.5903  -28.3701   23.1263 C   0  0  2  0  0  0
  -20.6780  -26.9416   22.5405 C   0  0  0  0  0  0
  -19.5753  -26.6386   21.5211 C   0  0  0  0  0  0
  -18.1935  -26.7935   22.1625 C   0  0  0  0  0  0
  -19.1550  -28.8866   23.2867 C   0  0  0  0  0  0
  -18.9469  -30.1467   23.8884 C   0  0  0  0  0  0
  -17.6466  -30.6589   24.0562 C   0  0  0  0  0  0
  -25.9055  -34.9438   23.5096 C   0  0  0  0  0  0
  -16.5356  -29.9084   23.6333 C   0  0  0  0  0  0
  -16.7282  -28.6506   23.0346 C   0  0  0  0  0  0
  -26.4508  -31.6580   25.0732 C   0  0  0  0  0  0
  -25.3719  -31.3747   26.1443 C   0  0  0  0  0  0
  -27.0361  -30.2991   24.6248 C   0  0  0  0  0  0
  -27.6059  -32.4326   25.7506 C   0  0  0  0  0  0
  -27.5576  -37.1804   24.8468 C   0  0  0  0  0  0
  -21.4221  -29.3047   22.3652 N   0  0  0  0  0  0
  -26.4296  -37.3761   23.9398 N   0  0  0  0  0  0
  -24.6993  -31.0508   22.0978 N   0  0  0  0  0  0
  -23.4212  -28.8140   23.3010 O   0  0  0  0  0  0
  -28.2967  -26.3370   20.1897 O   0  0  0  0  0  0
  -26.5626  -34.8916   22.4663 O   0  0  0  0  0  0
  -23.5477  -32.1383   23.7282 O   0  0  0  0  0  0
  -29.9722  -19.6270   18.4086 C   0  0  0  0  0  0
  -29.5375  -18.4998   20.5171 C   0  0  0  0  0  0
  -30.3891  -17.2195   18.6256 C   0  0  0  0  0  0
  -29.5433  -19.7481   19.7530 C   0  0  0  0  0  0
  -30.3906  -18.3992   17.8553 C   0  0  0  0  0  0
  -29.9563  -17.2070   19.9731 C   0  0  0  0  0  0
  -28.7054  -22.9968   21.6295 C   0  0  0  0  0  0
  -29.2138  -21.5195   21.6051 C   0  0  0  0  0  0
  -28.8929  -22.3036   19.3858 C   0  0  0  0  0  0
  -29.0239  -23.6384   20.2544 C   0  0  2  0  0  0
  -30.4860  -24.1167   20.2016 C   0  0  0  0  0  0
  -28.0699  -24.8885   19.8265 C   0  0  0  0  0  0
  -29.1516  -21.0777   20.2175 N   0  0  0  0  0  0
  -30.8020  -18.3472   16.5206 N   0  0  0  0  0  0
  -29.8712  -15.8832   20.6562 N   0  0  0  0  0  0
  -31.4737  -12.5411   19.1877 H   0  0  0  0  0  0
  -30.3527  -11.4617   19.9660 H   0  0  0  0  0  0
  -29.7941  -11.7335   17.5236 H   0  0  0  0  0  0
  -29.6489  -13.4615   17.7325 H   0  0  0  0  0  0
  -27.8853  -11.2886   18.9074 H   0  0  0  0  0  0
  -27.3850  -12.5377   17.7989 H   0  0  0  0  0  0
  -27.6414  -14.2568   19.4714 H   0  0  0  0  0  0
  -28.7119  -12.1747   21.4384 H   0  0  0  0  0  0
  -28.4226  -13.8583   21.7942 H   0  0  0  0  0  0
  -25.2770   -9.5685   22.4747 H   0  0  0  0  0  0
  -24.0007   -7.4639   22.7465 H   0  0  0  0  0  0
  -21.0848   -8.8780   19.8955 H   0  0  0  0  0  0
  -22.3708  -10.9668   19.6160 H   0  0  0  0  0  0
  -21.2017   -7.6144   23.9714 H   0  0  0  0  0  0
  -21.1481   -6.0517   25.9073 H   0  0  0  0  0  0
  -22.0600   -2.7610   23.2838 H   0  0  0  0  0  0
  -22.4089  -11.9881   22.4805 H   0  0  0  0  0  0
  -21.1083  -13.1239   22.2619 H   0  0  0  0  0  0
  -24.6551  -15.8475   20.5262 H   0  0  0  0  0  0
  -26.2714  -15.6329   20.0832 H   0  0  0  0  0  0
  -26.7221  -32.5397   23.1071 H   0  0  0  0  0  0
  -25.0071  -33.9681   25.0394 H   0  0  0  0  0  0
  -22.7259  -31.3034   21.4005 H   0  0  0  0  0  0
  -23.3744  -35.9623   23.3324 H   0  0  0  0  0  0
  -24.3574  -36.8882   22.2050 H   0  0  0  0  0  0
  -23.7263  -37.6500   23.6648 H   0  0  0  0  0  0
  -26.1225  -31.5253   20.6157 H   0  0  0  0  0  0
  -26.8537  -30.8078   22.0186 H   0  0  0  0  0  0
  -28.1134  -28.8987   21.2207 H   0  0  0  0  0  0
  -25.9304  -25.9390   18.9371 H   0  0  0  0  0  0
  -23.9693  -27.3353   18.9713 H   0  0  0  0  0  0
  -23.7698  -30.5972   19.4049 H   0  0  0  0  0  0
  -22.7637  -29.2541   19.8524 H   0  0  0  0  0  0
  -25.1302  -36.1916   25.0824 H   0  0  0  0  0  0
  -20.9996  -28.3283   24.1384 H   0  0  0  0  0  0
  -20.5680  -26.2311   23.3611 H   0  0  0  0  0  0
  -21.6649  -26.7436   22.1199 H   0  0  0  0  0  0
  -19.6909  -25.6294   21.1246 H   0  0  0  0  0  0
  -19.6693  -27.3191   20.6735 H   0  0  0  0  0  0
  -17.4203  -26.6681   21.4029 H   0  0  0  0  0  0
  -18.0337  -26.0087   22.9032 H   0  0  0  0  0  0
  -19.7945  -30.7291   24.2247 H   0  0  0  0  0  0
  -17.5018  -31.6268   24.5169 H   0  0  0  0  0  0
  -15.5354  -30.2976   23.7670 H   0  0  0  0  0  0
  -15.8685  -28.0825   22.7056 H   0  0  0  0  0  0
  -24.5891  -30.7100   25.7768 H   0  0  0  0  0  0
  -24.8910  -32.2922   26.4842 H   0  0  0  0  0  0
  -25.8016  -30.8936   27.0238 H   0  0  0  0  0  0
  -26.2956  -29.6731   24.1255 H   0  0  0  0  0  0
  -27.4005  -29.7266   25.4788 H   0  0  0  0  0  0
  -27.8850  -30.4249   23.9526 H   0  0  0  0  0  0
  -27.2665  -33.3637   26.2057 H   0  0  0  0  0  0
  -28.3877  -32.6871   25.0338 H   0  0  0  0  0  0
  -28.0716  -31.8471   26.5444 H   0  0  0  0  0  0
  -28.2610  -38.0082   24.7475 H   0  0  0  0  0  0
  -28.1056  -36.2610   24.6342 H   0  0  0  0  0  0
  -27.2290  -37.1517   25.8874 H   0  0  0  0  0  0
  -20.9410  -29.8769   21.6853 H   0  0  0  0  0  0
  -26.0180  -38.2845   24.1363 H   0  0  0  0  0  0
  -29.9956  -20.4932   17.7668 H   0  0  0  0  0  0
  -29.1895  -18.5311   21.5394 H   0  0  0  0  0  0
  -30.6971  -16.2972   18.1525 H   0  0  0  0  0  0
  -29.1231  -23.5621   22.4626 H   0  0  0  0  0  0
  -27.6247  -22.9831   21.7766 H   0  0  0  0  0  0
  -28.6176  -20.8821   22.2593 H   0  0  0  0  0  0
  -30.2494  -21.4680   21.9431 H   0  0  0  0  0  0
  -29.5555  -22.3687   18.5232 H   0  0  0  0  0  0
  -27.8781  -22.2282   18.9900 H   0  0  0  0  0  0
  -31.1836  -23.3185   20.4562 H   0  0  0  0  0  0
  -30.6567  -24.9400   20.8951 H   0  0  0  0  0  0
  -30.7449  -24.4711   19.2034 H   0  0  0  0  0  0
  -27.0738  -24.6005   20.1635 H   0  0  0  0  0  0
  -28.0239  -24.8771   18.7363 H   0  0  0  0  0  0
  -30.5512  -19.1084   15.8956 H   0  0  0  0  0  0
  -30.8412  -17.4483   16.0491 H   0  0  0  0  0  0
  -29.0209  -15.7284   21.1771 H   0  0  0  0  0  0
  1 25  1  0  0  0
  1 30  2  0  0  0
  1 85  1  0  0  0
  2  3  1  0  0  0
  2 25  1  0  0  0
  2 86  1  0  0  0
  2 87  1  0  0  0
  3  4  1  0  0  0
  3 88  1  0  0  0
  3 89  1  0  0  0
  4  5  1  0  0  0
  4 90  1  0  0  0
  4 91  1  0  0  0
  5  6  1  0  0  0
  5 26  1  0  0  0
  5 92  1  0  0  0
  6 25  1  0  0  0
  6 93  1  0  0  0
  6 94  1  0  0  0
  7  8  2  0  0  0
  7 26  1  0  0  0
  7 29  1  0  0  0
  8  9  1  0  0  0
  8 22  1  0  0  0
  9 10  1  0  0  0
  9 27  2  0  0  0
 10 11  2  0  0  0
 10 15  1  0  0  0
 11 12  1  0  0  0
 11 95  1  0  0  0
 12 13  2  0  0  0
 12 96  1  0  0  0
 13 14  1  0  0  0
 13 31  1  0  0  0
 14 15  2  0  0  0
 14 97  1  0  0  0
 15 98  1  0  0  0
 16 17  2  0  0  0
 16 21  1  0  0  0
 16 31  1  0  0  0
 17 18  1  0  0  0
 17 99  1  0  0  0
 18 19  2  0  0  0
 18100  1  0  0  0
 19 20  1  0  0  0
 19 24  1  0  0  0
 20 21  2  0  0  0
 20101  1  0  0  0
 21 23  1  0  0  0
 22 28  1  0  0  0
 22 32  2  0  0  0
 26 27  1  0  0  0
 28102  1  0  0  0
 28103  1  0  0  0
 29104  1  0  0  0
 29105  1  0  0  0
 33 34  1  0  0  0
 33 66  1  0  0  0
 33 70  2  0  0  0
 34 36  1  0  0  0
 34 59  1  0  0  0
 34106  1  0  0  0
 35 44  2  0  0  0
 35 45  1  0  0  0
 35 68  1  0  0  0
 36 56  1  0  0  0
 36107  1  0  0  0
 37 39  1  0  0  0
 37 47  1  0  0  0
 37 66  1  0  0  0
 37108  1  0  0  0
 38 43  2  0  0  0
 38 46  1  0  0  0
 38 47  1  0  0  0
 39 64  1  0  0  0
 39 67  2  0  0  0
 40 52  1  0  0  0
 40 53  2  0  0  0
 40 58  1  0  0  0
 41109  1  0  0  0
 41110  1  0  0  0
 41111  1  0  0  0
 41 48  1  0  0  0
 42 43  1  0  0  0
 42 66  1  0  0  0
 42112  1  0  0  0
 42113  1  0  0  0
 43 44  1  0  0  0
 44114  1  0  0  0
 45 46  2  0  0  0
 45115  1  0  0  0
 46116  1  0  0  0
 47117  1  0  0  0
 47118  1  0  0  0
 48 56  1  0  0  0
 48 65  1  0  0  0
 48119  1  0  0  0
 49 50  1  0  0  0
 49 53  1  0  0  0
 49 64  1  0  0  0
 49120  1  0  0  0
 50 51  1  0  0  0
 50121  1  0  0  0
 50122  1  0  0  0
 51 52  1  0  0  0
 51123  1  0  0  0
 51124  1  0  0  0
 52125  1  0  0  0
 52126  1  0  0  0
 53 54  1  0  0  0
 54 55  2  0  0  0
 54127  1  0  0  0
 55 57  1  0  0  0
 55128  1  0  0  0
 56 69  2  0  0  0
 57 58  2  0  0  0
 57129  1  0  0  0
 58130  1  0  0  0
 59 60  1  0  0  0
 59 61  1  0  0  0
 59 62  1  0  0  0
 60131  1  0  0  0
 60132  1  0  0  0
 60133  1  0  0  0
 61134  1  0  0  0
 61135  1  0  0  0
 61136  1  0  0  0
 62137  1  0  0  0
 62138  1  0  0  0
 62139  1  0  0  0
 63 65  1  0  0  0
 63140  1  0  0  0
 63141  1  0  0  0
 63142  1  0  0  0
 64143  1  0  0  0
 65144  1  0  0  0
 68 82  1  0  0  0
 71 74  2  0  0  0
 71 75  1  0  0  0
 71145  1  0  0  0
 72 74  1  0  0  0
 72 76  2  0  0  0
 72146  1  0  0  0
 73 75  2  0  0  0
 73 76  1  0  0  0
 73147  1  0  0  0
 74 83  1  0  0  0
 75 84  1  0  0  0
 76 85  1  0  0  0
 77 78  1  0  0  0
 77 80  1  0  0  0
 77148  1  0  0  0
 77149  1  0  0  0
 78 83  1  0  0  0
 78150  1  0  0  0
 78151  1  0  0  0
 79 80  1  0  0  0
 79 83  1  0  0  0
 79152  1  0  0  0
 79153  1  0  0  0
 80 81  1  0  0  0
 80 82  1  0  0  0
 81154  1  0  0  0
 81155  1  0  0  0
 81156  1  0  0  0
 82157  1  0  0  0
 82158  1  0  0  0
 84159  1  0  0  0
 84160  1  0  0  0
 85161  1  0  0  0
M  ISO  4   1 100  68 101  82 101  85 100
M  END
> <chiral flag>
0

> <version>
0

> <s_m_source_file>
/data/baiqing/PycharmProjects/Reinvent-master-3.2/result/LINK_invent/BTK/process_docking_weight1_custom_product_contain_oxygen_bond_distance_aromatic_linkinvent_7_9_3/rearranged_h_0148.sdf

> <i_m_source_file_index>
84

> <r_mmod_Potential_Energy-OPLS-2005>
349.997680664062

> <r_mmod_Stretch_Energy-OPLS-2005>
126.849479675293

> <r_mmod_Bend_Energy-OPLS-2005>
211.818771362305

> <r_mmod_Torsional_Energy-OPLS-2005>
301.818115234375

> <r_mmod_Improper_Torsional_Energy-OPLS-2005>
8.0238208770752

> <r_mmod_Van_der_Waal_Energy-OPLS-2005>
141.879455566406

> <r_mmod_Electrostatic_Energy-OPLS-2005>
-289.779479980469

> <r_mmod_Solvation_Energy-OPLS-2005>
-238.013534545898

> <b_mmod_Minimization_Converged-OPLS-2005>
0

> <r_mmod_RMS_Derivative-OPLS-2005>
1.25343775749207

$$$$
84
                    3D
 Structure written by MMmdl.
162171  0  0  1  0            999 V2000
  -30.7291  -14.4899   20.5756 C   0  0  0  0  0  0
  -30.4114  -12.3228   19.4274 C   0  0  0  0  0  0
  -29.4885  -12.5015   18.2050 C   0  0  0  0  0  0
  -28.0125  -12.3426   18.6151 C   0  0  0  0  0  0
  -27.6463  -13.1979   19.8551 C   0  0  2  0  0  0
  -28.6925  -13.0350   20.9840 C   0  0  0  0  0  0
  -25.2522  -13.8144   20.5695 C   0  0  0  0  0  0
  -24.1795  -13.0411   20.9221 C   0  0  0  0  0  0
  -24.6360  -11.6890   20.8762 C   0  0  0  0  0  0
  -23.9043  -10.4289   21.0442 C   0  0  0  0  0  0
  -24.3619   -9.4212   21.9218 C   0  0  0  0  0  0
  -23.6303   -8.2237   22.0757 C   0  0  0  0  0  0
  -22.4285   -8.0269   21.3538 C   0  0  0  0  0  0
  -21.9919   -9.0248   20.4649 C   0  0  0  0  0  0
  -22.7228  -10.2136   20.3073 C   0  0  0  0  0  0
  -21.6846   -6.0734   22.5281 C   0  0  0  0  0  0
  -21.4018   -6.5640   23.8214 C   0  0  0  0  0  0
  -21.3666   -5.6798   24.9179 C   0  0  0  0  0  0
  -21.6034   -4.3057   24.7229 C   0  0  0  0  0  0
  -21.8826   -3.8147   23.4348 C   0  0  0  0  0  0
  -21.9200   -4.6966   22.3405 C   0  0  0  0  0  0
  -22.7822  -13.5235   21.1869 C   0  0  0  0  0  0
  -22.1657   -4.2159   21.0979 F   0  0  0  0  0  0
  -21.5616   -3.4534   25.7747 F   0  0  0  0  0  0
  -30.0228  -13.3304   20.4292 N   0  0  0  0  0  0
  -26.2934  -12.9290   20.3278 N   0  0  0  0  0  0
  -25.9270  -11.6470   20.5747 N   0  0  0  0  0  0
  -22.0463  -12.8231   22.0430 N   0  0  0  0  0  0
  -25.4171  -15.1863   20.4114 N   0  0  0  0  0  0
  -31.8708  -14.6188   20.1235 O   0  0  0  0  0  0
  -21.6618   -6.8884   21.4245 O   0  0  0  0  0  0
  -22.3529  -14.5545   20.6701 O   0  0  0  0  0  0
  -24.6115  -31.8680   23.2121 C   0  0  0  0  0  0
  -25.9022  -32.4823   23.8418 C   0  0  1  0  0  0
  -27.2328  -27.4488   20.1022 C   0  0  0  0  0  0
  -25.5899  -33.8634   24.2336 N   0  0  0  0  0  0
  -23.4001  -30.4920   21.5484 C   0  0  2  0  0  0
  -24.8509  -28.9656   20.1064 C   0  0  0  0  0  0
  -22.7407  -29.4660   22.4966 C   0  0  0  0  0  0
  -18.0274  -28.1378   22.8485 C   0  0  0  0  0  0
  -24.1480  -36.7331   23.2635 C   0  0  0  0  0  0
  -25.9270  -30.8361   21.3677 C   0  0  0  0  0  0
  -26.0055  -29.4712   20.7199 C   0  0  0  0  0  0
  -27.1989  -28.7149   20.7290 C   0  0  0  0  0  0
  -26.0793  -26.9765   19.4455 C   0  0  0  0  0  0
  -24.8819  -27.7154   19.4644 C   0  0  0  0  0  0
  -23.6085  -29.8248   20.1623 C   0  0  0  0  0  0
  -25.4101  -36.3129   24.0329 C   0  0  1  0  0  0
  -20.5860  -28.3667   23.1314 C   0  0  2  0  0  0
  -20.6763  -26.9392   22.5423 C   0  0  0  0  0  0
  -19.5743  -26.6371   21.5228 C   0  0  0  0  0  0
  -18.1921  -26.7906   22.1645 C   0  0  0  0  0  0
  -19.1521  -28.8843   23.2892 C   0  0  0  0  0  0
  -18.9457  -30.1443   23.8912 C   0  0  0  0  0  0
  -17.6460  -30.6580   24.0560 C   0  0  0  0  0  0
  -25.9036  -34.9482   23.5129 C   0  0  0  0  0  0
  -16.5347  -29.9081   23.6330 C   0  0  0  0  0  0
  -16.7264  -28.6491   23.0354 C   0  0  0  0  0  0
  -26.4467  -31.6598   25.0734 C   0  0  0  0  0  0
  -25.3744  -31.3709   26.1490 C   0  0  0  0  0  0
  -27.0269  -30.3027   24.6082 C   0  0  0  0  0  0
  -27.6042  -32.4319   25.7486 C   0  0  0  0  0  0
  -27.5573  -37.1821   24.8456 C   0  0  0  0  0  0
  -21.4132  -29.3039   22.3723 N   0  0  0  0  0  0
  -26.4291  -37.3807   23.9410 N   0  0  0  0  0  0
  -24.6637  -31.0799   22.1013 N   0  0  0  0  0  0
  -23.4186  -28.8194   23.2997 O   0  0  0  0  0  0
  -28.3560  -26.6542   20.1095 O   0  0  0  0  0  0
  -26.5578  -34.8913   22.4676 O   0  0  0  0  0  0
  -23.5316  -32.1423   23.7530 O   0  0  0  0  0  0
  -28.5454  -18.9168   20.5597 C   0  0  0  0  0  0
  -29.1933  -17.6843   20.8630 C   0  0  0  0  0  0
  -30.2422  -17.8128   21.6825 C   0  0  0  0  0  0
  -29.1399  -19.9807   21.2100 C   0  0  0  0  0  0
  -27.1961  -24.1351   21.1671 C   0  0  0  0  0  0
  -26.7146  -22.8663   21.1911 C   0  0  0  0  0  0
  -28.5036  -24.6753   21.6003 C   0  0  0  0  0  0
  -29.0057  -16.2482   20.5279 C   0  0  0  0  0  0
  -30.8937  -16.5219   21.9981 C   0  0  0  0  0  0
  -25.3172  -22.6116   20.6503 C   0  0  0  0  0  0
  -27.2618  -21.4524   23.2256 C   0  0  0  0  0  0
  -28.7544  -26.1919   21.4112 C   0  0  0  0  0  0
  -27.3725  -21.5789   21.6978 C   0  0  2  0  0  0
  -30.1166  -15.5240   21.2102 N   0  0  0  0  0  0
  -28.7263  -21.3167   21.2278 N   0  0  0  0  0  0
  -29.3753  -23.9953   22.1493 O   0  0  0  0  0  0
  -30.5297  -19.4614   22.1617 S   0  0  0  0  0  0
  -31.4562  -12.4120   19.1242 H   0  0  0  0  0  0
  -30.3055  -11.3196   19.8447 H   0  0  0  0  0  0
  -29.7402  -11.7756   17.4293 H   0  0  0  0  0  0
  -29.6453  -13.4863   17.7650 H   0  0  0  0  0  0
  -27.8349  -11.2885   18.8283 H   0  0  0  0  0  0
  -27.3609  -12.5945   17.7772 H   0  0  0  0  0  0
  -27.6552  -14.2256   19.5036 H   0  0  0  0  0  0
  -28.6750  -12.0144   21.3685 H   0  0  0  0  0  0
  -28.4470  -13.6689   21.8382 H   0  0  0  0  0  0
  -25.2788   -9.5693   22.4775 H   0  0  0  0  0  0
  -24.0029   -7.4638   22.7472 H   0  0  0  0  0  0
  -21.0848   -8.8764   19.8960 H   0  0  0  0  0  0
  -22.3707  -10.9669   19.6168 H   0  0  0  0  0  0
  -21.1989   -7.6150   23.9720 H   0  0  0  0  0  0
  -21.1485   -6.0519   25.9086 H   0  0  0  0  0  0
  -22.0603   -2.7614   23.2831 H   0  0  0  0  0  0
  -22.4085  -11.9887   22.4808 H   0  0  0  0  0  0
  -21.1078  -13.1247   22.2630 H   0  0  0  0  0  0
  -24.6492  -15.8364   20.5459 H   0  0  0  0  0  0
  -26.2556  -15.6303   20.0649 H   0  0  0  0  0  0
  -26.7099  -32.5537   23.1197 H   0  0  0  0  0  0
  -25.0091  -33.9801   25.0504 H   0  0  0  0  0  0
  -22.6885  -31.3091   21.4111 H   0  0  0  0  0  0
  -23.3728  -35.9687   23.3316 H   0  0  0  0  0  0
  -24.3584  -36.8920   22.2050 H   0  0  0  0  0  0
  -23.7238  -37.6546   23.6629 H   0  0  0  0  0  0
  -26.0341  -31.6002   20.5963 H   0  0  0  0  0  0
  -26.8195  -30.8976   21.9782 H   0  0  0  0  0  0
  -28.0870  -29.0988   21.2099 H   0  0  0  0  0  0
  -26.0961  -26.0256   18.9305 H   0  0  0  0  0  0
  -24.0006  -27.3271   18.9689 H   0  0  0  0  0  0
  -23.7085  -30.5987   19.4020 H   0  0  0  0  0  0
  -22.7368  -29.2382   19.8673 H   0  0  0  0  0  0
  -25.1279  -36.2007   25.0822 H   0  0  0  0  0  0
  -20.9964  -28.3240   24.1421 H   0  0  0  0  0  0
  -20.5647  -26.2287   23.3633 H   0  0  0  0  0  0
  -21.6630  -26.7426   22.1227 H   0  0  0  0  0  0
  -19.6912  -25.6273   21.1256 H   0  0  0  0  0  0
  -19.6670  -27.3174   20.6752 H   0  0  0  0  0  0
  -17.4182  -26.6648   21.4041 H   0  0  0  0  0  0
  -18.0311  -26.0058   22.9048 H   0  0  0  0  0  0
  -19.7929  -30.7252   24.2287 H   0  0  0  0  0  0
  -17.5010  -31.6270   24.5158 H   0  0  0  0  0  0
  -15.5348  -30.2990   23.7629 H   0  0  0  0  0  0
  -15.8660  -28.0809   22.7073 H   0  0  0  0  0  0
  -24.5890  -30.7087   25.7831 H   0  0  0  0  0  0
  -24.8983  -32.2879   26.4970 H   0  0  0  0  0  0
  -25.8108  -30.8849   27.0223 H   0  0  0  0  0  0
  -26.2792  -29.6837   24.1101 H   0  0  0  0  0  0
  -27.3987  -29.7212   25.4531 H   0  0  0  0  0  0
  -27.8667  -30.4327   23.9251 H   0  0  0  0  0  0
  -27.2646  -33.3595   26.2095 H   0  0  0  0  0  0
  -28.3835  -32.6905   25.0314 H   0  0  0  0  0  0
  -28.0724  -31.8425   26.5378 H   0  0  0  0  0  0
  -28.2612  -38.0095   24.7496 H   0  0  0  0  0  0
  -28.1044  -36.2628   24.6302 H   0  0  0  0  0  0
  -27.2288  -37.1498   25.8857 H   0  0  0  0  0  0
  -20.9294  -29.8784   21.6967 H   0  0  0  0  0  0
  -26.0176  -38.2888   24.1417 H   0  0  0  0  0  0
  -27.6802  -18.9773   19.9154 H   0  0  0  0  0  0
  -26.5237  -24.8769   20.7824 H   0  0  0  0  0  0
  -29.0221  -16.1007   19.4458 H   0  0  0  0  0  0
  -28.0480  -15.9073   20.9135 H   0  0  0  0  0  0
  -30.8144  -16.3018   23.0631 H   0  0  0  0  0  0
  -31.9520  -16.5532   21.7334 H   0  0  0  0  0  0
  -25.3770  -22.0119   19.7401 H   0  0  0  0  0  0
  -24.7906  -23.5364   20.4094 H   0  0  0  0  0  0
  -24.7168  -22.0713   21.3836 H   0  0  0  0  0  0
  -26.2342  -21.6115   23.5523 H   0  0  0  0  0  0
  -27.8898  -22.1779   23.7430 H   0  0  0  0  0  0
  -27.5481  -20.4567   23.5672 H   0  0  0  0  0  0
  -29.8210  -26.3838   21.5331 H   0  0  0  0  0  0
  -28.2421  -26.7342   22.2063 H   0  0  0  0  0  0
  -26.7568  -20.7735   21.2907 H   0  0  0  0  0  0
  -29.3874  -22.0081   21.5820 H   0  0  0  0  0  0
  1 25  1  0  0  0
  1 30  2  0  0  0
  1 84  1  0  0  0
  2  3  1  0  0  0
  2 25  1  0  0  0
  2 88  1  0  0  0
  2 89  1  0  0  0
  3  4  1  0  0  0
  3 90  1  0  0  0
  3 91  1  0  0  0
  4  5  1  0  0  0
  4 92  1  0  0  0
  4 93  1  0  0  0
  5  6  1  0  0  0
  5 26  1  0  0  0
  5 94  1  0  0  0
  6 25  1  0  0  0
  6 95  1  0  0  0
  6 96  1  0  0  0
  7  8  2  0  0  0
  7 26  1  0  0  0
  7 29  1  0  0  0
  8  9  1  0  0  0
  8 22  1  0  0  0
  9 10  1  0  0  0
  9 27  2  0  0  0
 10 11  2  0  0  0
 10 15  1  0  0  0
 11 12  1  0  0  0
 11 97  1  0  0  0
 12 13  2  0  0  0
 12 98  1  0  0  0
 13 14  1  0  0  0
 13 31  1  0  0  0
 14 15  2  0  0  0
 14 99  1  0  0  0
 15100  1  0  0  0
 16 17  2  0  0  0
 16 21  1  0  0  0
 16 31  1  0  0  0
 17 18  1  0  0  0
 17101  1  0  0  0
 18 19  2  0  0  0
 18102  1  0  0  0
 19 20  1  0  0  0
 19 24  1  0  0  0
 20 21  2  0  0  0
 20103  1  0  0  0
 21 23  1  0  0  0
 22 28  1  0  0  0
 22 32  2  0  0  0
 26 27  1  0  0  0
 28104  1  0  0  0
 28105  1  0  0  0
 29106  1  0  0  0
 29107  1  0  0  0
 33 34  1  0  0  0
 33 66  1  0  0  0
 33 70  2  0  0  0
 34 36  1  0  0  0
 34 59  1  0  0  0
 34108  1  0  0  0
 35 44  2  0  0  0
 35 45  1  0  0  0
 35 68  1  0  0  0
 36 56  1  0  0  0
 36109  1  0  0  0
 37 39  1  0  0  0
 37 47  1  0  0  0
 37 66  1  0  0  0
 37110  1  0  0  0
 38 43  2  0  0  0
 38 46  1  0  0  0
 38 47  1  0  0  0
 39 64  1  0  0  0
 39 67  2  0  0  0
 40 52  1  0  0  0
 40 53  2  0  0  0
 40 58  1  0  0  0
 41111  1  0  0  0
 41112  1  0  0  0
 41113  1  0  0  0
 41 48  1  0  0  0
 42 43  1  0  0  0
 42 66  1  0  0  0
 42114  1  0  0  0
 42115  1  0  0  0
 43 44  1  0  0  0
 44116  1  0  0  0
 45 46  2  0  0  0
 45117  1  0  0  0
 46118  1  0  0  0
 47119  1  0  0  0
 47120  1  0  0  0
 48 56  1  0  0  0
 48 65  1  0  0  0
 48121  1  0  0  0
 49 50  1  0  0  0
 49 53  1  0  0  0
 49 64  1  0  0  0
 49122  1  0  0  0
 50 51  1  0  0  0
 50123  1  0  0  0
 50124  1  0  0  0
 51 52  1  0  0  0
 51125  1  0  0  0
 51126  1  0  0  0
 52127  1  0  0  0
 52128  1  0  0  0
 53 54  1  0  0  0
 54 55  2  0  0  0
 54129  1  0  0  0
 55 57  1  0  0  0
 55130  1  0  0  0
 56 69  2  0  0  0
 57 58  2  0  0  0
 57131  1  0  0  0
 58132  1  0  0  0
 59 60  1  0  0  0
 59 61  1  0  0  0
 59 62  1  0  0  0
 60133  1  0  0  0
 60134  1  0  0  0
 60135  1  0  0  0
 61136  1  0  0  0
 61137  1  0  0  0
 61138  1  0  0  0
 62139  1  0  0  0
 62140  1  0  0  0
 62141  1  0  0  0
 63 65  1  0  0  0
 63142  1  0  0  0
 63143  1  0  0  0
 63144  1  0  0  0
 64145  1  0  0  0
 65146  1  0  0  0
 68 82  1  0  0  0
 71 72  1  0  0  0
 71 74  2  0  0  0
 71147  1  0  0  0
 72 73  2  0  0  0
 72 78  1  0  0  0
 73 79  1  0  0  0
 73 87  1  0  0  0
 74 85  1  0  0  0
 74 87  1  0  0  0
 75 76  2  0  0  0
 75 77  1  0  0  0
 75148  1  0  0  0
 76 80  1  0  0  0
 76 83  1  0  0  0
 77 82  1  0  0  0
 77 86  2  0  0  0
 78 84  1  0  0  0
 78149  1  0  0  0
 78150  1  0  0  0
 79 84  1  0  0  0
 79151  1  0  0  0
 79152  1  0  0  0
 80153  1  0  0  0
 80154  1  0  0  0
 80155  1  0  0  0
 81156  1  0  0  0
 81157  1  0  0  0
 81158  1  0  0  0
 81 83  1  0  0  0
 82159  1  0  0  0
 82160  1  0  0  0
 83 85  1  0  0  0
 83161  1  0  0  0
 85162  1  0  0  0
M  ISO  4   1 100  68 101  82 101  84 100
M  END
> <chiral flag>
0

> <version>
0

> <s_m_source_file>
/data/baiqing/PycharmProjects/Reinvent-master-3.2/result/LINK_invent/BTK/process_docking_weight1_custom_product_contain_oxygen_bond_distance_aromatic_linkinvent_7_9_3/rearranged_h_0148.sdf

> <i_m_source_file_index>
85

> <r_mmod_Potential_Energy-OPLS-2005>
93.4025955200195

> <r_mmod_Stretch_Energy-OPLS-2005>
43.3215293884277

> <r_mmod_Bend_Energy-OPLS-2005>
190.51252746582

> <r_mmod_Torsional_Energy-OPLS-2005>
294.047973632812

> <r_mmod_Improper_Torsional_Energy-OPLS-2005>
9.65772724151611

> <r_mmod_Van_der_Waal_Energy-OPLS-2005>
125.707557678223

> <r_mmod_Electrostatic_Energy-OPLS-2005>
-371.643371582031

> <r_mmod_Solvation_Energy-OPLS-2005>
-214.740921020508

> <b_mmod_Minimization_Converged-OPLS-2005>
0

> <r_mmod_RMS_Derivative-OPLS-2005>
3.30552506446838

$$$$
85
                    3D
 Structure written by MMmdl.
151159  0  0  1  0            999 V2000
  -30.7074  -14.5024   20.5343 C   0  0  0  0  0  0
  -30.4185  -12.3117   19.4399 C   0  0  0  0  0  0
  -29.4947  -12.4840   18.2163 C   0  0  0  0  0  0
  -28.0188  -12.3415   18.6339 C   0  0  0  0  0  0
  -27.6582  -13.2086   19.8699 C   0  0  2  0  0  0
  -28.7009  -13.0334   20.9985 C   0  0  0  0  0  0
  -25.2584  -13.8171   20.5689 C   0  0  0  0  0  0
  -24.1832  -13.0444   20.9179 C   0  0  0  0  0  0
  -24.6393  -11.6910   20.8743 C   0  0  0  0  0  0
  -23.9062  -10.4291   21.0409 C   0  0  0  0  0  0
  -24.3614   -9.4201   21.9186 C   0  0  0  0  0  0
  -23.6289   -8.2238   22.0755 C   0  0  0  0  0  0
  -22.4273   -8.0278   21.3542 C   0  0  0  0  0  0
  -21.9906   -9.0252   20.4643 C   0  0  0  0  0  0
  -22.7236  -10.2135   20.3055 C   0  0  0  0  0  0
  -21.6851   -6.0735   22.5276 C   0  0  0  0  0  0
  -21.4012   -6.5638   23.8209 C   0  0  0  0  0  0
  -21.3655   -5.6793   24.9171 C   0  0  0  0  0  0
  -21.6046   -4.3055   24.7225 C   0  0  0  0  0  0
  -21.8817   -3.8145   23.4346 C   0  0  0  0  0  0
  -21.9194   -4.6961   22.3401 C   0  0  0  0  0  0
  -22.7857  -13.5236   21.1839 C   0  0  0  0  0  0
  -22.1661   -4.2144   21.0974 F   0  0  0  0  0  0
  -21.5632   -3.4536   25.7736 F   0  0  0  0  0  0
  -30.0302  -13.3237   20.4379 N   0  0  0  0  0  0
  -26.3011  -12.9343   20.3362 N   0  0  0  0  0  0
  -25.9323  -11.6503   20.5784 N   0  0  0  0  0  0
  -22.0509  -12.8214   22.0399 N   0  0  0  0  0  0
  -25.4319  -15.1885   20.4099 N   0  0  0  0  0  0
  -31.8563  -14.6223   20.1019 O   0  0  0  0  0  0
  -21.6637   -6.8876   21.4237 O   0  0  0  0  0  0
  -22.3533  -14.5547   20.6706 O   0  0  0  0  0  0
  -24.6189  -31.8668   23.2093 C   0  0  0  0  0  0
  -25.9085  -32.4815   23.8383 C   0  0  1  0  0  0
  -27.2263  -27.4012   20.0903 C   0  0  0  0  0  0
  -25.5943  -33.8612   24.2313 N   0  0  0  0  0  0
  -23.4067  -30.4916   21.5521 C   0  0  2  0  0  0
  -24.8514  -28.9659   20.1079 C   0  0  0  0  0  0
  -22.7449  -29.4630   22.4981 C   0  0  0  0  0  0
  -18.0273  -28.1371   22.8491 C   0  0  0  0  0  0
  -24.1494  -36.7297   23.2636 C   0  0  0  0  0  0
  -25.9402  -30.8219   21.3691 C   0  0  0  0  0  0
  -26.0165  -29.4564   20.7109 C   0  0  0  0  0  0
  -27.2056  -28.6827   20.7008 C   0  0  0  0  0  0
  -26.0397  -26.9533   19.4566 C   0  0  0  0  0  0
  -24.8607  -27.7159   19.4755 C   0  0  0  0  0  0
  -23.6148  -29.8333   20.1637 C   0  0  0  0  0  0
  -25.4117  -36.3096   24.0328 C   0  0  1  0  0  0
  -20.5866  -28.3654   23.1317 C   0  0  2  0  0  0
  -20.6767  -26.9390   22.5423 C   0  0  0  0  0  0
  -19.5750  -26.6390   21.5204 C   0  0  0  0  0  0
  -18.1925  -26.7920   22.1611 C   0  0  0  0  0  0
  -19.1528  -28.8831   23.2894 C   0  0  0  0  0  0
  -18.9463  -30.1442   23.8898 C   0  0  0  0  0  0
  -17.6466  -30.6586   24.0554 C   0  0  0  0  0  0
  -25.9050  -34.9470   23.5112 C   0  0  0  0  0  0
  -16.5353  -29.9087   23.6330 C   0  0  0  0  0  0
  -16.7262  -28.6499   23.0348 C   0  0  0  0  0  0
  -26.4498  -31.6592   25.0709 C   0  0  0  0  0  0
  -25.3761  -31.3744   26.1467 C   0  0  0  0  0  0
  -27.0292  -30.3012   24.6086 C   0  0  0  0  0  0
  -27.6097  -32.4292   25.7460 C   0  0  0  0  0  0
  -27.5580  -37.1812   24.8473 C   0  0  0  0  0  0
  -21.4167  -29.3019   22.3735 N   0  0  0  0  0  0
  -26.4303  -37.3782   23.9404 N   0  0  0  0  0  0
  -24.6731  -31.0751   22.1011 N   0  0  0  0  0  0
  -23.4220  -28.8161   23.3022 O   0  0  0  0  0  0
  -28.3682  -26.6065   20.1364 O   0  0  0  0  0  0
  -26.5597  -34.8928   22.4669 O   0  0  0  0  0  0
  -23.5374  -32.1445   23.7466 O   0  0  0  0  0  0
  -31.4387  -17.4988   20.4639 C   0  0  0  0  0  0
  -31.1945  -18.9039   20.4145 C   0  0  0  0  0  0
  -30.2545  -16.9051   20.8368 C   0  0  0  0  0  0
  -29.8861  -19.0630   20.7700 C   0  0  0  0  0  0
  -28.7605  -22.7383   20.5986 C   0  0  0  0  0  0
  -29.2488  -24.2084   20.4795 C   0  0  0  0  0  0
  -29.7867  -21.5799   20.5662 C   0  0  0  0  0  0
  -28.1525  -25.1812   19.9560 C   0  0  0  0  0  0
  -29.9940  -15.5639   20.9869 N   0  0  0  0  0  0
  -29.1747  -20.2681   20.8555 N   0  0  0  0  0  0
  -27.5611  -22.4725   20.7447 O   0  0  0  0  0  0
  -29.2849  -17.8603   21.0435 O   0  0  0  0  0  0
  -31.4633  -12.3956   19.1367 H   0  0  0  0  0  0
  -30.3128  -11.3121   19.8638 H   0  0  0  0  0  0
  -29.7368  -11.7408   17.4552 H   0  0  0  0  0  0
  -29.6570  -13.4598   17.7563 H   0  0  0  0  0  0
  -27.8461  -11.2891   18.8643 H   0  0  0  0  0  0
  -27.3612  -12.5799   17.7972 H   0  0  0  0  0  0
  -27.6917  -14.2475   19.5421 H   0  0  0  0  0  0
  -28.6804  -12.0127   21.3831 H   0  0  0  0  0  0
  -28.4640  -13.6734   21.8499 H   0  0  0  0  0  0
  -25.2760   -9.5680   22.4753 H   0  0  0  0  0  0
  -23.9997   -7.4633   22.7475 H   0  0  0  0  0  0
  -21.0834   -8.8771   19.8945 H   0  0  0  0  0  0
  -22.3694  -10.9674   19.6159 H   0  0  0  0  0  0
  -21.2002   -7.6146   23.9707 H   0  0  0  0  0  0
  -21.1480   -6.0523   25.9073 H   0  0  0  0  0  0
  -22.0604   -2.7607   23.2845 H   0  0  0  0  0  0
  -22.4129  -11.9865   22.4761 H   0  0  0  0  0  0
  -21.1135  -13.1239   22.2640 H   0  0  0  0  0  0
  -24.6698  -15.8482   20.5226 H   0  0  0  0  0  0
  -26.2892  -15.6267   20.0971 H   0  0  0  0  0  0
  -26.7151  -32.5506   23.1136 H   0  0  0  0  0  0
  -25.0141  -33.9768   25.0492 H   0  0  0  0  0  0
  -22.6946  -31.3079   21.4169 H   0  0  0  0  0  0
  -23.3765  -35.9624   23.3290 H   0  0  0  0  0  0
  -24.3594  -36.8922   22.2054 H   0  0  0  0  0  0
  -23.7234  -37.6493   23.6665 H   0  0  0  0  0  0
  -26.0585  -31.5905   20.6038 H   0  0  0  0  0  0
  -26.8260  -30.8720   21.9904 H   0  0  0  0  0  0
  -28.1002  -29.0522   21.1841 H   0  0  0  0  0  0
  -25.9914  -26.0079   18.9371 H   0  0  0  0  0  0
  -23.9701  -27.3404   18.9900 H   0  0  0  0  0  0
  -23.7225  -30.6125   19.4080 H   0  0  0  0  0  0
  -22.7368  -29.2559   19.8665 H   0  0  0  0  0  0
  -25.1290  -36.1960   25.0819 H   0  0  0  0  0  0
  -20.9937  -28.3221   24.1435 H   0  0  0  0  0  0
  -20.5679  -26.2251   23.3603 H   0  0  0  0  0  0
  -21.6637  -26.7447   22.1202 H   0  0  0  0  0  0
  -19.6917  -25.6309   21.1224 H   0  0  0  0  0  0
  -19.6691  -27.3206   20.6741 H   0  0  0  0  0  0
  -17.4195  -26.6677   21.4008 H   0  0  0  0  0  0
  -18.0302  -26.0050   22.8988 H   0  0  0  0  0  0
  -19.7943  -30.7246   24.2269 H   0  0  0  0  0  0
  -17.5029  -31.6264   24.5168 H   0  0  0  0  0  0
  -15.5358  -30.2992   23.7660 H   0  0  0  0  0  0
  -15.8657  -28.0834   22.7050 H   0  0  0  0  0  0
  -24.5901  -30.7119   25.7829 H   0  0  0  0  0  0
  -24.9001  -32.2923   26.4920 H   0  0  0  0  0  0
  -25.8107  -30.8916   27.0225 H   0  0  0  0  0  0
  -26.2797  -29.6780   24.1183 H   0  0  0  0  0  0
  -27.4085  -29.7248   25.4537 H   0  0  0  0  0  0
  -27.8648  -30.4288   23.9193 H   0  0  0  0  0  0
  -27.2766  -33.3649   26.1959 H   0  0  0  0  0  0
  -28.3960  -32.6737   25.0306 H   0  0  0  0  0  0
  -28.0686  -31.8433   26.5433 H   0  0  0  0  0  0
  -28.2630  -38.0080   24.7485 H   0  0  0  0  0  0
  -28.1043  -36.2607   24.6348 H   0  0  0  0  0  0
  -27.2294  -37.1520   25.8879 H   0  0  0  0  0  0
  -20.9329  -29.8765   21.6974 H   0  0  0  0  0  0
  -26.0187  -38.2865   24.1395 H   0  0  0  0  0  0
  -32.3731  -17.0075   20.2369 H   0  0  0  0  0  0
  -31.8917  -19.6850   20.1463 H   0  0  0  0  0  0
  -30.1313  -24.2497   19.8410 H   0  0  0  0  0  0
  -29.5629  -24.5210   21.4753 H   0  0  0  0  0  0
  -30.5748  -21.7881   21.2908 H   0  0  0  0  0  0
  -30.2527  -21.5627   19.5801 H   0  0  0  0  0  0
  -27.2233  -24.9141   20.4612 H   0  0  0  0  0  0
  -28.0080  -24.9868   18.8919 H   0  0  0  0  0  0
  -29.0754  -15.3334   21.3319 H   0  0  0  0  0  0
  -28.1830  -20.3165   21.0811 H   0  0  0  0  0  0
  1 25  1  0  0  0
  1 30  2  0  0  0
  1 79  1  0  0  0
  2  3  1  0  0  0
  2 25  1  0  0  0
  2 83  1  0  0  0
  2 84  1  0  0  0
  3  4  1  0  0  0
  3 85  1  0  0  0
  3 86  1  0  0  0
  4  5  1  0  0  0
  4 87  1  0  0  0
  4 88  1  0  0  0
  5  6  1  0  0  0
  5 26  1  0  0  0
  5 89  1  0  0  0
  6 25  1  0  0  0
  6 90  1  0  0  0
  6 91  1  0  0  0
  7  8  2  0  0  0
  7 26  1  0  0  0
  7 29  1  0  0  0
  8  9  1  0  0  0
  8 22  1  0  0  0
  9 10  1  0  0  0
  9 27  2  0  0  0
 10 11  2  0  0  0
 10 15  1  0  0  0
 11 12  1  0  0  0
 11 92  1  0  0  0
 12 13  2  0  0  0
 12 93  1  0  0  0
 13 14  1  0  0  0
 13 31  1  0  0  0
 14 15  2  0  0  0
 14 94  1  0  0  0
 15 95  1  0  0  0
 16 17  2  0  0  0
 16 21  1  0  0  0
 16 31  1  0  0  0
 17 18  1  0  0  0
 17 96  1  0  0  0
 18 19  2  0  0  0
 18 97  1  0  0  0
 19 20  1  0  0  0
 19 24  1  0  0  0
 20 21  2  0  0  0
 20 98  1  0  0  0
 21 23  1  0  0  0
 22 28  1  0  0  0
 22 32  2  0  0  0
 26 27  1  0  0  0
 28 99  1  0  0  0
 28100  1  0  0  0
 29101  1  0  0  0
 29102  1  0  0  0
 33 34  1  0  0  0
 33 66  1  0  0  0
 33 70  2  0  0  0
 34 36  1  0  0  0
 34 59  1  0  0  0
 34103  1  0  0  0
 35 44  2  0  0  0
 35 45  1  0  0  0
 35 68  1  0  0  0
 36 56  1  0  0  0
 36104  1  0  0  0
 37 39  1  0  0  0
 37 47  1  0  0  0
 37 66  1  0  0  0
 37105  1  0  0  0
 38 43  2  0  0  0
 38 46  1  0  0  0
 38 47  1  0  0  0
 39 64  1  0  0  0
 39 67  2  0  0  0
 40 52  1  0  0  0
 40 53  2  0  0  0
 40 58  1  0  0  0
 41106  1  0  0  0
 41107  1  0  0  0
 41108  1  0  0  0
 41 48  1  0  0  0
 42 43  1  0  0  0
 42 66  1  0  0  0
 42109  1  0  0  0
 42110  1  0  0  0
 43 44  1  0  0  0
 44111  1  0  0  0
 45 46  2  0  0  0
 45112  1  0  0  0
 46113  1  0  0  0
 47114  1  0  0  0
 47115  1  0  0  0
 48 56  1  0  0  0
 48 65  1  0  0  0
 48116  1  0  0  0
 49 50  1  0  0  0
 49 53  1  0  0  0
 49 64  1  0  0  0
 49117  1  0  0  0
 50 51  1  0  0  0
 50118  1  0  0  0
 50119  1  0  0  0
 51 52  1  0  0  0
 51120  1  0  0  0
 51121  1  0  0  0
 52122  1  0  0  0
 52123  1  0  0  0
 53 54  1  0  0  0
 54 55  2  0  0  0
 54124  1  0  0  0
 55 57  1  0  0  0
 55125  1  0  0  0
 56 69  2  0  0  0
 57 58  2  0  0  0
 57126  1  0  0  0
 58127  1  0  0  0
 59 60  1  0  0  0
 59 61  1  0  0  0
 59 62  1  0  0  0
 60128  1  0  0  0
 60129  1  0  0  0
 60130  1  0  0  0
 61131  1  0  0  0
 61132  1  0  0  0
 61133  1  0  0  0
 62134  1  0  0  0
 62135  1  0  0  0
 62136  1  0  0  0
 63 65  1  0  0  0
 63137  1  0  0  0
 63138  1  0  0  0
 63139  1  0  0  0
 64140  1  0  0  0
 65141  1  0  0  0
 68 78  1  0  0  0
 71 72  1  0  0  0
 71 73  2  0  0  0
 71142  1  0  0  0
 72 74  2  0  0  0
 72143  1  0  0  0
 73 79  1  0  0  0
 73 82  1  0  0  0
 74 80  1  0  0  0
 74 82  1  0  0  0
 75 76  1  0  0  0
 75 77  1  0  0  0
 75 81  2  0  0  0
 76 78  1  0  0  0
 76144  1  0  0  0
 76145  1  0  0  0
 77 80  1  0  0  0
 77146  1  0  0  0
 77147  1  0  0  0
 78148  1  0  0  0
 78149  1  0  0  0
 79150  1  0  0  0
 80151  1  0  0  0
M  ISO  4   1 100  68 101  78 101  79 100
M  END
> <chiral flag>
0

> <version>
0

> <s_m_source_file>
/data/baiqing/PycharmProjects/Reinvent-master-3.2/result/LINK_invent/BTK/process_docking_weight1_custom_product_contain_oxygen_bond_distance_aromatic_linkinvent_7_9_3/rearranged_h_0148.sdf

> <i_m_source_file_index>
86

> <r_mmod_Potential_Energy-OPLS-2005>
-109.114112854004

> <r_mmod_Stretch_Energy-OPLS-2005>
42.8560981750488

> <r_mmod_Bend_Energy-OPLS-2005>
118.079635620117

> <r_mmod_Torsional_Energy-OPLS-2005>
207.30680847168

> <r_mmod_Improper_Torsional_Energy-OPLS-2005>
3.7457275390625

> <r_mmod_Van_der_Waal_Energy-OPLS-2005>
149.47509765625

> <r_mmod_Electrostatic_Energy-OPLS-2005>
-422.657958984375

> <r_mmod_Solvation_Energy-OPLS-2005>
-228.982284545898

> <b_mmod_Minimization_Converged-OPLS-2005>
0

> <r_mmod_RMS_Derivative-OPLS-2005>
1.72008287906647

$$$$
86
                    3D
 Structure written by MMmdl.
155164  0  0  1  0            999 V2000
  -30.5608  -14.7299   20.5651 C   0  0  0  0  0  0
  -30.4608  -12.4799   19.4431 C   0  0  0  0  0  0
  -29.5150  -12.5517   18.2199 C   0  0  0  0  0  0
  -28.0354  -12.3671   18.6239 C   0  0  0  0  0  0
  -27.6535  -13.2152   19.8660 C   0  0  2  0  0  0
  -28.7029  -13.0054   20.9738 C   0  0  0  0  0  0
  -25.2580  -13.8166   20.5702 C   0  0  0  0  0  0
  -24.1827  -13.0442   20.9197 C   0  0  0  0  0  0
  -24.6389  -11.6907   20.8729 C   0  0  0  0  0  0
  -23.9054  -10.4302   21.0403 C   0  0  0  0  0  0
  -24.3611   -9.4220   21.9183 C   0  0  0  0  0  0
  -23.6292   -8.2253   22.0752 C   0  0  0  0  0  0
  -22.4275   -8.0291   21.3544 C   0  0  0  0  0  0
  -21.9903   -9.0265   20.4650 C   0  0  0  0  0  0
  -22.7229  -10.2143   20.3053 C   0  0  0  0  0  0
  -21.6856   -6.0744   22.5288 C   0  0  0  0  0  0
  -21.4010   -6.5642   23.8226 C   0  0  0  0  0  0
  -21.3659   -5.6787   24.9189 C   0  0  0  0  0  0
  -21.6035   -4.3049   24.7230 C   0  0  0  0  0  0
  -21.8817   -3.8149   23.4350 C   0  0  0  0  0  0
  -21.9192   -4.6969   22.3411 C   0  0  0  0  0  0
  -22.7845  -13.5244   21.1866 C   0  0  0  0  0  0
  -22.1661   -4.2155   21.0984 F   0  0  0  0  0  0
  -21.5634   -3.4531   25.7743 F   0  0  0  0  0  0
  -29.9937  -13.4721   20.4407 N   0  0  0  0  0  0
  -26.2991  -12.9332   20.3315 N   0  0  0  0  0  0
  -25.9312  -11.6487   20.5708 N   0  0  0  0  0  0
  -22.0462  -12.8258   22.0420 N   0  0  0  0  0  0
  -25.4338  -15.1887   20.4161 N   0  0  0  0  0  0
  -31.6977  -14.9272   20.1149 O   0  0  0  0  0  0
  -21.6639   -6.8885   21.4249 O   0  0  0  0  0  0
  -22.3536  -14.5550   20.6707 O   0  0  0  0  0  0
  -24.6304  -31.8554   23.1966 C   0  0  0  0  0  0
  -25.9124  -32.4748   23.8318 C   0  0  1  0  0  0
  -27.2228  -27.2730   20.1350 C   0  0  0  0  0  0
  -25.5904  -33.8550   24.2242 N   0  0  0  0  0  0
  -23.4259  -30.4766   21.5414 C   0  0  2  0  0  0
  -24.8746  -28.9226   20.1125 C   0  0  0  0  0  0
  -22.7488  -29.4595   22.4921 C   0  0  0  0  0  0
  -18.0282  -28.1377   22.8488 C   0  0  0  0  0  0
  -24.1473  -36.7323   23.2643 C   0  0  0  0  0  0
  -25.9703  -30.7742   21.3727 C   0  0  0  0  0  0
  -26.0456  -29.3960   20.7184 C   0  0  0  0  0  0
  -27.2259  -28.5854   20.7149 C   0  0  0  0  0  0
  -26.0324  -26.8684   19.4939 C   0  0  0  0  0  0
  -24.8716  -27.6655   19.4889 C   0  0  0  0  0  0
  -23.6426  -29.8066   20.1589 C   0  0  0  0  0  0
  -25.4095  -36.3078   24.0324 C   0  0  1  0  0  0
  -20.5884  -28.3685   23.1264 C   0  0  2  0  0  0
  -20.6764  -26.9401   22.5404 C   0  0  0  0  0  0
  -19.5743  -26.6369   21.5206 C   0  0  0  0  0  0
  -18.1923  -26.7915   22.1623 C   0  0  0  0  0  0
  -19.1538  -28.8847   23.2867 C   0  0  0  0  0  0
  -18.9470  -30.1446   23.8892 C   0  0  0  0  0  0
  -17.6475  -30.6584   24.0557 C   0  0  0  0  0  0
  -25.9039  -34.9438   23.5094 C   0  0  0  0  0  0
  -16.5362  -29.9086   23.6333 C   0  0  0  0  0  0
  -16.7269  -28.6495   23.0364 C   0  0  0  0  0  0
  -26.4481  -31.6575   25.0717 C   0  0  0  0  0  0
  -25.3679  -31.3745   26.1411 C   0  0  0  0  0  0
  -27.0343  -30.2994   24.6212 C   0  0  0  0  0  0
  -27.6000  -32.4347   25.7507 C   0  0  0  0  0  0
  -27.5564  -37.1811   24.8451 C   0  0  0  0  0  0
  -21.4192  -29.3041   22.3665 N   0  0  0  0  0  0
  -26.4274  -37.3780   23.9398 N   0  0  0  0  0  0
  -24.6948  -31.0526   22.0937 N   0  0  0  0  0  0
  -23.4192  -28.8135   23.3014 O   0  0  0  0  0  0
  -28.3151  -26.3754   20.1662 O   0  0  0  0  0  0
  -26.5628  -34.8930   22.4671 O   0  0  0  0  0  0
  -23.5454  -32.1357   23.7277 O   0  0  0  0  0  0
  -28.7115  -18.4017   23.0006 C   0  0  0  0  0  0
  -28.8500  -19.6274   22.2992 C   0  0  0  0  0  0
  -29.8418  -18.5151   20.2946 C   0  0  0  0  0  0
  -29.1462  -17.2687   22.3189 C   0  0  0  0  0  0
  -29.7129  -17.2606   21.0037 C   0  0  0  0  0  0
  -29.3686  -19.7420   20.9627 C   0  0  0  0  0  0
  -28.6232  -22.2213   20.6227 C   0  0  0  0  0  0
  -29.1589  -15.7741   22.4215 C   0  0  0  0  0  0
  -28.0997  -25.1048   22.1920 C   0  0  0  0  0  0
  -28.9981  -23.7174   20.1713 C   0  0  0  0  0  0
  -28.0761  -24.9706   20.6573 C   0  0  2  0  0  0
  -29.7571  -15.7692   21.0380 N   0  0  0  0  0  0
  -29.4331  -21.1128   20.3810 N   0  0  0  0  0  0
  -27.5256  -22.0654   21.1621 O   0  0  0  0  0  0
  -31.4897  -12.6669   19.1311 H   0  0  0  0  0  0
  -30.4647  -11.4765   19.8697 H   0  0  0  0  0  0
  -29.7999  -11.8032   17.4794 H   0  0  0  0  0  0
  -29.6323  -13.5213   17.7324 H   0  0  0  0  0  0
  -27.8790  -11.3090   18.8387 H   0  0  0  0  0  0
  -27.3823  -12.6059   17.7832 H   0  0  0  0  0  0
  -27.6846  -14.2623   19.5613 H   0  0  0  0  0  0
  -28.7612  -11.9448   21.2248 H   0  0  0  0  0  0
  -28.4140  -13.4604   21.9102 H   0  0  0  0  0  0
  -25.2756   -9.5713   22.4755 H   0  0  0  0  0  0
  -24.0022   -7.4643   22.7459 H   0  0  0  0  0  0
  -21.0836   -8.8773   19.8954 H   0  0  0  0  0  0
  -22.3683  -10.9681   19.6160 H   0  0  0  0  0  0
  -21.1992   -7.6148   23.9739 H   0  0  0  0  0  0
  -21.1483   -6.0514   25.9095 H   0  0  0  0  0  0
  -22.0591   -2.7607   23.2851 H   0  0  0  0  0  0
  -22.4030  -11.9918   22.4838 H   0  0  0  0  0  0
  -21.1080  -13.1308   22.2588 H   0  0  0  0  0  0
  -24.6748  -15.8516   20.5336 H   0  0  0  0  0  0
  -26.2964  -15.6262   20.1182 H   0  0  0  0  0  0
  -26.7188  -32.5415   23.1070 H   0  0  0  0  0  0
  -24.9998  -33.9668   25.0350 H   0  0  0  0  0  0
  -22.7224  -31.2991   21.3942 H   0  0  0  0  0  0
  -23.3714  -35.9681   23.3302 H   0  0  0  0  0  0
  -24.3554  -36.8957   22.2058 H   0  0  0  0  0  0
  -23.7242  -37.6526   23.6677 H   0  0  0  0  0  0
  -26.1024  -31.5346   20.6019 H   0  0  0  0  0  0
  -26.8495  -30.8268   22.0035 H   0  0  0  0  0  0
  -28.1260  -28.9459   21.1940 H   0  0  0  0  0  0
  -25.9836  -25.9103   18.9977 H   0  0  0  0  0  0
  -23.9757  -27.2961   19.0077 H   0  0  0  0  0  0
  -23.7641  -30.5799   19.3990 H   0  0  0  0  0  0
  -22.7617  -29.2352   19.8585 H   0  0  0  0  0  0
  -25.1276  -36.1934   25.0818 H   0  0  0  0  0  0
  -20.9974  -28.3257   24.1384 H   0  0  0  0  0  0
  -20.5635  -26.2307   23.3611 H   0  0  0  0  0  0
  -21.6637  -26.7399   22.1226 H   0  0  0  0  0  0
  -19.6902  -25.6276   21.1244 H   0  0  0  0  0  0
  -19.6678  -27.3170   20.6729 H   0  0  0  0  0  0
  -17.4188  -26.6650   21.4027 H   0  0  0  0  0  0
  -18.0335  -26.0053   22.9019 H   0  0  0  0  0  0
  -19.7954  -30.7245   24.2264 H   0  0  0  0  0  0
  -17.5044  -31.6268   24.5157 H   0  0  0  0  0  0
  -15.5368  -30.3000   23.7658 H   0  0  0  0  0  0
  -15.8660  -28.0808   22.7110 H   0  0  0  0  0  0
  -24.5851  -30.7112   25.7731 H   0  0  0  0  0  0
  -24.8901  -32.2933   26.4818 H   0  0  0  0  0  0
  -25.7954  -30.8918   27.0202 H   0  0  0  0  0  0
  -26.2953  -29.6729   24.1202 H   0  0  0  0  0  0
  -27.3967  -29.7257   25.4756 H   0  0  0  0  0  0
  -27.8836  -30.4266   23.9494 H   0  0  0  0  0  0
  -27.2555  -33.3612   26.2114 H   0  0  0  0  0  0
  -28.3793  -32.6985   25.0339 H   0  0  0  0  0  0
  -28.0694  -31.8478   26.5417 H   0  0  0  0  0  0
  -28.2582  -38.0107   24.7494 H   0  0  0  0  0  0
  -28.1060  -36.2641   24.6282 H   0  0  0  0  0  0
  -27.2295  -37.1469   25.8858 H   0  0  0  0  0  0
  -20.9374  -29.8789   21.6891 H   0  0  0  0  0  0
  -26.0156  -38.2856   24.1395 H   0  0  0  0  0  0
  -28.2732  -18.3497   23.9872 H   0  0  0  0  0  0
  -28.5264  -20.5129   22.8270 H   0  0  0  0  0  0
  -30.2243  -18.5426   19.2841 H   0  0  0  0  0  0
  -28.1303  -15.4222   22.5003 H   0  0  0  0  0  0
  -29.8045  -15.3958   23.2148 H   0  0  0  0  0  0
  -27.3845  -25.8529   22.5356 H   0  0  0  0  0  0
  -29.0858  -25.4031   22.5463 H   0  0  0  0  0  0
  -27.8417  -24.1709   22.6904 H   0  0  0  0  0  0
  -29.0179  -23.7136   19.0818 H   0  0  0  0  0  0
  -30.0258  -23.8996   20.4848 H   0  0  0  0  0  0
  -27.0620  -24.6757   20.3938 H   0  0  0  0  0  0
  -30.2082  -21.2789   19.7528 H   0  0  0  0  0  0
  1 25  1  0  0  0
  1 30  2  0  0  0
  1 82  1  0  0  0
  2  3  1  0  0  0
  2 25  1  0  0  0
  2 85  1  0  0  0
  2 86  1  0  0  0
  3  4  1  0  0  0
  3 87  1  0  0  0
  3 88  1  0  0  0
  4  5  1  0  0  0
  4 89  1  0  0  0
  4 90  1  0  0  0
  5  6  1  0  0  0
  5 26  1  0  0  0
  5 91  1  0  0  0
  6 25  1  0  0  0
  6 92  1  0  0  0
  6 93  1  0  0  0
  7  8  2  0  0  0
  7 26  1  0  0  0
  7 29  1  0  0  0
  8  9  1  0  0  0
  8 22  1  0  0  0
  9 10  1  0  0  0
  9 27  2  0  0  0
 10 11  2  0  0  0
 10 15  1  0  0  0
 11 12  1  0  0  0
 11 94  1  0  0  0
 12 13  2  0  0  0
 12 95  1  0  0  0
 13 14  1  0  0  0
 13 31  1  0  0  0
 14 15  2  0  0  0
 14 96  1  0  0  0
 15 97  1  0  0  0
 16 17  2  0  0  0
 16 21  1  0  0  0
 16 31  1  0  0  0
 17 18  1  0  0  0
 17 98  1  0  0  0
 18 19  2  0  0  0
 18 99  1  0  0  0
 19 20  1  0  0  0
 19 24  1  0  0  0
 20 21  2  0  0  0
 20100  1  0  0  0
 21 23  1  0  0  0
 22 28  1  0  0  0
 22 32  2  0  0  0
 26 27  1  0  0  0
 28101  1  0  0  0
 28102  1  0  0  0
 29103  1  0  0  0
 29104  1  0  0  0
 33 34  1  0  0  0
 33 66  1  0  0  0
 33 70  2  0  0  0
 34 36  1  0  0  0
 34 59  1  0  0  0
 34105  1  0  0  0
 35 44  2  0  0  0
 35 45  1  0  0  0
 35 68  1  0  0  0
 36 56  1  0  0  0
 36106  1  0  0  0
 37 39  1  0  0  0
 37 47  1  0  0  0
 37 66  1  0  0  0
 37107  1  0  0  0
 38 43  2  0  0  0
 38 46  1  0  0  0
 38 47  1  0  0  0
 39 64  1  0  0  0
 39 67  2  0  0  0
 40 52  1  0  0  0
 40 53  2  0  0  0
 40 58  1  0  0  0
 41108  1  0  0  0
 41109  1  0  0  0
 41110  1  0  0  0
 41 48  1  0  0  0
 42 43  1  0  0  0
 42 66  1  0  0  0
 42111  1  0  0  0
 42112  1  0  0  0
 43 44  1  0  0  0
 44113  1  0  0  0
 45 46  2  0  0  0
 45114  1  0  0  0
 46115  1  0  0  0
 47116  1  0  0  0
 47117  1  0  0  0
 48 56  1  0  0  0
 48 65  1  0  0  0
 48118  1  0  0  0
 49 50  1  0  0  0
 49 53  1  0  0  0
 49 64  1  0  0  0
 49119  1  0  0  0
 50 51  1  0  0  0
 50120  1  0  0  0
 50121  1  0  0  0
 51 52  1  0  0  0
 51122  1  0  0  0
 51123  1  0  0  0
 52124  1  0  0  0
 52125  1  0  0  0
 53 54  1  0  0  0
 54 55  2  0  0  0
 54126  1  0  0  0
 55 57  1  0  0  0
 55127  1  0  0  0
 56 69  2  0  0  0
 57 58  2  0  0  0
 57128  1  0  0  0
 58129  1  0  0  0
 59 60  1  0  0  0
 59 61  1  0  0  0
 59 62  1  0  0  0
 60130  1  0  0  0
 60131  1  0  0  0
 60132  1  0  0  0
 61133  1  0  0  0
 61134  1  0  0  0
 61135  1  0  0  0
 62136  1  0  0  0
 62137  1  0  0  0
 62138  1  0  0  0
 63 65  1  0  0  0
 63139  1  0  0  0
 63140  1  0  0  0
 63141  1  0  0  0
 64142  1  0  0  0
 65143  1  0  0  0
 68 81  1  0  0  0
 71 72  2  0  0  0
 71 74  1  0  0  0
 71144  1  0  0  0
 72 76  1  0  0  0
 72145  1  0  0  0
 73 75  1  0  0  0
 73 76  2  0  0  0
 73146  1  0  0  0
 74 75  2  0  0  0
 74 78  1  0  0  0
 75 82  1  0  0  0
 76 83  1  0  0  0
 77 80  1  0  0  0
 77 83  1  0  0  0
 77 84  2  0  0  0
 78 82  1  0  0  0
 78147  1  0  0  0
 78148  1  0  0  0
 79149  1  0  0  0
 79150  1  0  0  0
 79151  1  0  0  0
 79 81  1  0  0  0
 80 81  1  0  0  0
 80152  1  0  0  0
 80153  1  0  0  0
 81154  1  0  0  0
 83155  1  0  0  0
M  ISO  4   1 100  68 101  81 101  82 100
M  END
> <chiral flag>
0

> <version>
0

> <s_m_source_file>
/data/baiqing/PycharmProjects/Reinvent-master-3.2/result/LINK_invent/BTK/process_docking_weight1_custom_product_contain_oxygen_bond_distance_aromatic_linkinvent_7_9_3/rearranged_h_0148.sdf

> <i_m_source_file_index>
87

> <r_mmod_Potential_Energy-OPLS-2005>
690.494873046875

> <r_mmod_Stretch_Energy-OPLS-2005>
146.813232421875

> <r_mmod_Bend_Energy-OPLS-2005>
590.292907714844

> <r_mmod_Torsional_Energy-OPLS-2005>
288.074462890625

> <r_mmod_Improper_Torsional_Energy-OPLS-2005>
9.05198383331299

> <r_mmod_Van_der_Waal_Energy-OPLS-2005>
142.572219848633

> <r_mmod_Electrostatic_Energy-OPLS-2005>
-345.842651367188

> <r_mmod_Solvation_Energy-OPLS-2005>
-217.391906738281

> <b_mmod_Minimization_Converged-OPLS-2005>
0

> <r_mmod_RMS_Derivative-OPLS-2005>
1.80281138420105

$$$$
87
                    3D
 Structure written by MMmdl.
157166  0  0  1  0            999 V2000
  -30.5968  -14.6928   20.4996 C   0  0  0  0  0  0
  -30.4457  -12.4265   19.4630 C   0  0  0  0  0  0
  -29.5129  -12.5161   18.2334 C   0  0  0  0  0  0
  -28.0367  -12.3448   18.6441 C   0  0  0  0  0  0
  -27.6536  -13.2194   19.8674 C   0  0  2  0  0  0
  -28.6985  -13.0871   20.9985 C   0  0  0  0  0  0
  -25.2568  -13.8177   20.5700 C   0  0  0  0  0  0
  -24.1831  -13.0440   20.9198 C   0  0  0  0  0  0
  -24.6401  -11.6911   20.8738 C   0  0  0  0  0  0
  -23.9070  -10.4294   21.0404 C   0  0  0  0  0  0
  -24.3617   -9.4211   21.9188 C   0  0  0  0  0  0
  -23.6291   -8.2246   22.0757 C   0  0  0  0  0  0
  -22.4275   -8.0284   21.3544 C   0  0  0  0  0  0
  -21.9908   -9.0260   20.4649 C   0  0  0  0  0  0
  -22.7237  -10.2140   20.3061 C   0  0  0  0  0  0
  -21.6856   -6.0735   22.5278 C   0  0  0  0  0  0
  -21.4014   -6.5639   23.8210 C   0  0  0  0  0  0
  -21.3660   -5.6794   24.9172 C   0  0  0  0  0  0
  -21.6045   -4.3058   24.7225 C   0  0  0  0  0  0
  -21.8819   -3.8146   23.4346 C   0  0  0  0  0  0
  -21.9191   -4.6961   22.3400 C   0  0  0  0  0  0
  -22.7853  -13.5238   21.1854 C   0  0  0  0  0  0
  -22.1662   -4.2142   21.0978 F   0  0  0  0  0  0
  -21.5629   -3.4543   25.7740 F   0  0  0  0  0  0
  -30.0100  -13.4507   20.4362 N   0  0  0  0  0  0
  -26.2996  -12.9357   20.3343 N   0  0  0  0  0  0
  -25.9335  -11.6510   20.5771 N   0  0  0  0  0  0
  -22.0493  -12.8227   22.0408 N   0  0  0  0  0  0
  -25.4296  -15.1896   20.4113 N   0  0  0  0  0  0
  -31.7529  -14.8682   20.1004 O   0  0  0  0  0  0
  -21.6645   -6.8878   21.4240 O   0  0  0  0  0  0
  -22.3536  -14.5544   20.6703 O   0  0  0  0  0  0
  -24.6294  -31.8575   23.2018 C   0  0  0  0  0  0
  -25.9127  -32.4766   23.8352 C   0  0  1  0  0  0
  -27.2190  -27.2808   20.1077 C   0  0  0  0  0  0
  -25.5938  -33.8566   24.2271 N   0  0  0  0  0  0
  -23.4246  -30.4813   21.5463 C   0  0  2  0  0  0
  -24.8700  -28.9389   20.1087 C   0  0  0  0  0  0
  -22.7494  -29.4599   22.4932 C   0  0  0  0  0  0
  -18.0301  -28.1368   22.8480 C   0  0  0  0  0  0
  -24.1490  -36.7286   23.2640 C   0  0  0  0  0  0
  -25.9709  -30.7732   21.3819 C   0  0  0  0  0  0
  -26.0418  -29.3988   20.7218 C   0  0  0  0  0  0
  -27.2160  -28.5804   20.7163 C   0  0  0  0  0  0
  -26.0206  -26.8971   19.4569 C   0  0  0  0  0  0
  -24.8649  -27.6951   19.4662 C   0  0  0  0  0  0
  -23.6399  -29.8210   20.1605 C   0  0  0  0  0  0
  -25.4115  -36.3075   24.0327 C   0  0  1  0  0  0
  -20.5899  -28.3681   23.1274 C   0  0  2  0  0  0
  -20.6788  -26.9400   22.5416 C   0  0  0  0  0  0
  -19.5780  -26.6376   21.5209 C   0  0  0  0  0  0
  -18.1957  -26.7912   22.1617 C   0  0  0  0  0  0
  -19.1549  -28.8842   23.2870 C   0  0  0  0  0  0
  -18.9465  -30.1445   23.8891 C   0  0  0  0  0  0
  -17.6463  -30.6572   24.0548 C   0  0  0  0  0  0
  -25.9057  -34.9445   23.5099 C   0  0  0  0  0  0
  -16.5354  -29.9063   23.6322 C   0  0  0  0  0  0
  -16.7285  -28.6478   23.0351 C   0  0  0  0  0  0
  -26.4502  -31.6582   25.0734 C   0  0  0  0  0  0
  -25.3722  -31.3738   26.1454 C   0  0  0  0  0  0
  -27.0340  -30.2996   24.6207 C   0  0  0  0  0  0
  -27.6055  -32.4322   25.7508 C   0  0  0  0  0  0
  -27.5573  -37.1802   24.8467 C   0  0  0  0  0  0
  -21.4204  -29.3038   22.3673 N   0  0  0  0  0  0
  -26.4289  -37.3770   23.9409 N   0  0  0  0  0  0
  -24.6942  -31.0543   22.0997 N   0  0  0  0  0  0
  -23.4199  -28.8130   23.3019 O   0  0  0  0  0  0
  -28.3259  -26.3977   20.1759 O   0  0  0  0  0  0
  -26.5622  -34.8915   22.4665 O   0  0  0  0  0  0
  -23.5447  -32.1401   23.7311 O   0  0  0  0  0  0
  -28.6169  -19.3523   21.3089 C   0  0  0  0  0  0
  -30.6769  -19.4335   20.0933 C   0  0  0  0  0  0
  -28.7058  -17.9261   21.3441 C   0  0  0  0  0  0
  -30.7726  -17.9992   20.1368 C   0  0  0  0  0  0
  -29.6034  -20.1655   20.6887 C   0  0  0  0  0  0
  -29.7891  -17.1949   20.7806 C   0  0  0  0  0  0
  -30.0400  -22.8141   19.7746 C   0  0  0  0  0  0
  -29.6151  -21.7555   20.8251 C   0  0  1  0  0  0
  -29.0658  -23.8129   20.4833 C   0  0  1  0  0  0
  -28.4470  -24.9538   18.2358 C   0  0  0  0  0  0
  -28.1973  -24.9605   19.7565 C   0  0  2  0  0  0
  -29.7750  -15.7229   20.8996 N   0  0  0  0  0  0
  -28.3505  -22.5416   20.8322 N   0  3  0  0  0  0
  -31.4845  -12.5663   19.1600 H   0  0  0  0  0  0
  -30.3981  -11.4335   19.9124 H   0  0  0  0  0  0
  -29.7863  -11.7592   17.4971 H   0  0  0  0  0  0
  -29.6443  -13.4820   17.7430 H   0  0  0  0  0  0
  -27.8790  -11.2912   18.8792 H   0  0  0  0  0  0
  -27.3800  -12.5676   17.8027 H   0  0  0  0  0  0
  -27.6676  -14.2530   19.5214 H   0  0  0  0  0  0
  -28.7222  -12.0649   21.3791 H   0  0  0  0  0  0
  -28.4324  -13.7117   21.8528 H   0  0  0  0  0  0
  -25.2762   -9.5683   22.4761 H   0  0  0  0  0  0
  -23.9998   -7.4635   22.7473 H   0  0  0  0  0  0
  -21.0841   -8.8778   19.8955 H   0  0  0  0  0  0
  -22.3696  -10.9677   19.6169 H   0  0  0  0  0  0
  -21.2010   -7.6148   23.9708 H   0  0  0  0  0  0
  -21.1484   -6.0528   25.9074 H   0  0  0  0  0  0
  -22.0596   -2.7608   23.2849 H   0  0  0  0  0  0
  -22.4111  -11.9884   22.4786 H   0  0  0  0  0  0
  -21.1115  -13.1244   22.2630 H   0  0  0  0  0  0
  -24.6629  -15.8442   20.5209 H   0  0  0  0  0  0
  -26.2765  -15.6258   20.0688 H   0  0  0  0  0  0
  -26.7187  -32.5422   23.1090 H   0  0  0  0  0  0
  -25.0088  -33.9716   25.0418 H   0  0  0  0  0  0
  -22.7203  -31.3030   21.4039 H   0  0  0  0  0  0
  -23.3751  -35.9620   23.3311 H   0  0  0  0  0  0
  -24.3580  -36.8898   22.2052 H   0  0  0  0  0  0
  -23.7242  -37.6492   23.6654 H   0  0  0  0  0  0
  -26.1081  -31.5342   20.6125 H   0  0  0  0  0  0
  -26.8502  -30.8211   22.0126 H   0  0  0  0  0  0
  -28.1104  -28.9262   21.2162 H   0  0  0  0  0  0
  -25.9267  -25.9618   18.9288 H   0  0  0  0  0  0
  -23.9718  -27.3423   18.9692 H   0  0  0  0  0  0
  -23.7593  -30.5988   19.4058 H   0  0  0  0  0  0
  -22.7591  -29.2511   19.8584 H   0  0  0  0  0  0
  -25.1291  -36.1929   25.0817 H   0  0  0  0  0  0
  -20.9982  -28.3259   24.1396 H   0  0  0  0  0  0
  -20.5656  -26.2294   23.3618 H   0  0  0  0  0  0
  -21.6656  -26.7404   22.1225 H   0  0  0  0  0  0
  -19.6941  -25.6285   21.1250 H   0  0  0  0  0  0
  -19.6731  -27.3186   20.6740 H   0  0  0  0  0  0
  -17.4226  -26.6654   21.4021 H   0  0  0  0  0  0
  -18.0364  -26.0055   22.9018 H   0  0  0  0  0  0
  -19.7941  -30.7263   24.2262 H   0  0  0  0  0  0
  -17.5010  -31.6257   24.5133 H   0  0  0  0  0  0
  -15.5351  -30.2955   23.7647 H   0  0  0  0  0  0
  -15.8692  -28.0785   22.7072 H   0  0  0  0  0  0
  -24.5906  -30.7074   25.7796 H   0  0  0  0  0  0
  -24.8905  -32.2910   26.4850 H   0  0  0  0  0  0
  -25.8041  -30.8945   27.0247 H   0  0  0  0  0  0
  -26.2923  -29.6761   24.1203 H   0  0  0  0  0  0
  -27.3997  -29.7245   25.4725 H   0  0  0  0  0  0
  -27.8815  -30.4281   23.9469 H   0  0  0  0  0  0
  -27.2662  -33.3629   26.2070 H   0  0  0  0  0  0
  -28.3877  -32.6868   25.0344 H   0  0  0  0  0  0
  -28.0708  -31.8454   26.5440 H   0  0  0  0  0  0
  -28.2596  -38.0093   24.7497 H   0  0  0  0  0  0
  -28.1063  -36.2621   24.6315 H   0  0  0  0  0  0
  -27.2292  -37.1478   25.8871 H   0  0  0  0  0  0
  -20.9389  -29.8773   21.6890 H   0  0  0  0  0  0
  -26.0171  -38.2847   24.1401 H   0  0  0  0  0  0
  -27.7783  -19.8173   21.8078 H   0  0  0  0  0  0
  -31.4817  -19.9819   19.6234 H   0  0  0  0  0  0
  -27.9144  -17.3865   21.8459 H   0  0  0  0  0  0
  -31.6280  -17.5247   19.6770 H   0  0  0  0  0  0
  -29.7391  -22.5427   18.7599 H   0  0  0  0  0  0
  -31.0948  -23.0884   19.8070 H   0  0  0  0  0  0
  -30.1463  -21.9586   21.7582 H   0  0  0  0  0  0
  -29.5257  -24.2026   21.3941 H   0  0  0  0  0  0
  -28.1798  -23.9958   17.7900 H   0  0  0  0  0  0
  -29.4978  -25.1458   18.0159 H   0  0  0  0  0  0
  -27.8679  -25.7160   17.7151 H   0  0  0  0  0  0
  -27.1655  -24.6661   19.9372 H   0  0  0  0  0  0
  -28.9165  -15.3613   21.2851 H   0  0  0  0  0  0
  -27.8873  -22.5672   21.7252 H   0  0  0  0  0  0
  -27.7316  -22.2383   20.1002 H   0  0  0  0  0  0
  1 25  1  0  0  0
  1 30  2  0  0  0
  1 82  1  0  0  0
  2  3  1  0  0  0
  2 25  1  0  0  0
  2 84  1  0  0  0
  2 85  1  0  0  0
  3  4  1  0  0  0
  3 86  1  0  0  0
  3 87  1  0  0  0
  4  5  1  0  0  0
  4 88  1  0  0  0
  4 89  1  0  0  0
  5  6  1  0  0  0
  5 26  1  0  0  0
  5 90  1  0  0  0
  6 25  1  0  0  0
  6 91  1  0  0  0
  6 92  1  0  0  0
  7  8  2  0  0  0
  7 26  1  0  0  0
  7 29  1  0  0  0
  8  9  1  0  0  0
  8 22  1  0  0  0
  9 10  1  0  0  0
  9 27  2  0  0  0
 10 11  2  0  0  0
 10 15  1  0  0  0
 11 12  1  0  0  0
 11 93  1  0  0  0
 12 13  2  0  0  0
 12 94  1  0  0  0
 13 14  1  0  0  0
 13 31  1  0  0  0
 14 15  2  0  0  0
 14 95  1  0  0  0
 15 96  1  0  0  0
 16 17  2  0  0  0
 16 21  1  0  0  0
 16 31  1  0  0  0
 17 18  1  0  0  0
 17 97  1  0  0  0
 18 19  2  0  0  0
 18 98  1  0  0  0
 19 20  1  0  0  0
 19 24  1  0  0  0
 20 21  2  0  0  0
 20 99  1  0  0  0
 21 23  1  0  0  0
 22 28  1  0  0  0
 22 32  2  0  0  0
 26 27  1  0  0  0
 28100  1  0  0  0
 28101  1  0  0  0
 29102  1  0  0  0
 29103  1  0  0  0
 33 34  1  0  0  0
 33 66  1  0  0  0
 33 70  2  0  0  0
 34 36  1  0  0  0
 34 59  1  0  0  0
 34104  1  0  0  0
 35 44  2  0  0  0
 35 45  1  0  0  0
 35 68  1  0  0  0
 36 56  1  0  0  0
 36105  1  0  0  0
 37 39  1  0  0  0
 37 47  1  0  0  0
 37 66  1  0  0  0
 37106  1  0  0  0
 38 43  2  0  0  0
 38 46  1  0  0  0
 38 47  1  0  0  0
 39 64  1  0  0  0
 39 67  2  0  0  0
 40 52  1  0  0  0
 40 53  2  0  0  0
 40 58  1  0  0  0
 41107  1  0  0  0
 41108  1  0  0  0
 41109  1  0  0  0
 41 48  1  0  0  0
 42 43  1  0  0  0
 42 66  1  0  0  0
 42110  1  0  0  0
 42111  1  0  0  0
 43 44  1  0  0  0
 44112  1  0  0  0
 45 46  2  0  0  0
 45113  1  0  0  0
 46114  1  0  0  0
 47115  1  0  0  0
 47116  1  0  0  0
 48 56  1  0  0  0
 48 65  1  0  0  0
 48117  1  0  0  0
 49 50  1  0  0  0
 49 53  1  0  0  0
 49 64  1  0  0  0
 49118  1  0  0  0
 50 51  1  0  0  0
 50119  1  0  0  0
 50120  1  0  0  0
 51 52  1  0  0  0
 51121  1  0  0  0
 51122  1  0  0  0
 52123  1  0  0  0
 52124  1  0  0  0
 53 54  1  0  0  0
 54 55  2  0  0  0
 54125  1  0  0  0
 55 57  1  0  0  0
 55126  1  0  0  0
 56 69  2  0  0  0
 57 58  2  0  0  0
 57127  1  0  0  0
 58128  1  0  0  0
 59 60  1  0  0  0
 59 61  1  0  0  0
 59 62  1  0  0  0
 60129  1  0  0  0
 60130  1  0  0  0
 60131  1  0  0  0
 61132  1  0  0  0
 61133  1  0  0  0
 61134  1  0  0  0
 62135  1  0  0  0
 62136  1  0  0  0
 62137  1  0  0  0
 63 65  1  0  0  0
 63138  1  0  0  0
 63139  1  0  0  0
 63140  1  0  0  0
 64141  1  0  0  0
 65142  1  0  0  0
 68 81  1  0  0  0
 71 73  2  0  0  0
 71 75  1  0  0  0
 71143  1  0  0  0
 72 74  1  0  0  0
 72 75  2  0  0  0
 72144  1  0  0  0
 73 76  1  0  0  0
 73145  1  0  0  0
 74 76  2  0  0  0
 74146  1  0  0  0
 75 78  1  0  0  0
 76 82  1  0  0  0
 77 78  1  0  0  0
 77147  1  0  0  0
 77148  1  0  0  0
 77 79  1  0  0  0
 78 83  1  0  0  0
 78149  1  0  0  0
 79 81  1  0  0  0
 79 83  1  0  0  0
 79150  1  0  0  0
 80151  1  0  0  0
 80152  1  0  0  0
 80153  1  0  0  0
 80 81  1  0  0  0
 81154  1  0  0  0
 82155  1  0  0  0
 83156  1  0  0  0
 83157  1  0  0  0
M  CHG  1  83   1
M  ISO  4   1 100  68 101  81 101  82 100
M  END
> <chiral flag>
0

> <version>
0

> <s_m_source_file>
/data/baiqing/PycharmProjects/Reinvent-master-3.2/result/LINK_invent/BTK/process_docking_weight1_custom_product_contain_oxygen_bond_distance_aromatic_linkinvent_7_9_3/rearranged_h_0148.sdf

> <i_m_source_file_index>
88

> <r_mmod_Potential_Energy-OPLS-2005>
-116.960578918457

> <r_mmod_Stretch_Energy-OPLS-2005>
102.123069763184

> <r_mmod_Bend_Energy-OPLS-2005>
185.10009765625

> <r_mmod_Torsional_Energy-OPLS-2005>
229.059020996094

> <r_mmod_Improper_Torsional_Energy-OPLS-2005>
4.18969345092773

> <r_mmod_Van_der_Waal_Energy-OPLS-2005>
146.700744628906

> <r_mmod_Electrostatic_Energy-OPLS-2005>
-354.198760986328

> <r_mmod_Solvation_Energy-OPLS-2005>
-497.789916992188

> <b_mmod_Minimization_Converged-OPLS-2005>
0

> <r_mmod_RMS_Derivative-OPLS-2005>
1.18146443367004

$$$$
88
                    3D
 Structure written by MMmdl.
157166  0  0  1  0            999 V2000
  -30.5689  -14.8027   20.4226 C   0  0  0  0  0  0
  -30.4425  -12.4921   19.4593 C   0  0  0  0  0  0
  -29.5100  -12.4948   18.2283 C   0  0  0  0  0  0
  -28.0408  -12.2994   18.6565 C   0  0  0  0  0  0
  -27.6315  -13.2242   19.8332 C   0  0  2  0  0  0
  -28.6807  -13.1955   20.9637 C   0  0  0  0  0  0
  -25.2510  -13.8174   20.5722 C   0  0  0  0  0  0
  -24.1794  -13.0430   20.9248 C   0  0  0  0  0  0
  -24.6352  -11.6896   20.8735 C   0  0  0  0  0  0
  -23.9015  -10.4280   21.0399 C   0  0  0  0  0  0
  -24.3578   -9.4205   21.9176 C   0  0  0  0  0  0
  -23.6271   -8.2226   22.0739 C   0  0  0  0  0  0
  -22.4271   -8.0244   21.3525 C   0  0  0  0  0  0
  -21.9888   -9.0222   20.4659 C   0  0  0  0  0  0
  -22.7190  -10.2127   20.3047 C   0  0  0  0  0  0
  -21.6847   -6.0728   22.5281 C   0  0  0  0  0  0
  -21.4022   -6.5634   23.8226 C   0  0  0  0  0  0
  -21.3649   -5.6788   24.9177 C   0  0  0  0  0  0
  -21.6038   -4.3044   24.7233 C   0  0  0  0  0  0
  -21.8816   -3.8138   23.4344 C   0  0  0  0  0  0
  -21.9200   -4.6952   22.3410 C   0  0  0  0  0  0
  -22.7820  -13.5229   21.1870 C   0  0  0  0  0  0
  -22.1662   -4.2143   21.0975 F   0  0  0  0  0  0
  -21.5623   -3.4528   25.7746 F   0  0  0  0  0  0
  -29.9667  -13.5631   20.3600 N   0  0  0  0  0  0
  -26.2894  -12.9349   20.3218 N   0  0  0  0  0  0
  -25.9282  -11.6505   20.5699 N   0  0  0  0  0  0
  -22.0418  -12.8254   22.0427 N   0  0  0  0  0  0
  -25.4212  -15.1909   20.4151 N   0  0  0  0  0  0
  -31.7860  -14.8964   20.2392 O   0  0  0  0  0  0
  -21.6614   -6.8857   21.4237 O   0  0  0  0  0  0
  -22.3516  -14.5533   20.6686 O   0  0  0  0  0  0
  -24.6318  -31.8544   23.1973 C   0  0  0  0  0  0
  -25.9132  -32.4751   23.8327 C   0  0  1  0  0  0
  -27.2231  -27.2648   20.1288 C   0  0  0  0  0  0
  -25.5930  -33.8547   24.2253 N   0  0  0  0  0  0
  -23.4290  -30.4780   21.5387 C   0  0  2  0  0  0
  -24.8785  -28.9178   20.1137 C   0  0  0  0  0  0
  -22.7514  -29.4610   22.4895 C   0  0  0  0  0  0
  -18.0298  -28.1389   22.8485 C   0  0  0  0  0  0
  -24.1497  -36.7298   23.2633 C   0  0  0  0  0  0
  -25.9759  -30.7675   21.3780 C   0  0  0  0  0  0
  -26.0498  -29.3876   20.7243 C   0  0  0  0  0  0
  -27.2297  -28.5746   20.7174 C   0  0  0  0  0  0
  -26.0317  -26.8554   19.5024 C   0  0  0  0  0  0
  -24.8747  -27.6583   19.4925 C   0  0  0  0  0  0
  -23.6498  -29.8064   20.1577 C   0  0  0  0  0  0
  -25.4111  -36.3066   24.0329 C   0  0  1  0  0  0
  -20.5909  -28.3708   23.1255 C   0  0  2  0  0  0
  -20.6794  -26.9422   22.5400 C   0  0  0  0  0  0
  -19.5767  -26.6379   21.5205 C   0  0  0  0  0  0
  -18.1940  -26.7936   22.1615 C   0  0  0  0  0  0
  -19.1553  -28.8855   23.2878 C   0  0  0  0  0  0
  -18.9469  -30.1445   23.8905 C   0  0  0  0  0  0
  -17.6473  -30.6592   24.0543 C   0  0  0  0  0  0
  -25.9045  -34.9432   23.5089 C   0  0  0  0  0  0
  -16.5355  -29.9095   23.6315 C   0  0  0  0  0  0
  -16.7279  -28.6503   23.0350 C   0  0  0  0  0  0
  -26.4481  -31.6594   25.0727 C   0  0  0  0  0  0
  -25.3703  -31.3773   26.1460 C   0  0  0  0  0  0
  -27.0315  -30.2999   24.6237 C   0  0  0  0  0  0
  -27.6046  -32.4332   25.7504 C   0  0  0  0  0  0
  -27.5586  -37.1792   24.8451 C   0  0  0  0  0  0
  -21.4224  -29.3063   22.3647 N   0  0  0  0  0  0
  -26.4285  -37.3771   23.9407 N   0  0  0  0  0  0
  -24.6973  -31.0529   22.0935 N   0  0  0  0  0  0
  -23.4204  -28.8131   23.2988 O   0  0  0  0  0  0
  -28.3157  -26.3735   20.0875 O   0  0  0  0  0  0
  -26.5617  -34.8907   22.4657 O   0  0  0  0  0  0
  -23.5461  -32.1364   23.7245 O   0  0  0  0  0  0
  -30.1555  -20.0410   21.7953 C   0  0  0  0  0  0
  -29.3550  -18.5327   20.0658 C   0  0  0  0  0  0
  -30.6389  -17.6281   21.9262 C   0  0  0  0  0  0
  -29.4693  -19.9068   20.5680 C   0  0  0  0  0  0
  -30.7331  -18.9345   22.4520 C   0  0  0  0  0  0
  -29.9368  -17.3605   20.7306 C   0  0  0  0  0  0
  -29.3280  -22.6887   20.4025 C   0  0  0  0  0  0
  -28.3554  -23.6350   20.2680 C   0  0  0  0  0  0
  -27.1532  -22.9264   19.6825 C   0  0  0  0  0  0
  -28.9731  -21.2651   19.8474 C   0  0  2  0  0  0
  -28.2418  -25.1068   20.8828 C   0  0  0  0  0  0
  -31.4141  -19.1431   23.6506 N   0  0  0  0  0  0
  -29.7439  -15.9288   20.3427 N   0  0  0  0  0  0
  -27.5048  -21.4600   19.6878 N   0  3  0  0  0  0
  -31.4761  -12.6544   19.1492 H   0  0  0  0  0  0
  -30.4240  -11.5253   19.9649 H   0  0  0  0  0  0
  -29.8098  -11.7105   17.5330 H   0  0  0  0  0  0
  -29.6187  -13.4359   17.6855 H   0  0  0  0  0  0
  -27.9371  -11.2576   18.9602 H   0  0  0  0  0  0
  -27.3732  -12.4301   17.8028 H   0  0  0  0  0  0
  -27.6127  -14.2356   19.4276 H   0  0  0  0  0  0
  -28.7346  -12.2081   21.4293 H   0  0  0  0  0  0
  -28.4059  -13.8977   21.7538 H   0  0  0  0  0  0
  -25.2712   -9.5730   22.4755 H   0  0  0  0  0  0
  -24.0014   -7.4629   22.7464 H   0  0  0  0  0  0
  -21.0816   -8.8717   19.8981 H   0  0  0  0  0  0
  -22.3603  -10.9643   19.6161 H   0  0  0  0  0  0
  -21.2010   -7.6153   23.9730 H   0  0  0  0  0  0
  -21.1479   -6.0510   25.9088 H   0  0  0  0  0  0
  -22.0606   -2.7592   23.2839 H   0  0  0  0  0  0
  -22.3994  -11.9939   22.4908 H   0  0  0  0  0  0
  -21.1029  -13.1325   22.2551 H   0  0  0  0  0  0
  -24.6588  -15.8464   20.5544 H   0  0  0  0  0  0
  -26.2792  -15.6378   20.1210 H   0  0  0  0  0  0
  -26.7207  -32.5409   23.1082 H   0  0  0  0  0  0
  -25.0076  -33.9685   25.0394 H   0  0  0  0  0  0
  -22.7259  -31.3009   21.3865 H   0  0  0  0  0  0
  -23.3761  -35.9634   23.3270 H   0  0  0  0  0  0
  -24.3598  -36.8928   22.2054 H   0  0  0  0  0  0
  -23.7248  -37.6488   23.6671 H   0  0  0  0  0  0
  -26.1157  -31.5264   20.6070 H   0  0  0  0  0  0
  -26.8544  -30.8202   22.0113 H   0  0  0  0  0  0
  -28.1309  -28.9340   21.1928 H   0  0  0  0  0  0
  -25.9933  -25.8906   19.0190 H   0  0  0  0  0  0
  -23.9795  -27.2932   19.0063 H   0  0  0  0  0  0
  -23.7785  -30.5777   19.3975 H   0  0  0  0  0  0
  -22.7688  -29.2389   19.8517 H   0  0  0  0  0  0
  -25.1294  -36.1913   25.0827 H   0  0  0  0  0  0
  -21.0011  -28.3282   24.1374 H   0  0  0  0  0  0
  -20.5678  -26.2322   23.3603 H   0  0  0  0  0  0
  -21.6658  -26.7444   22.1184 H   0  0  0  0  0  0
  -19.6926  -25.6285   21.1235 H   0  0  0  0  0  0
  -19.6694  -27.3186   20.6723 H   0  0  0  0  0  0
  -17.4211  -26.6678   21.4008 H   0  0  0  0  0  0
  -18.0340  -26.0080   22.9013 H   0  0  0  0  0  0
  -19.7937  -30.7253   24.2300 H   0  0  0  0  0  0
  -17.5017  -31.6276   24.5144 H   0  0  0  0  0  0
  -15.5348  -30.2987   23.7639 H   0  0  0  0  0  0
  -15.8686  -28.0796   22.7094 H   0  0  0  0  0  0
  -24.5834  -30.7176   25.7788 H   0  0  0  0  0  0
  -24.8925  -32.2954   26.4897 H   0  0  0  0  0  0
  -25.7997  -30.8916   27.0241 H   0  0  0  0  0  0
  -26.2897  -29.6771   24.1223 H   0  0  0  0  0  0
  -27.3937  -29.7254   25.4781 H   0  0  0  0  0  0
  -27.8810  -30.4257   23.9518 H   0  0  0  0  0  0
  -27.2652  -33.3618   26.2129 H   0  0  0  0  0  0
  -28.3836  -32.6942   25.0320 H   0  0  0  0  0  0
  -28.0771  -31.8431   26.5380 H   0  0  0  0  0  0
  -28.2582  -38.0110   24.7516 H   0  0  0  0  0  0
  -28.1096  -36.2630   24.6258 H   0  0  0  0  0  0
  -27.2307  -37.1434   25.8853 H   0  0  0  0  0  0
  -20.9417  -29.8797   21.6858 H   0  0  0  0  0  0
  -26.0163  -38.2844   24.1413 H   0  0  0  0  0  0
  -30.2626  -21.0204   22.2412 H   0  0  0  0  0  0
  -28.8227  -18.3821   19.1386 H   0  0  0  0  0  0
  -31.0807  -16.8079   22.4725 H   0  0  0  0  0  0
  -30.2837  -22.8806   20.8638 H   0  0  0  0  0  0
  -26.9740  -23.2965   18.6723 H   0  0  0  0  0  0
  -26.2583  -23.1075   20.2814 H   0  0  0  0  0  0
  -29.4038  -21.2404   18.8449 H   0  0  0  0  0  0
  -29.0636  -25.1781   21.5956 H   0  0  0  0  0  0
  -27.3414  -25.1199   21.5000 H   0  0  0  0  0  0
  -31.2555  -20.0004   24.1719 H   0  0  0  0  0  0
  -31.6082  -18.3445   24.2456 H   0  0  0  0  0  0
  -28.7966  -15.7014   20.0924 H   0  0  0  0  0  0
  -27.1787  -21.0244   18.8412 H   0  0  0  0  0  0
  -27.0372  -21.0234   20.4650 H   0  0  0  0  0  0
  1 25  1  0  0  0
  1 30  2  0  0  0
  1 83  1  0  0  0
  2  3  1  0  0  0
  2 25  1  0  0  0
  2 85  1  0  0  0
  2 86  1  0  0  0
  3  4  1  0  0  0
  3 87  1  0  0  0
  3 88  1  0  0  0
  4  5  1  0  0  0
  4 89  1  0  0  0
  4 90  1  0  0  0
  5  6  1  0  0  0
  5 26  1  0  0  0
  5 91  1  0  0  0
  6 25  1  0  0  0
  6 92  1  0  0  0
  6 93  1  0  0  0
  7  8  2  0  0  0
  7 26  1  0  0  0
  7 29  1  0  0  0
  8  9  1  0  0  0
  8 22  1  0  0  0
  9 10  1  0  0  0
  9 27  2  0  0  0
 10 11  2  0  0  0
 10 15  1  0  0  0
 11 12  1  0  0  0
 11 94  1  0  0  0
 12 13  2  0  0  0
 12 95  1  0  0  0
 13 14  1  0  0  0
 13 31  1  0  0  0
 14 15  2  0  0  0
 14 96  1  0  0  0
 15 97  1  0  0  0
 16 17  2  0  0  0
 16 21  1  0  0  0
 16 31  1  0  0  0
 17 18  1  0  0  0
 17 98  1  0  0  0
 18 19  2  0  0  0
 18 99  1  0  0  0
 19 20  1  0  0  0
 19 24  1  0  0  0
 20 21  2  0  0  0
 20100  1  0  0  0
 21 23  1  0  0  0
 22 28  1  0  0  0
 22 32  2  0  0  0
 26 27  1  0  0  0
 28101  1  0  0  0
 28102  1  0  0  0
 29103  1  0  0  0
 29104  1  0  0  0
 33 34  1  0  0  0
 33 66  1  0  0  0
 33 70  2  0  0  0
 34 36  1  0  0  0
 34 59  1  0  0  0
 34105  1  0  0  0
 35 44  2  0  0  0
 35 45  1  0  0  0
 35 68  1  0  0  0
 36 56  1  0  0  0
 36106  1  0  0  0
 37 39  1  0  0  0
 37 47  1  0  0  0
 37 66  1  0  0  0
 37107  1  0  0  0
 38 43  2  0  0  0
 38 46  1  0  0  0
 38 47  1  0  0  0
 39 64  1  0  0  0
 39 67  2  0  0  0
 40 52  1  0  0  0
 40 53  2  0  0  0
 40 58  1  0  0  0
 41108  1  0  0  0
 41109  1  0  0  0
 41110  1  0  0  0
 41 48  1  0  0  0
 42 43  1  0  0  0
 42 66  1  0  0  0
 42111  1  0  0  0
 42112  1  0  0  0
 43 44  1  0  0  0
 44113  1  0  0  0
 45 46  2  0  0  0
 45114  1  0  0  0
 46115  1  0  0  0
 47116  1  0  0  0
 47117  1  0  0  0
 48 56  1  0  0  0
 48 65  1  0  0  0
 48118  1  0  0  0
 49 50  1  0  0  0
 49 53  1  0  0  0
 49 64  1  0  0  0
 49119  1  0  0  0
 50 51  1  0  0  0
 50120  1  0  0  0
 50121  1  0  0  0
 51 52  1  0  0  0
 51122  1  0  0  0
 51123  1  0  0  0
 52124  1  0  0  0
 52125  1  0  0  0
 53 54  1  0  0  0
 54 55  2  0  0  0
 54126  1  0  0  0
 55 57  1  0  0  0
 55127  1  0  0  0
 56 69  2  0  0  0
 57 58  2  0  0  0
 57128  1  0  0  0
 58129  1  0  0  0
 59 60  1  0  0  0
 59 61  1  0  0  0
 59 62  1  0  0  0
 60130  1  0  0  0
 60131  1  0  0  0
 60132  1  0  0  0
 61133  1  0  0  0
 61134  1  0  0  0
 61135  1  0  0  0
 62136  1  0  0  0
 62137  1  0  0  0
 62138  1  0  0  0
 63 65  1  0  0  0
 63139  1  0  0  0
 63140  1  0  0  0
 63141  1  0  0  0
 64142  1  0  0  0
 65143  1  0  0  0
 68 81  1  0  0  0
 71 74  2  0  0  0
 71 75  1  0  0  0
 71144  1  0  0  0
 72 74  1  0  0  0
 72 76  2  0  0  0
 72145  1  0  0  0
 73 75  2  0  0  0
 73 76  1  0  0  0
 73146  1  0  0  0
 74 80  1  0  0  0
 75 82  1  0  0  0
 76 83  1  0  0  0
 77 78  2  0  0  0
 77 80  1  0  0  0
 77147  1  0  0  0
 78 79  1  0  0  0
 78 81  1  0  0  0
 79 84  1  0  0  0
 79148  1  0  0  0
 79149  1  0  0  0
 80 84  1  0  0  0
 80150  1  0  0  0
 81151  1  0  0  0
 81152  1  0  0  0
 82153  1  0  0  0
 82154  1  0  0  0
 83155  1  0  0  0
 84156  1  0  0  0
 84157  1  0  0  0
M  CHG  1  84   1
M  ISO  4   1 100  68 101  81 101  83 100
M  END
> <chiral flag>
0

> <version>
0

> <s_m_source_file>
/data/baiqing/PycharmProjects/Reinvent-master-3.2/result/LINK_invent/BTK/process_docking_weight1_custom_product_contain_oxygen_bond_distance_aromatic_linkinvent_7_9_3/rearranged_h_0148.sdf

> <i_m_source_file_index>
89

> <r_mmod_Potential_Energy-OPLS-2005>
55.8429145812988

> <r_mmod_Stretch_Energy-OPLS-2005>
126.008407592773

> <r_mmod_Bend_Energy-OPLS-2005>
222.049560546875

> <r_mmod_Torsional_Energy-OPLS-2005>
278.411804199219

> <r_mmod_Improper_Torsional_Energy-OPLS-2005>
12.9749402999878

> <r_mmod_Van_der_Waal_Energy-OPLS-2005>
124.74104309082

> <r_mmod_Electrostatic_Energy-OPLS-2005>
-313.203155517578

> <r_mmod_Solvation_Energy-OPLS-2005>
-498.407379150391

> <b_mmod_Minimization_Converged-OPLS-2005>
0

> <r_mmod_RMS_Derivative-OPLS-2005>
4.28977155685425

$$$$
89
                    3D
 Structure written by MMmdl.
159168  0  0  1  0            999 V2000
  -30.5649  -14.8456   20.4261 C   0  0  0  0  0  0
  -30.4373  -12.5124   19.4938 C   0  0  0  0  0  0
  -29.5189  -12.5169   18.2501 C   0  0  0  0  0  0
  -28.0471  -12.3237   18.6623 C   0  0  0  0  0  0
  -27.6377  -13.2385   19.8470 C   0  0  2  0  0  0
  -28.6793  -13.2124   20.9870 C   0  0  0  0  0  0
  -25.2495  -13.8209   20.5697 C   0  0  0  0  0  0
  -24.1795  -13.0446   20.9213 C   0  0  0  0  0  0
  -24.6394  -11.6926   20.8751 C   0  0  0  0  0  0
  -23.9074  -10.4300   21.0411 C   0  0  0  0  0  0
  -24.3626   -9.4213   21.9185 C   0  0  0  0  0  0
  -23.6299   -8.2248   22.0755 C   0  0  0  0  0  0
  -22.4280   -8.0286   21.3545 C   0  0  0  0  0  0
  -21.9919   -9.0261   20.4647 C   0  0  0  0  0  0
  -22.7247  -10.2140   20.3058 C   0  0  0  0  0  0
  -21.6857   -6.0737   22.5277 C   0  0  0  0  0  0
  -21.4018   -6.5640   23.8211 C   0  0  0  0  0  0
  -21.3660   -5.6792   24.9173 C   0  0  0  0  0  0
  -21.6044   -4.3055   24.7224 C   0  0  0  0  0  0
  -21.8820   -3.8146   23.4345 C   0  0  0  0  0  0
  -21.9196   -4.6964   22.3401 C   0  0  0  0  0  0
  -22.7815  -13.5225   21.1871 C   0  0  0  0  0  0
  -22.1665   -4.2150   21.0979 F   0  0  0  0  0  0
  -21.5628   -3.4537   25.7737 F   0  0  0  0  0  0
  -29.9724  -13.5922   20.4043 N   0  0  0  0  0  0
  -26.2917  -12.9421   20.3259 N   0  0  0  0  0  0
  -25.9326  -11.6559   20.5746 N   0  0  0  0  0  0
  -22.0465  -12.8214   22.0426 N   0  0  0  0  0  0
  -25.4183  -15.1935   20.4115 N   0  0  0  0  0  0
  -31.7541  -14.9325   20.0991 O   0  0  0  0  0  0
  -21.6644   -6.8882   21.4240 O   0  0  0  0  0  0
  -22.3500  -14.5529   20.6715 O   0  0  0  0  0  0
  -24.6370  -31.8483   23.1908 C   0  0  0  0  0  0
  -25.9169  -32.4715   23.8282 C   0  0  1  0  0  0
  -27.2252  -27.1953   20.1355 C   0  0  0  0  0  0
  -25.5940  -33.8520   24.2205 N   0  0  0  0  0  0
  -23.4376  -30.4664   21.5355 C   0  0  2  0  0  0
  -24.8867  -28.9002   20.1069 C   0  0  0  0  0  0
  -22.7532  -29.4557   22.4884 C   0  0  0  0  0  0
  -18.0297  -28.1387   22.8479 C   0  0  0  0  0  0
  -24.1493  -36.7264   23.2641 C   0  0  0  0  0  0
  -25.9874  -30.7394   21.3804 C   0  0  0  0  0  0
  -26.0585  -29.3555   20.7221 C   0  0  0  0  0  0
  -27.2245  -28.5148   20.7251 C   0  0  0  0  0  0
  -26.0255  -26.8185   19.4926 C   0  0  0  0  0  0
  -24.8793  -27.6433   19.4805 C   0  0  0  0  0  0
  -23.6595  -29.7945   20.1535 C   0  0  0  0  0  0
  -25.4122  -36.3045   24.0320 C   0  0  1  0  0  0
  -20.5904  -28.3704   23.1257 C   0  0  2  0  0  0
  -20.6782  -26.9414   22.5412 C   0  0  0  0  0  0
  -19.5761  -26.6378   21.5211 C   0  0  0  0  0  0
  -18.1941  -26.7929   22.1619 C   0  0  0  0  0  0
  -19.1552  -28.8863   23.2862 C   0  0  0  0  0  0
  -18.9470  -30.1459   23.8885 C   0  0  0  0  0  0
  -17.6468  -30.6587   24.0556 C   0  0  0  0  0  0
  -25.9067  -34.9418   23.5069 C   0  0  0  0  0  0
  -16.5359  -29.9079   23.6331 C   0  0  0  0  0  0
  -16.7283  -28.6496   23.0355 C   0  0  0  0  0  0
  -26.4511  -31.6572   25.0706 C   0  0  0  0  0  0
  -25.3710  -31.3752   26.1411 C   0  0  0  0  0  0
  -27.0367  -30.2976   24.6247 C   0  0  0  0  0  0
  -27.6051  -32.4329   25.7487 C   0  0  0  0  0  0
  -27.5579  -37.1787   24.8464 C   0  0  0  0  0  0
  -21.4230  -29.3037   22.3635 N   0  0  0  0  0  0
  -26.4290  -37.3752   23.9405 N   0  0  0  0  0  0
  -24.7066  -31.0384   22.0914 N   0  0  0  0  0  0
  -23.4200  -28.8114   23.3022 O   0  0  0  0  0  0
  -28.3218  -26.2855   20.2395 O   0  0  0  0  0  0
  -26.5648  -34.8910   22.4646 O   0  0  0  0  0  0
  -23.5505  -32.1337   23.7164 O   0  0  0  0  0  0
  -29.0941  -18.6092   20.7638 C   0  0  0  0  0  0
  -30.9365  -17.9386   19.5105 C   0  0  0  0  0  0
  -29.9470  -17.4610   20.3344 C   0  0  0  0  0  0
  -29.4278  -19.9112   20.2894 C   0  0  0  0  0  0
  -28.1765  -22.0860   19.4516 C   0  0  0  0  0  0
  -28.2524  -23.3985   20.3557 C   0  0  2  0  0  0
  -29.4602  -22.5380   20.9748 C   0  0  0  0  0  0
  -27.0235  -23.5970   21.2510 C   0  0  0  0  0  0
  -30.8539  -22.7542   20.3623 C   0  0  0  0  0  0
  -29.6086  -22.4809   22.4976 C   0  0  0  0  0  0
  -28.4119  -24.8833   19.6287 C   0  0  0  0  0  0
  -28.7874  -21.2700   20.5273 N   0  0  0  0  0  0
  -29.7748  -15.9892   20.6565 N   0  0  0  0  0  0
  -30.8203  -19.6839   19.2367 S   0  0  0  0  0  0
  -31.4766  -12.6476   19.1904 H   0  0  0  0  0  0
  -30.4000  -11.5455   19.9981 H   0  0  0  0  0  0
  -29.8185  -11.7313   17.5550 H   0  0  0  0  0  0
  -29.6301  -13.4603   17.7132 H   0  0  0  0  0  0
  -27.9217  -11.2777   18.9443 H   0  0  0  0  0  0
  -27.3893  -12.4891   17.8082 H   0  0  0  0  0  0
  -27.6194  -14.2521   19.4456 H   0  0  0  0  0  0
  -28.7351  -12.2227   21.4427 H   0  0  0  0  0  0
  -28.3959  -13.9007   21.7845 H   0  0  0  0  0  0
  -25.2774   -9.5689   22.4757 H   0  0  0  0  0  0
  -24.0009   -7.4640   22.7476 H   0  0  0  0  0  0
  -21.0847   -8.8779   19.8955 H   0  0  0  0  0  0
  -22.3704  -10.9678   19.6165 H   0  0  0  0  0  0
  -21.2011   -7.6150   23.9716 H   0  0  0  0  0  0
  -21.1479   -6.0522   25.9076 H   0  0  0  0  0  0
  -22.0599   -2.7607   23.2846 H   0  0  0  0  0  0
  -22.4087  -11.9876   22.4809 H   0  0  0  0  0  0
  -21.1082  -13.1233   22.2637 H   0  0  0  0  0  0
  -24.6488  -15.8459   20.5167 H   0  0  0  0  0  0
  -26.2588  -15.6300   20.0550 H   0  0  0  0  0  0
  -26.7231  -32.5339   23.1011 H   0  0  0  0  0  0
  -25.0073  -33.9642   25.0342 H   0  0  0  0  0  0
  -22.7375  -31.2904   21.3835 H   0  0  0  0  0  0
  -23.3762  -35.9589   23.3293 H   0  0  0  0  0  0
  -24.3580  -36.8901   22.2057 H   0  0  0  0  0  0
  -23.7240  -37.6456   23.6679 H   0  0  0  0  0  0
  -26.1353  -31.4973   20.6098 H   0  0  0  0  0  0
  -26.8608  -30.7889   22.0191 H   0  0  0  0  0  0
  -28.1186  -28.8564   21.2276 H   0  0  0  0  0  0
  -25.9312  -25.8500   19.0272 H   0  0  0  0  0  0
  -23.9798  -27.2870   18.9976 H   0  0  0  0  0  0
  -23.7870  -30.5684   19.3957 H   0  0  0  0  0  0
  -22.7767  -29.2300   19.8485 H   0  0  0  0  0  0
  -25.1308  -36.1878   25.0812 H   0  0  0  0  0  0
  -20.9995  -28.3286   24.1378 H   0  0  0  0  0  0
  -20.5671  -26.2311   23.3621 H   0  0  0  0  0  0
  -21.6650  -26.7424   22.1211 H   0  0  0  0  0  0
  -19.6925  -25.6283   21.1253 H   0  0  0  0  0  0
  -19.6706  -27.3177   20.6732 H   0  0  0  0  0  0
  -17.4210  -26.6670   21.4024 H   0  0  0  0  0  0
  -18.0343  -26.0072   22.9016 H   0  0  0  0  0  0
  -19.7944  -30.7277   24.2257 H   0  0  0  0  0  0
  -17.5019  -31.6269   24.5155 H   0  0  0  0  0  0
  -15.5357  -30.2977   23.7663 H   0  0  0  0  0  0
  -15.8683  -28.0807   22.7085 H   0  0  0  0  0  0
  -24.5891  -30.7096   25.7736 H   0  0  0  0  0  0
  -24.8894  -32.2932   26.4791 H   0  0  0  0  0  0
  -25.8002  -30.8957   27.0217 H   0  0  0  0  0  0
  -26.2971  -29.6710   24.1249 H   0  0  0  0  0  0
  -27.3997  -29.7258   25.4797 H   0  0  0  0  0  0
  -27.8868  -30.4227   23.9538 H   0  0  0  0  0  0
  -27.2651  -33.3641   26.2029 H   0  0  0  0  0  0
  -28.3880  -32.6869   25.0329 H   0  0  0  0  0  0
  -28.0699  -31.8478   26.5431 H   0  0  0  0  0  0
  -28.2589  -38.0091   24.7510 H   0  0  0  0  0  0
  -28.1083  -36.2619   24.6291 H   0  0  0  0  0  0
  -27.2296  -37.1433   25.8868 H   0  0  0  0  0  0
  -20.9431  -29.8744   21.6816 H   0  0  0  0  0  0
  -26.0162  -38.2823   24.1407 H   0  0  0  0  0  0
  -28.2501  -18.4381   21.4168 H   0  0  0  0  0  0
  -31.7232  -17.3822   19.0154 H   0  0  0  0  0  0
  -28.7969  -22.1350   18.5544 H   0  0  0  0  0  0
  -27.1604  -21.7812   19.1972 H   0  0  0  0  0  0
  -26.7277  -22.6748   21.7509 H   0  0  0  0  0  0
  -26.1609  -23.9313   20.6748 H   0  0  0  0  0  0
  -27.2106  -24.3426   22.0239 H   0  0  0  0  0  0
  -31.2513  -23.7296   20.6446 H   0  0  0  0  0  0
  -30.8508  -22.7263   19.2729 H   0  0  0  0  0  0
  -31.5752  -22.0153   20.7112 H   0  0  0  0  0  0
  -29.9635  -23.4324   22.8951 H   0  0  0  0  0  0
  -30.3223  -21.7157   22.8049 H   0  0  0  0  0  0
  -28.6693  -22.2539   23.0018 H   0  0  0  0  0  0
  -27.7894  -24.8765   18.7363 H   0  0  0  0  0  0
  -29.4107  -24.8918   19.1932 H   0  0  0  0  0  0
  -28.8673  -15.7550   21.0308 H   0  0  0  0  0  0
  1 25  1  0  0  0
  1 30  2  0  0  0
  1 83  1  0  0  0
  2  3  1  0  0  0
  2 25  1  0  0  0
  2 85  1  0  0  0
  2 86  1  0  0  0
  3  4  1  0  0  0
  3 87  1  0  0  0
  3 88  1  0  0  0
  4  5  1  0  0  0
  4 89  1  0  0  0
  4 90  1  0  0  0
  5  6  1  0  0  0
  5 26  1  0  0  0
  5 91  1  0  0  0
  6 25  1  0  0  0
  6 92  1  0  0  0
  6 93  1  0  0  0
  7  8  2  0  0  0
  7 26  1  0  0  0
  7 29  1  0  0  0
  8  9  1  0  0  0
  8 22  1  0  0  0
  9 10  1  0  0  0
  9 27  2  0  0  0
 10 11  2  0  0  0
 10 15  1  0  0  0
 11 12  1  0  0  0
 11 94  1  0  0  0
 12 13  2  0  0  0
 12 95  1  0  0  0
 13 14  1  0  0  0
 13 31  1  0  0  0
 14 15  2  0  0  0
 14 96  1  0  0  0
 15 97  1  0  0  0
 16 17  2  0  0  0
 16 21  1  0  0  0
 16 31  1  0  0  0
 17 18  1  0  0  0
 17 98  1  0  0  0
 18 19  2  0  0  0
 18 99  1  0  0  0
 19 20  1  0  0  0
 19 24  1  0  0  0
 20 21  2  0  0  0
 20100  1  0  0  0
 21 23  1  0  0  0
 22 28  1  0  0  0
 22 32  2  0  0  0
 26 27  1  0  0  0
 28101  1  0  0  0
 28102  1  0  0  0
 29103  1  0  0  0
 29104  1  0  0  0
 33 34  1  0  0  0
 33 66  1  0  0  0
 33 70  2  0  0  0
 34 36  1  0  0  0
 34 59  1  0  0  0
 34105  1  0  0  0
 35 44  2  0  0  0
 35 45  1  0  0  0
 35 68  1  0  0  0
 36 56  1  0  0  0
 36106  1  0  0  0
 37 39  1  0  0  0
 37 47  1  0  0  0
 37 66  1  0  0  0
 37107  1  0  0  0
 38 43  2  0  0  0
 38 46  1  0  0  0
 38 47  1  0  0  0
 39 64  1  0  0  0
 39 67  2  0  0  0
 40 52  1  0  0  0
 40 53  2  0  0  0
 40 58  1  0  0  0
 41108  1  0  0  0
 41109  1  0  0  0
 41110  1  0  0  0
 41 48  1  0  0  0
 42 43  1  0  0  0
 42 66  1  0  0  0
 42111  1  0  0  0
 42112  1  0  0  0
 43 44  1  0  0  0
 44113  1  0  0  0
 45 46  2  0  0  0
 45114  1  0  0  0
 46115  1  0  0  0
 47116  1  0  0  0
 47117  1  0  0  0
 48 56  1  0  0  0
 48 65  1  0  0  0
 48118  1  0  0  0
 49 50  1  0  0  0
 49 53  1  0  0  0
 49 64  1  0  0  0
 49119  1  0  0  0
 50 51  1  0  0  0
 50120  1  0  0  0
 50121  1  0  0  0
 51 52  1  0  0  0
 51122  1  0  0  0
 51123  1  0  0  0
 52124  1  0  0  0
 52125  1  0  0  0
 53 54  1  0  0  0
 54 55  2  0  0  0
 54126  1  0  0  0
 55 57  1  0  0  0
 55127  1  0  0  0
 56 69  2  0  0  0
 57 58  2  0  0  0
 57128  1  0  0  0
 58129  1  0  0  0
 59 60  1  0  0  0
 59 61  1  0  0  0
 59 62  1  0  0  0
 60130  1  0  0  0
 60131  1  0  0  0
 60132  1  0  0  0
 61133  1  0  0  0
 61134  1  0  0  0
 61135  1  0  0  0
 62136  1  0  0  0
 62137  1  0  0  0
 62138  1  0  0  0
 63 65  1  0  0  0
 63139  1  0  0  0
 63140  1  0  0  0
 63141  1  0  0  0
 64142  1  0  0  0
 65143  1  0  0  0
 68 81  1  0  0  0
 71 73  1  0  0  0
 71 74  2  0  0  0
 71144  1  0  0  0
 72 73  2  0  0  0
 72 84  1  0  0  0
 72145  1  0  0  0
 73 83  1  0  0  0
 74 82  1  0  0  0
 74 84  1  0  0  0
 75 76  1  0  0  0
 75 82  1  0  0  0
 75146  1  0  0  0
 75147  1  0  0  0
 76 77  1  0  0  0
 76 78  1  0  0  0
 76 81  1  0  0  0
 77 79  1  0  0  0
 77 80  1  0  0  0
 77 82  1  0  0  0
 78148  1  0  0  0
 78149  1  0  0  0
 78150  1  0  0  0
 79151  1  0  0  0
 79152  1  0  0  0
 79153  1  0  0  0
 80154  1  0  0  0
 80155  1  0  0  0
 80156  1  0  0  0
 81157  1  0  0  0
 81158  1  0  0  0
 83159  1  0  0  0
M  ISO  4   1 100  68 101  81 101  83 100
M  END
> <chiral flag>
0

> <version>
0

> <s_m_source_file>
/data/baiqing/PycharmProjects/Reinvent-master-3.2/result/LINK_invent/BTK/process_docking_weight1_custom_product_contain_oxygen_bond_distance_aromatic_linkinvent_7_9_3/rearranged_h_0148.sdf

> <i_m_source_file_index>
90

> <r_mmod_Potential_Energy-OPLS-2005>
393.346008300781

> <r_mmod_Stretch_Energy-OPLS-2005>
178.539291381836

> <r_mmod_Bend_Energy-OPLS-2005>
268.520141601562

> <r_mmod_Torsional_Energy-OPLS-2005>
281.2998046875

> <r_mmod_Improper_Torsional_Energy-OPLS-2005>
10.8691720962524

> <r_mmod_Van_der_Waal_Energy-OPLS-2005>
116.342544555664

> <r_mmod_Electrostatic_Energy-OPLS-2005>
-379.118194580078

> <r_mmod_Solvation_Energy-OPLS-2005>
-214.688354492188

> <b_mmod_Minimization_Converged-OPLS-2005>
0

> <r_mmod_RMS_Derivative-OPLS-2005>
0.597341299057007

$$$$
90
                    3D
 Structure written by MMmdl.
147155  0  0  1  0            999 V2000
  -30.5671  -14.8604   20.4302 C   0  0  0  0  0  0
  -30.4407  -12.5259   19.4918 C   0  0  0  0  0  0
  -29.5202  -12.5274   18.2492 C   0  0  0  0  0  0
  -28.0481  -12.3319   18.6608 C   0  0  0  0  0  0
  -27.6389  -13.2423   19.8485 C   0  0  2  0  0  0
  -28.6830  -13.2188   20.9867 C   0  0  0  0  0  0
  -25.2499  -13.8206   20.5715 C   0  0  0  0  0  0
  -24.1798  -13.0438   20.9216 C   0  0  0  0  0  0
  -24.6406  -11.6921   20.8751 C   0  0  0  0  0  0
  -23.9083  -10.4295   21.0408 C   0  0  0  0  0  0
  -24.3629   -9.4205   21.9185 C   0  0  0  0  0  0
  -23.6303   -8.2239   22.0748 C   0  0  0  0  0  0
  -22.4282   -8.0286   21.3544 C   0  0  0  0  0  0
  -21.9923   -9.0261   20.4645 C   0  0  0  0  0  0
  -22.7254  -10.2138   20.3058 C   0  0  0  0  0  0
  -21.6849   -6.0743   22.5283 C   0  0  0  0  0  0
  -21.4015   -6.5644   23.8217 C   0  0  0  0  0  0
  -21.3659   -5.6793   24.9177 C   0  0  0  0  0  0
  -21.6043   -4.3056   24.7224 C   0  0  0  0  0  0
  -21.8818   -3.8152   23.4343 C   0  0  0  0  0  0
  -21.9191   -4.6971   22.3400 C   0  0  0  0  0  0
  -22.7816  -13.5214   21.1877 C   0  0  0  0  0  0
  -22.1658   -4.2157   21.0978 F   0  0  0  0  0  0
  -21.5626   -3.4540   25.7736 F   0  0  0  0  0  0
  -29.9737  -13.6059   20.4015 N   0  0  0  0  0  0
  -26.2931  -12.9431   20.3276 N   0  0  0  0  0  0
  -25.9340  -11.6564   20.5748 N   0  0  0  0  0  0
  -22.0466  -12.8207   22.0438 N   0  0  0  0  0  0
  -25.4173  -15.1937   20.4156 N   0  0  0  0  0  0
  -31.7578  -14.9454   20.1118 O   0  0  0  0  0  0
  -21.6634   -6.8890   21.4247 O   0  0  0  0  0  0
  -22.3497  -14.5517   20.6723 O   0  0  0  0  0  0
  -24.6389  -31.8488   23.1935 C   0  0  0  0  0  0
  -25.9183  -32.4721   23.8305 C   0  0  1  0  0  0
  -27.2172  -27.1950   20.1388 C   0  0  0  0  0  0
  -25.5947  -33.8523   24.2221 N   0  0  0  0  0  0
  -23.4412  -30.4705   21.5369 C   0  0  2  0  0  0
  -24.8935  -28.9123   20.1049 C   0  0  0  0  0  0
  -22.7554  -29.4568   22.4865 C   0  0  0  0  0  0
  -18.0303  -28.1395   22.8476 C   0  0  0  0  0  0
  -24.1490  -36.7272   23.2636 C   0  0  0  0  0  0
  -25.9939  -30.7400   21.3868 C   0  0  0  0  0  0
  -26.0688  -29.3577   20.7264 C   0  0  0  0  0  0
  -27.2361  -28.5113   20.7355 C   0  0  0  0  0  0
  -26.0261  -26.8475   19.4665 C   0  0  0  0  0  0
  -24.8813  -27.6678   19.4594 C   0  0  0  0  0  0
  -23.6659  -29.8053   20.1535 C   0  0  0  0  0  0
  -25.4119  -36.3050   24.0315 C   0  0  1  0  0  0
  -20.5915  -28.3717   23.1240 C   0  0  2  0  0  0
  -20.6788  -26.9421   22.5405 C   0  0  0  0  0  0
  -19.5763  -26.6380   21.5213 C   0  0  0  0  0  0
  -18.1945  -26.7931   22.1626 C   0  0  0  0  0  0
  -19.1559  -28.8873   23.2853 C   0  0  0  0  0  0
  -18.9478  -30.1470   23.8877 C   0  0  0  0  0  0
  -17.6475  -30.6591   24.0560 C   0  0  0  0  0  0
  -25.9065  -34.9421   23.5076 C   0  0  0  0  0  0
  -16.5366  -29.9085   23.6333 C   0  0  0  0  0  0
  -16.7289  -28.6506   23.0350 C   0  0  0  0  0  0
  -26.4516  -31.6569   25.0726 C   0  0  0  0  0  0
  -25.3712  -31.3755   26.1430 C   0  0  0  0  0  0
  -27.0363  -30.2962   24.6282 C   0  0  0  0  0  0
  -27.6055  -32.4322   25.7509 C   0  0  0  0  0  0
  -27.5576  -37.1796   24.8463 C   0  0  0  0  0  0
  -21.4248  -29.3049   22.3617 N   0  0  0  0  0  0
  -26.4289  -37.3758   23.9406 N   0  0  0  0  0  0
  -24.7103  -31.0395   22.0943 N   0  0  0  0  0  0
  -23.4215  -28.8104   23.2992 O   0  0  0  0  0  0
  -28.2109  -26.1666   20.2202 O   0  0  0  0  0  0
  -26.5645  -34.8907   22.4650 O   0  0  0  0  0  0
  -23.5520  -32.1334   23.7191 O   0  0  0  0  0  0
  -29.1064  -18.5176   20.7514 C   0  0  0  0  0  0
  -30.7461  -19.7771   19.6851 C   0  0  0  0  0  0
  -29.5455  -19.8842   20.3397 C   0  0  0  0  0  0
  -29.9404  -17.4050   20.4304 C   0  0  0  0  0  0
  -27.7665  -24.9294   20.8193 C   0  0  0  0  0  0
  -28.0284  -23.5347   20.8702 C   0  0  0  0  0  0
  -29.0329  -22.5590   20.2553 C   0  0  0  0  0  0
  -28.8382  -21.1996   20.5965 N   0  0  0  0  0  0
  -29.7706  -16.0022   20.6570 N   0  0  0  0  0  0
  -29.9552  -22.9076   19.5161 O   0  0  0  0  0  0
  -27.1619  -22.8920   21.6759 O   0  0  0  0  0  0
  -31.3223  -18.1022   19.5854 S   0  0  0  0  0  0
  -31.4786  -12.6670   19.1862 H   0  0  0  0  0  0
  -30.4086  -11.5591   19.9967 H   0  0  0  0  0  0
  -29.8227  -11.7458   17.5512 H   0  0  0  0  0  0
  -29.6285  -13.4731   17.7154 H   0  0  0  0  0  0
  -27.9196  -11.2852   18.9379 H   0  0  0  0  0  0
  -27.3901  -12.5041   17.8080 H   0  0  0  0  0  0
  -27.6190  -14.2567   19.4492 H   0  0  0  0  0  0
  -28.7444  -12.2291   21.4411 H   0  0  0  0  0  0
  -28.3983  -13.9045   21.7860 H   0  0  0  0  0  0
  -25.2773   -9.5673   22.4762 H   0  0  0  0  0  0
  -24.0008   -7.4628   22.7464 H   0  0  0  0  0  0
  -21.0851   -8.8789   19.8953 H   0  0  0  0  0  0
  -22.3717  -10.9682   19.6169 H   0  0  0  0  0  0
  -21.2006   -7.6153   23.9725 H   0  0  0  0  0  0
  -21.1483   -6.0520   25.9080 H   0  0  0  0  0  0
  -22.0599   -2.7616   23.2838 H   0  0  0  0  0  0
  -22.4087  -11.9874   22.4828 H   0  0  0  0  0  0
  -21.1084  -13.1235   22.2647 H   0  0  0  0  0  0
  -24.6470  -15.8437   20.5291 H   0  0  0  0  0  0
  -26.2600  -15.6371   20.0737 H   0  0  0  0  0  0
  -26.7252  -32.5354   23.1043 H   0  0  0  0  0  0
  -25.0075  -33.9640   25.0354 H   0  0  0  0  0  0
  -22.7411  -31.2952   21.3869 H   0  0  0  0  0  0
  -23.3750  -35.9608   23.3298 H   0  0  0  0  0  0
  -24.3578  -36.8901   22.2054 H   0  0  0  0  0  0
  -23.7251  -37.6471   23.6668 H   0  0  0  0  0  0
  -26.1440  -31.4987   20.6174 H   0  0  0  0  0  0
  -26.8660  -30.7886   22.0272 H   0  0  0  0  0  0
  -28.1264  -28.8369   21.2550 H   0  0  0  0  0  0
  -25.9610  -25.8843   18.9800 H   0  0  0  0  0  0
  -23.9855  -27.3234   18.9606 H   0  0  0  0  0  0
  -23.7958  -30.5822   19.3988 H   0  0  0  0  0  0
  -22.7828  -29.2429   19.8448 H   0  0  0  0  0  0
  -25.1307  -36.1884   25.0812 H   0  0  0  0  0  0
  -21.0013  -28.3311   24.1362 H   0  0  0  0  0  0
  -20.5682  -26.2336   23.3622 H   0  0  0  0  0  0
  -21.6656  -26.7428   22.1208 H   0  0  0  0  0  0
  -19.6923  -25.6286   21.1257 H   0  0  0  0  0  0
  -19.6699  -27.3177   20.6732 H   0  0  0  0  0  0
  -17.4212  -26.6670   21.4034 H   0  0  0  0  0  0
  -18.0350  -26.0081   22.9033 H   0  0  0  0  0  0
  -19.7954  -30.7294   24.2237 H   0  0  0  0  0  0
  -17.5027  -31.6267   24.5168 H   0  0  0  0  0  0
  -15.5365  -30.2982   23.7663 H   0  0  0  0  0  0
  -15.8691  -28.0821   22.7066 H   0  0  0  0  0  0
  -24.5901  -30.7084   25.7767 H   0  0  0  0  0  0
  -24.8886  -32.2934   26.4793 H   0  0  0  0  0  0
  -25.8005  -30.8982   27.0246 H   0  0  0  0  0  0
  -26.2971  -29.6709   24.1259 H   0  0  0  0  0  0
  -27.3941  -29.7236   25.4852 H   0  0  0  0  0  0
  -27.8899  -30.4191   23.9614 H   0  0  0  0  0  0
  -27.2649  -33.3633   26.2047 H   0  0  0  0  0  0
  -28.3886  -32.6859   25.0355 H   0  0  0  0  0  0
  -28.0694  -31.8470   26.5459 H   0  0  0  0  0  0
  -28.2591  -38.0095   24.7505 H   0  0  0  0  0  0
  -28.1074  -36.2623   24.6293 H   0  0  0  0  0  0
  -27.2294  -37.1452   25.8866 H   0  0  0  0  0  0
  -20.9448  -29.8775   21.6814 H   0  0  0  0  0  0
  -26.0158  -38.2830   24.1399 H   0  0  0  0  0  0
  -28.1698  -18.3991   21.2783 H   0  0  0  0  0  0
  -31.3446  -20.5720   19.2559 H   0  0  0  0  0  0
  -26.9350  -25.2157   21.4515 H   0  0  0  0  0  0
  -28.0122  -21.1243   21.1785 H   0  0  0  0  0  0
  -28.8491  -15.7513   20.9818 H   0  0  0  0  0  0
  -26.5600  -23.5344   22.0274 H   0  0  0  0  0  0
  1 25  1  0  0  0
  1 30  2  0  0  0
  1 79  1  0  0  0
  2  3  1  0  0  0
  2 25  1  0  0  0
  2 83  1  0  0  0
  2 84  1  0  0  0
  3  4  1  0  0  0
  3 85  1  0  0  0
  3 86  1  0  0  0
  4  5  1  0  0  0
  4 87  1  0  0  0
  4 88  1  0  0  0
  5  6  1  0  0  0
  5 26  1  0  0  0
  5 89  1  0  0  0
  6 25  1  0  0  0
  6 90  1  0  0  0
  6 91  1  0  0  0
  7  8  2  0  0  0
  7 26  1  0  0  0
  7 29  1  0  0  0
  8  9  1  0  0  0
  8 22  1  0  0  0
  9 10  1  0  0  0
  9 27  2  0  0  0
 10 11  2  0  0  0
 10 15  1  0  0  0
 11 12  1  0  0  0
 11 92  1  0  0  0
 12 13  2  0  0  0
 12 93  1  0  0  0
 13 14  1  0  0  0
 13 31  1  0  0  0
 14 15  2  0  0  0
 14 94  1  0  0  0
 15 95  1  0  0  0
 16 17  2  0  0  0
 16 21  1  0  0  0
 16 31  1  0  0  0
 17 18  1  0  0  0
 17 96  1  0  0  0
 18 19  2  0  0  0
 18 97  1  0  0  0
 19 20  1  0  0  0
 19 24  1  0  0  0
 20 21  2  0  0  0
 20 98  1  0  0  0
 21 23  1  0  0  0
 22 28  1  0  0  0
 22 32  2  0  0  0
 26 27  1  0  0  0
 28 99  1  0  0  0
 28100  1  0  0  0
 29101  1  0  0  0
 29102  1  0  0  0
 33 34  1  0  0  0
 33 66  1  0  0  0
 33 70  2  0  0  0
 34 36  1  0  0  0
 34 59  1  0  0  0
 34103  1  0  0  0
 35 44  2  0  0  0
 35 45  1  0  0  0
 35 68  1  0  0  0
 36 56  1  0  0  0
 36104  1  0  0  0
 37 39  1  0  0  0
 37 47  1  0  0  0
 37 66  1  0  0  0
 37105  1  0  0  0
 38 43  2  0  0  0
 38 46  1  0  0  0
 38 47  1  0  0  0
 39 64  1  0  0  0
 39 67  2  0  0  0
 40 52  1  0  0  0
 40 53  2  0  0  0
 40 58  1  0  0  0
 41106  1  0  0  0
 41107  1  0  0  0
 41108  1  0  0  0
 41 48  1  0  0  0
 42 43  1  0  0  0
 42 66  1  0  0  0
 42109  1  0  0  0
 42110  1  0  0  0
 43 44  1  0  0  0
 44111  1  0  0  0
 45 46  2  0  0  0
 45112  1  0  0  0
 46113  1  0  0  0
 47114  1  0  0  0
 47115  1  0  0  0
 48 56  1  0  0  0
 48 65  1  0  0  0
 48116  1  0  0  0
 49 50  1  0  0  0
 49 53  1  0  0  0
 49 64  1  0  0  0
 49117  1  0  0  0
 50 51  1  0  0  0
 50118  1  0  0  0
 50119  1  0  0  0
 51 52  1  0  0  0
 51120  1  0  0  0
 51121  1  0  0  0
 52122  1  0  0  0
 52123  1  0  0  0
 53 54  1  0  0  0
 54 55  2  0  0  0
 54124  1  0  0  0
 55 57  1  0  0  0
 55125  1  0  0  0
 56 69  2  0  0  0
 57 58  2  0  0  0
 57126  1  0  0  0
 58127  1  0  0  0
 59 60  1  0  0  0
 59 61  1  0  0  0
 59 62  1  0  0  0
 60128  1  0  0  0
 60129  1  0  0  0
 60130  1  0  0  0
 61131  1  0  0  0
 61132  1  0  0  0
 61133  1  0  0  0
 62134  1  0  0  0
 62135  1  0  0  0
 62136  1  0  0  0
 63 65  1  0  0  0
 63137  1  0  0  0
 63138  1  0  0  0
 63139  1  0  0  0
 64140  1  0  0  0
 65141  1  0  0  0
 68 75  1  0  0  0
 71 73  1  0  0  0
 71 74  2  0  0  0
 71142  1  0  0  0
 72 73  2  0  0  0
 72 82  1  0  0  0
 72143  1  0  0  0
 73 78  1  0  0  0
 74 79  1  0  0  0
 74 82  1  0  0  0
 75 76  2  0  0  0
 75144  1  0  0  0
 76 77  1  0  0  0
 76 81  1  0  0  0
 77 78  1  0  0  0
 77 80  2  0  0  0
 78145  1  0  0  0
 79146  1  0  0  0
 81147  1  0  0  0
M  ISO  4   1 100  68 101  75 101  79 100
M  END
> <chiral flag>
0

> <version>
0

> <s_m_source_file>
/data/baiqing/PycharmProjects/Reinvent-master-3.2/result/LINK_invent/BTK/process_docking_weight1_custom_product_contain_oxygen_bond_distance_aromatic_linkinvent_7_9_3/rearranged_h_0148.sdf

> <i_m_source_file_index>
91

> <r_mmod_Potential_Energy-OPLS-2005>
295.533599853516

> <r_mmod_Stretch_Energy-OPLS-2005>
168.65998840332

> <r_mmod_Bend_Energy-OPLS-2005>
273.037353515625

> <r_mmod_Torsional_Energy-OPLS-2005>
208.002395629883

> <r_mmod_Improper_Torsional_Energy-OPLS-2005>
3.87801003456116

> <r_mmod_Van_der_Waal_Energy-OPLS-2005>
126.204681396484

> <r_mmod_Electrostatic_Energy-OPLS-2005>
-389.044036865234

> <r_mmod_Solvation_Energy-OPLS-2005>
-244.922073364258

> <b_mmod_Minimization_Converged-OPLS-2005>
0

> <r_mmod_RMS_Derivative-OPLS-2005>
0.756749749183655

$$$$
91
                    3D
 Structure written by MMmdl.
169179  0  0  1  0            999 V2000
  -30.6154  -14.6883   20.5052 C   0  0  0  0  0  0
  -30.4410  -12.4288   19.4588 C   0  0  0  0  0  0
  -29.5119  -12.5125   18.2271 C   0  0  0  0  0  0
  -28.0374  -12.3336   18.6395 C   0  0  0  0  0  0
  -27.6480  -13.2130   19.8584 C   0  0  2  0  0  0
  -28.6939  -13.1028   20.9902 C   0  0  0  0  0  0
  -25.2424  -13.7879   20.5529 C   0  0  0  0  0  0
  -24.1758  -13.0231   20.9211 C   0  0  0  0  0  0
  -24.6394  -11.6749   20.8786 C   0  0  0  0  0  0
  -23.9068  -10.4173   21.0433 C   0  0  0  0  0  0
  -24.3609   -9.4094   21.9212 C   0  0  0  0  0  0
  -23.6270   -8.2154   22.0770 C   0  0  0  0  0  0
  -22.4249   -8.0227   21.3548 C   0  0  0  0  0  0
  -21.9880   -9.0203   20.4659 C   0  0  0  0  0  0
  -22.7229  -10.2060   20.3074 C   0  0  0  0  0  0
  -21.6829   -6.0705   22.5279 C   0  0  0  0  0  0
  -21.3997   -6.5621   23.8210 C   0  0  0  0  0  0
  -21.3647   -5.6780   24.9176 C   0  0  0  0  0  0
  -21.6051   -4.3046   24.7238 C   0  0  0  0  0  0
  -21.8816   -3.8126   23.4363 C   0  0  0  0  0  0
  -21.9184   -4.6933   22.3404 C   0  0  0  0  0  0
  -22.7794  -13.5104   21.1855 C   0  0  0  0  0  0
  -22.1658   -4.2114   21.0985 F   0  0  0  0  0  0
  -21.5627   -3.4539   25.7762 F   0  0  0  0  0  0
  -30.0042  -13.4604   20.4239 N   0  0  0  0  0  0
  -26.2956  -12.9194   20.3282 N   0  0  0  0  0  0
  -25.9349  -11.6369   20.5830 N   0  0  0  0  0  0
  -22.0409  -12.8162   22.0437 N   0  0  0  0  0  0
  -25.3856  -15.1455   20.3587 N   0  0  0  0  0  0
  -31.7860  -14.8287   20.1358 O   0  0  0  0  0  0
  -21.6598   -6.8841   21.4247 O   0  0  0  0  0  0
  -22.3528  -14.5423   20.6698 O   0  0  0  0  0  0
  -24.6251  -31.8615   23.2033 C   0  0  0  0  0  0
  -25.9107  -32.4791   23.8356 C   0  0  1  0  0  0
  -27.2446  -27.3344   20.1279 C   0  0  0  0  0  0
  -25.5929  -33.8586   24.2285 N   0  0  0  0  0  0
  -23.4202  -30.4815   21.5467 C   0  0  2  0  0  0
  -24.8717  -28.9347   20.1188 C   0  0  0  0  0  0
  -22.7478  -29.4622   22.4966 C   0  0  0  0  0  0
  -18.0296  -28.1400   22.8500 C   0  0  0  0  0  0
  -24.1492  -36.7285   23.2630 C   0  0  0  0  0  0
  -25.9594  -30.7966   21.3741 C   0  0  0  0  0  0
  -26.0389  -29.4225   20.7214 C   0  0  0  0  0  0
  -27.2268  -28.6344   20.7161 C   0  0  0  0  0  0
  -26.0543  -26.8965   19.4998 C   0  0  0  0  0  0
  -24.8805  -27.6745   19.5023 C   0  0  0  0  0  0
  -23.6376  -29.8122   20.1640 C   0  0  0  0  0  0
  -25.4117  -36.3086   24.0330 C   0  0  1  0  0  0
  -20.5893  -28.3698   23.1318 C   0  0  2  0  0  0
  -20.6794  -26.9424   22.5449 C   0  0  0  0  0  0
  -19.5770  -26.6401   21.5249 C   0  0  0  0  0  0
  -18.1938  -26.7954   22.1627 C   0  0  0  0  0  0
  -19.1546  -28.8867   23.2907 C   0  0  0  0  0  0
  -18.9458  -30.1462   23.8936 C   0  0  0  0  0  0
  -17.6458  -30.6592   24.0582 C   0  0  0  0  0  0
  -25.9051  -34.9458   23.5104 C   0  0  0  0  0  0
  -16.5355  -29.9098   23.6327 C   0  0  0  0  0  0
  -16.7278  -28.6511   23.0359 C   0  0  0  0  0  0
  -26.4491  -31.6593   25.0715 C   0  0  0  0  0  0
  -25.3715  -31.3798   26.1449 C   0  0  0  0  0  0
  -27.0285  -30.2998   24.6157 C   0  0  0  0  0  0
  -27.6092  -32.4296   25.7450 C   0  0  0  0  0  0
  -27.5596  -37.1793   24.8446 C   0  0  0  0  0  0
  -21.4192  -29.3038   22.3695 N   0  0  0  0  0  0
  -26.4295  -37.3780   23.9409 N   0  0  0  0  0  0
  -24.6863  -31.0622   22.0993 N   0  0  0  0  0  0
  -23.4189  -28.8183   23.3068 O   0  0  0  0  0  0
  -28.3801  -26.5079   20.1482 O   0  0  0  0  0  0
  -26.5614  -34.8926   22.4666 O   0  0  0  0  0  0
  -23.5418  -32.1424   23.7355 O   0  0  0  0  0  0
  -31.3380  -19.3052   20.5164 C   0  0  0  0  0  0
  -31.2199  -17.8837   20.6187 C   0  0  0  0  0  0
  -28.9788  -19.5295   20.6888 C   0  0  0  0  0  0
  -28.8365  -18.1136   20.7847 C   0  0  0  0  0  0
  -30.2142  -20.1878   20.5287 C   0  0  0  0  0  0
  -29.9653  -17.2252   20.7362 C   0  0  0  0  0  0
  -30.5008  -24.4885   19.6834 C   0  0  0  0  0  0
  -29.3766  -24.0828   20.3031 C   0  0  0  0  0  0
  -31.6269  -23.5754   19.4478 C   0  0  0  0  0  0
  -31.6262  -22.1930   20.1213 C   0  0  0  0  0  0
  -25.3483  -18.3258   21.0871 C   0  0  0  0  0  0
  -26.5232  -18.1919   22.0612 C   0  0  0  0  0  0
  -26.3366  -18.1582   19.9278 C   0  0  0  0  0  0
  -27.3992  -17.6357   20.9224 C   0  0  0  0  0  0
  -29.2087  -22.5886   20.7837 C   0  0  2  0  0  0
  -29.0426  -22.5438   22.3145 C   0  0  0  0  0  0
  -28.1780  -25.0799   20.4884 C   0  0  0  0  0  0
  -30.2932  -21.6274   20.3746 N   0  0  0  0  0  0
  -29.8089  -15.7575   20.8341 N   0  0  0  0  0  0
  -32.5768  -23.8879   18.7263 O   0  0  0  0  0  0
  -31.4812  -12.5615   19.1546 H   0  0  0  0  0  0
  -30.3882  -11.4404   19.9173 H   0  0  0  0  0  0
  -29.7886  -11.7532   17.4937 H   0  0  0  0  0  0
  -29.6382  -13.4764   17.7317 H   0  0  0  0  0  0
  -27.8944  -11.2814   18.8876 H   0  0  0  0  0  0
  -27.3801  -12.5389   17.7928 H   0  0  0  0  0  0
  -27.6521  -14.2429   19.5035 H   0  0  0  0  0  0
  -28.7217  -12.0873   21.3873 H   0  0  0  0  0  0
  -28.4296  -13.7457   21.8319 H   0  0  0  0  0  0
  -25.2759   -9.5549   22.4794 H   0  0  0  0  0  0
  -23.9957   -7.4534   22.7480 H   0  0  0  0  0  0
  -21.0794   -8.8726   19.8986 H   0  0  0  0  0  0
  -22.3698  -10.9613   19.6188 H   0  0  0  0  0  0
  -21.1988   -7.6130   23.9706 H   0  0  0  0  0  0
  -21.1478   -6.0517   25.9078 H   0  0  0  0  0  0
  -22.0612   -2.7588   23.2885 H   0  0  0  0  0  0
  -22.3982  -11.9819   22.4846 H   0  0  0  0  0  0
  -21.1038  -13.1243   22.2634 H   0  0  0  0  0  0
  -24.5945  -15.7748   20.4383 H   0  0  0  0  0  0
  -26.2058  -15.5838   19.9677 H   0  0  0  0  0  0
  -26.7175  -32.5487   23.1113 H   0  0  0  0  0  0
  -25.0084  -33.9725   25.0436 H   0  0  0  0  0  0
  -22.7134  -31.3015   21.4018 H   0  0  0  0  0  0
  -23.3771  -35.9596   23.3263 H   0  0  0  0  0  0
  -24.3593  -36.8923   22.2049 H   0  0  0  0  0  0
  -23.7223  -37.6473   23.6662 H   0  0  0  0  0  0
  -26.0844  -31.5572   20.6024 H   0  0  0  0  0  0
  -26.8417  -30.8523   22.0004 H   0  0  0  0  0  0
  -28.1235  -29.0050   21.1957 H   0  0  0  0  0  0
  -26.0101  -25.9456   18.9936 H   0  0  0  0  0  0
  -23.9869  -27.2946   19.0256 H   0  0  0  0  0  0
  -23.7589  -30.5884   19.4079 H   0  0  0  0  0  0
  -22.7592  -29.2406   19.8593 H   0  0  0  0  0  0
  -25.1296  -36.1943   25.0823 H   0  0  0  0  0  0
  -20.9987  -28.3302   24.1440 H   0  0  0  0  0  0
  -20.5728  -26.2305   23.3651 H   0  0  0  0  0  0
  -21.6666  -26.7485   22.1235 H   0  0  0  0  0  0
  -19.6941  -25.6320   21.1260 H   0  0  0  0  0  0
  -19.6724  -27.3233   20.6802 H   0  0  0  0  0  0
  -17.4237  -26.6754   21.3999 H   0  0  0  0  0  0
  -18.0285  -26.0085   22.8993 H   0  0  0  0  0  0
  -19.7930  -30.7280   24.2333 H   0  0  0  0  0  0
  -17.5002  -31.6277   24.5174 H   0  0  0  0  0  0
  -15.5351  -30.3008   23.7618 H   0  0  0  0  0  0
  -15.8688  -28.0827   22.7069 H   0  0  0  0  0  0
  -24.5890  -30.7124   25.7818 H   0  0  0  0  0  0
  -24.8906  -32.2997   26.4790 H   0  0  0  0  0  0
  -25.8023  -30.9056   27.0273 H   0  0  0  0  0  0
  -26.2839  -29.6791   24.1160 H   0  0  0  0  0  0
  -27.3947  -29.7221   25.4654 H   0  0  0  0  0  0
  -27.8734  -30.4259   23.9381 H   0  0  0  0  0  0
  -27.2759  -33.3621   26.2018 H   0  0  0  0  0  0
  -28.3895  -32.6805   25.0250 H   0  0  0  0  0  0
  -28.0758  -31.8413   26.5363 H   0  0  0  0  0  0
  -28.2610  -38.0094   24.7511 H   0  0  0  0  0  0
  -28.1094  -36.2636   24.6229 H   0  0  0  0  0  0
  -27.2324  -37.1395   25.8848 H   0  0  0  0  0  0
  -20.9381  -29.8700   21.6858 H   0  0  0  0  0  0
  -26.0182  -38.2846   24.1446 H   0  0  0  0  0  0
  -32.3402  -19.6974   20.4336 H   0  0  0  0  0  0
  -32.1289  -17.2987   20.6085 H   0  0  0  0  0  0
  -28.0841  -20.1287   20.7269 H   0  0  0  0  0  0
  -30.5992  -25.5023   19.3281 H   0  0  0  0  0  0
  -32.1773  -22.2648   21.0599 H   0  0  0  0  0  0
  -32.1946  -21.5375   19.4616 H   0  0  0  0  0  0
  -24.8465  -19.2943   21.1110 H   0  0  0  0  0  0
  -24.6264  -17.5144   21.1713 H   0  0  0  0  0  0
  -26.3560  -17.4937   22.8823 H   0  0  0  0  0  0
  -26.8458  -19.1641   22.4347 H   0  0  0  0  0  0
  -26.5810  -19.1168   19.4690 H   0  0  0  0  0  0
  -26.0342  -17.4454   19.1610 H   0  0  0  0  0  0
  -27.3802  -16.5515   20.9700 H   0  0  0  0  0  0
  -28.2806  -22.2507   20.3195 H   0  0  0  0  0  0
  -29.9326  -22.9173   22.8219 H   0  0  0  0  0  0
  -28.8653  -21.5318   22.6761 H   0  0  0  0  0  0
  -28.1961  -23.1399   22.6524 H   0  0  0  0  0  0
  -27.8651  -25.0558   21.5310 H   0  0  0  0  0  0
  -27.3637  -24.6437   19.9160 H   0  0  0  0  0  0
  -28.8802  -15.4582   21.0858 H   0  0  0  0  0  0
  1 25  1  0  0  0
  1 30  2  0  0  0
  1 89  1  0  0  0
  2  3  1  0  0  0
  2 25  1  0  0  0
  2 91  1  0  0  0
  2 92  1  0  0  0
  3  4  1  0  0  0
  3 93  1  0  0  0
  3 94  1  0  0  0
  4  5  1  0  0  0
  4 95  1  0  0  0
  4 96  1  0  0  0
  5  6  1  0  0  0
  5 26  1  0  0  0
  5 97  1  0  0  0
  6 25  1  0  0  0
  6 98  1  0  0  0
  6 99  1  0  0  0
  7  8  2  0  0  0
  7 26  1  0  0  0
  7 29  1  0  0  0
  8  9  1  0  0  0
  8 22  1  0  0  0
  9 10  1  0  0  0
  9 27  2  0  0  0
 10 11  2  0  0  0
 10 15  1  0  0  0
 11 12  1  0  0  0
 11100  1  0  0  0
 12 13  2  0  0  0
 12101  1  0  0  0
 13 14  1  0  0  0
 13 31  1  0  0  0
 14 15  2  0  0  0
 14102  1  0  0  0
 15103  1  0  0  0
 16 17  2  0  0  0
 16 21  1  0  0  0
 16 31  1  0  0  0
 17 18  1  0  0  0
 17104  1  0  0  0
 18 19  2  0  0  0
 18105  1  0  0  0
 19 20  1  0  0  0
 19 24  1  0  0  0
 20 21  2  0  0  0
 20106  1  0  0  0
 21 23  1  0  0  0
 22 28  1  0  0  0
 22 32  2  0  0  0
 26 27  1  0  0  0
 28107  1  0  0  0
 28108  1  0  0  0
 29109  1  0  0  0
 29110  1  0  0  0
 33 34  1  0  0  0
 33 66  1  0  0  0
 33 70  2  0  0  0
 34 36  1  0  0  0
 34 59  1  0  0  0
 34111  1  0  0  0
 35 44  2  0  0  0
 35 45  1  0  0  0
 35 68  1  0  0  0
 36 56  1  0  0  0
 36112  1  0  0  0
 37 39  1  0  0  0
 37 47  1  0  0  0
 37 66  1  0  0  0
 37113  1  0  0  0
 38 43  2  0  0  0
 38 46  1  0  0  0
 38 47  1  0  0  0
 39 64  1  0  0  0
 39 67  2  0  0  0
 40 52  1  0  0  0
 40 53  2  0  0  0
 40 58  1  0  0  0
 41114  1  0  0  0
 41115  1  0  0  0
 41116  1  0  0  0
 41 48  1  0  0  0
 42 43  1  0  0  0
 42 66  1  0  0  0
 42117  1  0  0  0
 42118  1  0  0  0
 43 44  1  0  0  0
 44119  1  0  0  0
 45 46  2  0  0  0
 45120  1  0  0  0
 46121  1  0  0  0
 47122  1  0  0  0
 47123  1  0  0  0
 48 56  1  0  0  0
 48 65  1  0  0  0
 48124  1  0  0  0
 49 50  1  0  0  0
 49 53  1  0  0  0
 49 64  1  0  0  0
 49125  1  0  0  0
 50 51  1  0  0  0
 50126  1  0  0  0
 50127  1  0  0  0
 51 52  1  0  0  0
 51128  1  0  0  0
 51129  1  0  0  0
 52130  1  0  0  0
 52131  1  0  0  0
 53 54  1  0  0  0
 54 55  2  0  0  0
 54132  1  0  0  0
 55 57  1  0  0  0
 55133  1  0  0  0
 56 69  2  0  0  0
 57 58  2  0  0  0
 57134  1  0  0  0
 58135  1  0  0  0
 59 60  1  0  0  0
 59 61  1  0  0  0
 59 62  1  0  0  0
 60136  1  0  0  0
 60137  1  0  0  0
 60138  1  0  0  0
 61139  1  0  0  0
 61140  1  0  0  0
 61141  1  0  0  0
 62142  1  0  0  0
 62143  1  0  0  0
 62144  1  0  0  0
 63 65  1  0  0  0
 63145  1  0  0  0
 63146  1  0  0  0
 63147  1  0  0  0
 64148  1  0  0  0
 65149  1  0  0  0
 68 87  1  0  0  0
 71 72  2  0  0  0
 71 75  1  0  0  0
 71150  1  0  0  0
 72 76  1  0  0  0
 72151  1  0  0  0
 73 74  1  0  0  0
 73 75  2  0  0  0
 73152  1  0  0  0
 74 76  2  0  0  0
 74 84  1  0  0  0
 75 88  1  0  0  0
 76 89  1  0  0  0
 77 78  2  0  0  0
 77 79  1  0  0  0
 77153  1  0  0  0
 78 85  1  0  0  0
 78 87  1  0  0  0
 79 80  1  0  0  0
 79 90  2  0  0  0
 80 88  1  0  0  0
 80154  1  0  0  0
 80155  1  0  0  0
 81 82  1  0  0  0
 81 83  1  0  0  0
 81156  1  0  0  0
 81157  1  0  0  0
 82 84  1  0  0  0
 82158  1  0  0  0
 82159  1  0  0  0
 83 84  1  0  0  0
 83160  1  0  0  0
 83161  1  0  0  0
 84162  1  0  0  0
 85 86  1  0  0  0
 85 88  1  0  0  0
 85163  1  0  0  0
 86164  1  0  0  0
 86165  1  0  0  0
 86166  1  0  0  0
 87167  1  0  0  0
 87168  1  0  0  0
 89169  1  0  0  0
M  ISO  4   1 100  68 101  87 101  89 100
M  END
> <chiral flag>
0

> <version>
0

> <s_m_source_file>
/data/baiqing/PycharmProjects/Reinvent-master-3.2/result/LINK_invent/BTK/process_docking_weight1_custom_product_contain_oxygen_bond_distance_aromatic_linkinvent_7_9_3/rearranged_h_0148.sdf

> <i_m_source_file_index>
92

> <r_mmod_Potential_Energy-OPLS-2005>
108.006248474121

> <r_mmod_Stretch_Energy-OPLS-2005>
90.5610885620117

> <r_mmod_Bend_Energy-OPLS-2005>
163.654541015625

> <r_mmod_Torsional_Energy-OPLS-2005>
246.134140014648

> <r_mmod_Improper_Torsional_Energy-OPLS-2005>
5.22201156616211

> <r_mmod_Van_der_Waal_Energy-OPLS-2005>
162.685134887695

> <r_mmod_Electrostatic_Energy-OPLS-2005>
-392.110961914062

> <r_mmod_Solvation_Energy-OPLS-2005>
-222.261520385742

> <b_mmod_Minimization_Converged-OPLS-2005>
0

> <r_mmod_RMS_Derivative-OPLS-2005>
2.64109969139099

$$$$
92
                    3D
 Structure written by MMmdl.
175183  0  0  1  0            999 V2000
  -30.6827  -14.4568   20.4334 C   0  0  0  0  0  0
  -30.4216  -12.2637   19.4201 C   0  0  0  0  0  0
  -29.4990  -12.4601   18.2008 C   0  0  0  0  0  0
  -28.0177  -12.3295   18.6171 C   0  0  0  0  0  0
  -27.6530  -13.1969   19.8538 C   0  0  2  0  0  0
  -28.7001  -13.0188   20.9799 C   0  0  0  0  0  0
  -25.2564  -13.8125   20.5692 C   0  0  0  0  0  0
  -24.1792  -13.0415   20.9209 C   0  0  0  0  0  0
  -24.6356  -11.6889   20.8778 C   0  0  0  0  0  0
  -23.9048  -10.4270   21.0446 C   0  0  0  0  0  0
  -24.3625   -9.4149   21.9184 C   0  0  0  0  0  0
  -23.6260   -8.2207   22.0782 C   0  0  0  0  0  0
  -22.4216   -8.0286   21.3589 C   0  0  0  0  0  0
  -21.9873   -9.0260   20.4665 C   0  0  0  0  0  0
  -22.7254  -10.2111   20.3048 C   0  0  0  0  0  0
  -21.6829   -6.0704   22.5295 C   0  0  0  0  0  0
  -21.4014   -6.5620   23.8228 C   0  0  0  0  0  0
  -21.3672   -5.6769   24.9189 C   0  0  0  0  0  0
  -21.6033   -4.3032   24.7240 C   0  0  0  0  0  0
  -21.8807   -3.8129   23.4366 C   0  0  0  0  0  0
  -21.9180   -4.6940   22.3408 C   0  0  0  0  0  0
  -22.7821  -13.5247   21.1861 C   0  0  0  0  0  0
  -22.1675   -4.2120   21.0993 F   0  0  0  0  0  0
  -21.5608   -3.4499   25.7753 F   0  0  0  0  0  0
  -30.0354  -13.2675   20.4134 N   0  0  0  0  0  0
  -26.2971  -12.9272   20.3268 N   0  0  0  0  0  0
  -25.9274  -11.6452   20.5760 N   0  0  0  0  0  0
  -22.0420  -12.8228   22.0409 N   0  0  0  0  0  0
  -25.4239  -15.1831   20.4187 N   0  0  0  0  0  0
  -31.8887  -14.5887   20.2332 O   0  0  0  0  0  0
  -21.6632   -6.8844   21.4249 O   0  0  0  0  0  0
  -22.3498  -14.5536   20.6704 O   0  0  0  0  0  0
  -24.6104  -31.8672   23.2099 C   0  0  0  0  0  0
  -25.9017  -32.4804   23.8384 C   0  0  1  0  0  0
  -27.2440  -27.4748   20.0932 C   0  0  0  0  0  0
  -25.5892  -33.8597   24.2326 N   0  0  0  0  0  0
  -23.3992  -30.4884   21.5462 C   0  0  2  0  0  0
  -24.8541  -28.9634   20.1088 C   0  0  0  0  0  0
  -22.7414  -29.4625   22.4957 C   0  0  0  0  0  0
  -18.0323  -28.1317   22.8475 C   0  0  0  0  0  0
  -24.1484  -36.7292   23.2624 C   0  0  0  0  0  0
  -25.9235  -30.8438   21.3645 C   0  0  0  0  0  0
  -26.0037  -29.4831   20.7120 C   0  0  0  0  0  0
  -27.2030  -28.7437   20.7016 C   0  0  0  0  0  0
  -26.0924  -26.9696   19.4555 C   0  0  0  0  0  0
  -24.8931  -27.7083   19.4735 C   0  0  0  0  0  0
  -23.6084  -29.8225   20.1572 C   0  0  0  0  0  0
  -25.4102  -36.3082   24.0324 C   0  0  1  0  0  0
  -20.5879  -28.3732   23.1436 C   0  0  2  0  0  0
  -20.6883  -26.9484   22.5523 C   0  0  0  0  0  0
  -19.5996  -26.6597   21.5174 C   0  0  0  0  0  0
  -18.2174  -26.7854   22.1637 C   0  0  0  0  0  0
  -19.1501  -28.8854   23.2901 C   0  0  0  0  0  0
  -18.9285  -30.1477   23.8832 C   0  0  0  0  0  0
  -17.6248  -30.6550   24.0419 C   0  0  0  0  0  0
  -25.9018  -34.9449   23.5102 C   0  0  0  0  0  0
  -16.5213  -29.8935   23.6184 C   0  0  0  0  0  0
  -16.7271  -28.6345   23.0274 C   0  0  0  0  0  0
  -26.4522  -31.6584   25.0680 C   0  0  0  0  0  0
  -25.3808  -31.3660   26.1440 C   0  0  0  0  0  0
  -27.0321  -30.3022   24.5992 C   0  0  0  0  0  0
  -27.6116  -32.4284   25.7411 C   0  0  0  0  0  0
  -27.5586  -37.1795   24.8457 C   0  0  0  0  0  0
  -21.4124  -29.3121   22.3824 N   0  0  0  0  0  0
  -26.4296  -37.3765   23.9400 N   0  0  0  0  0  0
  -24.6610  -31.0836   22.0967 N   0  0  0  0  0  0
  -23.4208  -28.8067   23.2909 O   0  0  0  0  0  0
  -28.4069  -26.7460   20.1207 O   0  0  0  0  0  0
  -26.5569  -34.8882   22.4655 O   0  0  0  0  0  0
  -23.5308  -32.1403   23.7533 O   0  0  0  0  0  0
  -26.5619  -18.0938   19.3534 C   0  0  0  0  0  0
  -27.7320  -17.3238   19.2171 C   0  0  0  0  0  0
  -26.5755  -19.2612   20.1421 C   0  0  0  0  0  0
  -28.9193  -18.8679   20.6850 C   0  0  0  0  0  0
  -28.9121  -17.6952   19.8976 C   0  0  0  0  0  0
  -27.7694  -19.6817   20.7804 C   0  0  0  0  0  0
  -27.2310  -22.0517   21.3043 C   0  0  0  0  0  0
  -28.1545  -26.3507   22.5698 C   0  0  0  0  0  0
  -30.6341  -19.2319   17.5201 C   0  0  0  0  0  0
  -32.6661  -18.3697   18.7536 C   0  0  0  0  0  0
  -32.1678  -17.6080   16.4293 C   0  0  0  0  0  0
  -27.9071  -23.3277   21.8183 C   0  0  0  0  0  0
  -27.7529  -24.4892   20.8090 C   0  0  0  0  0  0
  -30.7054  -16.7878   18.3117 C   0  0  0  0  0  0
  -30.1622  -16.8331   19.7836 C   0  0  2  0  0  0
  -28.5220  -25.7775   21.1789 C   0  0  1  0  0  0
  -31.5261  -18.0045   17.7799 C   0  0  0  0  0  0
  -27.8991  -20.9011   21.5008 N   0  0  0  0  0  0
  -29.8510  -15.4992   20.3057 N   0  0  0  0  0  0
  -26.1304  -22.1346   20.7525 O   0  0  0  0  0  0
  -31.4664  -12.3647   19.1181 H   0  0  0  0  0  0
  -30.3202  -11.2569   19.8337 H   0  0  0  0  0  0
  -29.7283  -11.7249   17.4290 H   0  0  0  0  0  0
  -29.6788  -13.4365   17.7504 H   0  0  0  0  0  0
  -27.8289  -11.2767   18.8375 H   0  0  0  0  0  0
  -27.3747  -12.5818   17.7731 H   0  0  0  0  0  0
  -27.6703  -14.2304   19.5124 H   0  0  0  0  0  0
  -28.6547  -12.0084   21.3870 H   0  0  0  0  0  0
  -28.4932  -13.6878   21.8157 H   0  0  0  0  0  0
  -25.2783   -9.5570   22.4748 H   0  0  0  0  0  0
  -23.9919   -7.4573   22.7514 H   0  0  0  0  0  0
  -21.0785   -8.8830   19.8960 H   0  0  0  0  0  0
  -22.3783  -10.9659   19.6116 H   0  0  0  0  0  0
  -21.2047   -7.6132   23.9718 H   0  0  0  0  0  0
  -21.1522   -6.0512   25.9091 H   0  0  0  0  0  0
  -22.0577   -2.7585   23.2873 H   0  0  0  0  0  0
  -22.4031  -11.9892   22.4773 H   0  0  0  0  0  0
  -21.1078  -13.1305   22.2699 H   0  0  0  0  0  0
  -24.6631  -15.8332   20.5814 H   0  0  0  0  0  0
  -26.2626  -15.6440   20.0897 H   0  0  0  0  0  0
  -26.7063  -32.5547   23.1134 H   0  0  0  0  0  0
  -25.0149  -33.9764   25.0547 H   0  0  0  0  0  0
  -22.6844  -31.3000   21.4059 H   0  0  0  0  0  0
  -23.3711  -35.9663   23.3289 H   0  0  0  0  0  0
  -24.3594  -36.8895   22.2042 H   0  0  0  0  0  0
  -23.7259  -37.6505   23.6640 H   0  0  0  0  0  0
  -26.0383  -31.6149   20.6044 H   0  0  0  0  0  0
  -26.8113  -30.8876   21.9843 H   0  0  0  0  0  0
  -28.0947  -29.1367   21.1665 H   0  0  0  0  0  0
  -26.1214  -26.0188   18.9396 H   0  0  0  0  0  0
  -24.0150  -27.3221   18.9799 H   0  0  0  0  0  0
  -23.7106  -30.6005   19.3966 H   0  0  0  0  0  0
  -22.7404  -29.2325   19.8607 H   0  0  0  0  0  0
  -25.1275  -36.1969   25.0816 H   0  0  0  0  0  0
  -20.9857  -28.3327   24.1611 H   0  0  0  0  0  0
  -20.5720  -26.2264   23.3612 H   0  0  0  0  0  0
  -21.6809  -26.7562   22.1443 H   0  0  0  0  0  0
  -19.7335  -25.6668   21.0897 H   0  0  0  0  0  0
  -19.6977  -27.3699   20.6960 H   0  0  0  0  0  0
  -17.4411  -26.6358   21.4102 H   0  0  0  0  0  0
  -18.0816  -26.0040   22.9121 H   0  0  0  0  0  0
  -19.7718  -30.7355   24.2178 H   0  0  0  0  0  0
  -17.4674  -31.6271   24.4877 H   0  0  0  0  0  0
  -15.5161  -30.2702   23.7432 H   0  0  0  0  0  0
  -15.8723  -28.0606   22.6960 H   0  0  0  0  0  0
  -24.6011  -30.6974   25.7766 H   0  0  0  0  0  0
  -24.8987  -32.2809   26.4927 H   0  0  0  0  0  0
  -25.8228  -30.8834   27.0166 H   0  0  0  0  0  0
  -26.2834  -29.6765   24.1121 H   0  0  0  0  0  0
  -27.4163  -29.7289   25.4440 H   0  0  0  0  0  0
  -27.8655  -30.4290   23.9045 H   0  0  0  0  0  0
  -27.2781  -33.3566   26.2061 H   0  0  0  0  0  0
  -28.3914  -32.6876   25.0218 H   0  0  0  0  0  0
  -28.0801  -31.8342   26.5272 H   0  0  0  0  0  0
  -28.2594  -38.0105   24.7473 H   0  0  0  0  0  0
  -28.1079  -36.2617   24.6319 H   0  0  0  0  0  0
  -27.2267  -37.1470   25.8850 H   0  0  0  0  0  0
  -20.9211  -29.8957   21.7204 H   0  0  0  0  0  0
  -26.0165  -38.2813   24.1484 H   0  0  0  0  0  0
  -25.6536  -17.7950   18.8475 H   0  0  0  0  0  0
  -27.7159  -16.4441   18.5856 H   0  0  0  0  0  0
  -25.6592  -19.8282   20.2267 H   0  0  0  0  0  0
  -29.8326  -19.1572   21.1900 H   0  0  0  0  0  0
  -28.4677  -25.6898   23.3750 H   0  0  0  0  0  0
  -27.0795  -26.4943   22.6809 H   0  0  0  0  0  0
  -28.6478  -27.3075   22.7497 H   0  0  0  0  0  0
  -31.2014  -20.0447   17.0626 H   0  0  0  0  0  0
  -30.2058  -19.6284   18.4376 H   0  0  0  0  0  0
  -29.8123  -18.9882   16.8441 H   0  0  0  0  0  0
  -33.3455  -19.1024   18.3151 H   0  0  0  0  0  0
  -33.2574  -17.4885   19.0153 H   0  0  0  0  0  0
  -32.3039  -18.8065   19.6861 H   0  0  0  0  0  0
  -32.7780  -18.4149   16.0142 H   0  0  0  0  0  0
  -31.4171  -17.3638   15.6768 H   0  0  0  0  0  0
  -32.8182  -16.7384   16.5320 H   0  0  0  0  0  0
  -28.9684  -23.1441   22.0071 H   0  0  0  0  0  0
  -27.4578  -23.5907   22.7759 H   0  0  0  0  0  0
  -26.6872  -24.7035   20.7105 H   0  0  0  0  0  0
  -28.0880  -24.1617   19.8183 H   0  0  0  0  0  0
  -29.8948  -16.5576   17.6155 H   0  0  0  0  0  0
  -31.3748  -15.9367   18.2180 H   0  0  0  0  0  0
  -30.9276  -17.2348   20.4491 H   0  0  0  0  0  0
  -29.5858  -25.5361   21.2191 H   0  0  0  0  0  0
  -28.7460  -20.9859   22.0493 H   0  0  0  0  0  0
  -28.8761  -15.2921   20.4394 H   0  0  0  0  0  0
  1 25  1  0  0  0
  1 30  2  0  0  0
  1 89  1  0  0  0
  2  3  1  0  0  0
  2 25  1  0  0  0
  2 91  1  0  0  0
  2 92  1  0  0  0
  3  4  1  0  0  0
  3 93  1  0  0  0
  3 94  1  0  0  0
  4  5  1  0  0  0
  4 95  1  0  0  0
  4 96  1  0  0  0
  5  6  1  0  0  0
  5 26  1  0  0  0
  5 97  1  0  0  0
  6 25  1  0  0  0
  6 98  1  0  0  0
  6 99  1  0  0  0
  7  8  2  0  0  0
  7 26  1  0  0  0
  7 29  1  0  0  0
  8  9  1  0  0  0
  8 22  1  0  0  0
  9 10  1  0  0  0
  9 27  2  0  0  0
 10 11  2  0  0  0
 10 15  1  0  0  0
 11 12  1  0  0  0
 11100  1  0  0  0
 12 13  2  0  0  0
 12101  1  0  0  0
 13 14  1  0  0  0
 13 31  1  0  0  0
 14 15  2  0  0  0
 14102  1  0  0  0
 15103  1  0  0  0
 16 17  2  0  0  0
 16 21  1  0  0  0
 16 31  1  0  0  0
 17 18  1  0  0  0
 17104  1  0  0  0
 18 19  2  0  0  0
 18105  1  0  0  0
 19 20  1  0  0  0
 19 24  1  0  0  0
 20 21  2  0  0  0
 20106  1  0  0  0
 21 23  1  0  0  0
 22 28  1  0  0  0
 22 32  2  0  0  0
 26 27  1  0  0  0
 28107  1  0  0  0
 28108  1  0  0  0
 29109  1  0  0  0
 29110  1  0  0  0
 33 34  1  0  0  0
 33 66  1  0  0  0
 33 70  2  0  0  0
 34 36  1  0  0  0
 34 59  1  0  0  0
 34111  1  0  0  0
 35 44  2  0  0  0
 35 45  1  0  0  0
 35 68  1  0  0  0
 36 56  1  0  0  0
 36112  1  0  0  0
 37 39  1  0  0  0
 37 47  1  0  0  0
 37 66  1  0  0  0
 37113  1  0  0  0
 38 43  2  0  0  0
 38 46  1  0  0  0
 38 47  1  0  0  0
 39 64  1  0  0  0
 39 67  2  0  0  0
 40 52  1  0  0  0
 40 53  2  0  0  0
 40 58  1  0  0  0
 41114  1  0  0  0
 41115  1  0  0  0
 41116  1  0  0  0
 41 48  1  0  0  0
 42 43  1  0  0  0
 42 66  1  0  0  0
 42117  1  0  0  0
 42118  1  0  0  0
 43 44  1  0  0  0
 44119  1  0  0  0
 45 46  2  0  0  0
 45120  1  0  0  0
 46121  1  0  0  0
 47122  1  0  0  0
 47123  1  0  0  0
 48 56  1  0  0  0
 48 65  1  0  0  0
 48124  1  0  0  0
 49 50  1  0  0  0
 49 53  1  0  0  0
 49 64  1  0  0  0
 49125  1  0  0  0
 50 51  1  0  0  0
 50126  1  0  0  0
 50127  1  0  0  0
 51 52  1  0  0  0
 51128  1  0  0  0
 51129  1  0  0  0
 52130  1  0  0  0
 52131  1  0  0  0
 53 54  1  0  0  0
 54 55  2  0  0  0
 54132  1  0  0  0
 55 57  1  0  0  0
 55133  1  0  0  0
 56 69  2  0  0  0
 57 58  2  0  0  0
 57134  1  0  0  0
 58135  1  0  0  0
 59 60  1  0  0  0
 59 61  1  0  0  0
 59 62  1  0  0  0
 60136  1  0  0  0
 60137  1  0  0  0
 60138  1  0  0  0
 61139  1  0  0  0
 61140  1  0  0  0
 61141  1  0  0  0
 62142  1  0  0  0
 62143  1  0  0  0
 62144  1  0  0  0
 63 65  1  0  0  0
 63145  1  0  0  0
 63146  1  0  0  0
 63147  1  0  0  0
 64148  1  0  0  0
 65149  1  0  0  0
 68 86  1  0  0  0
 71 72  2  0  0  0
 71 73  1  0  0  0
 71150  1  0  0  0
 72 75  1  0  0  0
 72151  1  0  0  0
 73 76  2  0  0  0
 73152  1  0  0  0
 74 75  2  0  0  0
 74 76  1  0  0  0
 74153  1  0  0  0
 75 85  1  0  0  0
 76 88  1  0  0  0
 77 82  1  0  0  0
 77 88  1  0  0  0
 77 90  2  0  0  0
 78154  1  0  0  0
 78155  1  0  0  0
 78156  1  0  0  0
 78 86  1  0  0  0
 79157  1  0  0  0
 79158  1  0  0  0
 79159  1  0  0  0
 79 87  1  0  0  0
 80 87  1  0  0  0
 80160  1  0  0  0
 80161  1  0  0  0
 80162  1  0  0  0
 81 87  1  0  0  0
 81163  1  0  0  0
 81164  1  0  0  0
 81165  1  0  0  0
 82 83  1  0  0  0
 82166  1  0  0  0
 82167  1  0  0  0
 83 86  1  0  0  0
 83168  1  0  0  0
 83169  1  0  0  0
 84 87  1  0  0  0
 84170  1  0  0  0
 84171  1  0  0  0
 84 85  1  0  0  0
 85 89  1  0  0  0
 85172  1  0  0  0
 86173  1  0  0  0
 88174  1  0  0  0
 89175  1  0  0  0
M  ISO  4   1 100  68 101  86 101  89 100
M  END
> <chiral flag>
0

> <version>
0

> <s_m_source_file>
/data/baiqing/PycharmProjects/Reinvent-master-3.2/result/LINK_invent/BTK/process_docking_weight1_custom_product_contain_oxygen_bond_distance_aromatic_linkinvent_7_9_3/rearranged_h_0148.sdf

> <i_m_source_file_index>
93

> <r_mmod_Potential_Energy-OPLS-2005>
-89.2688446044922

> <r_mmod_Stretch_Energy-OPLS-2005>
37.2810363769531

> <r_mmod_Bend_Energy-OPLS-2005>
107.670074462891

> <r_mmod_Torsional_Energy-OPLS-2005>
269.928924560547

> <r_mmod_Improper_Torsional_Energy-OPLS-2005>
11.2703170776367

> <r_mmod_Van_der_Waal_Energy-OPLS-2005>
151.749755859375

> <r_mmod_Electrostatic_Energy-OPLS-2005>
-479.344879150391

> <r_mmod_Solvation_Energy-OPLS-2005>
-209.927841186523

> <b_mmod_Minimization_Converged-OPLS-2005>
0

> <r_mmod_RMS_Derivative-OPLS-2005>
6.81289720535278

$$$$
93
                    3D
 Structure written by MMmdl.
165174  0  0  1  0            999 V2000
  -30.6281  -14.6176   20.5208 C   0  0  0  0  0  0
  -30.4410  -12.3817   19.4499 C   0  0  0  0  0  0
  -29.5088  -12.5122   18.2244 C   0  0  0  0  0  0
  -28.0308  -12.3527   18.6344 C   0  0  0  0  0  0
  -27.6585  -13.2139   19.8705 C   0  0  2  0  0  0
  -28.7024  -13.0452   20.9983 C   0  0  0  0  0  0
  -25.2581  -13.8166   20.5687 C   0  0  0  0  0  0
  -24.1838  -13.0437   20.9182 C   0  0  0  0  0  0
  -24.6401  -11.6906   20.8735 C   0  0  0  0  0  0
  -23.9065  -10.4291   21.0403 C   0  0  0  0  0  0
  -24.3615   -9.4207   21.9182 C   0  0  0  0  0  0
  -23.6291   -8.2242   22.0752 C   0  0  0  0  0  0
  -22.4273   -8.0281   21.3542 C   0  0  0  0  0  0
  -21.9909   -9.0255   20.4645 C   0  0  0  0  0  0
  -22.7238  -10.2134   20.3053 C   0  0  0  0  0  0
  -21.6852   -6.0736   22.5280 C   0  0  0  0  0  0
  -21.4013   -6.5640   23.8213 C   0  0  0  0  0  0
  -21.3659   -5.6792   24.9176 C   0  0  0  0  0  0
  -21.6044   -4.3054   24.7225 C   0  0  0  0  0  0
  -21.8820   -3.8146   23.4346 C   0  0  0  0  0  0
  -21.9192   -4.6964   22.3402 C   0  0  0  0  0  0
  -22.7860  -13.5232   21.1846 C   0  0  0  0  0  0
  -22.1661   -4.2151   21.0980 F   0  0  0  0  0  0
  -21.5628   -3.4535   25.7737 F   0  0  0  0  0  0
  -30.0228  -13.3902   20.4438 N   0  0  0  0  0  0
  -26.3016  -12.9344   20.3346 N   0  0  0  0  0  0
  -25.9332  -11.6500   20.5762 N   0  0  0  0  0  0
  -22.0498  -12.8226   22.0403 N   0  0  0  0  0  0
  -25.4301  -15.1887   20.4111 N   0  0  0  0  0  0
  -31.7687  -14.8028   20.0855 O   0  0  0  0  0  0
  -21.6636   -6.8879   21.4242 O   0  0  0  0  0  0
  -22.3545  -14.5540   20.6697 O   0  0  0  0  0  0
  -24.6252  -31.8614   23.2052 C   0  0  0  0  0  0
  -25.9109  -32.4786   23.8372 C   0  0  1  0  0  0
  -27.2219  -27.3312   20.1148 C   0  0  0  0  0  0
  -25.5932  -33.8587   24.2299 N   0  0  0  0  0  0
  -23.4181  -30.4869   21.5475 C   0  0  2  0  0  0
  -24.8650  -28.9472   20.1114 C   0  0  0  0  0  0
  -22.7468  -29.4636   22.4943 C   0  0  0  0  0  0
  -18.0284  -28.1383   22.8484 C   0  0  0  0  0  0
  -24.1489  -36.7295   23.2637 C   0  0  0  0  0  0
  -25.9594  -30.7951   21.3769 C   0  0  0  0  0  0
  -26.0338  -29.4239   20.7191 C   0  0  0  0  0  0
  -27.2166  -28.6269   20.7140 C   0  0  0  0  0  0
  -26.0366  -26.9183   19.4631 C   0  0  0  0  0  0
  -24.8678  -27.6987   19.4744 C   0  0  0  0  0  0
  -23.6325  -29.8250   20.1618 C   0  0  0  0  0  0
  -25.4112  -36.3089   24.0334 C   0  0  1  0  0  0
  -20.5883  -28.3688   23.1283 C   0  0  2  0  0  0
  -20.6775  -26.9413   22.5407 C   0  0  0  0  0  0
  -19.5752  -26.6385   21.5208 C   0  0  0  0  0  0
  -18.1932  -26.7927   22.1620 C   0  0  0  0  0  0
  -19.1536  -28.8852   23.2880 C   0  0  0  0  0  0
  -18.9460  -30.1453   23.8897 C   0  0  0  0  0  0
  -17.6461  -30.6586   24.0561 C   0  0  0  0  0  0
  -25.9049  -34.9456   23.5114 C   0  0  0  0  0  0
  -16.5351  -29.9085   23.6330 C   0  0  0  0  0  0
  -16.7272  -28.6501   23.0352 C   0  0  0  0  0  0
  -26.4499  -31.6586   25.0732 C   0  0  0  0  0  0
  -25.3737  -31.3712   26.1461 C   0  0  0  0  0  0
  -27.0339  -30.3011   24.6176 C   0  0  0  0  0  0
  -27.6062  -32.4315   25.7500 C   0  0  0  0  0  0
  -27.5581  -37.1803   24.8464 C   0  0  0  0  0  0
  -21.4184  -29.3045   22.3681 N   0  0  0  0  0  0
  -26.4291  -37.3782   23.9412 N   0  0  0  0  0  0
  -24.6861  -31.0638   22.1000 N   0  0  0  0  0  0
  -23.4197  -28.8173   23.3016 O   0  0  0  0  0  0
  -28.3269  -26.4686   20.1549 O   0  0  0  0  0  0
  -26.5609  -34.8918   22.4675 O   0  0  0  0  0  0
  -23.5419  -32.1409   23.7387 O   0  0  0  0  0  0
  -30.5543  -19.2229   19.7781 C   0  0  0  0  0  0
  -28.8652  -19.2748   21.4702 C   0  0  0  0  0  0
  -30.6720  -17.8053   19.9197 C   0  0  0  0  0  0
  -28.9694  -17.8616   21.6079 C   0  0  0  0  0  0
  -29.6430  -20.0168   20.5397 C   0  0  0  0  0  0
  -29.8699  -17.0817   20.8396 C   0  0  0  0  0  0
  -29.3796  -23.4584   18.9799 C   0  0  0  0  0  0
  -29.9323  -22.0152   19.0532 C   0  0  0  0  0  0
  -29.1245  -23.9008   20.4331 C   0  0  1  0  0  0
  -28.7145  -22.4721   21.0562 C   0  0  0  0  0  0
  -30.4490  -24.4333   21.0281 C   0  0  0  0  0  0
  -27.2151  -22.1837   20.7881 C   0  0  0  0  0  0
  -28.9593  -22.4429   22.5825 C   0  0  0  0  0  0
  -28.0392  -25.0713   20.5566 C   0  0  0  0  0  0
  -29.5437  -21.4507   20.3470 N   0  0  0  0  0  0
  -29.8488  -15.6306   21.0058 N   0  0  0  0  0  0
  -31.4821  -12.5081   19.1477 H   0  0  0  0  0  0
  -30.3758  -11.3803   19.8786 H   0  0  0  0  0  0
  -29.7698  -11.7675   17.4713 H   0  0  0  0  0  0
  -29.6549  -13.4857   17.7539 H   0  0  0  0  0  0
  -27.8616  -11.2981   18.8553 H   0  0  0  0  0  0
  -27.3778  -12.5949   17.7951 H   0  0  0  0  0  0
  -27.6848  -14.2539   19.5443 H   0  0  0  0  0  0
  -28.7086  -12.0159   21.3602 H   0  0  0  0  0  0
  -28.4448  -13.6566   21.8642 H   0  0  0  0  0  0
  -25.2762   -9.5680   22.4756 H   0  0  0  0  0  0
  -24.0000   -7.4631   22.7470 H   0  0  0  0  0  0
  -21.0840   -8.8774   19.8950 H   0  0  0  0  0  0
  -22.3698  -10.9671   19.6160 H   0  0  0  0  0  0
  -21.2006   -7.6148   23.9719 H   0  0  0  0  0  0
  -21.1480   -6.0520   25.9080 H   0  0  0  0  0  0
  -22.0599   -2.7609   23.2843 H   0  0  0  0  0  0
  -22.4108  -11.9884   22.4789 H   0  0  0  0  0  0
  -21.1118  -13.1258   22.2610 H   0  0  0  0  0  0
  -24.6634  -15.8436   20.5202 H   0  0  0  0  0  0
  -26.2822  -15.6282   20.0860 H   0  0  0  0  0  0
  -26.7176  -32.5464   23.1122 H   0  0  0  0  0  0
  -25.0092  -33.9735   25.0453 H   0  0  0  0  0  0
  -22.7115  -31.3074   21.4064 H   0  0  0  0  0  0
  -23.3752  -35.9627   23.3297 H   0  0  0  0  0  0
  -24.3583  -36.8914   22.2052 H   0  0  0  0  0  0
  -23.7238  -37.6497   23.6655 H   0  0  0  0  0  0
  -26.0903  -31.5593   20.6094 H   0  0  0  0  0  0
  -26.8404  -30.8431   22.0054 H   0  0  0  0  0  0
  -28.1115  -28.9856   21.2031 H   0  0  0  0  0  0
  -25.9895  -25.9821   18.9279 H   0  0  0  0  0  0
  -23.9772  -27.3341   18.9811 H   0  0  0  0  0  0
  -23.7508  -30.6029   19.4065 H   0  0  0  0  0  0
  -22.7530  -29.2540   19.8587 H   0  0  0  0  0  0
  -25.1289  -36.1945   25.0826 H   0  0  0  0  0  0
  -20.9976  -28.3260   24.1403 H   0  0  0  0  0  0
  -20.5675  -26.2299   23.3604 H   0  0  0  0  0  0
  -21.6644  -26.7446   22.1201 H   0  0  0  0  0  0
  -19.6915  -25.6295   21.1238 H   0  0  0  0  0  0
  -19.6690  -27.3194   20.6736 H   0  0  0  0  0  0
  -17.4201  -26.6670   21.4024 H   0  0  0  0  0  0
  -18.0337  -26.0069   22.9018 H   0  0  0  0  0  0
  -19.7937  -30.7266   24.2271 H   0  0  0  0  0  0
  -17.5017  -31.6267   24.5161 H   0  0  0  0  0  0
  -15.5352  -30.2988   23.7655 H   0  0  0  0  0  0
  -15.8671  -28.0821   22.7071 H   0  0  0  0  0  0
  -24.5923  -30.7047   25.7792 H   0  0  0  0  0  0
  -24.8915  -32.2871   26.4887 H   0  0  0  0  0  0
  -25.8073  -30.8896   27.0235 H   0  0  0  0  0  0
  -26.2910  -29.6762   24.1206 H   0  0  0  0  0  0
  -27.4046  -29.7265   25.4674 H   0  0  0  0  0  0
  -27.8777  -30.4296   23.9392 H   0  0  0  0  0  0
  -27.2679  -33.3616   26.2078 H   0  0  0  0  0  0
  -28.3873  -32.6870   25.0328 H   0  0  0  0  0  0
  -28.0729  -31.8437   26.5415 H   0  0  0  0  0  0
  -28.2594  -38.0105   24.7521 H   0  0  0  0  0  0
  -28.1082  -36.2637   24.6278 H   0  0  0  0  0  0
  -27.2301  -37.1437   25.8867 H   0  0  0  0  0  0
  -20.9360  -29.8772   21.6895 H   0  0  0  0  0  0
  -26.0174  -38.2857   24.1415 H   0  0  0  0  0  0
  -31.1970  -19.6964   19.0510 H   0  0  0  0  0  0
  -28.1408  -19.7608   22.0989 H   0  0  0  0  0  0
  -31.3771  -17.2816   19.2903 H   0  0  0  0  0  0
  -28.3232  -17.3739   22.3240 H   0  0  0  0  0  0
  -28.4422  -23.4522   18.4226 H   0  0  0  0  0  0
  -30.0500  -24.1288   18.4410 H   0  0  0  0  0  0
  -31.0212  -22.0339   18.9890 H   0  0  0  0  0  0
  -29.5603  -21.4132   18.2223 H   0  0  0  0  0  0
  -31.2344  -23.6772   21.0164 H   0  0  0  0  0  0
  -30.3218  -24.7642   22.0589 H   0  0  0  0  0  0
  -30.8152  -25.2915   20.4640 H   0  0  0  0  0  0
  -26.5720  -22.8861   21.3188 H   0  0  0  0  0  0
  -26.9055  -21.1957   21.1189 H   0  0  0  0  0  0
  -26.9637  -22.2460   19.7295 H   0  0  0  0  0  0
  -28.5091  -23.3109   23.0645 H   0  0  0  0  0  0
  -30.0220  -22.4505   22.8254 H   0  0  0  0  0  0
  -28.5303  -21.5734   23.0734 H   0  0  0  0  0  0
  -27.7376  -25.1278   21.6031 H   0  0  0  0  0  0
  -27.1609  -24.7084   20.0335 H   0  0  0  0  0  0
  -29.0199  -15.2813   21.4620 H   0  0  0  0  0  0
  1 25  1  0  0  0
  1 30  2  0  0  0
  1 86  1  0  0  0
  2  3  1  0  0  0
  2 25  1  0  0  0
  2 87  1  0  0  0
  2 88  1  0  0  0
  3  4  1  0  0  0
  3 89  1  0  0  0
  3 90  1  0  0  0
  4  5  1  0  0  0
  4 91  1  0  0  0
  4 92  1  0  0  0
  5  6  1  0  0  0
  5 26  1  0  0  0
  5 93  1  0  0  0
  6 25  1  0  0  0
  6 94  1  0  0  0
  6 95  1  0  0  0
  7  8  2  0  0  0
  7 26  1  0  0  0
  7 29  1  0  0  0
  8  9  1  0  0  0
  8 22  1  0  0  0
  9 10  1  0  0  0
  9 27  2  0  0  0
 10 11  2  0  0  0
 10 15  1  0  0  0
 11 12  1  0  0  0
 11 96  1  0  0  0
 12 13  2  0  0  0
 12 97  1  0  0  0
 13 14  1  0  0  0
 13 31  1  0  0  0
 14 15  2  0  0  0
 14 98  1  0  0  0
 15 99  1  0  0  0
 16 17  2  0  0  0
 16 21  1  0  0  0
 16 31  1  0  0  0
 17 18  1  0  0  0
 17100  1  0  0  0
 18 19  2  0  0  0
 18101  1  0  0  0
 19 20  1  0  0  0
 19 24  1  0  0  0
 20 21  2  0  0  0
 20102  1  0  0  0
 21 23  1  0  0  0
 22 28  1  0  0  0
 22 32  2  0  0  0
 26 27  1  0  0  0
 28103  1  0  0  0
 28104  1  0  0  0
 29105  1  0  0  0
 29106  1  0  0  0
 33 34  1  0  0  0
 33 66  1  0  0  0
 33 70  2  0  0  0
 34 36  1  0  0  0
 34 59  1  0  0  0
 34107  1  0  0  0
 35 44  2  0  0  0
 35 45  1  0  0  0
 35 68  1  0  0  0
 36 56  1  0  0  0
 36108  1  0  0  0
 37 39  1  0  0  0
 37 47  1  0  0  0
 37 66  1  0  0  0
 37109  1  0  0  0
 38 43  2  0  0  0
 38 46  1  0  0  0
 38 47  1  0  0  0
 39 64  1  0  0  0
 39 67  2  0  0  0
 40 52  1  0  0  0
 40 53  2  0  0  0
 40 58  1  0  0  0
 41110  1  0  0  0
 41111  1  0  0  0
 41112  1  0  0  0
 41 48  1  0  0  0
 42 43  1  0  0  0
 42 66  1  0  0  0
 42113  1  0  0  0
 42114  1  0  0  0
 43 44  1  0  0  0
 44115  1  0  0  0
 45 46  2  0  0  0
 45116  1  0  0  0
 46117  1  0  0  0
 47118  1  0  0  0
 47119  1  0  0  0
 48 56  1  0  0  0
 48 65  1  0  0  0
 48120  1  0  0  0
 49 50  1  0  0  0
 49 53  1  0  0  0
 49 64  1  0  0  0
 49121  1  0  0  0
 50 51  1  0  0  0
 50122  1  0  0  0
 50123  1  0  0  0
 51 52  1  0  0  0
 51124  1  0  0  0
 51125  1  0  0  0
 52126  1  0  0  0
 52127  1  0  0  0
 53 54  1  0  0  0
 54 55  2  0  0  0
 54128  1  0  0  0
 55 57  1  0  0  0
 55129  1  0  0  0
 56 69  2  0  0  0
 57 58  2  0  0  0
 57130  1  0  0  0
 58131  1  0  0  0
 59 60  1  0  0  0
 59 61  1  0  0  0
 59 62  1  0  0  0
 60132  1  0  0  0
 60133  1  0  0  0
 60134  1  0  0  0
 61135  1  0  0  0
 61136  1  0  0  0
 61137  1  0  0  0
 62138  1  0  0  0
 62139  1  0  0  0
 62140  1  0  0  0
 63 65  1  0  0  0
 63141  1  0  0  0
 63142  1  0  0  0
 63143  1  0  0  0
 64144  1  0  0  0
 65145  1  0  0  0
 68 84  1  0  0  0
 71 73  2  0  0  0
 71 75  1  0  0  0
 71146  1  0  0  0
 72 74  1  0  0  0
 72 75  2  0  0  0
 72147  1  0  0  0
 73 76  1  0  0  0
 73148  1  0  0  0
 74 76  2  0  0  0
 74149  1  0  0  0
 75 85  1  0  0  0
 76 86  1  0  0  0
 77 78  1  0  0  0
 77 79  1  0  0  0
 77150  1  0  0  0
 77151  1  0  0  0
 78 85  1  0  0  0
 78152  1  0  0  0
 78153  1  0  0  0
 79 80  1  0  0  0
 79 81  1  0  0  0
 79 84  1  0  0  0
 80 82  1  0  0  0
 80 83  1  0  0  0
 80 85  1  0  0  0
 81154  1  0  0  0
 81155  1  0  0  0
 81156  1  0  0  0
 82157  1  0  0  0
 82158  1  0  0  0
 82159  1  0  0  0
 83160  1  0  0  0
 83161  1  0  0  0
 83162  1  0  0  0
 84163  1  0  0  0
 84164  1  0  0  0
 86165  1  0  0  0
M  ISO  4   1 100  68 101  84 101  86 100
M  END
> <chiral flag>
0

> <version>
0

> <s_m_source_file>
/data/baiqing/PycharmProjects/Reinvent-master-3.2/result/LINK_invent/BTK/process_docking_weight1_custom_product_contain_oxygen_bond_distance_aromatic_linkinvent_7_9_3/rearranged_h_0148.sdf

> <i_m_source_file_index>
94

> <r_mmod_Potential_Energy-OPLS-2005>
134.031372070312

> <r_mmod_Stretch_Energy-OPLS-2005>
83.0423202514648

> <r_mmod_Bend_Energy-OPLS-2005>
190.516006469727

> <r_mmod_Torsional_Energy-OPLS-2005>
308.766387939453

> <r_mmod_Improper_Torsional_Energy-OPLS-2005>
4.38466215133667

> <r_mmod_Van_der_Waal_Energy-OPLS-2005>
157.508926391602

> <r_mmod_Electrostatic_Energy-OPLS-2005>
-446.470794677734

> <r_mmod_Solvation_Energy-OPLS-2005>
-206.921875

> <b_mmod_Minimization_Converged-OPLS-2005>
0

> <r_mmod_RMS_Derivative-OPLS-2005>
0.317747563123703

$$$$
