0
                    3D
 Structure written by MMmdl.
157165  0  0  1  0            999 V2000
  -30.6862  -14.5093   20.5597 C   0  0  0  0  0  0
  -30.4253  -12.3318   19.4224 C   0  0  0  0  0  0
  -29.4962  -12.5118   18.2034 C   0  0  0  0  0  0
  -28.0166  -12.3696   18.6138 C   0  0  0  0  0  0
  -27.6574  -13.2122   19.8681 C   0  0  2  0  0  0
  -28.7005  -13.0113   20.9904 C   0  0  0  0  0  0
  -25.2558  -13.8155   20.5656 C   0  0  0  0  0  0
  -24.1829  -13.0423   20.9174 C   0  0  0  0  0  0
  -24.6399  -11.6897   20.8724 C   0  0  0  0  0  0
  -23.9060  -10.4284   21.0394 C   0  0  0  0  0  0
  -24.3619   -9.4201   21.9172 C   0  0  0  0  0  0
  -23.6300   -8.2236   22.0752 C   0  0  0  0  0  0
  -22.4280   -8.0275   21.3541 C   0  0  0  0  0  0
  -21.9907   -9.0246   20.4645 C   0  0  0  0  0  0
  -22.7231  -10.2128   20.3046 C   0  0  0  0  0  0
  -21.6856   -6.0730   22.5280 C   0  0  0  0  0  0
  -21.4014   -6.5635   23.8212 C   0  0  0  0  0  0
  -21.3657   -5.6787   24.9175 C   0  0  0  0  0  0
  -21.6050   -4.3050   24.7224 C   0  0  0  0  0  0
  -21.8819   -3.8138   23.4343 C   0  0  0  0  0  0
  -21.9192   -4.6957   22.3400 C   0  0  0  0  0  0
  -22.7847  -13.5216   21.1838 C   0  0  0  0  0  0
  -22.1660   -4.2147   21.0976 F   0  0  0  0  0  0
  -21.5634   -3.4532   25.7732 F   0  0  0  0  0  0
  -30.0269  -13.3243   20.4346 N   0  0  0  0  0  0
  -26.3002  -12.9340   20.3321 N   0  0  0  0  0  0
  -25.9324  -11.6492   20.5738 N   0  0  0  0  0  0
  -22.0493  -12.8218   22.0403 N   0  0  0  0  0  0
  -25.4209  -15.1874   20.4041 N   0  0  0  0  0  0
  -31.8232  -14.6842   20.1141 O   0  0  0  0  0  0
  -21.6645   -6.8871   21.4239 O   0  0  0  0  0  0
  -22.3520  -14.5512   20.6677 O   0  0  0  0  0  0
  -24.6176  -31.8658   23.2074 C   0  0  0  0  0  0
  -25.9057  -32.4811   23.8380 C   0  0  1  0  0  0
  -27.2354  -27.4120   20.1090 C   0  0  0  0  0  0
  -25.5896  -33.8608   24.2311 N   0  0  0  0  0  0
  -23.4071  -30.4882   21.5474 C   0  0  2  0  0  0
  -24.8550  -28.9493   20.1145 C   0  0  0  0  0  0
  -22.7428  -29.4648   22.4972 C   0  0  0  0  0  0
  -18.0276  -28.1392   22.8492 C   0  0  0  0  0  0
  -24.1488  -36.7313   23.2639 C   0  0  0  0  0  0
  -25.9377  -30.8258   21.3634 C   0  0  0  0  0  0
  -26.0160  -29.4585   20.7102 C   0  0  0  0  0  0
  -27.2116  -28.7003   20.6972 C   0  0  0  0  0  0
  -26.0583  -26.9245   19.5014 C   0  0  0  0  0  0
  -24.8721  -27.6831   19.5044 C   0  0  0  0  0  0
  -23.6174  -29.8181   20.1629 C   0  0  0  0  0  0
  -25.4109  -36.3106   24.0338 C   0  0  1  0  0  0
  -20.5870  -28.3686   23.1310 C   0  0  2  0  0  0
  -20.6770  -26.9420   22.5415 C   0  0  0  0  0  0
  -19.5741  -26.6401   21.5219 C   0  0  0  0  0  0
  -18.1921  -26.7938   22.1633 C   0  0  0  0  0  0
  -19.1526  -28.8855   23.2897 C   0  0  0  0  0  0
  -18.9452  -30.1460   23.8914 C   0  0  0  0  0  0
  -17.6451  -30.6593   24.0575 C   0  0  0  0  0  0
  -25.9039  -34.9472   23.5123 C   0  0  0  0  0  0
  -16.5345  -29.9101   23.6327 C   0  0  0  0  0  0
  -16.7264  -28.6516   23.0345 C   0  0  0  0  0  0
  -26.4477  -31.6597   25.0719 C   0  0  0  0  0  0
  -25.3737  -31.3714   26.1464 C   0  0  0  0  0  0
  -27.0306  -30.3031   24.6112 C   0  0  0  0  0  0
  -27.6044  -32.4327   25.7484 C   0  0  0  0  0  0
  -27.5579  -37.1808   24.8461 C   0  0  0  0  0  0
  -21.4151  -29.3048   22.3715 N   0  0  0  0  0  0
  -26.4293  -37.3789   23.9407 N   0  0  0  0  0  0
  -24.6720  -31.0753   22.0975 N   0  0  0  0  0  0
  -23.4187  -28.8195   23.3026 O   0  0  0  0  0  0
  -28.3935  -26.6548   20.1067 O   0  0  0  0  0  0
  -26.5604  -34.8921   22.4689 O   0  0  0  0  0  0
  -23.5363  -32.1417   23.7457 O   0  0  0  0  0  0
  -27.4910  -18.7014   19.3588 C   0  0  0  0  0  0
  -27.8932  -20.0507   19.3935 C   0  0  0  0  0  0
  -28.2948  -17.7017   19.9382 C   0  0  0  0  0  0
  -29.1019  -20.4343   20.0208 C   0  0  0  0  0  0
  -29.5084  -18.0377   20.5743 C   0  0  0  0  0  0
  -29.9006  -19.4098   20.6184 C   0  0  0  0  0  0
  -29.5579  -21.8834   19.9337 C   0  0  0  0  0  0
  -29.1302  -25.2235   21.8819 C   0  0  0  0  0  0
  -30.4023  -16.9462   21.2061 C   0  0  0  0  0  0
  -28.7780  -24.2582   19.5431 C   0  0  0  0  0  0
  -28.2954  -25.2946   20.5963 C   0  0  2  0  0  0
  -28.6051  -22.8415   19.9455 N   0  0  0  0  0  0
  -29.9681  -15.5341   21.0682 N   0  0  0  0  0  0
  -30.7531  -22.1601   19.8123 O   0  0  0  0  0  0
  -31.0633  -19.7287   21.2395 F   0  0  0  0  0  0
  -31.4691  -12.4368   19.1204 H   0  0  0  0  0  0
  -30.3329  -11.3238   19.8297 H   0  0  0  0  0  0
  -29.7438  -11.7846   17.4295 H   0  0  0  0  0  0
  -29.6584  -13.4942   17.7567 H   0  0  0  0  0  0
  -27.8255  -11.3141   18.8093 H   0  0  0  0  0  0
  -27.3691  -12.6446   17.7796 H   0  0  0  0  0  0
  -27.6909  -14.2574   19.5630 H   0  0  0  0  0  0
  -28.6835  -11.9784   21.3409 H   0  0  0  0  0  0
  -28.4598  -13.6197   21.8634 H   0  0  0  0  0  0
  -25.2771   -9.5683   22.4739 H   0  0  0  0  0  0
  -24.0012   -7.4630   22.7479 H   0  0  0  0  0  0
  -21.0830   -8.8755   19.8967 H   0  0  0  0  0  0
  -22.3678  -10.9661   19.6154 H   0  0  0  0  0  0
  -21.2005   -7.6145   23.9713 H   0  0  0  0  0  0
  -21.1486   -6.0519   25.9079 H   0  0  0  0  0  0
  -22.0607   -2.7602   23.2843 H   0  0  0  0  0  0
  -22.4111  -11.9895   22.4823 H   0  0  0  0  0  0
  -21.1118  -13.1262   22.2607 H   0  0  0  0  0  0
  -24.6464  -15.8339   20.5108 H   0  0  0  0  0  0
  -26.2597  -15.6304   20.0562 H   0  0  0  0  0  0
  -26.7129  -32.5518   23.1144 H   0  0  0  0  0  0
  -25.0031  -33.9762   25.0441 H   0  0  0  0  0  0
  -22.6967  -31.3054   21.4053 H   0  0  0  0  0  0
  -23.3741  -35.9653   23.3317 H   0  0  0  0  0  0
  -24.3576  -36.8916   22.2049 H   0  0  0  0  0  0
  -23.7253  -37.6525   23.6650 H   0  0  0  0  0  0
  -26.0547  -31.5919   20.5955 H   0  0  0  0  0  0
  -26.8232  -30.8773   21.9852 H   0  0  0  0  0  0
  -28.1095  -29.0917   21.1547 H   0  0  0  0  0  0
  -26.0550  -25.9556   19.0232 H   0  0  0  0  0  0
  -23.9819  -27.2874   19.0358 H   0  0  0  0  0  0
  -23.7273  -30.5919   19.4020 H   0  0  0  0  0  0
  -22.7411  -29.2380   19.8674 H   0  0  0  0  0  0
  -25.1290  -36.1965   25.0832 H   0  0  0  0  0  0
  -20.9957  -28.3259   24.1434 H   0  0  0  0  0  0
  -20.5690  -26.2295   23.3608 H   0  0  0  0  0  0
  -21.6637  -26.7473   22.1195 H   0  0  0  0  0  0
  -19.6905  -25.6316   21.1239 H   0  0  0  0  0  0
  -19.6680  -27.3222   20.6759 H   0  0  0  0  0  0
  -17.4192  -26.6687   21.4037 H   0  0  0  0  0  0
  -18.0323  -26.0085   22.9034 H   0  0  0  0  0  0
  -19.7926  -30.7270   24.2293 H   0  0  0  0  0  0
  -17.5008  -31.6273   24.5180 H   0  0  0  0  0  0
  -15.5346  -30.3009   23.7642 H   0  0  0  0  0  0
  -15.8663  -28.0848   22.7046 H   0  0  0  0  0  0
  -24.5888  -30.7091   25.7793 H   0  0  0  0  0  0
  -24.8959  -32.2881   26.4932 H   0  0  0  0  0  0
  -25.8080  -30.8853   27.0209 H   0  0  0  0  0  0
  -26.2856  -29.6795   24.1154 H   0  0  0  0  0  0
  -27.4049  -29.7266   25.4583 H   0  0  0  0  0  0
  -27.8708  -30.4334   23.9285 H   0  0  0  0  0  0
  -27.2640  -33.3603   26.2097 H   0  0  0  0  0  0
  -28.3828  -32.6930   25.0301 H   0  0  0  0  0  0
  -28.0742  -31.8439   26.5370 H   0  0  0  0  0  0
  -28.2600  -38.0098   24.7497 H   0  0  0  0  0  0
  -28.1070  -36.2632   24.6304 H   0  0  0  0  0  0
  -27.2295  -37.1475   25.8862 H   0  0  0  0  0  0
  -20.9323  -29.8761   21.6920 H   0  0  0  0  0  0
  -26.0185  -38.2869   24.1396 H   0  0  0  0  0  0
  -26.5676  -18.4309   18.8651 H   0  0  0  0  0  0
  -27.2740  -20.7880   18.9020 H   0  0  0  0  0  0
  -27.9711  -16.6750   19.8780 H   0  0  0  0  0  0
  -29.0797  -24.2327   22.3335 H   0  0  0  0  0  0
  -28.7740  -25.9396   22.6225 H   0  0  0  0  0  0
  -30.1794  -25.4439   21.6803 H   0  0  0  0  0  0
  -30.4747  -17.1590   22.2731 H   0  0  0  0  0  0
  -31.4112  -17.0771   20.8114 H   0  0  0  0  0  0
  -29.8147  -24.4693   19.2745 H   0  0  0  0  0  0
  -28.2049  -24.4037   18.6271 H   0  0  0  0  0  0
  -27.2663  -25.0506   20.8658 H   0  0  0  0  0  0
  -27.6567  -22.5301   20.1039 H   0  0  0  0  0  0
  -29.0427  -15.3078   21.3988 H   0  0  0  0  0  0
  1 25  1  0  0  0
  1 30  2  0  0  0
  1 83  1  0  0  0
  2  3  1  0  0  0
  2 25  1  0  0  0
  2 86  1  0  0  0
  2 87  1  0  0  0
  3  4  1  0  0  0
  3 88  1  0  0  0
  3 89  1  0  0  0
  4  5  1  0  0  0
  4 90  1  0  0  0
  4 91  1  0  0  0
  5  6  1  0  0  0
  5 26  1  0  0  0
  5 92  1  0  0  0
  6 25  1  0  0  0
  6 93  1  0  0  0
  6 94  1  0  0  0
  7  8  2  0  0  0
  7 26  1  0  0  0
  7 29  1  0  0  0
  8  9  1  0  0  0
  8 22  1  0  0  0
  9 10  1  0  0  0
  9 27  2  0  0  0
 10 11  2  0  0  0
 10 15  1  0  0  0
 11 12  1  0  0  0
 11 95  1  0  0  0
 12 13  2  0  0  0
 12 96  1  0  0  0
 13 14  1  0  0  0
 13 31  1  0  0  0
 14 15  2  0  0  0
 14 97  1  0  0  0
 15 98  1  0  0  0
 16 17  2  0  0  0
 16 21  1  0  0  0
 16 31  1  0  0  0
 17 18  1  0  0  0
 17 99  1  0  0  0
 18 19  2  0  0  0
 18100  1  0  0  0
 19 20  1  0  0  0
 19 24  1  0  0  0
 20 21  2  0  0  0
 20101  1  0  0  0
 21 23  1  0  0  0
 22 28  1  0  0  0
 22 32  2  0  0  0
 26 27  1  0  0  0
 28102  1  0  0  0
 28103  1  0  0  0
 29104  1  0  0  0
 29105  1  0  0  0
 33 34  1  0  0  0
 33 66  1  0  0  0
 33 70  2  0  0  0
 34 36  1  0  0  0
 34 59  1  0  0  0
 34106  1  0  0  0
 35 44  2  0  0  0
 35 45  1  0  0  0
 35 68  1  0  0  0
 36 56  1  0  0  0
 36107  1  0  0  0
 37 39  1  0  0  0
 37 47  1  0  0  0
 37 66  1  0  0  0
 37108  1  0  0  0
 38 43  2  0  0  0
 38 46  1  0  0  0
 38 47  1  0  0  0
 39 64  1  0  0  0
 39 67  2  0  0  0
 40 52  1  0  0  0
 40 53  2  0  0  0
 40 58  1  0  0  0
 41109  1  0  0  0
 41110  1  0  0  0
 41111  1  0  0  0
 41 48  1  0  0  0
 42 43  1  0  0  0
 42 66  1  0  0  0
 42112  1  0  0  0
 42113  1  0  0  0
 43 44  1  0  0  0
 44114  1  0  0  0
 45 46  2  0  0  0
 45115  1  0  0  0
 46116  1  0  0  0
 47117  1  0  0  0
 47118  1  0  0  0
 48 56  1  0  0  0
 48 65  1  0  0  0
 48119  1  0  0  0
 49 50  1  0  0  0
 49 53  1  0  0  0
 49 64  1  0  0  0
 49120  1  0  0  0
 50 51  1  0  0  0
 50121  1  0  0  0
 50122  1  0  0  0
 51 52  1  0  0  0
 51123  1  0  0  0
 51124  1  0  0  0
 52125  1  0  0  0
 52126  1  0  0  0
 53 54  1  0  0  0
 54 55  2  0  0  0
 54127  1  0  0  0
 55 57  1  0  0  0
 55128  1  0  0  0
 56 69  2  0  0  0
 57 58  2  0  0  0
 57129  1  0  0  0
 58130  1  0  0  0
 59 60  1  0  0  0
 59 61  1  0  0  0
 59 62  1  0  0  0
 60131  1  0  0  0
 60132  1  0  0  0
 60133  1  0  0  0
 61134  1  0  0  0
 61135  1  0  0  0
 61136  1  0  0  0
 62137  1  0  0  0
 62138  1  0  0  0
 62139  1  0  0  0
 63 65  1  0  0  0
 63140  1  0  0  0
 63141  1  0  0  0
 63142  1  0  0  0
 64143  1  0  0  0
 65144  1  0  0  0
 68 81  1  0  0  0
 71 72  2  0  0  0
 71 73  1  0  0  0
 71145  1  0  0  0
 72 74  1  0  0  0
 72146  1  0  0  0
 73 75  2  0  0  0
 73147  1  0  0  0
 74 76  2  0  0  0
 74 77  1  0  0  0
 75 76  1  0  0  0
 75 79  1  0  0  0
 76 85  1  0  0  0
 77 82  1  0  0  0
 77 84  2  0  0  0
 78148  1  0  0  0
 78149  1  0  0  0
 78150  1  0  0  0
 78 81  1  0  0  0
 79 83  1  0  0  0
 79151  1  0  0  0
 79152  1  0  0  0
 80 81  1  0  0  0
 80 82  1  0  0  0
 80153  1  0  0  0
 80154  1  0  0  0
 81155  1  0  0  0
 82156  1  0  0  0
 83157  1  0  0  0
M  ISO  4   1 100  68 101  81 101  83 100
M  END
> <chiral flag>
0

> <version>
0

> <s_m_source_file>
/data/baiqing/PycharmProjects/Reinvent-master-3.2/result/LINK_invent/BTK/process_docking_weight1_custom_product_contain_oxygen_bond_distance_aromatic_linkinvent_7_9_3/rearranged_h_0058.sdf

> <i_m_source_file_index>
1

> <r_mmod_Potential_Energy-OPLS-2005>
-138.524353027344

> <r_mmod_Stretch_Energy-OPLS-2005>
45.3819160461426

> <r_mmod_Bend_Energy-OPLS-2005>
96.2295303344727

> <r_mmod_Torsional_Energy-OPLS-2005>
223.81755065918

> <r_mmod_Improper_Torsional_Energy-OPLS-2005>
4.01785707473755

> <r_mmod_Van_der_Waal_Energy-OPLS-2005>
147.563385009766

> <r_mmod_Electrostatic_Energy-OPLS-2005>
-435.656341552734

> <r_mmod_Solvation_Energy-OPLS-2005>
-236.606521606445

> <b_mmod_Minimization_Converged-OPLS-2005>
0

> <r_mmod_RMS_Derivative-OPLS-2005>
1.46284365653992

$$$$
1
                    3D
 Structure written by MMmdl.
157165  0  0  1  0            999 V2000
  -30.7468  -14.4474   20.5615 C   0  0  0  0  0  0
  -30.4049  -12.2827   19.4436 C   0  0  0  0  0  0
  -29.4972  -12.5078   18.2200 C   0  0  0  0  0  0
  -28.0164  -12.3837   18.6215 C   0  0  0  0  0  0
  -27.6632  -13.2198   19.8813 C   0  0  2  0  0  0
  -28.7013  -13.0306   21.0113 C   0  0  0  0  0  0
  -25.2615  -13.8164   20.5738 C   0  0  0  0  0  0
  -24.1851  -13.0414   20.9182 C   0  0  0  0  0  0
  -24.6422  -11.6891   20.8751 C   0  0  0  0  0  0
  -23.9065  -10.4280   21.0411 C   0  0  0  0  0  0
  -24.3601   -9.4193   21.9188 C   0  0  0  0  0  0
  -23.6283   -8.2232   22.0754 C   0  0  0  0  0  0
  -22.4282   -8.0263   21.3538 C   0  0  0  0  0  0
  -21.9905   -9.0242   20.4658 C   0  0  0  0  0  0
  -22.7222  -10.2131   20.3080 C   0  0  0  0  0  0
  -21.6880   -6.0712   22.5277 C   0  0  0  0  0  0
  -21.4008   -6.5623   23.8193 C   0  0  0  0  0  0
  -21.3666   -5.6790   24.9161 C   0  0  0  0  0  0
  -21.6052   -4.3054   24.7227 C   0  0  0  0  0  0
  -21.8825   -3.8124   23.4359 C   0  0  0  0  0  0
  -21.9187   -4.6930   22.3398 C   0  0  0  0  0  0
  -22.7878  -13.5213   21.1857 C   0  0  0  0  0  0
  -22.1680   -4.2101   21.0988 F   0  0  0  0  0  0
  -21.5625   -3.4554   25.7751 F   0  0  0  0  0  0
  -30.0374  -13.2913   20.4547 N   0  0  0  0  0  0
  -26.3049  -12.9367   20.3416 N   0  0  0  0  0  0
  -25.9355  -11.6509   20.5765 N   0  0  0  0  0  0
  -22.0514  -12.8233   22.0440 N   0  0  0  0  0  0
  -25.4402  -15.1861   20.4206 N   0  0  0  0  0  0
  -31.8880  -14.5371   20.1029 O   0  0  0  0  0  0
  -21.6662   -6.8856   21.4239 O   0  0  0  0  0  0
  -22.3584  -14.5541   20.6734 O   0  0  0  0  0  0
  -24.6062  -31.8725   23.2142 C   0  0  0  0  0  0
  -25.8983  -32.4836   23.8437 C   0  0  1  0  0  0
  -27.2378  -27.4866   20.0844 C   0  0  0  0  0  0
  -25.5907  -33.8641   24.2382 N   0  0  0  0  0  0
  -23.3905  -30.4988   21.5535 C   0  0  2  0  0  0
  -24.8402  -28.9758   20.1076 C   0  0  0  0  0  0
  -22.7432  -29.4660   22.5021 C   0  0  0  0  0  0
  -18.0319  -28.1460   22.8467 C   0  0  0  0  0  0
  -24.1501  -36.7290   23.2650 C   0  0  0  0  0  0
  -25.9155  -30.8546   21.3613 C   0  0  0  0  0  0
  -25.9927  -29.4946   20.7061 C   0  0  0  0  0  0
  -27.1924  -28.7549   20.6967 C   0  0  0  0  0  0
  -26.0645  -26.9714   19.4805 C   0  0  0  0  0  0
  -24.8682  -27.7123   19.4924 C   0  0  0  0  0  0
  -23.5943  -29.8318   20.1632 C   0  0  0  0  0  0
  -25.4106  -36.3088   24.0354 C   0  0  1  0  0  0
  -20.5881  -28.3660   23.1368 C   0  0  2  0  0  0
  -20.6756  -26.9415   22.5432 C   0  0  0  0  0  0
  -19.5817  -26.6576   21.5110 C   0  0  0  0  0  0
  -18.1928  -26.8100   22.1404 C   0  0  0  0  0  0
  -19.1576  -28.8838   23.2972 C   0  0  0  0  0  0
  -18.9524  -30.1412   23.9056 C   0  0  0  0  0  0
  -17.6536  -30.6584   24.0732 C   0  0  0  0  0  0
  -25.9023  -34.9470   23.5148 C   0  0  0  0  0  0
  -16.5408  -29.9129   23.6457 C   0  0  0  0  0  0
  -16.7304  -28.6593   23.0384 C   0  0  0  0  0  0
  -26.4464  -31.6562   25.0715 C   0  0  0  0  0  0
  -25.3779  -31.3659   26.1491 C   0  0  0  0  0  0
  -27.0325  -30.3024   24.6054 C   0  0  0  0  0  0
  -27.6069  -32.4249   25.7447 C   0  0  0  0  0  0
  -27.5571  -37.1791   24.8464 C   0  0  0  0  0  0
  -21.4152  -29.3045   22.3807 N   0  0  0  0  0  0
  -26.4276  -37.3760   23.9422 N   0  0  0  0  0  0
  -24.6552  -31.0885   22.1013 N   0  0  0  0  0  0
  -23.4270  -28.8181   23.2995 O   0  0  0  0  0  0
  -28.4384  -26.8202   20.0799 O   0  0  0  0  0  0
  -26.5613  -34.8908   22.4725 O   0  0  0  0  0  0
  -23.5289  -32.1457   23.7580 O   0  0  0  0  0  0
  -31.6838  -18.7515   19.8876 C   0  0  0  0  0  0
  -30.7932  -19.6871   20.4235 C   0  0  0  0  0  0
  -31.4881  -17.3850   20.1207 C   0  0  0  0  0  0
  -29.4781  -17.8777   21.4050 C   0  0  0  0  0  0
  -29.6756  -19.2641   21.1795 C   0  0  0  0  0  0
  -30.3794  -16.9119   20.8792 C   0  0  0  0  0  0
  -29.3099  -22.6686   21.2539 C   0  0  0  0  0  0
  -28.6771  -20.2993   21.7082 C   0  0  0  0  0  0
  -30.0011  -23.4061   20.1024 C   0  0  0  0  0  0
  -29.8561  -24.9309   20.0940 C   0  0  0  0  0  0
  -28.4139  -25.4106   19.9342 C   0  0  0  0  0  0
  -30.1089  -15.5115   21.0941 N   0  0  0  0  0  0
  -28.7115  -21.5233   20.9082 N   0  0  0  0  0  0
  -29.4021  -23.0698   22.4160 O   0  0  0  0  0  0
  -31.4548  -12.3328   19.1477 H   0  0  0  0  0  0
  -30.2648  -11.2780   19.8442 H   0  0  0  0  0  0
  -29.7361  -11.7941   17.4291 H   0  0  0  0  0  0
  -29.6853  -13.4978   17.8046 H   0  0  0  0  0  0
  -27.8042  -11.3295   18.7929 H   0  0  0  0  0  0
  -27.3805  -12.6915   17.7903 H   0  0  0  0  0  0
  -27.7026  -14.2684   19.5820 H   0  0  0  0  0  0
  -28.6666  -12.0130   21.4024 H   0  0  0  0  0  0
  -28.4742  -13.6802   21.8563 H   0  0  0  0  0  0
  -25.2750   -9.5691   22.4752 H   0  0  0  0  0  0
  -24.0002   -7.4641   22.7490 H   0  0  0  0  0  0
  -21.0818   -8.8746   19.8999 H   0  0  0  0  0  0
  -22.3642  -10.9661   19.6204 H   0  0  0  0  0  0
  -21.2026   -7.6143   23.9672 H   0  0  0  0  0  0
  -21.1492   -6.0543   25.9058 H   0  0  0  0  0  0
  -22.0610   -2.7589   23.2883 H   0  0  0  0  0  0
  -22.4115  -11.9858   22.4770 H   0  0  0  0  0  0
  -21.1143  -13.1298   22.2681 H   0  0  0  0  0  0
  -24.6869  -15.8531   20.5413 H   0  0  0  0  0  0
  -26.3098  -15.6159   20.1264 H   0  0  0  0  0  0
  -26.7065  -32.5596   23.1232 H   0  0  0  0  0  0
  -24.9980  -33.9831   25.0466 H   0  0  0  0  0  0
  -22.6760  -31.3159   21.4206 H   0  0  0  0  0  0
  -23.3731  -35.9647   23.3302 H   0  0  0  0  0  0
  -24.3583  -36.8905   22.2062 H   0  0  0  0  0  0
  -23.7299  -37.6511   23.6664 H   0  0  0  0  0  0
  -26.0342  -31.6227   20.5943 H   0  0  0  0  0  0
  -26.7993  -30.9005   21.9821 H   0  0  0  0  0  0
  -28.0862  -29.1553   21.1595 H   0  0  0  0  0  0
  -26.0657  -26.0165   18.9764 H   0  0  0  0  0  0
  -23.9799  -27.3094   19.0241 H   0  0  0  0  0  0
  -23.6817  -30.6095   19.4041 H   0  0  0  0  0  0
  -22.7263  -29.2357   19.8759 H   0  0  0  0  0  0
  -25.1280  -36.1947   25.0844 H   0  0  0  0  0  0
  -20.9989  -28.3191   24.1480 H   0  0  0  0  0  0
  -20.5591  -26.2198   23.3539 H   0  0  0  0  0  0
  -21.6674  -26.7540   22.1301 H   0  0  0  0  0  0
  -19.7067  -25.6605   21.0882 H   0  0  0  0  0  0
  -19.6942  -27.3605   20.6848 H   0  0  0  0  0  0
  -17.4259  -26.6973   21.3719 H   0  0  0  0  0  0
  -18.0191  -26.0179   22.8678 H   0  0  0  0  0  0
  -19.8014  -30.7192   24.2451 H   0  0  0  0  0  0
  -17.5097  -31.6252   24.5327 H   0  0  0  0  0  0
  -15.5432  -30.3053   23.7804 H   0  0  0  0  0  0
  -15.8671  -28.0987   22.7010 H   0  0  0  0  0  0
  -24.5949  -30.7010   25.7836 H   0  0  0  0  0  0
  -24.8984  -32.2817   26.4953 H   0  0  0  0  0  0
  -25.8153  -30.8828   27.0236 H   0  0  0  0  0  0
  -26.2894  -29.6737   24.1132 H   0  0  0  0  0  0
  -27.4192  -29.7281   25.4488 H   0  0  0  0  0  0
  -27.8672  -30.4387   23.9169 H   0  0  0  0  0  0
  -27.2732  -33.3540   26.2073 H   0  0  0  0  0  0
  -28.3815  -32.6791   25.0201 H   0  0  0  0  0  0
  -28.0778  -31.8319   26.5299 H   0  0  0  0  0  0
  -28.2585  -38.0080   24.7461 H   0  0  0  0  0  0
  -28.1066  -36.2612   24.6313 H   0  0  0  0  0  0
  -27.2306  -37.1471   25.8870 H   0  0  0  0  0  0
  -20.9226  -29.8921   21.7214 H   0  0  0  0  0  0
  -26.0156  -38.2845   24.1336 H   0  0  0  0  0  0
  -32.5171  -19.0940   19.2896 H   0  0  0  0  0  0
  -30.9927  -20.7295   20.2218 H   0  0  0  0  0  0
  -32.2229  -16.7379   19.6697 H   0  0  0  0  0  0
  -28.6085  -17.5660   21.9705 H   0  0  0  0  0  0
  -28.8797  -20.5003   22.7631 H   0  0  0  0  0  0
  -27.6673  -19.8873   21.6562 H   0  0  0  0  0  0
  -29.6539  -23.0064   19.1492 H   0  0  0  0  0  0
  -31.0647  -23.1691   20.1509 H   0  0  0  0  0  0
  -30.4380  -25.3055   19.2486 H   0  0  0  0  0  0
  -30.3091  -25.3668   20.9858 H   0  0  0  0  0  0
  -27.7641  -24.9753   20.6957 H   0  0  0  0  0  0
  -28.0476  -25.1165   18.9495 H   0  0  0  0  0  0
  -29.2335  -15.2924   21.5456 H   0  0  0  0  0  0
  -28.6265  -21.3630   19.9130 H   0  0  0  0  0  0
  1 25  1  0  0  0
  1 30  2  0  0  0
  1 82  1  0  0  0
  2  3  1  0  0  0
  2 25  1  0  0  0
  2 85  1  0  0  0
  2 86  1  0  0  0
  3  4  1  0  0  0
  3 87  1  0  0  0
  3 88  1  0  0  0
  4  5  1  0  0  0
  4 89  1  0  0  0
  4 90  1  0  0  0
  5  6  1  0  0  0
  5 26  1  0  0  0
  5 91  1  0  0  0
  6 25  1  0  0  0
  6 92  1  0  0  0
  6 93  1  0  0  0
  7  8  2  0  0  0
  7 26  1  0  0  0
  7 29  1  0  0  0
  8  9  1  0  0  0
  8 22  1  0  0  0
  9 10  1  0  0  0
  9 27  2  0  0  0
 10 11  2  0  0  0
 10 15  1  0  0  0
 11 12  1  0  0  0
 11 94  1  0  0  0
 12 13  2  0  0  0
 12 95  1  0  0  0
 13 14  1  0  0  0
 13 31  1  0  0  0
 14 15  2  0  0  0
 14 96  1  0  0  0
 15 97  1  0  0  0
 16 17  2  0  0  0
 16 21  1  0  0  0
 16 31  1  0  0  0
 17 18  1  0  0  0
 17 98  1  0  0  0
 18 19  2  0  0  0
 18 99  1  0  0  0
 19 20  1  0  0  0
 19 24  1  0  0  0
 20 21  2  0  0  0
 20100  1  0  0  0
 21 23  1  0  0  0
 22 28  1  0  0  0
 22 32  2  0  0  0
 26 27  1  0  0  0
 28101  1  0  0  0
 28102  1  0  0  0
 29103  1  0  0  0
 29104  1  0  0  0
 33 34  1  0  0  0
 33 66  1  0  0  0
 33 70  2  0  0  0
 34 36  1  0  0  0
 34 59  1  0  0  0
 34105  1  0  0  0
 35 44  2  0  0  0
 35 45  1  0  0  0
 35 68  1  0  0  0
 36 56  1  0  0  0
 36106  1  0  0  0
 37 39  1  0  0  0
 37 47  1  0  0  0
 37 66  1  0  0  0
 37107  1  0  0  0
 38 43  2  0  0  0
 38 46  1  0  0  0
 38 47  1  0  0  0
 39 64  1  0  0  0
 39 67  2  0  0  0
 40 52  1  0  0  0
 40 53  2  0  0  0
 40 58  1  0  0  0
 41108  1  0  0  0
 41109  1  0  0  0
 41110  1  0  0  0
 41 48  1  0  0  0
 42 43  1  0  0  0
 42 66  1  0  0  0
 42111  1  0  0  0
 42112  1  0  0  0
 43 44  1  0  0  0
 44113  1  0  0  0
 45 46  2  0  0  0
 45114  1  0  0  0
 46115  1  0  0  0
 47116  1  0  0  0
 47117  1  0  0  0
 48 56  1  0  0  0
 48 65  1  0  0  0
 48118  1  0  0  0
 49 50  1  0  0  0
 49 53  1  0  0  0
 49 64  1  0  0  0
 49119  1  0  0  0
 50 51  1  0  0  0
 50120  1  0  0  0
 50121  1  0  0  0
 51 52  1  0  0  0
 51122  1  0  0  0
 51123  1  0  0  0
 52124  1  0  0  0
 52125  1  0  0  0
 53 54  1  0  0  0
 54 55  2  0  0  0
 54126  1  0  0  0
 55 57  1  0  0  0
 55127  1  0  0  0
 56 69  2  0  0  0
 57 58  2  0  0  0
 57128  1  0  0  0
 58129  1  0  0  0
 59 60  1  0  0  0
 59 61  1  0  0  0
 59 62  1  0  0  0
 60130  1  0  0  0
 60131  1  0  0  0
 60132  1  0  0  0
 61133  1  0  0  0
 61134  1  0  0  0
 61135  1  0  0  0
 62136  1  0  0  0
 62137  1  0  0  0
 62138  1  0  0  0
 63 65  1  0  0  0
 63139  1  0  0  0
 63140  1  0  0  0
 63141  1  0  0  0
 64142  1  0  0  0
 65143  1  0  0  0
 68 81  1  0  0  0
 71 72  2  0  0  0
 71 73  1  0  0  0
 71144  1  0  0  0
 72 75  1  0  0  0
 72145  1  0  0  0
 73 76  2  0  0  0
 73146  1  0  0  0
 74 75  2  0  0  0
 74 76  1  0  0  0
 74147  1  0  0  0
 75 78  1  0  0  0
 76 82  1  0  0  0
 77 79  1  0  0  0
 77 83  1  0  0  0
 77 84  2  0  0  0
 78 83  1  0  0  0
 78148  1  0  0  0
 78149  1  0  0  0
 79 80  1  0  0  0
 79150  1  0  0  0
 79151  1  0  0  0
 80 81  1  0  0  0
 80152  1  0  0  0
 80153  1  0  0  0
 81154  1  0  0  0
 81155  1  0  0  0
 82156  1  0  0  0
 83157  1  0  0  0
M  ISO  4   1 100  68 101  81 101  82 100
M  END
> <chiral flag>
0

> <version>
0

> <s_m_source_file>
/data/baiqing/PycharmProjects/Reinvent-master-3.2/result/LINK_invent/BTK/process_docking_weight1_custom_product_contain_oxygen_bond_distance_aromatic_linkinvent_7_9_3/rearranged_h_0058.sdf

> <i_m_source_file_index>
2

> <r_mmod_Potential_Energy-OPLS-2005>
-165.289016723633

> <r_mmod_Stretch_Energy-OPLS-2005>
35.4242286682129

> <r_mmod_Bend_Energy-OPLS-2005>
102.426948547363

> <r_mmod_Torsional_Energy-OPLS-2005>
210.467224121094

> <r_mmod_Improper_Torsional_Energy-OPLS-2005>
5.59003734588623

> <r_mmod_Van_der_Waal_Energy-OPLS-2005>
172.608367919922

> <r_mmod_Electrostatic_Energy-OPLS-2005>
-465.573211669922

> <r_mmod_Solvation_Energy-OPLS-2005>
-240.933349609375

> <b_mmod_Minimization_Converged-OPLS-2005>
0

> <r_mmod_RMS_Derivative-OPLS-2005>
6.16086769104004

$$$$
2
                    3D
 Structure written by MMmdl.
160168  0  0  1  0            999 V2000
  -30.6856  -14.4940   20.5436 C   0  0  0  0  0  0
  -30.4189  -12.3087   19.4260 C   0  0  0  0  0  0
  -29.4946  -12.5115   18.2075 C   0  0  0  0  0  0
  -28.0124  -12.3772   18.6122 C   0  0  0  0  0  0
  -27.6587  -13.2049   19.8767 C   0  0  2  0  0  0
  -28.7058  -12.9962   20.9960 C   0  0  0  0  0  0
  -25.2567  -13.8128   20.5701 C   0  0  0  0  0  0
  -24.1821  -13.0410   20.9200 C   0  0  0  0  0  0
  -24.6373  -11.6879   20.8761 C   0  0  0  0  0  0
  -23.9040  -10.4276   21.0389 C   0  0  0  0  0  0
  -24.3599   -9.4208   21.9172 C   0  0  0  0  0  0
  -23.6286   -8.2243   22.0749 C   0  0  0  0  0  0
  -22.4282   -8.0270   21.3536 C   0  0  0  0  0  0
  -21.9905   -9.0237   20.4644 C   0  0  0  0  0  0
  -22.7209  -10.2125   20.3041 C   0  0  0  0  0  0
  -21.6854   -6.0734   22.5278 C   0  0  0  0  0  0
  -21.4017   -6.5644   23.8214 C   0  0  0  0  0  0
  -21.3661   -5.6789   24.9172 C   0  0  0  0  0  0
  -21.6042   -4.3049   24.7217 C   0  0  0  0  0  0
  -21.8817   -3.8147   23.4339 C   0  0  0  0  0  0
  -21.9198   -4.6963   22.3396 C   0  0  0  0  0  0
  -22.7846  -13.5238   21.1823 C   0  0  0  0  0  0
  -22.1651   -4.2154   21.0971 F   0  0  0  0  0  0
  -21.5643   -3.4536   25.7724 F   0  0  0  0  0  0
  -30.0312  -13.3052   20.4357 N   0  0  0  0  0  0
  -26.3012  -12.9302   20.3396 N   0  0  0  0  0  0
  -25.9317  -11.6467   20.5801 N   0  0  0  0  0  0
  -22.0440  -12.8269   22.0378 N   0  0  0  0  0  0
  -25.4266  -15.1841   20.4086 N   0  0  0  0  0  0
  -31.8356  -14.6585   20.1237 O   0  0  0  0  0  0
  -21.6648   -6.8871   21.4239 O   0  0  0  0  0  0
  -22.3561  -14.5548   20.6647 O   0  0  0  0  0  0
  -24.6201  -31.8667   23.2118 C   0  0  0  0  0  0
  -25.9080  -32.4808   23.8416 C   0  0  1  0  0  0
  -27.2119  -27.3845   20.0715 C   0  0  0  0  0  0
  -25.5916  -33.8610   24.2315 N   0  0  0  0  0  0
  -23.4065  -30.4986   21.5548 C   0  0  2  0  0  0
  -24.8429  -28.9698   20.1109 C   0  0  0  0  0  0
  -22.7427  -29.4669   22.4960 C   0  0  0  0  0  0
  -18.0267  -28.1375   22.8493 C   0  0  0  0  0  0
  -24.1465  -36.7305   23.2643 C   0  0  0  0  0  0
  -25.9460  -30.8123   21.3790 C   0  0  0  0  0  0
  -26.0120  -29.4500   20.7122 C   0  0  0  0  0  0
  -27.1945  -28.6649   20.6932 C   0  0  0  0  0  0
  -26.0095  -26.9369   19.4704 C   0  0  0  0  0  0
  -24.8398  -27.7149   19.4896 C   0  0  0  0  0  0
  -23.6147  -29.8477   20.1637 C   0  0  0  0  0  0
  -25.4096  -36.3096   24.0330 C   0  0  1  0  0  0
  -20.5862  -28.3672   23.1281 C   0  0  2  0  0  0
  -20.6746  -26.9400   22.5393 C   0  0  0  0  0  0
  -19.5723  -26.6378   21.5193 C   0  0  0  0  0  0
  -18.1913  -26.7914   22.1623 C   0  0  0  0  0  0
  -19.1526  -28.8837   23.2886 C   0  0  0  0  0  0
  -18.9456  -30.1435   23.8909 C   0  0  0  0  0  0
  -17.6457  -30.6577   24.0569 C   0  0  0  0  0  0
  -25.9038  -34.9469   23.5114 C   0  0  0  0  0  0
  -16.5345  -29.9086   23.6325 C   0  0  0  0  0  0
  -16.7251  -28.6498   23.0355 C   0  0  0  0  0  0
  -26.4486  -31.6624   25.0785 C   0  0  0  0  0  0
  -25.3743  -31.3762   26.1534 C   0  0  0  0  0  0
  -27.0351  -30.3056   24.6249 C   0  0  0  0  0  0
  -27.6034  -32.4394   25.7550 C   0  0  0  0  0  0
  -27.5564  -37.1807   24.8460 C   0  0  0  0  0  0
  -21.4148  -29.3052   22.3702 N   0  0  0  0  0  0
  -26.4261  -37.3799   23.9412 N   0  0  0  0  0  0
  -24.6758  -31.0744   22.1040 N   0  0  0  0  0  0
  -23.4181  -28.8176   23.2993 O   0  0  0  0  0  0
  -28.3727  -26.6129   20.1055 O   0  0  0  0  0  0
  -26.5611  -34.8916   22.4680 O   0  0  0  0  0  0
  -23.5383  -32.1448   23.7485 O   0  0  0  0  0  0
  -31.8116  -18.6438   21.8681 C   0  0  0  0  0  0
  -30.8790  -19.6449   21.5530 C   0  0  0  0  0  0
  -31.5076  -17.2943   21.6302 C   0  0  0  0  0  0
  -29.6478  -19.3336   20.9315 C   0  0  0  0  0  0
  -29.3555  -17.9500   20.6539 C   0  0  0  0  0  0
  -30.2718  -16.9242   21.0523 C   0  0  0  0  0  0
  -28.6738  -20.4791   20.6830 C   0  0  0  0  0  0
  -28.0911  -17.5520   19.8916 C   0  0  0  0  0  0
  -30.1286  -24.6128   21.1126 C   0  0  0  0  0  0
  -28.4304  -22.9286   20.1446 C   0  0  0  0  0  0
  -28.5101  -25.4206   19.2795 C   0  0  0  0  0  0
  -29.3008  -24.2069   19.8836 C   0  0  1  0  0  0
  -29.9246  -15.5328   20.9590 N   0  0  0  0  0  0
  -29.2006  -21.6838   20.3702 N   0  0  0  0  0  0
  -27.4560  -20.3108   20.7830 O   0  0  0  0  0  0
  -31.4642  -12.4039   19.1286 H   0  0  0  0  0  0
  -30.3109  -11.2995   19.8264 H   0  0  0  0  0  0
  -29.7376  -11.7982   17.4201 H   0  0  0  0  0  0
  -29.6679  -13.5010   17.7842 H   0  0  0  0  0  0
  -27.8025  -11.3217   18.7831 H   0  0  0  0  0  0
  -27.3711  -12.6817   17.7818 H   0  0  0  0  0  0
  -27.6934  -14.2512   19.5788 H   0  0  0  0  0  0
  -28.6906  -11.9626   21.3434 H   0  0  0  0  0  0
  -28.4734  -13.6068   21.8706 H   0  0  0  0  0  0
  -25.2711   -9.5724   22.4775 H   0  0  0  0  0  0
  -24.0007   -7.4645   22.7468 H   0  0  0  0  0  0
  -21.0846   -8.8723   19.8952 H   0  0  0  0  0  0
  -22.3617  -10.9666   19.6187 H   0  0  0  0  0  0
  -21.1999   -7.6143   23.9715 H   0  0  0  0  0  0
  -21.1496   -6.0517   25.9075 H   0  0  0  0  0  0
  -22.0605   -2.7614   23.2826 H   0  0  0  0  0  0
  -22.4033  -11.9952   22.4823 H   0  0  0  0  0  0
  -21.1054  -13.1318   22.2507 H   0  0  0  0  0  0
  -24.6545  -15.8343   20.5007 H   0  0  0  0  0  0
  -26.2734  -15.6210   20.0731 H   0  0  0  0  0  0
  -26.7150  -32.5477   23.1167 H   0  0  0  0  0  0
  -25.0043  -33.9783   25.0443 H   0  0  0  0  0  0
  -22.6980  -31.3193   21.4235 H   0  0  0  0  0  0
  -23.3724  -35.9640   23.3304 H   0  0  0  0  0  0
  -24.3549  -36.8934   22.2059 H   0  0  0  0  0  0
  -23.7215  -37.6501   23.6674 H   0  0  0  0  0  0
  -26.0846  -31.5841   20.6211 H   0  0  0  0  0  0
  -26.8224  -30.8427   22.0129 H   0  0  0  0  0  0
  -28.0927  -29.0347   21.1678 H   0  0  0  0  0  0
  -25.8992  -25.9850   18.9826 H   0  0  0  0  0  0
  -23.9402  -27.3405   19.0206 H   0  0  0  0  0  0
  -23.7325  -30.6325   19.4155 H   0  0  0  0  0  0
  -22.7336  -29.2832   19.8579 H   0  0  0  0  0  0
  -25.1273  -36.1951   25.0825 H   0  0  0  0  0  0
  -20.9963  -28.3225   24.1395 H   0  0  0  0  0  0
  -20.5606  -26.2294   23.3597 H   0  0  0  0  0  0
  -21.6618  -26.7411   22.1203 H   0  0  0  0  0  0
  -19.6874  -25.6290   21.1225 H   0  0  0  0  0  0
  -19.6637  -27.3186   20.6723 H   0  0  0  0  0  0
  -17.4167  -26.6640   21.4044 H   0  0  0  0  0  0
  -18.0331  -26.0053   22.9023 H   0  0  0  0  0  0
  -19.7941  -30.7238   24.2284 H   0  0  0  0  0  0
  -17.5025  -31.6261   24.5167 H   0  0  0  0  0  0
  -15.5353  -30.3007   23.7632 H   0  0  0  0  0  0
  -15.8648  -28.0817   22.7085 H   0  0  0  0  0  0
  -24.5852  -30.7183   25.7873 H   0  0  0  0  0  0
  -24.9014  -32.2937   26.5051 H   0  0  0  0  0  0
  -25.8073  -30.8865   27.0261 H   0  0  0  0  0  0
  -26.2944  -29.6807   24.1242 H   0  0  0  0  0  0
  -27.4012  -29.7321   25.4774 H   0  0  0  0  0  0
  -27.8825  -30.4354   23.9512 H   0  0  0  0  0  0
  -27.2602  -33.3668   26.2146 H   0  0  0  0  0  0
  -28.3819  -32.7009   25.0375 H   0  0  0  0  0  0
  -28.0732  -31.8533   26.5458 H   0  0  0  0  0  0
  -28.2576  -38.0110   24.7521 H   0  0  0  0  0  0
  -28.1052  -36.2645   24.6246 H   0  0  0  0  0  0
  -27.2290  -37.1424   25.8862 H   0  0  0  0  0  0
  -20.9296  -29.8844   21.7001 H   0  0  0  0  0  0
  -26.0140  -38.2860   24.1435 H   0  0  0  0  0  0
  -32.7541  -18.9139   22.3241 H   0  0  0  0  0  0
  -31.1200  -20.6673   21.8148 H   0  0  0  0  0  0
  -32.2307  -16.5461   21.9209 H   0  0  0  0  0  0
  -27.2103  -17.5927   20.5333 H   0  0  0  0  0  0
  -28.1584  -16.5518   19.4669 H   0  0  0  0  0  0
  -27.9343  -18.2211   19.0442 H   0  0  0  0  0  0
  -30.7620  -23.7962   21.4576 H   0  0  0  0  0  0
  -29.4822  -24.9086   21.9395 H   0  0  0  0  0  0
  -30.7787  -25.4582   20.8838 H   0  0  0  0  0  0
  -27.7629  -22.7528   19.2988 H   0  0  0  0  0  0
  -27.7855  -23.1007   21.0071 H   0  0  0  0  0  0
  -27.5879  -25.0130   18.8860 H   0  0  0  0  0  0
  -29.0427  -25.7601   18.3917 H   0  0  0  0  0  0
  -30.0136  -23.9186   19.1087 H   0  0  0  0  0  0
  -28.9632  -15.2989   21.1561 H   0  0  0  0  0  0
  -30.2076  -21.7306   20.2937 H   0  0  0  0  0  0
  1 25  1  0  0  0
  1 30  2  0  0  0
  1 83  1  0  0  0
  2  3  1  0  0  0
  2 25  1  0  0  0
  2 86  1  0  0  0
  2 87  1  0  0  0
  3  4  1  0  0  0
  3 88  1  0  0  0
  3 89  1  0  0  0
  4  5  1  0  0  0
  4 90  1  0  0  0
  4 91  1  0  0  0
  5  6  1  0  0  0
  5 26  1  0  0  0
  5 92  1  0  0  0
  6 25  1  0  0  0
  6 93  1  0  0  0
  6 94  1  0  0  0
  7  8  2  0  0  0
  7 26  1  0  0  0
  7 29  1  0  0  0
  8  9  1  0  0  0
  8 22  1  0  0  0
  9 10  1  0  0  0
  9 27  2  0  0  0
 10 11  2  0  0  0
 10 15  1  0  0  0
 11 12  1  0  0  0
 11 95  1  0  0  0
 12 13  2  0  0  0
 12 96  1  0  0  0
 13 14  1  0  0  0
 13 31  1  0  0  0
 14 15  2  0  0  0
 14 97  1  0  0  0
 15 98  1  0  0  0
 16 17  2  0  0  0
 16 21  1  0  0  0
 16 31  1  0  0  0
 17 18  1  0  0  0
 17 99  1  0  0  0
 18 19  2  0  0  0
 18100  1  0  0  0
 19 20  1  0  0  0
 19 24  1  0  0  0
 20 21  2  0  0  0
 20101  1  0  0  0
 21 23  1  0  0  0
 22 28  1  0  0  0
 22 32  2  0  0  0
 26 27  1  0  0  0
 28102  1  0  0  0
 28103  1  0  0  0
 29104  1  0  0  0
 29105  1  0  0  0
 33 34  1  0  0  0
 33 66  1  0  0  0
 33 70  2  0  0  0
 34 36  1  0  0  0
 34 59  1  0  0  0
 34106  1  0  0  0
 35 44  2  0  0  0
 35 45  1  0  0  0
 35 68  1  0  0  0
 36 56  1  0  0  0
 36107  1  0  0  0
 37 39  1  0  0  0
 37 47  1  0  0  0
 37 66  1  0  0  0
 37108  1  0  0  0
 38 43  2  0  0  0
 38 46  1  0  0  0
 38 47  1  0  0  0
 39 64  1  0  0  0
 39 67  2  0  0  0
 40 52  1  0  0  0
 40 53  2  0  0  0
 40 58  1  0  0  0
 41109  1  0  0  0
 41110  1  0  0  0
 41111  1  0  0  0
 41 48  1  0  0  0
 42 43  1  0  0  0
 42 66  1  0  0  0
 42112  1  0  0  0
 42113  1  0  0  0
 43 44  1  0  0  0
 44114  1  0  0  0
 45 46  2  0  0  0
 45115  1  0  0  0
 46116  1  0  0  0
 47117  1  0  0  0
 47118  1  0  0  0
 48 56  1  0  0  0
 48 65  1  0  0  0
 48119  1  0  0  0
 49 50  1  0  0  0
 49 53  1  0  0  0
 49 64  1  0  0  0
 49120  1  0  0  0
 50 51  1  0  0  0
 50121  1  0  0  0
 50122  1  0  0  0
 51 52  1  0  0  0
 51123  1  0  0  0
 51124  1  0  0  0
 52125  1  0  0  0
 52126  1  0  0  0
 53 54  1  0  0  0
 54 55  2  0  0  0
 54127  1  0  0  0
 55 57  1  0  0  0
 55128  1  0  0  0
 56 69  2  0  0  0
 57 58  2  0  0  0
 57129  1  0  0  0
 58130  1  0  0  0
 59 60  1  0  0  0
 59 61  1  0  0  0
 59 62  1  0  0  0
 60131  1  0  0  0
 60132  1  0  0  0
 60133  1  0  0  0
 61134  1  0  0  0
 61135  1  0  0  0
 61136  1  0  0  0
 62137  1  0  0  0
 62138  1  0  0  0
 62139  1  0  0  0
 63 65  1  0  0  0
 63140  1  0  0  0
 63141  1  0  0  0
 63142  1  0  0  0
 64143  1  0  0  0
 65144  1  0  0  0
 68 81  1  0  0  0
 71 72  2  0  0  0
 71 73  1  0  0  0
 71145  1  0  0  0
 72 74  1  0  0  0
 72146  1  0  0  0
 73 76  2  0  0  0
 73147  1  0  0  0
 74 75  2  0  0  0
 74 77  1  0  0  0
 75 76  1  0  0  0
 75 78  1  0  0  0
 76 83  1  0  0  0
 77 84  1  0  0  0
 77 85  2  0  0  0
 78148  1  0  0  0
 78149  1  0  0  0
 78150  1  0  0  0
 79151  1  0  0  0
 79152  1  0  0  0
 79153  1  0  0  0
 79 82  1  0  0  0
 80 82  1  0  0  0
 80 84  1  0  0  0
 80154  1  0  0  0
 80155  1  0  0  0
 81 82  1  0  0  0
 81156  1  0  0  0
 81157  1  0  0  0
 82158  1  0  0  0
 83159  1  0  0  0
 84160  1  0  0  0
M  ISO  4   1 100  68 101  81 101  83 100
M  END
> <chiral flag>
0

> <version>
0

> <s_m_source_file>
/data/baiqing/PycharmProjects/Reinvent-master-3.2/result/LINK_invent/BTK/process_docking_weight1_custom_product_contain_oxygen_bond_distance_aromatic_linkinvent_7_9_3/rearranged_h_0058.sdf

> <i_m_source_file_index>
3

> <r_mmod_Potential_Energy-OPLS-2005>
-49.476921081543

> <r_mmod_Stretch_Energy-OPLS-2005>
51.6982688903809

> <r_mmod_Bend_Energy-OPLS-2005>
117.102928161621

> <r_mmod_Torsional_Energy-OPLS-2005>
252.348205566406

> <r_mmod_Improper_Torsional_Energy-OPLS-2005>
4.90133762359619

> <r_mmod_Van_der_Waal_Energy-OPLS-2005>
163.471145629883

> <r_mmod_Electrostatic_Energy-OPLS-2005>
-435.793701171875

> <r_mmod_Solvation_Energy-OPLS-2005>
-223.413589477539

> <b_mmod_Minimization_Converged-OPLS-2005>
0

> <r_mmod_RMS_Derivative-OPLS-2005>
3.5014750957489

$$$$
3
                    3D
 Structure written by MMmdl.
169177  0  0  1  0            999 V2000
  -30.5947  -14.6604   20.5158 C   0  0  0  0  0  0
  -30.4460  -12.4079   19.4583 C   0  0  0  0  0  0
  -29.5138  -12.5220   18.2297 C   0  0  0  0  0  0
  -28.0360  -12.3495   18.6378 C   0  0  0  0  0  0
  -27.6554  -13.2146   19.8689 C   0  0  2  0  0  0
  -28.6973  -13.0554   20.9990 C   0  0  0  0  0  0
  -25.2568  -13.8167   20.5687 C   0  0  0  0  0  0
  -24.1828  -13.0438   20.9188 C   0  0  0  0  0  0
  -24.6394  -11.6913   20.8739 C   0  0  0  0  0  0
  -23.9059  -10.4296   21.0404 C   0  0  0  0  0  0
  -24.3614   -9.4216   21.9186 C   0  0  0  0  0  0
  -23.6296   -8.2247   22.0754 C   0  0  0  0  0  0
  -22.4278   -8.0281   21.3540 C   0  0  0  0  0  0
  -21.9909   -9.0255   20.4642 C   0  0  0  0  0  0
  -22.7233  -10.2137   20.3056 C   0  0  0  0  0  0
  -21.6852   -6.0745   22.5286 C   0  0  0  0  0  0
  -21.4009   -6.5647   23.8219 C   0  0  0  0  0  0
  -21.3657   -5.6798   24.9181 C   0  0  0  0  0  0
  -21.6040   -4.3059   24.7226 C   0  0  0  0  0  0
  -21.8818   -3.8153   23.4347 C   0  0  0  0  0  0
  -21.9191   -4.6974   22.3409 C   0  0  0  0  0  0
  -22.7849  -13.5235   21.1857 C   0  0  0  0  0  0
  -22.1661   -4.2164   21.0984 F   0  0  0  0  0  0
  -21.5629   -3.4537   25.7732 F   0  0  0  0  0  0
  -30.0146  -13.4171   20.4473 N   0  0  0  0  0  0
  -26.2991  -12.9344   20.3327 N   0  0  0  0  0  0
  -25.9319  -11.6502   20.5750 N   0  0  0  0  0  0
  -22.0484  -12.8226   22.0406 N   0  0  0  0  0  0
  -25.4296  -15.1889   20.4117 N   0  0  0  0  0  0
  -31.7348  -14.8608   20.0849 O   0  0  0  0  0  0
  -21.6641   -6.8882   21.4244 O   0  0  0  0  0  0
  -22.3543  -14.5552   20.6719 O   0  0  0  0  0  0
  -24.6235  -31.8564   23.1996 C   0  0  0  0  0  0
  -25.9078  -32.4757   23.8329 C   0  0  1  0  0  0
  -27.2404  -27.3232   20.1116 C   0  0  0  0  0  0
  -25.5910  -33.8564   24.2257 N   0  0  0  0  0  0
  -23.4193  -30.4757   21.5403 C   0  0  2  0  0  0
  -24.8679  -28.9244   20.1078 C   0  0  0  0  0  0
  -22.7476  -29.4576   22.4919 C   0  0  0  0  0  0
  -18.0290  -28.1368   22.8484 C   0  0  0  0  0  0
  -24.1486  -36.7286   23.2635 C   0  0  0  0  0  0
  -25.9559  -30.7889   21.3665 C   0  0  0  0  0  0
  -26.0321  -29.4140   20.7117 C   0  0  0  0  0  0
  -27.2150  -28.6224   20.7058 C   0  0  0  0  0  0
  -26.0509  -26.8706   19.4993 C   0  0  0  0  0  0
  -24.8783  -27.6572   19.4966 C   0  0  0  0  0  0
  -23.6345  -29.8047   20.1563 C   0  0  0  0  0  0
  -25.4105  -36.3070   24.0333 C   0  0  1  0  0  0
  -20.5890  -28.3660   23.1289 C   0  0  2  0  0  0
  -20.6778  -26.9381   22.5425 C   0  0  0  0  0  0
  -19.5761  -26.6363   21.5218 C   0  0  0  0  0  0
  -18.1936  -26.7911   22.1619 C   0  0  0  0  0  0
  -19.1542  -28.8834   23.2880 C   0  0  0  0  0  0
  -18.9463  -30.1436   23.8894 C   0  0  0  0  0  0
  -17.6462  -30.6573   24.0557 C   0  0  0  0  0  0
  -25.9047  -34.9445   23.5093 C   0  0  0  0  0  0
  -16.5352  -29.9076   23.6323 C   0  0  0  0  0  0
  -16.7276  -28.6492   23.0348 C   0  0  0  0  0  0
  -26.4482  -31.6573   25.0701 C   0  0  0  0  0  0
  -25.3742  -31.3714   26.1447 C   0  0  0  0  0  0
  -27.0304  -30.2992   24.6137 C   0  0  0  0  0  0
  -27.6040  -32.4316   25.7473 C   0  0  0  0  0  0
  -27.5588  -37.1774   24.8447 C   0  0  0  0  0  0
  -21.4188  -29.3005   22.3673 N   0  0  0  0  0  0
  -26.4266  -37.3784   23.9446 N   0  0  0  0  0  0
  -24.6853  -31.0574   22.0934 N   0  0  0  0  0  0
  -23.4202  -28.8125   23.3004 O   0  0  0  0  0  0
  -28.4011  -26.5386   20.1769 O   0  0  0  0  0  0
  -26.5619  -34.8921   22.4659 O   0  0  0  0  0  0
  -23.5399  -32.1345   23.7332 O   0  0  0  0  0  0
  -30.5091  -17.9304   19.9812 C   0  0  0  0  0  0
  -28.6206  -17.7880   21.4477 C   0  0  0  0  0  0
  -30.2552  -19.3335   19.7621 C   0  0  0  0  0  0
  -29.6865  -17.1126   20.8040 C   0  0  0  0  0  0
  -28.3659  -19.1788   21.2752 C   0  0  0  0  0  0
  -29.1582  -20.0013   20.4180 C   0  0  0  0  0  0
  -24.3589  -24.2351   24.4910 C   0  0  0  0  0  0
  -24.4850  -23.0149   23.9472 C   0  0  0  0  0  0
  -25.7732  -22.3904   23.7257 C   0  0  0  0  0  0
  -25.9146  -21.2028   23.1084 C   0  0  0  0  0  0
  -27.2364  -20.6467   22.8812 C   0  0  0  0  0  0
  -29.1607  -22.6175   20.3882 C   0  0  0  0  0  0
  -32.4977  -20.4847   19.4095 C   0  0  0  0  0  0
  -28.1847  -23.8726   20.4039 C   0  0  0  0  0  0
  -28.5456  -25.1913   19.5801 C   0  0  0  0  0  0
  -31.1788  -20.0407   18.7638 C   0  0  0  0  0  0
  -27.2195  -19.7197   21.9135 N   0  0  0  0  0  0
  -28.6534  -21.3641   20.1528 N   0  0  0  0  0  0
  -29.7850  -15.6588   20.9978 N   0  0  0  0  0  0
  -28.2661  -20.9839   23.4719 O   0  0  0  0  0  0
  -30.3564  -22.7986   20.6227 O   0  0  0  0  0  0
  -30.5980  -21.0877   18.1804 F   0  0  0  0  0  0
  -31.4872  -19.1917   17.7819 F   0  0  0  0  0  0
  -31.4866  -12.5467   19.1592 H   0  0  0  0  0  0
  -30.3913  -11.4076   19.8915 H   0  0  0  0  0  0
  -29.7852  -11.7786   17.4793 H   0  0  0  0  0  0
  -29.6487  -13.4960   17.7563 H   0  0  0  0  0  0
  -27.8776  -11.2947   18.8657 H   0  0  0  0  0  0
  -27.3814  -12.5787   17.7965 H   0  0  0  0  0  0
  -27.6769  -14.2522   19.5361 H   0  0  0  0  0  0
  -28.7135  -12.0262   21.3610 H   0  0  0  0  0  0
  -28.4302  -13.6635   21.8645 H   0  0  0  0  0  0
  -25.2757   -9.5703   22.4763 H   0  0  0  0  0  0
  -24.0012   -7.4636   22.7468 H   0  0  0  0  0  0
  -21.0845   -8.8765   19.8945 H   0  0  0  0  0  0
  -22.3687  -10.9675   19.6166 H   0  0  0  0  0  0
  -21.1999   -7.6156   23.9729 H   0  0  0  0  0  0
  -21.1479   -6.0525   25.9085 H   0  0  0  0  0  0
  -22.0598   -2.7616   23.2835 H   0  0  0  0  0  0
  -22.4083  -11.9877   22.4786 H   0  0  0  0  0  0
  -21.1098  -13.1255   22.2607 H   0  0  0  0  0  0
  -24.6585  -15.8400   20.5068 H   0  0  0  0  0  0
  -26.2779  -15.6253   20.0741 H   0  0  0  0  0  0
  -26.7142  -32.5419   23.1076 H   0  0  0  0  0  0
  -25.0103  -33.9716   25.0431 H   0  0  0  0  0  0
  -22.7120  -31.2949   21.3946 H   0  0  0  0  0  0
  -23.3772  -35.9589   23.3236 H   0  0  0  0  0  0
  -24.3606  -36.8968   22.2064 H   0  0  0  0  0  0
  -23.7197  -37.6453   23.6694 H   0  0  0  0  0  0
  -26.0823  -31.5526   20.5976 H   0  0  0  0  0  0
  -26.8371  -30.8415   21.9941 H   0  0  0  0  0  0
  -28.1101  -28.9960   21.1827 H   0  0  0  0  0  0
  -26.0033  -25.8948   19.0400 H   0  0  0  0  0  0
  -23.9832  -27.2730   19.0277 H   0  0  0  0  0  0
  -23.7537  -30.5796   19.3979 H   0  0  0  0  0  0
  -22.7556  -29.2321   19.8549 H   0  0  0  0  0  0
  -25.1276  -36.1904   25.0823 H   0  0  0  0  0  0
  -20.9984  -28.3230   24.1410 H   0  0  0  0  0  0
  -20.5664  -26.2274   23.3622 H   0  0  0  0  0  0
  -21.6650  -26.7404   22.1226 H   0  0  0  0  0  0
  -19.6933  -25.6277   21.1242 H   0  0  0  0  0  0
  -19.6715  -27.3181   20.6754 H   0  0  0  0  0  0
  -17.4219  -26.6668   21.4005 H   0  0  0  0  0  0
  -18.0318  -26.0044   22.8999 H   0  0  0  0  0  0
  -19.7939  -30.7248   24.2264 H   0  0  0  0  0  0
  -17.5019  -31.6257   24.5155 H   0  0  0  0  0  0
  -15.5351  -30.2978   23.7647 H   0  0  0  0  0  0
  -15.8676  -28.0810   22.7061 H   0  0  0  0  0  0
  -24.5927  -30.7038   25.7801 H   0  0  0  0  0  0
  -24.8922  -32.2876   26.4862 H   0  0  0  0  0  0
  -25.8085  -30.8920   27.0227 H   0  0  0  0  0  0
  -26.2851  -29.6755   24.1180 H   0  0  0  0  0  0
  -27.4024  -29.7234   25.4618 H   0  0  0  0  0  0
  -27.8720  -30.4275   23.9327 H   0  0  0  0  0  0
  -27.2647  -33.3634   26.2014 H   0  0  0  0  0  0
  -28.3871  -32.6843   25.0315 H   0  0  0  0  0  0
  -28.0682  -31.8465   26.5420 H   0  0  0  0  0  0
  -28.2514  -38.0159   24.7612 H   0  0  0  0  0  0
  -28.1167  -36.2696   24.6100 H   0  0  0  0  0  0
  -27.2338  -37.1211   25.8849 H   0  0  0  0  0  0
  -20.9359  -29.8738   21.6899 H   0  0  0  0  0  0
  -26.0131  -38.2832   24.1537 H   0  0  0  0  0  0
  -31.3337  -17.4642   19.4605 H   0  0  0  0  0  0
  -27.9558  -17.2210   22.0843 H   0  0  0  0  0  0
  -23.3854  -24.6812   24.6406 H   0  0  0  0  0  0
  -25.2211  -24.8125   24.7940 H   0  0  0  0  0  0
  -23.5851  -22.4845   23.6643 H   0  0  0  0  0  0
  -26.6589  -22.9119   24.0669 H   0  0  0  0  0  0
  -25.0380  -20.6681   22.7681 H   0  0  0  0  0  0
  -32.3287  -21.1867   20.2247 H   0  0  0  0  0  0
  -33.1464  -20.9719   18.6815 H   0  0  0  0  0  0
  -33.0429  -19.6334   19.8173 H   0  0  0  0  0  0
  -28.0979  -24.1581   21.4522 H   0  0  0  0  0  0
  -27.1840  -23.5492   20.1200 H   0  0  0  0  0  0
  -28.0493  -25.1601   18.6106 H   0  0  0  0  0  0
  -29.6040  -25.1268   19.3280 H   0  0  0  0  0  0
  -26.3182  -19.4273   21.5629 H   0  0  0  0  0  0
  -27.6546  -21.3866   20.0048 H   0  0  0  0  0  0
  -28.9772  -15.2642   21.4538 H   0  0  0  0  0  0
  1 25  1  0  0  0
  1 30  2  0  0  0
  1 89  1  0  0  0
  2  3  1  0  0  0
  2 25  1  0  0  0
  2 94  1  0  0  0
  2 95  1  0  0  0
  3  4  1  0  0  0
  3 96  1  0  0  0
  3 97  1  0  0  0
  4  5  1  0  0  0
  4 98  1  0  0  0
  4 99  1  0  0  0
  5  6  1  0  0  0
  5 26  1  0  0  0
  5100  1  0  0  0
  6 25  1  0  0  0
  6101  1  0  0  0
  6102  1  0  0  0
  7  8  2  0  0  0
  7 26  1  0  0  0
  7 29  1  0  0  0
  8  9  1  0  0  0
  8 22  1  0  0  0
  9 10  1  0  0  0
  9 27  2  0  0  0
 10 11  2  0  0  0
 10 15  1  0  0  0
 11 12  1  0  0  0
 11103  1  0  0  0
 12 13  2  0  0  0
 12104  1  0  0  0
 13 14  1  0  0  0
 13 31  1  0  0  0
 14 15  2  0  0  0
 14105  1  0  0  0
 15106  1  0  0  0
 16 17  2  0  0  0
 16 21  1  0  0  0
 16 31  1  0  0  0
 17 18  1  0  0  0
 17107  1  0  0  0
 18 19  2  0  0  0
 18108  1  0  0  0
 19 20  1  0  0  0
 19 24  1  0  0  0
 20 21  2  0  0  0
 20109  1  0  0  0
 21 23  1  0  0  0
 22 28  1  0  0  0
 22 32  2  0  0  0
 26 27  1  0  0  0
 28110  1  0  0  0
 28111  1  0  0  0
 29112  1  0  0  0
 29113  1  0  0  0
 33 34  1  0  0  0
 33 66  1  0  0  0
 33 70  2  0  0  0
 34 36  1  0  0  0
 34 59  1  0  0  0
 34114  1  0  0  0
 35 44  2  0  0  0
 35 45  1  0  0  0
 35 68  1  0  0  0
 36 56  1  0  0  0
 36115  1  0  0  0
 37 39  1  0  0  0
 37 47  1  0  0  0
 37 66  1  0  0  0
 37116  1  0  0  0
 38 43  2  0  0  0
 38 46  1  0  0  0
 38 47  1  0  0  0
 39 64  1  0  0  0
 39 67  2  0  0  0
 40 52  1  0  0  0
 40 53  2  0  0  0
 40 58  1  0  0  0
 41117  1  0  0  0
 41118  1  0  0  0
 41119  1  0  0  0
 41 48  1  0  0  0
 42 43  1  0  0  0
 42 66  1  0  0  0
 42120  1  0  0  0
 42121  1  0  0  0
 43 44  1  0  0  0
 44122  1  0  0  0
 45 46  2  0  0  0
 45123  1  0  0  0
 46124  1  0  0  0
 47125  1  0  0  0
 47126  1  0  0  0
 48 56  1  0  0  0
 48 65  1  0  0  0
 48127  1  0  0  0
 49 50  1  0  0  0
 49 53  1  0  0  0
 49 64  1  0  0  0
 49128  1  0  0  0
 50 51  1  0  0  0
 50129  1  0  0  0
 50130  1  0  0  0
 51 52  1  0  0  0
 51131  1  0  0  0
 51132  1  0  0  0
 52133  1  0  0  0
 52134  1  0  0  0
 53 54  1  0  0  0
 54 55  2  0  0  0
 54135  1  0  0  0
 55 57  1  0  0  0
 55136  1  0  0  0
 56 69  2  0  0  0
 57 58  2  0  0  0
 57137  1  0  0  0
 58138  1  0  0  0
 59 60  1  0  0  0
 59 61  1  0  0  0
 59 62  1  0  0  0
 60139  1  0  0  0
 60140  1  0  0  0
 60141  1  0  0  0
 61142  1  0  0  0
 61143  1  0  0  0
 61144  1  0  0  0
 62145  1  0  0  0
 62146  1  0  0  0
 62147  1  0  0  0
 63 65  1  0  0  0
 63148  1  0  0  0
 63149  1  0  0  0
 63150  1  0  0  0
 64151  1  0  0  0
 65152  1  0  0  0
 68 85  1  0  0  0
 71 73  2  0  0  0
 71 74  1  0  0  0
 71153  1  0  0  0
 72 74  2  0  0  0
 72 75  1  0  0  0
 72154  1  0  0  0
 73 76  1  0  0  0
 73 86  1  0  0  0
 74 89  1  0  0  0
 75 76  2  0  0  0
 75 87  1  0  0  0
 76 88  1  0  0  0
 77 78  2  0  0  0
 77155  1  0  0  0
 77156  1  0  0  0
 78 79  1  0  0  0
 78157  1  0  0  0
 79 80  2  0  0  0
 79158  1  0  0  0
 80 81  1  0  0  0
 80159  1  0  0  0
 81 87  1  0  0  0
 81 90  2  0  0  0
 82 84  1  0  0  0
 82 88  1  0  0  0
 82 91  2  0  0  0
 83160  1  0  0  0
 83161  1  0  0  0
 83162  1  0  0  0
 83 86  1  0  0  0
 84 85  1  0  0  0
 84163  1  0  0  0
 84164  1  0  0  0
 85165  1  0  0  0
 85166  1  0  0  0
 86 92  1  0  0  0
 86 93  1  0  0  0
 87167  1  0  0  0
 88168  1  0  0  0
 89169  1  0  0  0
M  ISO  4   1 100  68 101  85 101  89 100
M  END
> <chiral flag>
0

> <version>
0

> <s_m_source_file>
/data/baiqing/PycharmProjects/Reinvent-master-3.2/result/LINK_invent/BTK/process_docking_weight1_custom_product_contain_oxygen_bond_distance_aromatic_linkinvent_7_9_3/rearranged_h_0058.sdf

> <i_m_source_file_index>
4

> <r_mmod_Potential_Energy-OPLS-2005>
-26.6862945556641

> <r_mmod_Stretch_Energy-OPLS-2005>
88.984245300293

> <r_mmod_Bend_Energy-OPLS-2005>
180.269515991211

> <r_mmod_Torsional_Energy-OPLS-2005>
278.284484863281

> <r_mmod_Improper_Torsional_Energy-OPLS-2005>
5.7666654586792

> <r_mmod_Van_der_Waal_Energy-OPLS-2005>
134.653945922852

> <r_mmod_Electrostatic_Energy-OPLS-2005>
-497.579284667969

> <r_mmod_Solvation_Energy-OPLS-2005>
-266.351806640625

> <b_mmod_Minimization_Converged-OPLS-2005>
0

> <r_mmod_RMS_Derivative-OPLS-2005>
1.52961504459381

$$$$
4
                    3D
 Structure written by MMmdl.
152160  0  0  1  0            999 V2000
  -30.6724  -14.5354   20.5380 C   0  0  0  0  0  0
  -30.4282  -12.3333   19.4413 C   0  0  0  0  0  0
  -29.5023  -12.4974   18.2171 C   0  0  0  0  0  0
  -28.0232  -12.3529   18.6276 C   0  0  0  0  0  0
  -27.6587  -13.2098   19.8698 C   0  0  2  0  0  0
  -28.7000  -13.0217   20.9967 C   0  0  0  0  0  0
  -25.2591  -13.8173   20.5718 C   0  0  0  0  0  0
  -24.1839  -13.0444   20.9190 C   0  0  0  0  0  0
  -24.6390  -11.6911   20.8730 C   0  0  0  0  0  0
  -23.9060  -10.4297   21.0396 C   0  0  0  0  0  0
  -24.3618   -9.4213   21.9174 C   0  0  0  0  0  0
  -23.6290   -8.2247   22.0750 C   0  0  0  0  0  0
  -22.4264   -8.0290   21.3548 C   0  0  0  0  0  0
  -21.9902   -9.0265   20.4652 C   0  0  0  0  0  0
  -22.7231  -10.2142   20.3052 C   0  0  0  0  0  0
  -21.6858   -6.0733   22.5280 C   0  0  0  0  0  0
  -21.4019   -6.5636   23.8211 C   0  0  0  0  0  0
  -21.3659   -5.6791   24.9173 C   0  0  0  0  0  0
  -21.6040   -4.3053   24.7226 C   0  0  0  0  0  0
  -21.8818   -3.8146   23.4346 C   0  0  0  0  0  0
  -21.9193   -4.6961   22.3401 C   0  0  0  0  0  0
  -22.7858  -13.5240   21.1852 C   0  0  0  0  0  0
  -22.1661   -4.2146   21.0979 F   0  0  0  0  0  0
  -21.5625   -3.4539   25.7742 F   0  0  0  0  0  0
  -30.0278  -13.3359   20.4435 N   0  0  0  0  0  0
  -26.3009  -12.9337   20.3340 N   0  0  0  0  0  0
  -25.9315  -11.6493   20.5742 N   0  0  0  0  0  0
  -22.0493  -12.8247   22.0412 N   0  0  0  0  0  0
  -25.4337  -15.1901   20.4200 N   0  0  0  0  0  0
  -31.8174  -14.6912   20.1048 O   0  0  0  0  0  0
  -21.6636   -6.8882   21.4244 O   0  0  0  0  0  0
  -22.3538  -14.5540   20.6695 O   0  0  0  0  0  0
  -24.6160  -31.8667   23.2086 C   0  0  0  0  0  0
  -25.9050  -32.4817   23.8387 C   0  0  1  0  0  0
  -27.2362  -27.4192   20.1029 C   0  0  0  0  0  0
  -25.5903  -33.8616   24.2325 N   0  0  0  0  0  0
  -23.4072  -30.4882   21.5487 C   0  0  2  0  0  0
  -24.8583  -28.9533   20.1118 C   0  0  0  0  0  0
  -22.7427  -29.4642   22.4977 C   0  0  0  0  0  0
  -18.0279  -28.1382   22.8502 C   0  0  0  0  0  0
  -24.1481  -36.7312   23.2630 C   0  0  0  0  0  0
  -25.9374  -30.8276   21.3653 C   0  0  0  0  0  0
  -26.0186  -29.4614   20.7119 C   0  0  0  0  0  0
  -27.2140  -28.7003   20.7075 C   0  0  0  0  0  0
  -26.0648  -26.9330   19.4904 C   0  0  0  0  0  0
  -24.8768  -27.6893   19.4964 C   0  0  0  0  0  0
  -23.6190  -29.8201   20.1636 C   0  0  0  0  0  0
  -25.4096  -36.3103   24.0335 C   0  0  1  0  0  0
  -20.5867  -28.3671   23.1316 C   0  0  2  0  0  0
  -20.6757  -26.9401   22.5426 C   0  0  0  0  0  0
  -19.5736  -26.6386   21.5219 C   0  0  0  0  0  0
  -18.1917  -26.7935   22.1627 C   0  0  0  0  0  0
  -19.1530  -28.8845   23.2905 C   0  0  0  0  0  0
  -18.9453  -30.1452   23.8910 C   0  0  0  0  0  0
  -17.6455  -30.6588   24.0572 C   0  0  0  0  0  0
  -25.9035  -34.9474   23.5129 C   0  0  0  0  0  0
  -16.5349  -29.9097   23.6323 C   0  0  0  0  0  0
  -16.7267  -28.6512   23.0353 C   0  0  0  0  0  0
  -26.4471  -31.6605   25.0724 C   0  0  0  0  0  0
  -25.3757  -31.3766   26.1504 C   0  0  0  0  0  0
  -27.0259  -30.3019   24.6121 C   0  0  0  0  0  0
  -27.6069  -32.4313   25.7466 C   0  0  0  0  0  0
  -27.5597  -37.1778   24.8444 C   0  0  0  0  0  0
  -21.4152  -29.3035   22.3717 N   0  0  0  0  0  0
  -26.4275  -37.3798   23.9442 N   0  0  0  0  0  0
  -24.6715  -31.0750   22.0996 N   0  0  0  0  0  0
  -23.4184  -28.8189   23.3036 O   0  0  0  0  0  0
  -28.3431  -26.5965   20.1351 O   0  0  0  0  0  0
  -26.5597  -34.8930   22.4691 O   0  0  0  0  0  0
  -23.5347  -32.1425   23.7467 O   0  0  0  0  0  0
  -31.1345  -19.0204   19.9363 C   0  0  0  0  0  0
  -28.8783  -19.1888   20.7901 C   0  0  0  0  0  0
  -31.1524  -17.6341   20.2228 C   0  0  0  0  0  0
  -28.8932  -17.7976   21.0747 C   0  0  0  0  0  0
  -29.9926  -19.8164   20.1885 C   0  0  0  0  0  0
  -30.0172  -16.9852   20.7716 C   0  0  0  0  0  0
  -28.7580  -24.4569   21.3045 C   0  0  0  0  0  0
  -28.4012  -25.7690   21.2397 C   0  0  0  0  0  0
  -29.1754  -23.6020   20.1942 C   0  0  0  0  0  0
  -29.9598  -21.2785   19.6879 C   0  0  0  0  0  0
  -29.9228  -15.5627   21.0147 N   0  0  0  0  0  0
  -29.3905  -22.3166   20.5673 N   0  0  0  0  0  0
  -29.3487  -23.9814   19.0345 O   0  0  0  0  0  0
  -31.4726  -12.4356   19.1416 H   0  0  0  0  0  0
  -30.3368  -11.3299   19.8604 H   0  0  0  0  0  0
  -29.7521  -11.7569   17.4563 H   0  0  0  0  0  0
  -29.6657  -13.4732   17.7573 H   0  0  0  0  0  0
  -27.8447  -11.2989   18.8435 H   0  0  0  0  0  0
  -27.3728  -12.6057   17.7892 H   0  0  0  0  0  0
  -27.6926  -14.2519   19.5519 H   0  0  0  0  0  0
  -28.6860  -11.9926   21.3587 H   0  0  0  0  0  0
  -28.4551  -13.6384   21.8625 H   0  0  0  0  0  0
  -25.2766   -9.5684   22.4742 H   0  0  0  0  0  0
  -24.0007   -7.4633   22.7462 H   0  0  0  0  0  0
  -21.0828   -8.8781   19.8961 H   0  0  0  0  0  0
  -22.3684  -10.9681   19.6161 H   0  0  0  0  0  0
  -21.2014   -7.6144   23.9716 H   0  0  0  0  0  0
  -21.1481   -6.0519   25.9077 H   0  0  0  0  0  0
  -22.0598   -2.7609   23.2849 H   0  0  0  0  0  0
  -22.4104  -11.9924   22.4832 H   0  0  0  0  0  0
  -21.1108  -13.1276   22.2596 H   0  0  0  0  0  0
  -24.6767  -15.8514   20.5547 H   0  0  0  0  0  0
  -26.2900  -15.6303   20.1083 H   0  0  0  0  0  0
  -26.7133  -32.5529   23.1161 H   0  0  0  0  0  0
  -25.0069  -33.9780   25.0476 H   0  0  0  0  0  0
  -22.6957  -31.3048   21.4072 H   0  0  0  0  0  0
  -23.3755  -35.9627   23.3238 H   0  0  0  0  0  0
  -24.3590  -36.8980   22.2055 H   0  0  0  0  0  0
  -23.7208  -37.6491   23.6678 H   0  0  0  0  0  0
  -26.0508  -31.5930   20.5962 H   0  0  0  0  0  0
  -26.8233  -30.8827   21.9857 H   0  0  0  0  0  0
  -28.1071  -29.0794   21.1835 H   0  0  0  0  0  0
  -26.0711  -25.9548   19.0309 H   0  0  0  0  0  0
  -23.9852  -27.2901   19.0334 H   0  0  0  0  0  0
  -23.7298  -30.5949   19.4039 H   0  0  0  0  0  0
  -22.7426  -29.2410   19.8670 H   0  0  0  0  0  0
  -25.1254  -36.1952   25.0821 H   0  0  0  0  0  0
  -20.9957  -28.3241   24.1437 H   0  0  0  0  0  0
  -20.5629  -26.2285   23.3619 H   0  0  0  0  0  0
  -21.6634  -26.7431   22.1233 H   0  0  0  0  0  0
  -19.6882  -25.6296   21.1247 H   0  0  0  0  0  0
  -19.6664  -27.3196   20.6746 H   0  0  0  0  0  0
  -17.4181  -26.6698   21.4033 H   0  0  0  0  0  0
  -18.0301  -26.0071   22.9011 H   0  0  0  0  0  0
  -19.7930  -30.7279   24.2265 H   0  0  0  0  0  0
  -17.5012  -31.6265   24.5189 H   0  0  0  0  0  0
  -15.5347  -30.3006   23.7640 H   0  0  0  0  0  0
  -15.8666  -28.0837   22.7059 H   0  0  0  0  0  0
  -24.5873  -30.7159   25.7886 H   0  0  0  0  0  0
  -24.9021  -32.2953   26.4980 H   0  0  0  0  0  0
  -25.8114  -30.8922   27.0253 H   0  0  0  0  0  0
  -26.2783  -29.6814   24.1166 H   0  0  0  0  0  0
  -27.3981  -29.7236   25.4590 H   0  0  0  0  0  0
  -27.8655  -30.4290   23.9282 H   0  0  0  0  0  0
  -27.2707  -33.3609   26.2073 H   0  0  0  0  0  0
  -28.3857  -32.6881   25.0274 H   0  0  0  0  0  0
  -28.0762  -31.8422   26.5356 H   0  0  0  0  0  0
  -28.2556  -38.0136   24.7596 H   0  0  0  0  0  0
  -28.1150  -36.2679   24.6109 H   0  0  0  0  0  0
  -27.2354  -37.1255   25.8852 H   0  0  0  0  0  0
  -20.9302  -29.8785   21.6969 H   0  0  0  0  0  0
  -26.0155  -38.2855   24.1518 H   0  0  0  0  0  0
  -32.0079  -19.4649   19.4785 H   0  0  0  0  0  0
  -27.9843  -19.7629   20.9919 H   0  0  0  0  0  0
  -32.0519  -17.0873   19.9832 H   0  0  0  0  0  0
  -28.0055  -17.3521   21.5018 H   0  0  0  0  0  0
  -28.7250  -24.0130   22.2892 H   0  0  0  0  0  0
  -28.1065  -26.2983   22.1361 H   0  0  0  0  0  0
  -29.4037  -21.2760   18.7489 H   0  0  0  0  0  0
  -30.9749  -21.5847   19.4281 H   0  0  0  0  0  0
  -29.0438  -15.2590   21.4032 H   0  0  0  0  0  0
  -29.2284  -22.0656   21.5319 H   0  0  0  0  0  0
  1 25  1  0  0  0
  1 30  2  0  0  0
  1 81  1  0  0  0
  2  3  1  0  0  0
  2 25  1  0  0  0
  2 84  1  0  0  0
  2 85  1  0  0  0
  3  4  1  0  0  0
  3 86  1  0  0  0
  3 87  1  0  0  0
  4  5  1  0  0  0
  4 88  1  0  0  0
  4 89  1  0  0  0
  5  6  1  0  0  0
  5 26  1  0  0  0
  5 90  1  0  0  0
  6 25  1  0  0  0
  6 91  1  0  0  0
  6 92  1  0  0  0
  7  8  2  0  0  0
  7 26  1  0  0  0
  7 29  1  0  0  0
  8  9  1  0  0  0
  8 22  1  0  0  0
  9 10  1  0  0  0
  9 27  2  0  0  0
 10 11  2  0  0  0
 10 15  1  0  0  0
 11 12  1  0  0  0
 11 93  1  0  0  0
 12 13  2  0  0  0
 12 94  1  0  0  0
 13 14  1  0  0  0
 13 31  1  0  0  0
 14 15  2  0  0  0
 14 95  1  0  0  0
 15 96  1  0  0  0
 16 17  2  0  0  0
 16 21  1  0  0  0
 16 31  1  0  0  0
 17 18  1  0  0  0
 17 97  1  0  0  0
 18 19  2  0  0  0
 18 98  1  0  0  0
 19 20  1  0  0  0
 19 24  1  0  0  0
 20 21  2  0  0  0
 20 99  1  0  0  0
 21 23  1  0  0  0
 22 28  1  0  0  0
 22 32  2  0  0  0
 26 27  1  0  0  0
 28100  1  0  0  0
 28101  1  0  0  0
 29102  1  0  0  0
 29103  1  0  0  0
 33 34  1  0  0  0
 33 66  1  0  0  0
 33 70  2  0  0  0
 34 36  1  0  0  0
 34 59  1  0  0  0
 34104  1  0  0  0
 35 44  2  0  0  0
 35 45  1  0  0  0
 35 68  1  0  0  0
 36 56  1  0  0  0
 36105  1  0  0  0
 37 39  1  0  0  0
 37 47  1  0  0  0
 37 66  1  0  0  0
 37106  1  0  0  0
 38 43  2  0  0  0
 38 46  1  0  0  0
 38 47  1  0  0  0
 39 64  1  0  0  0
 39 67  2  0  0  0
 40 52  1  0  0  0
 40 53  2  0  0  0
 40 58  1  0  0  0
 41107  1  0  0  0
 41108  1  0  0  0
 41109  1  0  0  0
 41 48  1  0  0  0
 42 43  1  0  0  0
 42 66  1  0  0  0
 42110  1  0  0  0
 42111  1  0  0  0
 43 44  1  0  0  0
 44112  1  0  0  0
 45 46  2  0  0  0
 45113  1  0  0  0
 46114  1  0  0  0
 47115  1  0  0  0
 47116  1  0  0  0
 48 56  1  0  0  0
 48 65  1  0  0  0
 48117  1  0  0  0
 49 50  1  0  0  0
 49 53  1  0  0  0
 49 64  1  0  0  0
 49118  1  0  0  0
 50 51  1  0  0  0
 50119  1  0  0  0
 50120  1  0  0  0
 51 52  1  0  0  0
 51121  1  0  0  0
 51122  1  0  0  0
 52123  1  0  0  0
 52124  1  0  0  0
 53 54  1  0  0  0
 54 55  2  0  0  0
 54125  1  0  0  0
 55 57  1  0  0  0
 55126  1  0  0  0
 56 69  2  0  0  0
 57 58  2  0  0  0
 57127  1  0  0  0
 58128  1  0  0  0
 59 60  1  0  0  0
 59 61  1  0  0  0
 59 62  1  0  0  0
 60129  1  0  0  0
 60130  1  0  0  0
 60131  1  0  0  0
 61132  1  0  0  0
 61133  1  0  0  0
 61134  1  0  0  0
 62135  1  0  0  0
 62136  1  0  0  0
 62137  1  0  0  0
 63 65  1  0  0  0
 63138  1  0  0  0
 63139  1  0  0  0
 63140  1  0  0  0
 64141  1  0  0  0
 65142  1  0  0  0
 68 78  1  0  0  0
 71 73  2  0  0  0
 71 75  1  0  0  0
 71143  1  0  0  0
 72 74  1  0  0  0
 72 75  2  0  0  0
 72144  1  0  0  0
 73 76  1  0  0  0
 73145  1  0  0  0
 74 76  2  0  0  0
 74146  1  0  0  0
 75 80  1  0  0  0
 76 81  1  0  0  0
 77 78  2  0  0  0
 77 79  1  0  0  0
 77147  1  0  0  0
 78148  1  0  0  0
 79 82  1  0  0  0
 79 83  2  0  0  0
 80 82  1  0  0  0
 80149  1  0  0  0
 80150  1  0  0  0
 81151  1  0  0  0
 82152  1  0  0  0
M  ISO  4   1 100  68 101  78 101  81 100
M  END
> <chiral flag>
0

> <version>
0

> <s_m_source_file>
/data/baiqing/PycharmProjects/Reinvent-master-3.2/result/LINK_invent/BTK/process_docking_weight1_custom_product_contain_oxygen_bond_distance_aromatic_linkinvent_7_9_3/rearranged_h_0058.sdf

> <i_m_source_file_index>
5

> <r_mmod_Potential_Energy-OPLS-2005>
-112.966819763184

> <r_mmod_Stretch_Energy-OPLS-2005>
43.9524154663086

> <r_mmod_Bend_Energy-OPLS-2005>
113.243553161621

> <r_mmod_Torsional_Energy-OPLS-2005>
226.283447265625

> <r_mmod_Improper_Torsional_Energy-OPLS-2005>
4.32988166809082

> <r_mmod_Van_der_Waal_Energy-OPLS-2005>
146.727951049805

> <r_mmod_Electrostatic_Energy-OPLS-2005>
-431.367797851562

> <r_mmod_Solvation_Energy-OPLS-2005>
-237.370056152344

> <b_mmod_Minimization_Converged-OPLS-2005>
0

> <r_mmod_RMS_Derivative-OPLS-2005>
1.60269093513489

$$$$
5
                    3D
 Structure written by MMmdl.
165173  0  0  1  0            999 V2000
  -30.7361  -14.3863   20.6755 C   0  0  0  0  0  0
  -30.4300  -12.2941   19.4012 C   0  0  0  0  0  0
  -29.4920  -12.5331   18.2008 C   0  0  0  0  0  0
  -28.0146  -12.3903   18.6138 C   0  0  0  0  0  0
  -27.6722  -13.2029   19.8897 C   0  0  2  0  0  0
  -28.7096  -12.9248   21.0010 C   0  0  0  0  0  0
  -25.2629  -13.8174   20.5706 C   0  0  0  0  0  0
  -24.1856  -13.0456   20.9172 C   0  0  0  0  0  0
  -24.6392  -11.6926   20.8720 C   0  0  0  0  0  0
  -23.9056  -10.4315   21.0410 C   0  0  0  0  0  0
  -24.3612   -9.4234   21.9189 C   0  0  0  0  0  0
  -23.6305   -8.2252   22.0738 C   0  0  0  0  0  0
  -22.4293   -8.0277   21.3524 C   0  0  0  0  0  0
  -21.9913   -9.0257   20.4635 C   0  0  0  0  0  0
  -22.7227  -10.2151   20.3062 C   0  0  0  0  0  0
  -21.6849   -6.0743   22.5279 C   0  0  0  0  0  0
  -21.4020   -6.5646   23.8212 C   0  0  0  0  0  0
  -21.3662   -5.6794   24.9168 C   0  0  0  0  0  0
  -21.6047   -4.3052   24.7219 C   0  0  0  0  0  0
  -21.8824   -3.8151   23.4337 C   0  0  0  0  0  0
  -21.9201   -4.6974   22.3397 C   0  0  0  0  0  0
  -22.7881  -13.5256   21.1864 C   0  0  0  0  0  0
  -22.1663   -4.2159   21.0971 F   0  0  0  0  0  0
  -21.5625   -3.4534   25.7730 F   0  0  0  0  0  0
  -30.0595  -13.2245   20.4780 N   0  0  0  0  0  0
  -26.3072  -12.9336   20.3427 N   0  0  0  0  0  0
  -25.9323  -11.6496   20.5765 N   0  0  0  0  0  0
  -22.0510  -12.8233   22.0406 N   0  0  0  0  0  0
  -25.4392  -15.1880   20.4138 N   0  0  0  0  0  0
  -31.7474  -14.7017   20.0394 O   0  0  0  0  0  0
  -21.6642   -6.8881   21.4238 O   0  0  0  0  0  0
  -22.3573  -14.5563   20.6723 O   0  0  0  0  0  0
  -24.6146  -31.8692   23.2115 C   0  0  0  0  0  0
  -25.9041  -32.4834   23.8409 C   0  0  1  0  0  0
  -27.2323  -27.4480   20.0951 C   0  0  0  0  0  0
  -25.5889  -33.8630   24.2333 N   0  0  0  0  0  0
  -23.4022  -30.4943   21.5512 C   0  0  2  0  0  0
  -24.8515  -28.9734   20.1045 C   0  0  0  0  0  0
  -22.7413  -29.4662   22.4976 C   0  0  0  0  0  0
  -18.0276  -28.1386   22.8507 C   0  0  0  0  0  0
  -24.1475  -36.7313   23.2640 C   0  0  0  0  0  0
  -25.9314  -30.8403   21.3640 C   0  0  0  0  0  0
  -26.0115  -29.4792   20.7063 C   0  0  0  0  0  0
  -27.2078  -28.7238   20.7001 C   0  0  0  0  0  0
  -26.0639  -26.9744   19.4540 C   0  0  0  0  0  0
  -24.8731  -27.7196   19.4728 C   0  0  0  0  0  0
  -23.6087  -29.8315   20.1639 C   0  0  0  0  0  0
  -25.4100  -36.3113   24.0339 C   0  0  1  0  0  0
  -20.5861  -28.3660   23.1326 C   0  0  2  0  0  0
  -20.6751  -26.9393   22.5422 C   0  0  0  0  0  0
  -19.5722  -26.6388   21.5223 C   0  0  0  0  0  0
  -18.1909  -26.7932   22.1641 C   0  0  0  0  0  0
  -19.1526  -28.8847   23.2916 C   0  0  0  0  0  0
  -18.9457  -30.1455   23.8914 C   0  0  0  0  0  0
  -17.6458  -30.6594   24.0573 C   0  0  0  0  0  0
  -25.9026  -34.9482   23.5133 C   0  0  0  0  0  0
  -16.5349  -29.9094   23.6336 C   0  0  0  0  0  0
  -16.7262  -28.6516   23.0352 C   0  0  0  0  0  0
  -26.4470  -31.6607   25.0728 C   0  0  0  0  0  0
  -25.3741  -31.3720   26.1477 C   0  0  0  0  0  0
  -27.0285  -30.3046   24.6097 C   0  0  0  0  0  0
  -27.6034  -32.4334   25.7494 C   0  0  0  0  0  0
  -27.5571  -37.1811   24.8472 C   0  0  0  0  0  0
  -21.4138  -29.3029   22.3731 N   0  0  0  0  0  0
  -26.4285  -37.3795   23.9412 N   0  0  0  0  0  0
  -24.6672  -31.0810   22.1002 N   0  0  0  0  0  0
  -23.4198  -28.8204   23.3009 O   0  0  0  0  0  0
  -28.3517  -26.6432   20.1699 O   0  0  0  0  0  0
  -26.5591  -34.8934   22.4693 O   0  0  0  0  0  0
  -23.5339  -32.1427   23.7522 O   0  0  0  0  0  0
  -29.2684  -17.0463   22.7665 C   0  0  0  0  0  0
  -30.3642  -17.4267   20.6310 C   0  0  0  0  0  0
  -29.0924  -19.2439   21.6888 C   0  0  0  0  0  0
  -28.8257  -18.3855   22.7968 C   0  0  0  0  0  0
  -29.9999  -16.5403   21.6750 C   0  0  0  0  0  0
  -29.9116  -18.7647   20.6365 C   0  0  0  0  0  0
  -28.4185  -20.5530   21.5731 C   0  0  0  0  0  0
  -28.0546  -18.8385   24.0342 C   0  0  0  0  0  0
  -30.3260  -24.6039   21.6999 C   0  0  0  0  0  0
  -29.5411  -24.0050   19.3703 C   0  0  0  0  0  0
  -28.3473  -23.0334   21.3873 C   0  0  0  0  0  0
  -28.0662  -25.4223   20.8812 C   0  0  0  0  0  0
  -29.1063  -24.2673   20.8239 C   0  0  0  0  0  0
  -27.0856  -20.5648   21.6826 N   0  0  0  0  0  0
  -30.2609  -15.1393   21.6767 N   0  0  0  0  0  0
  -29.0516  -21.7311   21.3791 N   0  3  0  0  0  0
  -30.2192  -19.5624   19.5849 F   0  0  0  0  0  0
  -31.4718  -12.4127   19.0949 H   0  0  0  0  0  0
  -30.3395  -11.2656   19.7543 H   0  0  0  0  0  0
  -29.7227  -11.8328   17.3972 H   0  0  0  0  0  0
  -29.6616  -13.5326   17.7979 H   0  0  0  0  0  0
  -27.8168  -11.3323   18.7871 H   0  0  0  0  0  0
  -27.3637  -12.6911   17.7911 H   0  0  0  0  0  0
  -27.7367  -14.2601   19.6302 H   0  0  0  0  0  0
  -28.6676  -11.8754   21.2947 H   0  0  0  0  0  0
  -28.4477  -13.4795   21.9028 H   0  0  0  0  0  0
  -25.2756   -9.5717   22.4764 H   0  0  0  0  0  0
  -24.0024   -7.4643   22.7443 H   0  0  0  0  0  0
  -21.0843   -8.8783   19.8929 H   0  0  0  0  0  0
  -22.3686  -10.9699   19.6165 H   0  0  0  0  0  0
  -21.2001   -7.6151   23.9726 H   0  0  0  0  0  0
  -21.1480   -6.0506   25.9073 H   0  0  0  0  0  0
  -22.0600   -2.7619   23.2826 H   0  0  0  0  0  0
  -22.4119  -11.9887   22.4792 H   0  0  0  0  0  0
  -21.1135  -13.1279   22.2622 H   0  0  0  0  0  0
  -24.6785  -15.8503   20.5206 H   0  0  0  0  0  0
  -26.3012  -15.6199   20.1064 H   0  0  0  0  0  0
  -26.7118  -32.5555   23.1181 H   0  0  0  0  0  0
  -25.0028  -33.9785   25.0473 H   0  0  0  0  0  0
  -22.6911  -31.3118   21.4153 H   0  0  0  0  0  0
  -23.3731  -35.9654   23.3328 H   0  0  0  0  0  0
  -24.3562  -36.8895   22.2047 H   0  0  0  0  0  0
  -23.7236  -37.6532   23.6637 H   0  0  0  0  0  0
  -26.0421  -31.6093   20.5990 H   0  0  0  0  0  0
  -26.8200  -30.8936   21.9812 H   0  0  0  0  0  0
  -28.0962  -29.1006   21.1882 H   0  0  0  0  0  0
  -26.0595  -26.0176   18.9538 H   0  0  0  0  0  0
  -23.9854  -27.3295   18.9952 H   0  0  0  0  0  0
  -23.7055  -30.6079   19.4042 H   0  0  0  0  0  0
  -22.7360  -29.2440   19.8732 H   0  0  0  0  0  0
  -25.1274  -36.1976   25.0832 H   0  0  0  0  0  0
  -20.9974  -28.3228   24.1439 H   0  0  0  0  0  0
  -20.5660  -26.2265   23.3607 H   0  0  0  0  0  0
  -21.6620  -26.7429   22.1212 H   0  0  0  0  0  0
  -19.6871  -25.6311   21.1225 H   0  0  0  0  0  0
  -19.6662  -27.3234   20.6781 H   0  0  0  0  0  0
  -17.4173  -26.6705   21.4046 H   0  0  0  0  0  0
  -18.0299  -26.0076   22.9035 H   0  0  0  0  0  0
  -19.7929  -30.7272   24.2279 H   0  0  0  0  0  0
  -17.5008  -31.6268   24.5171 H   0  0  0  0  0  0
  -15.5348  -30.2996   23.7643 H   0  0  0  0  0  0
  -15.8664  -28.0839   22.7041 H   0  0  0  0  0  0
  -24.5909  -30.7063   25.7840 H   0  0  0  0  0  0
  -24.8938  -32.2873   26.4944 H   0  0  0  0  0  0
  -25.8100  -30.8896   27.0232 H   0  0  0  0  0  0
  -26.2821  -29.6830   24.1133 H   0  0  0  0  0  0
  -27.4025  -29.7265   25.4561 H   0  0  0  0  0  0
  -27.8676  -30.4354   23.9259 H   0  0  0  0  0  0
  -27.2630  -33.3616   26.2104 H   0  0  0  0  0  0
  -28.3831  -32.6927   25.0320 H   0  0  0  0  0  0
  -28.0714  -31.8443   26.5387 H   0  0  0  0  0  0
  -28.2615  -38.0085   24.7489 H   0  0  0  0  0  0
  -28.1032  -36.2610   24.6328 H   0  0  0  0  0  0
  -27.2279  -37.1504   25.8875 H   0  0  0  0  0  0
  -20.9298  -29.8756   21.6963 H   0  0  0  0  0  0
  -26.0172  -38.2873   24.1419 H   0  0  0  0  0  0
  -29.0079  -16.3890   23.5851 H   0  0  0  0  0  0
  -30.9486  -17.0911   19.7892 H   0  0  0  0  0  0
  -28.3601  -18.2666   24.9115 H   0  0  0  0  0  0
  -26.9836  -18.6911   23.8984 H   0  0  0  0  0  0
  -28.2319  -19.8893   24.2659 H   0  0  0  0  0  0
  -30.0362  -24.7753   22.7378 H   0  0  0  0  0  0
  -30.8241  -25.5089   21.3489 H   0  0  0  0  0  0
  -31.0609  -23.7987   21.6975 H   0  0  0  0  0  0
  -30.2450  -23.1746   19.3049 H   0  0  0  0  0  0
  -30.0287  -24.8801   18.9403 H   0  0  0  0  0  0
  -28.6870  -23.7596   18.7382 H   0  0  0  0  0  0
  -27.4354  -22.9081   20.8002 H   0  0  0  0  0  0
  -28.0226  -23.2343   22.4100 H   0  0  0  0  0  0
  -27.8728  -25.6848   21.9232 H   0  0  0  0  0  0
  -27.1282  -25.0004   20.5240 H   0  0  0  0  0  0
  -26.5967  -19.6866   21.7675 H   0  0  0  0  0  0
  -26.5358  -21.4021   21.6091 H   0  0  0  0  0  0
  -29.6834  -14.6143   22.3157 H   0  0  0  0  0  0
  -30.0620  -21.7302   21.3250 H   0  0  0  0  0  0
  1 25  1  0  0  0
  1 30  2  0  0  0
  1 85  1  0  0  0
  2  3  1  0  0  0
  2 25  1  0  0  0
  2 88  1  0  0  0
  2 89  1  0  0  0
  3  4  1  0  0  0
  3 90  1  0  0  0
  3 91  1  0  0  0
  4  5  1  0  0  0
  4 92  1  0  0  0
  4 93  1  0  0  0
  5  6  1  0  0  0
  5 26  1  0  0  0
  5 94  1  0  0  0
  6 25  1  0  0  0
  6 95  1  0  0  0
  6 96  1  0  0  0
  7  8  2  0  0  0
  7 26  1  0  0  0
  7 29  1  0  0  0
  8  9  1  0  0  0
  8 22  1  0  0  0
  9 10  1  0  0  0
  9 27  2  0  0  0
 10 11  2  0  0  0
 10 15  1  0  0  0
 11 12  1  0  0  0
 11 97  1  0  0  0
 12 13  2  0  0  0
 12 98  1  0  0  0
 13 14  1  0  0  0
 13 31  1  0  0  0
 14 15  2  0  0  0
 14 99  1  0  0  0
 15100  1  0  0  0
 16 17  2  0  0  0
 16 21  1  0  0  0
 16 31  1  0  0  0
 17 18  1  0  0  0
 17101  1  0  0  0
 18 19  2  0  0  0
 18102  1  0  0  0
 19 20  1  0  0  0
 19 24  1  0  0  0
 20 21  2  0  0  0
 20103  1  0  0  0
 21 23  1  0  0  0
 22 28  1  0  0  0
 22 32  2  0  0  0
 26 27  1  0  0  0
 28104  1  0  0  0
 28105  1  0  0  0
 29106  1  0  0  0
 29107  1  0  0  0
 33 34  1  0  0  0
 33 66  1  0  0  0
 33 70  2  0  0  0
 34 36  1  0  0  0
 34 59  1  0  0  0
 34108  1  0  0  0
 35 44  2  0  0  0
 35 45  1  0  0  0
 35 68  1  0  0  0
 36 56  1  0  0  0
 36109  1  0  0  0
 37 39  1  0  0  0
 37 47  1  0  0  0
 37 66  1  0  0  0
 37110  1  0  0  0
 38 43  2  0  0  0
 38 46  1  0  0  0
 38 47  1  0  0  0
 39 64  1  0  0  0
 39 67  2  0  0  0
 40 52  1  0  0  0
 40 53  2  0  0  0
 40 58  1  0  0  0
 41111  1  0  0  0
 41112  1  0  0  0
 41113  1  0  0  0
 41 48  1  0  0  0
 42 43  1  0  0  0
 42 66  1  0  0  0
 42114  1  0  0  0
 42115  1  0  0  0
 43 44  1  0  0  0
 44116  1  0  0  0
 45 46  2  0  0  0
 45117  1  0  0  0
 46118  1  0  0  0
 47119  1  0  0  0
 47120  1  0  0  0
 48 56  1  0  0  0
 48 65  1  0  0  0
 48121  1  0  0  0
 49 50  1  0  0  0
 49 53  1  0  0  0
 49 64  1  0  0  0
 49122  1  0  0  0
 50 51  1  0  0  0
 50123  1  0  0  0
 50124  1  0  0  0
 51 52  1  0  0  0
 51125  1  0  0  0
 51126  1  0  0  0
 52127  1  0  0  0
 52128  1  0  0  0
 53 54  1  0  0  0
 54 55  2  0  0  0
 54129  1  0  0  0
 55 57  1  0  0  0
 55130  1  0  0  0
 56 69  2  0  0  0
 57 58  2  0  0  0
 57131  1  0  0  0
 58132  1  0  0  0
 59 60  1  0  0  0
 59 61  1  0  0  0
 59 62  1  0  0  0
 60133  1  0  0  0
 60134  1  0  0  0
 60135  1  0  0  0
 61136  1  0  0  0
 61137  1  0  0  0
 61138  1  0  0  0
 62139  1  0  0  0
 62140  1  0  0  0
 62141  1  0  0  0
 63 65  1  0  0  0
 63142  1  0  0  0
 63143  1  0  0  0
 63144  1  0  0  0
 64145  1  0  0  0
 65146  1  0  0  0
 68 82  1  0  0  0
 71 74  2  0  0  0
 71 75  1  0  0  0
 71147  1  0  0  0
 72 75  2  0  0  0
 72 76  1  0  0  0
 72148  1  0  0  0
 73 74  1  0  0  0
 73 76  2  0  0  0
 73 77  1  0  0  0
 74 78  1  0  0  0
 75 85  1  0  0  0
 76 87  1  0  0  0
 77 84  1  0  0  0
 77 86  2  0  0  0
 78149  1  0  0  0
 78150  1  0  0  0
 78151  1  0  0  0
 79152  1  0  0  0
 79153  1  0  0  0
 79154  1  0  0  0
 79 83  1  0  0  0
 80 83  1  0  0  0
 80155  1  0  0  0
 80156  1  0  0  0
 80157  1  0  0  0
 81 83  1  0  0  0
 81 86  1  0  0  0
 81158  1  0  0  0
 81159  1  0  0  0
 82 83  1  0  0  0
 82160  1  0  0  0
 82161  1  0  0  0
 84162  1  0  0  0
 84163  1  0  0  0
 85164  1  0  0  0
 86165  1  0  0  0
M  CHG  1  86   1
M  ISO  4   1 100  68 101  82 101  85 100
M  END
> <chiral flag>
0

> <version>
0

> <s_m_source_file>
/data/baiqing/PycharmProjects/Reinvent-master-3.2/result/LINK_invent/BTK/process_docking_weight1_custom_product_contain_oxygen_bond_distance_aromatic_linkinvent_7_9_3/rearranged_h_0058.sdf

> <i_m_source_file_index>
6

> <r_mmod_Potential_Energy-OPLS-2005>
-119.154655456543

> <r_mmod_Stretch_Energy-OPLS-2005>
38.7041358947754

> <r_mmod_Bend_Energy-OPLS-2005>
110.874572753906

> <r_mmod_Torsional_Energy-OPLS-2005>
265.903717041016

> <r_mmod_Improper_Torsional_Energy-OPLS-2005>
4.96507406234741

> <r_mmod_Van_der_Waal_Energy-OPLS-2005>
170.973754882812

> <r_mmod_Electrostatic_Energy-OPLS-2005>
-315.767883300781

> <r_mmod_Solvation_Energy-OPLS-2005>
-406.360015869141

> <b_mmod_Minimization_Converged-OPLS-2005>
0

> <r_mmod_RMS_Derivative-OPLS-2005>
2.29233074188232

$$$$
6
                    3D
 Structure written by MMmdl.
157165  0  0  1  0            999 V2000
  -30.7589  -14.3776   20.6645 C   0  0  0  0  0  0
  -30.4100  -12.2974   19.3823 C   0  0  0  0  0  0
  -29.4736  -12.5315   18.1822 C   0  0  0  0  0  0
  -28.0005  -12.3765   18.6030 C   0  0  0  0  0  0
  -27.6572  -13.1966   19.8735 C   0  0  2  0  0  0
  -28.6997  -12.9511   20.9835 C   0  0  0  0  0  0
  -25.2589  -13.8140   20.5687 C   0  0  0  0  0  0
  -24.1818  -13.0428   20.9164 C   0  0  0  0  0  0
  -24.6354  -11.6891   20.8735 C   0  0  0  0  0  0
  -23.9037  -10.4273   21.0408 C   0  0  0  0  0  0
  -24.3596   -9.4196   21.9177 C   0  0  0  0  0  0
  -23.6273   -8.2238   22.0763 C   0  0  0  0  0  0
  -22.4260   -8.0272   21.3554 C   0  0  0  0  0  0
  -21.9888   -9.0246   20.4661 C   0  0  0  0  0  0
  -22.7217  -10.2117   20.3062 C   0  0  0  0  0  0
  -21.6851   -6.0717   22.5273 C   0  0  0  0  0  0
  -21.4008   -6.5623   23.8201 C   0  0  0  0  0  0
  -21.3675   -5.6791   24.9175 C   0  0  0  0  0  0
  -21.6046   -4.3050   24.7234 C   0  0  0  0  0  0
  -21.8821   -3.8128   23.4359 C   0  0  0  0  0  0
  -21.9194   -4.6940   22.3406 C   0  0  0  0  0  0
  -22.7849  -13.5243   21.1831 C   0  0  0  0  0  0
  -22.1660   -4.2129   21.0985 F   0  0  0  0  0  0
  -21.5649   -3.4534   25.7742 F   0  0  0  0  0  0
  -30.0340  -13.2519   20.4339 N   0  0  0  0  0  0
  -26.2999  -12.9277   20.3371 N   0  0  0  0  0  0
  -25.9275  -11.6445   20.5764 N   0  0  0  0  0  0
  -22.0502  -12.8235   22.0397 N   0  0  0  0  0  0
  -25.4337  -15.1855   20.4151 N   0  0  0  0  0  0
  -31.8384  -14.6171   20.1172 O   0  0  0  0  0  0
  -21.6641   -6.8856   21.4230 O   0  0  0  0  0  0
  -22.3529  -14.5546   20.6687 O   0  0  0  0  0  0
  -24.6133  -31.8700   23.2113 C   0  0  0  0  0  0
  -25.9044  -32.4819   23.8391 C   0  0  1  0  0  0
  -27.2319  -27.4575   20.0709 C   0  0  0  0  0  0
  -25.5912  -33.8616   24.2316 N   0  0  0  0  0  0
  -23.3977  -30.4950   21.5528 C   0  0  2  0  0  0
  -24.8397  -28.9642   20.1131 C   0  0  0  0  0  0
  -22.7414  -29.4678   22.5014 C   0  0  0  0  0  0
  -18.0301  -28.1390   22.8498 C   0  0  0  0  0  0
  -24.1487  -36.7330   23.2625 C   0  0  0  0  0  0
  -25.9237  -30.8421   21.3568 C   0  0  0  0  0  0
  -26.0001  -29.4778   20.7041 C   0  0  0  0  0  0
  -27.1968  -28.7297   20.6804 C   0  0  0  0  0  0
  -26.0433  -26.9475   19.4938 C   0  0  0  0  0  0
  -24.8533  -27.6961   19.5102 C   0  0  0  0  0  0
  -23.6020  -29.8290   20.1658 C   0  0  0  0  0  0
  -25.4103  -36.3095   24.0323 C   0  0  1  0  0  0
  -20.5880  -28.3652   23.1351 C   0  0  2  0  0  0
  -20.6797  -26.9414   22.5413 C   0  0  0  0  0  0
  -19.5800  -26.6478   21.5157 C   0  0  0  0  0  0
  -18.1966  -26.7954   22.1601 C   0  0  0  0  0  0
  -19.1545  -28.8832   23.2921 C   0  0  0  0  0  0
  -18.9493  -30.1449   23.8919 C   0  0  0  0  0  0
  -17.6504  -30.6589   24.0608 C   0  0  0  0  0  0
  -25.9039  -34.9469   23.5113 C   0  0  0  0  0  0
  -16.5388  -29.9110   23.6352 C   0  0  0  0  0  0
  -16.7291  -28.6531   23.0356 C   0  0  0  0  0  0
  -26.4468  -31.6586   25.0712 C   0  0  0  0  0  0
  -25.3737  -31.3720   26.1478 C   0  0  0  0  0  0
  -27.0279  -30.3026   24.6061 C   0  0  0  0  0  0
  -27.6038  -32.4281   25.7486 C   0  0  0  0  0  0
  -27.5571  -37.1817   24.8453 C   0  0  0  0  0  0
  -21.4145  -29.3036   22.3769 N   0  0  0  0  0  0
  -26.4284  -37.3777   23.9395 N   0  0  0  0  0  0
  -24.6636  -31.0827   22.0997 N   0  0  0  0  0  0
  -23.4219  -28.8219   23.3027 O   0  0  0  0  0  0
  -28.4181  -26.7513   20.1103 O   0  0  0  0  0  0
  -26.5609  -34.8926   22.4676 O   0  0  0  0  0  0
  -23.5343  -32.1453   23.7541 O   0  0  0  0  0  0
  -28.2132  -17.7611   19.5984 C   0  0  0  0  0  0
  -28.1329  -18.2920   21.9738 C   0  0  0  0  0  0
  -28.9952  -16.6243   19.8762 C   0  0  0  0  0  0
  -28.9222  -17.1602   22.2536 C   0  0  0  0  0  0
  -27.7889  -18.6062   20.6440 C   0  0  0  0  0  0
  -29.3705  -16.3228   21.2095 C   0  0  0  0  0  0
  -28.6892  -24.5326   20.0294 C   0  0  0  0  0  0
  -27.6383  -22.2236   19.7376 C   0  0  0  0  0  0
  -28.9428  -24.5561   21.5312 C   0  0  0  0  0  0
  -27.0316  -19.8843   20.3305 C   0  0  0  0  0  0
  -28.7987  -23.1623   19.3691 C   0  0  0  0  0  0
  -28.4262  -25.5732   19.3377 N   0  0  0  0  0  0
  -30.2359  -15.2451   21.5412 N   0  0  0  0  0  0
  -27.9687  -20.9625   20.0456 N   0  0  0  0  0  0
  -26.4661  -22.6075   19.7101 O   0  0  0  0  0  0
  -31.4540  -12.3958   19.0762 H   0  0  0  0  0  0
  -30.3039  -11.2767   19.7531 H   0  0  0  0  0  0
  -29.7031  -11.8354   17.3746 H   0  0  0  0  0  0
  -29.6332  -13.5334   17.7791 H   0  0  0  0  0  0
  -27.8074  -11.3180   18.7772 H   0  0  0  0  0  0
  -27.3479  -12.6723   17.7813 H   0  0  0  0  0  0
  -27.7038  -14.2458   19.5903 H   0  0  0  0  0  0
  -28.6698  -11.9094   21.3057 H   0  0  0  0  0  0
  -28.4530  -13.5349   21.8714 H   0  0  0  0  0  0
  -25.2751   -9.5665   22.4737 H   0  0  0  0  0  0
  -23.9996   -7.4624   22.7479 H   0  0  0  0  0  0
  -21.0822   -8.8754   19.8960 H   0  0  0  0  0  0
  -22.3678  -10.9651   19.6165 H   0  0  0  0  0  0
  -21.1980   -7.6129   23.9684 H   0  0  0  0  0  0
  -21.1510   -6.0534   25.9076 H   0  0  0  0  0  0
  -22.0582   -2.7588   23.2869 H   0  0  0  0  0  0
  -22.4146  -11.9911   22.4784 H   0  0  0  0  0  0
  -21.1122  -13.1249   22.2629 H   0  0  0  0  0  0
  -24.6767  -15.8475   20.5473 H   0  0  0  0  0  0
  -26.3152  -15.6286   20.1848 H   0  0  0  0  0  0
  -26.7105  -32.5540   23.1150 H   0  0  0  0  0  0
  -25.0025  -33.9767   25.0438 H   0  0  0  0  0  0
  -22.6834  -31.3100   21.4162 H   0  0  0  0  0  0
  -23.3723  -35.9693   23.3292 H   0  0  0  0  0  0
  -24.3570  -36.8958   22.2034 H   0  0  0  0  0  0
  -23.7295  -37.6561   23.6649 H   0  0  0  0  0  0
  -26.0244  -31.6052   20.5838 H   0  0  0  0  0  0
  -26.8174  -30.9000   21.9669 H   0  0  0  0  0  0
  -28.0974  -29.1232   21.1297 H   0  0  0  0  0  0
  -26.0117  -25.9707   19.0340 H   0  0  0  0  0  0
  -23.9566  -27.2890   19.0616 H   0  0  0  0  0  0
  -23.7104  -30.6027   19.4055 H   0  0  0  0  0  0
  -22.7260  -29.2476   19.8706 H   0  0  0  0  0  0
  -25.1269  -36.1946   25.0816 H   0  0  0  0  0  0
  -20.9972  -28.3207   24.1464 H   0  0  0  0  0  0
  -20.5694  -26.2245   23.3563 H   0  0  0  0  0  0
  -21.6683  -26.7525   22.1237 H   0  0  0  0  0  0
  -19.6990  -25.6446   21.1055 H   0  0  0  0  0  0
  -19.6762  -27.3424   20.6791 H   0  0  0  0  0  0
  -17.4222  -26.6706   21.4000 H   0  0  0  0  0  0
  -18.0400  -26.0075   22.8992 H   0  0  0  0  0  0
  -19.7979  -30.7270   24.2255 H   0  0  0  0  0  0
  -17.5115  -31.6275   24.5201 H   0  0  0  0  0  0
  -15.5410  -30.3055   23.7659 H   0  0  0  0  0  0
  -15.8688  -28.0889   22.7037 H   0  0  0  0  0  0
  -24.5903  -30.7052   25.7842 H   0  0  0  0  0  0
  -24.8931  -32.2891   26.4893 H   0  0  0  0  0  0
  -25.8102  -30.8927   27.0246 H   0  0  0  0  0  0
  -26.2815  -29.6825   24.1075 H   0  0  0  0  0  0
  -27.4016  -29.7216   25.4496 H   0  0  0  0  0  0
  -27.8655  -30.4330   23.9207 H   0  0  0  0  0  0
  -27.2650  -33.3557   26.2115 H   0  0  0  0  0  0
  -28.3852  -32.6890   25.0330 H   0  0  0  0  0  0
  -28.0703  -31.8370   26.5382 H   0  0  0  0  0  0
  -28.2585  -38.0110   24.7471 H   0  0  0  0  0  0
  -28.1070  -36.2645   24.6294 H   0  0  0  0  0  0
  -27.2293  -37.1482   25.8858 H   0  0  0  0  0  0
  -20.9303  -29.8733   21.6977 H   0  0  0  0  0  0
  -26.0176  -38.2853   24.1399 H   0  0  0  0  0  0
  -27.9591  -17.9940   18.5733 H   0  0  0  0  0  0
  -27.8107  -18.9345   22.7833 H   0  0  0  0  0  0
  -29.3244  -16.0140   19.0457 H   0  0  0  0  0  0
  -29.1970  -16.9554   23.2790 H   0  0  0  0  0  0
  -29.1532  -23.5575   21.9139 H   0  0  0  0  0  0
  -28.0664  -24.9371   22.0545 H   0  0  0  0  0  0
  -29.7945  -25.1945   21.7654 H   0  0  0  0  0  0
  -26.3842  -20.1553   21.1670 H   0  0  0  0  0  0
  -26.3826  -19.7221   19.4676 H   0  0  0  0  0  0
  -29.7561  -22.7167   19.6412 H   0  0  0  0  0  0
  -28.8073  -23.2770   18.2853 H   0  0  0  0  0  0
  -30.8787  -15.4783   22.2829 H   0  0  0  0  0  0
  -28.9474  -20.7124   20.0532 H   0  0  0  0  0  0
  1 25  1  0  0  0
  1 30  2  0  0  0
  1 83  1  0  0  0
  2  3  1  0  0  0
  2 25  1  0  0  0
  2 86  1  0  0  0
  2 87  1  0  0  0
  3  4  1  0  0  0
  3 88  1  0  0  0
  3 89  1  0  0  0
  4  5  1  0  0  0
  4 90  1  0  0  0
  4 91  1  0  0  0
  5  6  1  0  0  0
  5 26  1  0  0  0
  5 92  1  0  0  0
  6 25  1  0  0  0
  6 93  1  0  0  0
  6 94  1  0  0  0
  7  8  2  0  0  0
  7 26  1  0  0  0
  7 29  1  0  0  0
  8  9  1  0  0  0
  8 22  1  0  0  0
  9 10  1  0  0  0
  9 27  2  0  0  0
 10 11  2  0  0  0
 10 15  1  0  0  0
 11 12  1  0  0  0
 11 95  1  0  0  0
 12 13  2  0  0  0
 12 96  1  0  0  0
 13 14  1  0  0  0
 13 31  1  0  0  0
 14 15  2  0  0  0
 14 97  1  0  0  0
 15 98  1  0  0  0
 16 17  2  0  0  0
 16 21  1  0  0  0
 16 31  1  0  0  0
 17 18  1  0  0  0
 17 99  1  0  0  0
 18 19  2  0  0  0
 18100  1  0  0  0
 19 20  1  0  0  0
 19 24  1  0  0  0
 20 21  2  0  0  0
 20101  1  0  0  0
 21 23  1  0  0  0
 22 28  1  0  0  0
 22 32  2  0  0  0
 26 27  1  0  0  0
 28102  1  0  0  0
 28103  1  0  0  0
 29104  1  0  0  0
 29105  1  0  0  0
 33 34  1  0  0  0
 33 66  1  0  0  0
 33 70  2  0  0  0
 34 36  1  0  0  0
 34 59  1  0  0  0
 34106  1  0  0  0
 35 44  2  0  0  0
 35 45  1  0  0  0
 35 68  1  0  0  0
 36 56  1  0  0  0
 36107  1  0  0  0
 37 39  1  0  0  0
 37 47  1  0  0  0
 37 66  1  0  0  0
 37108  1  0  0  0
 38 43  2  0  0  0
 38 46  1  0  0  0
 38 47  1  0  0  0
 39 64  1  0  0  0
 39 67  2  0  0  0
 40 52  1  0  0  0
 40 53  2  0  0  0
 40 58  1  0  0  0
 41109  1  0  0  0
 41110  1  0  0  0
 41111  1  0  0  0
 41 48  1  0  0  0
 42 43  1  0  0  0
 42 66  1  0  0  0
 42112  1  0  0  0
 42113  1  0  0  0
 43 44  1  0  0  0
 44114  1  0  0  0
 45 46  2  0  0  0
 45115  1  0  0  0
 46116  1  0  0  0
 47117  1  0  0  0
 47118  1  0  0  0
 48 56  1  0  0  0
 48 65  1  0  0  0
 48119  1  0  0  0
 49 50  1  0  0  0
 49 53  1  0  0  0
 49 64  1  0  0  0
 49120  1  0  0  0
 50 51  1  0  0  0
 50121  1  0  0  0
 50122  1  0  0  0
 51 52  1  0  0  0
 51123  1  0  0  0
 51124  1  0  0  0
 52125  1  0  0  0
 52126  1  0  0  0
 53 54  1  0  0  0
 54 55  2  0  0  0
 54127  1  0  0  0
 55 57  1  0  0  0
 55128  1  0  0  0
 56 69  2  0  0  0
 57 58  2  0  0  0
 57129  1  0  0  0
 58130  1  0  0  0
 59 60  1  0  0  0
 59 61  1  0  0  0
 59 62  1  0  0  0
 60131  1  0  0  0
 60132  1  0  0  0
 60133  1  0  0  0
 61134  1  0  0  0
 61135  1  0  0  0
 61136  1  0  0  0
 62137  1  0  0  0
 62138  1  0  0  0
 62139  1  0  0  0
 63 65  1  0  0  0
 63140  1  0  0  0
 63141  1  0  0  0
 63142  1  0  0  0
 64143  1  0  0  0
 65144  1  0  0  0
 68 82  1  0  0  0
 71 73  2  0  0  0
 71 75  1  0  0  0
 71145  1  0  0  0
 72 74  1  0  0  0
 72 75  2  0  0  0
 72146  1  0  0  0
 73 76  1  0  0  0
 73147  1  0  0  0
 74 76  2  0  0  0
 74148  1  0  0  0
 75 80  1  0  0  0
 76 83  1  0  0  0
 77 79  1  0  0  0
 77 81  1  0  0  0
 77 82  2  0  0  0
 78 81  1  0  0  0
 78 84  1  0  0  0
 78 85  2  0  0  0
 79149  1  0  0  0
 79150  1  0  0  0
 79151  1  0  0  0
 80 84  1  0  0  0
 80152  1  0  0  0
 80153  1  0  0  0
 81154  1  0  0  0
 81155  1  0  0  0
 83156  1  0  0  0
 84157  1  0  0  0
M  ISO  4   1 100  68 101  82 101  83 100
M  END
> <chiral flag>
0

> <version>
0

> <s_m_source_file>
/data/baiqing/PycharmProjects/Reinvent-master-3.2/result/LINK_invent/BTK/process_docking_weight1_custom_product_contain_oxygen_bond_distance_aromatic_linkinvent_7_9_3/rearranged_h_0058.sdf

> <i_m_source_file_index>
7

> <r_mmod_Potential_Energy-OPLS-2005>
-130.876510620117

> <r_mmod_Stretch_Energy-OPLS-2005>
32.3434143066406

> <r_mmod_Bend_Energy-OPLS-2005>
95.7755584716797

> <r_mmod_Torsional_Energy-OPLS-2005>
260.168365478516

> <r_mmod_Improper_Torsional_Energy-OPLS-2005>
4.91588258743286

> <r_mmod_Van_der_Waal_Energy-OPLS-2005>
155.816757202148

> <r_mmod_Electrostatic_Energy-OPLS-2005>
-456.461975097656

> <r_mmod_Solvation_Energy-OPLS-2005>
-233.079864501953

> <b_mmod_Minimization_Converged-OPLS-2005>
0

> <r_mmod_RMS_Derivative-OPLS-2005>
2.45370674133301

$$$$
7
                    3D
 Structure written by MMmdl.
163171  0  0  1  0            999 V2000
  -30.6074  -14.7507   20.4581 C   0  0  0  0  0  0
  -30.4331  -12.4548   19.4891 C   0  0  0  0  0  0
  -29.5158  -12.5197   18.2472 C   0  0  0  0  0  0
  -28.0394  -12.3472   18.6520 C   0  0  0  0  0  0
  -27.6466  -13.2373   19.8613 C   0  0  2  0  0  0
  -28.6884  -13.1602   21.0008 C   0  0  0  0  0  0
  -25.2517  -13.8212   20.5707 C   0  0  0  0  0  0
  -24.1808  -13.0447   20.9199 C   0  0  0  0  0  0
  -24.6406  -11.6925   20.8743 C   0  0  0  0  0  0
  -23.9079  -10.4298   21.0406 C   0  0  0  0  0  0
  -24.3624   -9.4211   21.9184 C   0  0  0  0  0  0
  -23.6296   -8.2247   22.0750 C   0  0  0  0  0  0
  -22.4275   -8.0285   21.3549 C   0  0  0  0  0  0
  -21.9918   -9.0256   20.4647 C   0  0  0  0  0  0
  -22.7248  -10.2135   20.3056 C   0  0  0  0  0  0
  -21.6856   -6.0735   22.5273 C   0  0  0  0  0  0
  -21.4017   -6.5640   23.8207 C   0  0  0  0  0  0
  -21.3660   -5.6793   24.9172 C   0  0  0  0  0  0
  -21.6046   -4.3055   24.7226 C   0  0  0  0  0  0
  -21.8817   -3.8145   23.4348 C   0  0  0  0  0  0
  -21.9191   -4.6962   22.3403 C   0  0  0  0  0  0
  -22.7827  -13.5225   21.1858 C   0  0  0  0  0  0
  -22.1662   -4.2148   21.0983 F   0  0  0  0  0  0
  -21.5629   -3.4536   25.7741 F   0  0  0  0  0  0
  -29.9962  -13.5138   20.4326 N   0  0  0  0  0  0
  -26.2959  -12.9435   20.3325 N   0  0  0  0  0  0
  -25.9346  -11.6566   20.5763 N   0  0  0  0  0  0
  -22.0473  -12.8214   22.0413 N   0  0  0  0  0  0
  -25.4203  -15.1939   20.4143 N   0  0  0  0  0  0
  -31.7717  -14.8599   20.0604 O   0  0  0  0  0  0
  -21.6640   -6.8882   21.4240 O   0  0  0  0  0  0
  -22.3510  -14.5525   20.6697 O   0  0  0  0  0  0
  -24.6323  -31.8542   23.1984 C   0  0  0  0  0  0
  -25.9134  -32.4756   23.8338 C   0  0  1  0  0  0
  -27.2243  -27.2529   20.1251 C   0  0  0  0  0  0
  -25.5919  -33.8560   24.2259 N   0  0  0  0  0  0
  -23.4302  -30.4764   21.5430 C   0  0  2  0  0  0
  -24.8769  -28.9227   20.1107 C   0  0  0  0  0  0
  -22.7509  -29.4590   22.4922 C   0  0  0  0  0  0
  -18.0289  -28.1381   22.8483 C   0  0  0  0  0  0
  -24.1489  -36.7275   23.2645 C   0  0  0  0  0  0
  -25.9774  -30.7633   21.3812 C   0  0  0  0  0  0
  -26.0484  -29.3865   20.7203 C   0  0  0  0  0  0
  -27.2207  -28.5639   20.7152 C   0  0  0  0  0  0
  -26.0265  -26.8631   19.4807 C   0  0  0  0  0  0
  -24.8725  -27.6706   19.4795 C   0  0  0  0  0  0
  -23.6482  -29.8095   20.1594 C   0  0  0  0  0  0
  -25.4119  -36.3077   24.0333 C   0  0  1  0  0  0
  -20.5894  -28.3697   23.1265 C   0  0  2  0  0  0
  -20.6777  -26.9412   22.5408 C   0  0  0  0  0  0
  -19.5749  -26.6380   21.5211 C   0  0  0  0  0  0
  -18.1934  -26.7926   22.1628 C   0  0  0  0  0  0
  -19.1543  -28.8859   23.2869 C   0  0  0  0  0  0
  -18.9465  -30.1459   23.8891 C   0  0  0  0  0  0
  -17.6465  -30.6588   24.0564 C   0  0  0  0  0  0
  -25.9055  -34.9442   23.5105 C   0  0  0  0  0  0
  -16.5355  -29.9085   23.6332 C   0  0  0  0  0  0
  -16.7277  -28.6500   23.0357 C   0  0  0  0  0  0
  -26.4497  -31.6584   25.0731 C   0  0  0  0  0  0
  -25.3708  -31.3719   26.1440 C   0  0  0  0  0  0
  -27.0354  -30.3006   24.6221 C   0  0  0  0  0  0
  -27.6058  -32.4327   25.7487 C   0  0  0  0  0  0
  -27.5581  -37.1797   24.8469 C   0  0  0  0  0  0
  -21.4215  -29.3036   22.3653 N   0  0  0  0  0  0
  -26.4299  -37.3776   23.9410 N   0  0  0  0  0  0
  -24.6992  -31.0491   22.0970 N   0  0  0  0  0  0
  -23.4196  -28.8136   23.3034 O   0  0  0  0  0  0
  -28.3382  -26.3775   20.2233 O   0  0  0  0  0  0
  -26.5639  -34.8915   22.4679 O   0  0  0  0  0  0
  -23.5465  -32.1369   23.7260 O   0  0  0  0  0  0
  -29.7883  -18.5342   18.0955 C   0  0  0  0  0  0
  -29.5916  -19.7520   18.7813 C   0  0  0  0  0  0
  -29.9194  -17.3075   18.7804 C   0  0  0  0  0  0
  -29.6411  -18.5053   20.8735 C   0  0  0  0  0  0
  -29.5203  -19.7937   20.1895 C   0  0  0  0  0  0
  -29.8458  -17.2316   20.1892 C   0  0  0  0  0  0
  -29.4908  -21.1856   20.8971 C   0  0  0  0  0  0
  -26.1532  -23.3395   21.6944 C   0  0  0  0  0  0
  -27.9450  -22.7543   23.3215 C   0  0  0  0  0  0
  -27.4936  -25.1210   22.8400 C   0  0  0  0  0  0
  -28.3033  -24.8951   19.9048 C   0  0  0  0  0  0
  -28.6045  -23.7045   20.9871 C   0  0  1  0  0  0
  -27.5654  -23.7256   22.1807 C   0  0  0  0  0  0
  -29.8699  -15.8770   20.8118 N   0  0  0  0  0  0
  -28.7663  -22.2734   20.4178 N   0  0  0  0  0  0
  -30.1720  -21.2952   21.9167 O   0  0  0  0  0  0
  -31.4756  -12.5717   19.1881 H   0  0  0  0  0  0
  -30.3715  -11.4742   19.9633 H   0  0  0  0  0  0
  -29.7977  -11.7518   17.5257 H   0  0  0  0  0  0
  -29.6475  -13.4780   17.7418 H   0  0  0  0  0  0
  -27.8863  -11.2965   18.9002 H   0  0  0  0  0  0
  -27.3867  -12.5549   17.8028 H   0  0  0  0  0  0
  -27.6447  -14.2638   19.4923 H   0  0  0  0  0  0
  -28.7190  -12.1579   21.4304 H   0  0  0  0  0  0
  -28.4184  -13.8318   21.8173 H   0  0  0  0  0  0
  -25.2766   -9.5686   22.4766 H   0  0  0  0  0  0
  -23.9997   -7.4644   22.7476 H   0  0  0  0  0  0
  -21.0845   -8.8782   19.8962 H   0  0  0  0  0  0
  -22.3702  -10.9677   19.6167 H   0  0  0  0  0  0
  -21.2010   -7.6146   23.9715 H   0  0  0  0  0  0
  -21.1488   -6.0521   25.9076 H   0  0  0  0  0  0
  -22.0596   -2.7606   23.2846 H   0  0  0  0  0  0
  -22.4088  -11.9876   22.4810 H   0  0  0  0  0  0
  -21.1096  -13.1251   22.2628 H   0  0  0  0  0  0
  -24.6514  -15.8462   20.5247 H   0  0  0  0  0  0
  -26.2708  -15.6364   20.0896 H   0  0  0  0  0  0
  -26.7198  -32.5405   23.1075 H   0  0  0  0  0  0
  -25.0055  -33.9696   25.0399 H   0  0  0  0  0  0
  -22.7277  -31.2996   21.3956 H   0  0  0  0  0  0
  -23.3767  -35.9593   23.3312 H   0  0  0  0  0  0
  -24.3580  -36.8891   22.2058 H   0  0  0  0  0  0
  -23.7215  -37.6467   23.6663 H   0  0  0  0  0  0
  -26.1201  -31.5256   20.6140 H   0  0  0  0  0  0
  -26.8539  -30.8095   22.0162 H   0  0  0  0  0  0
  -28.1170  -28.9143   21.2075 H   0  0  0  0  0  0
  -25.9303  -25.9177   18.9751 H   0  0  0  0  0  0
  -23.9756  -27.3112   18.9937 H   0  0  0  0  0  0
  -23.7746  -30.5855   19.4035 H   0  0  0  0  0  0
  -22.7672  -29.2418   19.8553 H   0  0  0  0  0  0
  -25.1300  -36.1942   25.0828 H   0  0  0  0  0  0
  -20.9986  -28.3282   24.1387 H   0  0  0  0  0  0
  -20.5669  -26.2314   23.3617 H   0  0  0  0  0  0
  -21.6649  -26.7432   22.1206 H   0  0  0  0  0  0
  -19.6915  -25.6288   21.1250 H   0  0  0  0  0  0
  -19.6688  -27.3188   20.6736 H   0  0  0  0  0  0
  -17.4201  -26.6668   21.4035 H   0  0  0  0  0  0
  -18.0339  -26.0070   22.9024 H   0  0  0  0  0  0
  -19.7941  -30.7274   24.2264 H   0  0  0  0  0  0
  -17.5018  -31.6267   24.5160 H   0  0  0  0  0  0
  -15.5354  -30.2985   23.7652 H   0  0  0  0  0  0
  -15.8677  -28.0813   22.7080 H   0  0  0  0  0  0
  -24.5885  -30.7080   25.7738 H   0  0  0  0  0  0
  -24.8893  -32.2880   26.4873 H   0  0  0  0  0  0
  -25.8009  -30.8870   27.0213 H   0  0  0  0  0  0
  -26.2949  -29.6741   24.1237 H   0  0  0  0  0  0
  -27.4031  -29.7279   25.4742 H   0  0  0  0  0  0
  -27.8825  -30.4290   23.9480 H   0  0  0  0  0  0
  -27.2685  -33.3637   26.2055 H   0  0  0  0  0  0
  -28.3859  -32.6872   25.0299 H   0  0  0  0  0  0
  -28.0741  -31.8460   26.5399 H   0  0  0  0  0  0
  -28.2610  -38.0086   24.7524 H   0  0  0  0  0  0
  -28.1071  -36.2618   24.6301 H   0  0  0  0  0  0
  -27.2298  -37.1449   25.8873 H   0  0  0  0  0  0
  -20.9410  -29.8758   21.6847 H   0  0  0  0  0  0
  -26.0184  -38.2858   24.1403 H   0  0  0  0  0  0
  -29.8518  -18.5420   17.0163 H   0  0  0  0  0  0
  -29.5410  -20.6691   18.2104 H   0  0  0  0  0  0
  -30.0557  -16.4083   18.1967 H   0  0  0  0  0  0
  -29.5937  -18.5065   21.9538 H   0  0  0  0  0  0
  -25.4380  -23.3393   22.5182 H   0  0  0  0  0  0
  -26.1351  -22.3437   21.2512 H   0  0  0  0  0  0
  -25.7735  -24.0360   20.9475 H   0  0  0  0  0  0
  -28.9704  -22.9147   23.6574 H   0  0  0  0  0  0
  -27.8378  -21.7103   23.0316 H   0  0  0  0  0  0
  -27.3029  -22.8818   24.1937 H   0  0  0  0  0  0
  -27.0203  -25.0878   23.8218 H   0  0  0  0  0  0
  -26.8950  -25.8178   22.2589 H   0  0  0  0  0  0
  -28.4846  -25.5561   22.9751 H   0  0  0  0  0  0
  -29.0775  -24.7923   19.1445 H   0  0  0  0  0  0
  -27.4052  -24.6139   19.3687 H   0  0  0  0  0  0
  -29.5820  -23.9467   21.4084 H   0  0  0  0  0  0
  -29.0623  -15.6702   21.3814 H   0  0  0  0  0  0
  -28.2369  -22.0858   19.5780 H   0  0  0  0  0  0
  1 25  1  0  0  0
  1 30  2  0  0  0
  1 84  1  0  0  0
  2  3  1  0  0  0
  2 25  1  0  0  0
  2 87  1  0  0  0
  2 88  1  0  0  0
  3  4  1  0  0  0
  3 89  1  0  0  0
  3 90  1  0  0  0
  4  5  1  0  0  0
  4 91  1  0  0  0
  4 92  1  0  0  0
  5  6  1  0  0  0
  5 26  1  0  0  0
  5 93  1  0  0  0
  6 25  1  0  0  0
  6 94  1  0  0  0
  6 95  1  0  0  0
  7  8  2  0  0  0
  7 26  1  0  0  0
  7 29  1  0  0  0
  8  9  1  0  0  0
  8 22  1  0  0  0
  9 10  1  0  0  0
  9 27  2  0  0  0
 10 11  2  0  0  0
 10 15  1  0  0  0
 11 12  1  0  0  0
 11 96  1  0  0  0
 12 13  2  0  0  0
 12 97  1  0  0  0
 13 14  1  0  0  0
 13 31  1  0  0  0
 14 15  2  0  0  0
 14 98  1  0  0  0
 15 99  1  0  0  0
 16 17  2  0  0  0
 16 21  1  0  0  0
 16 31  1  0  0  0
 17 18  1  0  0  0
 17100  1  0  0  0
 18 19  2  0  0  0
 18101  1  0  0  0
 19 20  1  0  0  0
 19 24  1  0  0  0
 20 21  2  0  0  0
 20102  1  0  0  0
 21 23  1  0  0  0
 22 28  1  0  0  0
 22 32  2  0  0  0
 26 27  1  0  0  0
 28103  1  0  0  0
 28104  1  0  0  0
 29105  1  0  0  0
 29106  1  0  0  0
 33 34  1  0  0  0
 33 66  1  0  0  0
 33 70  2  0  0  0
 34 36  1  0  0  0
 34 59  1  0  0  0
 34107  1  0  0  0
 35 44  2  0  0  0
 35 45  1  0  0  0
 35 68  1  0  0  0
 36 56  1  0  0  0
 36108  1  0  0  0
 37 39  1  0  0  0
 37 47  1  0  0  0
 37 66  1  0  0  0
 37109  1  0  0  0
 38 43  2  0  0  0
 38 46  1  0  0  0
 38 47  1  0  0  0
 39 64  1  0  0  0
 39 67  2  0  0  0
 40 52  1  0  0  0
 40 53  2  0  0  0
 40 58  1  0  0  0
 41110  1  0  0  0
 41111  1  0  0  0
 41112  1  0  0  0
 41 48  1  0  0  0
 42 43  1  0  0  0
 42 66  1  0  0  0
 42113  1  0  0  0
 42114  1  0  0  0
 43 44  1  0  0  0
 44115  1  0  0  0
 45 46  2  0  0  0
 45116  1  0  0  0
 46117  1  0  0  0
 47118  1  0  0  0
 47119  1  0  0  0
 48 56  1  0  0  0
 48 65  1  0  0  0
 48120  1  0  0  0
 49 50  1  0  0  0
 49 53  1  0  0  0
 49 64  1  0  0  0
 49121  1  0  0  0
 50 51  1  0  0  0
 50122  1  0  0  0
 50123  1  0  0  0
 51 52  1  0  0  0
 51124  1  0  0  0
 51125  1  0  0  0
 52126  1  0  0  0
 52127  1  0  0  0
 53 54  1  0  0  0
 54 55  2  0  0  0
 54128  1  0  0  0
 55 57  1  0  0  0
 55129  1  0  0  0
 56 69  2  0  0  0
 57 58  2  0  0  0
 57130  1  0  0  0
 58131  1  0  0  0
 59 60  1  0  0  0
 59 61  1  0  0  0
 59 62  1  0  0  0
 60132  1  0  0  0
 60133  1  0  0  0
 60134  1  0  0  0
 61135  1  0  0  0
 61136  1  0  0  0
 61137  1  0  0  0
 62138  1  0  0  0
 62139  1  0  0  0
 62140  1  0  0  0
 63 65  1  0  0  0
 63141  1  0  0  0
 63142  1  0  0  0
 63143  1  0  0  0
 64144  1  0  0  0
 65145  1  0  0  0
 68 81  1  0  0  0
 71 72  2  0  0  0
 71 73  1  0  0  0
 71146  1  0  0  0
 72 75  1  0  0  0
 72147  1  0  0  0
 73 76  2  0  0  0
 73148  1  0  0  0
 74 75  2  0  0  0
 74 76  1  0  0  0
 74149  1  0  0  0
 75 77  1  0  0  0
 76 84  1  0  0  0
 77 85  1  0  0  0
 77 86  2  0  0  0
 78150  1  0  0  0
 78151  1  0  0  0
 78152  1  0  0  0
 78 83  1  0  0  0
 79 83  1  0  0  0
 79153  1  0  0  0
 79154  1  0  0  0
 79155  1  0  0  0
 80 83  1  0  0  0
 80156  1  0  0  0
 80157  1  0  0  0
 80158  1  0  0  0
 81159  1  0  0  0
 81160  1  0  0  0
 81 82  1  0  0  0
 82 83  1  0  0  0
 82 85  1  0  0  0
 82161  1  0  0  0
 84162  1  0  0  0
 85163  1  0  0  0
M  ISO  4   1 100  68 101  81 101  84 100
M  END
> <chiral flag>
0

> <version>
0

> <s_m_source_file>
/data/baiqing/PycharmProjects/Reinvent-master-3.2/result/LINK_invent/BTK/process_docking_weight1_custom_product_contain_oxygen_bond_distance_aromatic_linkinvent_7_9_3/rearranged_h_0058.sdf

> <i_m_source_file_index>
8

> <r_mmod_Potential_Energy-OPLS-2005>
137.067886352539

> <r_mmod_Stretch_Energy-OPLS-2005>
141.030868530273

> <r_mmod_Bend_Energy-OPLS-2005>
182.407501220703

> <r_mmod_Torsional_Energy-OPLS-2005>
265.742095947266

> <r_mmod_Improper_Torsional_Energy-OPLS-2005>
4.91073656082153

> <r_mmod_Van_der_Waal_Energy-OPLS-2005>
141.593566894531

> <r_mmod_Electrostatic_Energy-OPLS-2005>
-459.204315185547

> <r_mmod_Solvation_Energy-OPLS-2005>
-226.274566650391

> <b_mmod_Minimization_Converged-OPLS-2005>
0

> <r_mmod_RMS_Derivative-OPLS-2005>
1.4337991476059

$$$$
8
                    3D
 Structure written by MMmdl.
153161  0  0  1  0            999 V2000
  -30.6163  -14.7722   20.4266 C   0  0  0  0  0  0
  -30.4260  -12.4674   19.4845 C   0  0  0  0  0  0
  -29.5156  -12.5078   18.2361 C   0  0  0  0  0  0
  -28.0366  -12.3438   18.6382 C   0  0  0  0  0  0
  -27.6373  -13.2425   19.8410 C   0  0  2  0  0  0
  -28.6803  -13.1973   20.9787 C   0  0  0  0  0  0
  -25.2490  -13.8213   20.5685 C   0  0  0  0  0  0
  -24.1796  -13.0437   20.9196 C   0  0  0  0  0  0
  -24.6397  -11.6922   20.8710 C   0  0  0  0  0  0
  -23.9073  -10.4298   21.0392 C   0  0  0  0  0  0
  -24.3628   -9.4217   21.9169 C   0  0  0  0  0  0
  -23.6317   -8.2242   22.0750 C   0  0  0  0  0  0
  -22.4302   -8.0283   21.3543 C   0  0  0  0  0  0
  -21.9919   -9.0246   20.4643 C   0  0  0  0  0  0
  -22.7238  -10.2135   20.3054 C   0  0  0  0  0  0
  -21.6856   -6.0732   22.5280 C   0  0  0  0  0  0
  -21.4005   -6.5631   23.8211 C   0  0  0  0  0  0
  -21.3663   -5.6781   24.9165 C   0  0  0  0  0  0
  -21.6054   -4.3048   24.7214 C   0  0  0  0  0  0
  -21.8819   -3.8141   23.4329 C   0  0  0  0  0  0
  -21.9186   -4.6958   22.3389 C   0  0  0  0  0  0
  -22.7816  -13.5209   21.1854 C   0  0  0  0  0  0
  -22.1661   -4.2140   21.0970 F   0  0  0  0  0  0
  -21.5633   -3.4540   25.7723 F   0  0  0  0  0  0
  -29.9781  -13.5476   20.3952 N   0  0  0  0  0  0
  -26.2913  -12.9436   20.3211 N   0  0  0  0  0  0
  -25.9329  -11.6562   20.5699 N   0  0  0  0  0  0
  -22.0454  -12.8231   22.0422 N   0  0  0  0  0  0
  -25.4166  -15.1944   20.4150 N   0  0  0  0  0  0
  -31.8221  -14.8055   20.1683 O   0  0  0  0  0  0
  -21.6656   -6.8883   21.4254 O   0  0  0  0  0  0
  -22.3489  -14.5501   20.6673 O   0  0  0  0  0  0
  -24.6358  -31.8553   23.1956 C   0  0  0  0  0  0
  -25.9164  -32.4753   23.8336 C   0  0  1  0  0  0
  -27.2196  -27.2305   20.1410 C   0  0  0  0  0  0
  -25.5938  -33.8553   24.2260 N   0  0  0  0  0  0
  -23.4349  -30.4786   21.5384 C   0  0  2  0  0  0
  -24.8807  -28.9136   20.1166 C   0  0  0  0  0  0
  -22.7531  -29.4633   22.4878 C   0  0  0  0  0  0
  -18.0309  -28.1424   22.8502 C   0  0  0  0  0  0
  -24.1479  -36.7287   23.2632 C   0  0  0  0  0  0
  -25.9825  -30.7565   21.3794 C   0  0  0  0  0  0
  -26.0539  -29.3732   20.7271 C   0  0  0  0  0  0
  -27.2249  -28.5456   20.7254 C   0  0  0  0  0  0
  -26.0222  -26.8453   19.4986 C   0  0  0  0  0  0
  -24.8703  -27.6580   19.4918 C   0  0  0  0  0  0
  -23.6600  -29.8120   20.1562 C   0  0  0  0  0  0
  -25.4100  -36.3076   24.0332 C   0  0  1  0  0  0
  -20.5909  -28.3763   23.1249 C   0  0  2  0  0  0
  -20.6816  -26.9481   22.5406 C   0  0  0  0  0  0
  -19.5781  -26.6417   21.5234 C   0  0  0  0  0  0
  -18.1957  -26.7970   22.1643 C   0  0  0  0  0  0
  -19.1558  -28.8905   23.2883 C   0  0  0  0  0  0
  -18.9472  -30.1486   23.8937 C   0  0  0  0  0  0
  -17.6472  -30.6628   24.0570 C   0  0  0  0  0  0
  -25.9057  -34.9442   23.5099 C   0  0  0  0  0  0
  -16.5367  -29.9131   23.6315 C   0  0  0  0  0  0
  -16.7292  -28.6534   23.0367 C   0  0  0  0  0  0
  -26.4500  -31.6570   25.0729 C   0  0  0  0  0  0
  -25.3693  -31.3740   26.1428 C   0  0  0  0  0  0
  -27.0341  -30.2983   24.6214 C   0  0  0  0  0  0
  -27.6075  -32.4294   25.7509 C   0  0  0  0  0  0
  -27.5585  -37.1799   24.8461 C   0  0  0  0  0  0
  -21.4232  -29.3098   22.3616 N   0  0  0  0  0  0
  -26.4279  -37.3778   23.9423 N   0  0  0  0  0  0
  -24.7039  -31.0493   22.0943 N   0  0  0  0  0  0
  -23.4204  -28.8178   23.3003 O   0  0  0  0  0  0
  -28.3210  -26.3347   20.1718 O   0  0  0  0  0  0
  -26.5636  -34.8925   22.4675 O   0  0  0  0  0  0
  -23.5500  -32.1391   23.7222 O   0  0  0  0  0  0
  -31.5774  -18.8934   18.8276 C   0  0  0  0  0  0
  -30.8399  -20.0232   19.2232 C   0  0  0  0  0  0
  -31.2482  -17.6020   19.2755 C   0  0  0  0  0  0
  -29.4065  -18.5624   20.5371 C   0  0  0  0  0  0
  -29.7232  -19.9229   20.0828 C   0  0  0  0  0  0
  -30.1673  -17.3631   20.1588 C   0  0  0  0  0  0
  -29.3665  -23.8721   19.9646 C   0  0  0  0  0  0
  -30.5077  -24.7140   19.4282 C   0  0  0  0  0  0
  -28.9368  -21.2915   20.4315 C   0  0  0  0  0  0
  -28.1229  -24.8294   20.3033 C   0  0  0  0  0  0
  -29.6453  -22.5720   20.0170 N   0  0  0  0  0  0
  -29.8645  -15.9463   20.5635 N   0  0  0  0  0  0
  -31.4712  -12.5752   19.1914 H   0  0  0  0  0  0
  -30.3584  -11.4986   19.9798 H   0  0  0  0  0  0
  -29.8064  -11.7250   17.5327 H   0  0  0  0  0  0
  -29.6468  -13.4549   17.7085 H   0  0  0  0  0  0
  -27.8783  -11.2956   18.8899 H   0  0  0  0  0  0
  -27.3904  -12.5492   17.7822 H   0  0  0  0  0  0
  -27.6246  -14.2628   19.4569 H   0  0  0  0  0  0
  -28.7157  -12.2053   21.4314 H   0  0  0  0  0  0
  -28.4154  -13.8912   21.7771 H   0  0  0  0  0  0
  -25.2770   -9.5698   22.4738 H   0  0  0  0  0  0
  -24.0020   -7.4635   22.7473 H   0  0  0  0  0  0
  -21.0839   -8.8771   19.8962 H   0  0  0  0  0  0
  -22.3690  -10.9672   19.6167 H   0  0  0  0  0  0
  -21.2017   -7.6137   23.9712 H   0  0  0  0  0  0
  -21.1489   -6.0510   25.9071 H   0  0  0  0  0  0
  -22.0606   -2.7606   23.2829 H   0  0  0  0  0  0
  -22.4059  -11.9915   22.4865 H   0  0  0  0  0  0
  -21.1058  -13.1274   22.2567 H   0  0  0  0  0  0
  -24.6546  -15.8509   20.5455 H   0  0  0  0  0  0
  -26.2671  -15.6383   20.0922 H   0  0  0  0  0  0
  -26.7231  -32.5407   23.1087 H   0  0  0  0  0  0
  -25.0062  -33.9669   25.0388 H   0  0  0  0  0  0
  -22.7357  -31.3030   21.3868 H   0  0  0  0  0  0
  -23.3762  -35.9602   23.3264 H   0  0  0  0  0  0
  -24.3579  -36.8948   22.2060 H   0  0  0  0  0  0
  -23.7212  -37.6468   23.6670 H   0  0  0  0  0  0
  -26.1142  -31.5094   20.6009 H   0  0  0  0  0  0
  -26.8654  -30.8160   22.0058 H   0  0  0  0  0  0
  -28.1211  -28.8935   21.2168 H   0  0  0  0  0  0
  -25.9491  -25.8980   18.9889 H   0  0  0  0  0  0
  -23.9724  -27.3014   19.0048 H   0  0  0  0  0  0
  -23.8084  -30.5892   19.4059 H   0  0  0  0  0  0
  -22.7760  -29.2589   19.8356 H   0  0  0  0  0  0
  -25.1263  -36.1929   25.0826 H   0  0  0  0  0  0
  -21.0014  -28.3371   24.1361 H   0  0  0  0  0  0
  -20.5763  -26.2386   23.3623 H   0  0  0  0  0  0
  -21.6674  -26.7545   22.1164 H   0  0  0  0  0  0
  -19.6950  -25.6319   21.1290 H   0  0  0  0  0  0
  -19.6700  -27.3203   20.6739 H   0  0  0  0  0  0
  -17.4226  -26.6728   21.4041 H   0  0  0  0  0  0
  -18.0350  -26.0113   22.9040 H   0  0  0  0  0  0
  -19.7935  -30.7284   24.2354 H   0  0  0  0  0  0
  -17.5025  -31.6305   24.5174 H   0  0  0  0  0  0
  -15.5368  -30.3060   23.7596 H   0  0  0  0  0  0
  -15.8694  -28.0847   22.7094 H   0  0  0  0  0  0
  -24.5854  -30.7112   25.7726 H   0  0  0  0  0  0
  -24.8889  -32.2921   26.4827 H   0  0  0  0  0  0
  -25.7959  -30.8909   27.0226 H   0  0  0  0  0  0
  -26.2921  -29.6754   24.1196 H   0  0  0  0  0  0
  -27.3976  -29.7212   25.4728 H   0  0  0  0  0  0
  -27.8821  -30.4260   23.9481 H   0  0  0  0  0  0
  -27.2698  -33.3596   26.2089 H   0  0  0  0  0  0
  -28.3885  -32.6853   25.0334 H   0  0  0  0  0  0
  -28.0741  -31.8414   26.5425 H   0  0  0  0  0  0
  -28.2564  -38.0130   24.7536 H   0  0  0  0  0  0
  -28.1113  -36.2666   24.6221 H   0  0  0  0  0  0
  -27.2318  -37.1374   25.8865 H   0  0  0  0  0  0
  -20.9435  -29.8783   21.6779 H   0  0  0  0  0  0
  -26.0160  -38.2845   24.1450 H   0  0  0  0  0  0
  -32.4167  -19.0165   18.1560 H   0  0  0  0  0  0
  -31.1524  -20.9822   18.8346 H   0  0  0  0  0  0
  -31.8546  -16.7952   18.8949 H   0  0  0  0  0  0
  -28.5533  -18.4430   21.1891 H   0  0  0  0  0  0
  -30.8779  -25.3919   20.1974 H   0  0  0  0  0  0
  -30.1713  -25.3022   18.5741 H   0  0  0  0  0  0
  -31.3418  -24.0927   19.0968 H   0  0  0  0  0  0
  -28.7693  -21.3060   21.5093 H   0  0  0  0  0  0
  -27.9479  -21.2482   19.9733 H   0  0  0  0  0  0
  -27.8219  -24.6289   21.3318 H   0  0  0  0  0  0
  -27.3009  -24.4813   19.6829 H   0  0  0  0  0  0
  -28.9226  -15.7881   20.8890 H   0  0  0  0  0  0
  1 25  1  0  0  0
  1 30  2  0  0  0
  1 82  1  0  0  0
  2  3  1  0  0  0
  2 25  1  0  0  0
  2 83  1  0  0  0
  2 84  1  0  0  0
  3  4  1  0  0  0
  3 85  1  0  0  0
  3 86  1  0  0  0
  4  5  1  0  0  0
  4 87  1  0  0  0
  4 88  1  0  0  0
  5  6  1  0  0  0
  5 26  1  0  0  0
  5 89  1  0  0  0
  6 25  1  0  0  0
  6 90  1  0  0  0
  6 91  1  0  0  0
  7  8  2  0  0  0
  7 26  1  0  0  0
  7 29  1  0  0  0
  8  9  1  0  0  0
  8 22  1  0  0  0
  9 10  1  0  0  0
  9 27  2  0  0  0
 10 11  2  0  0  0
 10 15  1  0  0  0
 11 12  1  0  0  0
 11 92  1  0  0  0
 12 13  2  0  0  0
 12 93  1  0  0  0
 13 14  1  0  0  0
 13 31  1  0  0  0
 14 15  2  0  0  0
 14 94  1  0  0  0
 15 95  1  0  0  0
 16 17  2  0  0  0
 16 21  1  0  0  0
 16 31  1  0  0  0
 17 18  1  0  0  0
 17 96  1  0  0  0
 18 19  2  0  0  0
 18 97  1  0  0  0
 19 20  1  0  0  0
 19 24  1  0  0  0
 20 21  2  0  0  0
 20 98  1  0  0  0
 21 23  1  0  0  0
 22 28  1  0  0  0
 22 32  2  0  0  0
 26 27  1  0  0  0
 28 99  1  0  0  0
 28100  1  0  0  0
 29101  1  0  0  0
 29102  1  0  0  0
 33 34  1  0  0  0
 33 66  1  0  0  0
 33 70  2  0  0  0
 34 36  1  0  0  0
 34 59  1  0  0  0
 34103  1  0  0  0
 35 44  2  0  0  0
 35 45  1  0  0  0
 35 68  1  0  0  0
 36 56  1  0  0  0
 36104  1  0  0  0
 37 39  1  0  0  0
 37 47  1  0  0  0
 37 66  1  0  0  0
 37105  1  0  0  0
 38 43  2  0  0  0
 38 46  1  0  0  0
 38 47  1  0  0  0
 39 64  1  0  0  0
 39 67  2  0  0  0
 40 52  1  0  0  0
 40 53  2  0  0  0
 40 58  1  0  0  0
 41106  1  0  0  0
 41107  1  0  0  0
 41108  1  0  0  0
 41 48  1  0  0  0
 42 43  1  0  0  0
 42 66  1  0  0  0
 42109  1  0  0  0
 42110  1  0  0  0
 43 44  1  0  0  0
 44111  1  0  0  0
 45 46  2  0  0  0
 45112  1  0  0  0
 46113  1  0  0  0
 47114  1  0  0  0
 47115  1  0  0  0
 48 56  1  0  0  0
 48 65  1  0  0  0
 48116  1  0  0  0
 49 50  1  0  0  0
 49 53  1  0  0  0
 49 64  1  0  0  0
 49117  1  0  0  0
 50 51  1  0  0  0
 50118  1  0  0  0
 50119  1  0  0  0
 51 52  1  0  0  0
 51120  1  0  0  0
 51121  1  0  0  0
 52122  1  0  0  0
 52123  1  0  0  0
 53 54  1  0  0  0
 54 55  2  0  0  0
 54124  1  0  0  0
 55 57  1  0  0  0
 55125  1  0  0  0
 56 69  2  0  0  0
 57 58  2  0  0  0
 57126  1  0  0  0
 58127  1  0  0  0
 59 60  1  0  0  0
 59 61  1  0  0  0
 59 62  1  0  0  0
 60128  1  0  0  0
 60129  1  0  0  0
 60130  1  0  0  0
 61131  1  0  0  0
 61132  1  0  0  0
 61133  1  0  0  0
 62134  1  0  0  0
 62135  1  0  0  0
 62136  1  0  0  0
 63 65  1  0  0  0
 63137  1  0  0  0
 63138  1  0  0  0
 63139  1  0  0  0
 64140  1  0  0  0
 65141  1  0  0  0
 68 80  1  0  0  0
 71 72  2  0  0  0
 71 73  1  0  0  0
 71142  1  0  0  0
 72 75  1  0  0  0
 72143  1  0  0  0
 73 76  2  0  0  0
 73144  1  0  0  0
 74 75  2  0  0  0
 74 76  1  0  0  0
 74145  1  0  0  0
 75 79  1  0  0  0
 76 82  1  0  0  0
 77 78  1  0  0  0
 77 80  1  0  0  0
 77 81  2  0  0  0
 78146  1  0  0  0
 78147  1  0  0  0
 78148  1  0  0  0
 79 81  1  0  0  0
 79149  1  0  0  0
 79150  1  0  0  0
 80151  1  0  0  0
 80152  1  0  0  0
 82153  1  0  0  0
M  ISO  4   1 100  68 101  80 101  82 100
M  END
> <chiral flag>
0

> <version>
0

> <s_m_source_file>
/data/baiqing/PycharmProjects/Reinvent-master-3.2/result/LINK_invent/BTK/process_docking_weight1_custom_product_contain_oxygen_bond_distance_aromatic_linkinvent_7_9_3/rearranged_h_0058.sdf

> <i_m_source_file_index>
9

> <r_mmod_Potential_Energy-OPLS-2005>
252.513214111328

> <r_mmod_Stretch_Energy-OPLS-2005>
152.736846923828

> <r_mmod_Bend_Energy-OPLS-2005>
221.11946105957

> <r_mmod_Torsional_Energy-OPLS-2005>
220.854751586914

> <r_mmod_Improper_Torsional_Energy-OPLS-2005>
4.09343290328979

> <r_mmod_Van_der_Waal_Energy-OPLS-2005>
146.782348632812

> <r_mmod_Electrostatic_Energy-OPLS-2005>
-380.454986572266

> <r_mmod_Solvation_Energy-OPLS-2005>
-212.214126586914

> <b_mmod_Minimization_Converged-OPLS-2005>
0

> <r_mmod_RMS_Derivative-OPLS-2005>
2.85245060920715

$$$$
9
                    3D
 Structure written by MMmdl.
172181  0  0  1  0            999 V2000
  -30.7056  -14.4323   20.6191 C   0  0  0  0  0  0
  -30.4266  -12.2965   19.4113 C   0  0  0  0  0  0
  -29.4939  -12.5173   18.2023 C   0  0  0  0  0  0
  -28.0142  -12.3781   18.6126 C   0  0  0  0  0  0
  -27.6666  -13.2009   19.8812 C   0  0  2  0  0  0
  -28.7042  -12.9420   20.9963 C   0  0  0  0  0  0
  -25.2612  -13.8152   20.5675 C   0  0  0  0  0  0
  -24.1850  -13.0440   20.9164 C   0  0  0  0  0  0
  -24.6392  -11.6903   20.8725 C   0  0  0  0  0  0
  -23.9053  -10.4295   21.0406 C   0  0  0  0  0  0
  -24.3609   -9.4212   21.9184 C   0  0  0  0  0  0
  -23.6291   -8.2245   22.0750 C   0  0  0  0  0  0
  -22.4272   -8.0282   21.3544 C   0  0  0  0  0  0
  -21.9906   -9.0252   20.4642 C   0  0  0  0  0  0
  -22.7229  -10.2136   20.3054 C   0  0  0  0  0  0
  -21.6855   -6.0740   22.5282 C   0  0  0  0  0  0
  -21.4014   -6.5643   23.8214 C   0  0  0  0  0  0
  -21.3658   -5.6794   24.9175 C   0  0  0  0  0  0
  -21.6044   -4.3058   24.7226 C   0  0  0  0  0  0
  -21.8819   -3.8151   23.4346 C   0  0  0  0  0  0
  -21.9192   -4.6967   22.3405 C   0  0  0  0  0  0
  -22.7876  -13.5247   21.1840 C   0  0  0  0  0  0
  -22.1663   -4.2154   21.0982 F   0  0  0  0  0  0
  -21.5626   -3.4540   25.7738 F   0  0  0  0  0  0
  -30.0440  -13.2539   20.4603 N   0  0  0  0  0  0
  -26.3047  -12.9309   20.3381 N   0  0  0  0  0  0
  -25.9316  -11.6474   20.5755 N   0  0  0  0  0  0
  -22.0513  -12.8237   22.0393 N   0  0  0  0  0  0
  -25.4363  -15.1866   20.4089 N   0  0  0  0  0  0
  -31.7928  -14.6659   20.0813 O   0  0  0  0  0  0
  -21.6639   -6.8880   21.4243 O   0  0  0  0  0  0
  -22.3562  -14.5558   20.6698 O   0  0  0  0  0  0
  -24.6115  -31.8694   23.2104 C   0  0  0  0  0  0
  -25.9016  -32.4835   23.8389 C   0  0  1  0  0  0
  -27.2405  -27.4638   20.0938 C   0  0  0  0  0  0
  -25.5883  -33.8630   24.2326 N   0  0  0  0  0  0
  -23.3988  -30.4914   21.5499 C   0  0  2  0  0  0
  -24.8479  -28.9550   20.1194 C   0  0  0  0  0  0
  -22.7381  -29.4667   22.4998 C   0  0  0  0  0  0
  -18.0271  -28.1378   22.8486 C   0  0  0  0  0  0
  -24.1490  -36.7313   23.2638 C   0  0  0  0  0  0
  -25.9237  -30.8432   21.3593 C   0  0  0  0  0  0
  -26.0048  -29.4770   20.7131 C   0  0  0  0  0  0
  -27.2065  -28.7371   20.6992 C   0  0  0  0  0  0
  -26.0721  -26.9428   19.5036 C   0  0  0  0  0  0
  -24.8744  -27.6844   19.5148 C   0  0  0  0  0  0
  -23.6073  -29.8182   20.1666 C   0  0  0  0  0  0
  -25.4107  -36.3109   24.0339 C   0  0  1  0  0  0
  -20.5856  -28.3650   23.1331 C   0  0  2  0  0  0
  -20.6766  -26.9390   22.5424 C   0  0  0  0  0  0
  -19.5752  -26.6382   21.5213 C   0  0  0  0  0  0
  -18.1923  -26.7927   22.1616 C   0  0  0  0  0  0
  -19.1519  -28.8827   23.2912 C   0  0  0  0  0  0
  -18.9453  -30.1434   23.8918 C   0  0  0  0  0  0
  -17.6458  -30.6584   24.0564 C   0  0  0  0  0  0
  -25.9030  -34.9481   23.5131 C   0  0  0  0  0  0
  -16.5346  -29.9088   23.6333 C   0  0  0  0  0  0
  -16.7260  -28.6511   23.0340 C   0  0  0  0  0  0
  -26.4457  -31.6604   25.0707 C   0  0  0  0  0  0
  -25.3738  -31.3713   26.1466 C   0  0  0  0  0  0
  -27.0281  -30.3052   24.6053 C   0  0  0  0  0  0
  -27.6034  -32.4315   25.7474 C   0  0  0  0  0  0
  -27.5579  -37.1803   24.8460 C   0  0  0  0  0  0
  -21.4113  -29.3027   22.3735 N   0  0  0  0  0  0
  -26.4289  -37.3790   23.9409 N   0  0  0  0  0  0
  -24.6624  -31.0816   22.0992 N   0  0  0  0  0  0
  -23.4164  -28.8217   23.3034 O   0  0  0  0  0  0
  -28.4079  -26.7461   20.0381 O   0  0  0  0  0  0
  -26.5588  -34.8932   22.4689 O   0  0  0  0  0  0
  -23.5312  -32.1433   23.7511 O   0  0  0  0  0  0
  -28.5735  -19.4037   24.7281 C   0  0  0  0  0  0
  -27.7310  -20.0184   25.6713 C   0  0  0  0  0  0
  -29.2555  -17.4133   22.3068 C   0  0  0  0  0  0
  -30.9791  -17.5368   20.6013 C   0  0  0  0  0  0
  -26.2512  -20.7208   23.8692 C   0  0  0  0  0  0
  -28.2746  -19.4471   23.3498 C   0  0  0  0  0  0
  -29.2062  -18.8212   22.3916 C   0  0  0  0  0  0
  -30.9566  -18.9483   20.6748 C   0  0  0  0  0  0
  -30.1280  -16.7534   21.4173 C   0  0  0  0  0  0
  -30.0546  -19.5962   21.5593 C   0  0  0  0  0  0
  -26.5681  -20.6806   25.2402 C   0  0  0  0  0  0
  -27.0985  -20.1065   22.9118 C   0  0  0  0  0  0
  -29.5343  -21.9058   20.8479 C   0  0  0  0  0  0
  -31.9256  -19.7400   19.8107 C   0  0  0  0  0  0
  -25.7832  -20.9327   21.0731 C   0  0  0  0  0  0
  -29.3179  -23.3177   21.4104 C   0  0  0  0  0  0
  -28.9173  -24.3857   20.3679 C   0  0  0  0  0  0
  -28.5305  -25.7240   21.0245 C   0  0  0  0  0  0
  -30.0393  -21.0111   21.7128 N   0  0  0  0  0  0
  -30.0590  -15.3272   21.3880 N   0  0  0  0  0  0
  -29.2638  -21.6447   19.6731 O   0  0  0  0  0  0
  -25.7426  -21.2852   26.1433 O   0  0  0  0  0  0
  -26.8411  -20.1144   21.5557 O   0  0  0  0  0  0
  -31.4698  -12.4046   19.1094 H   0  0  0  0  0  0
  -30.3324  -11.2760   19.7864 H   0  0  0  0  0  0
  -29.7291  -11.8051   17.4103 H   0  0  0  0  0  0
  -29.6647  -13.5094   17.7820 H   0  0  0  0  0  0
  -27.8174  -11.3207   18.7924 H   0  0  0  0  0  0
  -27.3654  -12.6703   17.7860 H   0  0  0  0  0  0
  -27.7231  -14.2547   19.6070 H   0  0  0  0  0  0
  -28.6746  -11.8945   21.2998 H   0  0  0  0  0  0
  -28.4508  -13.5013   21.8975 H   0  0  0  0  0  0
  -25.2754   -9.5695   22.4755 H   0  0  0  0  0  0
  -24.0004   -7.4640   22.7468 H   0  0  0  0  0  0
  -21.0838   -8.8767   19.8949 H   0  0  0  0  0  0
  -22.3685  -10.9673   19.6160 H   0  0  0  0  0  0
  -21.2007   -7.6151   23.9720 H   0  0  0  0  0  0
  -21.1479   -6.0524   25.9078 H   0  0  0  0  0  0
  -22.0598   -2.7615   23.2845 H   0  0  0  0  0  0
  -22.4116  -11.9887   22.4773 H   0  0  0  0  0  0
  -21.1132  -13.1267   22.2598 H   0  0  0  0  0  0
  -24.6754  -15.8475   20.5187 H   0  0  0  0  0  0
  -26.2977  -15.6226   20.1042 H   0  0  0  0  0  0
  -26.7085  -32.5560   23.1157 H   0  0  0  0  0  0
  -25.0041  -33.9803   25.0474 H   0  0  0  0  0  0
  -22.6874  -31.3079   21.4080 H   0  0  0  0  0  0
  -23.3751  -35.9649   23.3305 H   0  0  0  0  0  0
  -24.3591  -36.8922   22.2052 H   0  0  0  0  0  0
  -23.7252  -37.6526   23.6650 H   0  0  0  0  0  0
  -26.0278  -31.6068   20.5872 H   0  0  0  0  0  0
  -26.8140  -30.9026   21.9731 H   0  0  0  0  0  0
  -28.1044  -29.1399   21.1469 H   0  0  0  0  0  0
  -26.0957  -25.9703   19.0320 H   0  0  0  0  0  0
  -23.9849  -27.2757   19.0564 H   0  0  0  0  0  0
  -23.7117  -30.5905   19.4034 H   0  0  0  0  0  0
  -22.7337  -29.2329   19.8735 H   0  0  0  0  0  0
  -25.1288  -36.1969   25.0833 H   0  0  0  0  0  0
  -20.9950  -28.3211   24.1451 H   0  0  0  0  0  0
  -20.5675  -26.2245   23.3601 H   0  0  0  0  0  0
  -21.6634  -26.7445   22.1209 H   0  0  0  0  0  0
  -19.6920  -25.6299   21.1228 H   0  0  0  0  0  0
  -19.6709  -27.3205   20.6757 H   0  0  0  0  0  0
  -17.4199  -26.6671   21.4016 H   0  0  0  0  0  0
  -18.0323  -26.0068   22.9013 H   0  0  0  0  0  0
  -19.7934  -30.7238   24.2290 H   0  0  0  0  0  0
  -17.5027  -31.6274   24.5146 H   0  0  0  0  0  0
  -15.5352  -30.2999   23.7659 H   0  0  0  0  0  0
  -15.8658  -28.0850   22.7032 H   0  0  0  0  0  0
  -24.5900  -30.7069   25.7805 H   0  0  0  0  0  0
  -24.8944  -32.2879   26.4916 H   0  0  0  0  0  0
  -25.8098  -30.8880   27.0217 H   0  0  0  0  0  0
  -26.2812  -29.6823   24.1118 H   0  0  0  0  0  0
  -27.4084  -29.7273   25.4486 H   0  0  0  0  0  0
  -27.8629  -30.4382   23.9167 H   0  0  0  0  0  0
  -27.2645  -33.3595   26.2090 H   0  0  0  0  0  0
  -28.3826  -32.6907   25.0294 H   0  0  0  0  0  0
  -28.0720  -31.8420   26.5363 H   0  0  0  0  0  0
  -28.2587  -38.0108   24.7507 H   0  0  0  0  0  0
  -28.1085  -36.2637   24.6278 H   0  0  0  0  0  0
  -27.2301  -37.1438   25.8865 H   0  0  0  0  0  0
  -20.9254  -29.8727   21.6952 H   0  0  0  0  0  0
  -26.0182  -38.2869   24.1424 H   0  0  0  0  0  0
  -29.4687  -18.9009   25.0662 H   0  0  0  0  0  0
  -27.9909  -19.9767   26.7200 H   0  0  0  0  0  0
  -28.5964  -16.8367   22.9408 H   0  0  0  0  0  0
  -31.6632  -17.0725   19.9074 H   0  0  0  0  0  0
  -25.3468  -21.2310   23.5731 H   0  0  0  0  0  0
  -32.7478  -19.1153   19.4606 H   0  0  0  0  0  0
  -32.3609  -20.5710   20.3665 H   0  0  0  0  0  0
  -31.4132  -20.1408   18.9363 H   0  0  0  0  0  0
  -25.7684  -20.8963   19.9835 H   0  0  0  0  0  0
  -25.9200  -21.9758   21.3635 H   0  0  0  0  0  0
  -24.8124  -20.5831   21.4268 H   0  0  0  0  0  0
  -30.2273  -23.6348   21.9228 H   0  0  0  0  0  0
  -28.5412  -23.2484   22.1735 H   0  0  0  0  0  0
  -28.0822  -24.0314   19.7618 H   0  0  0  0  0  0
  -29.7507  -24.5439   19.6822 H   0  0  0  0  0  0
  -29.3069  -26.0336   21.7247 H   0  0  0  0  0  0
  -27.6179  -25.5992   21.6117 H   0  0  0  0  0  0
  -30.1672  -21.3516   22.6557 H   0  0  0  0  0  0
  -29.2717  -14.9296   21.8770 H   0  0  0  0  0  0
  -26.0534  -21.2184   27.0414 H   0  0  0  0  0  0
  1 25  1  0  0  0
  1 30  2  0  0  0
  1 90  1  0  0  0
  2  3  1  0  0  0
  2 25  1  0  0  0
  2 94  1  0  0  0
  2 95  1  0  0  0
  3  4  1  0  0  0
  3 96  1  0  0  0
  3 97  1  0  0  0
  4  5  1  0  0  0
  4 98  1  0  0  0
  4 99  1  0  0  0
  5  6  1  0  0  0
  5 26  1  0  0  0
  5100  1  0  0  0
  6 25  1  0  0  0
  6101  1  0  0  0
  6102  1  0  0  0
  7  8  2  0  0  0
  7 26  1  0  0  0
  7 29  1  0  0  0
  8  9  1  0  0  0
  8 22  1  0  0  0
  9 10  1  0  0  0
  9 27  2  0  0  0
 10 11  2  0  0  0
 10 15  1  0  0  0
 11 12  1  0  0  0
 11103  1  0  0  0
 12 13  2  0  0  0
 12104  1  0  0  0
 13 14  1  0  0  0
 13 31  1  0  0  0
 14 15  2  0  0  0
 14105  1  0  0  0
 15106  1  0  0  0
 16 17  2  0  0  0
 16 21  1  0  0  0
 16 31  1  0  0  0
 17 18  1  0  0  0
 17107  1  0  0  0
 18 19  2  0  0  0
 18108  1  0  0  0
 19 20  1  0  0  0
 19 24  1  0  0  0
 20 21  2  0  0  0
 20109  1  0  0  0
 21 23  1  0  0  0
 22 28  1  0  0  0
 22 32  2  0  0  0
 26 27  1  0  0  0
 28110  1  0  0  0
 28111  1  0  0  0
 29112  1  0  0  0
 29113  1  0  0  0
 33 34  1  0  0  0
 33 66  1  0  0  0
 33 70  2  0  0  0
 34 36  1  0  0  0
 34 59  1  0  0  0
 34114  1  0  0  0
 35 44  2  0  0  0
 35 45  1  0  0  0
 35 68  1  0  0  0
 36 56  1  0  0  0
 36115  1  0  0  0
 37 39  1  0  0  0
 37 47  1  0  0  0
 37 66  1  0  0  0
 37116  1  0  0  0
 38 43  2  0  0  0
 38 46  1  0  0  0
 38 47  1  0  0  0
 39 64  1  0  0  0
 39 67  2  0  0  0
 40 52  1  0  0  0
 40 53  2  0  0  0
 40 58  1  0  0  0
 41117  1  0  0  0
 41118  1  0  0  0
 41119  1  0  0  0
 41 48  1  0  0  0
 42 43  1  0  0  0
 42 66  1  0  0  0
 42120  1  0  0  0
 42121  1  0  0  0
 43 44  1  0  0  0
 44122  1  0  0  0
 45 46  2  0  0  0
 45123  1  0  0  0
 46124  1  0  0  0
 47125  1  0  0  0
 47126  1  0  0  0
 48 56  1  0  0  0
 48 65  1  0  0  0
 48127  1  0  0  0
 49 50  1  0  0  0
 49 53  1  0  0  0
 49 64  1  0  0  0
 49128  1  0  0  0
 50 51  1  0  0  0
 50129  1  0  0  0
 50130  1  0  0  0
 51 52  1  0  0  0
 51131  1  0  0  0
 51132  1  0  0  0
 52133  1  0  0  0
 52134  1  0  0  0
 53 54  1  0  0  0
 54 55  2  0  0  0
 54135  1  0  0  0
 55 57  1  0  0  0
 55136  1  0  0  0
 56 69  2  0  0  0
 57 58  2  0  0  0
 57137  1  0  0  0
 58138  1  0  0  0
 59 60  1  0  0  0
 59 61  1  0  0  0
 59 62  1  0  0  0
 60139  1  0  0  0
 60140  1  0  0  0
 60141  1  0  0  0
 61142  1  0  0  0
 61143  1  0  0  0
 61144  1  0  0  0
 62145  1  0  0  0
 62146  1  0  0  0
 62147  1  0  0  0
 63 65  1  0  0  0
 63148  1  0  0  0
 63149  1  0  0  0
 63150  1  0  0  0
 64151  1  0  0  0
 65152  1  0  0  0
 68 88  1  0  0  0
 71 72  2  0  0  0
 71 76  1  0  0  0
 71153  1  0  0  0
 72 81  1  0  0  0
 72154  1  0  0  0
 73 77  2  0  0  0
 73 79  1  0  0  0
 73155  1  0  0  0
 74 78  1  0  0  0
 74 79  2  0  0  0
 74156  1  0  0  0
 75 81  2  0  0  0
 75 82  1  0  0  0
 75157  1  0  0  0
 76 77  1  0  0  0
 76 82  2  0  0  0
 77 80  1  0  0  0
 78 80  2  0  0  0
 78 84  1  0  0  0
 79 90  1  0  0  0
 80 89  1  0  0  0
 81 92  1  0  0  0
 82 93  1  0  0  0
 83 86  1  0  0  0
 83 89  1  0  0  0
 83 91  2  0  0  0
 84158  1  0  0  0
 84159  1  0  0  0
 84160  1  0  0  0
 85 93  1  0  0  0
 85161  1  0  0  0
 85162  1  0  0  0
 85163  1  0  0  0
 86 87  1  0  0  0
 86164  1  0  0  0
 86165  1  0  0  0
 87 88  1  0  0  0
 87166  1  0  0  0
 87167  1  0  0  0
 88168  1  0  0  0
 88169  1  0  0  0
 89170  1  0  0  0
 90171  1  0  0  0
 92172  1  0  0  0
M  ISO  4   1 100  68 101  88 101  90 100
M  END
> <chiral flag>
0

> <version>
0

> <s_m_source_file>
/data/baiqing/PycharmProjects/Reinvent-master-3.2/result/LINK_invent/BTK/process_docking_weight1_custom_product_contain_oxygen_bond_distance_aromatic_linkinvent_7_9_3/rearranged_h_0058.sdf

> <i_m_source_file_index>
10

> <r_mmod_Potential_Energy-OPLS-2005>
-109.332695007324

> <r_mmod_Stretch_Energy-OPLS-2005>
37.3020057678223

> <r_mmod_Bend_Energy-OPLS-2005>
107.505081176758

> <r_mmod_Torsional_Energy-OPLS-2005>
283.728851318359

> <r_mmod_Improper_Torsional_Energy-OPLS-2005>
3.68643140792847

> <r_mmod_Van_der_Waal_Energy-OPLS-2005>
167.148559570312

> <r_mmod_Electrostatic_Energy-OPLS-2005>
-462.487487792969

> <r_mmod_Solvation_Energy-OPLS-2005>
-253.997787475586

> <b_mmod_Minimization_Converged-OPLS-2005>
0

> <r_mmod_RMS_Derivative-OPLS-2005>
1.02562355995178

$$$$
10
                    3D
 Structure written by MMmdl.
162171  0  0  1  0            999 V2000
  -30.6729  -14.5347   20.4952 C   0  0  0  0  0  0
  -30.4193  -12.3235   19.4430 C   0  0  0  0  0  0
  -29.4964  -12.4880   18.2167 C   0  0  0  0  0  0
  -28.0181  -12.3470   18.6278 C   0  0  0  0  0  0
  -27.6539  -13.2127   19.8639 C   0  0  2  0  0  0
  -28.6958  -13.0429   20.9928 C   0  0  0  0  0  0
  -25.2562  -13.8180   20.5693 C   0  0  0  0  0  0
  -24.1819  -13.0462   20.9193 C   0  0  0  0  0  0
  -24.6378  -11.6929   20.8752 C   0  0  0  0  0  0
  -23.9046  -10.4316   21.0411 C   0  0  0  0  0  0
  -24.3602   -9.4224   21.9184 C   0  0  0  0  0  0
  -23.6282   -8.2259   22.0764 C   0  0  0  0  0  0
  -22.4268   -8.0296   21.3558 C   0  0  0  0  0  0
  -21.9895   -9.0263   20.4659 C   0  0  0  0  0  0
  -22.7220  -10.2144   20.3059 C   0  0  0  0  0  0
  -21.6850   -6.0742   22.5285 C   0  0  0  0  0  0
  -21.4021   -6.5633   23.8224 C   0  0  0  0  0  0
  -21.3659   -5.6775   24.9177 C   0  0  0  0  0  0
  -21.6041   -4.3044   24.7211 C   0  0  0  0  0  0
  -21.8820   -3.8150   23.4330 C   0  0  0  0  0  0
  -21.9199   -4.6974   22.3397 C   0  0  0  0  0  0
  -22.7834  -13.5263   21.1832 C   0  0  0  0  0  0
  -22.1655   -4.2163   21.0970 F   0  0  0  0  0  0
  -21.5632   -3.4522   25.7719 F   0  0  0  0  0  0
  -30.0224  -13.3394   20.4323 N   0  0  0  0  0  0
  -26.2986  -12.9360   20.3338 N   0  0  0  0  0  0
  -25.9306  -11.6518   20.5770 N   0  0  0  0  0  0
  -22.0428  -12.8303   22.0383 N   0  0  0  0  0  0
  -25.4280  -15.1894   20.4097 N   0  0  0  0  0  0
  -31.8474  -14.6547   20.1333 O   0  0  0  0  0  0
  -21.6638   -6.8893   21.4254 O   0  0  0  0  0  0
  -22.3532  -14.5559   20.6652 O   0  0  0  0  0  0
  -24.6162  -31.8639   23.2080 C   0  0  0  0  0  0
  -25.9055  -32.4787   23.8377 C   0  0  1  0  0  0
  -27.2309  -27.4039   20.0892 C   0  0  0  0  0  0
  -25.5918  -33.8584   24.2319 N   0  0  0  0  0  0
  -23.4038  -30.4888   21.5483 C   0  0  2  0  0  0
  -24.8460  -28.9474   20.1122 C   0  0  0  0  0  0
  -22.7409  -29.4663   22.4986 C   0  0  0  0  0  0
  -18.0277  -28.1328   22.8486 C   0  0  0  0  0  0
  -24.1495  -36.7290   23.2639 C   0  0  0  0  0  0
  -25.9366  -30.8175   21.3671 C   0  0  0  0  0  0
  -26.0086  -29.4520   20.7065 C   0  0  0  0  0  0
  -27.2005  -28.6884   20.6885 C   0  0  0  0  0  0
  -26.0431  -26.9165   19.4968 C   0  0  0  0  0  0
  -24.8595  -27.6796   19.5065 C   0  0  0  0  0  0
  -23.6096  -29.8173   20.1634 C   0  0  0  0  0  0
  -25.4118  -36.3091   24.0347 C   0  0  1  0  0  0
  -20.5866  -28.3654   23.1305 C   0  0  2  0  0  0
  -20.6786  -26.9394   22.5402 C   0  0  0  0  0  0
  -19.5782  -26.6358   21.5192 C   0  0  0  0  0  0
  -18.1953  -26.7871   22.1608 C   0  0  0  0  0  0
  -19.1517  -28.8805   23.2896 C   0  0  0  0  0  0
  -18.9444  -30.1409   23.8904 C   0  0  0  0  0  0
  -17.6448  -30.6545   24.0563 C   0  0  0  0  0  0
  -25.9044  -34.9456   23.5133 C   0  0  0  0  0  0
  -16.5347  -29.9046   23.6313 C   0  0  0  0  0  0
  -16.7271  -28.6452   23.0352 C   0  0  0  0  0  0
  -26.4480  -31.6568   25.0706 C   0  0  0  0  0  0
  -25.3765  -31.3682   26.1474 C   0  0  0  0  0  0
  -27.0328  -30.3016   24.6089 C   0  0  0  0  0  0
  -27.6042  -32.4305   25.7457 C   0  0  0  0  0  0
  -27.5593  -37.1797   24.8469 C   0  0  0  0  0  0
  -21.4135  -29.3045   22.3723 N   0  0  0  0  0  0
  -26.4304  -37.3776   23.9408 N   0  0  0  0  0  0
  -24.6703  -31.0731   22.0980 N   0  0  0  0  0  0
  -23.4170  -28.8220   23.3039 O   0  0  0  0  0  0
  -28.4097  -26.6730   20.1303 O   0  0  0  0  0  0
  -26.5588  -34.8912   22.4683 O   0  0  0  0  0  0
  -23.5349  -32.1419   23.7464 O   0  0  0  0  0  0
  -30.9882  -18.6723   18.8385 C   0  0  0  0  0  0
  -30.3247  -19.7020   19.5304 C   0  0  0  0  0  0
  -30.8676  -17.3326   19.2580 C   0  0  0  0  0  0
  -29.3958  -18.0406   21.0595 C   0  0  0  0  0  0
  -29.5228  -19.4016   20.6503 C   0  0  0  0  0  0
  -30.0760  -16.9855   20.3833 C   0  0  0  0  0  0
  -28.9401  -23.0053   20.8560 C   0  0  0  0  0  0
  -27.3134  -24.5611   21.8365 C   0  0  0  0  0  0
  -26.9356  -23.2252   19.6298 C   0  0  0  0  0  0
  -27.1034  -21.7846   20.1442 C   0  0  0  0  0  0
  -27.9062  -24.1071   20.4631 C   0  0  2  0  0  0
  -28.8691  -20.5355   21.4623 C   0  0  0  0  0  0
  -28.4820  -25.3179   19.6140 C   0  0  0  0  0  0
  -28.4236  -21.7585   20.7501 N   0  0  0  0  0  0
  -26.0332  -24.3132   22.1157 N   0  0  0  0  0  0
  -29.9114  -15.6131   20.8131 N   0  0  0  0  0  0
  -30.0854  -23.2542   21.2497 O   0  0  0  0  0  0
  -27.9983  -25.1552   22.6717 O   0  0  0  0  0  0
  -31.4656  -12.4128   19.1437 H   0  0  0  0  0  0
  -30.3149  -11.3248   19.8714 H   0  0  0  0  0  0
  -29.7405  -11.7426   17.4596 H   0  0  0  0  0  0
  -29.6612  -13.4633   17.7542 H   0  0  0  0  0  0
  -27.8386  -11.2947   18.8473 H   0  0  0  0  0  0
  -27.3668  -12.5934   17.7884 H   0  0  0  0  0  0
  -27.6831  -14.2514   19.5348 H   0  0  0  0  0  0
  -28.6795  -12.0225   21.3764 H   0  0  0  0  0  0
  -28.4575  -13.6853   21.8421 H   0  0  0  0  0  0
  -25.2741   -9.5703   22.4761 H   0  0  0  0  0  0
  -23.9993   -7.4643   22.7473 H   0  0  0  0  0  0
  -21.0837   -8.8777   19.8950 H   0  0  0  0  0  0
  -22.3680  -10.9679   19.6167 H   0  0  0  0  0  0
  -21.2006   -7.6140   23.9737 H   0  0  0  0  0  0
  -21.1477   -6.0496   25.9081 H   0  0  0  0  0  0
  -22.0601   -2.7613   23.2815 H   0  0  0  0  0  0
  -22.3999  -11.9992   22.4850 H   0  0  0  0  0  0
  -21.1045  -13.1396   22.2531 H   0  0  0  0  0  0
  -24.6610  -15.8454   20.5153 H   0  0  0  0  0  0
  -26.2784  -15.6258   20.0764 H   0  0  0  0  0  0
  -26.7110  -32.5471   23.1115 H   0  0  0  0  0  0
  -25.0147  -33.9730   25.0523 H   0  0  0  0  0  0
  -22.6934  -31.3062   21.4073 H   0  0  0  0  0  0
  -23.3760  -35.9617   23.3308 H   0  0  0  0  0  0
  -24.3589  -36.8886   22.2050 H   0  0  0  0  0  0
  -23.7235  -37.6496   23.6638 H   0  0  0  0  0  0
  -26.0644  -31.5889   20.6058 H   0  0  0  0  0  0
  -26.8183  -30.8547   21.9944 H   0  0  0  0  0  0
  -28.0991  -29.0759   21.1469 H   0  0  0  0  0  0
  -26.0028  -25.9431   19.0339 H   0  0  0  0  0  0
  -23.9616  -27.2811   19.0538 H   0  0  0  0  0  0
  -23.7174  -30.5904   19.4013 H   0  0  0  0  0  0
  -22.7314  -29.2374   19.8722 H   0  0  0  0  0  0
  -25.1287  -36.1966   25.0840 H   0  0  0  0  0  0
  -20.9961  -28.3221   24.1424 H   0  0  0  0  0  0
  -20.5683  -26.2282   23.3601 H   0  0  0  0  0  0
  -21.6675  -26.7427   22.1221 H   0  0  0  0  0  0
  -19.6971  -25.6281   21.1202 H   0  0  0  0  0  0
  -19.6725  -27.3175   20.6726 H   0  0  0  0  0  0
  -17.4227  -26.6576   21.4013 H   0  0  0  0  0  0
  -18.0397  -25.9990   22.8992 H   0  0  0  0  0  0
  -19.7923  -30.7222   24.2267 H   0  0  0  0  0  0
  -17.5026  -31.6233   24.5143 H   0  0  0  0  0  0
  -15.5345  -30.2973   23.7619 H   0  0  0  0  0  0
  -15.8680  -28.0771   22.7064 H   0  0  0  0  0  0
  -24.5934  -30.7011   25.7857 H   0  0  0  0  0  0
  -24.8953  -32.2833   26.4941 H   0  0  0  0  0  0
  -25.8146  -30.8869   27.0229 H   0  0  0  0  0  0
  -26.2884  -29.6744   24.1163 H   0  0  0  0  0  0
  -27.4145  -29.7265   25.4535 H   0  0  0  0  0  0
  -27.8693  -30.4343   23.9218 H   0  0  0  0  0  0
  -27.2649  -33.3601   26.2042 H   0  0  0  0  0  0
  -28.3832  -32.6875   25.0264 H   0  0  0  0  0  0
  -28.0730  -31.8430   26.5359 H   0  0  0  0  0  0
  -28.2609  -38.0098   24.7526 H   0  0  0  0  0  0
  -28.1095  -36.2625   24.6296 H   0  0  0  0  0  0
  -27.2303  -37.1451   25.8871 H   0  0  0  0  0  0
  -20.9295  -29.8749   21.6933 H   0  0  0  0  0  0
  -26.0200  -38.2853   24.1415 H   0  0  0  0  0  0
  -31.6057  -18.9118   17.9834 H   0  0  0  0  0  0
  -30.4530  -20.7253   19.2044 H   0  0  0  0  0  0
  -31.3926  -16.5821   18.6851 H   0  0  0  0  0  0
  -28.7826  -17.8067   21.9188 H   0  0  0  0  0  0
  -25.8960  -23.5490   19.6585 H   0  0  0  0  0  0
  -27.2241  -23.2456   18.5784 H   0  0  0  0  0  0
  -27.0195  -21.0516   19.3406 H   0  0  0  0  0  0
  -26.3531  -21.5522   20.9015 H   0  0  0  0  0  0
  -29.5739  -20.8204   22.2446 H   0  0  0  0  0  0
  -28.0069  -20.1269   21.9915 H   0  0  0  0  0  0
  -28.0693  -25.3164   18.6043 H   0  0  0  0  0  0
  -29.5437  -25.1405   19.4435 H   0  0  0  0  0  0
  -25.4376  -23.8485   21.4472 H   0  0  0  0  0  0
  -25.6403  -24.6112   22.9979 H   0  0  0  0  0  0
  -29.0318  -15.3922   21.2553 H   0  0  0  0  0  0
  1 25  1  0  0  0
  1 30  2  0  0  0
  1 86  1  0  0  0
  2  3  1  0  0  0
  2 25  1  0  0  0
  2 89  1  0  0  0
  2 90  1  0  0  0
  3  4  1  0  0  0
  3 91  1  0  0  0
  3 92  1  0  0  0
  4  5  1  0  0  0
  4 93  1  0  0  0
  4 94  1  0  0  0
  5  6  1  0  0  0
  5 26  1  0  0  0
  5 95  1  0  0  0
  6 25  1  0  0  0
  6 96  1  0  0  0
  6 97  1  0  0  0
  7  8  2  0  0  0
  7 26  1  0  0  0
  7 29  1  0  0  0
  8  9  1  0  0  0
  8 22  1  0  0  0
  9 10  1  0  0  0
  9 27  2  0  0  0
 10 11  2  0  0  0
 10 15  1  0  0  0
 11 12  1  0  0  0
 11 98  1  0  0  0
 12 13  2  0  0  0
 12 99  1  0  0  0
 13 14  1  0  0  0
 13 31  1  0  0  0
 14 15  2  0  0  0
 14100  1  0  0  0
 15101  1  0  0  0
 16 17  2  0  0  0
 16 21  1  0  0  0
 16 31  1  0  0  0
 17 18  1  0  0  0
 17102  1  0  0  0
 18 19  2  0  0  0
 18103  1  0  0  0
 19 20  1  0  0  0
 19 24  1  0  0  0
 20 21  2  0  0  0
 20104  1  0  0  0
 21 23  1  0  0  0
 22 28  1  0  0  0
 22 32  2  0  0  0
 26 27  1  0  0  0
 28105  1  0  0  0
 28106  1  0  0  0
 29107  1  0  0  0
 29108  1  0  0  0
 33 34  1  0  0  0
 33 66  1  0  0  0
 33 70  2  0  0  0
 34 36  1  0  0  0
 34 59  1  0  0  0
 34109  1  0  0  0
 35 44  2  0  0  0
 35 45  1  0  0  0
 35 68  1  0  0  0
 36 56  1  0  0  0
 36110  1  0  0  0
 37 39  1  0  0  0
 37 47  1  0  0  0
 37 66  1  0  0  0
 37111  1  0  0  0
 38 43  2  0  0  0
 38 46  1  0  0  0
 38 47  1  0  0  0
 39 64  1  0  0  0
 39 67  2  0  0  0
 40 52  1  0  0  0
 40 53  2  0  0  0
 40 58  1  0  0  0
 41112  1  0  0  0
 41113  1  0  0  0
 41114  1  0  0  0
 41 48  1  0  0  0
 42 43  1  0  0  0
 42 66  1  0  0  0
 42115  1  0  0  0
 42116  1  0  0  0
 43 44  1  0  0  0
 44117  1  0  0  0
 45 46  2  0  0  0
 45118  1  0  0  0
 46119  1  0  0  0
 47120  1  0  0  0
 47121  1  0  0  0
 48 56  1  0  0  0
 48 65  1  0  0  0
 48122  1  0  0  0
 49 50  1  0  0  0
 49 53  1  0  0  0
 49 64  1  0  0  0
 49123  1  0  0  0
 50 51  1  0  0  0
 50124  1  0  0  0
 50125  1  0  0  0
 51 52  1  0  0  0
 51126  1  0  0  0
 51127  1  0  0  0
 52128  1  0  0  0
 52129  1  0  0  0
 53 54  1  0  0  0
 54 55  2  0  0  0
 54130  1  0  0  0
 55 57  1  0  0  0
 55131  1  0  0  0
 56 69  2  0  0  0
 57 58  2  0  0  0
 57132  1  0  0  0
 58133  1  0  0  0
 59 60  1  0  0  0
 59 61  1  0  0  0
 59 62  1  0  0  0
 60134  1  0  0  0
 60135  1  0  0  0
 60136  1  0  0  0
 61137  1  0  0  0
 61138  1  0  0  0
 61139  1  0  0  0
 62140  1  0  0  0
 62141  1  0  0  0
 62142  1  0  0  0
 63 65  1  0  0  0
 63143  1  0  0  0
 63144  1  0  0  0
 63145  1  0  0  0
 64146  1  0  0  0
 65147  1  0  0  0
 68 83  1  0  0  0
 71 72  2  0  0  0
 71 73  1  0  0  0
 71148  1  0  0  0
 72 75  1  0  0  0
 72149  1  0  0  0
 73 76  2  0  0  0
 73150  1  0  0  0
 74 75  2  0  0  0
 74 76  1  0  0  0
 74151  1  0  0  0
 75 82  1  0  0  0
 76 86  1  0  0  0
 77 81  1  0  0  0
 77 84  1  0  0  0
 77 87  2  0  0  0
 78 85  1  0  0  0
 78 88  2  0  0  0
 78 81  1  0  0  0
 79 80  1  0  0  0
 79 81  1  0  0  0
 79152  1  0  0  0
 79153  1  0  0  0
 80 84  1  0  0  0
 80154  1  0  0  0
 80155  1  0  0  0
 81 83  1  0  0  0
 82 84  1  0  0  0
 82156  1  0  0  0
 82157  1  0  0  0
 83158  1  0  0  0
 83159  1  0  0  0
 85160  1  0  0  0
 85161  1  0  0  0
 86162  1  0  0  0
M  ISO  4   1 100  68 101  83 101  86 100
M  END
> <chiral flag>
0

> <version>
0

> <s_m_source_file>
/data/baiqing/PycharmProjects/Reinvent-master-3.2/result/LINK_invent/BTK/process_docking_weight1_custom_product_contain_oxygen_bond_distance_aromatic_linkinvent_7_9_3/rearranged_h_0058.sdf

> <i_m_source_file_index>
11

> <r_mmod_Potential_Energy-OPLS-2005>
13.0148487091064

> <r_mmod_Stretch_Energy-OPLS-2005>
53.8863220214844

> <r_mmod_Bend_Energy-OPLS-2005>
149.041534423828

> <r_mmod_Torsional_Energy-OPLS-2005>
253.387344360352

> <r_mmod_Improper_Torsional_Energy-OPLS-2005>
5.27010583877563

> <r_mmod_Van_der_Waal_Energy-OPLS-2005>
150.187118530273

> <r_mmod_Electrostatic_Energy-OPLS-2005>
-339.239227294922

> <r_mmod_Solvation_Energy-OPLS-2005>
-282.096740722656

> <b_mmod_Minimization_Converged-OPLS-2005>
0

> <r_mmod_RMS_Derivative-OPLS-2005>
2.2861180305481

$$$$
11
                    3D
 Structure written by MMmdl.
151159  0  0  1  0            999 V2000
  -30.6044  -14.8197   20.4219 C   0  0  0  0  0  0
  -30.4293  -12.4980   19.4902 C   0  0  0  0  0  0
  -29.5139  -12.5111   18.2462 C   0  0  0  0  0  0
  -28.0420  -12.3259   18.6596 C   0  0  0  0  0  0
  -27.6359  -13.2427   19.8442 C   0  0  2  0  0  0
  -28.6795  -13.2259   20.9822 C   0  0  0  0  0  0
  -25.2485  -13.8217   20.5704 C   0  0  0  0  0  0
  -24.1793  -13.0447   20.9224 C   0  0  0  0  0  0
  -24.6398  -11.6929   20.8755 C   0  0  0  0  0  0
  -23.9079  -10.4299   21.0409 C   0  0  0  0  0  0
  -24.3628   -9.4211   21.9184 C   0  0  0  0  0  0
  -23.6300   -8.2247   22.0753 C   0  0  0  0  0  0
  -22.4281   -8.0286   21.3546 C   0  0  0  0  0  0
  -21.9920   -9.0261   20.4649 C   0  0  0  0  0  0
  -22.7251  -10.2139   20.3058 C   0  0  0  0  0  0
  -21.6855   -6.0739   22.5279 C   0  0  0  0  0  0
  -21.4016   -6.5641   23.8213 C   0  0  0  0  0  0
  -21.3659   -5.6794   24.9175 C   0  0  0  0  0  0
  -21.6044   -4.3056   24.7224 C   0  0  0  0  0  0
  -21.8818   -3.8149   23.4346 C   0  0  0  0  0  0
  -21.9193   -4.6966   22.3402 C   0  0  0  0  0  0
  -22.7812  -13.5218   21.1878 C   0  0  0  0  0  0
  -22.1662   -4.2151   21.0979 F   0  0  0  0  0  0
  -21.5628   -3.4539   25.7737 F   0  0  0  0  0  0
  -29.9736  -13.5879   20.3920 N   0  0  0  0  0  0
  -26.2913  -12.9444   20.3262 N   0  0  0  0  0  0
  -25.9330  -11.6576   20.5748 N   0  0  0  0  0  0
  -22.0461  -12.8206   22.0433 N   0  0  0  0  0  0
  -25.4156  -15.1941   20.4106 N   0  0  0  0  0  0
  -31.8073  -14.8525   20.1494 O   0  0  0  0  0  0
  -21.6644   -6.8883   21.4242 O   0  0  0  0  0  0
  -22.3494  -14.5519   20.6718 O   0  0  0  0  0  0
  -24.6364  -31.8512   23.1952 C   0  0  0  0  0  0
  -25.9169  -32.4733   23.8315 C   0  0  1  0  0  0
  -27.2169  -27.2186   20.1390 C   0  0  0  0  0  0
  -25.5947  -33.8536   24.2236 N   0  0  0  0  0  0
  -23.4371  -30.4726   21.5385 C   0  0  2  0  0  0
  -24.8885  -28.9160   20.1072 C   0  0  0  0  0  0
  -22.7537  -29.4579   22.4882 C   0  0  0  0  0  0
  -18.0301  -28.1392   22.8479 C   0  0  0  0  0  0
  -24.1491  -36.7269   23.2639 C   0  0  0  0  0  0
  -25.9877  -30.7501   21.3843 C   0  0  0  0  0  0
  -26.0628  -29.3693   20.7249 C   0  0  0  0  0  0
  -27.2335  -28.5328   20.7319 C   0  0  0  0  0  0
  -26.0253  -26.8500   19.4812 C   0  0  0  0  0  0
  -24.8773  -27.6657   19.4712 C   0  0  0  0  0  0
  -23.6602  -29.8070   20.1551 C   0  0  0  0  0  0
  -25.4118  -36.3054   24.0323 C   0  0  1  0  0  0
  -20.5909  -28.3711   23.1249 C   0  0  2  0  0  0
  -20.6784  -26.9422   22.5404 C   0  0  0  0  0  0
  -19.5759  -26.6383   21.5209 C   0  0  0  0  0  0
  -18.1940  -26.7931   22.1623 C   0  0  0  0  0  0
  -19.1556  -28.8869   23.2857 C   0  0  0  0  0  0
  -18.9474  -30.1467   23.8880 C   0  0  0  0  0  0
  -17.6471  -30.6590   24.0558 C   0  0  0  0  0  0
  -25.9063  -34.9427   23.5082 C   0  0  0  0  0  0
  -16.5362  -29.9083   23.6335 C   0  0  0  0  0  0
  -16.7286  -28.6501   23.0354 C   0  0  0  0  0  0
  -26.4515  -31.6573   25.0726 C   0  0  0  0  0  0
  -25.3721  -31.3750   26.1438 C   0  0  0  0  0  0
  -27.0363  -30.2974   24.6258 C   0  0  0  0  0  0
  -27.6065  -32.4320   25.7501 C   0  0  0  0  0  0
  -27.5579  -37.1787   24.8463 C   0  0  0  0  0  0
  -21.4236  -29.3047   22.3629 N   0  0  0  0  0  0
  -26.4287  -37.3759   23.9412 N   0  0  0  0  0  0
  -24.7061  -31.0435   22.0952 N   0  0  0  0  0  0
  -23.4211  -28.8124   23.3007 O   0  0  0  0  0  0
  -28.2301  -26.2195   20.2033 O   0  0  0  0  0  0
  -26.5635  -34.8911   22.4651 O   0  0  0  0  0  0
  -23.5500  -32.1357   23.7213 O   0  0  0  0  0  0
  -31.5739  -19.0112   18.9372 C   0  0  0  0  0  0
  -30.8277  -20.1370   19.3281 C   0  0  0  0  0  0
  -31.2425  -17.7106   19.3578 C   0  0  0  0  0  0
  -29.3685  -18.6489   20.5936 C   0  0  0  0  0  0
  -29.6909  -20.0299   20.1606 C   0  0  0  0  0  0
  -30.1444  -17.4468   20.2106 C   0  0  0  0  0  0
  -28.1579  -23.6253   20.8773 C   0  0  0  0  0  0
  -27.8605  -25.0031   20.8729 C   0  0  0  0  0  0
  -28.2013  -18.4585   21.4589 C   0  0  0  0  0  0
  -29.0548  -22.6535   20.1477 C   0  0  0  0  0  0
  -28.9551  -21.2996   20.5402 N   0  0  0  0  0  0
  -29.8550  -16.0017   20.5795 N   0  0  0  0  0  0
  -27.1130  -18.2050   20.9537 O   0  0  0  0  0  0
  -29.8158  -23.0214   19.2519 O   0  0  0  0  0  0
  -28.3435  -18.5653   22.7909 F   0  0  0  0  0  0
  -31.4707  -12.6160   19.1861 H   0  0  0  0  0  0
  -30.3773  -11.5341   19.9989 H   0  0  0  0  0  0
  -29.8091  -11.7252   17.5497 H   0  0  0  0  0  0
  -29.6315  -13.4550   17.7115 H   0  0  0  0  0  0
  -27.9114  -11.2806   18.9419 H   0  0  0  0  0  0
  -27.3840  -12.4941   17.8062 H   0  0  0  0  0  0
  -27.6154  -14.2551   19.4395 H   0  0  0  0  0  0
  -28.7307  -12.2427   21.4524 H   0  0  0  0  0  0
  -28.4029  -13.9295   21.7690 H   0  0  0  0  0  0
  -25.2772   -9.5684   22.4759 H   0  0  0  0  0  0
  -24.0010   -7.4636   22.7470 H   0  0  0  0  0  0
  -21.0852   -8.8783   19.8953 H   0  0  0  0  0  0
  -22.3710  -10.9679   19.6169 H   0  0  0  0  0  0
  -21.2010   -7.6150   23.9716 H   0  0  0  0  0  0
  -21.1480   -6.0524   25.9077 H   0  0  0  0  0  0
  -22.0597   -2.7611   23.2845 H   0  0  0  0  0  0
  -22.4082  -11.9873   22.4828 H   0  0  0  0  0  0
  -21.1074  -13.1223   22.2632 H   0  0  0  0  0  0
  -24.6419  -15.8418   20.5128 H   0  0  0  0  0  0
  -26.2495  -15.6303   20.0407 H   0  0  0  0  0  0
  -26.7237  -32.5371   23.1055 H   0  0  0  0  0  0
  -25.0091  -33.9666   25.0379 H   0  0  0  0  0  0
  -22.7358  -31.2962   21.3894 H   0  0  0  0  0  0
  -23.3756  -35.9598   23.3293 H   0  0  0  0  0  0
  -24.3583  -36.8902   22.2056 H   0  0  0  0  0  0
  -23.7241  -37.6466   23.6670 H   0  0  0  0  0  0
  -26.1343  -31.5099   20.6154 H   0  0  0  0  0  0
  -26.8611  -30.7984   22.0229 H   0  0  0  0  0  0
  -28.1265  -28.8654   21.2421 H   0  0  0  0  0  0
  -25.9678  -25.8809   19.0054 H   0  0  0  0  0  0
  -23.9805  -27.3126   18.9807 H   0  0  0  0  0  0
  -23.7892  -30.5839   19.4006 H   0  0  0  0  0  0
  -22.7778  -29.2436   19.8465 H   0  0  0  0  0  0
  -25.1302  -36.1891   25.0814 H   0  0  0  0  0  0
  -21.0002  -28.3296   24.1370 H   0  0  0  0  0  0
  -20.5678  -26.2325   23.3617 H   0  0  0  0  0  0
  -21.6653  -26.7434   22.1205 H   0  0  0  0  0  0
  -19.6921  -25.6289   21.1251 H   0  0  0  0  0  0
  -19.6695  -27.3180   20.6728 H   0  0  0  0  0  0
  -17.4211  -26.6676   21.4026 H   0  0  0  0  0  0
  -18.0343  -26.0077   22.9025 H   0  0  0  0  0  0
  -19.7951  -30.7285   24.2243 H   0  0  0  0  0  0
  -17.5026  -31.6269   24.5160 H   0  0  0  0  0  0
  -15.5360  -30.2976   23.7669 H   0  0  0  0  0  0
  -15.8688  -28.0812   22.7079 H   0  0  0  0  0  0
  -24.5900  -30.7093   25.7769 H   0  0  0  0  0  0
  -24.8909  -32.2928   26.4824 H   0  0  0  0  0  0
  -25.8024  -30.8956   27.0239 H   0  0  0  0  0  0
  -26.2960  -29.6715   24.1260 H   0  0  0  0  0  0
  -27.3988  -29.7252   25.4808 H   0  0  0  0  0  0
  -27.8866  -30.4219   23.9551 H   0  0  0  0  0  0
  -27.2673  -33.3633   26.2049 H   0  0  0  0  0  0
  -28.3890  -32.6858   25.0337 H   0  0  0  0  0  0
  -28.0714  -31.8462   26.5441 H   0  0  0  0  0  0
  -28.2585  -38.0096   24.7520 H   0  0  0  0  0  0
  -28.1086  -36.2627   24.6269 H   0  0  0  0  0  0
  -27.2303  -37.1414   25.8867 H   0  0  0  0  0  0
  -20.9435  -29.8767   21.6823 H   0  0  0  0  0  0
  -26.0160  -38.2829   24.1421 H   0  0  0  0  0  0
  -32.4286  -19.1494   18.2897 H   0  0  0  0  0  0
  -31.1684  -21.0928   18.9636 H   0  0  0  0  0  0
  -31.8655  -16.9150   18.9809 H   0  0  0  0  0  0
  -27.5655  -23.1191   21.6260 H   0  0  0  0  0  0
  -27.1134  -25.2714   21.6090 H   0  0  0  0  0  0
  -28.2453  -21.1594   21.2453 H   0  0  0  0  0  0
  -28.9188  -15.8312   20.9131 H   0  0  0  0  0  0
  1 25  1  0  0  0
  1 30  2  0  0  0
  1 82  1  0  0  0
  2  3  1  0  0  0
  2 25  1  0  0  0
  2 86  1  0  0  0
  2 87  1  0  0  0
  3  4  1  0  0  0
  3 88  1  0  0  0
  3 89  1  0  0  0
  4  5  1  0  0  0
  4 90  1  0  0  0
  4 91  1  0  0  0
  5  6  1  0  0  0
  5 26  1  0  0  0
  5 92  1  0  0  0
  6 25  1  0  0  0
  6 93  1  0  0  0
  6 94  1  0  0  0
  7  8  2  0  0  0
  7 26  1  0  0  0
  7 29  1  0  0  0
  8  9  1  0  0  0
  8 22  1  0  0  0
  9 10  1  0  0  0
  9 27  2  0  0  0
 10 11  2  0  0  0
 10 15  1  0  0  0
 11 12  1  0  0  0
 11 95  1  0  0  0
 12 13  2  0  0  0
 12 96  1  0  0  0
 13 14  1  0  0  0
 13 31  1  0  0  0
 14 15  2  0  0  0
 14 97  1  0  0  0
 15 98  1  0  0  0
 16 17  2  0  0  0
 16 21  1  0  0  0
 16 31  1  0  0  0
 17 18  1  0  0  0
 17 99  1  0  0  0
 18 19  2  0  0  0
 18100  1  0  0  0
 19 20  1  0  0  0
 19 24  1  0  0  0
 20 21  2  0  0  0
 20101  1  0  0  0
 21 23  1  0  0  0
 22 28  1  0  0  0
 22 32  2  0  0  0
 26 27  1  0  0  0
 28102  1  0  0  0
 28103  1  0  0  0
 29104  1  0  0  0
 29105  1  0  0  0
 33 34  1  0  0  0
 33 66  1  0  0  0
 33 70  2  0  0  0
 34 36  1  0  0  0
 34 59  1  0  0  0
 34106  1  0  0  0
 35 44  2  0  0  0
 35 45  1  0  0  0
 35 68  1  0  0  0
 36 56  1  0  0  0
 36107  1  0  0  0
 37 39  1  0  0  0
 37 47  1  0  0  0
 37 66  1  0  0  0
 37108  1  0  0  0
 38 43  2  0  0  0
 38 46  1  0  0  0
 38 47  1  0  0  0
 39 64  1  0  0  0
 39 67  2  0  0  0
 40 52  1  0  0  0
 40 53  2  0  0  0
 40 58  1  0  0  0
 41109  1  0  0  0
 41110  1  0  0  0
 41111  1  0  0  0
 41 48  1  0  0  0
 42 43  1  0  0  0
 42 66  1  0  0  0
 42112  1  0  0  0
 42113  1  0  0  0
 43 44  1  0  0  0
 44114  1  0  0  0
 45 46  2  0  0  0
 45115  1  0  0  0
 46116  1  0  0  0
 47117  1  0  0  0
 47118  1  0  0  0
 48 56  1  0  0  0
 48 65  1  0  0  0
 48119  1  0  0  0
 49 50  1  0  0  0
 49 53  1  0  0  0
 49 64  1  0  0  0
 49120  1  0  0  0
 50 51  1  0  0  0
 50121  1  0  0  0
 50122  1  0  0  0
 51 52  1  0  0  0
 51123  1  0  0  0
 51124  1  0  0  0
 52125  1  0  0  0
 52126  1  0  0  0
 53 54  1  0  0  0
 54 55  2  0  0  0
 54127  1  0  0  0
 55 57  1  0  0  0
 55128  1  0  0  0
 56 69  2  0  0  0
 57 58  2  0  0  0
 57129  1  0  0  0
 58130  1  0  0  0
 59 60  1  0  0  0
 59 61  1  0  0  0
 59 62  1  0  0  0
 60131  1  0  0  0
 60132  1  0  0  0
 60133  1  0  0  0
 61134  1  0  0  0
 61135  1  0  0  0
 61136  1  0  0  0
 62137  1  0  0  0
 62138  1  0  0  0
 62139  1  0  0  0
 63 65  1  0  0  0
 63140  1  0  0  0
 63141  1  0  0  0
 63142  1  0  0  0
 64143  1  0  0  0
 65144  1  0  0  0
 68 78  1  0  0  0
 71 72  2  0  0  0
 71 73  1  0  0  0
 71145  1  0  0  0
 72 75  1  0  0  0
 72146  1  0  0  0
 73 76  2  0  0  0
 73147  1  0  0  0
 74 75  2  0  0  0
 74 76  1  0  0  0
 74 79  1  0  0  0
 75 81  1  0  0  0
 76 82  1  0  0  0
 77 78  2  0  0  0
 77 80  1  0  0  0
 77148  1  0  0  0
 78149  1  0  0  0
 79 83  2  0  0  0
 79 85  1  0  0  0
 80 81  1  0  0  0
 80 84  2  0  0  0
 81150  1  0  0  0
 82151  1  0  0  0
M  ISO  4   1 100  68 101  78 101  82 100
M  END
> <chiral flag>
0

> <version>
0

> <s_m_source_file>
/data/baiqing/PycharmProjects/Reinvent-master-3.2/result/LINK_invent/BTK/process_docking_weight1_custom_product_contain_oxygen_bond_distance_aromatic_linkinvent_7_9_3/rearranged_h_0058.sdf

> <i_m_source_file_index>
12

> <r_mmod_Potential_Energy-OPLS-2005>
319.944122314453

> <r_mmod_Stretch_Energy-OPLS-2005>
168.159362792969

> <r_mmod_Bend_Energy-OPLS-2005>
243.940414428711

> <r_mmod_Torsional_Energy-OPLS-2005>
220.027008056641

> <r_mmod_Improper_Torsional_Energy-OPLS-2005>
4.27944135665894

> <r_mmod_Van_der_Waal_Energy-OPLS-2005>
139.047225952148

> <r_mmod_Electrostatic_Energy-OPLS-2005>
-353.306304931641

> <r_mmod_Solvation_Energy-OPLS-2005>
-229.927505493164

> <b_mmod_Minimization_Converged-OPLS-2005>
0

> <r_mmod_RMS_Derivative-OPLS-2005>
0.273808479309082

$$$$
12
                    3D
 Structure written by MMmdl.
152160  0  0  1  0            999 V2000
  -30.6426  -14.5851   20.4824 C   0  0  0  0  0  0
  -30.4350  -12.3371   19.4692 C   0  0  0  0  0  0
  -29.5126  -12.4322   18.2334 C   0  0  0  0  0  0
  -28.0263  -12.3328   18.6363 C   0  0  0  0  0  0
  -27.6560  -13.2082   19.8651 C   0  0  2  0  0  0
  -28.6961  -13.0563   20.9976 C   0  0  0  0  0  0
  -25.2575  -13.8161   20.5679 C   0  0  0  0  0  0
  -24.1828  -13.0440   20.9184 C   0  0  0  0  0  0
  -24.6382  -11.6907   20.8744 C   0  0  0  0  0  0
  -23.9052  -10.4292   21.0411 C   0  0  0  0  0  0
  -24.3607   -9.4208   21.9185 C   0  0  0  0  0  0
  -23.6287   -8.2241   22.0753 C   0  0  0  0  0  0
  -22.4269   -8.0279   21.3544 C   0  0  0  0  0  0
  -21.9902   -9.0253   20.4647 C   0  0  0  0  0  0
  -22.7226  -10.2134   20.3060 C   0  0  0  0  0  0
  -21.6852   -6.0733   22.5277 C   0  0  0  0  0  0
  -21.4015   -6.5639   23.8211 C   0  0  0  0  0  0
  -21.3658   -5.6792   24.9172 C   0  0  0  0  0  0
  -21.6044   -4.3055   24.7224 C   0  0  0  0  0  0
  -21.8820   -3.8146   23.4346 C   0  0  0  0  0  0
  -21.9194   -4.6962   22.3402 C   0  0  0  0  0  0
  -22.7854  -13.5243   21.1849 C   0  0  0  0  0  0
  -22.1662   -4.2148   21.0979 F   0  0  0  0  0  0
  -21.5628   -3.4539   25.7737 F   0  0  0  0  0  0
  -30.0194  -13.3695   20.4380 N   0  0  0  0  0  0
  -26.2996  -12.9326   20.3327 N   0  0  0  0  0  0
  -25.9307  -11.6492   20.5780 N   0  0  0  0  0  0
  -22.0495  -12.8236   22.0406 N   0  0  0  0  0  0
  -25.4309  -15.1879   20.4095 N   0  0  0  0  0  0
  -31.7963  -14.7440   20.0725 O   0  0  0  0  0  0
  -21.6638   -6.8874   21.4238 O   0  0  0  0  0  0
  -22.3540  -14.5549   20.6698 O   0  0  0  0  0  0
  -24.6180  -31.8636   23.2053 C   0  0  0  0  0  0
  -25.9058  -32.4796   23.8364 C   0  0  1  0  0  0
  -27.2383  -27.3859   20.1047 C   0  0  0  0  0  0
  -25.5898  -33.8597   24.2297 N   0  0  0  0  0  0
  -23.4088  -30.4847   21.5458 C   0  0  2  0  0  0
  -24.8567  -28.9429   20.1093 C   0  0  0  0  0  0
  -22.7429  -29.4632   22.4965 C   0  0  0  0  0  0
  -18.0274  -28.1376   22.8489 C   0  0  0  0  0  0
  -24.1489  -36.7310   23.2638 C   0  0  0  0  0  0
  -25.9407  -30.8124   21.3664 C   0  0  0  0  0  0
  -26.0156  -29.4425   20.7144 C   0  0  0  0  0  0
  -27.2025  -28.6683   20.7139 C   0  0  0  0  0  0
  -26.0588  -26.9119   19.4868 C   0  0  0  0  0  0
  -24.8757  -27.6791   19.4922 C   0  0  0  0  0  0
  -23.6197  -29.8142   20.1607 C   0  0  0  0  0  0
  -25.4109  -36.3098   24.0336 C   0  0  1  0  0  0
  -20.5867  -28.3669   23.1307 C   0  0  2  0  0  0
  -20.6764  -26.9401   22.5418 C   0  0  0  0  0  0
  -19.5744  -26.6382   21.5213 C   0  0  0  0  0  0
  -18.1922  -26.7922   22.1622 C   0  0  0  0  0  0
  -19.1524  -28.8839   23.2894 C   0  0  0  0  0  0
  -18.9452  -30.1444   23.8906 C   0  0  0  0  0  0
  -17.6453  -30.6582   24.0562 C   0  0  0  0  0  0
  -25.9039  -34.9464   23.5118 C   0  0  0  0  0  0
  -16.5345  -29.9082   23.6327 C   0  0  0  0  0  0
  -16.7263  -28.6499   23.0347 C   0  0  0  0  0  0
  -26.4476  -31.6592   25.0711 C   0  0  0  0  0  0
  -25.3736  -31.3708   26.1458 C   0  0  0  0  0  0
  -27.0314  -30.3027   24.6118 C   0  0  0  0  0  0
  -27.6044  -32.4321   25.7475 C   0  0  0  0  0  0
  -27.5583  -37.1805   24.8461 C   0  0  0  0  0  0
  -21.4152  -29.3029   22.3709 N   0  0  0  0  0  0
  -26.4292  -37.3787   23.9411 N   0  0  0  0  0  0
  -24.6741  -31.0696   22.0972 N   0  0  0  0  0  0
  -23.4182  -28.8185   23.3032 O   0  0  0  0  0  0
  -28.4045  -26.6337   20.1773 O   0  0  0  0  0  0
  -26.5608  -34.8925   22.4684 O   0  0  0  0  0  0
  -23.5363  -32.1412   23.7423 O   0  0  0  0  0  0
  -29.0358  -19.1681   18.5483 C   0  0  0  0  0  0
  -29.0094  -17.8894   17.9737 C   0  0  0  0  0  0
  -29.7049  -18.1796   20.6825 C   0  0  0  0  0  0
  -29.3758  -19.3429   19.9067 C   0  0  0  0  0  0
  -29.6798  -16.8643   20.1048 C   0  0  0  0  0  0
  -29.3196  -16.7548   18.7388 C   0  0  0  0  0  0
  -29.0251  -23.0120   19.9740 C   0  0  0  0  0  0
  -28.2083  -24.0967   19.8329 C   0  0  0  0  0  0
  -28.5140  -21.6569   20.2471 C   0  0  0  0  0  0
  -28.6371  -25.4902   19.3198 C   0  0  0  0  0  0
  -29.4728  -20.7022   20.3854 N   0  0  0  0  0  0
  -29.8868  -15.6489   20.8727 N   0  0  0  0  0  0
  -27.3150  -21.3763   20.3243 O   0  0  0  0  0  0
  -29.2276  -15.5485   18.1416 F   0  0  0  0  0  0
  -31.4789  -12.4445   19.1690 H   0  0  0  0  0  0
  -30.3592  -11.3493   19.9261 H   0  0  0  0  0  0
  -29.7534  -11.6309   17.5335 H   0  0  0  0  0  0
  -29.7040  -13.3536   17.6894 H   0  0  0  0  0  0
  -27.8270  -11.2848   18.8629 H   0  0  0  0  0  0
  -27.3881  -12.5834   17.7884 H   0  0  0  0  0  0
  -27.6764  -14.2434   19.5292 H   0  0  0  0  0  0
  -28.6891  -12.0384   21.3897 H   0  0  0  0  0  0
  -28.4482  -13.7008   21.8423 H   0  0  0  0  0  0
  -25.2754   -9.5688   22.4757 H   0  0  0  0  0  0
  -24.0002   -7.4632   22.7470 H   0  0  0  0  0  0
  -21.0833   -8.8773   19.8953 H   0  0  0  0  0  0
  -22.3685  -10.9674   19.6171 H   0  0  0  0  0  0
  -21.2007   -7.6147   23.9714 H   0  0  0  0  0  0
  -21.1479   -6.0521   25.9075 H   0  0  0  0  0  0
  -22.0600   -2.7609   23.2846 H   0  0  0  0  0  0
  -22.4108  -11.9897   22.4796 H   0  0  0  0  0  0
  -21.1116  -13.1266   22.2620 H   0  0  0  0  0  0
  -24.6661  -15.8450   20.5177 H   0  0  0  0  0  0
  -26.2827  -15.6228   20.0789 H   0  0  0  0  0  0
  -26.7127  -32.5491   23.1120 H   0  0  0  0  0  0
  -25.0044  -33.9750   25.0439 H   0  0  0  0  0  0
  -22.6996  -31.3027   21.4035 H   0  0  0  0  0  0
  -23.3747  -35.9647   23.3299 H   0  0  0  0  0  0
  -24.3580  -36.8926   22.2052 H   0  0  0  0  0  0
  -23.7249  -37.6517   23.6655 H   0  0  0  0  0  0
  -26.0608  -31.5753   20.5962 H   0  0  0  0  0  0
  -26.8259  -30.8654   21.9886 H   0  0  0  0  0  0
  -28.0938  -29.0472   21.1945 H   0  0  0  0  0  0
  -26.0289  -25.9386   19.0196 H   0  0  0  0  0  0
  -23.9835  -27.2870   19.0237 H   0  0  0  0  0  0
  -23.7294  -30.5880   19.4001 H   0  0  0  0  0  0
  -22.7428  -29.2351   19.8656 H   0  0  0  0  0  0
  -25.1287  -36.1956   25.0830 H   0  0  0  0  0  0
  -20.9957  -28.3237   24.1428 H   0  0  0  0  0  0
  -20.5663  -26.2277   23.3607 H   0  0  0  0  0  0
  -21.6636  -26.7439   22.1213 H   0  0  0  0  0  0
  -19.6907  -25.6295   21.1235 H   0  0  0  0  0  0
  -19.6684  -27.3199   20.6748 H   0  0  0  0  0  0
  -17.4194  -26.6668   21.4022 H   0  0  0  0  0  0
  -18.0322  -26.0061   22.9016 H   0  0  0  0  0  0
  -19.7928  -30.7256   24.2281 H   0  0  0  0  0  0
  -17.5009  -31.6264   24.5161 H   0  0  0  0  0  0
  -15.5345  -30.2986   23.7648 H   0  0  0  0  0  0
  -15.8662  -28.0823   22.7055 H   0  0  0  0  0  0
  -24.5902  -30.7063   25.7794 H   0  0  0  0  0  0
  -24.8937  -32.2867   26.4916 H   0  0  0  0  0  0
  -25.8085  -30.8866   27.0211 H   0  0  0  0  0  0
  -26.2868  -29.6778   24.1172 H   0  0  0  0  0  0
  -27.4072  -29.7274   25.4590 H   0  0  0  0  0  0
  -27.8709  -30.4334   23.9285 H   0  0  0  0  0  0
  -27.2654  -33.3609   26.2077 H   0  0  0  0  0  0
  -28.3838  -32.6903   25.0293 H   0  0  0  0  0  0
  -28.0734  -31.8435   26.5370 H   0  0  0  0  0  0
  -28.2597  -38.0107   24.7518 H   0  0  0  0  0  0
  -28.1085  -36.2640   24.6273 H   0  0  0  0  0  0
  -27.2304  -37.1439   25.8865 H   0  0  0  0  0  0
  -20.9320  -29.8744   21.6922 H   0  0  0  0  0  0
  -26.0179  -38.2865   24.1406 H   0  0  0  0  0  0
  -28.8051  -20.0196   17.9232 H   0  0  0  0  0  0
  -28.7400  -17.7730   16.9343 H   0  0  0  0  0  0
  -29.9704  -18.2952   21.7233 H   0  0  0  0  0  0
  -30.0861  -23.1423   19.8144 H   0  0  0  0  0  0
  -27.1495  -23.9864   20.0216 H   0  0  0  0  0  0
  -29.7122  -25.4575   19.1411 H   0  0  0  0  0  0
  -28.1953  -25.6555   18.3366 H   0  0  0  0  0  0
  -30.4122  -21.0429   20.5395 H   0  0  0  0  0  0
  -29.0839  -15.3803   21.4203 H   0  0  0  0  0  0
  1 25  1  0  0  0
  1 30  2  0  0  0
  1 82  1  0  0  0
  2  3  1  0  0  0
  2 25  1  0  0  0
  2 85  1  0  0  0
  2 86  1  0  0  0
  3  4  1  0  0  0
  3 87  1  0  0  0
  3 88  1  0  0  0
  4  5  1  0  0  0
  4 89  1  0  0  0
  4 90  1  0  0  0
  5  6  1  0  0  0
  5 26  1  0  0  0
  5 91  1  0  0  0
  6 25  1  0  0  0
  6 92  1  0  0  0
  6 93  1  0  0  0
  7  8  2  0  0  0
  7 26  1  0  0  0
  7 29  1  0  0  0
  8  9  1  0  0  0
  8 22  1  0  0  0
  9 10  1  0  0  0
  9 27  2  0  0  0
 10 11  2  0  0  0
 10 15  1  0  0  0
 11 12  1  0  0  0
 11 94  1  0  0  0
 12 13  2  0  0  0
 12 95  1  0  0  0
 13 14  1  0  0  0
 13 31  1  0  0  0
 14 15  2  0  0  0
 14 96  1  0  0  0
 15 97  1  0  0  0
 16 17  2  0  0  0
 16 21  1  0  0  0
 16 31  1  0  0  0
 17 18  1  0  0  0
 17 98  1  0  0  0
 18 19  2  0  0  0
 18 99  1  0  0  0
 19 20  1  0  0  0
 19 24  1  0  0  0
 20 21  2  0  0  0
 20100  1  0  0  0
 21 23  1  0  0  0
 22 28  1  0  0  0
 22 32  2  0  0  0
 26 27  1  0  0  0
 28101  1  0  0  0
 28102  1  0  0  0
 29103  1  0  0  0
 29104  1  0  0  0
 33 34  1  0  0  0
 33 66  1  0  0  0
 33 70  2  0  0  0
 34 36  1  0  0  0
 34 59  1  0  0  0
 34105  1  0  0  0
 35 44  2  0  0  0
 35 45  1  0  0  0
 35 68  1  0  0  0
 36 56  1  0  0  0
 36106  1  0  0  0
 37 39  1  0  0  0
 37 47  1  0  0  0
 37 66  1  0  0  0
 37107  1  0  0  0
 38 43  2  0  0  0
 38 46  1  0  0  0
 38 47  1  0  0  0
 39 64  1  0  0  0
 39 67  2  0  0  0
 40 52  1  0  0  0
 40 53  2  0  0  0
 40 58  1  0  0  0
 41108  1  0  0  0
 41109  1  0  0  0
 41110  1  0  0  0
 41 48  1  0  0  0
 42 43  1  0  0  0
 42 66  1  0  0  0
 42111  1  0  0  0
 42112  1  0  0  0
 43 44  1  0  0  0
 44113  1  0  0  0
 45 46  2  0  0  0
 45114  1  0  0  0
 46115  1  0  0  0
 47116  1  0  0  0
 47117  1  0  0  0
 48 56  1  0  0  0
 48 65  1  0  0  0
 48118  1  0  0  0
 49 50  1  0  0  0
 49 53  1  0  0  0
 49 64  1  0  0  0
 49119  1  0  0  0
 50 51  1  0  0  0
 50120  1  0  0  0
 50121  1  0  0  0
 51 52  1  0  0  0
 51122  1  0  0  0
 51123  1  0  0  0
 52124  1  0  0  0
 52125  1  0  0  0
 53 54  1  0  0  0
 54 55  2  0  0  0
 54126  1  0  0  0
 55 57  1  0  0  0
 55127  1  0  0  0
 56 69  2  0  0  0
 57 58  2  0  0  0
 57128  1  0  0  0
 58129  1  0  0  0
 59 60  1  0  0  0
 59 61  1  0  0  0
 59 62  1  0  0  0
 60130  1  0  0  0
 60131  1  0  0  0
 60132  1  0  0  0
 61133  1  0  0  0
 61134  1  0  0  0
 61135  1  0  0  0
 62136  1  0  0  0
 62137  1  0  0  0
 62138  1  0  0  0
 63 65  1  0  0  0
 63139  1  0  0  0
 63140  1  0  0  0
 63141  1  0  0  0
 64142  1  0  0  0
 65143  1  0  0  0
 68 80  1  0  0  0
 71 72  2  0  0  0
 71 74  1  0  0  0
 71144  1  0  0  0
 72 76  1  0  0  0
 72145  1  0  0  0
 73 74  2  0  0  0
 73 75  1  0  0  0
 73146  1  0  0  0
 74 81  1  0  0  0
 75 76  2  0  0  0
 75 82  1  0  0  0
 76 84  1  0  0  0
 77 78  2  0  0  0
 77 79  1  0  0  0
 77147  1  0  0  0
 78 80  1  0  0  0
 78148  1  0  0  0
 79 81  1  0  0  0
 79 83  2  0  0  0
 80149  1  0  0  0
 80150  1  0  0  0
 81151  1  0  0  0
 82152  1  0  0  0
M  ISO  4   1 100  68 101  80 101  82 100
M  END
> <chiral flag>
0

> <version>
0

> <s_m_source_file>
/data/baiqing/PycharmProjects/Reinvent-master-3.2/result/LINK_invent/BTK/process_docking_weight1_custom_product_contain_oxygen_bond_distance_aromatic_linkinvent_7_9_3/rearranged_h_0058.sdf

> <i_m_source_file_index>
13

> <r_mmod_Potential_Energy-OPLS-2005>
-46.9510383605957

> <r_mmod_Stretch_Energy-OPLS-2005>
54.3290557861328

> <r_mmod_Bend_Energy-OPLS-2005>
114.597793579102

> <r_mmod_Torsional_Energy-OPLS-2005>
286.386901855469

> <r_mmod_Improper_Torsional_Energy-OPLS-2005>
8.94095706939697

> <r_mmod_Van_der_Waal_Energy-OPLS-2005>
148.197036743164

> <r_mmod_Electrostatic_Energy-OPLS-2005>
-455.731384277344

> <r_mmod_Solvation_Energy-OPLS-2005>
-234.665405273438

> <b_mmod_Minimization_Converged-OPLS-2005>
0

> <r_mmod_RMS_Derivative-OPLS-2005>
0.379589855670929

$$$$
13
                    3D
 Structure written by MMmdl.
161170  0  0  1  0            999 V2000
  -30.6195  -14.6535   20.4988 C   0  0  0  0  0  0
  -30.4409  -12.4011   19.4554 C   0  0  0  0  0  0
  -29.5092  -12.5097   18.2273 C   0  0  0  0  0  0
  -28.0326  -12.3449   18.6397 C   0  0  0  0  0  0
  -27.6543  -13.2176   19.8658 C   0  0  2  0  0  0
  -28.6996  -13.0764   20.9957 C   0  0  0  0  0  0
  -25.2565  -13.8173   20.5693 C   0  0  0  0  0  0
  -24.1831  -13.0438   20.9196 C   0  0  0  0  0  0
  -24.6399  -11.6908   20.8744 C   0  0  0  0  0  0
  -23.9066  -10.4292   21.0408 C   0  0  0  0  0  0
  -24.3616   -9.4207   21.9186 C   0  0  0  0  0  0
  -23.6290   -8.2243   22.0755 C   0  0  0  0  0  0
  -22.4273   -8.0281   21.3544 C   0  0  0  0  0  0
  -21.9909   -9.0256   20.4647 C   0  0  0  0  0  0
  -22.7238  -10.2136   20.3057 C   0  0  0  0  0  0
  -21.6853   -6.0736   22.5278 C   0  0  0  0  0  0
  -21.4013   -6.5640   23.8211 C   0  0  0  0  0  0
  -21.3658   -5.6792   24.9173 C   0  0  0  0  0  0
  -21.6045   -4.3055   24.7224 C   0  0  0  0  0  0
  -21.8819   -3.8147   23.4345 C   0  0  0  0  0  0
  -21.9192   -4.6963   22.3401 C   0  0  0  0  0  0
  -22.7852  -13.5232   21.1854 C   0  0  0  0  0  0
  -22.1662   -4.2149   21.0979 F   0  0  0  0  0  0
  -21.5629   -3.4538   25.7736 F   0  0  0  0  0  0
  -30.0143  -13.4238   20.4324 N   0  0  0  0  0  0
  -26.2996  -12.9355   20.3334 N   0  0  0  0  0  0
  -25.9330  -11.6509   20.5767 N   0  0  0  0  0  0
  -22.0489  -12.8226   22.0409 N   0  0  0  0  0  0
  -25.4276  -15.1894   20.4103 N   0  0  0  0  0  0
  -31.7806  -14.8117   20.1099 O   0  0  0  0  0  0
  -21.6639   -6.8878   21.4239 O   0  0  0  0  0  0
  -22.3540  -14.5539   20.6701 O   0  0  0  0  0  0
  -24.6267  -31.8597   23.2025 C   0  0  0  0  0  0
  -25.9109  -32.4781   23.8355 C   0  0  1  0  0  0
  -27.2240  -27.3126   20.1150 C   0  0  0  0  0  0
  -25.5927  -33.8581   24.2281 N   0  0  0  0  0  0
  -23.4209  -30.4838   21.5454 C   0  0  2  0  0  0
  -24.8678  -28.9410   20.1096 C   0  0  0  0  0  0
  -22.7481  -29.4620   22.4930 C   0  0  0  0  0  0
  -18.0286  -28.1385   22.8487 C   0  0  0  0  0  0
  -24.1489  -36.7288   23.2639 C   0  0  0  0  0  0
  -25.9635  -30.7878   21.3759 C   0  0  0  0  0  0
  -26.0376  -29.4156   20.7163 C   0  0  0  0  0  0
  -27.2181  -28.6129   20.7105 C   0  0  0  0  0  0
  -26.0307  -26.8990   19.4754 C   0  0  0  0  0  0
  -24.8670  -27.6883   19.4802 C   0  0  0  0  0  0
  -23.6362  -29.8209   20.1601 C   0  0  0  0  0  0
  -25.4115  -36.3084   24.0331 C   0  0  1  0  0  0
  -20.5888  -28.3688   23.1281 C   0  0  2  0  0  0
  -20.6775  -26.9411   22.5409 C   0  0  0  0  0  0
  -19.5750  -26.6386   21.5212 C   0  0  0  0  0  0
  -18.1931  -26.7928   22.1624 C   0  0  0  0  0  0
  -19.1540  -28.8853   23.2879 C   0  0  0  0  0  0
  -18.9463  -30.1455   23.8895 C   0  0  0  0  0  0
  -17.6463  -30.6588   24.0564 C   0  0  0  0  0  0
  -25.9054  -34.9454   23.5105 C   0  0  0  0  0  0
  -16.5353  -29.9087   23.6332 C   0  0  0  0  0  0
  -16.7273  -28.6504   23.0353 C   0  0  0  0  0  0
  -26.4493  -31.6592   25.0725 C   0  0  0  0  0  0
  -25.3725  -31.3726   26.1451 C   0  0  0  0  0  0
  -27.0337  -30.3018   24.6180 C   0  0  0  0  0  0
  -27.6051  -32.4328   25.7496 C   0  0  0  0  0  0
  -27.5579  -37.1801   24.8464 C   0  0  0  0  0  0
  -21.4192  -29.3041   22.3674 N   0  0  0  0  0  0
  -26.4290  -37.3781   23.9411 N   0  0  0  0  0  0
  -24.6892  -31.0600   22.0982 N   0  0  0  0  0  0
  -23.4203  -28.8159   23.3010 O   0  0  0  0  0  0
  -28.3344  -26.4501   20.1788 O   0  0  0  0  0  0
  -26.5619  -34.8920   22.4669 O   0  0  0  0  0  0
  -23.5426  -32.1397   23.7347 O   0  0  0  0  0  0
  -30.9701  -19.2882   20.0044 C   0  0  0  0  0  0
  -28.8812  -19.4056   21.1686 C   0  0  0  0  0  0
  -30.9603  -17.8620   20.0872 C   0  0  0  0  0  0
  -28.8654  -17.9782   21.2508 C   0  0  0  0  0  0
  -29.9469  -20.1168   20.5587 C   0  0  0  0  0  0
  -29.9087  -17.1593   20.7317 C   0  0  0  0  0  0
  -29.1388  -23.9370   20.5252 C   0  0  0  0  0  0
  -29.1055  -22.5792   20.2085 C   0  0  0  0  0  0
  -31.1271  -22.5736   22.5754 C   0  0  0  0  0  0
  -30.1706  -24.5736   21.4614 C   0  0  0  0  0  0
  -31.3427  -21.9470   21.1989 C   0  0  0  0  0  0
  -28.0034  -22.0640   19.2889 C   0  0  0  0  0  0
  -28.0943  -24.9932   19.9903 C   0  0  0  0  0  0
  -30.5332  -23.7658   22.6227 N   0  0  0  0  0  0
  -30.0568  -21.5635   20.5935 N   0  0  0  0  0  0
  -29.8122  -15.7002   20.8716 N   0  0  0  0  0  0
  -31.4601  -21.9770   23.5988 O   0  0  0  0  0  0
  -31.4812  -12.5296   19.1514 H   0  0  0  0  0  0
  -30.3807  -11.4062   19.8991 H   0  0  0  0  0  0
  -29.7754  -11.7569   17.4841 H   0  0  0  0  0  0
  -29.6483  -13.4783   17.7443 H   0  0  0  0  0  0
  -27.8725  -11.2919   18.8743 H   0  0  0  0  0  0
  -27.3766  -12.5710   17.7985 H   0  0  0  0  0  0
  -27.6715  -14.2526   19.5235 H   0  0  0  0  0  0
  -28.7144  -12.0547   21.3783 H   0  0  0  0  0  0
  -28.4427  -13.7074   21.8478 H   0  0  0  0  0  0
  -25.2761   -9.5682   22.4761 H   0  0  0  0  0  0
  -23.9998   -7.4633   22.7474 H   0  0  0  0  0  0
  -21.0840   -8.8776   19.8954 H   0  0  0  0  0  0
  -22.3697  -10.9675   19.6167 H   0  0  0  0  0  0
  -21.2006   -7.6147   23.9713 H   0  0  0  0  0  0
  -21.1480   -6.0523   25.9076 H   0  0  0  0  0  0
  -22.0600   -2.7609   23.2844 H   0  0  0  0  0  0
  -22.4099  -11.9883   22.4793 H   0  0  0  0  0  0
  -21.1110  -13.1259   22.2617 H   0  0  0  0  0  0
  -24.6576  -15.8413   20.5131 H   0  0  0  0  0  0
  -26.2707  -15.6267   20.0607 H   0  0  0  0  0  0
  -26.7174  -32.5445   23.1100 H   0  0  0  0  0  0
  -25.0082  -33.9728   25.0432 H   0  0  0  0  0  0
  -22.7149  -31.3045   21.4028 H   0  0  0  0  0  0
  -23.3758  -35.9615   23.3305 H   0  0  0  0  0  0
  -24.3582  -36.8905   22.2053 H   0  0  0  0  0  0
  -23.7237  -37.6490   23.6657 H   0  0  0  0  0  0
  -26.0964  -31.5518   20.6087 H   0  0  0  0  0  0
  -26.8434  -30.8352   22.0058 H   0  0  0  0  0  0
  -28.1135  -28.9704   21.1997 H   0  0  0  0  0  0
  -25.9636  -25.9460   18.9723 H   0  0  0  0  0  0
  -23.9718  -27.3209   18.9971 H   0  0  0  0  0  0
  -23.7559  -30.5985   19.4048 H   0  0  0  0  0  0
  -22.7561  -29.2507   19.8571 H   0  0  0  0  0  0
  -25.1298  -36.1935   25.0825 H   0  0  0  0  0  0
  -20.9979  -28.3260   24.1402 H   0  0  0  0  0  0
  -20.5678  -26.2296   23.3609 H   0  0  0  0  0  0
  -21.6644  -26.7443   22.1200 H   0  0  0  0  0  0
  -19.6914  -25.6298   21.1239 H   0  0  0  0  0  0
  -19.6689  -27.3198   20.6744 H   0  0  0  0  0  0
  -17.4202  -26.6677   21.4025 H   0  0  0  0  0  0
  -18.0329  -26.0069   22.9020 H   0  0  0  0  0  0
  -19.7940  -30.7272   24.2262 H   0  0  0  0  0  0
  -17.5019  -31.6267   24.5167 H   0  0  0  0  0  0
  -15.5353  -30.2991   23.7658 H   0  0  0  0  0  0
  -15.8673  -28.0825   22.7069 H   0  0  0  0  0  0
  -24.5905  -30.7070   25.7780 H   0  0  0  0  0  0
  -24.8907  -32.2886   26.4875 H   0  0  0  0  0  0
  -25.8050  -30.8908   27.0228 H   0  0  0  0  0  0
  -26.2912  -29.6770   24.1201 H   0  0  0  0  0  0
  -27.4036  -29.7273   25.4682 H   0  0  0  0  0  0
  -27.8782  -30.4313   23.9407 H   0  0  0  0  0  0
  -27.2663  -33.3631   26.2067 H   0  0  0  0  0  0
  -28.3862  -32.6884   25.0324 H   0  0  0  0  0  0
  -28.0716  -31.8456   26.5416 H   0  0  0  0  0  0
  -28.2595  -38.0101   24.7520 H   0  0  0  0  0  0
  -28.1076  -36.2632   24.6280 H   0  0  0  0  0  0
  -27.2295  -37.1437   25.8866 H   0  0  0  0  0  0
  -20.9366  -29.8770   21.6893 H   0  0  0  0  0  0
  -26.0170  -38.2854   24.1421 H   0  0  0  0  0  0
  -31.8104  -19.7549   19.5109 H   0  0  0  0  0  0
  -28.0716  -19.9622   21.6178 H   0  0  0  0  0  0
  -31.7855  -17.3204   19.6483 H   0  0  0  0  0  0
  -28.0259  -17.5113   21.7464 H   0  0  0  0  0  0
  -29.7700  -25.4989   21.8744 H   0  0  0  0  0  0
  -31.0552  -24.8588   20.8903 H   0  0  0  0  0  0
  -32.0448  -21.1247   21.3391 H   0  0  0  0  0  0
  -31.8618  -22.6473   20.5436 H   0  0  0  0  0  0
  -28.0006  -22.6195   18.3510 H   0  0  0  0  0  0
  -27.0287  -22.1899   19.7613 H   0  0  0  0  0  0
  -28.1025  -21.0148   19.0159 H   0  0  0  0  0  0
  -27.1605  -24.7281   20.4884 H   0  0  0  0  0  0
  -27.9486  -24.8190   18.9246 H   0  0  0  0  0  0
  -30.3676  -24.1693   23.5352 H   0  0  0  0  0  0
  -28.9269  -15.3788   21.2320 H   0  0  0  0  0  0
  1 25  1  0  0  0
  1 30  2  0  0  0
  1 86  1  0  0  0
  2  3  1  0  0  0
  2 25  1  0  0  0
  2 88  1  0  0  0
  2 89  1  0  0  0
  3  4  1  0  0  0
  3 90  1  0  0  0
  3 91  1  0  0  0
  4  5  1  0  0  0
  4 92  1  0  0  0
  4 93  1  0  0  0
  5  6  1  0  0  0
  5 26  1  0  0  0
  5 94  1  0  0  0
  6 25  1  0  0  0
  6 95  1  0  0  0
  6 96  1  0  0  0
  7  8  2  0  0  0
  7 26  1  0  0  0
  7 29  1  0  0  0
  8  9  1  0  0  0
  8 22  1  0  0  0
  9 10  1  0  0  0
  9 27  2  0  0  0
 10 11  2  0  0  0
 10 15  1  0  0  0
 11 12  1  0  0  0
 11 97  1  0  0  0
 12 13  2  0  0  0
 12 98  1  0  0  0
 13 14  1  0  0  0
 13 31  1  0  0  0
 14 15  2  0  0  0
 14 99  1  0  0  0
 15100  1  0  0  0
 16 17  2  0  0  0
 16 21  1  0  0  0
 16 31  1  0  0  0
 17 18  1  0  0  0
 17101  1  0  0  0
 18 19  2  0  0  0
 18102  1  0  0  0
 19 20  1  0  0  0
 19 24  1  0  0  0
 20 21  2  0  0  0
 20103  1  0  0  0
 21 23  1  0  0  0
 22 28  1  0  0  0
 22 32  2  0  0  0
 26 27  1  0  0  0
 28104  1  0  0  0
 28105  1  0  0  0
 29106  1  0  0  0
 29107  1  0  0  0
 33 34  1  0  0  0
 33 66  1  0  0  0
 33 70  2  0  0  0
 34 36  1  0  0  0
 34 59  1  0  0  0
 34108  1  0  0  0
 35 44  2  0  0  0
 35 45  1  0  0  0
 35 68  1  0  0  0
 36 56  1  0  0  0
 36109  1  0  0  0
 37 39  1  0  0  0
 37 47  1  0  0  0
 37 66  1  0  0  0
 37110  1  0  0  0
 38 43  2  0  0  0
 38 46  1  0  0  0
 38 47  1  0  0  0
 39 64  1  0  0  0
 39 67  2  0  0  0
 40 52  1  0  0  0
 40 53  2  0  0  0
 40 58  1  0  0  0
 41111  1  0  0  0
 41112  1  0  0  0
 41113  1  0  0  0
 41 48  1  0  0  0
 42 43  1  0  0  0
 42 66  1  0  0  0
 42114  1  0  0  0
 42115  1  0  0  0
 43 44  1  0  0  0
 44116  1  0  0  0
 45 46  2  0  0  0
 45117  1  0  0  0
 46118  1  0  0  0
 47119  1  0  0  0
 47120  1  0  0  0
 48 56  1  0  0  0
 48 65  1  0  0  0
 48121  1  0  0  0
 49 50  1  0  0  0
 49 53  1  0  0  0
 49 64  1  0  0  0
 49122  1  0  0  0
 50 51  1  0  0  0
 50123  1  0  0  0
 50124  1  0  0  0
 51 52  1  0  0  0
 51125  1  0  0  0
 51126  1  0  0  0
 52127  1  0  0  0
 52128  1  0  0  0
 53 54  1  0  0  0
 54 55  2  0  0  0
 54129  1  0  0  0
 55 57  1  0  0  0
 55130  1  0  0  0
 56 69  2  0  0  0
 57 58  2  0  0  0
 57131  1  0  0  0
 58132  1  0  0  0
 59 60  1  0  0  0
 59 61  1  0  0  0
 59 62  1  0  0  0
 60133  1  0  0  0
 60134  1  0  0  0
 60135  1  0  0  0
 61136  1  0  0  0
 61137  1  0  0  0
 61138  1  0  0  0
 62139  1  0  0  0
 62140  1  0  0  0
 62141  1  0  0  0
 63 65  1  0  0  0
 63142  1  0  0  0
 63143  1  0  0  0
 63144  1  0  0  0
 64145  1  0  0  0
 65146  1  0  0  0
 68 83  1  0  0  0
 71 73  2  0  0  0
 71 75  1  0  0  0
 71147  1  0  0  0
 72 74  1  0  0  0
 72 75  2  0  0  0
 72148  1  0  0  0
 73 76  1  0  0  0
 73149  1  0  0  0
 74 76  2  0  0  0
 74150  1  0  0  0
 75 85  1  0  0  0
 76 86  1  0  0  0
 77 78  2  0  0  0
 77 80  1  0  0  0
 77 83  1  0  0  0
 78 82  1  0  0  0
 78 85  1  0  0  0
 79 81  1  0  0  0
 79 84  1  0  0  0
 79 87  2  0  0  0
 80 84  1  0  0  0
 80151  1  0  0  0
 80152  1  0  0  0
 81 85  1  0  0  0
 81153  1  0  0  0
 81154  1  0  0  0
 82155  1  0  0  0
 82156  1  0  0  0
 82157  1  0  0  0
 83158  1  0  0  0
 83159  1  0  0  0
 84160  1  0  0  0
 86161  1  0  0  0
M  ISO  4   1 100  68 101  83 101  86 100
M  END
> <chiral flag>
0

> <version>
0

> <s_m_source_file>
/data/baiqing/PycharmProjects/Reinvent-master-3.2/result/LINK_invent/BTK/process_docking_weight1_custom_product_contain_oxygen_bond_distance_aromatic_linkinvent_7_9_3/rearranged_h_0058.sdf

> <i_m_source_file_index>
14

> <r_mmod_Potential_Energy-OPLS-2005>
58.7360496520996

> <r_mmod_Stretch_Energy-OPLS-2005>
93.5314865112305

> <r_mmod_Bend_Energy-OPLS-2005>
144.772369384766

> <r_mmod_Torsional_Energy-OPLS-2005>
256.209686279297

> <r_mmod_Improper_Torsional_Energy-OPLS-2005>
4.254638671875

> <r_mmod_Van_der_Waal_Energy-OPLS-2005>
168.831390380859

> <r_mmod_Electrostatic_Energy-OPLS-2005>
-424.557281494141

> <r_mmod_Solvation_Energy-OPLS-2005>
-237.238479614258

> <b_mmod_Minimization_Converged-OPLS-2005>
0

> <r_mmod_RMS_Derivative-OPLS-2005>
0.397827625274658

$$$$
14
                    3D
 Structure written by MMmdl.
164173  0  0  1  0            999 V2000
  -30.7052  -14.4466   20.5641 C   0  0  0  0  0  0
  -30.4232  -12.2882   19.4249 C   0  0  0  0  0  0
  -29.4997  -12.5113   18.2085 C   0  0  0  0  0  0
  -28.0195  -12.3743   18.6170 C   0  0  0  0  0  0
  -27.6680  -13.2045   19.8808 C   0  0  2  0  0  0
  -28.7073  -12.9711   21.0023 C   0  0  0  0  0  0
  -25.2608  -13.8156   20.5667 C   0  0  0  0  0  0
  -24.1845  -13.0444   20.9150 C   0  0  0  0  0  0
  -24.6390  -11.6910   20.8706 C   0  0  0  0  0  0
  -23.9055  -10.4302   21.0392 C   0  0  0  0  0  0
  -24.3612   -9.4218   21.9167 C   0  0  0  0  0  0
  -23.6290   -8.2253   22.0749 C   0  0  0  0  0  0
  -22.4268   -8.0292   21.3551 C   0  0  0  0  0  0
  -21.9892   -9.0258   20.4651 C   0  0  0  0  0  0
  -22.7223  -10.2135   20.3048 C   0  0  0  0  0  0
  -21.6859   -6.0733   22.5278 C   0  0  0  0  0  0
  -21.4025   -6.5634   23.8213 C   0  0  0  0  0  0
  -21.3655   -5.6783   24.9172 C   0  0  0  0  0  0
  -21.6040   -4.3047   24.7226 C   0  0  0  0  0  0
  -21.8821   -3.8146   23.4345 C   0  0  0  0  0  0
  -21.9195   -4.6960   22.3401 C   0  0  0  0  0  0
  -22.7870  -13.5251   21.1823 C   0  0  0  0  0  0
  -22.1660   -4.2147   21.0975 F   0  0  0  0  0  0
  -21.5626   -3.4529   25.7736 F   0  0  0  0  0  0
  -30.0441  -13.2635   20.4583 N   0  0  0  0  0  0
  -26.3054  -12.9326   20.3373 N   0  0  0  0  0  0
  -25.9320  -11.6482   20.5743 N   0  0  0  0  0  0
  -22.0508  -12.8253   22.0390 N   0  0  0  0  0  0
  -25.4343  -15.1877   20.4109 N   0  0  0  0  0  0
  -31.8311  -14.6334   20.0928 O   0  0  0  0  0  0
  -21.6641   -6.8879   21.4246 O   0  0  0  0  0  0
  -22.3553  -14.5556   20.6671 O   0  0  0  0  0  0
  -24.6156  -31.8703   23.2144 C   0  0  0  0  0  0
  -25.9051  -32.4837   23.8427 C   0  0  1  0  0  0
  -27.2225  -27.4257   20.0812 C   0  0  0  0  0  0
  -25.5913  -33.8634   24.2349 N   0  0  0  0  0  0
  -23.4028  -30.4990   21.5555 C   0  0  2  0  0  0
  -24.8443  -28.9738   20.1139 C   0  0  0  0  0  0
  -22.7415  -29.4675   22.4988 C   0  0  0  0  0  0
  -18.0275  -28.1383   22.8480 C   0  0  0  0  0  0
  -24.1491  -36.7314   23.2633 C   0  0  0  0  0  0
  -25.9374  -30.8286   21.3757 C   0  0  0  0  0  0
  -26.0090  -29.4666   20.7154 C   0  0  0  0  0  0
  -27.1985  -28.6978   20.7027 C   0  0  0  0  0  0
  -26.0333  -26.9682   19.4568 C   0  0  0  0  0  0
  -24.8513  -27.7223   19.4855 C   0  0  0  0  0  0
  -23.6104  -29.8428   20.1668 C   0  0  0  0  0  0
  -25.4111  -36.3118   24.0337 C   0  0  1  0  0  0
  -20.5867  -28.3668   23.1305 C   0  0  2  0  0  0
  -20.6766  -26.9402   22.5411 C   0  0  0  0  0  0
  -19.5748  -26.6386   21.5201 C   0  0  0  0  0  0
  -18.1922  -26.7929   22.1609 C   0  0  0  0  0  0
  -19.1524  -28.8840   23.2893 C   0  0  0  0  0  0
  -18.9454  -30.1440   23.8913 C   0  0  0  0  0  0
  -17.6460  -30.6584   24.0564 C   0  0  0  0  0  0
  -25.9036  -34.9484   23.5136 C   0  0  0  0  0  0
  -16.5349  -29.9090   23.6325 C   0  0  0  0  0  0
  -16.7262  -28.6505   23.0346 C   0  0  0  0  0  0
  -26.4474  -31.6622   25.0759 C   0  0  0  0  0  0
  -25.3737  -31.3761   26.1513 C   0  0  0  0  0  0
  -27.0276  -30.3045   24.6162 C   0  0  0  0  0  0
  -27.6065  -32.4338   25.7499 C   0  0  0  0  0  0
  -27.5589  -37.1807   24.8458 C   0  0  0  0  0  0
  -21.4143  -29.3040   22.3715 N   0  0  0  0  0  0
  -26.4300  -37.3800   23.9409 N   0  0  0  0  0  0
  -24.6699  -31.0799   22.1056 N   0  0  0  0  0  0
  -23.4185  -28.8194   23.3013 O   0  0  0  0  0  0
  -28.3829  -26.6647   20.1100 O   0  0  0  0  0  0
  -26.5586  -34.8929   22.4689 O   0  0  0  0  0  0
  -23.5347  -32.1466   23.7530 O   0  0  0  0  0  0
  -29.9745  -19.2070   20.7175 C   0  0  0  0  0  0
  -30.0382  -17.9243   21.3096 C   0  0  0  0  0  0
  -29.7428  -16.9088   19.1212 C   0  0  0  0  0  0
  -29.7992  -19.3526   19.3203 C   0  0  0  0  0  0
  -29.6651  -18.1833   18.5269 C   0  0  0  0  0  0
  -29.9478  -16.7631   20.5098 C   0  0  0  0  0  0
  -31.4207  -22.2534   19.5355 C   0  0  0  0  0  0
  -31.7950  -23.6691   19.9931 C   0  0  0  0  0  0
  -30.7626  -24.7237   19.5652 C   0  0  0  0  0  0
  -29.0054  -22.8993   19.5832 C   0  0  0  0  0  0
  -29.3788  -24.3245   20.0796 C   0  0  2  0  0  0
  -29.4381  -18.2635   17.0252 C   0  0  0  0  0  0
  -29.7098  -20.7262   18.6387 C   0  0  0  0  0  0
  -28.2569  -25.3025   19.6679 C   0  0  0  0  0  0
  -30.1105  -21.9381   19.3834 N   0  0  0  0  0  0
  -29.9983  -15.4630   21.0906 N   0  0  0  0  0  0
  -32.3331  -21.4586   19.2934 O   0  0  0  0  0  0
  -31.4702  -12.3747   19.1280 H   0  0  0  0  0  0
  -30.3078  -11.2747   19.8101 H   0  0  0  0  0  0
  -29.7352  -11.7969   17.4184 H   0  0  0  0  0  0
  -29.6761  -13.5013   17.7856 H   0  0  0  0  0  0
  -27.8245  -11.3182   18.8028 H   0  0  0  0  0  0
  -27.3735  -12.6617   17.7864 H   0  0  0  0  0  0
  -27.7191  -14.2549   19.5933 H   0  0  0  0  0  0
  -28.6731  -11.9328   21.3363 H   0  0  0  0  0  0
  -28.4743  -13.5668   21.8858 H   0  0  0  0  0  0
  -25.2767   -9.5685   22.4726 H   0  0  0  0  0  0
  -24.0005   -7.4641   22.7459 H   0  0  0  0  0  0
  -21.0822   -8.8771   19.8964 H   0  0  0  0  0  0
  -22.3683  -10.9661   19.6148 H   0  0  0  0  0  0
  -21.2019   -7.6142   23.9716 H   0  0  0  0  0  0
  -21.1473   -6.0514   25.9072 H   0  0  0  0  0  0
  -22.0601   -2.7612   23.2849 H   0  0  0  0  0  0
  -22.4134  -11.9935   22.4802 H   0  0  0  0  0  0
  -21.1128  -13.1293   22.2587 H   0  0  0  0  0  0
  -24.6722  -15.8459   20.5309 H   0  0  0  0  0  0
  -26.2930  -15.6298   20.1075 H   0  0  0  0  0  0
  -26.7119  -32.5534   23.1186 H   0  0  0  0  0  0
  -25.0095  -33.9811   25.0513 H   0  0  0  0  0  0
  -22.6916  -31.3165   21.4212 H   0  0  0  0  0  0
  -23.3758  -35.9642   23.3307 H   0  0  0  0  0  0
  -24.3584  -36.8915   22.2045 H   0  0  0  0  0  0
  -23.7243  -37.6523   23.6636 H   0  0  0  0  0  0
  -26.0643  -31.5992   20.6139 H   0  0  0  0  0  0
  -26.8199  -30.8696   22.0023 H   0  0  0  0  0  0
  -28.0943  -29.0701   21.1798 H   0  0  0  0  0  0
  -25.9766  -26.0270   18.9314 H   0  0  0  0  0  0
  -23.9577  -27.3403   19.0110 H   0  0  0  0  0  0
  -23.7256  -30.6226   19.4132 H   0  0  0  0  0  0
  -22.7322  -29.2694   19.8639 H   0  0  0  0  0  0
  -25.1288  -36.1993   25.0830 H   0  0  0  0  0  0
  -20.9954  -28.3241   24.1428 H   0  0  0  0  0  0
  -20.5657  -26.2277   23.3600 H   0  0  0  0  0  0
  -21.6643  -26.7443   22.1216 H   0  0  0  0  0  0
  -19.6912  -25.6296   21.1229 H   0  0  0  0  0  0
  -19.6694  -27.3197   20.6731 H   0  0  0  0  0  0
  -17.4193  -26.6674   21.4010 H   0  0  0  0  0  0
  -18.0324  -26.0072   22.9005 H   0  0  0  0  0  0
  -19.7934  -30.7243   24.2303 H   0  0  0  0  0  0
  -17.5020  -31.6268   24.5162 H   0  0  0  0  0  0
  -15.5352  -30.2999   23.7642 H   0  0  0  0  0  0
  -15.8659  -28.0826   22.7068 H   0  0  0  0  0  0
  -24.5906  -30.7100   25.7880 H   0  0  0  0  0  0
  -24.8929  -32.2925   26.4944 H   0  0  0  0  0  0
  -25.8091  -30.8961   27.0285 H   0  0  0  0  0  0
  -26.2812  -29.6840   24.1187 H   0  0  0  0  0  0
  -27.3978  -29.7269   25.4643 H   0  0  0  0  0  0
  -27.8696  -30.4338   23.9357 H   0  0  0  0  0  0
  -27.2699  -33.3627   26.2122 H   0  0  0  0  0  0
  -28.3837  -32.6925   25.0292 H   0  0  0  0  0  0
  -28.0777  -31.8439   26.5374 H   0  0  0  0  0  0
  -28.2618  -38.0094   24.7508 H   0  0  0  0  0  0
  -28.1075  -36.2630   24.6277 H   0  0  0  0  0  0
  -27.2307  -37.1460   25.8860 H   0  0  0  0  0  0
  -20.9297  -29.8784   21.6960 H   0  0  0  0  0  0
  -26.0197  -38.2878   24.1420 H   0  0  0  0  0  0
  -30.0560  -20.0807   21.3493 H   0  0  0  0  0  0
  -30.1707  -17.8407   22.3793 H   0  0  0  0  0  0
  -29.6358  -16.0328   18.4953 H   0  0  0  0  0  0
  -32.7727  -23.9280   19.5848 H   0  0  0  0  0  0
  -31.9015  -23.6600   21.0784 H   0  0  0  0  0  0
  -30.7522  -24.8183   18.4781 H   0  0  0  0  0  0
  -31.0425  -25.7006   19.9611 H   0  0  0  0  0  0
  -28.4977  -22.9992   18.6219 H   0  0  0  0  0  0
  -28.2738  -22.4577   20.2619 H   0  0  0  0  0  0
  -29.4226  -24.3028   21.1701 H   0  0  0  0  0  0
  -29.1869  -17.2883   16.6067 H   0  0  0  0  0  0
  -30.3389  -18.6158   16.5221 H   0  0  0  0  0  0
  -28.6161  -18.9383   16.7853 H   0  0  0  0  0  0
  -28.6801  -20.8259   18.2927 H   0  0  0  0  0  0
  -30.3077  -20.6966   17.7263 H   0  0  0  0  0  0
  -27.3474  -24.8671   20.0859 H   0  0  0  0  0  0
  -28.1544  -25.3039   18.5810 H   0  0  0  0  0  0
  -29.1914  -15.1962   21.6347 H   0  0  0  0  0  0
  1 25  1  0  0  0
  1 30  2  0  0  0
  1 86  1  0  0  0
  2  3  1  0  0  0
  2 25  1  0  0  0
  2 88  1  0  0  0
  2 89  1  0  0  0
  3  4  1  0  0  0
  3 90  1  0  0  0
  3 91  1  0  0  0
  4  5  1  0  0  0
  4 92  1  0  0  0
  4 93  1  0  0  0
  5  6  1  0  0  0
  5 26  1  0  0  0
  5 94  1  0  0  0
  6 25  1  0  0  0
  6 95  1  0  0  0
  6 96  1  0  0  0
  7  8  2  0  0  0
  7 26  1  0  0  0
  7 29  1  0  0  0
  8  9  1  0  0  0
  8 22  1  0  0  0
  9 10  1  0  0  0
  9 27  2  0  0  0
 10 11  2  0  0  0
 10 15  1  0  0  0
 11 12  1  0  0  0
 11 97  1  0  0  0
 12 13  2  0  0  0
 12 98  1  0  0  0
 13 14  1  0  0  0
 13 31  1  0  0  0
 14 15  2  0  0  0
 14 99  1  0  0  0
 15100  1  0  0  0
 16 17  2  0  0  0
 16 21  1  0  0  0
 16 31  1  0  0  0
 17 18  1  0  0  0
 17101  1  0  0  0
 18 19  2  0  0  0
 18102  1  0  0  0
 19 20  1  0  0  0
 19 24  1  0  0  0
 20 21  2  0  0  0
 20103  1  0  0  0
 21 23  1  0  0  0
 22 28  1  0  0  0
 22 32  2  0  0  0
 26 27  1  0  0  0
 28104  1  0  0  0
 28105  1  0  0  0
 29106  1  0  0  0
 29107  1  0  0  0
 33 34  1  0  0  0
 33 66  1  0  0  0
 33 70  2  0  0  0
 34 36  1  0  0  0
 34 59  1  0  0  0
 34108  1  0  0  0
 35 44  2  0  0  0
 35 45  1  0  0  0
 35 68  1  0  0  0
 36 56  1  0  0  0
 36109  1  0  0  0
 37 39  1  0  0  0
 37 47  1  0  0  0
 37 66  1  0  0  0
 37110  1  0  0  0
 38 43  2  0  0  0
 38 46  1  0  0  0
 38 47  1  0  0  0
 39 64  1  0  0  0
 39 67  2  0  0  0
 40 52  1  0  0  0
 40 53  2  0  0  0
 40 58  1  0  0  0
 41111  1  0  0  0
 41112  1  0  0  0
 41113  1  0  0  0
 41 48  1  0  0  0
 42 43  1  0  0  0
 42 66  1  0  0  0
 42114  1  0  0  0
 42115  1  0  0  0
 43 44  1  0  0  0
 44116  1  0  0  0
 45 46  2  0  0  0
 45117  1  0  0  0
 46118  1  0  0  0
 47119  1  0  0  0
 47120  1  0  0  0
 48 56  1  0  0  0
 48 65  1  0  0  0
 48121  1  0  0  0
 49 50  1  0  0  0
 49 53  1  0  0  0
 49 64  1  0  0  0
 49122  1  0  0  0
 50 51  1  0  0  0
 50123  1  0  0  0
 50124  1  0  0  0
 51 52  1  0  0  0
 51125  1  0  0  0
 51126  1  0  0  0
 52127  1  0  0  0
 52128  1  0  0  0
 53 54  1  0  0  0
 54 55  2  0  0  0
 54129  1  0  0  0
 55 57  1  0  0  0
 55130  1  0  0  0
 56 69  2  0  0  0
 57 58  2  0  0  0
 57131  1  0  0  0
 58132  1  0  0  0
 59 60  1  0  0  0
 59 61  1  0  0  0
 59 62  1  0  0  0
 60133  1  0  0  0
 60134  1  0  0  0
 60135  1  0  0  0
 61136  1  0  0  0
 61137  1  0  0  0
 61138  1  0  0  0
 62139  1  0  0  0
 62140  1  0  0  0
 62141  1  0  0  0
 63 65  1  0  0  0
 63142  1  0  0  0
 63143  1  0  0  0
 63144  1  0  0  0
 64145  1  0  0  0
 65146  1  0  0  0
 68 84  1  0  0  0
 71 72  2  0  0  0
 71 74  1  0  0  0
 71147  1  0  0  0
 72 76  1  0  0  0
 72148  1  0  0  0
 73 75  1  0  0  0
 73 76  2  0  0  0
 73149  1  0  0  0
 74 75  2  0  0  0
 74 83  1  0  0  0
 75 82  1  0  0  0
 76 86  1  0  0  0
 77 78  1  0  0  0
 77 85  1  0  0  0
 77 87  2  0  0  0
 78 79  1  0  0  0
 78150  1  0  0  0
 78151  1  0  0  0
 79 81  1  0  0  0
 79152  1  0  0  0
 79153  1  0  0  0
 80 81  1  0  0  0
 80 85  1  0  0  0
 80154  1  0  0  0
 80155  1  0  0  0
 81 84  1  0  0  0
 81156  1  0  0  0
 82157  1  0  0  0
 82158  1  0  0  0
 82159  1  0  0  0
 83 85  1  0  0  0
 83160  1  0  0  0
 83161  1  0  0  0
 84162  1  0  0  0
 84163  1  0  0  0
 86164  1  0  0  0
M  ISO  4   1 100  68 101  84 101  86 100
M  END
> <chiral flag>
0

> <version>
0

> <s_m_source_file>
/data/baiqing/PycharmProjects/Reinvent-master-3.2/result/LINK_invent/BTK/process_docking_weight1_custom_product_contain_oxygen_bond_distance_aromatic_linkinvent_7_9_3/rearranged_h_0058.sdf

> <i_m_source_file_index>
15

> <r_mmod_Potential_Energy-OPLS-2005>
-3.8997905254364

> <r_mmod_Stretch_Energy-OPLS-2005>
40.3796463012695

> <r_mmod_Bend_Energy-OPLS-2005>
107.952590942383

> <r_mmod_Torsional_Energy-OPLS-2005>
255.981201171875

> <r_mmod_Improper_Torsional_Energy-OPLS-2005>
6.05240154266357

> <r_mmod_Van_der_Waal_Energy-OPLS-2005>
174.778076171875

> <r_mmod_Electrostatic_Energy-OPLS-2005>
-365.981536865234

> <r_mmod_Solvation_Energy-OPLS-2005>
-236.603149414062

> <b_mmod_Minimization_Converged-OPLS-2005>
0

> <r_mmod_RMS_Derivative-OPLS-2005>
1.46760964393616

$$$$
15
                    3D
 Structure written by MMmdl.
155163  0  0  1  0            999 V2000
  -30.6349  -14.7720   20.4540 C   0  0  0  0  0  0
  -30.4248  -12.4724   19.4833 C   0  0  0  0  0  0
  -29.5122  -12.5121   18.2386 C   0  0  0  0  0  0
  -28.0401  -12.3323   18.6522 C   0  0  0  0  0  0
  -27.6402  -13.2404   19.8469 C   0  0  2  0  0  0
  -28.6841  -13.2039   20.9844 C   0  0  0  0  0  0
  -25.2507  -13.8198   20.5677 C   0  0  0  0  0  0
  -24.1816  -13.0437   20.9210 C   0  0  0  0  0  0
  -24.6428  -11.6927   20.8756 C   0  0  0  0  0  0
  -23.9108  -10.4297   21.0416 C   0  0  0  0  0  0
  -24.3654   -9.4205   21.9194 C   0  0  0  0  0  0
  -23.6317   -8.2243   22.0756 C   0  0  0  0  0  0
  -22.4291   -8.0295   21.3551 C   0  0  0  0  0  0
  -21.9944   -9.0273   20.4647 C   0  0  0  0  0  0
  -22.7279  -10.2144   20.3062 C   0  0  0  0  0  0
  -21.6857   -6.0750   22.5296 C   0  0  0  0  0  0
  -21.4006   -6.5654   23.8224 C   0  0  0  0  0  0
  -21.3654   -5.6800   24.9186 C   0  0  0  0  0  0
  -21.6044   -4.3063   24.7232 C   0  0  0  0  0  0
  -21.8819   -3.8161   23.4352 C   0  0  0  0  0  0
  -21.9190   -4.6982   22.3406 C   0  0  0  0  0  0
  -22.7834  -13.5223   21.1873 C   0  0  0  0  0  0
  -22.1665   -4.2166   21.0987 F   0  0  0  0  0  0
  -21.5630   -3.4549   25.7742 F   0  0  0  0  0  0
  -29.9817  -13.5565   20.3970 N   0  0  0  0  0  0
  -26.2947  -12.9434   20.3260 N   0  0  0  0  0  0
  -25.9362  -11.6571   20.5740 N   0  0  0  0  0  0
  -22.0479  -12.8195   22.0419 N   0  0  0  0  0  0
  -25.4160  -15.1919   20.4063 N   0  0  0  0  0  0
  -31.8266  -14.7929   20.1389 O   0  0  0  0  0  0
  -21.6646   -6.8899   21.4253 O   0  0  0  0  0  0
  -22.3516  -14.5533   20.6726 O   0  0  0  0  0  0
  -24.6356  -31.8531   23.1991 C   0  0  0  0  0  0
  -25.9170  -32.4740   23.8333 C   0  0  1  0  0  0
  -27.2171  -27.2440   20.1356 C   0  0  0  0  0  0
  -25.5959  -33.8547   24.2253 N   0  0  0  0  0  0
  -23.4339  -30.4774   21.5404 C   0  0  2  0  0  0
  -24.8856  -28.9292   20.1021 C   0  0  0  0  0  0
  -22.7523  -29.4598   22.4881 C   0  0  0  0  0  0
  -18.0295  -28.1408   22.8503 C   0  0  0  0  0  0
  -24.1473  -36.7268   23.2634 C   0  0  0  0  0  0
  -25.9817  -30.7608   21.3836 C   0  0  0  0  0  0
  -26.0570  -29.3828   20.7253 C   0  0  0  0  0  0
  -27.2274  -28.5506   20.7386 C   0  0  0  0  0  0
  -26.0339  -26.8798   19.4560 C   0  0  0  0  0  0
  -24.8808  -27.6871   19.4532 C   0  0  0  0  0  0
  -23.6543  -29.8138   20.1558 C   0  0  0  0  0  0
  -25.4099  -36.3054   24.0322 C   0  0  1  0  0  0
  -20.5899  -28.3716   23.1243 C   0  0  2  0  0  0
  -20.6766  -26.9415   22.5398 C   0  0  0  0  0  0
  -19.5732  -26.6391   21.5200 C   0  0  0  0  0  0
  -18.1923  -26.7948   22.1635 C   0  0  0  0  0  0
  -19.1556  -28.8880   23.2878 C   0  0  0  0  0  0
  -18.9475  -30.1490   23.8889 C   0  0  0  0  0  0
  -17.6476  -30.6603   24.0573 C   0  0  0  0  0  0
  -25.9059  -34.9433   23.5080 C   0  0  0  0  0  0
  -16.5366  -29.9098   23.6358 C   0  0  0  0  0  0
  -16.7287  -28.6521   23.0371 C   0  0  0  0  0  0
  -26.4525  -31.6569   25.0736 C   0  0  0  0  0  0
  -25.3756  -31.3746   26.1475 C   0  0  0  0  0  0
  -27.0357  -30.2965   24.6246 C   0  0  0  0  0  0
  -27.6076  -32.4304   25.7519 C   0  0  0  0  0  0
  -27.5560  -37.1777   24.8465 C   0  0  0  0  0  0
  -21.4219  -29.3065   22.3626 N   0  0  0  0  0  0
  -26.4265  -37.3761   23.9428 N   0  0  0  0  0  0
  -24.7032  -31.0474   22.0981 N   0  0  0  0  0  0
  -23.4201  -28.8122   23.2985 O   0  0  0  0  0  0
  -28.2151  -26.2393   20.2419 O   0  0  0  0  0  0
  -26.5626  -34.8918   22.4643 O   0  0  0  0  0  0
  -23.5495  -32.1374   23.7251 O   0  0  0  0  0  0
  -32.0779  -19.0933   20.2954 C   0  0  0  0  0  0
  -31.1789  -20.1656   20.4080 C   0  0  0  0  0  0
  -31.6481  -17.7581   20.3692 C   0  0  0  0  0  0
  -29.7946  -19.9753   20.5919 C   0  0  0  0  0  0
  -29.3690  -18.5587   20.6673 C   0  0  0  0  0  0
  -30.2901  -17.4124   20.5634 C   0  0  0  0  0  0
  -28.9308  -21.2785   20.7502 C   0  0  0  0  0  0
  -28.0632  -23.6577   20.8979 C   0  0  0  0  0  0
  -27.7515  -25.0210   20.8390 C   0  0  0  0  0  0
  -29.0747  -22.6400   20.4134 C   0  0  0  0  0  0
  -27.8980  -18.2275   20.8718 C   0  0  0  0  0  0
  -30.2400  -23.1527   19.5877 C   0  0  0  0  0  0
  -29.9071  -15.9547   20.6561 N   0  0  0  0  0  0
  -31.4692  -12.5744   19.1839 H   0  0  0  0  0  0
  -30.3542  -11.5035   19.9805 H   0  0  0  0  0  0
  -29.8023  -11.7338   17.5315 H   0  0  0  0  0  0
  -29.6363  -13.4609   17.7146 H   0  0  0  0  0  0
  -27.9049  -11.2849   18.9234 H   0  0  0  0  0  0
  -27.3826  -12.5125   17.8010 H   0  0  0  0  0  0
  -27.6258  -14.2572   19.4551 H   0  0  0  0  0  0
  -28.7261  -12.2143   21.4421 H   0  0  0  0  0  0
  -28.4147  -13.8995   21.7808 H   0  0  0  0  0  0
  -25.2801   -9.5669   22.4768 H   0  0  0  0  0  0
  -24.0029   -7.4624   22.7469 H   0  0  0  0  0  0
  -21.0875   -8.8802   19.8942 H   0  0  0  0  0  0
  -22.3758  -10.9695   19.6171 H   0  0  0  0  0  0
  -21.1991   -7.6159   23.9734 H   0  0  0  0  0  0
  -21.1475   -6.0529   25.9086 H   0  0  0  0  0  0
  -22.0597   -2.7624   23.2852 H   0  0  0  0  0  0
  -22.4115  -11.9869   22.4818 H   0  0  0  0  0  0
  -21.1086  -13.1193   22.2602 H   0  0  0  0  0  0
  -24.6354  -15.8330   20.4967 H   0  0  0  0  0  0
  -26.2429  -15.6270   20.0211 H   0  0  0  0  0  0
  -26.7236  -32.5385   23.1075 H   0  0  0  0  0  0
  -25.0118  -33.9672   25.0406 H   0  0  0  0  0  0
  -22.7313  -31.3006   21.3924 H   0  0  0  0  0  0
  -23.3742  -35.9589   23.3286 H   0  0  0  0  0  0
  -24.3558  -36.8917   22.2051 H   0  0  0  0  0  0
  -23.7231  -37.6462   23.6677 H   0  0  0  0  0  0
  -26.1184  -31.5205   20.6130 H   0  0  0  0  0  0
  -26.8587  -30.8105   22.0174 H   0  0  0  0  0  0
  -28.1139  -28.8785   21.2630 H   0  0  0  0  0  0
  -25.9821  -25.9176   18.9665 H   0  0  0  0  0  0
  -23.9876  -27.3372   18.9533 H   0  0  0  0  0  0
  -23.7789  -30.5950   19.4044 H   0  0  0  0  0  0
  -22.7728  -29.2467   19.8474 H   0  0  0  0  0  0
  -25.1261  -36.1881   25.0810 H   0  0  0  0  0  0
  -21.0008  -28.3324   24.1355 H   0  0  0  0  0  0
  -20.5631  -26.2334   23.3626 H   0  0  0  0  0  0
  -21.6634  -26.7423   22.1186 H   0  0  0  0  0  0
  -19.6889  -25.6293   21.1242 H   0  0  0  0  0  0
  -19.6662  -27.3200   20.6724 H   0  0  0  0  0  0
  -17.4167  -26.6728   21.4060 H   0  0  0  0  0  0
  -18.0348  -26.0075   22.9023 H   0  0  0  0  0  0
  -19.7956  -30.7326   24.2229 H   0  0  0  0  0  0
  -17.5024  -31.6285   24.5178 H   0  0  0  0  0  0
  -15.5359  -30.2990   23.7680 H   0  0  0  0  0  0
  -15.8696  -28.0833   22.7076 H   0  0  0  0  0  0
  -24.5915  -30.7099   25.7823 H   0  0  0  0  0  0
  -24.8984  -32.2933   26.4899 H   0  0  0  0  0  0
  -25.8091  -30.8932   27.0255 H   0  0  0  0  0  0
  -26.2939  -29.6716   24.1261 H   0  0  0  0  0  0
  -27.3994  -29.7238   25.4790 H   0  0  0  0  0  0
  -27.8840  -30.4199   23.9514 H   0  0  0  0  0  0
  -27.2690  -33.3635   26.2042 H   0  0  0  0  0  0
  -28.3936  -32.6808   25.0377 H   0  0  0  0  0  0
  -28.0681  -31.8461   26.5504 H   0  0  0  0  0  0
  -28.2547  -38.0095   24.7509 H   0  0  0  0  0  0
  -28.1075  -36.2626   24.6260 H   0  0  0  0  0  0
  -27.2288  -37.1388   25.8869 H   0  0  0  0  0  0
  -20.9412  -29.8795   21.6827 H   0  0  0  0  0  0
  -26.0133  -38.2819   24.1475 H   0  0  0  0  0  0
  -33.1302  -19.3017   20.1650 H   0  0  0  0  0  0
  -31.5999  -21.1573   20.3929 H   0  0  0  0  0  0
  -32.4234  -17.0164   20.2817 H   0  0  0  0  0  0
  -28.0322  -21.0823   21.3138 H   0  0  0  0  0  0
  -27.3266  -23.1701   21.5211 H   0  0  0  0  0  0
  -26.8753  -25.2690   21.4265 H   0  0  0  0  0  0
  -27.2792  -19.1041   21.0448 H   0  0  0  0  0  0
  -27.7707  -17.5691   21.7325 H   0  0  0  0  0  0
  -27.5036  -17.7177   19.9918 H   0  0  0  0  0  0
  -30.5587  -22.4253   18.8418 H   0  0  0  0  0  0
  -31.0843  -23.3992   20.2334 H   0  0  0  0  0  0
  -29.9582  -24.0594   19.0501 H   0  0  0  0  0  0
  -28.9331  -15.7866   20.8556 H   0  0  0  0  0  0
  1 25  1  0  0  0
  1 30  2  0  0  0
  1 83  1  0  0  0
  2  3  1  0  0  0
  2 25  1  0  0  0
  2 84  1  0  0  0
  2 85  1  0  0  0
  3  4  1  0  0  0
  3 86  1  0  0  0
  3 87  1  0  0  0
  4  5  1  0  0  0
  4 88  1  0  0  0
  4 89  1  0  0  0
  5  6  1  0  0  0
  5 26  1  0  0  0
  5 90  1  0  0  0
  6 25  1  0  0  0
  6 91  1  0  0  0
  6 92  1  0  0  0
  7  8  2  0  0  0
  7 26  1  0  0  0
  7 29  1  0  0  0
  8  9  1  0  0  0
  8 22  1  0  0  0
  9 10  1  0  0  0
  9 27  2  0  0  0
 10 11  2  0  0  0
 10 15  1  0  0  0
 11 12  1  0  0  0
 11 93  1  0  0  0
 12 13  2  0  0  0
 12 94  1  0  0  0
 13 14  1  0  0  0
 13 31  1  0  0  0
 14 15  2  0  0  0
 14 95  1  0  0  0
 15 96  1  0  0  0
 16 17  2  0  0  0
 16 21  1  0  0  0
 16 31  1  0  0  0
 17 18  1  0  0  0
 17 97  1  0  0  0
 18 19  2  0  0  0
 18 98  1  0  0  0
 19 20  1  0  0  0
 19 24  1  0  0  0
 20 21  2  0  0  0
 20 99  1  0  0  0
 21 23  1  0  0  0
 22 28  1  0  0  0
 22 32  2  0  0  0
 26 27  1  0  0  0
 28100  1  0  0  0
 28101  1  0  0  0
 29102  1  0  0  0
 29103  1  0  0  0
 33 34  1  0  0  0
 33 66  1  0  0  0
 33 70  2  0  0  0
 34 36  1  0  0  0
 34 59  1  0  0  0
 34104  1  0  0  0
 35 44  2  0  0  0
 35 45  1  0  0  0
 35 68  1  0  0  0
 36 56  1  0  0  0
 36105  1  0  0  0
 37 39  1  0  0  0
 37 47  1  0  0  0
 37 66  1  0  0  0
 37106  1  0  0  0
 38 43  2  0  0  0
 38 46  1  0  0  0
 38 47  1  0  0  0
 39 64  1  0  0  0
 39 67  2  0  0  0
 40 52  1  0  0  0
 40 53  2  0  0  0
 40 58  1  0  0  0
 41107  1  0  0  0
 41108  1  0  0  0
 41109  1  0  0  0
 41 48  1  0  0  0
 42 43  1  0  0  0
 42 66  1  0  0  0
 42110  1  0  0  0
 42111  1  0  0  0
 43 44  1  0  0  0
 44112  1  0  0  0
 45 46  2  0  0  0
 45113  1  0  0  0
 46114  1  0  0  0
 47115  1  0  0  0
 47116  1  0  0  0
 48 56  1  0  0  0
 48 65  1  0  0  0
 48117  1  0  0  0
 49 50  1  0  0  0
 49 53  1  0  0  0
 49 64  1  0  0  0
 49118  1  0  0  0
 50 51  1  0  0  0
 50119  1  0  0  0
 50120  1  0  0  0
 51 52  1  0  0  0
 51121  1  0  0  0
 51122  1  0  0  0
 52123  1  0  0  0
 52124  1  0  0  0
 53 54  1  0  0  0
 54 55  2  0  0  0
 54125  1  0  0  0
 55 57  1  0  0  0
 55126  1  0  0  0
 56 69  2  0  0  0
 57 58  2  0  0  0
 57127  1  0  0  0
 58128  1  0  0  0
 59 60  1  0  0  0
 59 61  1  0  0  0
 59 62  1  0  0  0
 60129  1  0  0  0
 60130  1  0  0  0
 60131  1  0  0  0
 61132  1  0  0  0
 61133  1  0  0  0
 61134  1  0  0  0
 62135  1  0  0  0
 62136  1  0  0  0
 62137  1  0  0  0
 63 65  1  0  0  0
 63138  1  0  0  0
 63139  1  0  0  0
 63140  1  0  0  0
 64141  1  0  0  0
 65142  1  0  0  0
 68 79  1  0  0  0
 71 72  2  0  0  0
 71 73  1  0  0  0
 71143  1  0  0  0
 72 74  1  0  0  0
 72144  1  0  0  0
 73 76  2  0  0  0
 73145  1  0  0  0
 74 75  2  0  0  0
 74 77  1  0  0  0
 75 76  1  0  0  0
 75 81  1  0  0  0
 76 83  1  0  0  0
 77 80  2  0  0  0
 77146  1  0  0  0
 78 79  2  0  0  0
 78 80  1  0  0  0
 78147  1  0  0  0
 79148  1  0  0  0
 80 82  1  0  0  0
 81149  1  0  0  0
 81150  1  0  0  0
 81151  1  0  0  0
 82152  1  0  0  0
 82153  1  0  0  0
 82154  1  0  0  0
 83155  1  0  0  0
M  ISO  4   1 100  68 101  79 101  83 100
M  END
> <chiral flag>
0

> <version>
0

> <s_m_source_file>
/data/baiqing/PycharmProjects/Reinvent-master-3.2/result/LINK_invent/BTK/process_docking_weight1_custom_product_contain_oxygen_bond_distance_aromatic_linkinvent_7_9_3/rearranged_h_0058.sdf

> <i_m_source_file_index>
16

> <r_mmod_Potential_Energy-OPLS-2005>
309.867492675781

> <r_mmod_Stretch_Energy-OPLS-2005>
151.083633422852

> <r_mmod_Bend_Energy-OPLS-2005>
242.785095214844

> <r_mmod_Torsional_Energy-OPLS-2005>
219.429962158203

> <r_mmod_Improper_Torsional_Energy-OPLS-2005>
5.74798202514648

> <r_mmod_Van_der_Waal_Energy-OPLS-2005>
152.483276367188

> <r_mmod_Electrostatic_Energy-OPLS-2005>
-375.27734375

> <r_mmod_Solvation_Energy-OPLS-2005>
-196.69514465332

> <b_mmod_Minimization_Converged-OPLS-2005>
0

> <r_mmod_RMS_Derivative-OPLS-2005>
2.468106508255

$$$$
16
                    3D
 Structure written by MMmdl.
165174  0  0  1  0            999 V2000
  -30.6891  -14.5077   20.5952 C   0  0  0  0  0  0
  -30.4452  -12.3372   19.4175 C   0  0  0  0  0  0
  -29.5034  -12.5046   18.2052 C   0  0  0  0  0  0
  -28.0252  -12.3508   18.6217 C   0  0  0  0  0  0
  -27.6643  -13.1996   19.8659 C   0  0  2  0  0  0
  -28.7098  -12.9848   20.9843 C   0  0  0  0  0  0
  -25.2600  -13.8147   20.5664 C   0  0  0  0  0  0
  -24.1842  -13.0437   20.9140 C   0  0  0  0  0  0
  -24.6372  -11.6915   20.8691 C   0  0  0  0  0  0
  -23.9032  -10.4311   21.0405 C   0  0  0  0  0  0
  -24.3586   -9.4217   21.9168 C   0  0  0  0  0  0
  -23.6268   -8.2255   22.0771 C   0  0  0  0  0  0
  -22.4243   -8.0281   21.3565 C   0  0  0  0  0  0
  -21.9857   -9.0261   20.4668 C   0  0  0  0  0  0
  -22.7203  -10.2134   20.3063 C   0  0  0  0  0  0
  -21.6841   -6.0726   22.5281 C   0  0  0  0  0  0
  -21.4022   -6.5637   23.8217 C   0  0  0  0  0  0
  -21.3660   -5.6777   24.9170 C   0  0  0  0  0  0
  -21.6048   -4.3046   24.7211 C   0  0  0  0  0  0
  -21.8818   -3.8146   23.4334 C   0  0  0  0  0  0
  -21.9193   -4.6962   22.3397 C   0  0  0  0  0  0
  -22.7856  -13.5258   21.1799 C   0  0  0  0  0  0
  -22.1657   -4.2157   21.0973 F   0  0  0  0  0  0
  -21.5628   -3.4527   25.7727 F   0  0  0  0  0  0
  -30.0402  -13.3192   20.4359 N   0  0  0  0  0  0
  -26.3033  -12.9295   20.3312 N   0  0  0  0  0  0
  -25.9306  -11.6467   20.5708 N   0  0  0  0  0  0
  -22.0470  -12.8301   22.0382 N   0  0  0  0  0  0
  -25.4317  -15.1877   20.4105 N   0  0  0  0  0  0
  -31.8068  -14.7308   20.1217 O   0  0  0  0  0  0
  -21.6635   -6.8857   21.4243 O   0  0  0  0  0  0
  -22.3553  -14.5563   20.6646 O   0  0  0  0  0  0
  -24.6249  -31.8642   23.2092 C   0  0  0  0  0  0
  -25.9104  -32.4811   23.8388 C   0  0  1  0  0  0
  -27.2152  -27.3613   20.1031 C   0  0  0  0  0  0
  -25.5929  -33.8615   24.2312 N   0  0  0  0  0  0
  -23.4144  -30.4946   21.5530 C   0  0  2  0  0  0
  -24.8563  -28.9633   20.1183 C   0  0  0  0  0  0
  -22.7454  -29.4657   22.4957 C   0  0  0  0  0  0
  -18.0284  -28.1378   22.8486 C   0  0  0  0  0  0
  -24.1480  -36.7298   23.2635 C   0  0  0  0  0  0
  -25.9570  -30.8089   21.3760 C   0  0  0  0  0  0
  -26.0298  -29.4426   20.7143 C   0  0  0  0  0  0
  -27.2134  -28.6534   20.6996 C   0  0  0  0  0  0
  -26.0129  -26.9315   19.4864 C   0  0  0  0  0  0
  -24.8463  -27.7083   19.5010 C   0  0  0  0  0  0
  -23.6266  -29.8398   20.1656 C   0  0  0  0  0  0
  -25.4099  -36.3103   24.0334 C   0  0  1  0  0  0
  -20.5887  -28.3683   23.1277 C   0  0  2  0  0  0
  -20.6771  -26.9398   22.5415 C   0  0  0  0  0  0
  -19.5758  -26.6376   21.5207 C   0  0  0  0  0  0
  -18.1932  -26.7919   22.1612 C   0  0  0  0  0  0
  -19.1537  -28.8843   23.2885 C   0  0  0  0  0  0
  -18.9466  -30.1438   23.8911 C   0  0  0  0  0  0
  -17.6470  -30.6584   24.0567 C   0  0  0  0  0  0
  -25.9050  -34.9466   23.5120 C   0  0  0  0  0  0
  -16.5356  -29.9090   23.6326 C   0  0  0  0  0  0
  -16.7273  -28.6504   23.0351 C   0  0  0  0  0  0
  -26.4483  -31.6622   25.0755 C   0  0  0  0  0  0
  -25.3724  -31.3797   26.1509 C   0  0  0  0  0  0
  -27.0308  -30.3035   24.6203 C   0  0  0  0  0  0
  -27.6045  -32.4352   25.7509 C   0  0  0  0  0  0
  -27.5579  -37.1793   24.8451 C   0  0  0  0  0  0
  -21.4173  -29.3047   22.3686 N   0  0  0  0  0  0
  -26.4281  -37.3790   23.9427 N   0  0  0  0  0  0
  -24.6842  -31.0704   22.1023 N   0  0  0  0  0  0
  -23.4193  -28.8162   23.2995 O   0  0  0  0  0  0
  -28.3373  -26.5226   20.1410 O   0  0  0  0  0  0
  -26.5603  -34.8925   22.4680 O   0  0  0  0  0  0
  -23.5417  -32.1422   23.7455 O   0  0  0  0  0  0
  -30.3070  -18.0030   23.8479 C   0  0  0  0  0  0
  -30.0413  -16.8118   23.1578 C   0  0  0  0  0  0
  -30.8438  -17.8429   21.1022 C   0  0  0  0  0  0
  -30.8662  -19.1238   23.1959 C   0  0  0  0  0  0
  -31.1030  -19.0691   21.7924 C   0  0  0  0  0  0
  -30.3265  -16.7021   21.7865 C   0  0  0  0  0  0
  -30.4773  -22.6569   18.5829 C   0  0  0  0  0  0
  -29.9105  -23.8076   18.9966 C   0  0  0  0  0  0
  -30.4438  -21.4020   19.3365 C   0  0  0  0  0  0
  -30.0230  -23.7372   21.4809 C   0  0  0  0  0  0
  -30.4838  -20.7331   25.0768 C   0  0  0  0  0  0
  -31.1791  -20.3157   24.0054 C   0  0  0  0  0  0
  -31.1946  -22.7143   21.3611 C   0  0  0  0  0  0
  -29.1058  -23.9497   20.2691 C   0  0  1  0  0  0
  -31.7513  -20.2650   21.0464 C   0  0  0  0  0  0
  -28.0294  -25.0923   20.2553 C   0  0  0  0  0  0
  -30.9332  -21.4446   20.6110 N   0  0  0  0  0  0
  -29.9420  -15.4716   21.1717 N   0  0  0  0  0  0
  -30.1245  -20.3398   18.7994 O   0  0  0  0  0  0
  -29.8454  -24.3572   22.5318 O   0  0  0  0  0  0
  -31.4884  -12.4579   19.1143 H   0  0  0  0  0  0
  -30.3724  -11.3289   19.8249 H   0  0  0  0  0  0
  -29.7474  -11.7721   17.4321 H   0  0  0  0  0  0
  -29.6564  -13.4859   17.7538 H   0  0  0  0  0  0
  -27.8454  -11.2965   18.8342 H   0  0  0  0  0  0
  -27.3727  -12.6075   17.7868 H   0  0  0  0  0  0
  -27.7083  -14.2426   19.5517 H   0  0  0  0  0  0
  -28.7037  -11.9463   21.3164 H   0  0  0  0  0  0
  -28.4612  -13.5634   21.8742 H   0  0  0  0  0  0
  -25.2739   -9.5708   22.4717 H   0  0  0  0  0  0
  -24.0006   -7.4638   22.7483 H   0  0  0  0  0  0
  -21.0782   -8.8794   19.8941 H   0  0  0  0  0  0
  -22.3689  -10.9670   19.6180 H   0  0  0  0  0  0
  -21.2030   -7.6140   23.9727 H   0  0  0  0  0  0
  -21.1472   -6.0497   25.9068 H   0  0  0  0  0  0
  -22.0592   -2.7613   23.2830 H   0  0  0  0  0  0
  -22.4057  -12.0007   22.4848 H   0  0  0  0  0  0
  -21.1092  -13.1397   22.2582 H   0  0  0  0  0  0
  -24.6654  -15.8412   20.5282 H   0  0  0  0  0  0
  -26.2827  -15.6332   20.0905 H   0  0  0  0  0  0
  -26.7174  -32.5470   23.1137 H   0  0  0  0  0  0
  -25.0076  -33.9756   25.0452 H   0  0  0  0  0  0
  -22.7090  -31.3159   21.4152 H   0  0  0  0  0  0
  -23.3752  -35.9622   23.3291 H   0  0  0  0  0  0
  -24.3584  -36.8929   22.2056 H   0  0  0  0  0  0
  -23.7219  -37.6489   23.6660 H   0  0  0  0  0  0
  -26.0931  -31.5749   20.6121 H   0  0  0  0  0  0
  -26.8363  -30.8465   22.0072 H   0  0  0  0  0  0
  -28.1100  -29.0212   21.1786 H   0  0  0  0  0  0
  -25.9132  -25.9866   18.9796 H   0  0  0  0  0  0
  -23.9460  -27.3280   19.0384 H   0  0  0  0  0  0
  -23.7528  -30.6211   19.4152 H   0  0  0  0  0  0
  -22.7456  -29.2750   19.8549 H   0  0  0  0  0  0
  -25.1274  -36.1952   25.0825 H   0  0  0  0  0  0
  -20.9989  -28.3256   24.1397 H   0  0  0  0  0  0
  -20.5644  -26.2290   23.3616 H   0  0  0  0  0  0
  -21.6647  -26.7404   22.1228 H   0  0  0  0  0  0
  -19.6912  -25.6285   21.1237 H   0  0  0  0  0  0
  -19.6698  -27.3184   20.6739 H   0  0  0  0  0  0
  -17.4196  -26.6667   21.4019 H   0  0  0  0  0  0
  -18.0323  -26.0058   22.9011 H   0  0  0  0  0  0
  -19.7952  -30.7235   24.2292 H   0  0  0  0  0  0
  -17.5038  -31.6266   24.5165 H   0  0  0  0  0  0
  -15.5362  -30.2999   23.7644 H   0  0  0  0  0  0
  -15.8673  -28.0824   22.7064 H   0  0  0  0  0  0
  -24.5865  -30.7165   25.7880 H   0  0  0  0  0  0
  -24.8963  -32.2993   26.4919 H   0  0  0  0  0  0
  -25.8066  -30.8998   27.0288 H   0  0  0  0  0  0
  -26.2891  -29.6814   24.1189 H   0  0  0  0  0  0
  -27.3956  -29.7269   25.4711 H   0  0  0  0  0  0
  -27.8779  -30.4316   23.9466 H   0  0  0  0  0  0
  -27.2633  -33.3618   26.2132 H   0  0  0  0  0  0
  -28.3815  -32.6976   25.0318 H   0  0  0  0  0  0
  -28.0752  -31.8465   26.5387 H   0  0  0  0  0  0
  -28.2585  -38.0102   24.7531 H   0  0  0  0  0  0
  -28.1089  -36.2642   24.6220 H   0  0  0  0  0  0
  -27.2321  -37.1385   25.8859 H   0  0  0  0  0  0
  -20.9332  -29.8809   21.6941 H   0  0  0  0  0  0
  -26.0162  -38.2859   24.1471 H   0  0  0  0  0  0
  -30.1132  -18.0332   24.9098 H   0  0  0  0  0  0
  -29.6318  -15.9696   23.6979 H   0  0  0  0  0  0
  -31.0439  -17.7801   20.0399 H   0  0  0  0  0  0
  -31.0163  -22.6586   17.6457 H   0  0  0  0  0  0
  -30.0076  -24.6974   18.3895 H   0  0  0  0  0  0
  -30.7901  -21.6074   25.6355 H   0  0  0  0  0  0
  -29.5943  -20.2207   25.4188 H   0  0  0  0  0  0
  -32.0654  -20.8712   23.7411 H   0  0  0  0  0  0
  -31.4960  -22.4855   22.3783 H   0  0  0  0  0  0
  -32.0507  -23.2240   20.9173 H   0  0  0  0  0  0
  -28.4890  -23.0499   20.3001 H   0  0  0  0  0  0
  -32.2676  -19.8512   20.1769 H   0  0  0  0  0  0
  -32.5919  -20.6167   21.6412 H   0  0  0  0  0  0
  -27.3678  -24.9496   21.1161 H   0  0  0  0  0  0
  -27.4511  -24.7935   19.3826 H   0  0  0  0  0  0
  -29.0482  -15.1122   21.4692 H   0  0  0  0  0  0
  1 25  1  0  0  0
  1 30  2  0  0  0
  1 88  1  0  0  0
  2  3  1  0  0  0
  2 25  1  0  0  0
  2 91  1  0  0  0
  2 92  1  0  0  0
  3  4  1  0  0  0
  3 93  1  0  0  0
  3 94  1  0  0  0
  4  5  1  0  0  0
  4 95  1  0  0  0
  4 96  1  0  0  0
  5  6  1  0  0  0
  5 26  1  0  0  0
  5 97  1  0  0  0
  6 25  1  0  0  0
  6 98  1  0  0  0
  6 99  1  0  0  0
  7  8  2  0  0  0
  7 26  1  0  0  0
  7 29  1  0  0  0
  8  9  1  0  0  0
  8 22  1  0  0  0
  9 10  1  0  0  0
  9 27  2  0  0  0
 10 11  2  0  0  0
 10 15  1  0  0  0
 11 12  1  0  0  0
 11100  1  0  0  0
 12 13  2  0  0  0
 12101  1  0  0  0
 13 14  1  0  0  0
 13 31  1  0  0  0
 14 15  2  0  0  0
 14102  1  0  0  0
 15103  1  0  0  0
 16 17  2  0  0  0
 16 21  1  0  0  0
 16 31  1  0  0  0
 17 18  1  0  0  0
 17104  1  0  0  0
 18 19  2  0  0  0
 18105  1  0  0  0
 19 20  1  0  0  0
 19 24  1  0  0  0
 20 21  2  0  0  0
 20106  1  0  0  0
 21 23  1  0  0  0
 22 28  1  0  0  0
 22 32  2  0  0  0
 26 27  1  0  0  0
 28107  1  0  0  0
 28108  1  0  0  0
 29109  1  0  0  0
 29110  1  0  0  0
 33 34  1  0  0  0
 33 66  1  0  0  0
 33 70  2  0  0  0
 34 36  1  0  0  0
 34 59  1  0  0  0
 34111  1  0  0  0
 35 44  2  0  0  0
 35 45  1  0  0  0
 35 68  1  0  0  0
 36 56  1  0  0  0
 36112  1  0  0  0
 37 39  1  0  0  0
 37 47  1  0  0  0
 37 66  1  0  0  0
 37113  1  0  0  0
 38 43  2  0  0  0
 38 46  1  0  0  0
 38 47  1  0  0  0
 39 64  1  0  0  0
 39 67  2  0  0  0
 40 52  1  0  0  0
 40 53  2  0  0  0
 40 58  1  0  0  0
 41114  1  0  0  0
 41115  1  0  0  0
 41116  1  0  0  0
 41 48  1  0  0  0
 42 43  1  0  0  0
 42 66  1  0  0  0
 42117  1  0  0  0
 42118  1  0  0  0
 43 44  1  0  0  0
 44119  1  0  0  0
 45 46  2  0  0  0
 45120  1  0  0  0
 46121  1  0  0  0
 47122  1  0  0  0
 47123  1  0  0  0
 48 56  1  0  0  0
 48 65  1  0  0  0
 48124  1  0  0  0
 49 50  1  0  0  0
 49 53  1  0  0  0
 49 64  1  0  0  0
 49125  1  0  0  0
 50 51  1  0  0  0
 50126  1  0  0  0
 50127  1  0  0  0
 51 52  1  0  0  0
 51128  1  0  0  0
 51129  1  0  0  0
 52130  1  0  0  0
 52131  1  0  0  0
 53 54  1  0  0  0
 54 55  2  0  0  0
 54132  1  0  0  0
 55 57  1  0  0  0
 55133  1  0  0  0
 56 69  2  0  0  0
 57 58  2  0  0  0
 57134  1  0  0  0
 58135  1  0  0  0
 59 60  1  0  0  0
 59 61  1  0  0  0
 59 62  1  0  0  0
 60136  1  0  0  0
 60137  1  0  0  0
 60138  1  0  0  0
 61139  1  0  0  0
 61140  1  0  0  0
 61141  1  0  0  0
 62142  1  0  0  0
 62143  1  0  0  0
 62144  1  0  0  0
 63 65  1  0  0  0
 63145  1  0  0  0
 63146  1  0  0  0
 63147  1  0  0  0
 64148  1  0  0  0
 65149  1  0  0  0
 68 86  1  0  0  0
 71 72  2  0  0  0
 71 74  1  0  0  0
 71150  1  0  0  0
 72 76  1  0  0  0
 72151  1  0  0  0
 73 75  1  0  0  0
 73 76  2  0  0  0
 73152  1  0  0  0
 74 75  2  0  0  0
 74 82  1  0  0  0
 75 85  1  0  0  0
 76 88  1  0  0  0
 77 78  2  0  0  0
 77 79  1  0  0  0
 77153  1  0  0  0
 78 84  1  0  0  0
 78154  1  0  0  0
 79 87  1  0  0  0
 79 89  2  0  0  0
 80 83  1  0  0  0
 80 84  1  0  0  0
 80 90  2  0  0  0
 81 82  2  0  0  0
 81155  1  0  0  0
 81156  1  0  0  0
 82157  1  0  0  0
 83 87  1  0  0  0
 83158  1  0  0  0
 83159  1  0  0  0
 84 86  1  0  0  0
 84160  1  0  0  0
 85 87  1  0  0  0
 85161  1  0  0  0
 85162  1  0  0  0
 86163  1  0  0  0
 86164  1  0  0  0
 88165  1  0  0  0
M  ISO  4   1 100  68 101  86 101  88 100
M  END
> <chiral flag>
0

> <version>
0

> <s_m_source_file>
/data/baiqing/PycharmProjects/Reinvent-master-3.2/result/LINK_invent/BTK/process_docking_weight1_custom_product_contain_oxygen_bond_distance_aromatic_linkinvent_7_9_3/rearranged_h_0058.sdf

> <i_m_source_file_index>
17

> <r_mmod_Potential_Energy-OPLS-2005>
49.5833854675293

> <r_mmod_Stretch_Energy-OPLS-2005>
61.7604103088379

> <r_mmod_Bend_Energy-OPLS-2005>
163.482223510742

> <r_mmod_Torsional_Energy-OPLS-2005>
283.653198242188

> <r_mmod_Improper_Torsional_Energy-OPLS-2005>
8.71560955047607

> <r_mmod_Van_der_Waal_Energy-OPLS-2005>
175.148239135742

> <r_mmod_Electrostatic_Energy-OPLS-2005>
-421.155944824219

> <r_mmod_Solvation_Energy-OPLS-2005>
-247.722244262695

> <b_mmod_Minimization_Converged-OPLS-2005>
0

> <r_mmod_RMS_Derivative-OPLS-2005>
3.9275381565094

$$$$
17
                    3D
 Structure written by MMmdl.
155163  0  0  1  0            999 V2000
  -30.6460  -14.5476   20.6069 C   0  0  0  0  0  0
  -30.4412  -12.3679   19.4227 C   0  0  0  0  0  0
  -29.5051  -12.5493   18.2069 C   0  0  0  0  0  0
  -28.0249  -12.3844   18.6124 C   0  0  0  0  0  0
  -27.6652  -13.2079   19.8791 C   0  0  2  0  0  0
  -28.7079  -12.9669   20.9942 C   0  0  0  0  0  0
  -25.2541  -13.8108   20.5520 C   0  0  0  0  0  0
  -24.1827  -13.0401   20.9119 C   0  0  0  0  0  0
  -24.6402  -11.6878   20.8695 C   0  0  0  0  0  0
  -23.9050  -10.4284   21.0363 C   0  0  0  0  0  0
  -24.3610   -9.4211   21.9146 C   0  0  0  0  0  0
  -23.6294   -8.2245   22.0732 C   0  0  0  0  0  0
  -22.4270   -8.0271   21.3537 C   0  0  0  0  0  0
  -21.9896   -9.0229   20.4626 C   0  0  0  0  0  0
  -22.7215  -10.2120   20.3017 C   0  0  0  0  0  0
  -21.6856   -6.0728   22.5280 C   0  0  0  0  0  0
  -21.4016   -6.5632   23.8212 C   0  0  0  0  0  0
  -21.3666   -5.6779   24.9173 C   0  0  0  0  0  0
  -21.6045   -4.3048   24.7224 C   0  0  0  0  0  0
  -21.8822   -3.8136   23.4350 C   0  0  0  0  0  0
  -21.9202   -4.6953   22.3408 C   0  0  0  0  0  0
  -22.7866  -13.5215   21.1812 C   0  0  0  0  0  0
  -22.1655   -4.2144   21.0986 F   0  0  0  0  0  0
  -21.5641   -3.4532   25.7739 F   0  0  0  0  0  0
  -30.0380  -13.3290   20.4670 N   0  0  0  0  0  0
  -26.3042  -12.9316   20.3332 N   0  0  0  0  0  0
  -25.9349  -11.6477   20.5762 N   0  0  0  0  0  0
  -22.0515  -12.8229   22.0392 N   0  0  0  0  0  0
  -25.4104  -15.1798   20.3748 N   0  0  0  0  0  0
  -31.7049  -14.8288   20.0360 O   0  0  0  0  0  0
  -21.6644   -6.8866   21.4237 O   0  0  0  0  0  0
  -22.3560  -14.5533   20.6667 O   0  0  0  0  0  0
  -24.6216  -31.8613   23.2049 C   0  0  0  0  0  0
  -25.9087  -32.4789   23.8349 C   0  0  1  0  0  0
  -27.2229  -27.3512   20.0997 C   0  0  0  0  0  0
  -25.5917  -33.8593   24.2253 N   0  0  0  0  0  0
  -23.4126  -30.4829   21.5526 C   0  0  2  0  0  0
  -24.8557  -28.9408   20.1143 C   0  0  0  0  0  0
  -22.7453  -29.4607   22.5030 C   0  0  0  0  0  0
  -18.0270  -28.1382   22.8526 C   0  0  0  0  0  0
  -24.1490  -36.7277   23.2630 C   0  0  0  0  0  0
  -25.9515  -30.8000   21.3743 C   0  0  0  0  0  0
  -26.0239  -29.4330   20.7078 C   0  0  0  0  0  0
  -27.2113  -28.6494   20.6875 C   0  0  0  0  0  0
  -26.0251  -26.8935   19.5035 C   0  0  0  0  0  0
  -24.8538  -27.6742   19.5099 C   0  0  0  0  0  0
  -23.6211  -29.8151   20.1684 C   0  0  0  0  0  0
  -25.4123  -36.3088   24.0310 C   0  0  1  0  0  0
  -20.5864  -28.3644   23.1362 C   0  0  2  0  0  0
  -20.6778  -26.9389   22.5444 C   0  0  0  0  0  0
  -19.5754  -26.6383   21.5255 C   0  0  0  0  0  0
  -18.1923  -26.7936   22.1649 C   0  0  0  0  0  0
  -19.1520  -28.8844   23.2932 C   0  0  0  0  0  0
  -18.9439  -30.1461   23.8918 C   0  0  0  0  0  0
  -17.6434  -30.6596   24.0565 C   0  0  0  0  0  0
  -25.9059  -34.9460   23.5081 C   0  0  0  0  0  0
  -16.5328  -29.9078   23.6350 C   0  0  0  0  0  0
  -16.7252  -28.6496   23.0377 C   0  0  0  0  0  0
  -26.4478  -31.6632   25.0741 C   0  0  0  0  0  0
  -25.3711  -31.3769   26.1468 C   0  0  0  0  0  0
  -27.0303  -30.3048   24.6223 C   0  0  0  0  0  0
  -27.6040  -32.4378   25.7508 C   0  0  0  0  0  0
  -27.5589  -37.1787   24.8454 C   0  0  0  0  0  0
  -21.4176  -29.2987   22.3763 N   0  0  0  0  0  0
  -26.4298  -37.3787   23.9408 N   0  0  0  0  0  0
  -24.6807  -31.0637   22.1004 N   0  0  0  0  0  0
  -23.4194  -28.8176   23.3118 O   0  0  0  0  0  0
  -28.3673  -26.5517   20.1556 O   0  0  0  0  0  0
  -26.5644  -34.8925   22.4654 O   0  0  0  0  0  0
  -23.5399  -32.1401   23.7408 O   0  0  0  0  0  0
  -27.3078  -17.9483   21.3994 C   0  0  0  0  0  0
  -27.9380  -19.1247   20.9602 C   0  0  0  0  0  0
  -28.0407  -16.7564   21.5415 C   0  0  0  0  0  0
  -30.0478  -17.8978   20.7689 C   0  0  0  0  0  0
  -29.3155  -19.1348   20.6631 C   0  0  0  0  0  0
  -29.4090  -16.6888   21.2026 C   0  0  0  0  0  0
  -28.8569  -24.1595   20.4447 C   0  0  0  0  0  0
  -28.3612  -25.2158   19.7326 C   0  0  0  0  0  0
  -28.9266  -22.7778   19.8933 C   0  0  0  0  0  0
  -29.5634  -21.9424   22.1591 C   0  0  0  0  0  0
  -29.9648  -20.4684   20.1946 C   0  0  0  0  0  0
  -30.0266  -15.4055   21.4562 N   0  0  0  0  0  0
  -29.4219  -21.7800   20.7068 N   0  0  0  0  0  0
  -28.6322  -22.5320   18.7200 O   0  0  0  0  0  0
  -31.4817  -12.5048   19.1246 H   0  0  0  0  0  0
  -30.3765  -11.3487   19.8042 H   0  0  0  0  0  0
  -29.7662  -11.8376   17.4222 H   0  0  0  0  0  0
  -29.6538  -13.5412   17.7767 H   0  0  0  0  0  0
  -27.8430  -11.3251   18.7936 H   0  0  0  0  0  0
  -27.3741  -12.6646   17.7831 H   0  0  0  0  0  0
  -27.7105  -14.2610   19.6022 H   0  0  0  0  0  0
  -28.7048  -11.9136   21.2809 H   0  0  0  0  0  0
  -28.4379  -13.5081   21.9002 H   0  0  0  0  0  0
  -25.2748   -9.5732   22.4720 H   0  0  0  0  0  0
  -24.0017   -7.4659   22.7471 H   0  0  0  0  0  0
  -21.0816   -8.8724   19.8956 H   0  0  0  0  0  0
  -22.3622  -10.9644   19.6133 H   0  0  0  0  0  0
  -21.1986   -7.6135   23.9716 H   0  0  0  0  0  0
  -21.1483   -6.0507   25.9082 H   0  0  0  0  0  0
  -22.0601   -2.7597   23.2846 H   0  0  0  0  0  0
  -22.4121  -11.9902   22.4793 H   0  0  0  0  0  0
  -21.1124  -13.1248   22.2561 H   0  0  0  0  0  0
  -24.6238  -15.8153   20.4509 H   0  0  0  0  0  0
  -26.2488  -15.6294   20.0298 H   0  0  0  0  0  0
  -26.7155  -32.5447   23.1090 H   0  0  0  0  0  0
  -25.0054  -33.9759   25.0394 H   0  0  0  0  0  0
  -22.7026  -31.3012   21.4137 H   0  0  0  0  0  0
  -23.3777  -35.9586   23.3290 H   0  0  0  0  0  0
  -24.3566  -36.8907   22.2043 H   0  0  0  0  0  0
  -23.7224  -37.6459   23.6669 H   0  0  0  0  0  0
  -26.0906  -31.5740   20.6180 H   0  0  0  0  0  0
  -26.8266  -30.8321   22.0121 H   0  0  0  0  0  0
  -28.1157  -29.0267   21.1444 H   0  0  0  0  0  0
  -25.9601  -25.9169   19.0500 H   0  0  0  0  0  0
  -23.9511  -27.2811   19.0626 H   0  0  0  0  0  0
  -23.7339  -30.5888   19.4086 H   0  0  0  0  0  0
  -22.7419  -29.2379   19.8748 H   0  0  0  0  0  0
  -25.1319  -36.1914   25.0806 H   0  0  0  0  0  0
  -20.9933  -28.3189   24.1496 H   0  0  0  0  0  0
  -20.5748  -26.2223   23.3612 H   0  0  0  0  0  0
  -21.6639  -26.7495   22.1181 H   0  0  0  0  0  0
  -19.6901  -25.6300   21.1276 H   0  0  0  0  0  0
  -19.6701  -27.3212   20.6806 H   0  0  0  0  0  0
  -17.4206  -26.6724   21.4030 H   0  0  0  0  0  0
  -18.0281  -26.0064   22.9027 H   0  0  0  0  0  0
  -19.7903  -30.7299   24.2279 H   0  0  0  0  0  0
  -17.4970  -31.6292   24.5134 H   0  0  0  0  0  0
  -15.5321  -30.2969   23.7682 H   0  0  0  0  0  0
  -15.8653  -28.0809   22.7095 H   0  0  0  0  0  0
  -24.5846  -30.7185   25.7767 H   0  0  0  0  0  0
  -24.8958  -32.2940   26.4958 H   0  0  0  0  0  0
  -25.8012  -30.8864   27.0207 H   0  0  0  0  0  0
  -26.2874  -29.6833   24.1212 H   0  0  0  0  0  0
  -27.3920  -29.7293   25.4752 H   0  0  0  0  0  0
  -27.8786  -30.4301   23.9490 H   0  0  0  0  0  0
  -27.2633  -33.3645   26.2134 H   0  0  0  0  0  0
  -28.3819  -32.7004   25.0329 H   0  0  0  0  0  0
  -28.0757  -31.8496   26.5387 H   0  0  0  0  0  0
  -28.2586  -38.0110   24.7564 H   0  0  0  0  0  0
  -28.1115  -36.2647   24.6220 H   0  0  0  0  0  0
  -27.2306  -37.1343   25.8855 H   0  0  0  0  0  0
  -20.9358  -29.8616   21.6898 H   0  0  0  0  0  0
  -26.0170  -38.2845   24.1475 H   0  0  0  0  0  0
  -26.2527  -17.9616   21.6373 H   0  0  0  0  0  0
  -27.3538  -20.0282   20.8491 H   0  0  0  0  0  0
  -27.5265  -15.8821   21.9192 H   0  0  0  0  0  0
  -31.1042  -17.8872   20.5424 H   0  0  0  0  0  0
  -29.2346  -24.3687   21.4326 H   0  0  0  0  0  0
  -27.9511  -25.1006   18.7374 H   0  0  0  0  0  0
  -28.6181  -22.2546   22.6052 H   0  0  0  0  0  0
  -30.3249  -22.6833   22.4063 H   0  0  0  0  0  0
  -29.8563  -21.0134   22.6498 H   0  0  0  0  0  0
  -29.9565  -20.4539   19.1038 H   0  0  0  0  0  0
  -31.0221  -20.4327   20.4617 H   0  0  0  0  0  0
  -29.4570  -14.8525   22.0767 H   0  0  0  0  0  0
  1 25  1  0  0  0
  1 30  2  0  0  0
  1 82  1  0  0  0
  2  3  1  0  0  0
  2 25  1  0  0  0
  2 85  1  0  0  0
  2 86  1  0  0  0
  3  4  1  0  0  0
  3 87  1  0  0  0
  3 88  1  0  0  0
  4  5  1  0  0  0
  4 89  1  0  0  0
  4 90  1  0  0  0
  5  6  1  0  0  0
  5 26  1  0  0  0
  5 91  1  0  0  0
  6 25  1  0  0  0
  6 92  1  0  0  0
  6 93  1  0  0  0
  7  8  2  0  0  0
  7 26  1  0  0  0
  7 29  1  0  0  0
  8  9  1  0  0  0
  8 22  1  0  0  0
  9 10  1  0  0  0
  9 27  2  0  0  0
 10 11  2  0  0  0
 10 15  1  0  0  0
 11 12  1  0  0  0
 11 94  1  0  0  0
 12 13  2  0  0  0
 12 95  1  0  0  0
 13 14  1  0  0  0
 13 31  1  0  0  0
 14 15  2  0  0  0
 14 96  1  0  0  0
 15 97  1  0  0  0
 16 17  2  0  0  0
 16 21  1  0  0  0
 16 31  1  0  0  0
 17 18  1  0  0  0
 17 98  1  0  0  0
 18 19  2  0  0  0
 18 99  1  0  0  0
 19 20  1  0  0  0
 19 24  1  0  0  0
 20 21  2  0  0  0
 20100  1  0  0  0
 21 23  1  0  0  0
 22 28  1  0  0  0
 22 32  2  0  0  0
 26 27  1  0  0  0
 28101  1  0  0  0
 28102  1  0  0  0
 29103  1  0  0  0
 29104  1  0  0  0
 33 34  1  0  0  0
 33 66  1  0  0  0
 33 70  2  0  0  0
 34 36  1  0  0  0
 34 59  1  0  0  0
 34105  1  0  0  0
 35 44  2  0  0  0
 35 45  1  0  0  0
 35 68  1  0  0  0
 36 56  1  0  0  0
 36106  1  0  0  0
 37 39  1  0  0  0
 37 47  1  0  0  0
 37 66  1  0  0  0
 37107  1  0  0  0
 38 43  2  0  0  0
 38 46  1  0  0  0
 38 47  1  0  0  0
 39 64  1  0  0  0
 39 67  2  0  0  0
 40 52  1  0  0  0
 40 53  2  0  0  0
 40 58  1  0  0  0
 41108  1  0  0  0
 41109  1  0  0  0
 41110  1  0  0  0
 41 48  1  0  0  0
 42 43  1  0  0  0
 42 66  1  0  0  0
 42111  1  0  0  0
 42112  1  0  0  0
 43 44  1  0  0  0
 44113  1  0  0  0
 45 46  2  0  0  0
 45114  1  0  0  0
 46115  1  0  0  0
 47116  1  0  0  0
 47117  1  0  0  0
 48 56  1  0  0  0
 48 65  1  0  0  0
 48118  1  0  0  0
 49 50  1  0  0  0
 49 53  1  0  0  0
 49 64  1  0  0  0
 49119  1  0  0  0
 50 51  1  0  0  0
 50120  1  0  0  0
 50121  1  0  0  0
 51 52  1  0  0  0
 51122  1  0  0  0
 51123  1  0  0  0
 52124  1  0  0  0
 52125  1  0  0  0
 53 54  1  0  0  0
 54 55  2  0  0  0
 54126  1  0  0  0
 55 57  1  0  0  0
 55127  1  0  0  0
 56 69  2  0  0  0
 57 58  2  0  0  0
 57128  1  0  0  0
 58129  1  0  0  0
 59 60  1  0  0  0
 59 61  1  0  0  0
 59 62  1  0  0  0
 60130  1  0  0  0
 60131  1  0  0  0
 60132  1  0  0  0
 61133  1  0  0  0
 61134  1  0  0  0
 61135  1  0  0  0
 62136  1  0  0  0
 62137  1  0  0  0
 62138  1  0  0  0
 63 65  1  0  0  0
 63139  1  0  0  0
 63140  1  0  0  0
 63141  1  0  0  0
 64142  1  0  0  0
 65143  1  0  0  0
 68 78  1  0  0  0
 71 72  2  0  0  0
 71 73  1  0  0  0
 71144  1  0  0  0
 72 75  1  0  0  0
 72145  1  0  0  0
 73 76  2  0  0  0
 73146  1  0  0  0
 74 75  2  0  0  0
 74 76  1  0  0  0
 74147  1  0  0  0
 75 81  1  0  0  0
 76 82  1  0  0  0
 77 78  2  0  0  0
 77 79  1  0  0  0
 77148  1  0  0  0
 78149  1  0  0  0
 79 83  1  0  0  0
 79 84  2  0  0  0
 80 83  1  0  0  0
 80150  1  0  0  0
 80151  1  0  0  0
 80152  1  0  0  0
 81 83  1  0  0  0
 81153  1  0  0  0
 81154  1  0  0  0
 82155  1  0  0  0
M  ISO  4   1 100  68 101  78 101  82 100
M  END
> <chiral flag>
0

> <version>
0

> <s_m_source_file>
/data/baiqing/PycharmProjects/Reinvent-master-3.2/result/LINK_invent/BTK/process_docking_weight1_custom_product_contain_oxygen_bond_distance_aromatic_linkinvent_7_9_3/rearranged_h_0058.sdf

> <i_m_source_file_index>
18

> <r_mmod_Potential_Energy-OPLS-2005>
27.3350639343262

> <r_mmod_Stretch_Energy-OPLS-2005>
65.9502944946289

> <r_mmod_Bend_Energy-OPLS-2005>
131.641845703125

> <r_mmod_Torsional_Energy-OPLS-2005>
249.603530883789

> <r_mmod_Improper_Torsional_Energy-OPLS-2005>
7.52802848815918

> <r_mmod_Van_der_Waal_Energy-OPLS-2005>
150.721420288086

> <r_mmod_Electrostatic_Energy-OPLS-2005>
-386.795806884766

> <r_mmod_Solvation_Energy-OPLS-2005>
-221.561828613281

> <b_mmod_Minimization_Converged-OPLS-2005>
0

> <r_mmod_RMS_Derivative-OPLS-2005>
2.6815242767334

$$$$
18
                    3D
 Structure written by MMmdl.
161169  0  0  1  0            999 V2000
  -30.6505  -14.5534   20.5909 C   0  0  0  0  0  0
  -30.4441  -12.3585   19.4380 C   0  0  0  0  0  0
  -29.5102  -12.5217   18.2184 C   0  0  0  0  0  0
  -28.0329  -12.3557   18.6276 C   0  0  0  0  0  0
  -27.6659  -13.2056   19.8730 C   0  0  2  0  0  0
  -28.7035  -12.9934   20.9989 C   0  0  0  0  0  0
  -25.2595  -13.8145   20.5638 C   0  0  0  0  0  0
  -24.1842  -13.0426   20.9124 C   0  0  0  0  0  0
  -24.6395  -11.6889   20.8688 C   0  0  0  0  0  0
  -23.9055  -10.4284   21.0371 C   0  0  0  0  0  0
  -24.3604   -9.4212   21.9160 C   0  0  0  0  0  0
  -23.6275   -8.2252   22.0751 C   0  0  0  0  0  0
  -22.4259   -8.0282   21.3547 C   0  0  0  0  0  0
  -21.9887   -9.0250   20.4650 C   0  0  0  0  0  0
  -22.7217  -10.2125   20.3039 C   0  0  0  0  0  0
  -21.6854   -6.0725   22.5269 C   0  0  0  0  0  0
  -21.4023   -6.5630   23.8202 C   0  0  0  0  0  0
  -21.3661   -5.6783   24.9168 C   0  0  0  0  0  0
  -21.6040   -4.3043   24.7218 C   0  0  0  0  0  0
  -21.8822   -3.8137   23.4339 C   0  0  0  0  0  0
  -21.9192   -4.6953   22.3395 C   0  0  0  0  0  0
  -22.7869  -13.5236   21.1780 C   0  0  0  0  0  0
  -22.1655   -4.2133   21.0974 F   0  0  0  0  0  0
  -21.5622   -3.4531   25.7735 F   0  0  0  0  0  0
  -30.0380  -13.3356   20.4667 N   0  0  0  0  0  0
  -26.3044  -12.9313   20.3321 N   0  0  0  0  0  0
  -25.9326  -11.6476   20.5718 N   0  0  0  0  0  0
  -22.0502  -12.8274   22.0370 N   0  0  0  0  0  0
  -25.4299  -15.1857   20.4088 N   0  0  0  0  0  0
  -31.7056  -14.8281   20.0111 O   0  0  0  0  0  0
  -21.6635   -6.8871   21.4235 O   0  0  0  0  0  0
  -22.3560  -14.5536   20.6616 O   0  0  0  0  0  0
  -24.6211  -31.8640   23.2035 C   0  0  0  0  0  0
  -25.9071  -32.4801   23.8356 C   0  0  1  0  0  0
  -27.2430  -27.3804   20.0781 C   0  0  0  0  0  0
  -25.5893  -33.8599   24.2292 N   0  0  0  0  0  0
  -23.4139  -30.4856   21.5456 C   0  0  2  0  0  0
  -24.8592  -28.9422   20.1130 C   0  0  0  0  0  0
  -22.7457  -29.4626   22.4944 C   0  0  0  0  0  0
  -18.0276  -28.1383   22.8495 C   0  0  0  0  0  0
  -24.1487  -36.7312   23.2648 C   0  0  0  0  0  0
  -25.9491  -30.8090   21.3671 C   0  0  0  0  0  0
  -26.0235  -29.4394   20.7097 C   0  0  0  0  0  0
  -27.2131  -28.6662   20.6869 C   0  0  0  0  0  0
  -26.0472  -26.9030   19.4950 C   0  0  0  0  0  0
  -24.8692  -27.6759   19.5051 C   0  0  0  0  0  0
  -23.6273  -29.8200   20.1604 C   0  0  0  0  0  0
  -25.4111  -36.3106   24.0339 C   0  0  1  0  0  0
  -20.5875  -28.3671   23.1303 C   0  0  2  0  0  0
  -20.6746  -26.9393   22.5420 C   0  0  0  0  0  0
  -19.5719  -26.6383   21.5210 C   0  0  0  0  0  0
  -18.1906  -26.7928   22.1630 C   0  0  0  0  0  0
  -19.1536  -28.8839   23.2896 C   0  0  0  0  0  0
  -18.9455  -30.1438   23.8919 C   0  0  0  0  0  0
  -17.6456  -30.6581   24.0571 C   0  0  0  0  0  0
  -25.9042  -34.9466   23.5125 C   0  0  0  0  0  0
  -16.5348  -29.9092   23.6318 C   0  0  0  0  0  0
  -16.7268  -28.6507   23.0349 C   0  0  0  0  0  0
  -26.4475  -31.6594   25.0706 C   0  0  0  0  0  0
  -25.3715  -31.3710   26.1444 C   0  0  0  0  0  0
  -27.0325  -30.3030   24.6120 C   0  0  0  0  0  0
  -27.6068  -32.4315   25.7435 C   0  0  0  0  0  0
  -27.5586  -37.1808   24.8470 C   0  0  0  0  0  0
  -21.4173  -29.3040   22.3713 N   0  0  0  0  0  0
  -26.4301  -37.3789   23.9411 N   0  0  0  0  0  0
  -24.6801  -31.0686   22.0969 N   0  0  0  0  0  0
  -23.4207  -28.8167   23.2996 O   0  0  0  0  0  0
  -28.4210  -26.6370   20.0969 O   0  0  0  0  0  0
  -26.5630  -34.8929   22.4701 O   0  0  0  0  0  0
  -23.5379  -32.1427   23.7380 O   0  0  0  0  0  0
  -27.3623  -17.9199   21.8180 C   0  0  0  0  0  0
  -28.1383  -16.7566   21.8779 C   0  0  0  0  0  0
  -29.8815  -17.8546   20.5881 C   0  0  0  0  0  0
  -29.1128  -19.0787   20.5433 C   0  0  0  0  0  0
  -27.8160  -19.0704   21.1454 C   0  0  0  0  0  0
  -29.3953  -16.6780   21.2512 C   0  0  0  0  0  0
  -31.7536  -23.3667   18.5762 C   0  0  0  0  0  0
  -30.9441  -23.2537   19.6407 C   0  0  0  0  0  0
  -29.6318  -20.3138   19.7936 C   0  0  0  0  0  0
  -26.8389  -20.2414   21.0864 C   0  0  0  0  0  0
  -28.5847  -24.0538   20.1482 C   0  0  0  0  0  0
  -28.5998  -25.4052   19.3353 C   0  0  0  0  0  0
  -29.4735  -22.8762   19.5724 C   0  0  2  0  0  0
  -30.0606  -15.4099   21.4586 N   0  0  0  0  0  0
  -29.2738  -21.5543   20.2364 N   0  0  0  0  0  0
  -30.3600  -20.1603   18.8113 O   0  0  0  0  0  0
  -31.4856  -12.4874   19.1378 H   0  0  0  0  0  0
  -30.3788  -11.3455   19.8373 H   0  0  0  0  0  0
  -29.7698  -11.7961   17.4462 H   0  0  0  0  0  0
  -29.6583  -13.5078   17.7753 H   0  0  0  0  0  0
  -27.8655  -11.2984   18.8394 H   0  0  0  0  0  0
  -27.3803  -12.6021   17.7898 H   0  0  0  0  0  0
  -27.7087  -14.2527   19.5677 H   0  0  0  0  0  0
  -28.6952  -11.9522   21.3243 H   0  0  0  0  0  0
  -28.4262  -13.5666   21.8844 H   0  0  0  0  0  0
  -25.2750   -9.5686   22.4736 H   0  0  0  0  0  0
  -23.9969   -7.4656   22.7492 H   0  0  0  0  0  0
  -21.0804   -8.8773   19.8974 H   0  0  0  0  0  0
  -22.3665  -10.9658   19.6144 H   0  0  0  0  0  0
  -21.2032   -7.6140   23.9697 H   0  0  0  0  0  0
  -21.1471   -6.0517   25.9066 H   0  0  0  0  0  0
  -22.0601   -2.7597   23.2841 H   0  0  0  0  0  0
  -22.4113  -11.9966   22.4814 H   0  0  0  0  0  0
  -21.1119  -13.1326   22.2535 H   0  0  0  0  0  0
  -24.6663  -15.8405   20.5356 H   0  0  0  0  0  0
  -26.2972  -15.6349   20.1409 H   0  0  0  0  0  0
  -26.7134  -32.5487   23.1107 H   0  0  0  0  0  0
  -24.9977  -33.9721   25.0392 H   0  0  0  0  0  0
  -22.7069  -31.3049   21.4034 H   0  0  0  0  0  0
  -23.3740  -35.9656   23.3327 H   0  0  0  0  0  0
  -24.3579  -36.8913   22.2061 H   0  0  0  0  0  0
  -23.7235  -37.6520   23.6654 H   0  0  0  0  0  0
  -26.0733  -31.5756   20.6010 H   0  0  0  0  0  0
  -26.8330  -30.8603   21.9922 H   0  0  0  0  0  0
  -28.1144  -29.0555   21.1391 H   0  0  0  0  0  0
  -25.9936  -25.9267   19.0395 H   0  0  0  0  0  0
  -23.9727  -27.2833   19.0455 H   0  0  0  0  0  0
  -23.7493  -30.5990   19.4068 H   0  0  0  0  0  0
  -22.7491  -29.2502   19.8526 H   0  0  0  0  0  0
  -25.1279  -36.1984   25.0832 H   0  0  0  0  0  0
  -20.9966  -28.3229   24.1422 H   0  0  0  0  0  0
  -20.5615  -26.2277   23.3621 H   0  0  0  0  0  0
  -21.6617  -26.7402   22.1231 H   0  0  0  0  0  0
  -19.6864  -25.6292   21.1234 H   0  0  0  0  0  0
  -19.6647  -27.3198   20.6745 H   0  0  0  0  0  0
  -17.4171  -26.6693   21.4043 H   0  0  0  0  0  0
  -18.0302  -26.0063   22.9017 H   0  0  0  0  0  0
  -19.7928  -30.7243   24.2314 H   0  0  0  0  0  0
  -17.5010  -31.6257   24.5178 H   0  0  0  0  0  0
  -15.5349  -30.3004   23.7603 H   0  0  0  0  0  0
  -15.8673  -28.0823   22.7058 H   0  0  0  0  0  0
  -24.5880  -30.7080   25.7750 H   0  0  0  0  0  0
  -24.8906  -32.2865   26.4902 H   0  0  0  0  0  0
  -25.8039  -30.8850   27.0197 H   0  0  0  0  0  0
  -26.2882  -29.6746   24.1220 H   0  0  0  0  0  0
  -27.4137  -29.7316   25.4590 H   0  0  0  0  0  0
  -27.8697  -30.4337   23.9261 H   0  0  0  0  0  0
  -27.2717  -33.3620   26.2023 H   0  0  0  0  0  0
  -28.3838  -32.6869   25.0220 H   0  0  0  0  0  0
  -28.0791  -31.8440   26.5316 H   0  0  0  0  0  0
  -28.2620  -38.0091   24.7518 H   0  0  0  0  0  0
  -28.1068  -36.2628   24.6298 H   0  0  0  0  0  0
  -27.2315  -37.1470   25.8876 H   0  0  0  0  0  0
  -20.9345  -29.8822   21.6983 H   0  0  0  0  0  0
  -26.0199  -38.2879   24.1384 H   0  0  0  0  0  0
  -26.3897  -17.9118   22.2909 H   0  0  0  0  0  0
  -27.7338  -15.9072   22.4102 H   0  0  0  0  0  0
  -30.8568  -17.8300   20.1207 H   0  0  0  0  0  0
  -32.7932  -23.6385   18.6975 H   0  0  0  0  0  0
  -31.3962  -23.1869   17.5722 H   0  0  0  0  0  0
  -31.3463  -23.4469   20.6262 H   0  0  0  0  0  0
  -25.8463  -19.9571   21.4376 H   0  0  0  0  0  0
  -26.7213  -20.6033   20.0639 H   0  0  0  0  0  0
  -27.1740  -21.0642   21.7179 H   0  0  0  0  0  0
  -27.5470  -23.7265   20.2277 H   0  0  0  0  0  0
  -28.9060  -24.2663   21.1682 H   0  0  0  0  0  0
  -27.9378  -25.3365   18.4724 H   0  0  0  0  0  0
  -29.5858  -25.5110   18.8836 H   0  0  0  0  0  0
  -29.1970  -22.7445   18.5246 H   0  0  0  0  0  0
  -29.5560  -14.8553   22.1330 H   0  0  0  0  0  0
  -28.7150  -21.5542   21.0767 H   0  0  0  0  0  0
  1 25  1  0  0  0
  1 30  2  0  0  0
  1 84  1  0  0  0
  2  3  1  0  0  0
  2 25  1  0  0  0
  2 87  1  0  0  0
  2 88  1  0  0  0
  3  4  1  0  0  0
  3 89  1  0  0  0
  3 90  1  0  0  0
  4  5  1  0  0  0
  4 91  1  0  0  0
  4 92  1  0  0  0
  5  6  1  0  0  0
  5 26  1  0  0  0
  5 93  1  0  0  0
  6 25  1  0  0  0
  6 94  1  0  0  0
  6 95  1  0  0  0
  7  8  2  0  0  0
  7 26  1  0  0  0
  7 29  1  0  0  0
  8  9  1  0  0  0
  8 22  1  0  0  0
  9 10  1  0  0  0
  9 27  2  0  0  0
 10 11  2  0  0  0
 10 15  1  0  0  0
 11 12  1  0  0  0
 11 96  1  0  0  0
 12 13  2  0  0  0
 12 97  1  0  0  0
 13 14  1  0  0  0
 13 31  1  0  0  0
 14 15  2  0  0  0
 14 98  1  0  0  0
 15 99  1  0  0  0
 16 17  2  0  0  0
 16 21  1  0  0  0
 16 31  1  0  0  0
 17 18  1  0  0  0
 17100  1  0  0  0
 18 19  2  0  0  0
 18101  1  0  0  0
 19 20  1  0  0  0
 19 24  1  0  0  0
 20 21  2  0  0  0
 20102  1  0  0  0
 21 23  1  0  0  0
 22 28  1  0  0  0
 22 32  2  0  0  0
 26 27  1  0  0  0
 28103  1  0  0  0
 28104  1  0  0  0
 29105  1  0  0  0
 29106  1  0  0  0
 33 34  1  0  0  0
 33 66  1  0  0  0
 33 70  2  0  0  0
 34 36  1  0  0  0
 34 59  1  0  0  0
 34107  1  0  0  0
 35 44  2  0  0  0
 35 45  1  0  0  0
 35 68  1  0  0  0
 36 56  1  0  0  0
 36108  1  0  0  0
 37 39  1  0  0  0
 37 47  1  0  0  0
 37 66  1  0  0  0
 37109  1  0  0  0
 38 43  2  0  0  0
 38 46  1  0  0  0
 38 47  1  0  0  0
 39 64  1  0  0  0
 39 67  2  0  0  0
 40 52  1  0  0  0
 40 53  2  0  0  0
 40 58  1  0  0  0
 41110  1  0  0  0
 41111  1  0  0  0
 41112  1  0  0  0
 41 48  1  0  0  0
 42 43  1  0  0  0
 42 66  1  0  0  0
 42113  1  0  0  0
 42114  1  0  0  0
 43 44  1  0  0  0
 44115  1  0  0  0
 45 46  2  0  0  0
 45116  1  0  0  0
 46117  1  0  0  0
 47118  1  0  0  0
 47119  1  0  0  0
 48 56  1  0  0  0
 48 65  1  0  0  0
 48120  1  0  0  0
 49 50  1  0  0  0
 49 53  1  0  0  0
 49 64  1  0  0  0
 49121  1  0  0  0
 50 51  1  0  0  0
 50122  1  0  0  0
 50123  1  0  0  0
 51 52  1  0  0  0
 51124  1  0  0  0
 51125  1  0  0  0
 52126  1  0  0  0
 52127  1  0  0  0
 53 54  1  0  0  0
 54 55  2  0  0  0
 54128  1  0  0  0
 55 57  1  0  0  0
 55129  1  0  0  0
 56 69  2  0  0  0
 57 58  2  0  0  0
 57130  1  0  0  0
 58131  1  0  0  0
 59 60  1  0  0  0
 59 61  1  0  0  0
 59 62  1  0  0  0
 60132  1  0  0  0
 60133  1  0  0  0
 60134  1  0  0  0
 61135  1  0  0  0
 61136  1  0  0  0
 61137  1  0  0  0
 62138  1  0  0  0
 62139  1  0  0  0
 62140  1  0  0  0
 63 65  1  0  0  0
 63141  1  0  0  0
 63142  1  0  0  0
 63143  1  0  0  0
 64144  1  0  0  0
 65145  1  0  0  0
 68 82  1  0  0  0
 71 72  2  0  0  0
 71 75  1  0  0  0
 71146  1  0  0  0
 72 76  1  0  0  0
 72147  1  0  0  0
 73 74  1  0  0  0
 73 76  2  0  0  0
 73148  1  0  0  0
 74 75  2  0  0  0
 74 79  1  0  0  0
 75 80  1  0  0  0
 76 84  1  0  0  0
 77 78  2  0  0  0
 77149  1  0  0  0
 77150  1  0  0  0
 78 83  1  0  0  0
 78151  1  0  0  0
 79 85  1  0  0  0
 79 86  2  0  0  0
 80152  1  0  0  0
 80153  1  0  0  0
 80154  1  0  0  0
 81 82  1  0  0  0
 81155  1  0  0  0
 81156  1  0  0  0
 81 83  1  0  0  0
 82157  1  0  0  0
 82158  1  0  0  0
 83 85  1  0  0  0
 83159  1  0  0  0
 84160  1  0  0  0
 85161  1  0  0  0
M  ISO  4   1 100  68 101  82 101  84 100
M  END
> <chiral flag>
0

> <version>
0

> <s_m_source_file>
/data/baiqing/PycharmProjects/Reinvent-master-3.2/result/LINK_invent/BTK/process_docking_weight1_custom_product_contain_oxygen_bond_distance_aromatic_linkinvent_7_9_3/rearranged_h_0058.sdf

> <i_m_source_file_index>
19

> <r_mmod_Potential_Energy-OPLS-2005>
-14.8306217193604

> <r_mmod_Stretch_Energy-OPLS-2005>
64.1352691650391

> <r_mmod_Bend_Energy-OPLS-2005>
146.888046264648

> <r_mmod_Torsional_Energy-OPLS-2005>
240.289398193359

> <r_mmod_Improper_Torsional_Energy-OPLS-2005>
6.48214626312256

> <r_mmod_Van_der_Waal_Energy-OPLS-2005>
144.240295410156

> <r_mmod_Electrostatic_Energy-OPLS-2005>
-411.656036376953

> <r_mmod_Solvation_Energy-OPLS-2005>
-230.387115478516

> <b_mmod_Minimization_Converged-OPLS-2005>
0

> <r_mmod_RMS_Derivative-OPLS-2005>
2.35810232162476

$$$$
19
                    3D
 Structure written by MMmdl.
162170  0  0  1  0            999 V2000
  -30.6023  -14.6465   20.5074 C   0  0  0  0  0  0
  -30.4418  -12.3976   19.4547 C   0  0  0  0  0  0
  -29.5100  -12.5136   18.2266 C   0  0  0  0  0  0
  -28.0320  -12.3489   18.6361 C   0  0  0  0  0  0
  -27.6549  -13.2139   19.8679 C   0  0  2  0  0  0
  -28.6975  -13.0560   20.9977 C   0  0  0  0  0  0
  -25.2572  -13.8165   20.5693 C   0  0  0  0  0  0
  -24.1834  -13.0438   20.9196 C   0  0  0  0  0  0
  -24.6391  -11.6905   20.8737 C   0  0  0  0  0  0
  -23.9058  -10.4292   21.0407 C   0  0  0  0  0  0
  -24.3612   -9.4210   21.9183 C   0  0  0  0  0  0
  -23.6291   -8.2244   22.0752 C   0  0  0  0  0  0
  -22.4273   -8.0281   21.3546 C   0  0  0  0  0  0
  -21.9906   -9.0251   20.4646 C   0  0  0  0  0  0
  -22.7229  -10.2134   20.3056 C   0  0  0  0  0  0
  -21.6851   -6.0735   22.5278 C   0  0  0  0  0  0
  -21.4012   -6.5640   23.8211 C   0  0  0  0  0  0
  -21.3660   -5.6795   24.9171 C   0  0  0  0  0  0
  -21.6044   -4.3056   24.7223 C   0  0  0  0  0  0
  -21.8818   -3.8147   23.4345 C   0  0  0  0  0  0
  -21.9194   -4.6965   22.3401 C   0  0  0  0  0  0
  -22.7857  -13.5237   21.1856 C   0  0  0  0  0  0
  -22.1662   -4.2151   21.0979 F   0  0  0  0  0  0
  -21.5630   -3.4540   25.7735 F   0  0  0  0  0  0
  -30.0140  -13.4094   20.4423 N   0  0  0  0  0  0
  -26.2992  -12.9338   20.3330 N   0  0  0  0  0  0
  -25.9322  -11.6497   20.5754 N   0  0  0  0  0  0
  -22.0489  -12.8234   22.0408 N   0  0  0  0  0  0
  -25.4293  -15.1886   20.4102 N   0  0  0  0  0  0
  -31.7524  -14.8291   20.0942 O   0  0  0  0  0  0
  -21.6640   -6.8879   21.4241 O   0  0  0  0  0  0
  -22.3549  -14.5545   20.6704 O   0  0  0  0  0  0
  -24.6241  -31.8593   23.2011 C   0  0  0  0  0  0
  -25.9096  -32.4773   23.8340 C   0  0  1  0  0  0
  -27.2239  -27.3225   20.1339 C   0  0  0  0  0  0
  -25.5913  -33.8571   24.2270 N   0  0  0  0  0  0
  -23.4186  -30.4807   21.5426 C   0  0  2  0  0  0
  -24.8665  -28.9308   20.1127 C   0  0  0  0  0  0
  -22.7464  -29.4616   22.4932 C   0  0  0  0  0  0
  -18.0284  -28.1392   22.8482 C   0  0  0  0  0  0
  -24.1491  -36.7293   23.2638 C   0  0  0  0  0  0
  -25.9570  -30.7912   21.3717 C   0  0  0  0  0  0
  -26.0315  -29.4162   20.7209 C   0  0  0  0  0  0
  -27.2145  -28.6231   20.7212 C   0  0  0  0  0  0
  -26.0479  -26.8907   19.4866 C   0  0  0  0  0  0
  -24.8759  -27.6726   19.4862 C   0  0  0  0  0  0
  -23.6337  -29.8110   20.1591 C   0  0  0  0  0  0
  -25.4108  -36.3076   24.0335 C   0  0  1  0  0  0
  -20.5884  -28.3691   23.1287 C   0  0  2  0  0  0
  -20.6778  -26.9414   22.5414 C   0  0  0  0  0  0
  -19.5756  -26.6383   21.5219 C   0  0  0  0  0  0
  -18.1932  -26.7933   22.1623 C   0  0  0  0  0  0
  -19.1536  -28.8856   23.2884 C   0  0  0  0  0  0
  -18.9463  -30.1460   23.8897 C   0  0  0  0  0  0
  -17.6464  -30.6591   24.0568 C   0  0  0  0  0  0
  -25.9048  -34.9447   23.5103 C   0  0  0  0  0  0
  -16.5354  -29.9095   23.6332 C   0  0  0  0  0  0
  -16.7274  -28.6517   23.0341 C   0  0  0  0  0  0
  -26.4487  -31.6577   25.0706 C   0  0  0  0  0  0
  -25.3726  -31.3719   26.1440 C   0  0  0  0  0  0
  -27.0326  -30.3000   24.6145 C   0  0  0  0  0  0
  -27.6041  -32.4317   25.7480 C   0  0  0  0  0  0
  -27.5587  -37.1781   24.8452 C   0  0  0  0  0  0
  -21.4179  -29.3043   22.3679 N   0  0  0  0  0  0
  -26.4279  -37.3778   23.9427 N   0  0  0  0  0  0
  -24.6852  -31.0608   22.0958 N   0  0  0  0  0  0
  -23.4191  -28.8162   23.3014 O   0  0  0  0  0  0
  -28.3551  -26.4982   20.1415 O   0  0  0  0  0  0
  -26.5623  -34.8917   22.4675 O   0  0  0  0  0  0
  -23.5408  -32.1385   23.7343 O   0  0  0  0  0  0
  -30.5099  -19.2137   19.5934 C   0  0  0  0  0  0
  -30.6782  -17.8215   19.8643 C   0  0  0  0  0  0
  -28.7137  -17.8935   21.2413 C   0  0  0  0  0  0
  -29.4281  -19.9919   20.1065 C   0  0  0  0  0  0
  -28.5335  -19.2909   20.9719 C   0  0  0  0  0  0
  -29.7640  -17.1100   20.6819 C   0  0  0  0  0  0
  -29.2350  -21.4165   19.5933 C   0  0  0  0  0  0
  -27.3315  -19.9886   21.5930 C   0  0  0  0  0  0
  -29.5313  -25.2435   21.7398 C   0  0  0  0  0  0
  -27.0783  -24.8100   21.5567 C   0  0  0  0  0  0
  -28.6620  -23.9511   19.7325 C   0  0  0  0  0  0
  -28.3581  -25.1368   20.7517 C   0  0  0  0  0  0
  -29.4190  -21.5861   18.2852 N   0  0  0  0  0  0
  -29.7923  -15.6659   20.9382 N   0  0  0  0  0  0
  -28.8836  -22.5459   20.2922 N   0  3  0  0  0  0
  -31.4820  -12.5313   19.1526 H   0  0  0  0  0  0
  -30.3846  -11.3978   19.8883 H   0  0  0  0  0  0
  -29.7760  -11.7645   17.4795 H   0  0  0  0  0  0
  -29.6511  -13.4841   17.7482 H   0  0  0  0  0  0
  -27.8678  -11.2945   18.8617 H   0  0  0  0  0  0
  -27.3783  -12.5837   17.7954 H   0  0  0  0  0  0
  -27.6765  -14.2514   19.5344 H   0  0  0  0  0  0
  -28.7107  -12.0286   21.3641 H   0  0  0  0  0  0
  -28.4369  -13.6706   21.8608 H   0  0  0  0  0  0
  -25.2755   -9.5689   22.4759 H   0  0  0  0  0  0
  -24.0001   -7.4635   22.7471 H   0  0  0  0  0  0
  -21.0838   -8.8766   19.8951 H   0  0  0  0  0  0
  -22.3682  -10.9674   19.6170 H   0  0  0  0  0  0
  -21.2001   -7.6148   23.9714 H   0  0  0  0  0  0
  -21.1484   -6.0523   25.9075 H   0  0  0  0  0  0
  -22.0598   -2.7611   23.2841 H   0  0  0  0  0  0
  -22.4095  -11.9890   22.4796 H   0  0  0  0  0  0
  -21.1109  -13.1268   22.2610 H   0  0  0  0  0  0
  -24.6560  -15.8378   20.5055 H   0  0  0  0  0  0
  -26.2668  -15.6233   20.0446 H   0  0  0  0  0  0
  -26.7160  -32.5445   23.1083 H   0  0  0  0  0  0
  -25.0053  -33.9716   25.0410 H   0  0  0  0  0  0
  -22.7123  -31.3006   21.3969 H   0  0  0  0  0  0
  -23.3758  -35.9618   23.3264 H   0  0  0  0  0  0
  -24.3596  -36.8945   22.2060 H   0  0  0  0  0  0
  -23.7230  -37.6480   23.6678 H   0  0  0  0  0  0
  -26.0852  -31.5504   20.5991 H   0  0  0  0  0  0
  -26.8389  -30.8432   21.9986 H   0  0  0  0  0  0
  -28.1109  -28.9909   21.2003 H   0  0  0  0  0  0
  -26.0314  -25.9296   18.9930 H   0  0  0  0  0  0
  -23.9857  -27.2971   19.0012 H   0  0  0  0  0  0
  -23.7544  -30.5852   19.4003 H   0  0  0  0  0  0
  -22.7547  -29.2388   19.8571 H   0  0  0  0  0  0
  -25.1281  -36.1917   25.0825 H   0  0  0  0  0  0
  -20.9978  -28.3262   24.1410 H   0  0  0  0  0  0
  -20.5688  -26.2295   23.3608 H   0  0  0  0  0  0
  -21.6644  -26.7452   22.1199 H   0  0  0  0  0  0
  -19.6923  -25.6298   21.1241 H   0  0  0  0  0  0
  -19.6701  -27.3197   20.6751 H   0  0  0  0  0  0
  -17.4206  -26.6680   21.4023 H   0  0  0  0  0  0
  -18.0333  -26.0079   22.9019 H   0  0  0  0  0  0
  -19.7941  -30.7280   24.2252 H   0  0  0  0  0  0
  -17.5022  -31.6269   24.5176 H   0  0  0  0  0  0
  -15.5358  -30.3001   23.7663 H   0  0  0  0  0  0
  -15.8669  -28.0851   22.7043 H   0  0  0  0  0  0
  -24.5895  -30.7072   25.7770 H   0  0  0  0  0  0
  -24.8929  -32.2894   26.4862 H   0  0  0  0  0  0
  -25.8054  -30.8896   27.0214 H   0  0  0  0  0  0
  -26.2892  -29.6753   24.1176 H   0  0  0  0  0  0
  -27.4043  -29.7247   25.4632 H   0  0  0  0  0  0
  -27.8751  -30.4289   23.9346 H   0  0  0  0  0  0
  -27.2638  -33.3611   26.2058 H   0  0  0  0  0  0
  -28.3850  -32.6885   25.0310 H   0  0  0  0  0  0
  -28.0710  -31.8446   26.5397 H   0  0  0  0  0  0
  -28.2543  -38.0138   24.7576 H   0  0  0  0  0  0
  -28.1144  -36.2670   24.6171 H   0  0  0  0  0  0
  -27.2326  -37.1302   25.8858 H   0  0  0  0  0  0
  -20.9353  -29.8758   21.6886 H   0  0  0  0  0  0
  -26.0156  -38.2840   24.1473 H   0  0  0  0  0  0
  -31.2254  -19.6848   18.9336 H   0  0  0  0  0  0
  -31.5068  -17.3038   19.4024 H   0  0  0  0  0  0
  -27.9948  -17.3991   21.8795 H   0  0  0  0  0  0
  -26.6513  -19.2728   22.0566 H   0  0  0  0  0  0
  -26.7590  -20.5371   20.8444 H   0  0  0  0  0  0
  -27.6505  -20.6865   22.3674 H   0  0  0  0  0  0
  -29.6721  -24.3238   22.3075 H   0  0  0  0  0  0
  -29.3671  -26.0458   22.4600 H   0  0  0  0  0  0
  -30.4668  -25.4534   21.2203 H   0  0  0  0  0  0
  -27.2087  -23.9081   22.1552 H   0  0  0  0  0  0
  -26.2226  -24.6256   20.9086 H   0  0  0  0  0  0
  -26.8153  -25.6125   22.2461 H   0  0  0  0  0  0
  -29.5493  -24.2245   19.1595 H   0  0  0  0  0  0
  -27.8467  -23.9022   19.0096 H   0  0  0  0  0  0
  -29.6150  -20.7772   17.7151 H   0  0  0  0  0  0
  -29.3301  -22.4776   17.8314 H   0  0  0  0  0  0
  -28.9554  -15.3159   21.3771 H   0  0  0  0  0  0
  -28.7781  -22.4406   21.2920 H   0  0  0  0  0  0
  1 25  1  0  0  0
  1 30  2  0  0  0
  1 84  1  0  0  0
  2  3  1  0  0  0
  2 25  1  0  0  0
  2 86  1  0  0  0
  2 87  1  0  0  0
  3  4  1  0  0  0
  3 88  1  0  0  0
  3 89  1  0  0  0
  4  5  1  0  0  0
  4 90  1  0  0  0
  4 91  1  0  0  0
  5  6  1  0  0  0
  5 26  1  0  0  0
  5 92  1  0  0  0
  6 25  1  0  0  0
  6 93  1  0  0  0
  6 94  1  0  0  0
  7  8  2  0  0  0
  7 26  1  0  0  0
  7 29  1  0  0  0
  8  9  1  0  0  0
  8 22  1  0  0  0
  9 10  1  0  0  0
  9 27  2  0  0  0
 10 11  2  0  0  0
 10 15  1  0  0  0
 11 12  1  0  0  0
 11 95  1  0  0  0
 12 13  2  0  0  0
 12 96  1  0  0  0
 13 14  1  0  0  0
 13 31  1  0  0  0
 14 15  2  0  0  0
 14 97  1  0  0  0
 15 98  1  0  0  0
 16 17  2  0  0  0
 16 21  1  0  0  0
 16 31  1  0  0  0
 17 18  1  0  0  0
 17 99  1  0  0  0
 18 19  2  0  0  0
 18100  1  0  0  0
 19 20  1  0  0  0
 19 24  1  0  0  0
 20 21  2  0  0  0
 20101  1  0  0  0
 21 23  1  0  0  0
 22 28  1  0  0  0
 22 32  2  0  0  0
 26 27  1  0  0  0
 28102  1  0  0  0
 28103  1  0  0  0
 29104  1  0  0  0
 29105  1  0  0  0
 33 34  1  0  0  0
 33 66  1  0  0  0
 33 70  2  0  0  0
 34 36  1  0  0  0
 34 59  1  0  0  0
 34106  1  0  0  0
 35 44  2  0  0  0
 35 45  1  0  0  0
 35 68  1  0  0  0
 36 56  1  0  0  0
 36107  1  0  0  0
 37 39  1  0  0  0
 37 47  1  0  0  0
 37 66  1  0  0  0
 37108  1  0  0  0
 38 43  2  0  0  0
 38 46  1  0  0  0
 38 47  1  0  0  0
 39 64  1  0  0  0
 39 67  2  0  0  0
 40 52  1  0  0  0
 40 53  2  0  0  0
 40 58  1  0  0  0
 41109  1  0  0  0
 41110  1  0  0  0
 41111  1  0  0  0
 41 48  1  0  0  0
 42 43  1  0  0  0
 42 66  1  0  0  0
 42112  1  0  0  0
 42113  1  0  0  0
 43 44  1  0  0  0
 44114  1  0  0  0
 45 46  2  0  0  0
 45115  1  0  0  0
 46116  1  0  0  0
 47117  1  0  0  0
 47118  1  0  0  0
 48 56  1  0  0  0
 48 65  1  0  0  0
 48119  1  0  0  0
 49 50  1  0  0  0
 49 53  1  0  0  0
 49 64  1  0  0  0
 49120  1  0  0  0
 50 51  1  0  0  0
 50121  1  0  0  0
 50122  1  0  0  0
 51 52  1  0  0  0
 51123  1  0  0  0
 51124  1  0  0  0
 52125  1  0  0  0
 52126  1  0  0  0
 53 54  1  0  0  0
 54 55  2  0  0  0
 54127  1  0  0  0
 55 57  1  0  0  0
 55128  1  0  0  0
 56 69  2  0  0  0
 57 58  2  0  0  0
 57129  1  0  0  0
 58130  1  0  0  0
 59 60  1  0  0  0
 59 61  1  0  0  0
 59 62  1  0  0  0
 60131  1  0  0  0
 60132  1  0  0  0
 60133  1  0  0  0
 61134  1  0  0  0
 61135  1  0  0  0
 61136  1  0  0  0
 62137  1  0  0  0
 62138  1  0  0  0
 62139  1  0  0  0
 63 65  1  0  0  0
 63140  1  0  0  0
 63141  1  0  0  0
 63142  1  0  0  0
 64143  1  0  0  0
 65144  1  0  0  0
 68 82  1  0  0  0
 71 72  2  0  0  0
 71 74  1  0  0  0
 71145  1  0  0  0
 72 76  1  0  0  0
 72146  1  0  0  0
 73 75  1  0  0  0
 73 76  2  0  0  0
 73147  1  0  0  0
 74 75  2  0  0  0
 74 77  1  0  0  0
 75 78  1  0  0  0
 76 84  1  0  0  0
 77 83  1  0  0  0
 77 85  2  0  0  0
 78148  1  0  0  0
 78149  1  0  0  0
 78150  1  0  0  0
 79151  1  0  0  0
 79152  1  0  0  0
 79153  1  0  0  0
 79 82  1  0  0  0
 80 82  1  0  0  0
 80154  1  0  0  0
 80155  1  0  0  0
 80156  1  0  0  0
 81 82  1  0  0  0
 81 85  1  0  0  0
 81157  1  0  0  0
 81158  1  0  0  0
 83159  1  0  0  0
 83160  1  0  0  0
 84161  1  0  0  0
 85162  1  0  0  0
M  CHG  1  85   1
M  ISO  4   1 100  68 101  82 101  84 100
M  END
> <chiral flag>
0

> <version>
0

> <s_m_source_file>
/data/baiqing/PycharmProjects/Reinvent-master-3.2/result/LINK_invent/BTK/process_docking_weight1_custom_product_contain_oxygen_bond_distance_aromatic_linkinvent_7_9_3/rearranged_h_0058.sdf

> <i_m_source_file_index>
20

> <r_mmod_Potential_Energy-OPLS-2005>
-147.639389038086

> <r_mmod_Stretch_Energy-OPLS-2005>
84.4132461547852

> <r_mmod_Bend_Energy-OPLS-2005>
151.227203369141

> <r_mmod_Torsional_Energy-OPLS-2005>
246.035430908203

> <r_mmod_Improper_Torsional_Energy-OPLS-2005>
4.39441442489624

> <r_mmod_Van_der_Waal_Energy-OPLS-2005>
145.209274291992

> <r_mmod_Electrostatic_Energy-OPLS-2005>
-423.985687255859

> <r_mmod_Solvation_Energy-OPLS-2005>
-401.844665527344

> <b_mmod_Minimization_Converged-OPLS-2005>
0

> <r_mmod_RMS_Derivative-OPLS-2005>
0.916616141796112

$$$$
20
                    3D
 Structure written by MMmdl.
182191  0  0  1  0            999 V2000
  -30.6894  -14.4114   20.5940 C   0  0  0  0  0  0
  -30.4187  -12.2654   19.4205 C   0  0  0  0  0  0
  -29.4936  -12.4945   18.2058 C   0  0  0  0  0  0
  -28.0125  -12.3679   18.6137 C   0  0  0  0  0  0
  -27.6668  -13.1812   19.8887 C   0  0  2  0  0  0
  -28.7037  -12.9202   21.0057 C   0  0  0  0  0  0
  -25.2663  -13.8101   20.5715 C   0  0  0  0  0  0
  -24.1877  -13.0433   20.9142 C   0  0  0  0  0  0
  -24.6390  -11.6880   20.8718 C   0  0  0  0  0  0
  -23.9060  -10.4294   21.0415 C   0  0  0  0  0  0
  -24.3627   -9.4212   21.9181 C   0  0  0  0  0  0
  -23.6287   -8.2272   22.0763 C   0  0  0  0  0  0
  -22.4269   -8.0318   21.3559 C   0  0  0  0  0  0
  -21.9911   -9.0289   20.4654 C   0  0  0  0  0  0
  -22.7246  -10.2158   20.3063 C   0  0  0  0  0  0
  -21.6861   -6.0759   22.5286 C   0  0  0  0  0  0
  -21.4017   -6.5656   23.8217 C   0  0  0  0  0  0
  -21.3649   -5.6795   24.9164 C   0  0  0  0  0  0
  -21.6050   -4.3061   24.7214 C   0  0  0  0  0  0
  -21.8814   -3.8166   23.4331 C   0  0  0  0  0  0
  -21.9197   -4.6983   22.3393 C   0  0  0  0  0  0
  -22.7912  -13.5271   21.1790 C   0  0  0  0  0  0
  -22.1674   -4.2181   21.0968 F   0  0  0  0  0  0
  -21.5613   -3.4552   25.7732 F   0  0  0  0  0  0
  -30.0415  -13.2250   20.4691 N   0  0  0  0  0  0
  -26.3054  -12.9210   20.3418 N   0  0  0  0  0  0
  -25.9301  -11.6397   20.5761 N   0  0  0  0  0  0
  -22.0548  -12.8290   22.0341 N   0  0  0  0  0  0
  -25.4475  -15.1835   20.4220 N   0  0  0  0  0  0
  -31.7867  -14.6517   20.0785 O   0  0  0  0  0  0
  -21.6634   -6.8924   21.4263 O   0  0  0  0  0  0
  -22.3637  -14.5593   20.6626 O   0  0  0  0  0  0
  -24.6093  -31.8643   23.2117 C   0  0  0  0  0  0
  -25.8995  -32.4777   23.8418 C   0  0  1  0  0  0
  -27.2310  -27.4702   20.0848 C   0  0  0  0  0  0
  -25.5816  -33.8571   24.2353 N   0  0  0  0  0  0
  -23.3917  -30.4905   21.5516 C   0  0  2  0  0  0
  -24.8335  -28.9468   20.1220 C   0  0  0  0  0  0
  -22.7311  -29.4663   22.5011 C   0  0  0  0  0  0
  -18.0233  -28.1355   22.8454 C   0  0  0  0  0  0
  -24.1479  -36.7328   23.2654 C   0  0  0  0  0  0
  -25.9144  -30.8404   21.3555 C   0  0  0  0  0  0
  -25.9902  -29.4755   20.7089 C   0  0  0  0  0  0
  -27.1907  -28.7425   20.6848 C   0  0  0  0  0  0
  -26.0595  -26.9362   19.5045 C   0  0  0  0  0  0
  -24.8598  -27.6741   19.5219 C   0  0  0  0  0  0
  -23.5957  -29.8131   20.1689 C   0  0  0  0  0  0
  -25.4067  -36.3079   24.0385 C   0  0  1  0  0  0
  -20.5809  -28.3631   23.1295 C   0  0  2  0  0  0
  -20.6709  -26.9362   22.5401 C   0  0  0  0  0  0
  -19.5727  -26.6365   21.5187 C   0  0  0  0  0  0
  -18.1894  -26.7911   22.1561 C   0  0  0  0  0  0
  -19.1480  -28.8801   23.2879 C   0  0  0  0  0  0
  -18.9423  -30.1398   23.8910 C   0  0  0  0  0  0
  -17.6433  -30.6541   24.0563 C   0  0  0  0  0  0
  -25.8980  -34.9431   23.5176 C   0  0  0  0  0  0
  -16.5319  -29.9048   23.6309 C   0  0  0  0  0  0
  -16.7233  -28.6468   23.0311 C   0  0  0  0  0  0
  -26.4438  -31.6590   25.0749 C   0  0  0  0  0  0
  -25.3760  -31.3672   26.1513 C   0  0  0  0  0  0
  -27.0199  -30.3040   24.6046 C   0  0  0  0  0  0
  -27.6022  -32.4300   25.7528 C   0  0  0  0  0  0
  -27.5587  -37.1792   24.8465 C   0  0  0  0  0  0
  -21.4042  -29.3034   22.3719 N   0  0  0  0  0  0
  -26.4275  -37.3748   23.9431 N   0  0  0  0  0  0
  -24.6582  -31.0782   22.0990 N   0  0  0  0  0  0
  -23.4077  -28.8200   23.3038 O   0  0  0  0  0  0
  -28.4430  -26.8346   20.0357 O   0  0  0  0  0  0
  -26.5560  -34.8889   22.4742 O   0  0  0  0  0  0
  -23.5293  -32.1388   23.7514 O   0  0  0  0  0  0
  -25.8246  -26.2965   24.5878 C   0  0  0  0  0  0
  -27.1485  -26.5056   24.1745 C   0  0  0  0  0  0
  -25.2433  -25.0245   24.4390 C   0  0  0  0  0  0
  -27.8811  -25.4500   23.6103 C   0  0  0  0  0  0
  -28.5383  -17.5679   18.5131 C   0  0  0  0  0  0
  -29.1168  -16.4646   19.1572 C   0  0  0  0  0  0
  -29.3175  -17.7434   21.2169 C   0  0  0  0  0  0
  -28.7949  -18.8827   20.5547 C   0  0  0  0  0  0
  -28.3738  -18.7867   19.1967 C   0  0  0  0  0  0
  -25.9654  -23.9626   23.8500 C   0  0  0  0  0  0
  -27.3056  -24.1694   23.4044 C   0  0  0  0  0  0
  -29.4880  -16.5266   20.5211 C   0  0  0  0  0  0
  -28.8402  -20.1813   21.2290 C   0  0  0  0  0  0
  -30.1832  -23.7969   21.4392 C   0  0  0  0  0  0
  -27.8156  -19.9658   18.4060 C   0  0  0  0  0  0
  -25.2507  -22.6255   23.7413 C   0  0  0  0  0  0
  -30.9553  -25.4915   19.6735 C   0  0  0  0  0  0
  -27.5413  -22.4093   21.4856 C   0  0  0  0  0  0
  -28.4972  -25.4270   20.2201 C   0  0  0  0  0  0
  -28.1518  -23.0368   22.7780 C   0  0  1  0  0  0
  -29.9181  -25.1717   20.7729 C   0  0  1  0  0  0
  -30.0212  -20.5952   21.6681 N   0  0  0  0  0  0
  -29.9809  -15.3762   21.2022 N   0  0  0  0  0  0
  -29.5631  -23.4032   22.5676 N   0  0  0  0  0  0
  -27.7402  -20.9549   21.2861 N   0  3  0  0  0  0
  -31.1042  -23.0907   21.0318 O   0  0  0  0  0  0
  -31.4663  -12.3570   19.1304 H   0  0  0  0  0  0
  -30.2997  -11.2456   19.7913 H   0  0  0  0  0  0
  -29.7282  -11.7829   17.4122 H   0  0  0  0  0  0
  -29.6717  -13.4815   17.7822 H   0  0  0  0  0  0
  -27.8025  -11.3108   18.7777 H   0  0  0  0  0  0
  -27.3684  -12.6785   17.7900 H   0  0  0  0  0  0
  -27.7115  -14.2323   19.6157 H   0  0  0  0  0  0
  -28.6658  -11.8720   21.3084 H   0  0  0  0  0  0
  -28.4662  -13.4875   21.9089 H   0  0  0  0  0  0
  -25.2791   -9.5680   22.4728 H   0  0  0  0  0  0
  -23.9991   -7.4686   22.7502 H   0  0  0  0  0  0
  -21.0838   -8.8830   19.8966 H   0  0  0  0  0  0
  -22.3720  -10.9713   19.6173 H   0  0  0  0  0  0
  -21.2018   -7.6176   23.9728 H   0  0  0  0  0  0
  -21.1460   -6.0526   25.9065 H   0  0  0  0  0  0
  -22.0589   -2.7642   23.2815 H   0  0  0  0  0  0
  -22.4128  -11.9907   22.4678 H   0  0  0  0  0  0
  -21.1213  -13.1381   22.2651 H   0  0  0  0  0  0
  -24.6864  -15.8394   20.5606 H   0  0  0  0  0  0
  -26.3133  -15.6291   20.1499 H   0  0  0  0  0  0
  -26.7092  -32.5513   23.1211 H   0  0  0  0  0  0
  -24.9938  -33.9700   25.0495 H   0  0  0  0  0  0
  -22.6792  -31.3071   21.4126 H   0  0  0  0  0  0
  -23.3700  -35.9708   23.3262 H   0  0  0  0  0  0
  -24.3640  -36.8948   22.2080 H   0  0  0  0  0  0
  -23.7279  -37.6553   23.6666 H   0  0  0  0  0  0
  -26.0059  -31.5989   20.5784 H   0  0  0  0  0  0
  -26.8088  -30.9081   21.9603 H   0  0  0  0  0  0
  -28.0929  -29.1467   21.1221 H   0  0  0  0  0  0
  -26.0747  -25.9728   19.0156 H   0  0  0  0  0  0
  -23.9676  -27.2697   19.0624 H   0  0  0  0  0  0
  -23.7082  -30.5850   19.4058 H   0  0  0  0  0  0
  -22.7209  -29.2314   19.8755 H   0  0  0  0  0  0
  -25.1255  -36.1935   25.0889 H   0  0  0  0  0  0
  -20.9938  -28.3201   24.1388 H   0  0  0  0  0  0
  -20.5502  -26.2260   23.3587 H   0  0  0  0  0  0
  -21.6595  -26.7348   22.1276 H   0  0  0  0  0  0
  -19.6920  -25.6293   21.1190 H   0  0  0  0  0  0
  -19.6643  -27.3195   20.6736 H   0  0  0  0  0  0
  -17.4167  -26.6688   21.3936 H   0  0  0  0  0  0
  -18.0255  -26.0015   22.8887 H   0  0  0  0  0  0
  -19.7935  -30.7145   24.2293 H   0  0  0  0  0  0
  -17.4976  -31.6226   24.5157 H   0  0  0  0  0  0
  -15.5320  -30.2929   23.7589 H   0  0  0  0  0  0
  -15.8621  -28.0812   22.7017 H   0  0  0  0  0  0
  -24.5836  -30.7165   25.7795 H   0  0  0  0  0  0
  -24.9125  -32.2816   26.5213 H   0  0  0  0  0  0
  -25.8142  -30.8608   27.0119 H   0  0  0  0  0  0
  -26.2632  -29.6802   24.1239 H   0  0  0  0  0  0
  -27.4075  -29.7276   25.4466 H   0  0  0  0  0  0
  -27.8460  -30.4333   23.9051 H   0  0  0  0  0  0
  -27.2683  -33.3698   26.1945 H   0  0  0  0  0  0
  -28.3947  -32.6698   25.0437 H   0  0  0  0  0  0
  -28.0526  -31.8506   26.5602 H   0  0  0  0  0  0
  -28.2584  -38.0099   24.7485 H   0  0  0  0  0  0
  -28.1100  -36.2627   24.6293 H   0  0  0  0  0  0
  -27.2331  -37.1452   25.8875 H   0  0  0  0  0  0
  -20.9144  -29.8776   21.7003 H   0  0  0  0  0  0
  -26.0174  -38.2848   24.1320 H   0  0  0  0  0  0
  -25.2617  -27.1084   25.0290 H   0  0  0  0  0  0
  -27.6138  -27.4743   24.2950 H   0  0  0  0  0  0
  -24.2324  -24.8684   24.7926 H   0  0  0  0  0  0
  -28.9030  -25.6584   23.3444 H   0  0  0  0  0  0
  -28.2523  -17.4758   17.4746 H   0  0  0  0  0  0
  -29.2426  -15.5641   18.5795 H   0  0  0  0  0  0
  -29.6308  -17.8195   22.2511 H   0  0  0  0  0  0
  -27.7703  -19.7351   17.3425 H   0  0  0  0  0  0
  -28.4393  -20.8551   18.5051 H   0  0  0  0  0  0
  -26.8039  -20.2113   18.7264 H   0  0  0  0  0  0
  -24.4830  -22.5315   24.5101 H   0  0  0  0  0  0
  -25.9293  -21.7820   23.8578 H   0  0  0  0  0  0
  -24.7392  -22.5449   22.7803 H   0  0  0  0  0  0
  -31.9784  -25.3439   20.0190 H   0  0  0  0  0  0
  -30.8845  -26.5320   19.3546 H   0  0  0  0  0  0
  -30.7935  -24.8732   18.7889 H   0  0  0  0  0  0
  -27.8642  -22.9178   20.5834 H   0  0  0  0  0  0
  -26.4643  -22.5523   21.4792 H   0  0  0  0  0  0
  -27.7140  -25.1027   20.8987 H   0  0  0  0  0  0
  -28.3414  -24.9192   19.2664 H   0  0  0  0  0  0
  -28.1878  -22.2639   23.5460 H   0  0  0  0  0  0
  -30.1063  -25.8965   21.5644 H   0  0  0  0  0  0
  -30.7813  -19.9308   21.6238 H   0  0  0  0  0  0
  -30.2867  -21.5731   21.5902 H   0  0  0  0  0  0
  -29.3675  -15.0295   21.9259 H   0  0  0  0  0  0
  -30.1478  -22.8380   23.1666 H   0  0  0  0  0  0
  -26.8889  -20.4658   21.0357 H   0  0  0  0  0  0
  1 25  1  0  0  0
  1 30  2  0  0  0
  1 93  1  0  0  0
  2  3  1  0  0  0
  2 25  1  0  0  0
  2 97  1  0  0  0
  2 98  1  0  0  0
  3  4  1  0  0  0
  3 99  1  0  0  0
  3100  1  0  0  0
  4  5  1  0  0  0
  4101  1  0  0  0
  4102  1  0  0  0
  5  6  1  0  0  0
  5 26  1  0  0  0
  5103  1  0  0  0
  6 25  1  0  0  0
  6104  1  0  0  0
  6105  1  0  0  0
  7  8  2  0  0  0
  7 26  1  0  0  0
  7 29  1  0  0  0
  8  9  1  0  0  0
  8 22  1  0  0  0
  9 10  1  0  0  0
  9 27  2  0  0  0
 10 11  2  0  0  0
 10 15  1  0  0  0
 11 12  1  0  0  0
 11106  1  0  0  0
 12 13  2  0  0  0
 12107  1  0  0  0
 13 14  1  0  0  0
 13 31  1  0  0  0
 14 15  2  0  0  0
 14108  1  0  0  0
 15109  1  0  0  0
 16 17  2  0  0  0
 16 21  1  0  0  0
 16 31  1  0  0  0
 17 18  1  0  0  0
 17110  1  0  0  0
 18 19  2  0  0  0
 18111  1  0  0  0
 19 20  1  0  0  0
 19 24  1  0  0  0
 20 21  2  0  0  0
 20112  1  0  0  0
 21 23  1  0  0  0
 22 28  1  0  0  0
 22 32  2  0  0  0
 26 27  1  0  0  0
 28113  1  0  0  0
 28114  1  0  0  0
 29115  1  0  0  0
 29116  1  0  0  0
 33 34  1  0  0  0
 33 66  1  0  0  0
 33 70  2  0  0  0
 34 36  1  0  0  0
 34 59  1  0  0  0
 34117  1  0  0  0
 35 44  2  0  0  0
 35 45  1  0  0  0
 35 68  1  0  0  0
 36 56  1  0  0  0
 36118  1  0  0  0
 37 39  1  0  0  0
 37 47  1  0  0  0
 37 66  1  0  0  0
 37119  1  0  0  0
 38 43  2  0  0  0
 38 46  1  0  0  0
 38 47  1  0  0  0
 39 64  1  0  0  0
 39 67  2  0  0  0
 40 52  1  0  0  0
 40 53  2  0  0  0
 40 58  1  0  0  0
 41120  1  0  0  0
 41121  1  0  0  0
 41122  1  0  0  0
 41 48  1  0  0  0
 42 43  1  0  0  0
 42 66  1  0  0  0
 42123  1  0  0  0
 42124  1  0  0  0
 43 44  1  0  0  0
 44125  1  0  0  0
 45 46  2  0  0  0
 45126  1  0  0  0
 46127  1  0  0  0
 47128  1  0  0  0
 47129  1  0  0  0
 48 56  1  0  0  0
 48 65  1  0  0  0
 48130  1  0  0  0
 49 50  1  0  0  0
 49 53  1  0  0  0
 49 64  1  0  0  0
 49131  1  0  0  0
 50 51  1  0  0  0
 50132  1  0  0  0
 50133  1  0  0  0
 51 52  1  0  0  0
 51134  1  0  0  0
 51135  1  0  0  0
 52136  1  0  0  0
 52137  1  0  0  0
 53 54  1  0  0  0
 54 55  2  0  0  0
 54138  1  0  0  0
 55 57  1  0  0  0
 55139  1  0  0  0
 56 69  2  0  0  0
 57 58  2  0  0  0
 57140  1  0  0  0
 58141  1  0  0  0
 59 60  1  0  0  0
 59 61  1  0  0  0
 59 62  1  0  0  0
 60142  1  0  0  0
 60143  1  0  0  0
 60144  1  0  0  0
 61145  1  0  0  0
 61146  1  0  0  0
 61147  1  0  0  0
 62148  1  0  0  0
 62149  1  0  0  0
 62150  1  0  0  0
 63 65  1  0  0  0
 63151  1  0  0  0
 63152  1  0  0  0
 63153  1  0  0  0
 64154  1  0  0  0
 65155  1  0  0  0
 68 89  1  0  0  0
 71 72  2  0  0  0
 71 73  1  0  0  0
 71156  1  0  0  0
 72 74  1  0  0  0
 72157  1  0  0  0
 73 80  2  0  0  0
 73158  1  0  0  0
 74 81  2  0  0  0
 74159  1  0  0  0
 75 76  2  0  0  0
 75 79  1  0  0  0
 75160  1  0  0  0
 76 82  1  0  0  0
 76161  1  0  0  0
 77 78  1  0  0  0
 77 82  2  0  0  0
 77162  1  0  0  0
 78 79  2  0  0  0
 78 83  1  0  0  0
 79 85  1  0  0  0
 80 81  1  0  0  0
 80 86  1  0  0  0
 81 90  1  0  0  0
 82 93  1  0  0  0
 83 92  1  0  0  0
 83 95  2  0  0  0
 84 91  1  0  0  0
 84 94  1  0  0  0
 84 96  2  0  0  0
 85163  1  0  0  0
 85164  1  0  0  0
 85165  1  0  0  0
 86166  1  0  0  0
 86167  1  0  0  0
 86168  1  0  0  0
 87169  1  0  0  0
 87170  1  0  0  0
 87171  1  0  0  0
 87 91  1  0  0  0
 88 95  1  0  0  0
 88172  1  0  0  0
 88173  1  0  0  0
 88 90  1  0  0  0
 89 91  1  0  0  0
 89174  1  0  0  0
 89175  1  0  0  0
 90 94  1  0  0  0
 90176  1  0  0  0
 91177  1  0  0  0
 92178  1  0  0  0
 92179  1  0  0  0
 93180  1  0  0  0
 94181  1  0  0  0
 95182  1  0  0  0
M  CHG  1  95   1
M  ISO  4   1 100  68 101  89 101  93 100
M  END
> <chiral flag>
0

> <version>
0

> <s_m_source_file>
/data/baiqing/PycharmProjects/Reinvent-master-3.2/result/LINK_invent/BTK/process_docking_weight1_custom_product_contain_oxygen_bond_distance_aromatic_linkinvent_7_9_3/rearranged_h_0058.sdf

> <i_m_source_file_index>
21

> <r_mmod_Potential_Energy-OPLS-2005>
-231.999114990234

> <r_mmod_Stretch_Energy-OPLS-2005>
41.2155609130859

> <r_mmod_Bend_Energy-OPLS-2005>
142.537155151367

> <r_mmod_Torsional_Energy-OPLS-2005>
349.962707519531

> <r_mmod_Improper_Torsional_Energy-OPLS-2005>
15.0793561935425

> <r_mmod_Van_der_Waal_Energy-OPLS-2005>
180.843032836914

> <r_mmod_Electrostatic_Energy-OPLS-2005>
-550.513000488281

> <r_mmod_Solvation_Energy-OPLS-2005>
-420.747772216797

> <b_mmod_Minimization_Converged-OPLS-2005>
0

> <r_mmod_RMS_Derivative-OPLS-2005>
4.54176902770996

$$$$
21
                    3D
 Structure written by MMmdl.
174182  0  0  1  0            999 V2000
  -30.7176  -14.4284   20.6037 C   0  0  0  0  0  0
  -30.4133  -12.2757   19.4495 C   0  0  0  0  0  0
  -29.5078  -12.5104   18.2229 C   0  0  0  0  0  0
  -28.0167  -12.4000   18.6077 C   0  0  0  0  0  0
  -27.6618  -13.2149   19.8793 C   0  0  2  0  0  0
  -28.6918  -12.9809   21.0098 C   0  0  0  0  0  0
  -25.2568  -13.8193   20.5672 C   0  0  0  0  0  0
  -24.1834  -13.0450   20.9183 C   0  0  0  0  0  0
  -24.6389  -11.6929   20.8712 C   0  0  0  0  0  0
  -23.9046  -10.4304   21.0372 C   0  0  0  0  0  0
  -24.3601   -9.4222   21.9153 C   0  0  0  0  0  0
  -23.6292   -8.2234   22.0702 C   0  0  0  0  0  0
  -22.4261   -8.0260   21.3499 C   0  0  0  0  0  0
  -21.9919   -9.0235   20.4604 C   0  0  0  0  0  0
  -22.7225  -10.2123   20.3015 C   0  0  0  0  0  0
  -21.6855   -6.0746   22.5282 C   0  0  0  0  0  0
  -21.4010   -6.5630   23.8217 C   0  0  0  0  0  0
  -21.3663   -5.6764   24.9171 C   0  0  0  0  0  0
  -21.6053   -4.3027   24.7221 C   0  0  0  0  0  0
  -21.8815   -3.8143   23.4332 C   0  0  0  0  0  0
  -21.9209   -4.6982   22.3403 C   0  0  0  0  0  0
  -22.7852  -13.5241   21.1881 C   0  0  0  0  0  0
  -22.1669   -4.2174   21.0980 F   0  0  0  0  0  0
  -21.5621   -3.4500   25.7725 F   0  0  0  0  0  0
  -30.0416  -13.2545   20.4827 N   0  0  0  0  0  0
  -26.3013  -12.9384   20.3328 N   0  0  0  0  0  0
  -25.9321  -11.6532   20.5746 N   0  0  0  0  0  0
  -22.0514  -12.8182   22.0415 N   0  0  0  0  0  0
  -25.4306  -15.1903   20.4063 N   0  0  0  0  0  0
  -31.8181  -14.6374   20.0804 O   0  0  0  0  0  0
  -21.6603   -6.8871   21.4225 O   0  0  0  0  0  0
  -22.3545  -14.5581   20.6804 O   0  0  0  0  0  0
  -24.6119  -31.8696   23.2105 C   0  0  0  0  0  0
  -25.9018  -32.4828   23.8393 C   0  0  1  0  0  0
  -27.2227  -27.4683   20.0787 C   0  0  0  0  0  0
  -25.5908  -33.8618   24.2366 N   0  0  0  0  0  0
  -23.3957  -30.5006   21.5491 C   0  0  2  0  0  0
  -24.8378  -28.9735   20.1042 C   0  0  0  0  0  0
  -22.7388  -29.4688   22.4934 C   0  0  0  0  0  0
  -18.0314  -28.1403   22.8509 C   0  0  0  0  0  0
  -24.1466  -36.7275   23.2633 C   0  0  0  0  0  0
  -25.9204  -30.8516   21.3522 C   0  0  0  0  0  0
  -25.9986  -29.4886   20.6974 C   0  0  0  0  0  0
  -27.1958  -28.7434   20.6829 C   0  0  0  0  0  0
  -26.0536  -26.9613   19.4704 C   0  0  0  0  0  0
  -24.8603  -27.7085   19.4880 C   0  0  0  0  0  0
  -23.6011  -29.8394   20.1601 C   0  0  0  0  0  0
  -25.4078  -36.3102   24.0356 C   0  0  1  0  0  0
  -20.5893  -28.3668   23.1313 C   0  0  2  0  0  0
  -20.6796  -26.9398   22.5418 C   0  0  0  0  0  0
  -19.5761  -26.6405   21.5221 C   0  0  0  0  0  0
  -18.1947  -26.7957   22.1629 C   0  0  0  0  0  0
  -19.1565  -28.8844   23.2926 C   0  0  0  0  0  0
  -18.9487  -30.1473   23.8906 C   0  0  0  0  0  0
  -17.6492  -30.6611   24.0583 C   0  0  0  0  0  0
  -25.9019  -34.9474   23.5155 C   0  0  0  0  0  0
  -16.5382  -29.9117   23.6357 C   0  0  0  0  0  0
  -16.7309  -28.6543   23.0357 C   0  0  0  0  0  0
  -26.4457  -31.6604   25.0704 C   0  0  0  0  0  0
  -25.3765  -31.3717   26.1498 C   0  0  0  0  0  0
  -27.0257  -30.3067   24.6003 C   0  0  0  0  0  0
  -27.6027  -32.4303   25.7468 C   0  0  0  0  0  0
  -27.5572  -37.1760   24.8463 C   0  0  0  0  0  0
  -21.4122  -29.3035   22.3666 N   0  0  0  0  0  0
  -26.4246  -37.3810   23.9453 N   0  0  0  0  0  0
  -24.6622  -31.0862   22.0968 N   0  0  0  0  0  0
  -23.4187  -28.8246   23.2968 O   0  0  0  0  0  0
  -28.3432  -26.6777   20.1619 O   0  0  0  0  0  0
  -26.5552  -34.8917   22.4701 O   0  0  0  0  0  0
  -23.5303  -32.1395   23.7533 O   0  0  0  0  0  0
  -28.9165  -19.0674   19.4034 C   0  0  0  0  0  0
  -29.7985  -17.8577   21.3401 C   0  0  0  0  0  0
  -29.2320  -16.6614   19.2908 C   0  0  0  0  0  0
  -29.4020  -19.0765   20.7318 C   0  0  0  0  0  0
  -28.8086  -17.8578   18.6885 C   0  0  0  0  0  0
  -29.7323  -16.6488   20.6144 C   0  0  0  0  0  0
  -28.4067  -20.6290   22.4614 C   0  0  0  0  0  0
  -25.9269  -18.2348   17.7361 C   0  0  0  0  0  0
  -29.4750  -20.3625   21.4553 C   0  0  0  0  0  0
  -28.5365  -20.7778   23.7981 C   0  0  0  0  0  0
  -30.4228  -22.4757   21.6059 C   0  0  0  0  0  0
  -24.4703  -17.9001   17.9451 C   0  0  0  0  0  0
  -27.3353  -21.1050   24.6677 C   0  0  0  0  0  0
  -29.8371  -20.6705   24.5762 C   0  0  0  0  0  0
  -28.1760  -17.8125   17.3024 C   0  0  0  0  0  0
  -29.3685  -23.4128   20.9794 C   0  0  0  0  0  0
  -29.4122  -24.8593   21.5234 C   0  0  0  0  0  0
  -28.1632  -25.6978   21.1920 C   0  0  0  0  0  0
  -26.7951  -17.3687   17.4035 N   0  0  0  0  0  0
  -30.4149  -21.1774   21.1281 N   0  0  0  0  0  0
  -30.0599  -15.4120   21.2372 N   0  0  0  0  0  0
  -31.2767  -22.9198   22.3752 O   0  0  0  0  0  0
  -31.4664  -12.3407   19.1715 H   0  0  0  0  0  0
  -30.2687  -11.2633   19.8326 H   0  0  0  0  0  0
  -29.7459  -11.7903   17.4398 H   0  0  0  0  0  0
  -29.7112  -13.4940   17.8008 H   0  0  0  0  0  0
  -27.7800  -11.3473   18.7641 H   0  0  0  0  0  0
  -27.3941  -12.7301   17.7739 H   0  0  0  0  0  0
  -27.7024  -14.2689   19.6040 H   0  0  0  0  0  0
  -28.6374  -11.9498   21.3626 H   0  0  0  0  0  0
  -28.4436  -13.5939   21.8758 H   0  0  0  0  0  0
  -25.2751   -9.5740   22.4724 H   0  0  0  0  0  0
  -24.0041   -7.4633   22.7401 H   0  0  0  0  0  0
  -21.0861   -8.8764   19.8908 H   0  0  0  0  0  0
  -22.3673  -10.9657   19.6120 H   0  0  0  0  0  0
  -21.1968   -7.6127   23.9727 H   0  0  0  0  0  0
  -21.1488   -6.0474   25.9073 H   0  0  0  0  0  0
  -22.0607   -2.7617   23.2802 H   0  0  0  0  0  0
  -22.4153  -11.9811   22.4722 H   0  0  0  0  0  0
  -21.1133  -13.1193   22.2676 H   0  0  0  0  0  0
  -24.6567  -15.8391   20.4855 H   0  0  0  0  0  0
  -26.2660  -15.6158   20.0240 H   0  0  0  0  0  0
  -26.7067  -32.5552   23.1135 H   0  0  0  0  0  0
  -25.0113  -33.9775   25.0557 H   0  0  0  0  0  0
  -22.6872  -31.3215   21.4180 H   0  0  0  0  0  0
  -23.3753  -35.9587   23.3300 H   0  0  0  0  0  0
  -24.3585  -36.8896   22.2054 H   0  0  0  0  0  0
  -23.7181  -37.6456   23.6636 H   0  0  0  0  0  0
  -26.0245  -31.6213   20.5843 H   0  0  0  0  0  0
  -26.8127  -30.9045   21.9636 H   0  0  0  0  0  0
  -28.0873  -29.1308   21.1547 H   0  0  0  0  0  0
  -26.0616  -25.9843   19.0034 H   0  0  0  0  0  0
  -23.9617  -27.3110   19.0368 H   0  0  0  0  0  0
  -23.7082  -30.6177   19.4005 H   0  0  0  0  0  0
  -22.7233  -29.2625   19.8620 H   0  0  0  0  0  0
  -25.1250  -36.1933   25.0844 H   0  0  0  0  0  0
  -21.0074  -28.3250   24.1395 H   0  0  0  0  0  0
  -20.5741  -26.2260   23.3607 H   0  0  0  0  0  0
  -21.6667  -26.7478   22.1178 H   0  0  0  0  0  0
  -19.6910  -25.6325   21.1234 H   0  0  0  0  0  0
  -19.6710  -27.3231   20.6759 H   0  0  0  0  0  0
  -17.4233  -26.6762   21.4011 H   0  0  0  0  0  0
  -18.0333  -26.0110   22.9032 H   0  0  0  0  0  0
  -19.7952  -30.7320   24.2253 H   0  0  0  0  0  0
  -17.5039  -31.6278   24.5209 H   0  0  0  0  0  0
  -15.5380  -30.3020   23.7661 H   0  0  0  0  0  0
  -15.8720  -28.0882   22.7028 H   0  0  0  0  0  0
  -24.5924  -30.7055   25.7899 H   0  0  0  0  0  0
  -24.8963  -32.2877   26.4943 H   0  0  0  0  0  0
  -25.8193  -30.8915   27.0245 H   0  0  0  0  0  0
  -26.2757  -29.6838   24.1109 H   0  0  0  0  0  0
  -27.4143  -29.7274   25.4387 H   0  0  0  0  0  0
  -27.8554  -30.4448   23.9064 H   0  0  0  0  0  0
  -27.2666  -33.3618   26.2039 H   0  0  0  0  0  0
  -28.3850  -32.6852   25.0308 H   0  0  0  0  0  0
  -28.0671  -31.8423   26.5391 H   0  0  0  0  0  0
  -28.2546  -38.0091   24.7606 H   0  0  0  0  0  0
  -28.1116  -36.2643   24.6187 H   0  0  0  0  0  0
  -27.2329  -37.1322   25.8869 H   0  0  0  0  0  0
  -20.9260  -29.8718   21.6881 H   0  0  0  0  0  0
  -26.0132  -38.2867   24.1544 H   0  0  0  0  0  0
  -28.5841  -19.9880   18.9438 H   0  0  0  0  0  0
  -30.1533  -17.8604   22.3613 H   0  0  0  0  0  0
  -29.1310  -15.7478   18.7222 H   0  0  0  0  0  0
  -27.4287  -20.7042   22.0107 H   0  0  0  0  0  0
  -26.1814  -19.2844   17.9107 H   0  0  0  0  0  0
  -24.2618  -17.7738   19.0085 H   0  0  0  0  0  0
  -24.2082  -16.9770   17.4291 H   0  0  0  0  0  0
  -23.8384  -18.6988   17.5542 H   0  0  0  0  0  0
  -26.4124  -21.1709   24.0902 H   0  0  0  0  0  0
  -27.4814  -22.0596   25.1730 H   0  0  0  0  0  0
  -27.1989  -20.3397   25.4310 H   0  0  0  0  0  0
  -30.6165  -20.1479   24.0215 H   0  0  0  0  0  0
  -29.6735  -20.1222   25.5052 H   0  0  0  0  0  0
  -30.2016  -21.6648   24.8374 H   0  0  0  0  0  0
  -28.7315  -17.1001   16.6873 H   0  0  0  0  0  0
  -28.2709  -18.7726   16.7893 H   0  0  0  0  0  0
  -28.3778  -23.0011   21.1668 H   0  0  0  0  0  0
  -29.4973  -23.4199   19.8947 H   0  0  0  0  0  0
  -30.3191  -25.3681   21.1984 H   0  0  0  0  0  0
  -29.4675  -24.8059   22.6123 H   0  0  0  0  0  0
  -27.8590  -26.2122   22.1058 H   0  0  0  0  0  0
  -27.3308  -25.0386   20.9340 H   0  0  0  0  0  0
  -29.3608  -15.0879   21.8896 H   0  0  0  0  0  0
  1 25  1  0  0  0
  1 30  2  0  0  0
  1 91  1  0  0  0
  2  3  1  0  0  0
  2 25  1  0  0  0
  2 93  1  0  0  0
  2 94  1  0  0  0
  3  4  1  0  0  0
  3 95  1  0  0  0
  3 96  1  0  0  0
  4  5  1  0  0  0
  4 97  1  0  0  0
  4 98  1  0  0  0
  5  6  1  0  0  0
  5 26  1  0  0  0
  5 99  1  0  0  0
  6 25  1  0  0  0
  6100  1  0  0  0
  6101  1  0  0  0
  7  8  2  0  0  0
  7 26  1  0  0  0
  7 29  1  0  0  0
  8  9  1  0  0  0
  8 22  1  0  0  0
  9 10  1  0  0  0
  9 27  2  0  0  0
 10 11  2  0  0  0
 10 15  1  0  0  0
 11 12  1  0  0  0
 11102  1  0  0  0
 12 13  2  0  0  0
 12103  1  0  0  0
 13 14  1  0  0  0
 13 31  1  0  0  0
 14 15  2  0  0  0
 14104  1  0  0  0
 15105  1  0  0  0
 16 17  2  0  0  0
 16 21  1  0  0  0
 16 31  1  0  0  0
 17 18  1  0  0  0
 17106  1  0  0  0
 18 19  2  0  0  0
 18107  1  0  0  0
 19 20  1  0  0  0
 19 24  1  0  0  0
 20 21  2  0  0  0
 20108  1  0  0  0
 21 23  1  0  0  0
 22 28  1  0  0  0
 22 32  2  0  0  0
 26 27  1  0  0  0
 28109  1  0  0  0
 28110  1  0  0  0
 29111  1  0  0  0
 29112  1  0  0  0
 33 34  1  0  0  0
 33 66  1  0  0  0
 33 70  2  0  0  0
 34 36  1  0  0  0
 34 59  1  0  0  0
 34113  1  0  0  0
 35 44  2  0  0  0
 35 45  1  0  0  0
 35 68  1  0  0  0
 36 56  1  0  0  0
 36114  1  0  0  0
 37 39  1  0  0  0
 37 47  1  0  0  0
 37 66  1  0  0  0
 37115  1  0  0  0
 38 43  2  0  0  0
 38 46  1  0  0  0
 38 47  1  0  0  0
 39 64  1  0  0  0
 39 67  2  0  0  0
 40 52  1  0  0  0
 40 53  2  0  0  0
 40 58  1  0  0  0
 41116  1  0  0  0
 41117  1  0  0  0
 41118  1  0  0  0
 41 48  1  0  0  0
 42 43  1  0  0  0
 42 66  1  0  0  0
 42119  1  0  0  0
 42120  1  0  0  0
 43 44  1  0  0  0
 44121  1  0  0  0
 45 46  2  0  0  0
 45122  1  0  0  0
 46123  1  0  0  0
 47124  1  0  0  0
 47125  1  0  0  0
 48 56  1  0  0  0
 48 65  1  0  0  0
 48126  1  0  0  0
 49 50  1  0  0  0
 49 53  1  0  0  0
 49 64  1  0  0  0
 49127  1  0  0  0
 50 51  1  0  0  0
 50128  1  0  0  0
 50129  1  0  0  0
 51 52  1  0  0  0
 51130  1  0  0  0
 51131  1  0  0  0
 52132  1  0  0  0
 52133  1  0  0  0
 53 54  1  0  0  0
 54 55  2  0  0  0
 54134  1  0  0  0
 55 57  1  0  0  0
 55135  1  0  0  0
 56 69  2  0  0  0
 57 58  2  0  0  0
 57136  1  0  0  0
 58137  1  0  0  0
 59 60  1  0  0  0
 59 61  1  0  0  0
 59 62  1  0  0  0
 60138  1  0  0  0
 60139  1  0  0  0
 60140  1  0  0  0
 61141  1  0  0  0
 61142  1  0  0  0
 61143  1  0  0  0
 62144  1  0  0  0
 62145  1  0  0  0
 62146  1  0  0  0
 63 65  1  0  0  0
 63147  1  0  0  0
 63148  1  0  0  0
 63149  1  0  0  0
 64150  1  0  0  0
 65151  1  0  0  0
 68 88  1  0  0  0
 71 74  2  0  0  0
 71 75  1  0  0  0
 71152  1  0  0  0
 72 74  1  0  0  0
 72 76  2  0  0  0
 72153  1  0  0  0
 73 75  2  0  0  0
 73 76  1  0  0  0
 73154  1  0  0  0
 74 79  1  0  0  0
 75 85  1  0  0  0
 76 91  1  0  0  0
 77 79  1  0  0  0
 77 80  2  0  0  0
 77155  1  0  0  0
 78 82  1  0  0  0
 78 89  2  0  0  0
 78156  1  0  0  0
 79 90  2  0  0  0
 80 83  1  0  0  0
 80 84  1  0  0  0
 81 86  1  0  0  0
 81 90  1  0  0  0
 81 92  2  0  0  0
 82157  1  0  0  0
 82158  1  0  0  0
 82159  1  0  0  0
 83160  1  0  0  0
 83161  1  0  0  0
 83162  1  0  0  0
 84163  1  0  0  0
 84164  1  0  0  0
 84165  1  0  0  0
 85 89  1  0  0  0
 85166  1  0  0  0
 85167  1  0  0  0
 86 87  1  0  0  0
 86168  1  0  0  0
 86169  1  0  0  0
 87 88  1  0  0  0
 87170  1  0  0  0
 87171  1  0  0  0
 88172  1  0  0  0
 88173  1  0  0  0
 91174  1  0  0  0
M  ISO  4   1 100  68 101  88 101  91 100
M  END
> <chiral flag>
0

> <version>
0

> <s_m_source_file>
/data/baiqing/PycharmProjects/Reinvent-master-3.2/result/LINK_invent/BTK/process_docking_weight1_custom_product_contain_oxygen_bond_distance_aromatic_linkinvent_7_9_3/rearranged_h_0058.sdf

> <i_m_source_file_index>
22

> <r_mmod_Potential_Energy-OPLS-2005>
62.7997169494629

> <r_mmod_Stretch_Energy-OPLS-2005>
37.7750587463379

> <r_mmod_Bend_Energy-OPLS-2005>
114.775405883789

> <r_mmod_Torsional_Energy-OPLS-2005>
379.84375

> <r_mmod_Improper_Torsional_Energy-OPLS-2005>
8.37461185455322

> <r_mmod_Van_der_Waal_Energy-OPLS-2005>
152.839767456055

> <r_mmod_Electrostatic_Energy-OPLS-2005>
-423.643585205078

> <r_mmod_Solvation_Energy-OPLS-2005>
-219.488021850586

> <b_mmod_Minimization_Converged-OPLS-2005>
0

> <r_mmod_RMS_Derivative-OPLS-2005>
5.06194496154785

$$$$
22
                    3D
 Structure written by MMmdl.
152160  0  0  1  0            999 V2000
  -30.7156  -14.5183   20.5484 C   0  0  0  0  0  0
  -30.4152  -12.3307   19.4372 C   0  0  0  0  0  0
  -29.4932  -12.4970   18.2130 C   0  0  0  0  0  0
  -28.0167  -12.3532   18.6279 C   0  0  0  0  0  0
  -27.6547  -13.2163   19.8667 C   0  0  2  0  0  0
  -28.6990  -13.0535   20.9947 C   0  0  0  0  0  0
  -25.2559  -13.8183   20.5687 C   0  0  0  0  0  0
  -24.1825  -13.0448   20.9192 C   0  0  0  0  0  0
  -24.6393  -11.6919   20.8745 C   0  0  0  0  0  0
  -23.9065  -10.4301   21.0407 C   0  0  0  0  0  0
  -24.3616   -9.4213   21.9183 C   0  0  0  0  0  0
  -23.6292   -8.2246   22.0753 C   0  0  0  0  0  0
  -22.4273   -8.0284   21.3545 C   0  0  0  0  0  0
  -21.9909   -9.0258   20.4646 C   0  0  0  0  0  0
  -22.7238  -10.2139   20.3056 C   0  0  0  0  0  0
  -21.6853   -6.0736   22.5279 C   0  0  0  0  0  0
  -21.4013   -6.5639   23.8213 C   0  0  0  0  0  0
  -21.3659   -5.6793   24.9175 C   0  0  0  0  0  0
  -21.6044   -4.3056   24.7227 C   0  0  0  0  0  0
  -21.8819   -3.8147   23.4347 C   0  0  0  0  0  0
  -21.9192   -4.6964   22.3401 C   0  0  0  0  0  0
  -22.7846  -13.5237   21.1853 C   0  0  0  0  0  0
  -22.1661   -4.2150   21.0979 F   0  0  0  0  0  0
  -21.5629   -3.4539   25.7738 F   0  0  0  0  0  0
  -30.0226  -13.3497   20.4269 N   0  0  0  0  0  0
  -26.2994  -12.9368   20.3348 N   0  0  0  0  0  0
  -25.9323  -11.6520   20.5778 N   0  0  0  0  0  0
  -22.0486  -12.8229   22.0407 N   0  0  0  0  0  0
  -25.4267  -15.1901   20.4078 N   0  0  0  0  0  0
  -31.8625  -14.6345   20.1082 O   0  0  0  0  0  0
  -21.6639   -6.8880   21.4241 O   0  0  0  0  0  0
  -22.3532  -14.5545   20.6703 O   0  0  0  0  0  0
  -24.6187  -31.8657   23.2087 C   0  0  0  0  0  0
  -25.9067  -32.4809   23.8389 C   0  0  1  0  0  0
  -27.2239  -27.3965   20.1059 C   0  0  0  0  0  0
  -25.5911  -33.8610   24.2317 N   0  0  0  0  0  0
  -23.4087  -30.4899   21.5498 C   0  0  2  0  0  0
  -24.8558  -28.9571   20.1097 C   0  0  0  0  0  0
  -22.7434  -29.4646   22.4973 C   0  0  0  0  0  0
  -18.0273  -28.1376   22.8483 C   0  0  0  0  0  0
  -24.1489  -36.7308   23.2639 C   0  0  0  0  0  0
  -25.9425  -30.8206   21.3686 C   0  0  0  0  0  0
  -26.0199  -29.4543   20.7109 C   0  0  0  0  0  0
  -27.2112  -28.6832   20.7035 C   0  0  0  0  0  0
  -26.0475  -26.9363   19.4754 C   0  0  0  0  0  0
  -24.8666  -27.6995   19.4850 C   0  0  0  0  0  0
  -23.6194  -29.8270   20.1627 C   0  0  0  0  0  0
  -25.4110  -36.3104   24.0334 C   0  0  1  0  0  0
  -20.5868  -28.3669   23.1303 C   0  0  2  0  0  0
  -20.6767  -26.9403   22.5413 C   0  0  0  0  0  0
  -19.5746  -26.6383   21.5206 C   0  0  0  0  0  0
  -18.1922  -26.7917   22.1620 C   0  0  0  0  0  0
  -19.1523  -28.8839   23.2888 C   0  0  0  0  0  0
  -18.9454  -30.1446   23.8903 C   0  0  0  0  0  0
  -17.6458  -30.6585   24.0563 C   0  0  0  0  0  0
  -25.9039  -34.9469   23.5121 C   0  0  0  0  0  0
  -16.5348  -29.9087   23.6331 C   0  0  0  0  0  0
  -16.7264  -28.6502   23.0349 C   0  0  0  0  0  0
  -26.4481  -31.6596   25.0728 C   0  0  0  0  0  0
  -25.3738  -31.3713   26.1473 C   0  0  0  0  0  0
  -27.0311  -30.3033   24.6122 C   0  0  0  0  0  0
  -27.6055  -32.4318   25.7489 C   0  0  0  0  0  0
  -27.5581  -37.1808   24.8465 C   0  0  0  0  0  0
  -21.4158  -29.3034   22.3715 N   0  0  0  0  0  0
  -26.4294  -37.3791   23.9409 N   0  0  0  0  0  0
  -24.6751  -31.0730   22.1004 N   0  0  0  0  0  0
  -23.4191  -28.8183   23.3024 O   0  0  0  0  0  0
  -28.3367  -26.5716   20.1475 O   0  0  0  0  0  0
  -26.5606  -34.8927   22.4685 O   0  0  0  0  0  0
  -23.5372  -32.1427   23.7460 O   0  0  0  0  0  0
  -32.3678  -18.3905   21.9799 C   0  0  0  0  0  0
  -31.6099  -19.5334   21.6736 C   0  0  0  0  0  0
  -31.8456  -17.1063   21.7531 C   0  0  0  0  0  0
  -29.7795  -18.1055   20.9275 C   0  0  0  0  0  0
  -30.3067  -19.4204   21.1314 C   0  0  0  0  0  0
  -30.5508  -16.9339   21.2097 C   0  0  0  0  0  0
  -28.8785  -22.8832   20.6996 C   0  0  0  0  0  0
  -29.1425  -24.2192   20.6644 C   0  0  0  0  0  0
  -29.9359  -21.8697   20.6081 C   0  0  0  0  0  0
  -28.0903  -25.3219   20.8467 C   0  0  0  0  0  0
  -29.5131  -20.6023   20.8693 N   0  0  0  0  0  0
  -30.0296  -15.6021   20.9977 N   0  0  0  0  0  0
  -31.1017  -22.1349   20.3022 O   0  0  0  0  0  0
  -31.4606  -12.4139   19.1350 H   0  0  0  0  0  0
  -30.3107  -11.3325   19.8650 H   0  0  0  0  0  0
  -29.7403  -11.7569   17.4508 H   0  0  0  0  0  0
  -29.6555  -13.4743   17.7556 H   0  0  0  0  0  0
  -27.8384  -11.3000   18.8468 H   0  0  0  0  0  0
  -27.3637  -12.6032   17.7910 H   0  0  0  0  0  0
  -27.6822  -14.2556   19.5385 H   0  0  0  0  0  0
  -28.6846  -12.0355   21.3866 H   0  0  0  0  0  0
  -28.4625  -13.7005   21.8407 H   0  0  0  0  0  0
  -25.2761   -9.5688   22.4763 H   0  0  0  0  0  0
  -24.0003   -7.4635   22.7473 H   0  0  0  0  0  0
  -21.0842   -8.8777   19.8950 H   0  0  0  0  0  0
  -22.3695  -10.9678   19.6167 H   0  0  0  0  0  0
  -21.2007   -7.6150   23.9717 H   0  0  0  0  0  0
  -21.1481   -6.0523   25.9078 H   0  0  0  0  0  0
  -22.0598   -2.7610   23.2846 H   0  0  0  0  0  0
  -22.4098  -11.9889   22.4796 H   0  0  0  0  0  0
  -21.1104  -13.1256   22.2613 H   0  0  0  0  0  0
  -24.6583  -15.8443   20.5102 H   0  0  0  0  0  0
  -26.2743  -15.6272   20.0691 H   0  0  0  0  0  0
  -26.7139  -32.5514   23.1154 H   0  0  0  0  0  0
  -25.0072  -33.9769   25.0468 H   0  0  0  0  0  0
  -22.6986  -31.3077   21.4110 H   0  0  0  0  0  0
  -23.3750  -35.9644   23.3309 H   0  0  0  0  0  0
  -24.3583  -36.8916   22.2052 H   0  0  0  0  0  0
  -23.7240  -37.6514   23.6648 H   0  0  0  0  0  0
  -26.0612  -31.5879   20.6022 H   0  0  0  0  0  0
  -26.8274  -30.8708   21.9911 H   0  0  0  0  0  0
  -28.1057  -29.0548   21.1843 H   0  0  0  0  0  0
  -26.0344  -25.9741   18.9829 H   0  0  0  0  0  0
  -23.9751  -27.3140   19.0099 H   0  0  0  0  0  0
  -23.7298  -30.6047   19.4058 H   0  0  0  0  0  0
  -22.7420  -29.2499   19.8652 H   0  0  0  0  0  0
  -25.1284  -36.1973   25.0827 H   0  0  0  0  0  0
  -20.9954  -28.3239   24.1427 H   0  0  0  0  0  0
  -20.5669  -26.2279   23.3602 H   0  0  0  0  0  0
  -21.6638  -26.7448   22.1204 H   0  0  0  0  0  0
  -19.6915  -25.6297   21.1232 H   0  0  0  0  0  0
  -19.6688  -27.3201   20.6739 H   0  0  0  0  0  0
  -17.4191  -26.6663   21.4023 H   0  0  0  0  0  0
  -18.0329  -26.0058   22.9015 H   0  0  0  0  0  0
  -19.7935  -30.7250   24.2282 H   0  0  0  0  0  0
  -17.5018  -31.6267   24.5159 H   0  0  0  0  0  0
  -15.5348  -30.2994   23.7653 H   0  0  0  0  0  0
  -15.8658  -28.0829   22.7063 H   0  0  0  0  0  0
  -24.5904  -30.7070   25.7807 H   0  0  0  0  0  0
  -24.8942  -32.2875   26.4932 H   0  0  0  0  0  0
  -25.8086  -30.8871   27.0226 H   0  0  0  0  0  0
  -26.2860  -29.6797   24.1170 H   0  0  0  0  0  0
  -27.4063  -29.7273   25.4590 H   0  0  0  0  0  0
  -27.8707  -30.4340   23.9290 H   0  0  0  0  0  0
  -27.2673  -33.3616   26.2081 H   0  0  0  0  0  0
  -28.3858  -32.6884   25.0307 H   0  0  0  0  0  0
  -28.0730  -31.8430   26.5395 H   0  0  0  0  0  0
  -28.2602  -38.0105   24.7513 H   0  0  0  0  0  0
  -28.1072  -36.2633   24.6286 H   0  0  0  0  0  0
  -27.2299  -37.1455   25.8870 H   0  0  0  0  0  0
  -20.9326  -29.8766   21.6942 H   0  0  0  0  0  0
  -26.0186  -38.2870   24.1412 H   0  0  0  0  0  0
  -33.3578  -18.4998   22.4001 H   0  0  0  0  0  0
  -32.0478  -20.4976   21.8872 H   0  0  0  0  0  0
  -32.4576  -16.2530   22.0109 H   0  0  0  0  0  0
  -28.7797  -17.9948   20.5322 H   0  0  0  0  0  0
  -27.8540  -22.5611   20.8227 H   0  0  0  0  0  0
  -30.1605  -24.5629   20.5431 H   0  0  0  0  0  0
  -28.0527  -25.5552   21.9119 H   0  0  0  0  0  0
  -27.1213  -24.8860   20.6036 H   0  0  0  0  0  0
  -28.5116  -20.4856   20.9369 H   0  0  0  0  0  0
  -29.0422  -15.4649   21.1519 H   0  0  0  0  0  0
  1 25  1  0  0  0
  1 30  2  0  0  0
  1 82  1  0  0  0
  2  3  1  0  0  0
  2 25  1  0  0  0
  2 84  1  0  0  0
  2 85  1  0  0  0
  3  4  1  0  0  0
  3 86  1  0  0  0
  3 87  1  0  0  0
  4  5  1  0  0  0
  4 88  1  0  0  0
  4 89  1  0  0  0
  5  6  1  0  0  0
  5 26  1  0  0  0
  5 90  1  0  0  0
  6 25  1  0  0  0
  6 91  1  0  0  0
  6 92  1  0  0  0
  7  8  2  0  0  0
  7 26  1  0  0  0
  7 29  1  0  0  0
  8  9  1  0  0  0
  8 22  1  0  0  0
  9 10  1  0  0  0
  9 27  2  0  0  0
 10 11  2  0  0  0
 10 15  1  0  0  0
 11 12  1  0  0  0
 11 93  1  0  0  0
 12 13  2  0  0  0
 12 94  1  0  0  0
 13 14  1  0  0  0
 13 31  1  0  0  0
 14 15  2  0  0  0
 14 95  1  0  0  0
 15 96  1  0  0  0
 16 17  2  0  0  0
 16 21  1  0  0  0
 16 31  1  0  0  0
 17 18  1  0  0  0
 17 97  1  0  0  0
 18 19  2  0  0  0
 18 98  1  0  0  0
 19 20  1  0  0  0
 19 24  1  0  0  0
 20 21  2  0  0  0
 20 99  1  0  0  0
 21 23  1  0  0  0
 22 28  1  0  0  0
 22 32  2  0  0  0
 26 27  1  0  0  0
 28100  1  0  0  0
 28101  1  0  0  0
 29102  1  0  0  0
 29103  1  0  0  0
 33 34  1  0  0  0
 33 66  1  0  0  0
 33 70  2  0  0  0
 34 36  1  0  0  0
 34 59  1  0  0  0
 34104  1  0  0  0
 35 44  2  0  0  0
 35 45  1  0  0  0
 35 68  1  0  0  0
 36 56  1  0  0  0
 36105  1  0  0  0
 37 39  1  0  0  0
 37 47  1  0  0  0
 37 66  1  0  0  0
 37106  1  0  0  0
 38 43  2  0  0  0
 38 46  1  0  0  0
 38 47  1  0  0  0
 39 64  1  0  0  0
 39 67  2  0  0  0
 40 52  1  0  0  0
 40 53  2  0  0  0
 40 58  1  0  0  0
 41107  1  0  0  0
 41108  1  0  0  0
 41109  1  0  0  0
 41 48  1  0  0  0
 42 43  1  0  0  0
 42 66  1  0  0  0
 42110  1  0  0  0
 42111  1  0  0  0
 43 44  1  0  0  0
 44112  1  0  0  0
 45 46  2  0  0  0
 45113  1  0  0  0
 46114  1  0  0  0
 47115  1  0  0  0
 47116  1  0  0  0
 48 56  1  0  0  0
 48 65  1  0  0  0
 48117  1  0  0  0
 49 50  1  0  0  0
 49 53  1  0  0  0
 49 64  1  0  0  0
 49118  1  0  0  0
 50 51  1  0  0  0
 50119  1  0  0  0
 50120  1  0  0  0
 51 52  1  0  0  0
 51121  1  0  0  0
 51122  1  0  0  0
 52123  1  0  0  0
 52124  1  0  0  0
 53 54  1  0  0  0
 54 55  2  0  0  0
 54125  1  0  0  0
 55 57  1  0  0  0
 55126  1  0  0  0
 56 69  2  0  0  0
 57 58  2  0  0  0
 57127  1  0  0  0
 58128  1  0  0  0
 59 60  1  0  0  0
 59 61  1  0  0  0
 59 62  1  0  0  0
 60129  1  0  0  0
 60130  1  0  0  0
 60131  1  0  0  0
 61132  1  0  0  0
 61133  1  0  0  0
 61134  1  0  0  0
 62135  1  0  0  0
 62136  1  0  0  0
 62137  1  0  0  0
 63 65  1  0  0  0
 63138  1  0  0  0
 63139  1  0  0  0
 63140  1  0  0  0
 64141  1  0  0  0
 65142  1  0  0  0
 68 80  1  0  0  0
 71 72  2  0  0  0
 71 73  1  0  0  0
 71143  1  0  0  0
 72 75  1  0  0  0
 72144  1  0  0  0
 73 76  2  0  0  0
 73145  1  0  0  0
 74 75  2  0  0  0
 74 76  1  0  0  0
 74146  1  0  0  0
 75 81  1  0  0  0
 76 82  1  0  0  0
 77 78  2  0  0  0
 77 79  1  0  0  0
 77147  1  0  0  0
 78 80  1  0  0  0
 78148  1  0  0  0
 79 81  1  0  0  0
 79 83  2  0  0  0
 80149  1  0  0  0
 80150  1  0  0  0
 81151  1  0  0  0
 82152  1  0  0  0
M  ISO  4   1 100  68 101  80 101  82 100
M  END
> <chiral flag>
0

> <version>
0

> <s_m_source_file>
/data/baiqing/PycharmProjects/Reinvent-master-3.2/result/LINK_invent/BTK/process_docking_weight1_custom_product_contain_oxygen_bond_distance_aromatic_linkinvent_7_9_3/rearranged_h_0058.sdf

> <i_m_source_file_index>
23

> <r_mmod_Potential_Energy-OPLS-2005>
-49.5611343383789

> <r_mmod_Stretch_Energy-OPLS-2005>
49.6872673034668

> <r_mmod_Bend_Energy-OPLS-2005>
97.8554916381836

> <r_mmod_Torsional_Energy-OPLS-2005>
250.232345581055

> <r_mmod_Improper_Torsional_Energy-OPLS-2005>
4.59473848342896

> <r_mmod_Van_der_Waal_Energy-OPLS-2005>
160.846084594727

> <r_mmod_Electrostatic_Energy-OPLS-2005>
-399.101959228516

> <r_mmod_Solvation_Energy-OPLS-2005>
-237.277526855469

> <b_mmod_Minimization_Converged-OPLS-2005>
0

> <r_mmod_RMS_Derivative-OPLS-2005>
0.667279124259949

$$$$
23
                    3D
 Structure written by MMmdl.
158166  0  0  1  0            999 V2000
  -30.5908  -14.5932   20.5374 C   0  0  0  0  0  0
  -30.4560  -12.3813   19.4244 C   0  0  0  0  0  0
  -29.5055  -12.5046   18.2122 C   0  0  0  0  0  0
  -28.0289  -12.3339   18.6292 C   0  0  0  0  0  0
  -27.6598  -13.1857   19.8742 C   0  0  2  0  0  0
  -28.7045  -12.9881   20.9928 C   0  0  0  0  0  0
  -25.2539  -13.8022   20.5631 C   0  0  0  0  0  0
  -24.1804  -13.0363   20.9210 C   0  0  0  0  0  0
  -24.6344  -11.6831   20.8741 C   0  0  0  0  0  0
  -23.9004  -10.4275   21.0399 C   0  0  0  0  0  0
  -24.3600   -9.4229   21.9168 C   0  0  0  0  0  0
  -23.6290   -8.2270   22.0766 C   0  0  0  0  0  0
  -22.4280   -8.0290   21.3552 C   0  0  0  0  0  0
  -21.9887   -9.0249   20.4653 C   0  0  0  0  0  0
  -22.7194  -10.2125   20.3039 C   0  0  0  0  0  0
  -21.6851   -6.0760   22.5273 C   0  0  0  0  0  0
  -21.4022   -6.5665   23.8205 C   0  0  0  0  0  0
  -21.3650   -5.6803   24.9164 C   0  0  0  0  0  0
  -21.6035   -4.3062   24.7195 C   0  0  0  0  0  0
  -21.8834   -3.8172   23.4313 C   0  0  0  0  0  0
  -21.9208   -4.6996   22.3389 C   0  0  0  0  0  0
  -22.7832  -13.5200   21.1877 C   0  0  0  0  0  0
  -22.1676   -4.2188   21.0956 F   0  0  0  0  0  0
  -21.5593   -3.4546   25.7705 F   0  0  0  0  0  0
  -30.0230  -13.3553   20.4415 N   0  0  0  0  0  0
  -26.2991  -12.9174   20.3343 N   0  0  0  0  0  0
  -25.9258  -11.6350   20.5774 N   0  0  0  0  0  0
  -22.0446  -12.8199   22.0414 N   0  0  0  0  0  0
  -25.4110  -15.1683   20.3838 N   0  0  0  0  0  0
  -31.7194  -14.8424   20.0993 O   0  0  0  0  0  0
  -21.6639   -6.8904   21.4245 O   0  0  0  0  0  0
  -22.3549  -14.5549   20.6789 O   0  0  0  0  0  0
  -24.6201  -31.8633   23.2063 C   0  0  0  0  0  0
  -25.9064  -32.4791   23.8368 C   0  0  1  0  0  0
  -27.2184  -27.3673   20.0999 C   0  0  0  0  0  0
  -25.5913  -33.8595   24.2298 N   0  0  0  0  0  0
  -23.4127  -30.4827   21.5480 C   0  0  2  0  0  0
  -24.8522  -28.9376   20.1171 C   0  0  0  0  0  0
  -22.7495  -29.4558   22.4955 C   0  0  0  0  0  0
  -18.0281  -28.1298   22.8469 C   0  0  0  0  0  0
  -24.1483  -36.7307   23.2640 C   0  0  0  0  0  0
  -25.9458  -30.8039   21.3649 C   0  0  0  0  0  0
  -26.0194  -29.4328   20.7109 C   0  0  0  0  0  0
  -27.2098  -28.6559   20.6995 C   0  0  0  0  0  0
  -26.0344  -26.9036   19.4875 C   0  0  0  0  0  0
  -24.8558  -27.6734   19.5049 C   0  0  0  0  0  0
  -23.6184  -29.8133   20.1635 C   0  0  0  0  0  0
  -25.4107  -36.3090   24.0337 C   0  0  1  0  0  0
  -20.5900  -28.3492   23.1179 C   0  0  2  0  0  0
  -20.6754  -26.9227   22.5247 C   0  0  0  0  0  0
  -19.5634  -26.6112   21.5228 C   0  0  0  0  0  0
  -18.1827  -26.7836   22.1539 C   0  0  0  0  0  0
  -19.1557  -28.8726   23.2815 C   0  0  0  0  0  0
  -18.9515  -30.1366   23.8778 C   0  0  0  0  0  0
  -17.6568  -30.6562   24.0525 C   0  0  0  0  0  0
  -25.9033  -34.9451   23.5114 C   0  0  0  0  0  0
  -16.5416  -29.9073   23.6393 C   0  0  0  0  0  0
  -16.7303  -28.6468   23.0422 C   0  0  0  0  0  0
  -26.4467  -31.6583   25.0734 C   0  0  0  0  0  0
  -25.3693  -31.3726   26.1465 C   0  0  0  0  0  0
  -27.0318  -30.3028   24.6134 C   0  0  0  0  0  0
  -27.6038  -32.4327   25.7489 C   0  0  0  0  0  0
  -27.5589  -37.1800   24.8470 C   0  0  0  0  0  0
  -21.4238  -29.2880   22.3670 N   0  0  0  0  0  0
  -26.4307  -37.3795   23.9393 N   0  0  0  0  0  0
  -24.6796  -31.0661   22.0978 N   0  0  0  0  0  0
  -23.4250  -28.8162   23.3070 O   0  0  0  0  0  0
  -28.3418  -26.5490   20.1062 O   0  0  0  0  0  0
  -26.5618  -34.8930   22.4696 O   0  0  0  0  0  0
  -23.5380  -32.1437   23.7391 O   0  0  0  0  0  0
  -30.3360  -17.9763   21.2511 C   0  0  0  0  0  0
  -29.8308  -19.3099   21.3078 C   0  0  0  0  0  0
  -28.2747  -17.2678   20.2144 C   0  0  0  0  0  0
  -27.7596  -18.5863   20.2754 C   0  0  0  0  0  0
  -29.5282  -16.9167   20.7664 C   0  0  0  0  0  0
  -28.5067  -19.6223   20.9018 C   0  0  0  0  0  0
  -28.6113  -22.6682   20.1810 C   0  0  0  0  0  0
  -28.7468  -24.0211   19.9474 C   0  0  0  0  0  0
  -27.8100  -22.1023   21.2751 C   0  0  0  0  0  0
  -26.3337  -18.8121   19.7819 C   0  0  0  0  0  0
  -26.8774  -20.2990   22.5730 C   0  0  0  0  0  0
  -28.1558  -25.2321   20.7186 C   0  0  0  0  0  0
  -29.7667  -15.5274   21.0750 N   0  0  0  0  0  0
  -27.7989  -20.7405   21.5068 N   0  0  0  0  0  0
  -27.1226  -22.8401   21.9947 O   0  0  0  0  0  0
  -31.4885  -12.5500   19.1090 H   0  0  0  0  0  0
  -30.4252  -11.3715   19.8334 H   0  0  0  0  0  0
  -29.7597  -11.7616   17.4546 H   0  0  0  0  0  0
  -29.6317  -13.4788   17.7335 H   0  0  0  0  0  0
  -27.8644  -11.2744   18.8360 H   0  0  0  0  0  0
  -27.3710  -12.5852   17.7972 H   0  0  0  0  0  0
  -27.6913  -14.2301   19.5572 H   0  0  0  0  0  0
  -28.7241  -11.9527   21.3330 H   0  0  0  0  0  0
  -28.4462  -13.5735   21.8752 H   0  0  0  0  0  0
  -25.2788   -9.5768   22.4670 H   0  0  0  0  0  0
  -24.0024   -7.4718   22.7518 H   0  0  0  0  0  0
  -21.0804   -8.8774   19.8982 H   0  0  0  0  0  0
  -22.3660  -10.9645   19.6122 H   0  0  0  0  0  0
  -21.2028   -7.6174   23.9698 H   0  0  0  0  0  0
  -21.1437   -6.0539   25.9048 H   0  0  0  0  0  0
  -22.0622   -2.7638   23.2785 H   0  0  0  0  0  0
  -22.4070  -11.9887   22.4836 H   0  0  0  0  0  0
  -21.1098  -13.1250   22.2717 H   0  0  0  0  0  0
  -24.6028  -15.7788   20.4263 H   0  0  0  0  0  0
  -26.1864  -15.5743   19.8816 H   0  0  0  0  0  0
  -26.7118  -32.5450   23.1102 H   0  0  0  0  0  0
  -25.0048  -33.9744   25.0432 H   0  0  0  0  0  0
  -22.7054  -31.3045   21.4073 H   0  0  0  0  0  0
  -23.3750  -35.9640   23.3301 H   0  0  0  0  0  0
  -24.3584  -36.8914   22.2056 H   0  0  0  0  0  0
  -23.7228  -37.6514   23.6656 H   0  0  0  0  0  0
  -26.0695  -31.5656   20.5935 H   0  0  0  0  0  0
  -26.8305  -30.8552   21.9888 H   0  0  0  0  0  0
  -28.1117  -29.0284   21.1687 H   0  0  0  0  0  0
  -26.0197  -25.9360   19.0015 H   0  0  0  0  0  0
  -23.9587  -27.2806   19.0473 H   0  0  0  0  0  0
  -23.7316  -30.5856   19.4034 H   0  0  0  0  0  0
  -22.7375  -29.2365   19.8748 H   0  0  0  0  0  0
  -25.1278  -36.1980   25.0843 H   0  0  0  0  0  0
  -21.0045  -28.2981   24.1272 H   0  0  0  0  0  0
  -20.5915  -26.2078   23.3471 H   0  0  0  0  0  0
  -21.6532  -26.7310   22.0767 H   0  0  0  0  0  0
  -19.6666  -25.5935   21.1432 H   0  0  0  0  0  0
  -19.6583  -27.2682   20.6552 H   0  0  0  0  0  0
  -17.4131  -26.6650   21.3895 H   0  0  0  0  0  0
  -18.0125  -25.9949   22.8899 H   0  0  0  0  0  0
  -19.8040  -30.7151   24.1996 H   0  0  0  0  0  0
  -17.5211  -31.6301   24.5056 H   0  0  0  0  0  0
  -15.5441  -30.3020   23.7809 H   0  0  0  0  0  0
  -15.8728  -28.0777   22.7184 H   0  0  0  0  0  0
  -24.5861  -30.7098   25.7789 H   0  0  0  0  0  0
  -24.8908  -32.2892   26.4909 H   0  0  0  0  0  0
  -25.8018  -30.8889   27.0220 H   0  0  0  0  0  0
  -26.2899  -29.6783   24.1168 H   0  0  0  0  0  0
  -27.4057  -29.7308   25.4622 H   0  0  0  0  0  0
  -27.8729  -30.4366   23.9345 H   0  0  0  0  0  0
  -27.2654  -33.3614   26.2093 H   0  0  0  0  0  0
  -28.3823  -32.6883   25.0295 H   0  0  0  0  0  0
  -28.0722  -31.8426   26.5361 H   0  0  0  0  0  0
  -28.2614  -38.0091   24.7516 H   0  0  0  0  0  0
  -28.1078  -36.2624   24.6296 H   0  0  0  0  0  0
  -27.2311  -37.1454   25.8880 H   0  0  0  0  0  0
  -20.9437  -29.8667   21.6909 H   0  0  0  0  0  0
  -26.0189  -38.2888   24.1379 H   0  0  0  0  0  0
  -31.2879  -17.7586   21.7106 H   0  0  0  0  0  0
  -30.4273  -20.0529   21.8133 H   0  0  0  0  0  0
  -27.6425  -16.4877   19.8313 H   0  0  0  0  0  0
  -29.1211  -21.9842   19.5224 H   0  0  0  0  0  0
  -29.3679  -24.3068   19.1136 H   0  0  0  0  0  0
  -26.1730  -18.2809   18.8398 H   0  0  0  0  0  0
  -26.1114  -19.8635   19.5939 H   0  0  0  0  0  0
  -25.6142  -18.4461   20.5179 H   0  0  0  0  0  0
  -26.9556  -19.2295   22.7850 H   0  0  0  0  0  0
  -25.8394  -20.5005   22.2935 H   0  0  0  0  0  0
  -27.0792  -20.8002   23.5158 H   0  0  0  0  0  0
  -28.6443  -25.2634   21.6941 H   0  0  0  0  0  0
  -27.1000  -25.0346   20.9080 H   0  0  0  0  0  0
  -28.9415  -15.0677   21.4339 H   0  0  0  0  0  0
  1 25  1  0  0  0
  1 30  2  0  0  0
  1 83  1  0  0  0
  2  3  1  0  0  0
  2 25  1  0  0  0
  2 86  1  0  0  0
  2 87  1  0  0  0
  3  4  1  0  0  0
  3 88  1  0  0  0
  3 89  1  0  0  0
  4  5  1  0  0  0
  4 90  1  0  0  0
  4 91  1  0  0  0
  5  6  1  0  0  0
  5 26  1  0  0  0
  5 92  1  0  0  0
  6 25  1  0  0  0
  6 93  1  0  0  0
  6 94  1  0  0  0
  7  8  2  0  0  0
  7 26  1  0  0  0
  7 29  1  0  0  0
  8  9  1  0  0  0
  8 22  1  0  0  0
  9 10  1  0  0  0
  9 27  2  0  0  0
 10 11  2  0  0  0
 10 15  1  0  0  0
 11 12  1  0  0  0
 11 95  1  0  0  0
 12 13  2  0  0  0
 12 96  1  0  0  0
 13 14  1  0  0  0
 13 31  1  0  0  0
 14 15  2  0  0  0
 14 97  1  0  0  0
 15 98  1  0  0  0
 16 17  2  0  0  0
 16 21  1  0  0  0
 16 31  1  0  0  0
 17 18  1  0  0  0
 17 99  1  0  0  0
 18 19  2  0  0  0
 18100  1  0  0  0
 19 20  1  0  0  0
 19 24  1  0  0  0
 20 21  2  0  0  0
 20101  1  0  0  0
 21 23  1  0  0  0
 22 28  1  0  0  0
 22 32  2  0  0  0
 26 27  1  0  0  0
 28102  1  0  0  0
 28103  1  0  0  0
 29104  1  0  0  0
 29105  1  0  0  0
 33 34  1  0  0  0
 33 66  1  0  0  0
 33 70  2  0  0  0
 34 36  1  0  0  0
 34 59  1  0  0  0
 34106  1  0  0  0
 35 44  2  0  0  0
 35 45  1  0  0  0
 35 68  1  0  0  0
 36 56  1  0  0  0
 36107  1  0  0  0
 37 39  1  0  0  0
 37 47  1  0  0  0
 37 66  1  0  0  0
 37108  1  0  0  0
 38 43  2  0  0  0
 38 46  1  0  0  0
 38 47  1  0  0  0
 39 64  1  0  0  0
 39 67  2  0  0  0
 40 52  1  0  0  0
 40 53  2  0  0  0
 40 58  1  0  0  0
 41109  1  0  0  0
 41110  1  0  0  0
 41111  1  0  0  0
 41 48  1  0  0  0
 42 43  1  0  0  0
 42 66  1  0  0  0
 42112  1  0  0  0
 42113  1  0  0  0
 43 44  1  0  0  0
 44114  1  0  0  0
 45 46  2  0  0  0
 45115  1  0  0  0
 46116  1  0  0  0
 47117  1  0  0  0
 47118  1  0  0  0
 48 56  1  0  0  0
 48 65  1  0  0  0
 48119  1  0  0  0
 49 50  1  0  0  0
 49 53  1  0  0  0
 49 64  1  0  0  0
 49120  1  0  0  0
 50 51  1  0  0  0
 50121  1  0  0  0
 50122  1  0  0  0
 51 52  1  0  0  0
 51123  1  0  0  0
 51124  1  0  0  0
 52125  1  0  0  0
 52126  1  0  0  0
 53 54  1  0  0  0
 54 55  2  0  0  0
 54127  1  0  0  0
 55 57  1  0  0  0
 55128  1  0  0  0
 56 69  2  0  0  0
 57 58  2  0  0  0
 57129  1  0  0  0
 58130  1  0  0  0
 59 60  1  0  0  0
 59 61  1  0  0  0
 59 62  1  0  0  0
 60131  1  0  0  0
 60132  1  0  0  0
 60133  1  0  0  0
 61134  1  0  0  0
 61135  1  0  0  0
 61136  1  0  0  0
 62137  1  0  0  0
 62138  1  0  0  0
 62139  1  0  0  0
 63 65  1  0  0  0
 63140  1  0  0  0
 63141  1  0  0  0
 63142  1  0  0  0
 64143  1  0  0  0
 65144  1  0  0  0
 68 82  1  0  0  0
 71 72  2  0  0  0
 71 75  1  0  0  0
 71145  1  0  0  0
 72 76  1  0  0  0
 72146  1  0  0  0
 73 74  1  0  0  0
 73 75  2  0  0  0
 73147  1  0  0  0
 74 76  2  0  0  0
 74 80  1  0  0  0
 75 83  1  0  0  0
 76 84  1  0  0  0
 77 78  2  0  0  0
 77 79  1  0  0  0
 77148  1  0  0  0
 78 82  1  0  0  0
 78149  1  0  0  0
 79 84  1  0  0  0
 79 85  2  0  0  0
 80150  1  0  0  0
 80151  1  0  0  0
 80152  1  0  0  0
 81 84  1  0  0  0
 81153  1  0  0  0
 81154  1  0  0  0
 81155  1  0  0  0
 82156  1  0  0  0
 82157  1  0  0  0
 83158  1  0  0  0
M  ISO  4   1 100  68 101  82 101  83 100
M  END
> <chiral flag>
0

> <version>
0

> <s_m_source_file>
/data/baiqing/PycharmProjects/Reinvent-master-3.2/result/LINK_invent/BTK/process_docking_weight1_custom_product_contain_oxygen_bond_distance_aromatic_linkinvent_7_9_3/rearranged_h_0058.sdf

> <i_m_source_file_index>
24

> <r_mmod_Potential_Energy-OPLS-2005>
168.236175537109

> <r_mmod_Stretch_Energy-OPLS-2005>
62.7056579589844

> <r_mmod_Bend_Energy-OPLS-2005>
144.140274047852

> <r_mmod_Torsional_Energy-OPLS-2005>
348.065612792969

> <r_mmod_Improper_Torsional_Energy-OPLS-2005>
13.9135265350342

> <r_mmod_Van_der_Waal_Energy-OPLS-2005>
159.035766601562

> <r_mmod_Electrostatic_Energy-OPLS-2005>
-382.639221191406

> <r_mmod_Solvation_Energy-OPLS-2005>
-212.381271362305

> <b_mmod_Minimization_Converged-OPLS-2005>
0

> <r_mmod_RMS_Derivative-OPLS-2005>
7.17833471298218

$$$$
24
                    3D
 Structure written by MMmdl.
164172  0  0  1  0            999 V2000
  -30.6521  -14.4121   20.6056 C   0  0  0  0  0  0
  -30.4294  -12.2713   19.3738 C   0  0  0  0  0  0
  -29.4732  -12.4773   18.1856 C   0  0  0  0  0  0
  -28.0014  -12.3291   18.6097 C   0  0  0  0  0  0
  -27.6616  -13.1710   19.8646 C   0  0  2  0  0  0
  -28.7025  -12.8709   20.9687 C   0  0  0  0  0  0
  -25.2663  -13.8131   20.5730 C   0  0  0  0  0  0
  -24.1851  -13.0400   20.9142 C   0  0  0  0  0  0
  -24.6284  -11.6859   20.8684 C   0  0  0  0  0  0
  -23.8938  -10.4284   21.0405 C   0  0  0  0  0  0
  -24.3569   -9.4256   21.9190 C   0  0  0  0  0  0
  -23.6288   -8.2273   22.0746 C   0  0  0  0  0  0
  -22.4268   -8.0279   21.3541 C   0  0  0  0  0  0
  -21.9868   -9.0241   20.4630 C   0  0  0  0  0  0
  -22.7125  -10.2125   20.3043 C   0  0  0  0  0  0
  -21.6876   -6.0732   22.5259 C   0  0  0  0  0  0
  -21.4001   -6.5631   23.8188 C   0  0  0  0  0  0
  -21.3654   -5.6794   24.9164 C   0  0  0  0  0  0
  -21.6068   -4.3059   24.7232 C   0  0  0  0  0  0
  -21.8818   -3.8136   23.4342 C   0  0  0  0  0  0
  -21.9188   -4.6954   22.3399 C   0  0  0  0  0  0
  -22.7920  -13.5294   21.1775 C   0  0  0  0  0  0
  -22.1659   -4.2142   21.0982 F   0  0  0  0  0  0
  -21.5623   -3.4532   25.7738 F   0  0  0  0  0  0
  -30.0321  -13.2216   20.4276 N   0  0  0  0  0  0
  -26.2980  -12.9153   20.3334 N   0  0  0  0  0  0
  -25.9187  -11.6331   20.5737 N   0  0  0  0  0  0
  -22.0547  -12.8293   22.0280 N   0  0  0  0  0  0
  -25.4679  -15.1753   20.4243 N   0  0  0  0  0  0
  -31.7611  -14.6849   20.1412 O   0  0  0  0  0  0
  -21.6644   -6.8858   21.4201 O   0  0  0  0  0  0
  -22.3693  -14.5678   20.6674 O   0  0  0  0  0  0
  -24.6159  -31.8702   23.1923 C   0  0  0  0  0  0
  -25.9032  -32.4815   23.8292 C   0  0  1  0  0  0
  -27.2430  -27.4076   20.1120 C   0  0  0  0  0  0
  -25.5823  -33.8583   24.2218 N   0  0  0  0  0  0
  -23.4043  -30.4835   21.5272 C   0  0  2  0  0  0
  -24.8564  -28.9539   20.1169 C   0  0  0  0  0  0
  -22.7479  -29.4706   22.4939 C   0  0  0  0  0  0
  -18.0567  -28.1230   22.8590 C   0  0  0  0  0  0
  -24.1472  -36.7295   23.2627 C   0  0  0  0  0  0
  -25.9336  -30.8472   21.3418 C   0  0  0  0  0  0
  -26.0206  -29.4687   20.6971 C   0  0  0  0  0  0
  -27.2155  -28.7009   20.6872 C   0  0  0  0  0  0
  -26.0502  -26.9150   19.5407 C   0  0  0  0  0  0
  -24.8615  -27.6692   19.5556 C   0  0  0  0  0  0
  -23.6171  -29.8083   20.1476 C   0  0  0  0  0  0
  -25.4105  -36.3065   24.0294 C   0  0  1  0  0  0
  -20.6182  -28.3547   23.1368 C   0  0  2  0  0  0
  -20.6801  -26.9279   22.5637 C   0  0  0  0  0  0
  -19.6205  -26.7214   21.4681 C   0  0  0  0  0  0
  -18.2551  -26.7842   22.1571 C   0  0  0  0  0  0
  -19.1853  -28.8720   23.3006 C   0  0  0  0  0  0
  -18.9780  -30.1282   23.8979 C   0  0  0  0  0  0
  -17.6771  -30.6327   24.0722 C   0  0  0  0  0  0
  -25.9079  -34.9478   23.5115 C   0  0  0  0  0  0
  -16.5631  -29.8901   23.6497 C   0  0  0  0  0  0
  -16.7499  -28.6375   23.0318 C   0  0  0  0  0  0
  -26.4490  -31.6591   25.0628 C   0  0  0  0  0  0
  -25.3722  -31.3709   26.1345 C   0  0  0  0  0  0
  -27.0325  -30.3004   24.6028 C   0  0  0  0  0  0
  -27.6049  -32.4323   25.7419 C   0  0  0  0  0  0
  -27.5589  -37.1765   24.8451 C   0  0  0  0  0  0
  -21.4295  -29.2736   22.3503 N   0  0  0  0  0  0
  -26.4290  -37.3756   23.9404 N   0  0  0  0  0  0
  -24.6654  -31.0862   22.0775 N   0  0  0  0  0  0
  -23.4241  -28.8549   23.3216 O   0  0  0  0  0  0
  -28.4303  -26.7001   20.1138 O   0  0  0  0  0  0
  -26.5651  -34.8919   22.4668 O   0  0  0  0  0  0
  -23.5359  -32.1391   23.7336 O   0  0  0  0  0  0
  -31.0431  -18.6379   22.4488 C   0  0  0  0  0  0
  -31.0765  -17.2688   22.1019 C   0  0  0  0  0  0
  -28.8962  -17.5021   21.0586 C   0  0  0  0  0  0
  -28.8714  -18.9006   21.3132 C   0  0  0  0  0  0
  -29.9582  -19.4608   22.0568 C   0  0  0  0  0  0
  -29.9782  -16.6883   21.4433 C   0  0  0  0  0  0
  -27.7685  -19.6887   20.6123 C   0  0  0  0  0  0
  -25.8139  -21.8357   19.3932 C   0  0  0  0  0  0
  -30.0566  -20.9414   22.4388 C   0  0  0  0  0  0
  -28.4026  -24.2886   20.8592 C   0  0  0  0  0  0
  -27.1187  -23.4034   20.9038 C   0  0  0  0  0  0
  -28.5060  -25.3192   19.6957 C   0  0  0  0  0  0
  -27.1620  -22.0539   20.1138 C   0  0  1  0  0  0
  -24.7558  -21.5872   20.1622 N   0  0  0  0  0  0
  -29.8577  -15.3025   21.2351 N   0  0  0  0  0  0
  -27.4542  -20.9254   21.0311 N   0  0  0  0  0  0
  -27.2129  -19.1876   19.6332 O   0  0  0  0  0  0
  -25.7261  -21.8461   18.1684 O   0  0  0  0  0  0
  -31.4672  -12.3903   19.0402 H   0  0  0  0  0  0
  -30.3475  -11.2486   19.7431 H   0  0  0  0  0  0
  -29.6874  -11.7582   17.3904 H   0  0  0  0  0  0
  -29.6314  -13.4688   17.7577 H   0  0  0  0  0  0
  -27.8075  -11.2796   18.8289 H   0  0  0  0  0  0
  -27.3372  -12.5946   17.7851 H   0  0  0  0  0  0
  -27.7221  -14.2286   19.5808 H   0  0  0  0  0  0
  -28.6659  -11.8072   21.2211 H   0  0  0  0  0  0
  -28.4666  -13.4006   21.8932 H   0  0  0  0  0  0
  -25.2670   -9.5843   22.4807 H   0  0  0  0  0  0
  -24.0005   -7.4711   22.7476 H   0  0  0  0  0  0
  -21.0832   -8.8779   19.8976 H   0  0  0  0  0  0
  -22.3553  -10.9718   19.6249 H   0  0  0  0  0  0
  -21.1989   -7.6140   23.9688 H   0  0  0  0  0  0
  -21.1473   -6.0526   25.9069 H   0  0  0  0  0  0
  -22.0601   -2.7584   23.2852 H   0  0  0  0  0  0
  -22.4216  -11.9998   22.4724 H   0  0  0  0  0  0
  -21.1221  -13.1451   22.2600 H   0  0  0  0  0  0
  -24.7210  -15.8549   20.4714 H   0  0  0  0  0  0
  -26.3491  -15.5723   20.1261 H   0  0  0  0  0  0
  -26.7170  -32.5624   23.1155 H   0  0  0  0  0  0
  -24.9871  -33.9800   25.0288 H   0  0  0  0  0  0
  -22.6886  -31.2930   21.3638 H   0  0  0  0  0  0
  -23.3749  -35.9638   23.3309 H   0  0  0  0  0  0
  -24.3547  -36.8912   22.2052 H   0  0  0  0  0  0
  -23.7270  -37.6481   23.6691 H   0  0  0  0  0  0
  -26.0541  -31.6237   20.5757 H   0  0  0  0  0  0
  -26.8165  -30.9024   21.9650 H   0  0  0  0  0  0
  -28.1092  -29.1126   21.1240 H   0  0  0  0  0  0
  -26.0030  -25.9308   19.1125 H   0  0  0  0  0  0
  -23.9495  -27.2592   19.1341 H   0  0  0  0  0  0
  -23.7116  -30.5560   19.3592 H   0  0  0  0  0  0
  -22.7584  -29.1879   19.8800 H   0  0  0  0  0  0
  -25.1331  -36.1894   25.0790 H   0  0  0  0  0  0
  -21.0382  -28.3235   24.1464 H   0  0  0  0  0  0
  -20.4434  -26.2450   23.3808 H   0  0  0  0  0  0
  -21.6900  -26.6530   22.2508 H   0  0  0  0  0  0
  -19.7030  -27.5181   20.7184 H   0  0  0  0  0  0
  -19.7811  -25.7690   20.9682 H   0  0  0  0  0  0
  -17.4377  -26.5695   21.4568 H   0  0  0  0  0  0
  -18.2262  -25.9886   22.9034 H   0  0  0  0  0  0
  -19.8281  -30.7190   24.2038 H   0  0  0  0  0  0
  -17.5411  -31.6045   24.5322 H   0  0  0  0  0  0
  -15.5675  -30.2879   23.7756 H   0  0  0  0  0  0
  -15.8943  -28.0903   22.6679 H   0  0  0  0  0  0
  -24.5910  -30.7084   25.7659 H   0  0  0  0  0  0
  -24.8967  -32.2892   26.4755 H   0  0  0  0  0  0
  -25.8072  -30.8883   27.0096 H   0  0  0  0  0  0
  -26.2903  -29.6696   24.1148 H   0  0  0  0  0  0
  -27.4129  -29.7309   25.4518 H   0  0  0  0  0  0
  -27.8704  -30.4244   23.9162 H   0  0  0  0  0  0
  -27.2611  -33.3571   26.2011 H   0  0  0  0  0  0
  -28.3838  -32.6903   25.0268 H   0  0  0  0  0  0
  -28.0689  -31.8406   26.5294 H   0  0  0  0  0  0
  -28.2574  -38.0085   24.7517 H   0  0  0  0  0  0
  -28.1088  -36.2618   24.6261 H   0  0  0  0  0  0
  -27.2285  -37.1392   25.8832 H   0  0  0  0  0  0
  -20.9630  -29.7104   21.5693 H   0  0  0  0  0  0
  -26.0169  -38.2833   24.1382 H   0  0  0  0  0  0
  -31.8688  -19.0634   23.0027 H   0  0  0  0  0  0
  -31.9257  -16.6705   22.3876 H   0  0  0  0  0  0
  -28.0773  -17.0456   20.5229 H   0  0  0  0  0  0
  -30.8963  -21.1253   23.1212 H   0  0  0  0  0  0
  -29.1668  -21.2713   22.9845 H   0  0  0  0  0  0
  -30.2076  -21.5786   21.5681 H   0  0  0  0  0  0
  -29.3003  -23.6719   20.8591 H   0  0  0  0  0  0
  -28.4816  -24.8205   21.8104 H   0  0  0  0  0  0
  -26.2790  -24.0262   20.5822 H   0  0  0  0  0  0
  -26.8872  -23.1653   21.9384 H   0  0  0  0  0  0
  -27.8671  -25.0697   18.8552 H   0  0  0  0  0  0
  -29.5089  -25.2107   19.2810 H   0  0  0  0  0  0
  -27.9545  -22.0891   19.3605 H   0  0  0  0  0  0
  -24.8503  -21.5615   21.1640 H   0  0  0  0  0  0
  -23.8822  -21.3276   19.7405 H   0  0  0  0  0  0
  -28.9417  -14.9172   21.4262 H   0  0  0  0  0  0
  -26.8750  -20.9138   21.8630 H   0  0  0  0  0  0
  1 25  1  0  0  0
  1 30  2  0  0  0
  1 85  1  0  0  0
  2  3  1  0  0  0
  2 25  1  0  0  0
  2 89  1  0  0  0
  2 90  1  0  0  0
  3  4  1  0  0  0
  3 91  1  0  0  0
  3 92  1  0  0  0
  4  5  1  0  0  0
  4 93  1  0  0  0
  4 94  1  0  0  0
  5  6  1  0  0  0
  5 26  1  0  0  0
  5 95  1  0  0  0
  6 25  1  0  0  0
  6 96  1  0  0  0
  6 97  1  0  0  0
  7  8  2  0  0  0
  7 26  1  0  0  0
  7 29  1  0  0  0
  8  9  1  0  0  0
  8 22  1  0  0  0
  9 10  1  0  0  0
  9 27  2  0  0  0
 10 11  2  0  0  0
 10 15  1  0  0  0
 11 12  1  0  0  0
 11 98  1  0  0  0
 12 13  2  0  0  0
 12 99  1  0  0  0
 13 14  1  0  0  0
 13 31  1  0  0  0
 14 15  2  0  0  0
 14100  1  0  0  0
 15101  1  0  0  0
 16 17  2  0  0  0
 16 21  1  0  0  0
 16 31  1  0  0  0
 17 18  1  0  0  0
 17102  1  0  0  0
 18 19  2  0  0  0
 18103  1  0  0  0
 19 20  1  0  0  0
 19 24  1  0  0  0
 20 21  2  0  0  0
 20104  1  0  0  0
 21 23  1  0  0  0
 22 28  1  0  0  0
 22 32  2  0  0  0
 26 27  1  0  0  0
 28105  1  0  0  0
 28106  1  0  0  0
 29107  1  0  0  0
 29108  1  0  0  0
 33 34  1  0  0  0
 33 66  1  0  0  0
 33 70  2  0  0  0
 34 36  1  0  0  0
 34 59  1  0  0  0
 34109  1  0  0  0
 35 44  2  0  0  0
 35 45  1  0  0  0
 35 68  1  0  0  0
 36 56  1  0  0  0
 36110  1  0  0  0
 37 39  1  0  0  0
 37 47  1  0  0  0
 37 66  1  0  0  0
 37111  1  0  0  0
 38 43  2  0  0  0
 38 46  1  0  0  0
 38 47  1  0  0  0
 39 64  1  0  0  0
 39 67  2  0  0  0
 40 52  1  0  0  0
 40 53  2  0  0  0
 40 58  1  0  0  0
 41112  1  0  0  0
 41113  1  0  0  0
 41114  1  0  0  0
 41 48  1  0  0  0
 42 43  1  0  0  0
 42 66  1  0  0  0
 42115  1  0  0  0
 42116  1  0  0  0
 43 44  1  0  0  0
 44117  1  0  0  0
 45 46  2  0  0  0
 45118  1  0  0  0
 46119  1  0  0  0
 47120  1  0  0  0
 47121  1  0  0  0
 48 56  1  0  0  0
 48 65  1  0  0  0
 48122  1  0  0  0
 49 50  1  0  0  0
 49 53  1  0  0  0
 49 64  1  0  0  0
 49123  1  0  0  0
 50 51  1  0  0  0
 50124  1  0  0  0
 50125  1  0  0  0
 51 52  1  0  0  0
 51126  1  0  0  0
 51127  1  0  0  0
 52128  1  0  0  0
 52129  1  0  0  0
 53 54  1  0  0  0
 54 55  2  0  0  0
 54130  1  0  0  0
 55 57  1  0  0  0
 55131  1  0  0  0
 56 69  2  0  0  0
 57 58  2  0  0  0
 57132  1  0  0  0
 58133  1  0  0  0
 59 60  1  0  0  0
 59 61  1  0  0  0
 59 62  1  0  0  0
 60134  1  0  0  0
 60135  1  0  0  0
 60136  1  0  0  0
 61137  1  0  0  0
 61138  1  0  0  0
 61139  1  0  0  0
 62140  1  0  0  0
 62141  1  0  0  0
 62142  1  0  0  0
 63 65  1  0  0  0
 63143  1  0  0  0
 63144  1  0  0  0
 63145  1  0  0  0
 64146  1  0  0  0
 65147  1  0  0  0
 68 82  1  0  0  0
 71 72  2  0  0  0
 71 75  1  0  0  0
 71148  1  0  0  0
 72 76  1  0  0  0
 72149  1  0  0  0
 73 74  1  0  0  0
 73 76  2  0  0  0
 73150  1  0  0  0
 74 75  2  0  0  0
 74 77  1  0  0  0
 75 79  1  0  0  0
 76 85  1  0  0  0
 77 86  1  0  0  0
 77 87  2  0  0  0
 78 83  1  0  0  0
 78 84  1  0  0  0
 78 88  2  0  0  0
 79151  1  0  0  0
 79152  1  0  0  0
 79153  1  0  0  0
 80 81  1  0  0  0
 80 82  1  0  0  0
 80154  1  0  0  0
 80155  1  0  0  0
 81156  1  0  0  0
 81157  1  0  0  0
 81 83  1  0  0  0
 82158  1  0  0  0
 82159  1  0  0  0
 83 86  1  0  0  0
 83160  1  0  0  0
 84161  1  0  0  0
 84162  1  0  0  0
 85163  1  0  0  0
 86164  1  0  0  0
M  ISO  4   1 100  68 101  82 101  85 100
M  END
> <chiral flag>
0

> <version>
0

> <s_m_source_file>
/data/baiqing/PycharmProjects/Reinvent-master-3.2/result/LINK_invent/BTK/process_docking_weight1_custom_product_contain_oxygen_bond_distance_aromatic_linkinvent_7_9_3/rearranged_h_0058.sdf

> <i_m_source_file_index>
25

> <r_mmod_Potential_Energy-OPLS-2005>
-184.027359008789

> <r_mmod_Stretch_Energy-OPLS-2005>
46.6898384094238

> <r_mmod_Bend_Energy-OPLS-2005>
137.117401123047

> <r_mmod_Torsional_Energy-OPLS-2005>
321.837890625

> <r_mmod_Improper_Torsional_Energy-OPLS-2005>
8.31768035888672

> <r_mmod_Van_der_Waal_Energy-OPLS-2005>
168.437194824219

> <r_mmod_Electrostatic_Energy-OPLS-2005>
-610.713684082031

> <r_mmod_Solvation_Energy-OPLS-2005>
-274.069885253906

> <b_mmod_Minimization_Converged-OPLS-2005>
0

> <r_mmod_RMS_Derivative-OPLS-2005>
17.5945720672607

$$$$
25
                    3D
 Structure written by MMmdl.
166175  0  0  1  0            999 V2000
  -30.7435  -14.4045   20.6703 C   0  0  0  0  0  0
  -30.4233  -12.3090   19.3957 C   0  0  0  0  0  0
  -29.4870  -12.5384   18.1935 C   0  0  0  0  0  0
  -28.0103  -12.3868   18.6095 C   0  0  0  0  0  0
  -27.6669  -13.2040   19.8822 C   0  0  2  0  0  0
  -28.7082  -12.9438   20.9940 C   0  0  0  0  0  0
  -25.2598  -13.8159   20.5665 C   0  0  0  0  0  0
  -24.1848  -13.0432   20.9145 C   0  0  0  0  0  0
  -24.6393  -11.6890   20.8714 C   0  0  0  0  0  0
  -23.9053  -10.4282   21.0381 C   0  0  0  0  0  0
  -24.3606   -9.4207   21.9170 C   0  0  0  0  0  0
  -23.6282   -8.2242   22.0758 C   0  0  0  0  0  0
  -22.4267   -8.0274   21.3545 C   0  0  0  0  0  0
  -21.9895   -9.0243   20.4647 C   0  0  0  0  0  0
  -22.7216  -10.2117   20.3043 C   0  0  0  0  0  0
  -21.6849   -6.0721   22.5273 C   0  0  0  0  0  0
  -21.4012   -6.5631   23.8204 C   0  0  0  0  0  0
  -21.3657   -5.6787   24.9170 C   0  0  0  0  0  0
  -21.6046   -4.3051   24.7226 C   0  0  0  0  0  0
  -21.8820   -3.8136   23.4349 C   0  0  0  0  0  0
  -21.9194   -4.6950   22.3401 C   0  0  0  0  0  0
  -22.7864  -13.5229   21.1804 C   0  0  0  0  0  0
  -22.1661   -4.2132   21.0977 F   0  0  0  0  0  0
  -21.5633   -3.4537   25.7743 F   0  0  0  0  0  0
  -30.0443  -13.2584   20.4543 N   0  0  0  0  0  0
  -26.3051  -12.9317   20.3397 N   0  0  0  0  0  0
  -25.9329  -11.6479   20.5759 N   0  0  0  0  0  0
  -22.0502  -12.8231   22.0366 N   0  0  0  0  0  0
  -25.4308  -15.1874   20.4053 N   0  0  0  0  0  0
  -31.7942  -14.6606   20.0719 O   0  0  0  0  0  0
  -21.6635   -6.8863   21.4236 O   0  0  0  0  0  0
  -22.3546  -14.5532   20.6640 O   0  0  0  0  0  0
  -24.6099  -31.8670   23.2150 C   0  0  0  0  0  0
  -25.8997  -32.4817   23.8448 C   0  0  1  0  0  0
  -27.2218  -27.4366   20.0875 C   0  0  0  0  0  0
  -25.5840  -33.8630   24.2323 N   0  0  0  0  0  0
  -23.3994  -30.4913   21.5546 C   0  0  2  0  0  0
  -24.8414  -28.9627   20.1128 C   0  0  0  0  0  0
  -22.7414  -29.4605   22.5004 C   0  0  0  0  0  0
  -18.0251  -28.1343   22.8490 C   0  0  0  0  0  0
  -24.1472  -36.7337   23.2636 C   0  0  0  0  0  0
  -25.9301  -30.8255   21.3782 C   0  0  0  0  0  0
  -26.0004  -29.4661   20.7166 C   0  0  0  0  0  0
  -27.1909  -28.7078   20.7044 C   0  0  0  0  0  0
  -26.0450  -26.9506   19.4701 C   0  0  0  0  0  0
  -24.8565  -27.7032   19.4919 C   0  0  0  0  0  0
  -23.6076  -29.8325   20.1652 C   0  0  0  0  0  0
  -25.4098  -36.3119   24.0316 C   0  0  1  0  0  0
  -20.5852  -28.3598   23.1332 C   0  0  2  0  0  0
  -20.6744  -26.9333   22.5406 C   0  0  0  0  0  0
  -19.5724  -26.6358   21.5194 C   0  0  0  0  0  0
  -18.1897  -26.7889   22.1605 C   0  0  0  0  0  0
  -19.1510  -28.8792   23.2893 C   0  0  0  0  0  0
  -18.9448  -30.1407   23.8893 C   0  0  0  0  0  0
  -17.6456  -30.6553   24.0556 C   0  0  0  0  0  0
  -25.9013  -34.9481   23.5128 C   0  0  0  0  0  0
  -16.5347  -29.9056   23.6328 C   0  0  0  0  0  0
  -16.7248  -28.6472   23.0357 C   0  0  0  0  0  0
  -26.4426  -31.6641   25.0814 C   0  0  0  0  0  0
  -25.3706  -31.3781   26.1592 C   0  0  0  0  0  0
  -27.0253  -30.3073   24.6242 C   0  0  0  0  0  0
  -27.6003  -32.4400   25.7538 C   0  0  0  0  0  0
  -27.5567  -37.1827   24.8447 C   0  0  0  0  0  0
  -21.4137  -29.2993   22.3774 N   0  0  0  0  0  0
  -26.4285  -37.3807   23.9387 N   0  0  0  0  0  0
  -24.6638  -31.0767   22.1060 N   0  0  0  0  0  0
  -23.4201  -28.8124   23.3006 O   0  0  0  0  0  0
  -28.3936  -26.7133   20.1294 O   0  0  0  0  0  0
  -26.5606  -34.8914   22.4704 O   0  0  0  0  0  0
  -23.5292  -32.1434   23.7536 O   0  0  0  0  0  0
  -32.6103  -17.7611   22.9402 C   0  0  0  0  0  0
  -31.7379  -18.7218   23.4698 C   0  0  0  0  0  0
  -32.0950  -16.6334   22.2842 C   0  0  0  0  0  0
  -30.3406  -18.5917   23.3218 C   0  0  0  0  0  0
  -29.8143  -17.4629   22.6263 C   0  0  0  0  0  0
  -30.6995  -16.4633   22.1180 C   0  0  0  0  0  0
  -28.2200  -23.9728   23.3181 C   0  0  0  0  0  0
  -27.9659  -21.4497   23.6047 C   0  0  0  0  0  0
  -30.1843  -22.9583   22.3058 C   0  0  0  0  0  0
  -28.4067  -25.4208   20.5568 C   0  0  0  0  0  0
  -27.8654  -22.8228   24.2814 C   0  0  0  0  0  0
  -30.3493  -21.8459   23.3677 C   0  0  0  0  0  0
  -28.3027  -17.3243   22.4659 C   0  0  0  0  0  0
  -29.4508  -19.5911   24.0756 C   0  0  0  0  0  0
  -29.4914  -25.1845   21.6169 C   0  0  0  0  0  0
  -29.2750  -23.9634   22.4455 N   0  0  0  0  0  0
  -29.2040  -20.9286   23.4875 N   0  0  0  0  0  0
  -30.1778  -15.2596   21.5463 N   0  0  0  0  0  0
  -27.4956  -24.9721   23.4122 O   0  0  0  0  0  0
  -26.9418  -20.7973   23.3810 O   0  0  0  0  0  0
  -30.9642  -22.9274   21.3475 O   0  0  0  0  0  0
  -27.6134  -24.5300   20.2343 O   0  0  0  0  0  0
  -31.4643  -12.4192   19.0856 H   0  0  0  0  0  0
  -30.3342  -11.2850   19.7610 H   0  0  0  0  0  0
  -29.7226  -11.8427   17.3870 H   0  0  0  0  0  0
  -29.6511  -13.5397   17.7914 H   0  0  0  0  0  0
  -27.8183  -11.3278   18.7844 H   0  0  0  0  0  0
  -27.3580  -12.6838   17.7873 H   0  0  0  0  0  0
  -27.7226  -14.2583   19.6108 H   0  0  0  0  0  0
  -28.6855  -11.8938   21.2903 H   0  0  0  0  0  0
  -28.4575  -13.4988   21.8986 H   0  0  0  0  0  0
  -25.2749   -9.5683   22.4743 H   0  0  0  0  0  0
  -23.9983   -7.4645   22.7490 H   0  0  0  0  0  0
  -21.0814   -8.8742   19.8970 H   0  0  0  0  0  0
  -22.3655  -10.9649   19.6149 H   0  0  0  0  0  0
  -21.2001   -7.6133   23.9697 H   0  0  0  0  0  0
  -21.1483   -6.0522   25.9070 H   0  0  0  0  0  0
  -22.0606   -2.7596   23.2856 H   0  0  0  0  0  0
  -22.4107  -11.9883   22.4750 H   0  0  0  0  0  0
  -21.1131  -13.1267   22.2572 H   0  0  0  0  0  0
  -24.6560  -15.8368   20.4899 H   0  0  0  0  0  0
  -26.2767  -15.6258   20.0638 H   0  0  0  0  0  0
  -26.7064  -32.5502   23.1207 H   0  0  0  0  0  0
  -24.9959  -33.9807   25.0446 H   0  0  0  0  0  0
  -22.6851  -31.3060   21.4207 H   0  0  0  0  0  0
  -23.3718  -35.9681   23.3305 H   0  0  0  0  0  0
  -24.3552  -36.8984   22.2051 H   0  0  0  0  0  0
  -23.7258  -37.6544   23.6684 H   0  0  0  0  0  0
  -26.0646  -31.5958   20.6173 H   0  0  0  0  0  0
  -26.8094  -30.8607   22.0112 H   0  0  0  0  0  0
  -28.0837  -29.0845   21.1836 H   0  0  0  0  0  0
  -26.0336  -25.9904   18.9757 H   0  0  0  0  0  0
  -23.9617  -27.3132   19.0249 H   0  0  0  0  0  0
  -23.7217  -30.6135   19.4122 H   0  0  0  0  0  0
  -22.7309  -29.2585   19.8600 H   0  0  0  0  0  0
  -25.1279  -36.1993   25.0812 H   0  0  0  0  0  0
  -20.9920  -28.3126   24.1462 H   0  0  0  0  0  0
  -20.5635  -26.2177   23.3571 H   0  0  0  0  0  0
  -21.6613  -26.7362   22.1209 H   0  0  0  0  0  0
  -19.6874  -25.6277   21.1196 H   0  0  0  0  0  0
  -19.6685  -27.3192   20.6751 H   0  0  0  0  0  0
  -17.4173  -26.6655   21.3995 H   0  0  0  0  0  0
  -18.0279  -25.9998   22.8969 H   0  0  0  0  0  0
  -19.7927  -30.7214   24.2272 H   0  0  0  0  0  0
  -17.5012  -31.6243   24.5138 H   0  0  0  0  0  0
  -15.5351  -30.2964   23.7652 H   0  0  0  0  0  0
  -15.8638  -28.0799   22.7090 H   0  0  0  0  0  0
  -24.5770  -30.7240   25.7960 H   0  0  0  0  0  0
  -24.9019  -32.2958   26.5169 H   0  0  0  0  0  0
  -25.8047  -30.8848   27.0299 H   0  0  0  0  0  0
  -26.2828  -29.6882   24.1194 H   0  0  0  0  0  0
  -27.3867  -29.7278   25.4750 H   0  0  0  0  0  0
  -27.8732  -30.4368   23.9514 H   0  0  0  0  0  0
  -27.2607  -33.3683   26.2152 H   0  0  0  0  0  0
  -28.3763  -32.7028   25.0334 H   0  0  0  0  0  0
  -28.0728  -31.8540   26.5432 H   0  0  0  0  0  0
  -28.2597  -38.0106   24.7468 H   0  0  0  0  0  0
  -28.1063  -36.2646   24.6317 H   0  0  0  0  0  0
  -27.2288  -37.1543   25.8851 H   0  0  0  0  0  0
  -20.9297  -29.8766   21.7049 H   0  0  0  0  0  0
  -26.0168  -38.2883   24.1403 H   0  0  0  0  0  0
  -33.6779  -17.8660   23.0777 H   0  0  0  0  0  0
  -32.1551  -19.5428   24.0361 H   0  0  0  0  0  0
  -32.7991  -15.8855   21.9482 H   0  0  0  0  0  0
  -26.8460  -22.9534   24.6477 H   0  0  0  0  0  0
  -28.5064  -22.8676   25.1626 H   0  0  0  0  0  0
  -30.5868  -22.2930   24.3343 H   0  0  0  0  0  0
  -31.2384  -21.2891   23.0834 H   0  0  0  0  0  0
  -27.8858  -18.2416   22.0456 H   0  0  0  0  0  0
  -27.8306  -17.1418   23.4320 H   0  0  0  0  0  0
  -28.0073  -16.5143   21.8017 H   0  0  0  0  0  0
  -29.9388  -19.7765   25.0341 H   0  0  0  0  0  0
  -28.5223  -19.1020   24.3715 H   0  0  0  0  0  0
  -29.5191  -26.0539   22.2757 H   0  0  0  0  0  0
  -30.4519  -25.1900   21.1025 H   0  0  0  0  0  0
  -29.2630  -14.9823   21.8653 H   0  0  0  0  0  0
  1 25  1  0  0  0
  1 30  2  0  0  0
  1 88  1  0  0  0
  2  3  1  0  0  0
  2 25  1  0  0  0
  2 93  1  0  0  0
  2 94  1  0  0  0
  3  4  1  0  0  0
  3 95  1  0  0  0
  3 96  1  0  0  0
  4  5  1  0  0  0
  4 97  1  0  0  0
  4 98  1  0  0  0
  5  6  1  0  0  0
  5 26  1  0  0  0
  5 99  1  0  0  0
  6 25  1  0  0  0
  6100  1  0  0  0
  6101  1  0  0  0
  7  8  2  0  0  0
  7 26  1  0  0  0
  7 29  1  0  0  0
  8  9  1  0  0  0
  8 22  1  0  0  0
  9 10  1  0  0  0
  9 27  2  0  0  0
 10 11  2  0  0  0
 10 15  1  0  0  0
 11 12  1  0  0  0
 11102  1  0  0  0
 12 13  2  0  0  0
 12103  1  0  0  0
 13 14  1  0  0  0
 13 31  1  0  0  0
 14 15  2  0  0  0
 14104  1  0  0  0
 15105  1  0  0  0
 16 17  2  0  0  0
 16 21  1  0  0  0
 16 31  1  0  0  0
 17 18  1  0  0  0
 17106  1  0  0  0
 18 19  2  0  0  0
 18107  1  0  0  0
 19 20  1  0  0  0
 19 24  1  0  0  0
 20 21  2  0  0  0
 20108  1  0  0  0
 21 23  1  0  0  0
 22 28  1  0  0  0
 22 32  2  0  0  0
 26 27  1  0  0  0
 28109  1  0  0  0
 28110  1  0  0  0
 29111  1  0  0  0
 29112  1  0  0  0
 33 34  1  0  0  0
 33 66  1  0  0  0
 33 70  2  0  0  0
 34 36  1  0  0  0
 34 59  1  0  0  0
 34113  1  0  0  0
 35 44  2  0  0  0
 35 45  1  0  0  0
 35 68  1  0  0  0
 36 56  1  0  0  0
 36114  1  0  0  0
 37 39  1  0  0  0
 37 47  1  0  0  0
 37 66  1  0  0  0
 37115  1  0  0  0
 38 43  2  0  0  0
 38 46  1  0  0  0
 38 47  1  0  0  0
 39 64  1  0  0  0
 39 67  2  0  0  0
 40 52  1  0  0  0
 40 53  2  0  0  0
 40 58  1  0  0  0
 41116  1  0  0  0
 41117  1  0  0  0
 41118  1  0  0  0
 41 48  1  0  0  0
 42 43  1  0  0  0
 42 66  1  0  0  0
 42119  1  0  0  0
 42120  1  0  0  0
 43 44  1  0  0  0
 44121  1  0  0  0
 45 46  2  0  0  0
 45122  1  0  0  0
 46123  1  0  0  0
 47124  1  0  0  0
 47125  1  0  0  0
 48 56  1  0  0  0
 48 65  1  0  0  0
 48126  1  0  0  0
 49 50  1  0  0  0
 49 53  1  0  0  0
 49 64  1  0  0  0
 49127  1  0  0  0
 50 51  1  0  0  0
 50128  1  0  0  0
 50129  1  0  0  0
 51 52  1  0  0  0
 51130  1  0  0  0
 51131  1  0  0  0
 52132  1  0  0  0
 52133  1  0  0  0
 53 54  1  0  0  0
 54 55  2  0  0  0
 54134  1  0  0  0
 55 57  1  0  0  0
 55135  1  0  0  0
 56 69  2  0  0  0
 57 58  2  0  0  0
 57136  1  0  0  0
 58137  1  0  0  0
 59 60  1  0  0  0
 59 61  1  0  0  0
 59 62  1  0  0  0
 60138  1  0  0  0
 60139  1  0  0  0
 60140  1  0  0  0
 61141  1  0  0  0
 61142  1  0  0  0
 61143  1  0  0  0
 62144  1  0  0  0
 62145  1  0  0  0
 62146  1  0  0  0
 63 65  1  0  0  0
 63147  1  0  0  0
 63148  1  0  0  0
 63149  1  0  0  0
 64150  1  0  0  0
 65151  1  0  0  0
 68 80  1  0  0  0
 71 72  2  0  0  0
 71 73  1  0  0  0
 71152  1  0  0  0
 72 74  1  0  0  0
 72153  1  0  0  0
 73 76  2  0  0  0
 73154  1  0  0  0
 74 75  2  0  0  0
 74 84  1  0  0  0
 75 76  1  0  0  0
 75 83  1  0  0  0
 76 88  1  0  0  0
 77 81  1  0  0  0
 77 86  1  0  0  0
 77 89  2  0  0  0
 78 81  1  0  0  0
 78 87  1  0  0  0
 78 90  2  0  0  0
 79 82  1  0  0  0
 79 86  1  0  0  0
 79 91  2  0  0  0
 80 85  1  0  0  0
 80 92  2  0  0  0
 81155  1  0  0  0
 81156  1  0  0  0
 82 87  1  0  0  0
 82157  1  0  0  0
 82158  1  0  0  0
 83159  1  0  0  0
 83160  1  0  0  0
 83161  1  0  0  0
 84 87  1  0  0  0
 84162  1  0  0  0
 84163  1  0  0  0
 85 86  1  0  0  0
 85164  1  0  0  0
 85165  1  0  0  0
 88166  1  0  0  0
M  ISO  4   1 100  68 101  80 101  88 100
M  END
> <chiral flag>
0

> <version>
0

> <s_m_source_file>
/data/baiqing/PycharmProjects/Reinvent-master-3.2/result/LINK_invent/BTK/process_docking_weight1_custom_product_contain_oxygen_bond_distance_aromatic_linkinvent_7_9_3/rearranged_h_0058.sdf

> <i_m_source_file_index>
26

> <r_mmod_Potential_Energy-OPLS-2005>
-209.847427368164

> <r_mmod_Stretch_Energy-OPLS-2005>
48.4007148742676

> <r_mmod_Bend_Energy-OPLS-2005>
132.725006103516

> <r_mmod_Torsional_Energy-OPLS-2005>
280.964477539062

> <r_mmod_Improper_Torsional_Energy-OPLS-2005>
8.8872652053833

> <r_mmod_Van_der_Waal_Energy-OPLS-2005>
203.557327270508

> <r_mmod_Electrostatic_Energy-OPLS-2005>
-629.200500488281

> <r_mmod_Solvation_Energy-OPLS-2005>
-265.399108886719

> <b_mmod_Minimization_Converged-OPLS-2005>
0

> <r_mmod_RMS_Derivative-OPLS-2005>
2.65456652641296

$$$$
26
                    3D
 Structure written by MMmdl.
155163  0  0  1  0            999 V2000
  -30.6296  -14.7509   20.4480 C   0  0  0  0  0  0
  -30.4250  -12.4557   19.4792 C   0  0  0  0  0  0
  -29.5068  -12.5029   18.2391 C   0  0  0  0  0  0
  -28.0334  -12.3306   18.6523 C   0  0  0  0  0  0
  -27.6386  -13.2366   19.8488 C   0  0  2  0  0  0
  -28.6836  -13.1888   20.9853 C   0  0  0  0  0  0
  -25.2478  -13.8201   20.5673 C   0  0  0  0  0  0
  -24.1791  -13.0441   20.9228 C   0  0  0  0  0  0
  -24.6395  -11.6922   20.8771 C   0  0  0  0  0  0
  -23.9076  -10.4291   21.0420 C   0  0  0  0  0  0
  -24.3624   -9.4201   21.9191 C   0  0  0  0  0  0
  -23.6295   -8.2239   22.0757 C   0  0  0  0  0  0
  -22.4277   -8.0281   21.3547 C   0  0  0  0  0  0
  -21.9918   -9.0256   20.4649 C   0  0  0  0  0  0
  -22.7252  -10.2133   20.3062 C   0  0  0  0  0  0
  -21.6853   -6.0733   22.5275 C   0  0  0  0  0  0
  -21.4015   -6.5638   23.8208 C   0  0  0  0  0  0
  -21.3658   -5.6793   24.9173 C   0  0  0  0  0  0
  -21.6046   -4.3056   24.7224 C   0  0  0  0  0  0
  -21.8818   -3.8144   23.4347 C   0  0  0  0  0  0
  -21.9191   -4.6960   22.3402 C   0  0  0  0  0  0
  -22.7809  -13.5215   21.1881 C   0  0  0  0  0  0
  -22.1660   -4.2146   21.0981 F   0  0  0  0  0  0
  -21.5627   -3.4541   25.7737 F   0  0  0  0  0  0
  -29.9848  -13.5326   20.3994 N   0  0  0  0  0  0
  -26.2919  -12.9423   20.3276 N   0  0  0  0  0  0
  -25.9327  -11.6565   20.5775 N   0  0  0  0  0  0
  -22.0458  -12.8198   22.0437 N   0  0  0  0  0  0
  -25.4124  -15.1913   20.3983 N   0  0  0  0  0  0
  -31.8234  -14.7907   20.1437 O   0  0  0  0  0  0
  -21.6642   -6.8877   21.4239 O   0  0  0  0  0  0
  -22.3491  -14.5519   20.6726 O   0  0  0  0  0  0
  -24.6305  -31.8533   23.1961 C   0  0  0  0  0  0
  -25.9126  -32.4745   23.8315 C   0  0  1  0  0  0
  -27.2249  -27.2569   20.1240 C   0  0  0  0  0  0
  -25.5914  -33.8548   24.2234 N   0  0  0  0  0  0
  -23.4275  -30.4739   21.5390 C   0  0  2  0  0  0
  -24.8749  -28.9168   20.1077 C   0  0  0  0  0  0
  -22.7501  -29.4581   22.4906 C   0  0  0  0  0  0
  -18.0285  -28.1391   22.8486 C   0  0  0  0  0  0
  -24.1488  -36.7277   23.2643 C   0  0  0  0  0  0
  -25.9729  -30.7631   21.3768 C   0  0  0  0  0  0
  -26.0440  -29.3857   20.7174 C   0  0  0  0  0  0
  -27.2170  -28.5667   20.7149 C   0  0  0  0  0  0
  -26.0282  -26.8479   19.4951 C   0  0  0  0  0  0
  -24.8722  -27.6567   19.4878 C   0  0  0  0  0  0
  -23.6458  -29.8044   20.1556 C   0  0  0  0  0  0
  -25.4115  -36.3061   24.0325 C   0  0  1  0  0  0
  -20.5890  -28.3694   23.1275 C   0  0  2  0  0  0
  -20.6772  -26.9411   22.5415 C   0  0  0  0  0  0
  -19.5747  -26.6377   21.5221 C   0  0  0  0  0  0
  -18.1924  -26.7929   22.1626 C   0  0  0  0  0  0
  -19.1539  -28.8858   23.2873 C   0  0  0  0  0  0
  -18.9467  -30.1460   23.8891 C   0  0  0  0  0  0
  -17.6468  -30.6592   24.0564 C   0  0  0  0  0  0
  -25.9057  -34.9434   23.5087 C   0  0  0  0  0  0
  -16.5355  -29.9089   23.6339 C   0  0  0  0  0  0
  -16.7272  -28.6506   23.0360 C   0  0  0  0  0  0
  -26.4496  -31.6583   25.0713 C   0  0  0  0  0  0
  -25.3718  -31.3735   26.1435 C   0  0  0  0  0  0
  -27.0349  -30.2997   24.6207 C   0  0  0  0  0  0
  -27.6035  -32.4345   25.7483 C   0  0  0  0  0  0
  -27.5580  -37.1786   24.8461 C   0  0  0  0  0  0
  -21.4205  -29.3036   22.3662 N   0  0  0  0  0  0
  -26.4285  -37.3765   23.9415 N   0  0  0  0  0  0
  -24.6960  -31.0488   22.0937 N   0  0  0  0  0  0
  -23.4199  -28.8127   23.3010 O   0  0  0  0  0  0
  -28.3479  -26.4013   20.2109 O   0  0  0  0  0  0
  -26.5642  -34.8914   22.4664 O   0  0  0  0  0  0
  -23.5452  -32.1356   23.7254 O   0  0  0  0  0  0
  -31.9005  -19.1045   19.9493 C   0  0  0  0  0  0
  -30.9828  -20.1518   20.1450 C   0  0  0  0  0  0
  -31.5326  -17.7572   20.1158 C   0  0  0  0  0  0
  -29.6423  -19.9007   20.5035 C   0  0  0  0  0  0
  -29.2656  -18.4797   20.6419 C   0  0  0  0  0  0
  -30.2147  -17.3715   20.4683 C   0  0  0  0  0  0
  -28.8045  -21.1656   20.8225 C   0  0  0  0  0  0
  -28.2750  -23.7408   20.5641 C   0  0  0  0  0  0
  -27.8287  -18.1109   20.9862 C   0  0  0  0  0  0
  -28.4439  -25.0204   19.6115 C   0  0  0  0  0  0
  -29.8812  -15.9152   20.6392 N   0  0  0  0  0  0
  -28.8958  -22.4148   20.1935 N   0  0  0  0  0  0
  -27.9717  -21.0548   21.8603 N   0  3  0  0  0  0
  -27.6119  -23.8367   21.6040 O   0  0  0  0  0  0
  -31.4671  -12.5641   19.1742 H   0  0  0  0  0  0
  -30.3612  -11.4838   19.9712 H   0  0  0  0  0  0
  -29.7884  -11.7250   17.5287 H   0  0  0  0  0  0
  -29.6350  -13.4539   17.7196 H   0  0  0  0  0  0
  -27.8889  -11.2828   18.9192 H   0  0  0  0  0  0
  -27.3765  -12.5192   17.8023 H   0  0  0  0  0  0
  -27.6285  -14.2550   19.4602 H   0  0  0  0  0  0
  -28.7183  -12.1988   21.4415 H   0  0  0  0  0  0
  -28.4187  -13.8842   21.7834 H   0  0  0  0  0  0
  -25.2767   -9.5673   22.4769 H   0  0  0  0  0  0
  -23.9998   -7.4629   22.7475 H   0  0  0  0  0  0
  -21.0849   -8.8781   19.8953 H   0  0  0  0  0  0
  -22.3715  -10.9675   19.6170 H   0  0  0  0  0  0
  -21.2010   -7.6144   23.9711 H   0  0  0  0  0  0
  -21.1481   -6.0523   25.9074 H   0  0  0  0  0  0
  -22.0596   -2.7606   23.2849 H   0  0  0  0  0  0
  -22.4080  -11.9854   22.4815 H   0  0  0  0  0  0
  -21.1074  -13.1213   22.2656 H   0  0  0  0  0  0
  -24.6264  -15.8286   20.4689 H   0  0  0  0  0  0
  -26.2205  -15.6089   19.9584 H   0  0  0  0  0  0
  -26.7183  -32.5387   23.1046 H   0  0  0  0  0  0
  -25.0048  -33.9689   25.0369 H   0  0  0  0  0  0
  -22.7234  -31.2955   21.3905 H   0  0  0  0  0  0
  -23.3759  -35.9600   23.3289 H   0  0  0  0  0  0
  -24.3577  -36.8924   22.2062 H   0  0  0  0  0  0
  -23.7235  -37.6466   23.6688 H   0  0  0  0  0  0
  -26.1154  -31.5243   20.6087 H   0  0  0  0  0  0
  -26.8493  -30.8089   22.0122 H   0  0  0  0  0  0
  -28.1137  -28.9206   21.2037 H   0  0  0  0  0  0
  -25.9448  -25.8779   19.0312 H   0  0  0  0  0  0
  -23.9730  -27.2893   19.0127 H   0  0  0  0  0  0
  -23.7703  -30.5797   19.3987 H   0  0  0  0  0  0
  -22.7642  -29.2376   19.8512 H   0  0  0  0  0  0
  -25.1296  -36.1897   25.0816 H   0  0  0  0  0  0
  -20.9980  -28.3274   24.1399 H   0  0  0  0  0  0
  -20.5680  -26.2301   23.3620 H   0  0  0  0  0  0
  -21.6636  -26.7436   22.1203 H   0  0  0  0  0  0
  -19.6910  -25.6287   21.1254 H   0  0  0  0  0  0
  -19.6690  -27.3186   20.6753 H   0  0  0  0  0  0
  -17.4197  -26.6691   21.4023 H   0  0  0  0  0  0
  -18.0310  -26.0068   22.9018 H   0  0  0  0  0  0
  -19.7946  -30.7278   24.2253 H   0  0  0  0  0  0
  -17.5023  -31.6274   24.5163 H   0  0  0  0  0  0
  -15.5358  -30.2995   23.7666 H   0  0  0  0  0  0
  -15.8667  -28.0825   22.7084 H   0  0  0  0  0  0
  -24.5891  -30.7082   25.7768 H   0  0  0  0  0  0
  -24.8911  -32.2908   26.4851 H   0  0  0  0  0  0
  -25.8035  -30.8922   27.0221 H   0  0  0  0  0  0
  -26.2932  -29.6734   24.1234 H   0  0  0  0  0  0
  -27.4036  -29.7266   25.4726 H   0  0  0  0  0  0
  -27.8808  -30.4267   23.9443 H   0  0  0  0  0  0
  -27.2625  -33.3659   26.2012 H   0  0  0  0  0  0
  -28.3864  -32.6890   25.0326 H   0  0  0  0  0  0
  -28.0678  -31.8508   26.5440 H   0  0  0  0  0  0
  -28.2574  -38.0106   24.7536 H   0  0  0  0  0  0
  -28.1102  -36.2640   24.6253 H   0  0  0  0  0  0
  -27.2302  -37.1385   25.8864 H   0  0  0  0  0  0
  -20.9389  -29.8761   21.6872 H   0  0  0  0  0  0
  -26.0160  -38.2833   24.1441 H   0  0  0  0  0  0
  -32.9231  -19.3394   19.6872 H   0  0  0  0  0  0
  -31.3447  -21.1674   20.0506 H   0  0  0  0  0  0
  -32.3193  -17.0389   19.9612 H   0  0  0  0  0  0
  -27.1181  -18.8137   20.5517 H   0  0  0  0  0  0
  -27.6846  -18.0862   22.0662 H   0  0  0  0  0  0
  -27.5630  -17.1319   20.5915 H   0  0  0  0  0  0
  -27.7956  -24.9058   18.7449 H   0  0  0  0  0  0
  -29.4519  -24.9544   19.2027 H   0  0  0  0  0  0
  -28.9207  -15.7290   20.8773 H   0  0  0  0  0  0
  -29.4555  -22.3526   19.3564 H   0  0  0  0  0  0
  -27.9370  -20.2016   22.3935 H   0  0  0  0  0  0
  -27.4703  -21.8741   22.1791 H   0  0  0  0  0  0
  1 25  1  0  0  0
  1 30  2  0  0  0
  1 81  1  0  0  0
  2  3  1  0  0  0
  2 25  1  0  0  0
  2 85  1  0  0  0
  2 86  1  0  0  0
  3  4  1  0  0  0
  3 87  1  0  0  0
  3 88  1  0  0  0
  4  5  1  0  0  0
  4 89  1  0  0  0
  4 90  1  0  0  0
  5  6  1  0  0  0
  5 26  1  0  0  0
  5 91  1  0  0  0
  6 25  1  0  0  0
  6 92  1  0  0  0
  6 93  1  0  0  0
  7  8  2  0  0  0
  7 26  1  0  0  0
  7 29  1  0  0  0
  8  9  1  0  0  0
  8 22  1  0  0  0
  9 10  1  0  0  0
  9 27  2  0  0  0
 10 11  2  0  0  0
 10 15  1  0  0  0
 11 12  1  0  0  0
 11 94  1  0  0  0
 12 13  2  0  0  0
 12 95  1  0  0  0
 13 14  1  0  0  0
 13 31  1  0  0  0
 14 15  2  0  0  0
 14 96  1  0  0  0
 15 97  1  0  0  0
 16 17  2  0  0  0
 16 21  1  0  0  0
 16 31  1  0  0  0
 17 18  1  0  0  0
 17 98  1  0  0  0
 18 19  2  0  0  0
 18 99  1  0  0  0
 19 20  1  0  0  0
 19 24  1  0  0  0
 20 21  2  0  0  0
 20100  1  0  0  0
 21 23  1  0  0  0
 22 28  1  0  0  0
 22 32  2  0  0  0
 26 27  1  0  0  0
 28101  1  0  0  0
 28102  1  0  0  0
 29103  1  0  0  0
 29104  1  0  0  0
 33 34  1  0  0  0
 33 66  1  0  0  0
 33 70  2  0  0  0
 34 36  1  0  0  0
 34 59  1  0  0  0
 34105  1  0  0  0
 35 44  2  0  0  0
 35 45  1  0  0  0
 35 68  1  0  0  0
 36 56  1  0  0  0
 36106  1  0  0  0
 37 39  1  0  0  0
 37 47  1  0  0  0
 37 66  1  0  0  0
 37107  1  0  0  0
 38 43  2  0  0  0
 38 46  1  0  0  0
 38 47  1  0  0  0
 39 64  1  0  0  0
 39 67  2  0  0  0
 40 52  1  0  0  0
 40 53  2  0  0  0
 40 58  1  0  0  0
 41108  1  0  0  0
 41109  1  0  0  0
 41110  1  0  0  0
 41 48  1  0  0  0
 42 43  1  0  0  0
 42 66  1  0  0  0
 42111  1  0  0  0
 42112  1  0  0  0
 43 44  1  0  0  0
 44113  1  0  0  0
 45 46  2  0  0  0
 45114  1  0  0  0
 46115  1  0  0  0
 47116  1  0  0  0
 47117  1  0  0  0
 48 56  1  0  0  0
 48 65  1  0  0  0
 48118  1  0  0  0
 49 50  1  0  0  0
 49 53  1  0  0  0
 49 64  1  0  0  0
 49119  1  0  0  0
 50 51  1  0  0  0
 50120  1  0  0  0
 50121  1  0  0  0
 51 52  1  0  0  0
 51122  1  0  0  0
 51123  1  0  0  0
 52124  1  0  0  0
 52125  1  0  0  0
 53 54  1  0  0  0
 54 55  2  0  0  0
 54126  1  0  0  0
 55 57  1  0  0  0
 55127  1  0  0  0
 56 69  2  0  0  0
 57 58  2  0  0  0
 57128  1  0  0  0
 58129  1  0  0  0
 59 60  1  0  0  0
 59 61  1  0  0  0
 59 62  1  0  0  0
 60130  1  0  0  0
 60131  1  0  0  0
 60132  1  0  0  0
 61133  1  0  0  0
 61134  1  0  0  0
 61135  1  0  0  0
 62136  1  0  0  0
 62137  1  0  0  0
 62138  1  0  0  0
 63 65  1  0  0  0
 63139  1  0  0  0
 63140  1  0  0  0
 63141  1  0  0  0
 64142  1  0  0  0
 65143  1  0  0  0
 68 80  1  0  0  0
 71 72  2  0  0  0
 71 73  1  0  0  0
 71144  1  0  0  0
 72 74  1  0  0  0
 72145  1  0  0  0
 73 76  2  0  0  0
 73146  1  0  0  0
 74 75  2  0  0  0
 74 77  1  0  0  0
 75 76  1  0  0  0
 75 79  1  0  0  0
 76 81  1  0  0  0
 77 82  1  0  0  0
 77 83  2  0  0  0
 78 80  1  0  0  0
 78 82  1  0  0  0
 78 84  2  0  0  0
 79147  1  0  0  0
 79148  1  0  0  0
 79149  1  0  0  0
 80150  1  0  0  0
 80151  1  0  0  0
 81152  1  0  0  0
 82153  1  0  0  0
 83154  1  0  0  0
 83155  1  0  0  0
M  CHG  1  83   1
M  ISO  4   1 100  68 101  80 101  81 100
M  END
> <chiral flag>
0

> <version>
0

> <s_m_source_file>
/data/baiqing/PycharmProjects/Reinvent-master-3.2/result/LINK_invent/BTK/process_docking_weight1_custom_product_contain_oxygen_bond_distance_aromatic_linkinvent_7_9_3/rearranged_h_0058.sdf

> <i_m_source_file_index>
27

> <r_mmod_Potential_Energy-OPLS-2005>
-103.323135375977

> <r_mmod_Stretch_Energy-OPLS-2005>
142.944686889648

> <r_mmod_Bend_Energy-OPLS-2005>
184.875427246094

> <r_mmod_Torsional_Energy-OPLS-2005>
205.046127319336

> <r_mmod_Improper_Torsional_Energy-OPLS-2005>
6.14705324172974

> <r_mmod_Van_der_Waal_Energy-OPLS-2005>
153.370239257812

> <r_mmod_Electrostatic_Energy-OPLS-2005>
-427.433807373047

> <r_mmod_Solvation_Energy-OPLS-2005>
-454.296508789062

> <b_mmod_Minimization_Converged-OPLS-2005>
0

> <r_mmod_RMS_Derivative-OPLS-2005>
0.859805643558502

$$$$
27
                    3D
 Structure written by MMmdl.
165173  0  0  1  0            999 V2000
  -30.7274  -14.5311   20.5931 C   0  0  0  0  0  0
  -30.4166  -12.3664   19.4211 C   0  0  0  0  0  0
  -29.4866  -12.5316   18.2038 C   0  0  0  0  0  0
  -28.0129  -12.3784   18.6234 C   0  0  0  0  0  0
  -27.6588  -13.2227   19.8785 C   0  0  2  0  0  0
  -28.7109  -13.0266   20.9947 C   0  0  0  0  0  0
  -25.2530  -13.8153   20.5653 C   0  0  0  0  0  0
  -24.1826  -13.0410   20.9206 C   0  0  0  0  0  0
  -24.6430  -11.6901   20.8775 C   0  0  0  0  0  0
  -23.9097  -10.4288   21.0420 C   0  0  0  0  0  0
  -24.3637   -9.4202   21.9196 C   0  0  0  0  0  0
  -23.6307   -8.2243   22.0761 C   0  0  0  0  0  0
  -22.4280   -8.0301   21.3557 C   0  0  0  0  0  0
  -21.9926   -9.0277   20.4651 C   0  0  0  0  0  0
  -22.7271  -10.2145   20.3065 C   0  0  0  0  0  0
  -21.6864   -6.0749   22.5287 C   0  0  0  0  0  0
  -21.4017   -6.5649   23.8224 C   0  0  0  0  0  0
  -21.3643   -5.6799   24.9181 C   0  0  0  0  0  0
  -21.6041   -4.3066   24.7230 C   0  0  0  0  0  0
  -21.8818   -3.8158   23.4352 C   0  0  0  0  0  0
  -21.9195   -4.6974   22.3406 C   0  0  0  0  0  0
  -22.7847  -13.5218   21.1842 C   0  0  0  0  0  0
  -22.1669   -4.2161   21.0984 F   0  0  0  0  0  0
  -21.5613   -3.4546   25.7736 F   0  0  0  0  0  0
  -30.0231  -13.3696   20.4320 N   0  0  0  0  0  0
  -26.3030  -12.9384   20.3425 N   0  0  0  0  0  0
  -25.9372  -11.6527   20.5837 N   0  0  0  0  0  0
  -22.0482  -12.8213   22.0395 N   0  0  0  0  0  0
  -25.4076  -15.1844   20.3867 N   0  0  0  0  0  0
  -31.8128  -14.7055   20.0360 O   0  0  0  0  0  0
  -21.6653   -6.8890   21.4246 O   0  0  0  0  0  0
  -22.3526  -14.5518   20.6688 O   0  0  0  0  0  0
  -24.6190  -31.8629   23.2071 C   0  0  0  0  0  0
  -25.9056  -32.4808   23.8387 C   0  0  1  0  0  0
  -27.2392  -27.3809   20.0902 C   0  0  0  0  0  0
  -25.5905  -33.8609   24.2318 N   0  0  0  0  0  0
  -23.4092  -30.4860   21.5455 C   0  0  2  0  0  0
  -24.8569  -28.9452   20.1085 C   0  0  0  0  0  0
  -22.7434  -29.4622   22.4941 C   0  0  0  0  0  0
  -18.0279  -28.1361   22.8494 C   0  0  0  0  0  0
  -24.1482  -36.7297   23.2646 C   0  0  0  0  0  0
  -25.9440  -30.8114   21.3680 C   0  0  0  0  0  0
  -26.0180  -29.4405   20.7131 C   0  0  0  0  0  0
  -27.2050  -28.6641   20.7046 C   0  0  0  0  0  0
  -26.0569  -26.9194   19.4702 C   0  0  0  0  0  0
  -24.8739  -27.6858   19.4853 C   0  0  0  0  0  0
  -23.6200  -29.8171   20.1600 C   0  0  0  0  0  0
  -25.4105  -36.3098   24.0341 C   0  0  1  0  0  0
  -20.5878  -28.3648   23.1300 C   0  0  2  0  0  0
  -20.6756  -26.9372   22.5406 C   0  0  0  0  0  0
  -19.5729  -26.6361   21.5208 C   0  0  0  0  0  0
  -18.1910  -26.7913   22.1623 C   0  0  0  0  0  0
  -19.1533  -28.8821   23.2901 C   0  0  0  0  0  0
  -18.9460  -30.1437   23.8895 C   0  0  0  0  0  0
  -17.6459  -30.6568   24.0557 C   0  0  0  0  0  0
  -25.9041  -34.9468   23.5128 C   0  0  0  0  0  0
  -16.5349  -29.9059   23.6328 C   0  0  0  0  0  0
  -16.7274  -28.6479   23.0351 C   0  0  0  0  0  0
  -26.4478  -31.6618   25.0743 C   0  0  0  0  0  0
  -25.3752  -31.3712   26.1505 C   0  0  0  0  0  0
  -27.0329  -30.3064   24.6150 C   0  0  0  0  0  0
  -27.6046  -32.4351   25.7495 C   0  0  0  0  0  0
  -27.5576  -37.1809   24.8474 C   0  0  0  0  0  0
  -21.4151  -29.3028   22.3706 N   0  0  0  0  0  0
  -26.4288  -37.3791   23.9421 N   0  0  0  0  0  0
  -24.6753  -31.0709   22.0965 N   0  0  0  0  0  0
  -23.4199  -28.8156   23.2982 O   0  0  0  0  0  0
  -28.4123  -26.6325   20.1383 O   0  0  0  0  0  0
  -26.5600  -34.8921   22.4690 O   0  0  0  0  0  0
  -23.5368  -32.1388   23.7443 O   0  0  0  0  0  0
  -27.2159  -17.5867   21.7333 C   0  0  0  0  0  0
  -28.0685  -16.4717   21.7026 C   0  0  0  0  0  0
  -29.8140  -17.8687   20.7560 C   0  0  0  0  0  0
  -28.9748  -19.0363   20.8139 C   0  0  0  0  0  0
  -27.6499  -18.8652   21.3242 C   0  0  0  0  0  0
  -29.3826  -16.5820   21.2160 C   0  0  0  0  0  0
  -29.5176  -20.3864   20.4136 C   0  0  0  0  0  0
  -26.6537  -20.0035   21.5130 C   0  0  0  0  0  0
  -26.8604  -23.7339   20.3511 C   0  0  0  0  0  0
  -29.0150  -24.1109   21.6114 C   0  0  0  0  0  0
  -29.0475  -22.7878   19.4558 C   0  0  0  0  0  0
  -28.5902  -25.3636   19.4373 C   0  0  0  0  0  0
  -28.3715  -24.0002   20.2181 C   0  0  0  0  0  0
  -30.8245  -20.6195   20.5061 N   0  0  0  0  0  0
  -30.2927  -15.4862   21.4488 N   0  0  0  0  0  0
  -28.7324  -21.4084   19.9749 N   0  3  0  0  0  0
  -31.4592  -12.4615   19.1120 H   0  0  0  0  0  0
  -30.3290  -11.3603   19.8350 H   0  0  0  0  0  0
  -29.7368  -11.8010   17.4344 H   0  0  0  0  0  0
  -29.6392  -13.5144   17.7553 H   0  0  0  0  0  0
  -27.8341  -11.3210   18.8228 H   0  0  0  0  0  0
  -27.3548  -12.6451   17.7953 H   0  0  0  0  0  0
  -27.6901  -14.2688   19.5739 H   0  0  0  0  0  0
  -28.7149  -11.9856   21.3216 H   0  0  0  0  0  0
  -28.4826  -13.6005   21.8889 H   0  0  0  0  0  0
  -25.2766   -9.5676   22.4789 H   0  0  0  0  0  0
  -24.0018   -7.4620   22.7471 H   0  0  0  0  0  0
  -21.0865   -8.8804   19.8945 H   0  0  0  0  0  0
  -22.3745  -10.9695   19.6190 H   0  0  0  0  0  0
  -21.2026   -7.6162   23.9729 H   0  0  0  0  0  0
  -21.1451   -6.0532   25.9081 H   0  0  0  0  0  0
  -22.0605   -2.7624   23.2856 H   0  0  0  0  0  0
  -22.4109  -11.9901   22.4814 H   0  0  0  0  0  0
  -21.1094  -13.1229   22.2567 H   0  0  0  0  0  0
  -24.6199  -15.8183   20.4635 H   0  0  0  0  0  0
  -26.2330  -15.6202   19.9960 H   0  0  0  0  0  0
  -26.7124  -32.5482   23.1144 H   0  0  0  0  0  0
  -25.0122  -33.9775   25.0508 H   0  0  0  0  0  0
  -22.7010  -31.3053   21.4041 H   0  0  0  0  0  0
  -23.3750  -35.9627   23.3323 H   0  0  0  0  0  0
  -24.3587  -36.8893   22.2061 H   0  0  0  0  0  0
  -23.7213  -37.6501   23.6647 H   0  0  0  0  0  0
  -26.0745  -31.5785   20.6028 H   0  0  0  0  0  0
  -26.8268  -30.8583   21.9955 H   0  0  0  0  0  0
  -28.0969  -29.0471   21.1799 H   0  0  0  0  0  0
  -26.0196  -25.9611   18.9784 H   0  0  0  0  0  0
  -23.9816  -27.3019   19.0108 H   0  0  0  0  0  0
  -23.7263  -30.5908   19.3986 H   0  0  0  0  0  0
  -22.7435  -29.2381   19.8665 H   0  0  0  0  0  0
  -25.1279  -36.1969   25.0833 H   0  0  0  0  0  0
  -21.0005  -28.3203   24.1410 H   0  0  0  0  0  0
  -20.5613  -26.2263   23.3607 H   0  0  0  0  0  0
  -21.6624  -26.7352   22.1221 H   0  0  0  0  0  0
  -19.6867  -25.6272   21.1232 H   0  0  0  0  0  0
  -19.6671  -27.3178   20.6746 H   0  0  0  0  0  0
  -17.4184  -26.6697   21.4018 H   0  0  0  0  0  0
  -18.0283  -26.0039   22.9000 H   0  0  0  0  0  0
  -19.7935  -30.7262   24.2253 H   0  0  0  0  0  0
  -17.5008  -31.6249   24.5155 H   0  0  0  0  0  0
  -15.5345  -30.2961   23.7643 H   0  0  0  0  0  0
  -15.8683  -28.0797   22.7063 H   0  0  0  0  0  0
  -24.5925  -30.7047   25.7867 H   0  0  0  0  0  0
  -24.8945  -32.2860   26.4982 H   0  0  0  0  0  0
  -25.8133  -30.8881   27.0249 H   0  0  0  0  0  0
  -26.2881  -29.6807   24.1220 H   0  0  0  0  0  0
  -27.4127  -29.7327   25.4616 H   0  0  0  0  0  0
  -27.8702  -30.4412   23.9296 H   0  0  0  0  0  0
  -27.2668  -33.3653   26.2073 H   0  0  0  0  0  0
  -28.3849  -32.6907   25.0314 H   0  0  0  0  0  0
  -28.0724  -31.8478   26.5413 H   0  0  0  0  0  0
  -28.2611  -38.0093   24.7533 H   0  0  0  0  0  0
  -28.1053  -36.2634   24.6282 H   0  0  0  0  0  0
  -27.2316  -37.1443   25.8883 H   0  0  0  0  0  0
  -20.9298  -29.8811   21.6990 H   0  0  0  0  0  0
  -26.0175  -38.2869   24.1425 H   0  0  0  0  0  0
  -26.2194  -17.4539   22.1317 H   0  0  0  0  0  0
  -27.7028  -15.5489   22.1212 H   0  0  0  0  0  0
  -30.8299  -17.9738   20.4051 H   0  0  0  0  0  0
  -25.8169  -19.7018   22.1438 H   0  0  0  0  0  0
  -26.2342  -20.3252   20.5581 H   0  0  0  0  0  0
  -27.1179  -20.8522   22.0163 H   0  0  0  0  0  0
  -26.6546  -22.7996   20.8674 H   0  0  0  0  0  0
  -26.3847  -23.6738   19.3721 H   0  0  0  0  0  0
  -26.3594  -24.5156   20.9215 H   0  0  0  0  0  0
  -28.8620  -23.2049   22.1983 H   0  0  0  0  0  0
  -28.5972  -24.9425   22.1799 H   0  0  0  0  0  0
  -30.0891  -24.2802   21.5365 H   0  0  0  0  0  0
  -30.1275  -22.9387   19.4339 H   0  0  0  0  0  0
  -28.7387  -22.8175   18.4097 H   0  0  0  0  0  0
  -28.0553  -25.3597   18.4878 H   0  0  0  0  0  0
  -29.6377  -25.3868   19.1365 H   0  0  0  0  0  0
  -31.4306  -19.9161   20.8994 H   0  0  0  0  0  0
  -31.2335  -21.4956   20.2289 H   0  0  0  0  0  0
  -31.1379  -15.8631   21.8526 H   0  0  0  0  0  0
  -27.7584  -21.1495   19.8999 H   0  0  0  0  0  0
  1 25  1  0  0  0
  1 30  2  0  0  0
  1 85  1  0  0  0
  2  3  1  0  0  0
  2 25  1  0  0  0
  2 87  1  0  0  0
  2 88  1  0  0  0
  3  4  1  0  0  0
  3 89  1  0  0  0
  3 90  1  0  0  0
  4  5  1  0  0  0
  4 91  1  0  0  0
  4 92  1  0  0  0
  5  6  1  0  0  0
  5 26  1  0  0  0
  5 93  1  0  0  0
  6 25  1  0  0  0
  6 94  1  0  0  0
  6 95  1  0  0  0
  7  8  2  0  0  0
  7 26  1  0  0  0
  7 29  1  0  0  0
  8  9  1  0  0  0
  8 22  1  0  0  0
  9 10  1  0  0  0
  9 27  2  0  0  0
 10 11  2  0  0  0
 10 15  1  0  0  0
 11 12  1  0  0  0
 11 96  1  0  0  0
 12 13  2  0  0  0
 12 97  1  0  0  0
 13 14  1  0  0  0
 13 31  1  0  0  0
 14 15  2  0  0  0
 14 98  1  0  0  0
 15 99  1  0  0  0
 16 17  2  0  0  0
 16 21  1  0  0  0
 16 31  1  0  0  0
 17 18  1  0  0  0
 17100  1  0  0  0
 18 19  2  0  0  0
 18101  1  0  0  0
 19 20  1  0  0  0
 19 24  1  0  0  0
 20 21  2  0  0  0
 20102  1  0  0  0
 21 23  1  0  0  0
 22 28  1  0  0  0
 22 32  2  0  0  0
 26 27  1  0  0  0
 28103  1  0  0  0
 28104  1  0  0  0
 29105  1  0  0  0
 29106  1  0  0  0
 33 34  1  0  0  0
 33 66  1  0  0  0
 33 70  2  0  0  0
 34 36  1  0  0  0
 34 59  1  0  0  0
 34107  1  0  0  0
 35 44  2  0  0  0
 35 45  1  0  0  0
 35 68  1  0  0  0
 36 56  1  0  0  0
 36108  1  0  0  0
 37 39  1  0  0  0
 37 47  1  0  0  0
 37 66  1  0  0  0
 37109  1  0  0  0
 38 43  2  0  0  0
 38 46  1  0  0  0
 38 47  1  0  0  0
 39 64  1  0  0  0
 39 67  2  0  0  0
 40 52  1  0  0  0
 40 53  2  0  0  0
 40 58  1  0  0  0
 41110  1  0  0  0
 41111  1  0  0  0
 41112  1  0  0  0
 41 48  1  0  0  0
 42 43  1  0  0  0
 42 66  1  0  0  0
 42113  1  0  0  0
 42114  1  0  0  0
 43 44  1  0  0  0
 44115  1  0  0  0
 45 46  2  0  0  0
 45116  1  0  0  0
 46117  1  0  0  0
 47118  1  0  0  0
 47119  1  0  0  0
 48 56  1  0  0  0
 48 65  1  0  0  0
 48120  1  0  0  0
 49 50  1  0  0  0
 49 53  1  0  0  0
 49 64  1  0  0  0
 49121  1  0  0  0
 50 51  1  0  0  0
 50122  1  0  0  0
 50123  1  0  0  0
 51 52  1  0  0  0
 51124  1  0  0  0
 51125  1  0  0  0
 52126  1  0  0  0
 52127  1  0  0  0
 53 54  1  0  0  0
 54 55  2  0  0  0
 54128  1  0  0  0
 55 57  1  0  0  0
 55129  1  0  0  0
 56 69  2  0  0  0
 57 58  2  0  0  0
 57130  1  0  0  0
 58131  1  0  0  0
 59 60  1  0  0  0
 59 61  1  0  0  0
 59 62  1  0  0  0
 60132  1  0  0  0
 60133  1  0  0  0
 60134  1  0  0  0
 61135  1  0  0  0
 61136  1  0  0  0
 61137  1  0  0  0
 62138  1  0  0  0
 62139  1  0  0  0
 62140  1  0  0  0
 63 65  1  0  0  0
 63141  1  0  0  0
 63142  1  0  0  0
 63143  1  0  0  0
 64144  1  0  0  0
 65145  1  0  0  0
 68 82  1  0  0  0
 71 72  2  0  0  0
 71 75  1  0  0  0
 71146  1  0  0  0
 72 76  1  0  0  0
 72147  1  0  0  0
 73 74  1  0  0  0
 73 76  2  0  0  0
 73148  1  0  0  0
 74 75  2  0  0  0
 74 77  1  0  0  0
 75 78  1  0  0  0
 76 85  1  0  0  0
 77 84  1  0  0  0
 77 86  2  0  0  0
 78149  1  0  0  0
 78150  1  0  0  0
 78151  1  0  0  0
 79152  1  0  0  0
 79153  1  0  0  0
 79154  1  0  0  0
 79 83  1  0  0  0
 80 83  1  0  0  0
 80155  1  0  0  0
 80156  1  0  0  0
 80157  1  0  0  0
 81 83  1  0  0  0
 81 86  1  0  0  0
 81158  1  0  0  0
 81159  1  0  0  0
 82 83  1  0  0  0
 82160  1  0  0  0
 82161  1  0  0  0
 84162  1  0  0  0
 84163  1  0  0  0
 85164  1  0  0  0
 86165  1  0  0  0
M  CHG  1  86   1
M  ISO  4   1 100  68 101  82 101  85 100
M  END
> <chiral flag>
0

> <version>
0

> <s_m_source_file>
/data/baiqing/PycharmProjects/Reinvent-master-3.2/result/LINK_invent/BTK/process_docking_weight1_custom_product_contain_oxygen_bond_distance_aromatic_linkinvent_7_9_3/rearranged_h_0058.sdf

> <i_m_source_file_index>
28

> <r_mmod_Potential_Energy-OPLS-2005>
-148.954330444336

> <r_mmod_Stretch_Energy-OPLS-2005>
63.3250885009766

> <r_mmod_Bend_Energy-OPLS-2005>
164.536758422852

> <r_mmod_Torsional_Energy-OPLS-2005>
267.933990478516

> <r_mmod_Improper_Torsional_Energy-OPLS-2005>
9.5959939956665

> <r_mmod_Van_der_Waal_Energy-OPLS-2005>
144.707992553711

> <r_mmod_Electrostatic_Energy-OPLS-2005>
-419.226593017578

> <r_mmod_Solvation_Energy-OPLS-2005>
-401.434295654297

> <b_mmod_Minimization_Converged-OPLS-2005>
0

> <r_mmod_RMS_Derivative-OPLS-2005>
2.60684537887573

$$$$
28
                    3D
 Structure written by MMmdl.
155163  0  0  1  0            999 V2000
  -30.6460  -14.5476   20.6069 C   0  0  0  0  0  0
  -30.4412  -12.3679   19.4227 C   0  0  0  0  0  0
  -29.5051  -12.5493   18.2069 C   0  0  0  0  0  0
  -28.0249  -12.3844   18.6124 C   0  0  0  0  0  0
  -27.6652  -13.2079   19.8791 C   0  0  2  0  0  0
  -28.7079  -12.9669   20.9942 C   0  0  0  0  0  0
  -25.2541  -13.8108   20.5520 C   0  0  0  0  0  0
  -24.1827  -13.0401   20.9119 C   0  0  0  0  0  0
  -24.6402  -11.6878   20.8695 C   0  0  0  0  0  0
  -23.9050  -10.4284   21.0363 C   0  0  0  0  0  0
  -24.3610   -9.4211   21.9146 C   0  0  0  0  0  0
  -23.6294   -8.2245   22.0732 C   0  0  0  0  0  0
  -22.4270   -8.0271   21.3537 C   0  0  0  0  0  0
  -21.9896   -9.0229   20.4626 C   0  0  0  0  0  0
  -22.7215  -10.2120   20.3017 C   0  0  0  0  0  0
  -21.6856   -6.0728   22.5280 C   0  0  0  0  0  0
  -21.4016   -6.5632   23.8212 C   0  0  0  0  0  0
  -21.3666   -5.6779   24.9173 C   0  0  0  0  0  0
  -21.6045   -4.3048   24.7224 C   0  0  0  0  0  0
  -21.8822   -3.8136   23.4350 C   0  0  0  0  0  0
  -21.9202   -4.6953   22.3408 C   0  0  0  0  0  0
  -22.7866  -13.5215   21.1812 C   0  0  0  0  0  0
  -22.1655   -4.2144   21.0986 F   0  0  0  0  0  0
  -21.5641   -3.4532   25.7739 F   0  0  0  0  0  0
  -30.0380  -13.3290   20.4670 N   0  0  0  0  0  0
  -26.3042  -12.9316   20.3332 N   0  0  0  0  0  0
  -25.9349  -11.6477   20.5762 N   0  0  0  0  0  0
  -22.0515  -12.8229   22.0392 N   0  0  0  0  0  0
  -25.4104  -15.1798   20.3748 N   0  0  0  0  0  0
  -31.7049  -14.8288   20.0360 O   0  0  0  0  0  0
  -21.6644   -6.8866   21.4237 O   0  0  0  0  0  0
  -22.3560  -14.5533   20.6667 O   0  0  0  0  0  0
  -24.6216  -31.8613   23.2049 C   0  0  0  0  0  0
  -25.9087  -32.4789   23.8349 C   0  0  1  0  0  0
  -27.2229  -27.3512   20.0997 C   0  0  0  0  0  0
  -25.5917  -33.8593   24.2253 N   0  0  0  0  0  0
  -23.4126  -30.4829   21.5526 C   0  0  2  0  0  0
  -24.8557  -28.9408   20.1143 C   0  0  0  0  0  0
  -22.7453  -29.4607   22.5030 C   0  0  0  0  0  0
  -18.0270  -28.1382   22.8526 C   0  0  0  0  0  0
  -24.1490  -36.7277   23.2630 C   0  0  0  0  0  0
  -25.9515  -30.8000   21.3743 C   0  0  0  0  0  0
  -26.0239  -29.4330   20.7078 C   0  0  0  0  0  0
  -27.2113  -28.6494   20.6875 C   0  0  0  0  0  0
  -26.0251  -26.8935   19.5035 C   0  0  0  0  0  0
  -24.8538  -27.6742   19.5099 C   0  0  0  0  0  0
  -23.6211  -29.8151   20.1684 C   0  0  0  0  0  0
  -25.4123  -36.3088   24.0310 C   0  0  1  0  0  0
  -20.5864  -28.3644   23.1362 C   0  0  2  0  0  0
  -20.6778  -26.9389   22.5444 C   0  0  0  0  0  0
  -19.5754  -26.6383   21.5255 C   0  0  0  0  0  0
  -18.1923  -26.7936   22.1649 C   0  0  0  0  0  0
  -19.1520  -28.8844   23.2932 C   0  0  0  0  0  0
  -18.9439  -30.1461   23.8918 C   0  0  0  0  0  0
  -17.6434  -30.6596   24.0565 C   0  0  0  0  0  0
  -25.9059  -34.9460   23.5081 C   0  0  0  0  0  0
  -16.5328  -29.9078   23.6350 C   0  0  0  0  0  0
  -16.7252  -28.6496   23.0377 C   0  0  0  0  0  0
  -26.4478  -31.6632   25.0741 C   0  0  0  0  0  0
  -25.3711  -31.3769   26.1468 C   0  0  0  0  0  0
  -27.0303  -30.3048   24.6223 C   0  0  0  0  0  0
  -27.6040  -32.4378   25.7508 C   0  0  0  0  0  0
  -27.5589  -37.1787   24.8454 C   0  0  0  0  0  0
  -21.4176  -29.2987   22.3763 N   0  0  0  0  0  0
  -26.4298  -37.3787   23.9408 N   0  0  0  0  0  0
  -24.6807  -31.0637   22.1004 N   0  0  0  0  0  0
  -23.4194  -28.8176   23.3118 O   0  0  0  0  0  0
  -28.3673  -26.5517   20.1556 O   0  0  0  0  0  0
  -26.5644  -34.8925   22.4654 O   0  0  0  0  0  0
  -23.5399  -32.1401   23.7408 O   0  0  0  0  0  0
  -27.3078  -17.9483   21.3994 C   0  0  0  0  0  0
  -27.9380  -19.1247   20.9602 C   0  0  0  0  0  0
  -28.0407  -16.7564   21.5415 C   0  0  0  0  0  0
  -30.0478  -17.8978   20.7689 C   0  0  0  0  0  0
  -29.3155  -19.1348   20.6631 C   0  0  0  0  0  0
  -29.4090  -16.6888   21.2026 C   0  0  0  0  0  0
  -28.8569  -24.1595   20.4447 C   0  0  0  0  0  0
  -28.3612  -25.2158   19.7326 C   0  0  0  0  0  0
  -28.9266  -22.7778   19.8933 C   0  0  0  0  0  0
  -29.5634  -21.9424   22.1591 C   0  0  0  0  0  0
  -29.9648  -20.4684   20.1946 C   0  0  0  0  0  0
  -30.0266  -15.4055   21.4562 N   0  0  0  0  0  0
  -29.4219  -21.7800   20.7068 N   0  0  0  0  0  0
  -28.6322  -22.5320   18.7200 O   0  0  0  0  0  0
  -31.4817  -12.5048   19.1246 H   0  0  0  0  0  0
  -30.3765  -11.3487   19.8042 H   0  0  0  0  0  0
  -29.7662  -11.8376   17.4222 H   0  0  0  0  0  0
  -29.6538  -13.5412   17.7767 H   0  0  0  0  0  0
  -27.8430  -11.3251   18.7936 H   0  0  0  0  0  0
  -27.3741  -12.6646   17.7831 H   0  0  0  0  0  0
  -27.7105  -14.2610   19.6022 H   0  0  0  0  0  0
  -28.7048  -11.9136   21.2809 H   0  0  0  0  0  0
  -28.4379  -13.5081   21.9002 H   0  0  0  0  0  0
  -25.2748   -9.5732   22.4720 H   0  0  0  0  0  0
  -24.0017   -7.4659   22.7471 H   0  0  0  0  0  0
  -21.0816   -8.8724   19.8956 H   0  0  0  0  0  0
  -22.3622  -10.9644   19.6133 H   0  0  0  0  0  0
  -21.1986   -7.6135   23.9716 H   0  0  0  0  0  0
  -21.1483   -6.0507   25.9082 H   0  0  0  0  0  0
  -22.0601   -2.7597   23.2846 H   0  0  0  0  0  0
  -22.4121  -11.9902   22.4793 H   0  0  0  0  0  0
  -21.1124  -13.1248   22.2561 H   0  0  0  0  0  0
  -24.6238  -15.8153   20.4509 H   0  0  0  0  0  0
  -26.2488  -15.6294   20.0298 H   0  0  0  0  0  0
  -26.7155  -32.5447   23.1090 H   0  0  0  0  0  0
  -25.0054  -33.9759   25.0394 H   0  0  0  0  0  0
  -22.7026  -31.3012   21.4137 H   0  0  0  0  0  0
  -23.3777  -35.9586   23.3290 H   0  0  0  0  0  0
  -24.3566  -36.8907   22.2043 H   0  0  0  0  0  0
  -23.7224  -37.6459   23.6669 H   0  0  0  0  0  0
  -26.0906  -31.5740   20.6180 H   0  0  0  0  0  0
  -26.8266  -30.8321   22.0121 H   0  0  0  0  0  0
  -28.1157  -29.0267   21.1444 H   0  0  0  0  0  0
  -25.9601  -25.9169   19.0500 H   0  0  0  0  0  0
  -23.9511  -27.2811   19.0626 H   0  0  0  0  0  0
  -23.7339  -30.5888   19.4086 H   0  0  0  0  0  0
  -22.7419  -29.2379   19.8748 H   0  0  0  0  0  0
  -25.1319  -36.1914   25.0806 H   0  0  0  0  0  0
  -20.9933  -28.3189   24.1496 H   0  0  0  0  0  0
  -20.5748  -26.2223   23.3612 H   0  0  0  0  0  0
  -21.6639  -26.7495   22.1181 H   0  0  0  0  0  0
  -19.6901  -25.6300   21.1276 H   0  0  0  0  0  0
  -19.6701  -27.3212   20.6806 H   0  0  0  0  0  0
  -17.4206  -26.6724   21.4030 H   0  0  0  0  0  0
  -18.0281  -26.0064   22.9027 H   0  0  0  0  0  0
  -19.7903  -30.7299   24.2279 H   0  0  0  0  0  0
  -17.4970  -31.6292   24.5134 H   0  0  0  0  0  0
  -15.5321  -30.2969   23.7682 H   0  0  0  0  0  0
  -15.8653  -28.0809   22.7095 H   0  0  0  0  0  0
  -24.5846  -30.7185   25.7767 H   0  0  0  0  0  0
  -24.8958  -32.2940   26.4958 H   0  0  0  0  0  0
  -25.8012  -30.8864   27.0207 H   0  0  0  0  0  0
  -26.2874  -29.6833   24.1212 H   0  0  0  0  0  0
  -27.3920  -29.7293   25.4752 H   0  0  0  0  0  0
  -27.8786  -30.4301   23.9490 H   0  0  0  0  0  0
  -27.2633  -33.3645   26.2134 H   0  0  0  0  0  0
  -28.3819  -32.7004   25.0329 H   0  0  0  0  0  0
  -28.0757  -31.8496   26.5387 H   0  0  0  0  0  0
  -28.2586  -38.0110   24.7564 H   0  0  0  0  0  0
  -28.1115  -36.2647   24.6220 H   0  0  0  0  0  0
  -27.2306  -37.1343   25.8855 H   0  0  0  0  0  0
  -20.9358  -29.8616   21.6898 H   0  0  0  0  0  0
  -26.0170  -38.2845   24.1475 H   0  0  0  0  0  0
  -26.2527  -17.9616   21.6373 H   0  0  0  0  0  0
  -27.3538  -20.0282   20.8491 H   0  0  0  0  0  0
  -27.5265  -15.8821   21.9192 H   0  0  0  0  0  0
  -31.1042  -17.8872   20.5424 H   0  0  0  0  0  0
  -29.2346  -24.3687   21.4326 H   0  0  0  0  0  0
  -27.9511  -25.1006   18.7374 H   0  0  0  0  0  0
  -28.6181  -22.2546   22.6052 H   0  0  0  0  0  0
  -30.3249  -22.6833   22.4063 H   0  0  0  0  0  0
  -29.8563  -21.0134   22.6498 H   0  0  0  0  0  0
  -29.9565  -20.4539   19.1038 H   0  0  0  0  0  0
  -31.0221  -20.4327   20.4617 H   0  0  0  0  0  0
  -29.4570  -14.8525   22.0767 H   0  0  0  0  0  0
  1 25  1  0  0  0
  1 30  2  0  0  0
  1 82  1  0  0  0
  2  3  1  0  0  0
  2 25  1  0  0  0
  2 85  1  0  0  0
  2 86  1  0  0  0
  3  4  1  0  0  0
  3 87  1  0  0  0
  3 88  1  0  0  0
  4  5  1  0  0  0
  4 89  1  0  0  0
  4 90  1  0  0  0
  5  6  1  0  0  0
  5 26  1  0  0  0
  5 91  1  0  0  0
  6 25  1  0  0  0
  6 92  1  0  0  0
  6 93  1  0  0  0
  7  8  2  0  0  0
  7 26  1  0  0  0
  7 29  1  0  0  0
  8  9  1  0  0  0
  8 22  1  0  0  0
  9 10  1  0  0  0
  9 27  2  0  0  0
 10 11  2  0  0  0
 10 15  1  0  0  0
 11 12  1  0  0  0
 11 94  1  0  0  0
 12 13  2  0  0  0
 12 95  1  0  0  0
 13 14  1  0  0  0
 13 31  1  0  0  0
 14 15  2  0  0  0
 14 96  1  0  0  0
 15 97  1  0  0  0
 16 17  2  0  0  0
 16 21  1  0  0  0
 16 31  1  0  0  0
 17 18  1  0  0  0
 17 98  1  0  0  0
 18 19  2  0  0  0
 18 99  1  0  0  0
 19 20  1  0  0  0
 19 24  1  0  0  0
 20 21  2  0  0  0
 20100  1  0  0  0
 21 23  1  0  0  0
 22 28  1  0  0  0
 22 32  2  0  0  0
 26 27  1  0  0  0
 28101  1  0  0  0
 28102  1  0  0  0
 29103  1  0  0  0
 29104  1  0  0  0
 33 34  1  0  0  0
 33 66  1  0  0  0
 33 70  2  0  0  0
 34 36  1  0  0  0
 34 59  1  0  0  0
 34105  1  0  0  0
 35 44  2  0  0  0
 35 45  1  0  0  0
 35 68  1  0  0  0
 36 56  1  0  0  0
 36106  1  0  0  0
 37 39  1  0  0  0
 37 47  1  0  0  0
 37 66  1  0  0  0
 37107  1  0  0  0
 38 43  2  0  0  0
 38 46  1  0  0  0
 38 47  1  0  0  0
 39 64  1  0  0  0
 39 67  2  0  0  0
 40 52  1  0  0  0
 40 53  2  0  0  0
 40 58  1  0  0  0
 41108  1  0  0  0
 41109  1  0  0  0
 41110  1  0  0  0
 41 48  1  0  0  0
 42 43  1  0  0  0
 42 66  1  0  0  0
 42111  1  0  0  0
 42112  1  0  0  0
 43 44  1  0  0  0
 44113  1  0  0  0
 45 46  2  0  0  0
 45114  1  0  0  0
 46115  1  0  0  0
 47116  1  0  0  0
 47117  1  0  0  0
 48 56  1  0  0  0
 48 65  1  0  0  0
 48118  1  0  0  0
 49 50  1  0  0  0
 49 53  1  0  0  0
 49 64  1  0  0  0
 49119  1  0  0  0
 50 51  1  0  0  0
 50120  1  0  0  0
 50121  1  0  0  0
 51 52  1  0  0  0
 51122  1  0  0  0
 51123  1  0  0  0
 52124  1  0  0  0
 52125  1  0  0  0
 53 54  1  0  0  0
 54 55  2  0  0  0
 54126  1  0  0  0
 55 57  1  0  0  0
 55127  1  0  0  0
 56 69  2  0  0  0
 57 58  2  0  0  0
 57128  1  0  0  0
 58129  1  0  0  0
 59 60  1  0  0  0
 59 61  1  0  0  0
 59 62  1  0  0  0
 60130  1  0  0  0
 60131  1  0  0  0
 60132  1  0  0  0
 61133  1  0  0  0
 61134  1  0  0  0
 61135  1  0  0  0
 62136  1  0  0  0
 62137  1  0  0  0
 62138  1  0  0  0
 63 65  1  0  0  0
 63139  1  0  0  0
 63140  1  0  0  0
 63141  1  0  0  0
 64142  1  0  0  0
 65143  1  0  0  0
 68 78  1  0  0  0
 71 72  2  0  0  0
 71 73  1  0  0  0
 71144  1  0  0  0
 72 75  1  0  0  0
 72145  1  0  0  0
 73 76  2  0  0  0
 73146  1  0  0  0
 74 75  2  0  0  0
 74 76  1  0  0  0
 74147  1  0  0  0
 75 81  1  0  0  0
 76 82  1  0  0  0
 77 78  2  0  0  0
 77 79  1  0  0  0
 77148  1  0  0  0
 78149  1  0  0  0
 79 83  1  0  0  0
 79 84  2  0  0  0
 80 83  1  0  0  0
 80150  1  0  0  0
 80151  1  0  0  0
 80152  1  0  0  0
 81 83  1  0  0  0
 81153  1  0  0  0
 81154  1  0  0  0
 82155  1  0  0  0
M  ISO  4   1 100  68 101  78 101  82 100
M  END
> <chiral flag>
0

> <version>
0

> <s_m_source_file>
/data/baiqing/PycharmProjects/Reinvent-master-3.2/result/LINK_invent/BTK/process_docking_weight1_custom_product_contain_oxygen_bond_distance_aromatic_linkinvent_7_9_3/rearranged_h_0058.sdf

> <i_m_source_file_index>
29

> <r_mmod_Potential_Energy-OPLS-2005>
27.3350639343262

> <r_mmod_Stretch_Energy-OPLS-2005>
65.9502944946289

> <r_mmod_Bend_Energy-OPLS-2005>
131.641845703125

> <r_mmod_Torsional_Energy-OPLS-2005>
249.603530883789

> <r_mmod_Improper_Torsional_Energy-OPLS-2005>
7.52802848815918

> <r_mmod_Van_der_Waal_Energy-OPLS-2005>
150.721420288086

> <r_mmod_Electrostatic_Energy-OPLS-2005>
-386.795806884766

> <r_mmod_Solvation_Energy-OPLS-2005>
-221.561828613281

> <b_mmod_Minimization_Converged-OPLS-2005>
0

> <r_mmod_RMS_Derivative-OPLS-2005>
2.6815242767334

$$$$
29
                    3D
 Structure written by MMmdl.
155163  0  0  1  0            999 V2000
  -30.6109  -14.7025   20.5064 C   0  0  0  0  0  0
  -30.4431  -12.4314   19.4726 C   0  0  0  0  0  0
  -29.5167  -12.5115   18.2372 C   0  0  0  0  0  0
  -28.0415  -12.3354   18.6474 C   0  0  0  0  0  0
  -27.6517  -13.2209   19.8603 C   0  0  2  0  0  0
  -28.6941  -13.1107   20.9967 C   0  0  0  0  0  0
  -25.2562  -13.8177   20.5685 C   0  0  0  0  0  0
  -24.1826  -13.0444   20.9195 C   0  0  0  0  0  0
  -24.6393  -11.6911   20.8734 C   0  0  0  0  0  0
  -23.9063  -10.4288   21.0393 C   0  0  0  0  0  0
  -24.3613   -9.4206   21.9174 C   0  0  0  0  0  0
  -23.6283   -8.2240   22.0750 C   0  0  0  0  0  0
  -22.4268   -8.0272   21.3538 C   0  0  0  0  0  0
  -21.9904   -9.0244   20.4645 C   0  0  0  0  0  0
  -22.7231  -10.2125   20.3046 C   0  0  0  0  0  0
  -21.6848   -6.0722   22.5271 C   0  0  0  0  0  0
  -21.4016   -6.5632   23.8205 C   0  0  0  0  0  0
  -21.3666   -5.6786   24.9166 C   0  0  0  0  0  0
  -21.6044   -4.3050   24.7221 C   0  0  0  0  0  0
  -21.8819   -3.8140   23.4346 C   0  0  0  0  0  0
  -21.9194   -4.6952   22.3396 C   0  0  0  0  0  0
  -22.7850  -13.5240   21.1855 C   0  0  0  0  0  0
  -22.1664   -4.2140   21.0969 F   0  0  0  0  0  0
  -21.5627   -3.4535   25.7738 F   0  0  0  0  0  0
  -30.0061  -13.4681   20.4348 N   0  0  0  0  0  0
  -26.2980  -12.9360   20.3285 N   0  0  0  0  0  0
  -25.9322  -11.6514   20.5736 N   0  0  0  0  0  0
  -22.0479  -12.8230   22.0406 N   0  0  0  0  0  0
  -25.4279  -15.1896   20.4065 N   0  0  0  0  0  0
  -31.7739  -14.8508   20.1190 O   0  0  0  0  0  0
  -21.6637   -6.8863   21.4232 O   0  0  0  0  0  0
  -22.3536  -14.5545   20.6709 O   0  0  0  0  0  0
  -24.6302  -31.8585   23.2037 C   0  0  0  0  0  0
  -25.9143  -32.4768   23.8364 C   0  0  1  0  0  0
  -27.2214  -27.2733   20.1161 C   0  0  0  0  0  0
  -25.5951  -33.8569   24.2282 N   0  0  0  0  0  0
  -23.4253  -30.4873   21.5453 C   0  0  2  0  0  0
  -24.8733  -28.9438   20.1107 C   0  0  0  0  0  0
  -22.7496  -29.4633   22.4901 C   0  0  0  0  0  0
  -18.0294  -28.1395   22.8481 C   0  0  0  0  0  0
  -24.1498  -36.7287   23.2636 C   0  0  0  0  0  0
  -25.9746  -30.7725   21.3885 C   0  0  0  0  0  0
  -26.0465  -29.3992   20.7253 C   0  0  0  0  0  0
  -27.2181  -28.5737   20.7264 C   0  0  0  0  0  0
  -26.0256  -26.9087   19.4441 C   0  0  0  0  0  0
  -24.8661  -27.7029   19.4654 C   0  0  0  0  0  0
  -23.6457  -29.8319   20.1591 C   0  0  0  0  0  0
  -25.4125  -36.3070   24.0320 C   0  0  1  0  0  0
  -20.5899  -28.3711   23.1265 C   0  0  2  0  0  0
  -20.6789  -26.9431   22.5401 C   0  0  0  0  0  0
  -19.5757  -26.6392   21.5210 C   0  0  0  0  0  0
  -18.1940  -26.7935   22.1628 C   0  0  0  0  0  0
  -19.1550  -28.8869   23.2871 C   0  0  0  0  0  0
  -18.9469  -30.1465   23.8896 C   0  0  0  0  0  0
  -17.6467  -30.6592   24.0568 C   0  0  0  0  0  0
  -25.9058  -34.9439   23.5096 C   0  0  0  0  0  0
  -16.5357  -29.9091   23.6330 C   0  0  0  0  0  0
  -16.7280  -28.6511   23.0348 C   0  0  0  0  0  0
  -26.4505  -31.6582   25.0751 C   0  0  0  0  0  0
  -25.3719  -31.3748   26.1466 C   0  0  0  0  0  0
  -27.0357  -30.2987   24.6268 C   0  0  0  0  0  0
  -27.6059  -32.4323   25.7521 C   0  0  0  0  0  0
  -27.5575  -37.1821   24.8472 C   0  0  0  0  0  0
  -21.4204  -29.3058   22.3646 N   0  0  0  0  0  0
  -26.4308  -37.3761   23.9381 N   0  0  0  0  0  0
  -24.6951  -31.0574   22.1008 N   0  0  0  0  0  0
  -23.4210  -28.8152   23.2978 O   0  0  0  0  0  0
  -28.3050  -26.3571   20.2027 O   0  0  0  0  0  0
  -26.5618  -34.8906   22.4657 O   0  0  0  0  0  0
  -23.5455  -32.1404   23.7340 O   0  0  0  0  0  0
  -31.0970  -19.3579   20.1547 C   0  0  0  0  0  0
  -31.1028  -17.9503   20.4077 C   0  0  0  0  0  0
  -28.7497  -18.0655   20.8223 C   0  0  0  0  0  0
  -29.9185  -20.1686   20.1420 C   0  0  0  0  0  0
  -29.9105  -17.2383   20.6962 C   0  0  0  0  0  0
  -28.7262  -19.4913   20.5575 C   0  0  0  0  0  0
  -28.8540  -23.6425   20.2779 C   0  0  0  0  0  0
  -29.9777  -21.5443   19.4008 C   0  0  0  0  0  0
  -26.4536  -19.6791   21.3359 C   0  0  0  0  0  0
  -28.0613  -24.9389   19.7657 C   0  0  0  0  0  0
  -29.4800  -22.8580   19.4438 N   0  0  0  0  0  0
  -29.8106  -15.7695   20.8735 N   0  0  0  0  0  0
  -30.6679  -21.4452   18.3108 N   0  3  0  0  0  0
  -27.5594  -20.2342   20.6301 O   0  0  0  0  0  0
  -31.4849  -12.5593   19.1745 H   0  0  0  0  0  0
  -30.3848  -11.4415   19.9292 H   0  0  0  0  0  0
  -29.7942  -11.7513   17.5055 H   0  0  0  0  0  0
  -29.6474  -13.4751   17.7417 H   0  0  0  0  0  0
  -27.8921  -11.2846   18.8974 H   0  0  0  0  0  0
  -27.3873  -12.5436   17.8001 H   0  0  0  0  0  0
  -27.6609  -14.2490   19.4982 H   0  0  0  0  0  0
  -28.7194  -12.0979   21.4007 H   0  0  0  0  0  0
  -28.4280  -13.7576   21.8350 H   0  0  0  0  0  0
  -25.2752   -9.5691   22.4755 H   0  0  0  0  0  0
  -23.9983   -7.4640   22.7484 H   0  0  0  0  0  0
  -21.0830   -8.8773   19.8956 H   0  0  0  0  0  0
  -22.3683  -10.9665   19.6161 H   0  0  0  0  0  0
  -21.2013   -7.6142   23.9708 H   0  0  0  0  0  0
  -21.1488   -6.0513   25.9068 H   0  0  0  0  0  0
  -22.0599   -2.7604   23.2844 H   0  0  0  0  0  0
  -22.4084  -11.9892   22.4803 H   0  0  0  0  0  0
  -21.1094  -13.1260   22.2601 H   0  0  0  0  0  0
  -24.6509  -15.8355   20.4968 H   0  0  0  0  0  0
  -26.2521  -15.6165   20.0040 H   0  0  0  0  0  0
  -26.7212  -32.5420   23.1107 H   0  0  0  0  0  0
  -25.0108  -33.9707   25.0432 H   0  0  0  0  0  0
  -22.7196  -31.3095   21.4050 H   0  0  0  0  0  0
  -23.3736  -35.9653   23.3352 H   0  0  0  0  0  0
  -24.3574  -36.8848   22.2040 H   0  0  0  0  0  0
  -23.7300  -37.6526   23.6622 H   0  0  0  0  0  0
  -26.1246  -31.5393   20.6275 H   0  0  0  0  0  0
  -26.8463  -30.8108   22.0294 H   0  0  0  0  0  0
  -28.1079  -28.9149   21.2364 H   0  0  0  0  0  0
  -25.9349  -25.9859   18.8942 H   0  0  0  0  0  0
  -23.9680  -27.3529   18.9749 H   0  0  0  0  0  0
  -23.7787  -30.6146   19.4105 H   0  0  0  0  0  0
  -22.7615  -29.2744   19.8448 H   0  0  0  0  0  0
  -25.1318  -36.1923   25.0818 H   0  0  0  0  0  0
  -20.9999  -28.3294   24.1382 H   0  0  0  0  0  0
  -20.5703  -26.2322   23.3607 H   0  0  0  0  0  0
  -21.6656  -26.7464   22.1190 H   0  0  0  0  0  0
  -19.6919  -25.6301   21.1246 H   0  0  0  0  0  0
  -19.6682  -27.3199   20.6739 H   0  0  0  0  0  0
  -17.4202  -26.6671   21.4037 H   0  0  0  0  0  0
  -18.0348  -26.0089   22.9041 H   0  0  0  0  0  0
  -19.7942  -30.7286   24.2267 H   0  0  0  0  0  0
  -17.5019  -31.6269   24.5176 H   0  0  0  0  0  0
  -15.5360  -30.2994   23.7655 H   0  0  0  0  0  0
  -15.8681  -28.0831   22.7062 H   0  0  0  0  0  0
  -24.5904  -30.7081   25.7801 H   0  0  0  0  0  0
  -24.8902  -32.2926   26.4850 H   0  0  0  0  0  0
  -25.8033  -30.8960   27.0263 H   0  0  0  0  0  0
  -26.2960  -29.6730   24.1264 H   0  0  0  0  0  0
  -27.3977  -29.7263   25.4817 H   0  0  0  0  0  0
  -27.8866  -30.4234   23.9570 H   0  0  0  0  0  0
  -27.2669  -33.3634   26.2074 H   0  0  0  0  0  0
  -28.3887  -32.6859   25.0360 H   0  0  0  0  0  0
  -28.0707  -31.8461   26.5457 H   0  0  0  0  0  0
  -28.2636  -38.0070   24.7442 H   0  0  0  0  0  0
  -28.1026  -36.2599   24.6405 H   0  0  0  0  0  0
  -27.2275  -37.1603   25.8872 H   0  0  0  0  0  0
  -20.9379  -29.8796   21.6872 H   0  0  0  0  0  0
  -26.0185  -38.2847   24.1321 H   0  0  0  0  0  0
  -32.0363  -19.8162   19.8904 H   0  0  0  0  0  0
  -32.0431  -17.4230   20.3416 H   0  0  0  0  0  0
  -27.8331  -17.5608   21.0836 H   0  0  0  0  0  0
  -28.7479  -23.4187   21.3432 H   0  0  0  0  0  0
  -25.6968  -20.4488   21.4863 H   0  0  0  0  0  0
  -26.7442  -19.3142   22.3229 H   0  0  0  0  0  0
  -25.9891  -18.8646   20.7784 H   0  0  0  0  0  0
  -27.0376  -24.6703   20.0128 H   0  0  0  0  0  0
  -28.1248  -24.9435   18.6763 H   0  0  0  0  0  0
  -28.9065  -15.4524   21.1904 H   0  0  0  0  0  0
  -31.1018  -20.5761   18.0062 H   0  0  0  0  0  0
  -30.7985  -22.2329   17.6845 H   0  0  0  0  0  0
  1 25  1  0  0  0
  1 30  2  0  0  0
  1 82  1  0  0  0
  2  3  1  0  0  0
  2 25  1  0  0  0
  2 85  1  0  0  0
  2 86  1  0  0  0
  3  4  1  0  0  0
  3 87  1  0  0  0
  3 88  1  0  0  0
  4  5  1  0  0  0
  4 89  1  0  0  0
  4 90  1  0  0  0
  5  6  1  0  0  0
  5 26  1  0  0  0
  5 91  1  0  0  0
  6 25  1  0  0  0
  6 92  1  0  0  0
  6 93  1  0  0  0
  7  8  2  0  0  0
  7 26  1  0  0  0
  7 29  1  0  0  0
  8  9  1  0  0  0
  8 22  1  0  0  0
  9 10  1  0  0  0
  9 27  2  0  0  0
 10 11  2  0  0  0
 10 15  1  0  0  0
 11 12  1  0  0  0
 11 94  1  0  0  0
 12 13  2  0  0  0
 12 95  1  0  0  0
 13 14  1  0  0  0
 13 31  1  0  0  0
 14 15  2  0  0  0
 14 96  1  0  0  0
 15 97  1  0  0  0
 16 17  2  0  0  0
 16 21  1  0  0  0
 16 31  1  0  0  0
 17 18  1  0  0  0
 17 98  1  0  0  0
 18 19  2  0  0  0
 18 99  1  0  0  0
 19 20  1  0  0  0
 19 24  1  0  0  0
 20 21  2  0  0  0
 20100  1  0  0  0
 21 23  1  0  0  0
 22 28  1  0  0  0
 22 32  2  0  0  0
 26 27  1  0  0  0
 28101  1  0  0  0
 28102  1  0  0  0
 29103  1  0  0  0
 29104  1  0  0  0
 33 34  1  0  0  0
 33 66  1  0  0  0
 33 70  2  0  0  0
 34 36  1  0  0  0
 34 59  1  0  0  0
 34105  1  0  0  0
 35 44  2  0  0  0
 35 45  1  0  0  0
 35 68  1  0  0  0
 36 56  1  0  0  0
 36106  1  0  0  0
 37 39  1  0  0  0
 37 47  1  0  0  0
 37 66  1  0  0  0
 37107  1  0  0  0
 38 43  2  0  0  0
 38 46  1  0  0  0
 38 47  1  0  0  0
 39 64  1  0  0  0
 39 67  2  0  0  0
 40 52  1  0  0  0
 40 53  2  0  0  0
 40 58  1  0  0  0
 41108  1  0  0  0
 41109  1  0  0  0
 41110  1  0  0  0
 41 48  1  0  0  0
 42 43  1  0  0  0
 42 66  1  0  0  0
 42111  1  0  0  0
 42112  1  0  0  0
 43 44  1  0  0  0
 44113  1  0  0  0
 45 46  2  0  0  0
 45114  1  0  0  0
 46115  1  0  0  0
 47116  1  0  0  0
 47117  1  0  0  0
 48 56  1  0  0  0
 48 65  1  0  0  0
 48118  1  0  0  0
 49 50  1  0  0  0
 49 53  1  0  0  0
 49 64  1  0  0  0
 49119  1  0  0  0
 50 51  1  0  0  0
 50120  1  0  0  0
 50121  1  0  0  0
 51 52  1  0  0  0
 51122  1  0  0  0
 51123  1  0  0  0
 52124  1  0  0  0
 52125  1  0  0  0
 53 54  1  0  0  0
 54 55  2  0  0  0
 54126  1  0  0  0
 55 57  1  0  0  0
 55127  1  0  0  0
 56 69  2  0  0  0
 57 58  2  0  0  0
 57128  1  0  0  0
 58129  1  0  0  0
 59 60  1  0  0  0
 59 61  1  0  0  0
 59 62  1  0  0  0
 60130  1  0  0  0
 60131  1  0  0  0
 60132  1  0  0  0
 61133  1  0  0  0
 61134  1  0  0  0
 61135  1  0  0  0
 62136  1  0  0  0
 62137  1  0  0  0
 62138  1  0  0  0
 63 65  1  0  0  0
 63139  1  0  0  0
 63140  1  0  0  0
 63141  1  0  0  0
 64142  1  0  0  0
 65143  1  0  0  0
 68 80  1  0  0  0
 71 72  2  0  0  0
 71 74  1  0  0  0
 71144  1  0  0  0
 72 75  1  0  0  0
 72145  1  0  0  0
 73 75  2  0  0  0
 73 76  1  0  0  0
 73146  1  0  0  0
 74 76  2  0  0  0
 74 78  1  0  0  0
 75 82  1  0  0  0
 76 84  1  0  0  0
 77 80  1  0  0  0
 77 81  2  0  0  0
 77147  1  0  0  0
 78 81  1  0  0  0
 78 83  2  0  0  0
 79 84  1  0  0  0
 79148  1  0  0  0
 79149  1  0  0  0
 79150  1  0  0  0
 80151  1  0  0  0
 80152  1  0  0  0
 82153  1  0  0  0
 83154  1  0  0  0
 83155  1  0  0  0
M  CHG  1  83   1
M  ISO  4   1 100  68 101  80 101  82 100
M  END
> <chiral flag>
0

> <version>
0

> <s_m_source_file>
/data/baiqing/PycharmProjects/Reinvent-master-3.2/result/LINK_invent/BTK/process_docking_weight1_custom_product_contain_oxygen_bond_distance_aromatic_linkinvent_7_9_3/rearranged_h_0058.sdf

> <i_m_source_file_index>
30

> <r_mmod_Potential_Energy-OPLS-2005>
349.675811767578

> <r_mmod_Stretch_Energy-OPLS-2005>
125.159828186035

> <r_mmod_Bend_Energy-OPLS-2005>
260.196441650391

> <r_mmod_Torsional_Energy-OPLS-2005>
246.419647216797

> <r_mmod_Improper_Torsional_Energy-OPLS-2005>
8.37161922454834

> <r_mmod_Van_der_Waal_Energy-OPLS-2005>
154.475311279297

> <r_mmod_Electrostatic_Energy-OPLS-2005>
-61.122257232666

> <r_mmod_Solvation_Energy-OPLS-2005>
-458.370544433594

> <b_mmod_Minimization_Converged-OPLS-2005>
0

> <r_mmod_RMS_Derivative-OPLS-2005>
1.96924364566803

$$$$
30
                    3D
 Structure written by MMmdl.
168176  0  0  1  0            999 V2000
  -30.6949  -14.4864   20.4686 C   0  0  0  0  0  0
  -30.4208  -12.2905   19.4176 C   0  0  0  0  0  0
  -29.4914  -12.4973   18.2054 C   0  0  0  0  0  0
  -28.0139  -12.3622   18.6238 C   0  0  0  0  0  0
  -27.6601  -13.2011   19.8809 C   0  0  2  0  0  0
  -28.7146  -13.0194   20.9972 C   0  0  0  0  0  0
  -25.2629  -13.8184   20.5787 C   0  0  0  0  0  0
  -24.1885  -13.0456   20.9218 C   0  0  0  0  0  0
  -24.6432  -11.6910   20.8789 C   0  0  0  0  0  0
  -23.9103  -10.4323   21.0466 C   0  0  0  0  0  0
  -24.3634   -9.4217   21.9236 C   0  0  0  0  0  0
  -23.6304   -8.2250   22.0780 C   0  0  0  0  0  0
  -22.4277   -8.0304   21.3556 C   0  0  0  0  0  0
  -21.9936   -9.0313   20.4673 C   0  0  0  0  0  0
  -22.7287  -10.2189   20.3112 C   0  0  0  0  0  0
  -21.6859   -6.0776   22.5310 C   0  0  0  0  0  0
  -21.4013   -6.5695   23.8250 C   0  0  0  0  0  0
  -21.3646   -5.6834   24.9210 C   0  0  0  0  0  0
  -21.6023   -4.3091   24.7239 C   0  0  0  0  0  0
  -21.8811   -3.8186   23.4370 C   0  0  0  0  0  0
  -21.9192   -4.7009   22.3418 C   0  0  0  0  0  0
  -22.7893  -13.5239   21.1888 C   0  0  0  0  0  0
  -22.1666   -4.2196   21.0998 F   0  0  0  0  0  0
  -21.5603   -3.4575   25.7749 F   0  0  0  0  0  0
  -30.0407  -13.2964   20.4202 N   0  0  0  0  0  0
  -26.3046  -12.9319   20.3468 N   0  0  0  0  0  0
  -25.9347  -11.6486   20.5845 N   0  0  0  0  0  0
  -22.0518  -12.8234   22.0415 N   0  0  0  0  0  0
  -25.4301  -15.1928   20.4282 N   0  0  0  0  0  0
  -31.8671  -14.6302   20.1188 O   0  0  0  0  0  0
  -21.6634   -6.8908   21.4260 O   0  0  0  0  0  0
  -22.3571  -14.5554   20.6724 O   0  0  0  0  0  0
  -24.6127  -31.8710   23.2104 C   0  0  0  0  0  0
  -25.9032  -32.4836   23.8405 C   0  0  1  0  0  0
  -27.2356  -27.4519   20.0770 C   0  0  0  0  0  0
  -25.5895  -33.8632   24.2342 N   0  0  0  0  0  0
  -23.3984  -30.4969   21.5510 C   0  0  2  0  0  0
  -24.8439  -28.9647   20.1140 C   0  0  0  0  0  0
  -22.7397  -29.4690   22.4978 C   0  0  0  0  0  0
  -18.0275  -28.1370   22.8505 C   0  0  0  0  0  0
  -24.1491  -36.7309   23.2640 C   0  0  0  0  0  0
  -25.9284  -30.8388   21.3651 C   0  0  0  0  0  0
  -26.0044  -29.4761   20.7083 C   0  0  0  0  0  0
  -27.2011  -28.7252   20.6882 C   0  0  0  0  0  0
  -26.0564  -26.9556   19.4726 C   0  0  0  0  0  0
  -24.8638  -27.7020   19.4983 C   0  0  0  0  0  0
  -23.6047  -29.8297   20.1664 C   0  0  0  0  0  0
  -25.4112  -36.3119   24.0347 C   0  0  1  0  0  0
  -20.5874  -28.3662   23.1310 C   0  0  2  0  0  0
  -20.6763  -26.9394   22.5423 C   0  0  0  0  0  0
  -19.5735  -26.6379   21.5226 C   0  0  0  0  0  0
  -18.1911  -26.7920   22.1634 C   0  0  0  0  0  0
  -19.1526  -28.8828   23.2915 C   0  0  0  0  0  0
  -18.9456  -30.1438   23.8921 C   0  0  0  0  0  0
  -17.6456  -30.6576   24.0567 C   0  0  0  0  0  0
  -25.9037  -34.9480   23.5143 C   0  0  0  0  0  0
  -16.5350  -29.9079   23.6319 C   0  0  0  0  0  0
  -16.7267  -28.6495   23.0350 C   0  0  0  0  0  0
  -26.4461  -31.6610   25.0723 C   0  0  0  0  0  0
  -25.3724  -31.3734   26.1476 C   0  0  0  0  0  0
  -27.0289  -30.3044   24.6109 C   0  0  0  0  0  0
  -27.6060  -32.4324   25.7460 C   0  0  0  0  0  0
  -27.5597  -37.1797   24.8456 C   0  0  0  0  0  0
  -21.4129  -29.3038   22.3710 N   0  0  0  0  0  0
  -26.4299  -37.3804   23.9416 N   0  0  0  0  0  0
  -24.6641  -31.0836   22.0993 N   0  0  0  0  0  0
  -23.4176  -28.8231   23.3005 O   0  0  0  0  0  0
  -28.4245  -26.7517   20.0695 O   0  0  0  0  0  0
  -26.5602  -34.8927   22.4699 O   0  0  0  0  0  0
  -23.5323  -32.1469   23.7503 O   0  0  0  0  0  0
  -29.2002  -17.7633   17.7862 C   0  0  0  0  0  0
  -29.9131  -18.9246   18.1206 C   0  0  0  0  0  0
  -29.2064  -16.6670   18.6646 C   0  0  0  0  0  0
  -30.6388  -19.0049   19.3271 C   0  0  0  0  0  0
  -30.6421  -17.8937   20.2259 C   0  0  0  0  0  0
  -29.9375  -16.7085   19.8721 C   0  0  0  0  0  0
  -30.1717  -25.4733   23.1271 C   0  0  0  0  0  0
  -30.1364  -26.0914   24.5030 C   0  0  0  0  0  0
  -30.0450  -22.3822   20.0393 C   0  0  0  0  0  0
  -31.3710  -17.9565   21.5652 C   0  0  0  0  0  0
  -31.4383  -26.0600   25.2944 C   0  0  0  0  0  0
  -31.3908  -20.3093   19.5904 C   0  0  0  0  0  0
  -29.3346  -23.1847   21.1432 C   0  0  0  0  0  0
  -28.3711  -25.3177   20.0372 C   0  0  0  0  0  0
  -29.4165  -24.7369   21.0200 C   0  0  1  0  0  0
  -29.1830  -25.3462   22.3297 N   0  0  0  0  0  0
  -29.9063  -15.5501   20.7022 N   0  0  0  0  0  0
  -30.6333  -21.2376   20.4248 N   0  0  0  0  0  0
  -29.1236  -26.6067   24.9905 O   0  0  0  0  0  0
  -30.0687  -22.7891   18.8763 O   0  0  0  0  0  0
  -31.4641  -12.3764   19.1028 H   0  0  0  0  0  0
  -30.3066  -11.2826   19.8280 H   0  0  0  0  0  0
  -29.7259  -11.7822   17.4164 H   0  0  0  0  0  0
  -29.6616  -13.4896   17.7847 H   0  0  0  0  0  0
  -27.8198  -11.3071   18.8136 H   0  0  0  0  0  0
  -27.3655  -12.6477   17.7969 H   0  0  0  0  0  0
  -27.6790  -14.2451   19.5788 H   0  0  0  0  0  0
  -28.6943  -12.0055   21.3957 H   0  0  0  0  0  0
  -28.4927  -13.6699   21.8450 H   0  0  0  0  0  0
  -25.2786   -9.5708   22.4795 H   0  0  0  0  0  0
  -24.0050   -7.4635   22.7492 H   0  0  0  0  0  0
  -21.0892   -8.8895   19.8946 H   0  0  0  0  0  0
  -22.3804  -10.9773   19.6224 H   0  0  0  0  0  0
  -21.2000   -7.6196   23.9786 H   0  0  0  0  0  0
  -21.1465   -6.0554   25.9127 H   0  0  0  0  0  0
  -22.0576   -2.7645   23.2881 H   0  0  0  0  0  0
  -22.4122  -11.9831   22.4697 H   0  0  0  0  0  0
  -21.1172  -13.1314   22.2711 H   0  0  0  0  0  0
  -24.6551  -15.8363   20.5513 H   0  0  0  0  0  0
  -26.2730  -15.6590   20.1199 H   0  0  0  0  0  0
  -26.7102  -32.5556   23.1177 H   0  0  0  0  0  0
  -25.0046  -33.9807   25.0487 H   0  0  0  0  0  0
  -22.6864  -31.3131   21.4127 H   0  0  0  0  0  0
  -23.3777  -35.9616   23.3274 H   0  0  0  0  0  0
  -24.3603  -36.8948   22.2060 H   0  0  0  0  0  0
  -23.7209  -37.6490   23.6669 H   0  0  0  0  0  0
  -26.0502  -31.6075   20.6000 H   0  0  0  0  0  0
  -26.8133  -30.8845   21.9883 H   0  0  0  0  0  0
  -28.0979  -29.1195   21.1463 H   0  0  0  0  0  0
  -26.0457  -26.0035   18.9616 H   0  0  0  0  0  0
  -23.9716  -27.3052   19.0339 H   0  0  0  0  0  0
  -23.7060  -30.6042   19.4041 H   0  0  0  0  0  0
  -22.7291  -29.2478   19.8737 H   0  0  0  0  0  0
  -25.1283  -36.1996   25.0842 H   0  0  0  0  0  0
  -20.9996  -28.3238   24.1425 H   0  0  0  0  0  0
  -20.5661  -26.2273   23.3619 H   0  0  0  0  0  0
  -21.6625  -26.7413   22.1215 H   0  0  0  0  0  0
  -19.6880  -25.6294   21.1229 H   0  0  0  0  0  0
  -19.6663  -27.3209   20.6767 H   0  0  0  0  0  0
  -17.4186  -26.6700   21.4026 H   0  0  0  0  0  0
  -18.0282  -26.0052   22.9015 H   0  0  0  0  0  0
  -19.7933  -30.7245   24.2301 H   0  0  0  0  0  0
  -17.5010  -31.6255   24.5167 H   0  0  0  0  0  0
  -15.5352  -30.2987   23.7612 H   0  0  0  0  0  0
  -15.8677  -28.0814   22.7049 H   0  0  0  0  0  0
  -24.5874  -30.7118   25.7799 H   0  0  0  0  0  0
  -24.8947  -32.2900   26.4939 H   0  0  0  0  0  0
  -25.8059  -30.8872   27.0221 H   0  0  0  0  0  0
  -26.2831  -29.6807   24.1165 H   0  0  0  0  0  0
  -27.4053  -29.7280   25.4571 H   0  0  0  0  0  0
  -27.8671  -30.4354   23.9264 H   0  0  0  0  0  0
  -27.2709  -33.3626   26.2064 H   0  0  0  0  0  0
  -28.3833  -32.6885   25.0248 H   0  0  0  0  0  0
  -28.0768  -31.8432   26.5341 H   0  0  0  0  0  0
  -28.2592  -38.0119   24.7554 H   0  0  0  0  0  0
  -28.1119  -36.2654   24.6218 H   0  0  0  0  0  0
  -27.2320  -37.1364   25.8859 H   0  0  0  0  0  0
  -20.9273  -29.8781   21.6966 H   0  0  0  0  0  0
  -26.0197  -38.2878   24.1439 H   0  0  0  0  0  0
  -28.6551  -17.7074   16.8538 H   0  0  0  0  0  0
  -29.9028  -19.7625   17.4377 H   0  0  0  0  0  0
  -28.6572  -15.7834   18.3801 H   0  0  0  0  0  0
  -31.1559  -25.1063   22.8206 H   0  0  0  0  0  0
  -32.2060  -18.6515   21.5651 H   0  0  0  0  0  0
  -31.7995  -16.9919   21.8393 H   0  0  0  0  0  0
  -30.6808  -18.2589   22.3540 H   0  0  0  0  0  0
  -31.8263  -25.0429   25.3471 H   0  0  0  0  0  0
  -31.2767  -26.4212   26.3109 H   0  0  0  0  0  0
  -32.1837  -26.6941   24.8153 H   0  0  0  0  0  0
  -31.6509  -20.7739   18.6363 H   0  0  0  0  0  0
  -32.3535  -20.1088   20.0575 H   0  0  0  0  0  0
  -29.7721  -22.8666   22.0894 H   0  0  0  0  0  0
  -28.2926  -22.8682   21.1867 H   0  0  0  0  0  0
  -27.3942  -24.9355   20.3379 H   0  0  0  0  0  0
  -28.5497  -24.9750   19.0178 H   0  0  0  0  0  0
  -30.4040  -25.0097   20.6355 H   0  0  0  0  0  0
  -28.9839  -15.2736   20.9988 H   0  0  0  0  0  0
  -30.5563  -20.9834   21.4002 H   0  0  0  0  0  0
  1 25  1  0  0  0
  1 30  2  0  0  0
  1 87  1  0  0  0
  2  3  1  0  0  0
  2 25  1  0  0  0
  2 91  1  0  0  0
  2 92  1  0  0  0
  3  4  1  0  0  0
  3 93  1  0  0  0
  3 94  1  0  0  0
  4  5  1  0  0  0
  4 95  1  0  0  0
  4 96  1  0  0  0
  5  6  1  0  0  0
  5 26  1  0  0  0
  5 97  1  0  0  0
  6 25  1  0  0  0
  6 98  1  0  0  0
  6 99  1  0  0  0
  7  8  2  0  0  0
  7 26  1  0  0  0
  7 29  1  0  0  0
  8  9  1  0  0  0
  8 22  1  0  0  0
  9 10  1  0  0  0
  9 27  2  0  0  0
 10 11  2  0  0  0
 10 15  1  0  0  0
 11 12  1  0  0  0
 11100  1  0  0  0
 12 13  2  0  0  0
 12101  1  0  0  0
 13 14  1  0  0  0
 13 31  1  0  0  0
 14 15  2  0  0  0
 14102  1  0  0  0
 15103  1  0  0  0
 16 17  2  0  0  0
 16 21  1  0  0  0
 16 31  1  0  0  0
 17 18  1  0  0  0
 17104  1  0  0  0
 18 19  2  0  0  0
 18105  1  0  0  0
 19 20  1  0  0  0
 19 24  1  0  0  0
 20 21  2  0  0  0
 20106  1  0  0  0
 21 23  1  0  0  0
 22 28  1  0  0  0
 22 32  2  0  0  0
 26 27  1  0  0  0
 28107  1  0  0  0
 28108  1  0  0  0
 29109  1  0  0  0
 29110  1  0  0  0
 33 34  1  0  0  0
 33 66  1  0  0  0
 33 70  2  0  0  0
 34 36  1  0  0  0
 34 59  1  0  0  0
 34111  1  0  0  0
 35 44  2  0  0  0
 35 45  1  0  0  0
 35 68  1  0  0  0
 36 56  1  0  0  0
 36112  1  0  0  0
 37 39  1  0  0  0
 37 47  1  0  0  0
 37 66  1  0  0  0
 37113  1  0  0  0
 38 43  2  0  0  0
 38 46  1  0  0  0
 38 47  1  0  0  0
 39 64  1  0  0  0
 39 67  2  0  0  0
 40 52  1  0  0  0
 40 53  2  0  0  0
 40 58  1  0  0  0
 41114  1  0  0  0
 41115  1  0  0  0
 41116  1  0  0  0
 41 48  1  0  0  0
 42 43  1  0  0  0
 42 66  1  0  0  0
 42117  1  0  0  0
 42118  1  0  0  0
 43 44  1  0  0  0
 44119  1  0  0  0
 45 46  2  0  0  0
 45120  1  0  0  0
 46121  1  0  0  0
 47122  1  0  0  0
 47123  1  0  0  0
 48 56  1  0  0  0
 48 65  1  0  0  0
 48124  1  0  0  0
 49 50  1  0  0  0
 49 53  1  0  0  0
 49 64  1  0  0  0
 49125  1  0  0  0
 50 51  1  0  0  0
 50126  1  0  0  0
 50127  1  0  0  0
 51 52  1  0  0  0
 51128  1  0  0  0
 51129  1  0  0  0
 52130  1  0  0  0
 52131  1  0  0  0
 53 54  1  0  0  0
 54 55  2  0  0  0
 54132  1  0  0  0
 55 57  1  0  0  0
 55133  1  0  0  0
 56 69  2  0  0  0
 57 58  2  0  0  0
 57134  1  0  0  0
 58135  1  0  0  0
 59 60  1  0  0  0
 59 61  1  0  0  0
 59 62  1  0  0  0
 60136  1  0  0  0
 60137  1  0  0  0
 60138  1  0  0  0
 61139  1  0  0  0
 61140  1  0  0  0
 61141  1  0  0  0
 62142  1  0  0  0
 62143  1  0  0  0
 62144  1  0  0  0
 63 65  1  0  0  0
 63145  1  0  0  0
 63146  1  0  0  0
 63147  1  0  0  0
 64148  1  0  0  0
 65149  1  0  0  0
 68 84  1  0  0  0
 71 72  2  0  0  0
 71 73  1  0  0  0
 71150  1  0  0  0
 72 74  1  0  0  0
 72151  1  0  0  0
 73 76  2  0  0  0
 73152  1  0  0  0
 74 75  2  0  0  0
 74 82  1  0  0  0
 75 76  1  0  0  0
 75 80  1  0  0  0
 76 87  1  0  0  0
 77 78  1  0  0  0
 77 86  2  0  0  0
 77153  1  0  0  0
 78 81  1  0  0  0
 78 89  2  0  0  0
 79 83  1  0  0  0
 79 88  1  0  0  0
 79 90  2  0  0  0
 80154  1  0  0  0
 80155  1  0  0  0
 80156  1  0  0  0
 81157  1  0  0  0
 81158  1  0  0  0
 81159  1  0  0  0
 82 88  1  0  0  0
 82160  1  0  0  0
 82161  1  0  0  0
 83162  1  0  0  0
 83163  1  0  0  0
 83 85  1  0  0  0
 84 85  1  0  0  0
 84164  1  0  0  0
 84165  1  0  0  0
 85 86  1  0  0  0
 85166  1  0  0  0
 87167  1  0  0  0
 88168  1  0  0  0
M  ISO  4   1 100  68 101  84 101  87 100
M  END
> <chiral flag>
0

> <version>
0

> <s_m_source_file>
/data/baiqing/PycharmProjects/Reinvent-master-3.2/result/LINK_invent/BTK/process_docking_weight1_custom_product_contain_oxygen_bond_distance_aromatic_linkinvent_7_9_3/rearranged_h_0058.sdf

> <i_m_source_file_index>
31

> <r_mmod_Potential_Energy-OPLS-2005>
-99.4227600097656

> <r_mmod_Stretch_Energy-OPLS-2005>
39.2210807800293

> <r_mmod_Bend_Energy-OPLS-2005>
103.010894775391

> <r_mmod_Torsional_Energy-OPLS-2005>
250.062255859375

> <r_mmod_Improper_Torsional_Energy-OPLS-2005>
8.6161060333252

> <r_mmod_Van_der_Waal_Energy-OPLS-2005>
153.613525390625

> <r_mmod_Electrostatic_Energy-OPLS-2005>
-391.698089599609

> <r_mmod_Solvation_Energy-OPLS-2005>
-278.881042480469

> <b_mmod_Minimization_Converged-OPLS-2005>
0

> <r_mmod_RMS_Derivative-OPLS-2005>
3.75237584114075

$$$$
31
                    3D
 Structure written by MMmdl.
156164  0  0  1  0            999 V2000
  -30.6664  -14.5529   20.5337 C   0  0  0  0  0  0
  -30.4293  -12.3453   19.4383 C   0  0  0  0  0  0
  -29.5023  -12.5082   18.2152 C   0  0  0  0  0  0
  -28.0235  -12.3569   18.6250 C   0  0  0  0  0  0
  -27.6574  -13.2112   19.8683 C   0  0  2  0  0  0
  -28.7007  -13.0318   20.9947 C   0  0  0  0  0  0
  -25.2572  -13.8160   20.5675 C   0  0  0  0  0  0
  -24.1832  -13.0434   20.9183 C   0  0  0  0  0  0
  -24.6387  -11.6904   20.8728 C   0  0  0  0  0  0
  -23.9052  -10.4288   21.0393 C   0  0  0  0  0  0
  -24.3608   -9.4206   21.9170 C   0  0  0  0  0  0
  -23.6282   -8.2242   22.0748 C   0  0  0  0  0  0
  -22.4263   -8.0276   21.3545 C   0  0  0  0  0  0
  -21.9890   -9.0249   20.4646 C   0  0  0  0  0  0
  -22.7221  -10.2128   20.3045 C   0  0  0  0  0  0
  -21.6855   -6.0722   22.5270 C   0  0  0  0  0  0
  -21.4021   -6.5630   23.8204 C   0  0  0  0  0  0
  -21.3659   -5.6784   24.9166 C   0  0  0  0  0  0
  -21.6040   -4.3045   24.7220 C   0  0  0  0  0  0
  -21.8822   -3.8136   23.4346 C   0  0  0  0  0  0
  -21.9199   -4.6953   22.3399 C   0  0  0  0  0  0
  -22.7855  -13.5234   21.1836 C   0  0  0  0  0  0
  -22.1665   -4.2136   21.0978 F   0  0  0  0  0  0
  -21.5624   -3.4531   25.7736 F   0  0  0  0  0  0
  -30.0250  -13.3514   20.4369 N   0  0  0  0  0  0
  -26.3003  -12.9335   20.3330 N   0  0  0  0  0  0
  -25.9315  -11.6493   20.5744 N   0  0  0  0  0  0
  -22.0495  -12.8242   22.0403 N   0  0  0  0  0  0
  -25.4285  -15.1877   20.4069 N   0  0  0  0  0  0
  -31.8192  -14.7074   20.1192 O   0  0  0  0  0  0
  -21.6636   -6.8868   21.4237 O   0  0  0  0  0  0
  -22.3540  -14.5538   20.6675 O   0  0  0  0  0  0
  -24.6199  -31.8645   23.2074 C   0  0  0  0  0  0
  -25.9078  -32.4799   23.8372 C   0  0  1  0  0  0
  -27.2259  -27.3754   20.1031 C   0  0  0  0  0  0
  -25.5917  -33.8601   24.2304 N   0  0  0  0  0  0
  -23.4103  -30.4876   21.5493 C   0  0  2  0  0  0
  -24.8557  -28.9537   20.1096 C   0  0  0  0  0  0
  -22.7446  -29.4626   22.4970 C   0  0  0  0  0  0
  -18.0277  -28.1377   22.8477 C   0  0  0  0  0  0
  -24.1489  -36.7304   23.2633 C   0  0  0  0  0  0
  -25.9462  -30.8112   21.3716 C   0  0  0  0  0  0
  -26.0206  -29.4437   20.7129 C   0  0  0  0  0  0
  -27.2077  -28.6637   20.7045 C   0  0  0  0  0  0
  -26.0403  -26.9268   19.4729 C   0  0  0  0  0  0
  -24.8644  -27.6984   19.4831 C   0  0  0  0  0  0
  -23.6212  -29.8260   20.1624 C   0  0  0  0  0  0
  -25.4105  -36.3090   24.0333 C   0  0  1  0  0  0
  -20.5870  -28.3664   23.1305 C   0  0  2  0  0  0
  -20.6769  -26.9395   22.5421 C   0  0  0  0  0  0
  -19.5750  -26.6382   21.5207 C   0  0  0  0  0  0
  -18.1925  -26.7925   22.1615 C   0  0  0  0  0  0
  -19.1528  -28.8842   23.2886 C   0  0  0  0  0  0
  -18.9455  -30.1446   23.8899 C   0  0  0  0  0  0
  -17.6458  -30.6583   24.0563 C   0  0  0  0  0  0
  -25.9040  -34.9460   23.5114 C   0  0  0  0  0  0
  -16.5349  -29.9081   23.6325 C   0  0  0  0  0  0
  -16.7262  -28.6497   23.0342 C   0  0  0  0  0  0
  -26.4480  -31.6595   25.0729 C   0  0  0  0  0  0
  -25.3740  -31.3761   26.1485 C   0  0  0  0  0  0
  -27.0289  -30.3011   24.6160 C   0  0  0  0  0  0
  -27.6050  -32.4323   25.7489 C   0  0  0  0  0  0
  -27.5585  -37.1791   24.8448 C   0  0  0  0  0  0
  -21.4166  -29.3026   22.3713 N   0  0  0  0  0  0
  -26.4282  -37.3783   23.9416 N   0  0  0  0  0  0
  -24.6768  -31.0700   22.1001 N   0  0  0  0  0  0
  -23.4198  -28.8163   23.3024 O   0  0  0  0  0  0
  -28.3672  -26.5783   20.1565 O   0  0  0  0  0  0
  -26.5599  -34.8918   22.4673 O   0  0  0  0  0  0
  -23.5381  -32.1425   23.7435 O   0  0  0  0  0  0
  -29.0013  -17.8942   20.7082 C   0  0  0  0  0  0
  -29.1595  -19.3027   20.5891 C   0  0  0  0  0  0
  -31.3963  -17.6231   20.8769 C   0  0  0  0  0  0
  -31.5684  -19.0292   20.7685 C   0  0  0  0  0  0
  -30.1149  -17.0231   20.8352 C   0  0  0  0  0  0
  -30.4425  -19.8975   20.6262 C   0  0  0  0  0  0
  -29.2563  -24.2525   20.6254 C   0  0  0  0  0  0
  -32.9913  -19.5665   20.8044 C   0  0  0  0  0  0
  -28.2001  -25.1458   19.9153 C   0  0  0  0  0  0
  -29.0881  -22.7005   20.5498 C   0  0  0  0  0  0
  -31.1255  -21.9322   18.9016 N   0  0  0  0  0  0
  -29.8965  -15.5961   20.9478 N   0  0  0  0  0  0
  -30.1624  -24.7772   21.2819 O   0  0  0  0  0  0
  -31.5917  -22.1796   21.4606 O   0  0  0  0  0  0
  -30.6843  -21.7221   20.3932 S   0  0  2  0  0  0
  -31.4732  -12.4507   19.1379 H   0  0  0  0  0  0
  -30.3392  -11.3425   19.8574 H   0  0  0  0  0  0
  -29.7550  -11.7742   17.4489 H   0  0  0  0  0  0
  -29.6603  -13.4885   17.7626 H   0  0  0  0  0  0
  -27.8463  -11.3018   18.8374 H   0  0  0  0  0  0
  -27.3730  -12.6124   17.7876 H   0  0  0  0  0  0
  -27.6883  -14.2527   19.5476 H   0  0  0  0  0  0
  -28.6933  -12.0040   21.3605 H   0  0  0  0  0  0
  -28.4574  -13.6519   21.8587 H   0  0  0  0  0  0
  -25.2757   -9.5687   22.4738 H   0  0  0  0  0  0
  -23.9998   -7.4637   22.7462 H   0  0  0  0  0  0
  -21.0819   -8.8765   19.8954 H   0  0  0  0  0  0
  -22.3672  -10.9664   19.6150 H   0  0  0  0  0  0
  -21.2019   -7.6138   23.9704 H   0  0  0  0  0  0
  -21.1472   -6.0512   25.9068 H   0  0  0  0  0  0
  -22.0605   -2.7597   23.2850 H   0  0  0  0  0  0
  -22.4105  -11.9909   22.4808 H   0  0  0  0  0  0
  -21.1116  -13.1274   22.2597 H   0  0  0  0  0  0
  -24.6566  -15.8393   20.4990 H   0  0  0  0  0  0
  -26.2696  -15.6212   20.0505 H   0  0  0  0  0  0
  -26.7145  -32.5485   23.1121 H   0  0  0  0  0  0
  -25.0074  -33.9755   25.0454 H   0  0  0  0  0  0
  -22.6996  -31.3053   21.4108 H   0  0  0  0  0  0
  -23.3751  -35.9636   23.3291 H   0  0  0  0  0  0
  -24.3591  -36.8927   22.2050 H   0  0  0  0  0  0
  -23.7247  -37.6508   23.6654 H   0  0  0  0  0  0
  -26.0723  -31.5797   20.6077 H   0  0  0  0  0  0
  -26.8280  -30.8564   21.9988 H   0  0  0  0  0  0
  -28.1025  -29.0339   21.1852 H   0  0  0  0  0  0
  -25.9933  -25.9742   18.9670 H   0  0  0  0  0  0
  -23.9717  -27.3210   19.0034 H   0  0  0  0  0  0
  -23.7343  -30.6035   19.4057 H   0  0  0  0  0  0
  -22.7430  -29.2506   19.8624 H   0  0  0  0  0  0
  -25.1281  -36.1936   25.0825 H   0  0  0  0  0  0
  -20.9950  -28.3236   24.1431 H   0  0  0  0  0  0
  -20.5660  -26.2269   23.3610 H   0  0  0  0  0  0
  -21.6642  -26.7437   22.1216 H   0  0  0  0  0  0
  -19.6912  -25.6298   21.1232 H   0  0  0  0  0  0
  -19.6692  -27.3194   20.6742 H   0  0  0  0  0  0
  -17.4199  -26.6663   21.4015 H   0  0  0  0  0  0
  -18.0327  -26.0070   22.9008 H   0  0  0  0  0  0
  -19.7938  -30.7250   24.2272 H   0  0  0  0  0  0
  -17.5018  -31.6260   24.5170 H   0  0  0  0  0  0
  -15.5346  -30.2977   23.7655 H   0  0  0  0  0  0
  -15.8667  -28.0816   22.7055 H   0  0  0  0  0  0
  -24.5871  -30.7142   25.7850 H   0  0  0  0  0  0
  -24.8985  -32.2949   26.4922 H   0  0  0  0  0  0
  -25.8084  -30.8936   27.0249 H   0  0  0  0  0  0
  -26.2836  -29.6796   24.1180 H   0  0  0  0  0  0
  -27.3978  -29.7231   25.4646 H   0  0  0  0  0  0
  -27.8716  -30.4286   23.9361 H   0  0  0  0  0  0
  -27.2655  -33.3614   26.2076 H   0  0  0  0  0  0
  -28.3839  -32.6904   25.0304 H   0  0  0  0  0  0
  -28.0732  -31.8450   26.5397 H   0  0  0  0  0  0
  -28.2571  -38.0118   24.7537 H   0  0  0  0  0  0
  -28.1106  -36.2654   24.6201 H   0  0  0  0  0  0
  -27.2320  -37.1371   25.8854 H   0  0  0  0  0  0
  -20.9342  -29.8746   21.6929 H   0  0  0  0  0  0
  -26.0166  -38.2850   24.1456 H   0  0  0  0  0  0
  -28.0010  -17.4849   20.6821 H   0  0  0  0  0  0
  -28.2870  -19.9271   20.4660 H   0  0  0  0  0  0
  -32.2730  -17.0029   20.9959 H   0  0  0  0  0  0
  -33.7249  -18.7651   20.7111 H   0  0  0  0  0  0
  -33.1819  -20.0779   21.7484 H   0  0  0  0  0  0
  -33.1738  -20.2641   19.9872 H   0  0  0  0  0  0
  -27.2285  -24.8076   20.2758 H   0  0  0  0  0  0
  -28.2395  -24.9556   18.8424 H   0  0  0  0  0  0
  -28.4387  -22.4371   19.7187 H   0  0  0  0  0  0
  -28.5910  -22.3670   21.4578 H   0  0  0  0  0  0
  -30.5136  -21.4188   18.2542 H   0  0  0  0  0  0
  -28.9630  -15.3201   21.2115 H   0  0  0  0  0  0
  1 25  1  0  0  0
  1 30  2  0  0  0
  1 82  1  0  0  0
  2  3  1  0  0  0
  2 25  1  0  0  0
  2 86  1  0  0  0
  2 87  1  0  0  0
  3  4  1  0  0  0
  3 88  1  0  0  0
  3 89  1  0  0  0
  4  5  1  0  0  0
  4 90  1  0  0  0
  4 91  1  0  0  0
  5  6  1  0  0  0
  5 26  1  0  0  0
  5 92  1  0  0  0
  6 25  1  0  0  0
  6 93  1  0  0  0
  6 94  1  0  0  0
  7  8  2  0  0  0
  7 26  1  0  0  0
  7 29  1  0  0  0
  8  9  1  0  0  0
  8 22  1  0  0  0
  9 10  1  0  0  0
  9 27  2  0  0  0
 10 11  2  0  0  0
 10 15  1  0  0  0
 11 12  1  0  0  0
 11 95  1  0  0  0
 12 13  2  0  0  0
 12 96  1  0  0  0
 13 14  1  0  0  0
 13 31  1  0  0  0
 14 15  2  0  0  0
 14 97  1  0  0  0
 15 98  1  0  0  0
 16 17  2  0  0  0
 16 21  1  0  0  0
 16 31  1  0  0  0
 17 18  1  0  0  0
 17 99  1  0  0  0
 18 19  2  0  0  0
 18100  1  0  0  0
 19 20  1  0  0  0
 19 24  1  0  0  0
 20 21  2  0  0  0
 20101  1  0  0  0
 21 23  1  0  0  0
 22 28  1  0  0  0
 22 32  2  0  0  0
 26 27  1  0  0  0
 28102  1  0  0  0
 28103  1  0  0  0
 29104  1  0  0  0
 29105  1  0  0  0
 33 34  1  0  0  0
 33 66  1  0  0  0
 33 70  2  0  0  0
 34 36  1  0  0  0
 34 59  1  0  0  0
 34106  1  0  0  0
 35 44  2  0  0  0
 35 45  1  0  0  0
 35 68  1  0  0  0
 36 56  1  0  0  0
 36107  1  0  0  0
 37 39  1  0  0  0
 37 47  1  0  0  0
 37 66  1  0  0  0
 37108  1  0  0  0
 38 43  2  0  0  0
 38 46  1  0  0  0
 38 47  1  0  0  0
 39 64  1  0  0  0
 39 67  2  0  0  0
 40 52  1  0  0  0
 40 53  2  0  0  0
 40 58  1  0  0  0
 41109  1  0  0  0
 41110  1  0  0  0
 41111  1  0  0  0
 41 48  1  0  0  0
 42 43  1  0  0  0
 42 66  1  0  0  0
 42112  1  0  0  0
 42113  1  0  0  0
 43 44  1  0  0  0
 44114  1  0  0  0
 45 46  2  0  0  0
 45115  1  0  0  0
 46116  1  0  0  0
 47117  1  0  0  0
 47118  1  0  0  0
 48 56  1  0  0  0
 48 65  1  0  0  0
 48119  1  0  0  0
 49 50  1  0  0  0
 49 53  1  0  0  0
 49 64  1  0  0  0
 49120  1  0  0  0
 50 51  1  0  0  0
 50121  1  0  0  0
 50122  1  0  0  0
 51 52  1  0  0  0
 51123  1  0  0  0
 51124  1  0  0  0
 52125  1  0  0  0
 52126  1  0  0  0
 53 54  1  0  0  0
 54 55  2  0  0  0
 54127  1  0  0  0
 55 57  1  0  0  0
 55128  1  0  0  0
 56 69  2  0  0  0
 57 58  2  0  0  0
 57129  1  0  0  0
 58130  1  0  0  0
 59 60  1  0  0  0
 59 61  1  0  0  0
 59 62  1  0  0  0
 60131  1  0  0  0
 60132  1  0  0  0
 60133  1  0  0  0
 61134  1  0  0  0
 61135  1  0  0  0
 61136  1  0  0  0
 62137  1  0  0  0
 62138  1  0  0  0
 62139  1  0  0  0
 63 65  1  0  0  0
 63140  1  0  0  0
 63141  1  0  0  0
 63142  1  0  0  0
 64143  1  0  0  0
 65144  1  0  0  0
 68 79  1  0  0  0
 71 72  2  0  0  0
 71 75  1  0  0  0
 71145  1  0  0  0
 72 76  1  0  0  0
 72146  1  0  0  0
 73 74  1  0  0  0
 73 75  2  0  0  0
 73147  1  0  0  0
 74 76  2  0  0  0
 74 78  1  0  0  0
 75 82  1  0  0  0
 76 85  1  0  0  0
 77 79  1  0  0  0
 77 80  1  0  0  0
 77 83  2  0  0  0
 78148  1  0  0  0
 78149  1  0  0  0
 78150  1  0  0  0
 79151  1  0  0  0
 79152  1  0  0  0
 80153  1  0  0  0
 80154  1  0  0  0
 80 85  1  0  0  0
 81 85  2  0  0  0
 81155  1  0  0  0
 82156  1  0  0  0
 84 85  2  0  0  0
M  ISO  4   1 100  68 101  79 101  82 100
M  END
> <chiral flag>
0

> <version>
0

> <s_m_source_file>
/data/baiqing/PycharmProjects/Reinvent-master-3.2/result/LINK_invent/BTK/process_docking_weight1_custom_product_contain_oxygen_bond_distance_aromatic_linkinvent_7_9_3/rearranged_h_0058.sdf

> <i_m_source_file_index>
32

> <r_mmod_Potential_Energy-OPLS-2005>
-143.19921875

> <r_mmod_Stretch_Energy-OPLS-2005>
56.993350982666

> <r_mmod_Bend_Energy-OPLS-2005>
117.150863647461

> <r_mmod_Torsional_Energy-OPLS-2005>
218.113235473633

> <r_mmod_Improper_Torsional_Energy-OPLS-2005>
4.92129802703857

> <r_mmod_Van_der_Waal_Energy-OPLS-2005>
145.916030883789

> <r_mmod_Electrostatic_Energy-OPLS-2005>
-390.760833740234

> <r_mmod_Solvation_Energy-OPLS-2005>
-322.271942138672

> <b_mmod_Minimization_Converged-OPLS-2005>
0

> <r_mmod_RMS_Derivative-OPLS-2005>
1.31520533561707

$$$$
32
                    3D
 Structure written by MMmdl.
157166  0  0  1  0            999 V2000
  -30.6142  -14.7665   20.4738 C   0  0  0  0  0  0
  -30.4380  -12.4712   19.4978 C   0  0  0  0  0  0
  -29.5297  -12.5255   18.2458 C   0  0  0  0  0  0
  -28.0528  -12.3442   18.6470 C   0  0  0  0  0  0
  -27.6553  -13.2396   19.8543 C   0  0  2  0  0  0
  -28.6931  -13.1733   21.0007 C   0  0  0  0  0  0
  -25.2595  -13.8213   20.5682 C   0  0  0  0  0  0
  -24.1869  -13.0475   20.9196 C   0  0  0  0  0  0
  -24.6458  -11.6944   20.8731 C   0  0  0  0  0  0
  -23.9093  -10.4330   21.0405 C   0  0  0  0  0  0
  -24.3654   -9.4262   21.9183 C   0  0  0  0  0  0
  -23.6348   -8.2279   22.0754 C   0  0  0  0  0  0
  -22.4341   -8.0301   21.3532 C   0  0  0  0  0  0
  -21.9949   -9.0275   20.4642 C   0  0  0  0  0  0
  -22.7264  -10.2175   20.3051 C   0  0  0  0  0  0
  -21.6855   -6.0782   22.5292 C   0  0  0  0  0  0
  -21.3995   -6.5665   23.8234 C   0  0  0  0  0  0
  -21.3658   -5.6795   24.9175 C   0  0  0  0  0  0
  -21.6060   -4.3061   24.7218 C   0  0  0  0  0  0
  -21.8815   -3.8171   23.4323 C   0  0  0  0  0  0
  -21.9188   -4.7004   22.3398 C   0  0  0  0  0  0
  -22.7882  -13.5279   21.1814 C   0  0  0  0  0  0
  -22.1676   -4.2186   21.0983 F   0  0  0  0  0  0
  -21.5638   -3.4535   25.7726 F   0  0  0  0  0  0
  -29.9986  -13.5329   20.4359 N   0  0  0  0  0  0
  -26.3039  -12.9431   20.3276 N   0  0  0  0  0  0
  -25.9416  -11.6570   20.5741 N   0  0  0  0  0  0
  -22.0480  -12.8294   22.0355 N   0  0  0  0  0  0
  -25.4323  -15.1928   20.4103 N   0  0  0  0  0  0
  -31.7778  -14.8712   20.0678 O   0  0  0  0  0  0
  -21.6674   -6.8932   21.4260 O   0  0  0  0  0  0
  -22.3564  -14.5584   20.6655 O   0  0  0  0  0  0
  -24.6348  -31.8556   23.1986 C   0  0  0  0  0  0
  -25.9178  -32.4748   23.8334 C   0  0  1  0  0  0
  -27.2067  -27.2296   20.1503 C   0  0  0  0  0  0
  -25.5951  -33.8533   24.2255 N   0  0  0  0  0  0
  -23.4322  -30.4829   21.5433 C   0  0  2  0  0  0
  -24.8775  -28.9331   20.1087 C   0  0  0  0  0  0
  -22.7541  -29.4633   22.4911 C   0  0  0  0  0  0
  -18.0305  -28.1387   22.8483 C   0  0  0  0  0  0
  -24.1479  -36.7296   23.2645 C   0  0  0  0  0  0
  -25.9830  -30.7591   21.3861 C   0  0  0  0  0  0
  -26.0507  -29.3798   20.7309 C   0  0  0  0  0  0
  -27.2162  -28.5392   20.7491 C   0  0  0  0  0  0
  -26.0217  -26.8898   19.4545 C   0  0  0  0  0  0
  -24.8724  -27.6977   19.4537 C   0  0  0  0  0  0
  -23.6482  -29.8194   20.1586 C   0  0  0  0  0  0
  -25.4097  -36.3080   24.0345 C   0  0  1  0  0  0
  -20.5911  -28.3712   23.1252 C   0  0  2  0  0  0
  -20.6772  -26.9427   22.5393 C   0  0  0  0  0  0
  -19.5748  -26.6384   21.5201 C   0  0  0  0  0  0
  -18.1936  -26.7925   22.1615 C   0  0  0  0  0  0
  -19.1556  -28.8865   23.2859 C   0  0  0  0  0  0
  -18.9476  -30.1460   23.8887 C   0  0  0  0  0  0
  -17.6475  -30.6582   24.0557 C   0  0  0  0  0  0
  -25.9050  -34.9443   23.5112 C   0  0  0  0  0  0
  -16.5361  -29.9072   23.6324 C   0  0  0  0  0  0
  -16.7294  -28.6483   23.0350 C   0  0  0  0  0  0
  -26.4495  -31.6575   25.0749 C   0  0  0  0  0  0
  -25.3707  -31.3718   26.1469 C   0  0  0  0  0  0
  -27.0347  -30.2991   24.6267 C   0  0  0  0  0  0
  -27.6062  -32.4299   25.7516 C   0  0  0  0  0  0
  -27.5579  -37.1804   24.8470 C   0  0  0  0  0  0
  -21.4246  -29.3073   22.3653 N   0  0  0  0  0  0
  -26.4288  -37.3777   23.9419 N   0  0  0  0  0  0
  -24.7026  -31.0500   22.0981 N   0  0  0  0  0  0
  -23.4239  -28.8175   23.3006 O   0  0  0  0  0  0
  -28.2489  -26.2602   20.2492 O   0  0  0  0  0  0
  -26.5611  -34.8945   22.4678 O   0  0  0  0  0  0
  -23.5482  -32.1394   23.7256 O   0  0  0  0  0  0
  -29.3102  -19.5909   18.6042 C   0  0  0  0  0  0
  -29.6240  -17.1656   18.7609 C   0  0  0  0  0  0
  -29.8598  -23.2422   21.3449 C   0  0  0  0  0  0
  -29.6639  -18.5448   20.7737 C   0  0  0  0  0  0
  -29.4031  -18.3244   17.9941 C   0  0  0  0  0  0
  -28.6848  -23.4936   20.5629 C   0  0  0  0  0  0
  -29.4218  -19.7698   19.9994 C   0  0  0  0  0  0
  -29.7755  -17.2140   20.1637 C   0  0  0  0  0  0
  -30.2092  -21.9043   21.2669 C   0  0  0  0  0  0
  -28.3950  -22.2101   20.0720 C   0  0  0  0  0  0
  -29.2587  -18.1987   16.4898 C   0  0  0  0  0  0
  -27.7885  -24.8216   20.4162 C   0  0  0  0  0  0
  -29.3244  -21.1909   20.4579 N   0  0  0  0  0  0
  -29.8981  -15.9004   20.8577 N   0  0  0  0  0  0
  -31.2751  -21.2812   21.8462 O   0  0  0  0  0  0
  -27.3320  -21.8651   19.2894 O   0  0  0  0  0  0
  -31.4850  -12.5810   19.2149 H   0  0  0  0  0  0
  -30.3690  -11.4933   19.9764 H   0  0  0  0  0  0
  -29.8425  -11.7633   17.5306 H   0  0  0  0  0  0
  -29.6525  -13.4865   17.7360 H   0  0  0  0  0  0
  -27.9073  -11.2969   18.9090 H   0  0  0  0  0  0
  -27.3978  -12.5393   17.7957 H   0  0  0  0  0  0
  -27.6550  -14.2642   19.4813 H   0  0  0  0  0  0
  -28.7211  -12.1793   21.4461 H   0  0  0  0  0  0
  -28.4237  -13.8541   21.8085 H   0  0  0  0  0  0
  -25.2810   -9.5791   22.4724 H   0  0  0  0  0  0
  -24.0097   -7.4688   22.7489 H   0  0  0  0  0  0
  -21.0863   -8.8779   19.8954 H   0  0  0  0  0  0
  -22.3704  -10.9705   19.6137 H   0  0  0  0  0  0
  -21.1981   -7.6179   23.9751 H   0  0  0  0  0  0
  -21.1476   -6.0518   25.9083 H   0  0  0  0  0  0
  -22.0597   -2.7633   23.2800 H   0  0  0  0  0  0
  -22.4071  -11.9997   22.4838 H   0  0  0  0  0  0
  -21.1057  -13.1337   22.2444 H   0  0  0  0  0  0
  -24.6683  -15.8515   20.5197 H   0  0  0  0  0  0
  -26.2983  -15.6259   20.1129 H   0  0  0  0  0  0
  -26.7263  -32.5381   23.1080 H   0  0  0  0  0  0
  -25.0096  -33.9593   25.0406 H   0  0  0  0  0  0
  -22.7353  -31.3094   21.3998 H   0  0  0  0  0  0
  -23.3749  -35.9626   23.3300 H   0  0  0  0  0  0
  -24.3600  -36.8912   22.2070 H   0  0  0  0  0  0
  -23.7222  -37.6501   23.6649 H   0  0  0  0  0  0
  -26.1273  -31.5155   20.6111 H   0  0  0  0  0  0
  -26.8611  -30.8101   22.0181 H   0  0  0  0  0  0
  -28.0991  -28.8689   21.2767 H   0  0  0  0  0  0
  -25.9337  -25.9730   18.8955 H   0  0  0  0  0  0
  -23.9851  -27.3611   18.9348 H   0  0  0  0  0  0
  -23.7690  -30.5932   19.4014 H   0  0  0  0  0  0
  -22.7672  -29.2501   19.8568 H   0  0  0  0  0  0
  -25.1276  -36.1939   25.0838 H   0  0  0  0  0  0
  -21.0010  -28.3293   24.1372 H   0  0  0  0  0  0
  -20.5652  -26.2355   23.3612 H   0  0  0  0  0  0
  -21.6647  -26.7420   22.1224 H   0  0  0  0  0  0
  -19.6902  -25.6284   21.1246 H   0  0  0  0  0  0
  -19.6661  -27.3176   20.6712 H   0  0  0  0  0  0
  -17.4204  -26.6696   21.4004 H   0  0  0  0  0  0
  -18.0332  -26.0053   22.9000 H   0  0  0  0  0  0
  -19.7947  -30.7271   24.2270 H   0  0  0  0  0  0
  -17.5016  -31.6262   24.5160 H   0  0  0  0  0  0
  -15.5353  -30.2962   23.7627 H   0  0  0  0  0  0
  -15.8703  -28.0777   22.7073 H   0  0  0  0  0  0
  -24.5905  -30.7031   25.7810 H   0  0  0  0  0  0
  -24.8842  -32.2865   26.4865 H   0  0  0  0  0  0
  -25.8021  -30.8934   27.0278 H   0  0  0  0  0  0
  -26.2942  -29.6733   24.1273 H   0  0  0  0  0  0
  -27.4008  -29.7257   25.4797 H   0  0  0  0  0  0
  -27.8838  -30.4263   23.9552 H   0  0  0  0  0  0
  -27.2709  -33.3625   26.2062 H   0  0  0  0  0  0
  -28.3888  -32.6804   25.0343 H   0  0  0  0  0  0
  -28.0735  -31.8447   26.5444 H   0  0  0  0  0  0
  -28.2606  -38.0092   24.7518 H   0  0  0  0  0  0
  -28.1064  -36.2629   24.6279 H   0  0  0  0  0  0
  -27.2326  -37.1460   25.8884 H   0  0  0  0  0  0
  -20.9446  -29.8834   21.6876 H   0  0  0  0  0  0
  -26.0183  -38.2883   24.1348 H   0  0  0  0  0  0
  -29.1514  -20.4557   17.9733 H   0  0  0  0  0  0
  -29.6518  -16.2146   18.2467 H   0  0  0  0  0  0
  -30.3920  -23.9809   21.9292 H   0  0  0  0  0  0
  -29.7620  -18.6311   21.8460 H   0  0  0  0  0  0
  -29.1064  -19.1722   16.0212 H   0  0  0  0  0  0
  -28.4005  -17.5726   16.2434 H   0  0  0  0  0  0
  -30.1521  -17.7420   16.0603 H   0  0  0  0  0  0
  -27.1368  -24.8175   21.2920 H   0  0  0  0  0  0
  -27.1563  -24.5457   19.5782 H   0  0  0  0  0  0
  -29.1340  -15.7012   21.4860 H   0  0  0  0  0  0
  -31.7989  -21.9426   22.2916 H   0  0  0  0  0  0
  -26.8245  -22.6490   19.1082 H   0  0  0  0  0  0
  1 25  1  0  0  0
  1 30  2  0  0  0
  1 84  1  0  0  0
  2  3  1  0  0  0
  2 25  1  0  0  0
  2 87  1  0  0  0
  2 88  1  0  0  0
  3  4  1  0  0  0
  3 89  1  0  0  0
  3 90  1  0  0  0
  4  5  1  0  0  0
  4 91  1  0  0  0
  4 92  1  0  0  0
  5  6  1  0  0  0
  5 26  1  0  0  0
  5 93  1  0  0  0
  6 25  1  0  0  0
  6 94  1  0  0  0
  6 95  1  0  0  0
  7  8  2  0  0  0
  7 26  1  0  0  0
  7 29  1  0  0  0
  8  9  1  0  0  0
  8 22  1  0  0  0
  9 10  1  0  0  0
  9 27  2  0  0  0
 10 11  2  0  0  0
 10 15  1  0  0  0
 11 12  1  0  0  0
 11 96  1  0  0  0
 12 13  2  0  0  0
 12 97  1  0  0  0
 13 14  1  0  0  0
 13 31  1  0  0  0
 14 15  2  0  0  0
 14 98  1  0  0  0
 15 99  1  0  0  0
 16 17  2  0  0  0
 16 21  1  0  0  0
 16 31  1  0  0  0
 17 18  1  0  0  0
 17100  1  0  0  0
 18 19  2  0  0  0
 18101  1  0  0  0
 19 20  1  0  0  0
 19 24  1  0  0  0
 20 21  2  0  0  0
 20102  1  0  0  0
 21 23  1  0  0  0
 22 28  1  0  0  0
 22 32  2  0  0  0
 26 27  1  0  0  0
 28103  1  0  0  0
 28104  1  0  0  0
 29105  1  0  0  0
 29106  1  0  0  0
 33 34  1  0  0  0
 33 66  1  0  0  0
 33 70  2  0  0  0
 34 36  1  0  0  0
 34 59  1  0  0  0
 34107  1  0  0  0
 35 44  2  0  0  0
 35 45  1  0  0  0
 35 68  1  0  0  0
 36 56  1  0  0  0
 36108  1  0  0  0
 37 39  1  0  0  0
 37 47  1  0  0  0
 37 66  1  0  0  0
 37109  1  0  0  0
 38 43  2  0  0  0
 38 46  1  0  0  0
 38 47  1  0  0  0
 39 64  1  0  0  0
 39 67  2  0  0  0
 40 52  1  0  0  0
 40 53  2  0  0  0
 40 58  1  0  0  0
 41110  1  0  0  0
 41111  1  0  0  0
 41112  1  0  0  0
 41 48  1  0  0  0
 42 43  1  0  0  0
 42 66  1  0  0  0
 42113  1  0  0  0
 42114  1  0  0  0
 43 44  1  0  0  0
 44115  1  0  0  0
 45 46  2  0  0  0
 45116  1  0  0  0
 46117  1  0  0  0
 47118  1  0  0  0
 47119  1  0  0  0
 48 56  1  0  0  0
 48 65  1  0  0  0
 48120  1  0  0  0
 49 50  1  0  0  0
 49 53  1  0  0  0
 49 64  1  0  0  0
 49121  1  0  0  0
 50 51  1  0  0  0
 50122  1  0  0  0
 50123  1  0  0  0
 51 52  1  0  0  0
 51124  1  0  0  0
 51125  1  0  0  0
 52126  1  0  0  0
 52127  1  0  0  0
 53 54  1  0  0  0
 54 55  2  0  0  0
 54128  1  0  0  0
 55 57  1  0  0  0
 55129  1  0  0  0
 56 69  2  0  0  0
 57 58  2  0  0  0
 57130  1  0  0  0
 58131  1  0  0  0
 59 60  1  0  0  0
 59 61  1  0  0  0
 59 62  1  0  0  0
 60132  1  0  0  0
 60133  1  0  0  0
 60134  1  0  0  0
 61135  1  0  0  0
 61136  1  0  0  0
 61137  1  0  0  0
 62138  1  0  0  0
 62139  1  0  0  0
 62140  1  0  0  0
 63 65  1  0  0  0
 63141  1  0  0  0
 63142  1  0  0  0
 63143  1  0  0  0
 64144  1  0  0  0
 65145  1  0  0  0
 68 82  1  0  0  0
 71 75  2  0  0  0
 71 77  1  0  0  0
 71146  1  0  0  0
 72 75  1  0  0  0
 72 78  2  0  0  0
 72147  1  0  0  0
 73 76  1  0  0  0
 73 79  2  0  0  0
 73148  1  0  0  0
 74 77  2  0  0  0
 74 78  1  0  0  0
 74149  1  0  0  0
 75 81  1  0  0  0
 76 80  2  0  0  0
 76 82  1  0  0  0
 77 83  1  0  0  0
 78 84  1  0  0  0
 79 83  1  0  0  0
 79 85  1  0  0  0
 80 83  1  0  0  0
 80 86  1  0  0  0
 81150  1  0  0  0
 81151  1  0  0  0
 81152  1  0  0  0
 82153  1  0  0  0
 82154  1  0  0  0
 84155  1  0  0  0
 85156  1  0  0  0
 86157  1  0  0  0
M  ISO  4   1 100  68 101  82 101  84 100
M  END
> <chiral flag>
0

> <version>
0

> <s_m_source_file>
/data/baiqing/PycharmProjects/Reinvent-master-3.2/result/LINK_invent/BTK/process_docking_weight1_custom_product_contain_oxygen_bond_distance_aromatic_linkinvent_7_9_3/rearranged_h_0058.sdf

> <i_m_source_file_index>
33

> <r_mmod_Potential_Energy-OPLS-2005>
288.713317871094

> <r_mmod_Stretch_Energy-OPLS-2005>
139.545806884766

> <r_mmod_Bend_Energy-OPLS-2005>
183.423980712891

> <r_mmod_Torsional_Energy-OPLS-2005>
269.808654785156

> <r_mmod_Improper_Torsional_Energy-OPLS-2005>
5.77381992340088

> <r_mmod_Van_der_Waal_Energy-OPLS-2005>
137.101638793945

> <r_mmod_Electrostatic_Energy-OPLS-2005>
-314.6943359375

> <r_mmod_Solvation_Energy-OPLS-2005>
-238.677764892578

> <b_mmod_Minimization_Converged-OPLS-2005>
0

> <r_mmod_RMS_Derivative-OPLS-2005>
4.75653791427612

$$$$
33
                    3D
 Structure written by MMmdl.
159168  0  0  1  0            999 V2000
  -30.7716  -14.4213   20.7077 C   0  0  0  0  0  0
  -30.4462  -12.3172   19.4357 C   0  0  0  0  0  0
  -29.5098  -12.5000   18.2247 C   0  0  0  0  0  0
  -28.0371  -12.3299   18.6413 C   0  0  0  0  0  0
  -27.6766  -13.1890   19.8769 C   0  0  2  0  0  0
  -28.7112  -12.9969   21.0111 C   0  0  0  0  0  0
  -25.2697  -13.8103   20.5596 C   0  0  0  0  0  0
  -24.1933  -13.0451   20.9153 C   0  0  0  0  0  0
  -24.6441  -11.6888   20.8751 C   0  0  0  0  0  0
  -23.9076  -10.4300   21.0434 C   0  0  0  0  0  0
  -24.3622   -9.4186   21.9183 C   0  0  0  0  0  0
  -23.6289   -8.2215   22.0747 C   0  0  0  0  0  0
  -22.4254   -8.0287   21.3550 C   0  0  0  0  0  0
  -21.9922   -9.0277   20.4644 C   0  0  0  0  0  0
  -22.7271  -10.2144   20.3067 C   0  0  0  0  0  0
  -21.6828   -6.0742   22.5286 C   0  0  0  0  0  0
  -21.4010   -6.5629   23.8234 C   0  0  0  0  0  0
  -21.3654   -5.6770   24.9185 C   0  0  0  0  0  0
  -21.6047   -4.3040   24.7224 C   0  0  0  0  0  0
  -21.8818   -3.8140   23.4336 C   0  0  0  0  0  0
  -21.9190   -4.6975   22.3397 C   0  0  0  0  0  0
  -22.7963  -13.5281   21.1818 C   0  0  0  0  0  0
  -22.1661   -4.2163   21.0978 F   0  0  0  0  0  0
  -21.5627   -3.4526   25.7728 F   0  0  0  0  0  0
  -30.0650  -13.2766   20.4896 N   0  0  0  0  0  0
  -26.3129  -12.9243   20.3375 N   0  0  0  0  0  0
  -25.9377  -11.6423   20.5803 N   0  0  0  0  0  0
  -22.0568  -12.8308   22.0364 N   0  0  0  0  0  0
  -25.4533  -15.1775   20.3788 N   0  0  0  0  0  0
  -31.7630  -14.7370   20.0419 O   0  0  0  0  0  0
  -21.6589   -6.8904   21.4256 O   0  0  0  0  0  0
  -22.3657  -14.5590   20.6640 O   0  0  0  0  0  0
  -24.6176  -31.8658   23.2061 C   0  0  0  0  0  0
  -25.9051  -32.4815   23.8351 C   0  0  1  0  0  0
  -27.2348  -27.4062   20.1293 C   0  0  0  0  0  0
  -25.5924  -33.8615   24.2308 N   0  0  0  0  0  0
  -23.4050  -30.4874   21.5433 C   0  0  2  0  0  0
  -24.8589  -28.9450   20.1169 C   0  0  0  0  0  0
  -22.7400  -29.4629   22.4940 C   0  0  0  0  0  0
  -18.0282  -28.1359   22.8499 C   0  0  0  0  0  0
  -24.1492  -36.7319   23.2616 C   0  0  0  0  0  0
  -25.9313  -30.8377   21.3464 C   0  0  0  0  0  0
  -26.0194  -29.4608   20.7094 C   0  0  0  0  0  0
  -27.2135  -28.6991   20.7086 C   0  0  0  0  0  0
  -26.0639  -26.9125   19.5204 C   0  0  0  0  0  0
  -24.8749  -27.6702   19.5226 C   0  0  0  0  0  0
  -23.6205  -29.8123   20.1609 C   0  0  0  0  0  0
  -25.4109  -36.3100   24.0320 C   0  0  1  0  0  0
  -20.5869  -28.3645   23.1330 C   0  0  2  0  0  0
  -20.6766  -26.9369   22.5440 C   0  0  0  0  0  0
  -19.5759  -26.6386   21.5211 C   0  0  0  0  0  0
  -18.1935  -26.7923   22.1607 C   0  0  0  0  0  0
  -19.1531  -28.8815   23.2927 C   0  0  0  0  0  0
  -18.9456  -30.1421   23.8946 C   0  0  0  0  0  0
  -17.6456  -30.6575   24.0567 C   0  0  0  0  0  0
  -25.9043  -34.9471   23.5102 C   0  0  0  0  0  0
  -16.5345  -29.9087   23.6308 C   0  0  0  0  0  0
  -16.7271  -28.6490   23.0348 C   0  0  0  0  0  0
  -26.4489  -31.6560   25.0664 C   0  0  0  0  0  0
  -25.3756  -31.3695   26.1414 C   0  0  0  0  0  0
  -27.0249  -30.3000   24.5941 C   0  0  0  0  0  0
  -27.6101  -32.4215   25.7431 C   0  0  0  0  0  0
  -27.5571  -37.1812   24.8464 C   0  0  0  0  0  0
  -21.4112  -29.3022   22.3708 N   0  0  0  0  0  0
  -26.4292  -37.3787   23.9394 N   0  0  0  0  0  0
  -24.6714  -31.0769   22.0945 N   0  0  0  0  0  0
  -23.4162  -28.8132   23.2964 O   0  0  0  0  0  0
  -28.3788  -26.6293   20.1383 O   0  0  0  0  0  0
  -26.5594  -34.8920   22.4654 O   0  0  0  0  0  0
  -23.5370  -32.1410   23.7457 O   0  0  0  0  0  0
  -30.9189  -18.8209   22.4422 C   0  0  0  0  0  0
  -28.7874  -18.4721   21.3299 C   0  0  0  0  0  0
  -31.1934  -17.4281   22.3955 C   0  0  0  0  0  0
  -29.7230  -19.3558   21.9047 C   0  0  0  0  0  0
  -30.2463  -16.5496   21.7991 C   0  0  0  0  0  0
  -29.0431  -17.0864   21.2858 C   0  0  0  0  0  0
  -28.6390  -22.7968   22.5319 C   0  0  0  0  0  0
  -28.9538  -22.9154   21.2360 C   0  0  0  0  0  0
  -28.9425  -21.4490   22.9856 C   0  0  0  0  0  0
  -29.4851  -21.5959   20.7251 C   0  0  0  0  0  0
  -32.4997  -16.9231   22.9974 C   0  0  0  0  0  0
  -28.8530  -24.1530   20.3201 C   0  0  0  0  0  0
  -28.3321  -25.4581   20.9884 C   0  0  0  0  0  0
  -29.4487  -20.7629   21.9307 N   0  0  0  0  0  0
  -30.3965  -15.1303   21.7838 N   0  0  0  0  0  0
  -28.7791  -21.0043   24.1262 O   0  0  0  0  0  0
  -28.1180  -16.2559   20.7502 F   0  0  0  0  0  0
  -31.4904  -12.4243   19.1336 H   0  0  0  0  0  0
  -30.3661  -11.3032   19.8336 H   0  0  0  0  0  0
  -29.7598  -11.7716   17.4532 H   0  0  0  0  0  0
  -29.6633  -13.4852   17.7828 H   0  0  0  0  0  0
  -27.8711  -11.2741   18.8656 H   0  0  0  0  0  0
  -27.3762  -12.5697   17.8077 H   0  0  0  0  0  0
  -27.7177  -14.2257   19.5453 H   0  0  0  0  0  0
  -28.6808  -11.9737   21.3831 H   0  0  0  0  0  0
  -28.4276  -13.6205   21.8604 H   0  0  0  0  0  0
  -25.2787   -9.5595   22.4754 H   0  0  0  0  0  0
  -23.9953   -7.4578   22.7447 H   0  0  0  0  0  0
  -21.0846   -8.8836   19.8960 H   0  0  0  0  0  0
  -22.3758  -10.9688   19.6150 H   0  0  0  0  0  0
  -21.2001   -7.6134   23.9764 H   0  0  0  0  0  0
  -21.1478   -6.0481   25.9098 H   0  0  0  0  0  0
  -22.0605   -2.7604   23.2820 H   0  0  0  0  0  0
  -22.4168  -11.9994   22.4814 H   0  0  0  0  0  0
  -21.1221  -13.1450   22.2610 H   0  0  0  0  0  0
  -24.6973  -15.8520   20.3811 H   0  0  0  0  0  0
  -26.3559  -15.5811   20.1506 H   0  0  0  0  0  0
  -26.7099  -32.5544   23.1102 H   0  0  0  0  0  0
  -25.0130  -33.9778   25.0490 H   0  0  0  0  0  0
  -22.6935  -31.3032   21.3922 H   0  0  0  0  0  0
  -23.3738  -35.9666   23.3310 H   0  0  0  0  0  0
  -24.3573  -36.8922   22.2028 H   0  0  0  0  0  0
  -23.7283  -37.6552   23.6602 H   0  0  0  0  0  0
  -26.0087  -31.5873   20.5580 H   0  0  0  0  0  0
  -26.8362  -30.9289   21.9349 H   0  0  0  0  0  0
  -28.1094  -29.0907   21.1739 H   0  0  0  0  0  0
  -26.0682  -25.9357   19.0570 H   0  0  0  0  0  0
  -23.9780  -27.2603   19.0818 H   0  0  0  0  0  0
  -23.7267  -30.5804   19.3944 H   0  0  0  0  0  0
  -22.7501  -29.2260   19.8677 H   0  0  0  0  0  0
  -25.1269  -36.1965   25.0814 H   0  0  0  0  0  0
  -20.9994  -28.3229   24.1434 H   0  0  0  0  0  0
  -20.5647  -26.2233   23.3616 H   0  0  0  0  0  0
  -21.6647  -26.7418   22.1233 H   0  0  0  0  0  0
  -19.6923  -25.6312   21.1211 H   0  0  0  0  0  0
  -19.6735  -27.3232   20.6766 H   0  0  0  0  0  0
  -17.4215  -26.6710   21.3988 H   0  0  0  0  0  0
  -18.0310  -26.0050   22.8980 H   0  0  0  0  0  0
  -19.7926  -30.7226   24.2349 H   0  0  0  0  0  0
  -17.5008  -31.6260   24.5152 H   0  0  0  0  0  0
  -15.5350  -30.2998   23.7602 H   0  0  0  0  0  0
  -15.8665  -28.0821   22.7037 H   0  0  0  0  0  0
  -24.5997  -30.6934   25.7796 H   0  0  0  0  0  0
  -24.8858  -32.2862   26.4723 H   0  0  0  0  0  0
  -25.8160  -30.9009   27.0235 H   0  0  0  0  0  0
  -26.2769  -29.6854   24.0926 H   0  0  0  0  0  0
  -27.3977  -29.7124   25.4345 H   0  0  0  0  0  0
  -27.8599  -30.4317   23.9053 H   0  0  0  0  0  0
  -27.2796  -33.3573   26.1942 H   0  0  0  0  0  0
  -28.3987  -32.6669   25.0301 H   0  0  0  0  0  0
  -28.0637  -31.8309   26.5409 H   0  0  0  0  0  0
  -28.2599  -38.0096   24.7489 H   0  0  0  0  0  0
  -28.1043  -36.2636   24.6296 H   0  0  0  0  0  0
  -27.2266  -37.1488   25.8858 H   0  0  0  0  0  0
  -20.9218  -29.8794   21.7006 H   0  0  0  0  0  0
  -26.0177  -38.2844   24.1438 H   0  0  0  0  0  0
  -31.6317  -19.4865   22.9097 H   0  0  0  0  0  0
  -27.8482  -18.8435   20.9484 H   0  0  0  0  0  0
  -28.2218  -23.5741   23.1542 H   0  0  0  0  0  0
  -30.5049  -21.6987   20.3481 H   0  0  0  0  0  0
  -28.8363  -21.1875   19.9500 H   0  0  0  0  0  0
  -32.6961  -17.4092   23.9538 H   0  0  0  0  0  0
  -33.3338  -17.1586   22.3344 H   0  0  0  0  0  0
  -32.5022  -15.8461   23.1711 H   0  0  0  0  0  0
  -28.2211  -23.9013   19.4675 H   0  0  0  0  0  0
  -29.8471  -24.3414   19.9137 H   0  0  0  0  0  0
  -28.9631  -25.6708   21.8506 H   0  0  0  0  0  0
  -27.3294  -25.2800   21.3808 H   0  0  0  0  0  0
  -29.6826  -14.6414   22.2999 H   0  0  0  0  0  0
  1 25  1  0  0  0
  1 30  2  0  0  0
  1 85  1  0  0  0
  2  3  1  0  0  0
  2 25  1  0  0  0
  2 88  1  0  0  0
  2 89  1  0  0  0
  3  4  1  0  0  0
  3 90  1  0  0  0
  3 91  1  0  0  0
  4  5  1  0  0  0
  4 92  1  0  0  0
  4 93  1  0  0  0
  5  6  1  0  0  0
  5 26  1  0  0  0
  5 94  1  0  0  0
  6 25  1  0  0  0
  6 95  1  0  0  0
  6 96  1  0  0  0
  7  8  2  0  0  0
  7 26  1  0  0  0
  7 29  1  0  0  0
  8  9  1  0  0  0
  8 22  1  0  0  0
  9 10  1  0  0  0
  9 27  2  0  0  0
 10 11  2  0  0  0
 10 15  1  0  0  0
 11 12  1  0  0  0
 11 97  1  0  0  0
 12 13  2  0  0  0
 12 98  1  0  0  0
 13 14  1  0  0  0
 13 31  1  0  0  0
 14 15  2  0  0  0
 14 99  1  0  0  0
 15100  1  0  0  0
 16 17  2  0  0  0
 16 21  1  0  0  0
 16 31  1  0  0  0
 17 18  1  0  0  0
 17101  1  0  0  0
 18 19  2  0  0  0
 18102  1  0  0  0
 19 20  1  0  0  0
 19 24  1  0  0  0
 20 21  2  0  0  0
 20103  1  0  0  0
 21 23  1  0  0  0
 22 28  1  0  0  0
 22 32  2  0  0  0
 26 27  1  0  0  0
 28104  1  0  0  0
 28105  1  0  0  0
 29106  1  0  0  0
 29107  1  0  0  0
 33 34  1  0  0  0
 33 66  1  0  0  0
 33 70  2  0  0  0
 34 36  1  0  0  0
 34 59  1  0  0  0
 34108  1  0  0  0
 35 44  2  0  0  0
 35 45  1  0  0  0
 35 68  1  0  0  0
 36 56  1  0  0  0
 36109  1  0  0  0
 37 39  1  0  0  0
 37 47  1  0  0  0
 37 66  1  0  0  0
 37110  1  0  0  0
 38 43  2  0  0  0
 38 46  1  0  0  0
 38 47  1  0  0  0
 39 64  1  0  0  0
 39 67  2  0  0  0
 40 52  1  0  0  0
 40 53  2  0  0  0
 40 58  1  0  0  0
 41111  1  0  0  0
 41112  1  0  0  0
 41113  1  0  0  0
 41 48  1  0  0  0
 42 43  1  0  0  0
 42 66  1  0  0  0
 42114  1  0  0  0
 42115  1  0  0  0
 43 44  1  0  0  0
 44116  1  0  0  0
 45 46  2  0  0  0
 45117  1  0  0  0
 46118  1  0  0  0
 47119  1  0  0  0
 47120  1  0  0  0
 48 56  1  0  0  0
 48 65  1  0  0  0
 48121  1  0  0  0
 49 50  1  0  0  0
 49 53  1  0  0  0
 49 64  1  0  0  0
 49122  1  0  0  0
 50 51  1  0  0  0
 50123  1  0  0  0
 50124  1  0  0  0
 51 52  1  0  0  0
 51125  1  0  0  0
 51126  1  0  0  0
 52127  1  0  0  0
 52128  1  0  0  0
 53 54  1  0  0  0
 54 55  2  0  0  0
 54129  1  0  0  0
 55 57  1  0  0  0
 55130  1  0  0  0
 56 69  2  0  0  0
 57 58  2  0  0  0
 57131  1  0  0  0
 58132  1  0  0  0
 59 60  1  0  0  0
 59 61  1  0  0  0
 59 62  1  0  0  0
 60133  1  0  0  0
 60134  1  0  0  0
 60135  1  0  0  0
 61136  1  0  0  0
 61137  1  0  0  0
 61138  1  0  0  0
 62139  1  0  0  0
 62140  1  0  0  0
 62141  1  0  0  0
 63 65  1  0  0  0
 63142  1  0  0  0
 63143  1  0  0  0
 63144  1  0  0  0
 64145  1  0  0  0
 65146  1  0  0  0
 68 83  1  0  0  0
 71 73  2  0  0  0
 71 74  1  0  0  0
 71147  1  0  0  0
 72 74  2  0  0  0
 72 76  1  0  0  0
 72148  1  0  0  0
 73 75  1  0  0  0
 73 81  1  0  0  0
 74 84  1  0  0  0
 75 76  2  0  0  0
 75 85  1  0  0  0
 76 87  1  0  0  0
 77 78  2  0  0  0
 77 79  1  0  0  0
 77149  1  0  0  0
 78 80  1  0  0  0
 78 82  1  0  0  0
 79 84  1  0  0  0
 79 86  2  0  0  0
 80 84  1  0  0  0
 80150  1  0  0  0
 80151  1  0  0  0
 81152  1  0  0  0
 81153  1  0  0  0
 81154  1  0  0  0
 82 83  1  0  0  0
 82155  1  0  0  0
 82156  1  0  0  0
 83157  1  0  0  0
 83158  1  0  0  0
 85159  1  0  0  0
M  ISO  4   1 100  68 101  83 101  85 100
M  END
> <chiral flag>
0

> <version>
0

> <s_m_source_file>
/data/baiqing/PycharmProjects/Reinvent-master-3.2/result/LINK_invent/BTK/process_docking_weight1_custom_product_contain_oxygen_bond_distance_aromatic_linkinvent_7_9_3/rearranged_h_0058.sdf

> <i_m_source_file_index>
34

> <r_mmod_Potential_Energy-OPLS-2005>
53.7260856628418

> <r_mmod_Stretch_Energy-OPLS-2005>
43.6200561523438

> <r_mmod_Bend_Energy-OPLS-2005>
142.968704223633

> <r_mmod_Torsional_Energy-OPLS-2005>
323.943634033203

> <r_mmod_Improper_Torsional_Energy-OPLS-2005>
6.55429458618164

> <r_mmod_Van_der_Waal_Energy-OPLS-2005>
133.97492980957

> <r_mmod_Electrostatic_Energy-OPLS-2005>
-401.655731201172

> <r_mmod_Solvation_Energy-OPLS-2005>
-210.16520690918

> <b_mmod_Minimization_Converged-OPLS-2005>
0

> <r_mmod_RMS_Derivative-OPLS-2005>
4.86526155471802

$$$$
34
                    3D
 Structure written by MMmdl.
169179  0  0  1  0            999 V2000
  -30.5614  -14.7251   20.2865 C   0  0  0  0  0  0
  -30.4647  -12.3689   19.4990 C   0  0  0  0  0  0
  -29.5279  -12.2324   18.2738 C   0  0  0  0  0  0
  -28.0250  -12.2461   18.6520 C   0  0  0  0  0  0
  -27.6329  -13.1505   19.8572 C   0  0  2  0  0  0
  -28.6973  -13.1553   20.9693 C   0  0  0  0  0  0
  -25.2584  -13.7901   20.5788 C   0  0  0  0  0  0
  -24.1790  -13.0286   20.9334 C   0  0  0  0  0  0
  -24.6279  -11.6770   20.8884 C   0  0  0  0  0  0
  -23.8943  -10.4211   21.0558 C   0  0  0  0  0  0
  -24.3548   -9.4087   21.9288 C   0  0  0  0  0  0
  -23.6256   -8.2095   22.0765 C   0  0  0  0  0  0
  -22.4234   -8.0210   21.3532 C   0  0  0  0  0  0
  -21.9873   -9.0188   20.4626 C   0  0  0  0  0  0
  -22.7158  -10.2106   20.3122 C   0  0  0  0  0  0
  -21.6806   -6.0732   22.5291 C   0  0  0  0  0  0
  -21.3983   -6.5656   23.8217 C   0  0  0  0  0  0
  -21.3650   -5.6821   24.9183 C   0  0  0  0  0  0
  -21.6020   -4.3087   24.7255 C   0  0  0  0  0  0
  -21.8789   -3.8168   23.4383 C   0  0  0  0  0  0
  -21.9171   -4.6966   22.3427 C   0  0  0  0  0  0
  -22.7879  -13.5253   21.1922 C   0  0  0  0  0  0
  -22.1671   -4.2163   21.1011 F   0  0  0  0  0  0
  -21.5613   -3.4574   25.7767 F   0  0  0  0  0  0
  -29.9801  -13.4809   20.3373 N   0  0  0  0  0  0
  -26.2884  -12.8911   20.3431 N   0  0  0  0  0  0
  -25.9153  -11.6164   20.5974 N   0  0  0  0  0  0
  -22.0453  -12.8297   22.0486 N   0  0  0  0  0  0
  -25.4256  -15.1564   20.4032 N   0  0  0  0  0  0
  -31.7872  -14.8430   20.2040 O   0  0  0  0  0  0
  -21.6539   -6.8866   21.4263 O   0  0  0  0  0  0
  -22.3655  -14.5573   20.6760 O   0  0  0  0  0  0
  -24.6232  -31.8647   23.1968 C   0  0  0  0  0  0
  -25.9134  -32.4708   23.8219 C   0  0  1  0  0  0
  -27.2186  -27.3518   20.1093 C   0  0  0  0  0  0
  -25.6073  -33.8531   24.2172 N   0  0  0  0  0  0
  -23.4033  -30.4810   21.5579 C   0  0  2  0  0  0
  -24.8430  -28.9318   20.1138 C   0  0  0  0  0  0
  -22.7461  -29.4600   22.5162 C   0  0  0  0  0  0
  -18.0217  -28.1254   22.8455 C   0  0  0  0  0  0
  -24.1525  -36.7299   23.2609 C   0  0  0  0  0  0
  -25.9336  -30.7946   21.3635 C   0  0  0  0  0  0
  -26.0093  -29.4209   20.7191 C   0  0  0  0  0  0
  -27.2008  -28.6404   20.7055 C   0  0  0  0  0  0
  -26.0292  -26.8858   19.5084 C   0  0  0  0  0  0
  -24.8532  -27.6712   19.4957 C   0  0  0  0  0  0
  -23.5985  -29.8018   20.1744 C   0  0  0  0  0  0
  -25.4142  -36.3008   24.0258 C   0  0  1  0  0  0
  -20.5854  -28.3532   23.1304 C   0  0  2  0  0  0
  -20.6635  -26.9303   22.5375 C   0  0  0  0  0  0
  -19.5644  -26.6433   21.5127 C   0  0  0  0  0  0
  -18.1875  -26.7754   22.1705 C   0  0  0  0  0  0
  -19.1513  -28.8773   23.2783 C   0  0  0  0  0  0
  -18.9434  -30.1451   23.8695 C   0  0  0  0  0  0
  -17.6420  -30.6545   24.0492 C   0  0  0  0  0  0
  -25.9107  -34.9397   23.4974 C   0  0  0  0  0  0
  -16.5279  -29.9005   23.6335 C   0  0  0  0  0  0
  -16.7217  -28.6426   23.0328 C   0  0  0  0  0  0
  -26.4521  -31.6447   25.0572 C   0  0  0  0  0  0
  -25.3740  -31.3654   26.1295 C   0  0  0  0  0  0
  -27.0284  -30.2812   24.5966 C   0  0  0  0  0  0
  -27.5993  -32.4221   25.7423 C   0  0  0  0  0  0
  -27.5556  -37.1772   24.8464 C   0  0  0  0  0  0
  -21.4233  -29.2835   22.3757 N   0  0  0  0  0  0
  -26.4282  -37.3739   23.9389 N   0  0  0  0  0  0
  -24.6702  -31.0639   22.0981 N   0  0  0  0  0  0
  -23.4229  -28.8302   23.3322 O   0  0  0  0  0  0
  -28.3803  -26.6078   19.9369 O   0  0  0  0  0  0
  -26.5709  -34.8929   22.4552 O   0  0  0  0  0  0
  -23.5459  -32.1494   23.7395 O   0  0  0  0  0  0
  -27.2227  -18.3620   19.9821 C   0  0  0  0  0  0
  -27.7360  -19.3359   20.8389 C   0  0  0  0  0  0
  -29.7688  -18.0208   21.1662 C   0  0  0  0  0  0
  -28.0481  -17.3042   19.5884 C   0  0  0  0  0  0
  -29.0644  -19.2820   21.3131 C   0  0  0  0  0  0
  -29.2332  -17.0101   20.2951 C   0  0  0  0  0  0
  -27.8794  -16.4161   18.4364 C   0  0  0  0  0  0
  -29.4152  -23.0133   20.9415 C   0  0  0  0  0  0
  -26.8854  -16.3149   17.4998 C   0  0  0  0  0  0
  -29.1900  -15.6444   18.4218 C   0  0  0  0  0  0
  -27.6763  -23.8471   22.2604 C   0  0  0  0  0  0
  -27.7597  -22.3197   22.3746 C   0  0  0  0  0  0
  -28.3987  -24.1976   20.9662 C   0  0  1  0  0  0
  -26.8577  -15.2668   16.3972 C   0  0  0  0  0  0
  -25.6842  -17.2409   17.3799 C   0  0  0  0  0  0
  -29.6415  -20.6005   21.9335 C   0  0  0  0  0  0
  -28.8696  -25.7109   20.9692 C   0  0  0  0  0  0
  -29.7438  -15.7425   19.7870 N   0  0  0  0  0  0
  -28.9641  -21.9256   21.6334 N   0  0  0  0  0  0
  -30.5053  -23.0876   20.3720 O   0  0  0  0  0  0
  -31.4947  -12.5324   19.1779 H   0  0  0  0  0  0
  -30.4875  -11.4414   20.0702 H   0  0  0  0  0  0
  -29.7337  -11.2703   17.8051 H   0  0  0  0  0  0
  -29.7867  -12.9278   17.4788 H   0  0  0  0  0  0
  -27.7771  -11.2158   18.9030 H   0  0  0  0  0  0
  -27.4178  -12.4986   17.7831 H   0  0  0  0  0  0
  -27.5687  -14.1531   19.4864 H   0  0  0  0  0  0
  -28.7481  -12.1934   21.4845 H   0  0  0  0  0  0
  -28.4570  -13.9008   21.7293 H   0  0  0  0  0  0
  -25.2670   -9.5569   22.4908 H   0  0  0  0  0  0
  -23.9927   -7.4495   22.7504 H   0  0  0  0  0  0
  -21.0773   -8.8695   19.8986 H   0  0  0  0  0  0
  -22.3577  -10.9673   19.6289 H   0  0  0  0  0  0
  -21.1962   -7.6171   23.9739 H   0  0  0  0  0  0
  -21.1530   -6.0559   25.9097 H   0  0  0  0  0  0
  -22.0590   -2.7642   23.2848 H   0  0  0  0  0  0
  -22.3949  -11.9830   22.4679 H   0  0  0  0  0  0
  -21.1149  -13.1462   22.2815 H   0  0  0  0  0  0
  -24.6476  -15.8045   20.4463 H   0  0  0  0  0  0
  -26.2652  -15.5671   20.0062 H   0  0  0  0  0  0
  -26.7227  -32.5299   23.0977 H   0  0  0  0  0  0
  -25.0055  -33.9674   25.0195 H   0  0  0  0  0  0
  -22.6892  -31.3001   21.4336 H   0  0  0  0  0  0
  -23.3715  -35.9714   23.3322 H   0  0  0  0  0  0
  -24.3560  -36.8923   22.2009 H   0  0  0  0  0  0
  -23.7432  -37.6560   23.6660 H   0  0  0  0  0  0
  -26.0440  -31.5461   20.5800 H   0  0  0  0  0  0
  -26.8254  -30.8480   21.9735 H   0  0  0  0  0  0
  -28.1183  -29.0234   21.1321 H   0  0  0  0  0  0
  -26.0140  -25.9164   19.0328 H   0  0  0  0  0  0
  -23.9567  -27.2981   19.0147 H   0  0  0  0  0  0
  -23.6606  -30.5717   19.4029 H   0  0  0  0  0  0
  -22.7185  -29.2125   19.9059 H   0  0  0  0  0  0
  -25.1342  -36.1712   25.0750 H   0  0  0  0  0  0
  -20.9746  -28.2980   24.1468 H   0  0  0  0  0  0
  -20.5385  -26.2182   23.3557 H   0  0  0  0  0  0
  -21.6508  -26.7264   22.1153 H   0  0  0  0  0  0
  -19.6906  -25.6426   21.1052 H   0  0  0  0  0  0
  -19.6618  -27.3448   20.6833 H   0  0  0  0  0  0
  -17.3969  -26.6121   21.4358 H   0  0  0  0  0  0
  -18.0659  -26.0007   22.9273 H   0  0  0  0  0  0
  -19.7976  -30.7312   24.1891 H   0  0  0  0  0  0
  -17.5011  -31.6242   24.5072 H   0  0  0  0  0  0
  -15.5263  -30.2826   23.7761 H   0  0  0  0  0  0
  -15.8636  -28.0702   22.7052 H   0  0  0  0  0  0
  -24.5912  -30.7035   25.7632 H   0  0  0  0  0  0
  -24.8968  -32.2881   26.4567 H   0  0  0  0  0  0
  -25.8011  -30.8895   27.0113 H   0  0  0  0  0  0
  -26.2794  -29.6641   24.1000 H   0  0  0  0  0  0
  -27.4010  -29.6977   25.4393 H   0  0  0  0  0  0
  -27.8692  -30.4084   23.9145 H   0  0  0  0  0  0
  -27.2448  -33.3508   26.1939 H   0  0  0  0  0  0
  -28.3823  -32.6809   25.0271 H   0  0  0  0  0  0
  -28.0626  -31.8377   26.5386 H   0  0  0  0  0  0
  -28.2536  -38.0076   24.7401 H   0  0  0  0  0  0
  -28.1074  -36.2577   24.6377 H   0  0  0  0  0  0
  -27.2292  -37.1558   25.8881 H   0  0  0  0  0  0
  -20.9475  -29.8317   21.6737 H   0  0  0  0  0  0
  -26.0101  -38.2802   24.1339 H   0  0  0  0  0  0
  -26.2330  -18.4925   19.5836 H   0  0  0  0  0  0
  -27.0916  -20.1685   21.0409 H   0  0  0  0  0  0
  -30.7439  -17.8652   21.6175 H   0  0  0  0  0  0
  -29.0372  -14.6614   18.0459 H   0  0  0  0  0  0
  -29.8782  -16.1438   17.7423 H   0  0  0  0  0  0
  -28.1703  -24.3082   23.1207 H   0  0  0  0  0  0
  -26.6522  -24.2176   22.2420 H   0  0  0  0  0  0
  -26.8428  -21.9587   21.9136 H   0  0  0  0  0  0
  -27.7765  -21.9529   23.4036 H   0  0  0  0  0  0
  -27.7350  -24.0244   20.1171 H   0  0  0  0  0  0
  -27.5517  -14.4506   16.5644 H   0  0  0  0  0  0
  -27.0813  -15.7389   15.4386 H   0  0  0  0  0  0
  -25.8667  -14.8145   16.3088 H   0  0  0  0  0  0
  -25.9581  -18.2789   17.5510 H   0  0  0  0  0  0
  -24.8719  -16.9350   18.0375 H   0  0  0  0  0  0
  -25.2806  -17.2052   16.3600 H   0  0  0  0  0  0
  -30.7038  -20.6800   21.6895 H   0  0  0  0  0  0
  -29.6041  -20.4524   23.0110 H   0  0  0  0  0  0
  -29.9581  -25.7471   20.8853 H   0  0  0  0  0  0
  -28.6333  -26.1617   21.9332 H   0  0  0  0  0  0
  1 25  1  0  0  0
  1 30  2  0  0  0
  1 88  1  0  0  0
  2  3  1  0  0  0
  2 25  1  0  0  0
  2 91  1  0  0  0
  2 92  1  0  0  0
  3  4  1  0  0  0
  3 93  1  0  0  0
  3 94  1  0  0  0
  4  5  1  0  0  0
  4 95  1  0  0  0
  4 96  1  0  0  0
  5  6  1  0  0  0
  5 26  1  0  0  0
  5 97  1  0  0  0
  6 25  1  0  0  0
  6 98  1  0  0  0
  6 99  1  0  0  0
  7  8  2  0  0  0
  7 26  1  0  0  0
  7 29  1  0  0  0
  8  9  1  0  0  0
  8 22  1  0  0  0
  9 10  1  0  0  0
  9 27  2  0  0  0
 10 11  2  0  0  0
 10 15  1  0  0  0
 11 12  1  0  0  0
 11100  1  0  0  0
 12 13  2  0  0  0
 12101  1  0  0  0
 13 14  1  0  0  0
 13 31  1  0  0  0
 14 15  2  0  0  0
 14102  1  0  0  0
 15103  1  0  0  0
 16 17  2  0  0  0
 16 21  1  0  0  0
 16 31  1  0  0  0
 17 18  1  0  0  0
 17104  1  0  0  0
 18 19  2  0  0  0
 18105  1  0  0  0
 19 20  1  0  0  0
 19 24  1  0  0  0
 20 21  2  0  0  0
 20106  1  0  0  0
 21 23  1  0  0  0
 22 28  1  0  0  0
 22 32  2  0  0  0
 26 27  1  0  0  0
 28107  1  0  0  0
 28108  1  0  0  0
 29109  1  0  0  0
 29110  1  0  0  0
 33 34  1  0  0  0
 33 66  1  0  0  0
 33 70  2  0  0  0
 34 36  1  0  0  0
 34 59  1  0  0  0
 34111  1  0  0  0
 35 44  2  0  0  0
 35 45  1  0  0  0
 35 68  1  0  0  0
 36 56  1  0  0  0
 36112  1  0  0  0
 37 39  1  0  0  0
 37 47  1  0  0  0
 37 66  1  0  0  0
 37113  1  0  0  0
 38 43  2  0  0  0
 38 46  1  0  0  0
 38 47  1  0  0  0
 39 64  1  0  0  0
 39 67  2  0  0  0
 40 52  1  0  0  0
 40 53  2  0  0  0
 40 58  1  0  0  0
 41114  1  0  0  0
 41115  1  0  0  0
 41116  1  0  0  0
 41 48  1  0  0  0
 42 43  1  0  0  0
 42 66  1  0  0  0
 42117  1  0  0  0
 42118  1  0  0  0
 43 44  1  0  0  0
 44119  1  0  0  0
 45 46  2  0  0  0
 45120  1  0  0  0
 46121  1  0  0  0
 47122  1  0  0  0
 47123  1  0  0  0
 48 56  1  0  0  0
 48 65  1  0  0  0
 48124  1  0  0  0
 49 50  1  0  0  0
 49 53  1  0  0  0
 49 64  1  0  0  0
 49125  1  0  0  0
 50 51  1  0  0  0
 50126  1  0  0  0
 50127  1  0  0  0
 51 52  1  0  0  0
 51128  1  0  0  0
 51129  1  0  0  0
 52130  1  0  0  0
 52131  1  0  0  0
 53 54  1  0  0  0
 54 55  2  0  0  0
 54132  1  0  0  0
 55 57  1  0  0  0
 55133  1  0  0  0
 56 69  2  0  0  0
 57 58  2  0  0  0
 57134  1  0  0  0
 58135  1  0  0  0
 59 60  1  0  0  0
 59 61  1  0  0  0
 59 62  1  0  0  0
 60136  1  0  0  0
 60137  1  0  0  0
 60138  1  0  0  0
 61139  1  0  0  0
 61140  1  0  0  0
 61141  1  0  0  0
 62142  1  0  0  0
 62143  1  0  0  0
 62144  1  0  0  0
 63 65  1  0  0  0
 63145  1  0  0  0
 63146  1  0  0  0
 63147  1  0  0  0
 64148  1  0  0  0
 65149  1  0  0  0
 68 87  1  0  0  0
 71 72  2  0  0  0
 71 74  1  0  0  0
 71150  1  0  0  0
 72 75  1  0  0  0
 72151  1  0  0  0
 73 75  2  0  0  0
 73 76  1  0  0  0
 73152  1  0  0  0
 74 76  2  0  0  0
 74 77  1  0  0  0
 75 86  1  0  0  0
 76 88  1  0  0  0
 77 79  2  0  0  0
 77 80  1  0  0  0
 78 83  1  0  0  0
 78 89  1  0  0  0
 78 90  2  0  0  0
 79 84  1  0  0  0
 79 85  1  0  0  0
 80 88  1  0  0  0
 80153  1  0  0  0
 80154  1  0  0  0
 81 82  1  0  0  0
 81 83  1  0  0  0
 81155  1  0  0  0
 81156  1  0  0  0
 82 89  1  0  0  0
 82157  1  0  0  0
 82158  1  0  0  0
 83 87  1  0  0  0
 83159  1  0  0  0
 84160  1  0  0  0
 84161  1  0  0  0
 84162  1  0  0  0
 85163  1  0  0  0
 85164  1  0  0  0
 85165  1  0  0  0
 86 89  1  0  0  0
 86166  1  0  0  0
 86167  1  0  0  0
 87168  1  0  0  0
 87169  1  0  0  0
M  ISO  4   1 100  68 101  87 101  88 100
M  END
> <chiral flag>
0

> <version>
0

> <s_m_source_file>
/data/baiqing/PycharmProjects/Reinvent-master-3.2/result/LINK_invent/BTK/process_docking_weight1_custom_product_contain_oxygen_bond_distance_aromatic_linkinvent_7_9_3/rearranged_h_0058.sdf

> <i_m_source_file_index>
35

> <r_mmod_Potential_Energy-OPLS-2005>
514.967346191406

> <r_mmod_Stretch_Energy-OPLS-2005>
82.0023727416992

> <r_mmod_Bend_Energy-OPLS-2005>
291.573455810547

> <r_mmod_Torsional_Energy-OPLS-2005>
413.614471435547

> <r_mmod_Improper_Torsional_Energy-OPLS-2005>
20.6835384368896

> <r_mmod_Van_der_Waal_Energy-OPLS-2005>
147.285995483398

> <r_mmod_Electrostatic_Energy-OPLS-2005>
-313.860412597656

> <r_mmod_Solvation_Energy-OPLS-2005>
-208.797561645508

> <b_mmod_Minimization_Converged-OPLS-2005>
0

> <r_mmod_RMS_Derivative-OPLS-2005>
10.951322555542

$$$$
35
                    3D
 Structure written by MMmdl.
157165  0  0  1  0            999 V2000
  -30.6461  -14.5561   20.5834 C   0  0  0  0  0  0
  -30.4466  -12.3612   19.4373 C   0  0  0  0  0  0
  -29.5096  -12.5082   18.2178 C   0  0  0  0  0  0
  -28.0309  -12.3461   18.6290 C   0  0  0  0  0  0
  -27.6608  -13.2023   19.8693 C   0  0  2  0  0  0
  -28.6999  -13.0052   20.9950 C   0  0  0  0  0  0
  -25.2597  -13.8153   20.5717 C   0  0  0  0  0  0
  -24.1839  -13.0438   20.9186 C   0  0  0  0  0  0
  -24.6369  -11.6901   20.8712 C   0  0  0  0  0  0
  -23.9026  -10.4297   21.0389 C   0  0  0  0  0  0
  -24.3589   -9.4223   21.9173 C   0  0  0  0  0  0
  -23.6285   -8.2242   22.0747 C   0  0  0  0  0  0
  -22.4269   -8.0268   21.3544 C   0  0  0  0  0  0
  -21.9883   -9.0240   20.4650 C   0  0  0  0  0  0
  -22.7191  -10.2132   20.3051 C   0  0  0  0  0  0
  -21.6857   -6.0730   22.5280 C   0  0  0  0  0  0
  -21.4019   -6.5634   23.8208 C   0  0  0  0  0  0
  -21.3647   -5.6787   24.9171 C   0  0  0  0  0  0
  -21.6041   -4.3049   24.7216 C   0  0  0  0  0  0
  -21.8819   -3.8144   23.4336 C   0  0  0  0  0  0
  -21.9193   -4.6957   22.3393 C   0  0  0  0  0  0
  -22.7861  -13.5261   21.1845 C   0  0  0  0  0  0
  -22.1671   -4.2144   21.0970 F   0  0  0  0  0  0
  -21.5623   -3.4529   25.7728 F   0  0  0  0  0  0
  -30.0261  -13.3462   20.4482 N   0  0  0  0  0  0
  -26.3013  -12.9307   20.3332 N   0  0  0  0  0  0
  -25.9293  -11.6468   20.5718 N   0  0  0  0  0  0
  -22.0473  -12.8285   22.0410 N   0  0  0  0  0  0
  -25.4369  -15.1880   20.4222 N   0  0  0  0  0  0
  -31.7778  -14.7735   20.1374 O   0  0  0  0  0  0
  -21.6632   -6.8863   21.4241 O   0  0  0  0  0  0
  -22.3548  -14.5536   20.6638 O   0  0  0  0  0  0
  -24.6170  -31.8628   23.2054 C   0  0  0  0  0  0
  -25.9041  -32.4788   23.8377 C   0  0  1  0  0  0
  -27.2375  -27.3909   20.1220 C   0  0  0  0  0  0
  -25.5881  -33.8588   24.2312 N   0  0  0  0  0  0
  -23.4084  -30.4845   21.5458 C   0  0  2  0  0  0
  -24.8591  -28.9411   20.1170 C   0  0  0  0  0  0
  -22.7426  -29.4622   22.4957 C   0  0  0  0  0  0
  -18.0271  -28.1381   22.8491 C   0  0  0  0  0  0
  -24.1489  -36.7312   23.2648 C   0  0  0  0  0  0
  -25.9401  -30.8195   21.3615 C   0  0  0  0  0  0
  -26.0208  -29.4487   20.7137 C   0  0  0  0  0  0
  -27.2158  -28.6851   20.7049 C   0  0  0  0  0  0
  -26.0588  -26.9041   19.5219 C   0  0  0  0  0  0
  -24.8755  -27.6702   19.5147 C   0  0  0  0  0  0
  -23.6217  -29.8124   20.1629 C   0  0  0  0  0  0
  -25.4104  -36.3092   24.0351 C   0  0  1  0  0  0
  -20.5860  -28.3667   23.1317 C   0  0  2  0  0  0
  -20.6752  -26.9392   22.5436 C   0  0  0  0  0  0
  -19.5754  -26.6376   21.5213 C   0  0  0  0  0  0
  -18.1920  -26.7936   22.1599 C   0  0  0  0  0  0
  -19.1518  -28.8841   23.2902 C   0  0  0  0  0  0
  -18.9446  -30.1440   23.8919 C   0  0  0  0  0  0
  -17.6449  -30.6582   24.0565 C   0  0  0  0  0  0
  -25.9025  -34.9455   23.5129 C   0  0  0  0  0  0
  -16.5341  -29.9088   23.6315 C   0  0  0  0  0  0
  -16.7259  -28.6502   23.0344 C   0  0  0  0  0  0
  -26.4474  -31.6587   25.0717 C   0  0  0  0  0  0
  -25.3754  -31.3713   26.1493 C   0  0  0  0  0  0
  -27.0309  -30.3030   24.6101 C   0  0  0  0  0  0
  -27.6062  -32.4315   25.7441 C   0  0  0  0  0  0
  -27.5589  -37.1795   24.8457 C   0  0  0  0  0  0
  -21.4143  -29.3029   22.3718 N   0  0  0  0  0  0
  -26.4291  -37.3775   23.9415 N   0  0  0  0  0  0
  -24.6738  -31.0708   22.0956 N   0  0  0  0  0  0
  -23.4184  -28.8169   23.3011 O   0  0  0  0  0  0
  -28.3875  -26.6187   20.0973 O   0  0  0  0  0  0
  -26.5598  -34.8911   22.4696 O   0  0  0  0  0  0
  -23.5355  -32.1384   23.7436 O   0  0  0  0  0  0
  -30.2679  -19.6270   22.2468 C   0  0  0  0  0  0
  -30.5070  -18.5885   23.1688 C   0  0  0  0  0  0
  -29.8849  -17.9644   20.5068 C   0  0  0  0  0  0
  -29.9450  -19.3367   20.9071 C   0  0  0  0  0  0
  -30.4207  -17.2340   22.7784 C   0  0  0  0  0  0
  -30.1236  -16.9020   21.4323 C   0  0  0  0  0  0
  -29.2088  -22.9770   20.1717 C   0  0  0  0  0  0
  -30.6078  -16.1482   23.8266 C   0  0  0  0  0  0
  -29.7303  -20.4956   19.9030 C   0  0  0  0  0  0
  -28.0685  -24.0394   20.2594 C   0  0  0  0  0  0
  -28.3962  -25.4252   20.9309 C   0  0  0  0  0  0
  -29.8551  -15.5296   21.0992 N   0  0  0  0  0  0
  -28.9112  -21.6613   20.3378 N   0  0  0  0  0  0
  -30.3490  -23.3449   19.8825 O   0  0  0  0  0  0
  -31.4855  -12.5079   19.1342 H   0  0  0  0  0  0
  -30.3976  -11.3519   19.8494 H   0  0  0  0  0  0
  -29.7748  -11.7735   17.4563 H   0  0  0  0  0  0
  -29.6561  -13.4879   17.7602 H   0  0  0  0  0  0
  -27.8651  -11.2919   18.8527 H   0  0  0  0  0  0
  -27.3734  -12.5894   17.7938 H   0  0  0  0  0  0
  -27.6982  -14.2448   19.5520 H   0  0  0  0  0  0
  -28.6997  -11.9704   21.3395 H   0  0  0  0  0  0
  -28.4339  -13.6001   21.8703 H   0  0  0  0  0  0
  -25.2718   -9.5729   22.4757 H   0  0  0  0  0  0
  -24.0010   -7.4638   22.7462 H   0  0  0  0  0  0
  -21.0808   -8.8736   19.8976 H   0  0  0  0  0  0
  -22.3611  -10.9668   19.6172 H   0  0  0  0  0  0
  -21.2019   -7.6148   23.9720 H   0  0  0  0  0  0
  -21.1477   -6.0509   25.9076 H   0  0  0  0  0  0
  -22.0611   -2.7610   23.2825 H   0  0  0  0  0  0
  -22.4040  -11.9966   22.4869 H   0  0  0  0  0  0
  -21.1104  -13.1377   22.2572 H   0  0  0  0  0  0
  -24.6790  -15.8486   20.5523 H   0  0  0  0  0  0
  -26.2959  -15.6330   20.1251 H   0  0  0  0  0  0
  -26.7109  -32.5499   23.1136 H   0  0  0  0  0  0
  -25.0033  -33.9743   25.0462 H   0  0  0  0  0  0
  -22.6984  -31.3015   21.4021 H   0  0  0  0  0  0
  -23.3735  -35.9658   23.3303 H   0  0  0  0  0  0
  -24.3592  -36.8930   22.2062 H   0  0  0  0  0  0
  -23.7256  -37.6523   23.6669 H   0  0  0  0  0  0
  -26.0542  -31.5820   20.5897 H   0  0  0  0  0  0
  -26.8267  -30.8772   21.9808 H   0  0  0  0  0  0
  -28.1150  -29.0788   21.1589 H   0  0  0  0  0  0
  -26.0557  -25.9279   19.0584 H   0  0  0  0  0  0
  -23.9844  -27.2740   19.0462 H   0  0  0  0  0  0
  -23.7326  -30.5845   19.4012 H   0  0  0  0  0  0
  -22.7456  -29.2333   19.8652 H   0  0  0  0  0  0
  -25.1277  -36.1945   25.0847 H   0  0  0  0  0  0
  -20.9963  -28.3238   24.1434 H   0  0  0  0  0  0
  -20.5611  -26.2276   23.3631 H   0  0  0  0  0  0
  -21.6634  -26.7405   22.1261 H   0  0  0  0  0  0
  -19.6907  -25.6283   21.1248 H   0  0  0  0  0  0
  -19.6717  -27.3177   20.6743 H   0  0  0  0  0  0
  -17.4203  -26.6708   21.3978 H   0  0  0  0  0  0
  -18.0288  -26.0064   22.8979 H   0  0  0  0  0  0
  -19.7918  -30.7241   24.2311 H   0  0  0  0  0  0
  -17.5002  -31.6266   24.5163 H   0  0  0  0  0  0
  -15.5340  -30.2997   23.7626 H   0  0  0  0  0  0
  -15.8659  -28.0823   22.7056 H   0  0  0  0  0  0
  -24.5889  -30.7091   25.7851 H   0  0  0  0  0  0
  -24.8988  -32.2883   26.4972 H   0  0  0  0  0  0
  -25.8122  -30.8861   27.0232 H   0  0  0  0  0  0
  -26.2853  -29.6761   24.1196 H   0  0  0  0  0  0
  -27.4133  -29.7289   25.4549 H   0  0  0  0  0  0
  -27.8661  -30.4354   23.9218 H   0  0  0  0  0  0
  -27.2681  -33.3568   26.2113 H   0  0  0  0  0  0
  -28.3788  -32.6961   25.0210 H   0  0  0  0  0  0
  -28.0839  -31.8403   26.5259 H   0  0  0  0  0  0
  -28.2606  -38.0091   24.7488 H   0  0  0  0  0  0
  -28.1083  -36.2620   24.6275 H   0  0  0  0  0  0
  -27.2330  -37.1445   25.8871 H   0  0  0  0  0  0
  -20.9297  -29.8769   21.6961 H   0  0  0  0  0  0
  -26.0176  -38.2853   24.1418 H   0  0  0  0  0  0
  -30.3392  -20.6550   22.5768 H   0  0  0  0  0  0
  -30.7370  -18.8438   24.1946 H   0  0  0  0  0  0
  -29.6238  -17.7242   19.4856 H   0  0  0  0  0  0
  -30.9241  -16.5626   24.7846 H   0  0  0  0  0  0
  -31.3643  -15.4287   23.5091 H   0  0  0  0  0  0
  -29.6703  -15.6142   23.9903 H   0  0  0  0  0  0
  -29.2681  -20.0921   19.0018 H   0  0  0  0  0  0
  -30.7197  -20.8342   19.5933 H   0  0  0  0  0  0
  -27.2219  -23.5918   20.7817 H   0  0  0  0  0  0
  -27.7180  -24.2160   19.2434 H   0  0  0  0  0  0
  -29.3842  -25.3761   21.3908 H   0  0  0  0  0  0
  -27.7195  -25.5744   21.7754 H   0  0  0  0  0  0
  -28.9593  -15.1887   21.4120 H   0  0  0  0  0  0
  -27.9611  -21.4434   20.6065 H   0  0  0  0  0  0
  1 25  1  0  0  0
  1 30  2  0  0  0
  1 82  1  0  0  0
  2  3  1  0  0  0
  2 25  1  0  0  0
  2 85  1  0  0  0
  2 86  1  0  0  0
  3  4  1  0  0  0
  3 87  1  0  0  0
  3 88  1  0  0  0
  4  5  1  0  0  0
  4 89  1  0  0  0
  4 90  1  0  0  0
  5  6  1  0  0  0
  5 26  1  0  0  0
  5 91  1  0  0  0
  6 25  1  0  0  0
  6 92  1  0  0  0
  6 93  1  0  0  0
  7  8  2  0  0  0
  7 26  1  0  0  0
  7 29  1  0  0  0
  8  9  1  0  0  0
  8 22  1  0  0  0
  9 10  1  0  0  0
  9 27  2  0  0  0
 10 11  2  0  0  0
 10 15  1  0  0  0
 11 12  1  0  0  0
 11 94  1  0  0  0
 12 13  2  0  0  0
 12 95  1  0  0  0
 13 14  1  0  0  0
 13 31  1  0  0  0
 14 15  2  0  0  0
 14 96  1  0  0  0
 15 97  1  0  0  0
 16 17  2  0  0  0
 16 21  1  0  0  0
 16 31  1  0  0  0
 17 18  1  0  0  0
 17 98  1  0  0  0
 18 19  2  0  0  0
 18 99  1  0  0  0
 19 20  1  0  0  0
 19 24  1  0  0  0
 20 21  2  0  0  0
 20100  1  0  0  0
 21 23  1  0  0  0
 22 28  1  0  0  0
 22 32  2  0  0  0
 26 27  1  0  0  0
 28101  1  0  0  0
 28102  1  0  0  0
 29103  1  0  0  0
 29104  1  0  0  0
 33 34  1  0  0  0
 33 66  1  0  0  0
 33 70  2  0  0  0
 34 36  1  0  0  0
 34 59  1  0  0  0
 34105  1  0  0  0
 35 44  2  0  0  0
 35 45  1  0  0  0
 35 68  1  0  0  0
 36 56  1  0  0  0
 36106  1  0  0  0
 37 39  1  0  0  0
 37 47  1  0  0  0
 37 66  1  0  0  0
 37107  1  0  0  0
 38 43  2  0  0  0
 38 46  1  0  0  0
 38 47  1  0  0  0
 39 64  1  0  0  0
 39 67  2  0  0  0
 40 52  1  0  0  0
 40 53  2  0  0  0
 40 58  1  0  0  0
 41108  1  0  0  0
 41109  1  0  0  0
 41110  1  0  0  0
 41 48  1  0  0  0
 42 43  1  0  0  0
 42 66  1  0  0  0
 42111  1  0  0  0
 42112  1  0  0  0
 43 44  1  0  0  0
 44113  1  0  0  0
 45 46  2  0  0  0
 45114  1  0  0  0
 46115  1  0  0  0
 47116  1  0  0  0
 47117  1  0  0  0
 48 56  1  0  0  0
 48 65  1  0  0  0
 48118  1  0  0  0
 49 50  1  0  0  0
 49 53  1  0  0  0
 49 64  1  0  0  0
 49119  1  0  0  0
 50 51  1  0  0  0
 50120  1  0  0  0
 50121  1  0  0  0
 51 52  1  0  0  0
 51122  1  0  0  0
 51123  1  0  0  0
 52124  1  0  0  0
 52125  1  0  0  0
 53 54  1  0  0  0
 54 55  2  0  0  0
 54126  1  0  0  0
 55 57  1  0  0  0
 55127  1  0  0  0
 56 69  2  0  0  0
 57 58  2  0  0  0
 57128  1  0  0  0
 58129  1  0  0  0
 59 60  1  0  0  0
 59 61  1  0  0  0
 59 62  1  0  0  0
 60130  1  0  0  0
 60131  1  0  0  0
 60132  1  0  0  0
 61133  1  0  0  0
 61134  1  0  0  0
 61135  1  0  0  0
 62136  1  0  0  0
 62137  1  0  0  0
 62138  1  0  0  0
 63 65  1  0  0  0
 63139  1  0  0  0
 63140  1  0  0  0
 63141  1  0  0  0
 64142  1  0  0  0
 65143  1  0  0  0
 68 81  1  0  0  0
 71 72  2  0  0  0
 71 74  1  0  0  0
 71144  1  0  0  0
 72 75  1  0  0  0
 72145  1  0  0  0
 73 74  2  0  0  0
 73 76  1  0  0  0
 73146  1  0  0  0
 74 79  1  0  0  0
 75 76  2  0  0  0
 75 78  1  0  0  0
 76 82  1  0  0  0
 77 80  1  0  0  0
 77 83  1  0  0  0
 77 84  2  0  0  0
 78147  1  0  0  0
 78148  1  0  0  0
 78149  1  0  0  0
 79 83  1  0  0  0
 79150  1  0  0  0
 79151  1  0  0  0
 80 81  1  0  0  0
 80152  1  0  0  0
 80153  1  0  0  0
 81154  1  0  0  0
 81155  1  0  0  0
 82156  1  0  0  0
 83157  1  0  0  0
M  ISO  4   1 100  68 101  81 101  82 100
M  END
> <chiral flag>
0

> <version>
0

> <s_m_source_file>
/data/baiqing/PycharmProjects/Reinvent-master-3.2/result/LINK_invent/BTK/process_docking_weight1_custom_product_contain_oxygen_bond_distance_aromatic_linkinvent_7_9_3/rearranged_h_0058.sdf

> <i_m_source_file_index>
36

> <r_mmod_Potential_Energy-OPLS-2005>
-100.299880981445

> <r_mmod_Stretch_Energy-OPLS-2005>
52.3819885253906

> <r_mmod_Bend_Energy-OPLS-2005>
111.65648651123

> <r_mmod_Torsional_Energy-OPLS-2005>
261.895111083984

> <r_mmod_Improper_Torsional_Energy-OPLS-2005>
5.68444871902466

> <r_mmod_Van_der_Waal_Energy-OPLS-2005>
140.511520385742

> <r_mmod_Electrostatic_Energy-OPLS-2005>
-453.203033447266

> <r_mmod_Solvation_Energy-OPLS-2005>
-242.544158935547

> <b_mmod_Minimization_Converged-OPLS-2005>
0

> <r_mmod_RMS_Derivative-OPLS-2005>
2.47456812858582

$$$$
36
                    3D
 Structure written by MMmdl.
160168  0  0  1  0            999 V2000
  -30.6358  -14.4884   20.6362 C   0  0  0  0  0  0
  -30.4468  -12.3430   19.4145 C   0  0  0  0  0  0
  -29.4997  -12.5514   18.2142 C   0  0  0  0  0  0
  -28.0182  -12.4028   18.6183 C   0  0  0  0  0  0
  -27.6603  -13.2037   19.8941 C   0  0  2  0  0  0
  -28.6962  -12.9286   20.9996 C   0  0  0  0  0  0
  -25.2545  -13.8137   20.5671 C   0  0  0  0  0  0
  -24.1782  -13.0420   20.9180 C   0  0  0  0  0  0
  -24.6347  -11.6883   20.8770 C   0  0  0  0  0  0
  -23.9013  -10.4294   21.0451 C   0  0  0  0  0  0
  -24.3594   -9.4194   21.9211 C   0  0  0  0  0  0
  -23.6297   -8.2206   22.0760 C   0  0  0  0  0  0
  -22.4289   -8.0254   21.3534 C   0  0  0  0  0  0
  -21.9908   -9.0226   20.4640 C   0  0  0  0  0  0
  -22.7205  -10.2135   20.3066 C   0  0  0  0  0  0
  -21.6840   -6.0728   22.5254 C   0  0  0  0  0  0
  -21.4029   -6.5657   23.8193 C   0  0  0  0  0  0
  -21.3676   -5.6827   24.9159 C   0  0  0  0  0  0
  -21.6037   -4.3086   24.7228 C   0  0  0  0  0  0
  -21.8826   -3.8155   23.4381 C   0  0  0  0  0  0
  -21.9189   -4.6952   22.3410 C   0  0  0  0  0  0
  -22.7800  -13.5180   21.1814 C   0  0  0  0  0  0
  -22.1632   -4.2125   21.0992 F   0  0  0  0  0  0
  -21.5650   -3.4558   25.7757 F   0  0  0  0  0  0
  -30.0277  -13.2868   20.4604 N   0  0  0  0  0  0
  -26.2978  -12.9277   20.3404 N   0  0  0  0  0  0
  -25.9272  -11.6459   20.5802 N   0  0  0  0  0  0
  -22.0506  -12.8110   22.0426 N   0  0  0  0  0  0
  -25.4304  -15.1816   20.3985 N   0  0  0  0  0  0
  -31.7684  -14.7537   20.2073 O   0  0  0  0  0  0
  -21.6651   -6.8847   21.4224 O   0  0  0  0  0  0
  -22.3406  -14.5453   20.6694 O   0  0  0  0  0  0
  -24.6086  -31.8732   23.2152 C   0  0  0  0  0  0
  -25.8987  -32.4848   23.8466 C   0  0  1  0  0  0
  -27.2303  -27.4886   20.0840 C   0  0  0  0  0  0
  -25.5865  -33.8642   24.2397 N   0  0  0  0  0  0
  -23.3922  -30.4953   21.5597 C   0  0  2  0  0  0
  -24.8314  -28.9647   20.1185 C   0  0  0  0  0  0
  -22.7371  -29.4698   22.5080 C   0  0  0  0  0  0
  -18.0271  -28.1370   22.8526 C   0  0  0  0  0  0
  -24.1467  -36.7317   23.2653 C   0  0  0  0  0  0
  -25.9124  -30.8544   21.3602 C   0  0  0  0  0  0
  -25.9864  -29.4921   20.7057 C   0  0  0  0  0  0
  -27.1891  -28.7631   20.6784 C   0  0  0  0  0  0
  -26.0597  -26.9519   19.5037 C   0  0  0  0  0  0
  -24.8601  -27.6909   19.5174 C   0  0  0  0  0  0
  -23.5925  -29.8283   20.1724 C   0  0  0  0  0  0
  -25.4075  -36.3120   24.0368 C   0  0  1  0  0  0
  -20.5864  -28.3647   23.1374 C   0  0  2  0  0  0
  -20.6768  -26.9400   22.5458 C   0  0  0  0  0  0
  -19.5741  -26.6394   21.5243 C   0  0  0  0  0  0
  -18.1902  -26.7928   22.1642 C   0  0  0  0  0  0
  -19.1527  -28.8829   23.2934 C   0  0  0  0  0  0
  -18.9426  -30.1435   23.8949 C   0  0  0  0  0  0
  -17.6433  -30.6584   24.0568 C   0  0  0  0  0  0
  -25.8998  -34.9487   23.5164 C   0  0  0  0  0  0
  -16.5327  -29.9093   23.6336 C   0  0  0  0  0  0
  -16.7260  -28.6503   23.0373 C   0  0  0  0  0  0
  -26.4481  -31.6631   25.0772 C   0  0  0  0  0  0
  -25.3783  -31.3713   26.1550 C   0  0  0  0  0  0
  -27.0354  -30.3097   24.6147 C   0  0  0  0  0  0
  -27.6067  -32.4390   25.7496 C   0  0  0  0  0  0
  -27.5576  -37.1802   24.8465 C   0  0  0  0  0  0
  -21.4121  -29.3014   22.3801 N   0  0  0  0  0  0
  -26.4257  -37.3796   23.9432 N   0  0  0  0  0  0
  -24.6566  -31.0884   22.1054 N   0  0  0  0  0  0
  -23.4168  -28.8239   23.3103 O   0  0  0  0  0  0
  -28.4400  -26.8504   20.0586 O   0  0  0  0  0  0
  -26.5558  -34.8937   22.4730 O   0  0  0  0  0  0
  -23.5302  -32.1477   23.7586 O   0  0  0  0  0  0
  -30.7429  -18.3023   23.3240 C   0  0  0  0  0  0
  -30.0122  -19.3450   22.7210 C   0  0  0  0  0  0
  -30.7180  -17.0066   22.7703 C   0  0  0  0  0  0
  -29.2962  -19.1280   21.5194 C   0  0  0  0  0  0
  -29.3102  -17.8280   20.9348 C   0  0  0  0  0  0
  -29.9987  -16.7579   21.5762 C   0  0  0  0  0  0
  -29.2265  -22.6659   21.3491 C   0  0  0  0  0  0
  -28.6263  -17.6090   19.5871 C   0  0  0  0  0  0
  -28.5407  -20.3058   20.8889 C   0  0  0  0  0  0
  -30.2604  -23.7227   20.9703 C   0  0  0  0  0  0
  -29.7446  -25.1678   20.9880 C   0  0  0  0  0  0
  -28.4749  -25.4409   20.1663 C   0  0  0  0  0  0
  -29.7930  -15.4184   21.1310 N   0  0  0  0  0  0
  -29.3764  -21.4897   20.7372 N   0  0  0  0  0  0
  -28.3260  -22.9077   22.1542 O   0  0  0  0  0  0
  -31.4848  -12.5004   19.1112 H   0  0  0  0  0  0
  -30.3866  -11.3207   19.7861 H   0  0  0  0  0  0
  -29.7444  -11.8541   17.4125 H   0  0  0  0  0  0
  -29.6478  -13.5517   17.8037 H   0  0  0  0  0  0
  -27.8032  -11.3465   18.7758 H   0  0  0  0  0  0
  -27.3738  -12.7281   17.7997 H   0  0  0  0  0  0
  -27.7152  -14.2590   19.6433 H   0  0  0  0  0  0
  -28.6837  -11.8728   21.2763 H   0  0  0  0  0  0
  -28.4408  -13.4659   21.9132 H   0  0  0  0  0  0
  -25.2761   -9.5699   22.4733 H   0  0  0  0  0  0
  -24.0031   -7.4611   22.7456 H   0  0  0  0  0  0
  -21.0826   -8.8727   19.8937 H   0  0  0  0  0  0
  -22.3644  -10.9660   19.6173 H   0  0  0  0  0  0
  -21.2045   -7.6170   23.9687 H   0  0  0  0  0  0
  -21.1466   -6.0566   25.9054 H   0  0  0  0  0  0
  -22.0604   -2.7605   23.2881 H   0  0  0  0  0  0
  -22.4220  -11.9787   22.4759 H   0  0  0  0  0  0
  -21.1165  -13.1120   22.2766 H   0  0  0  0  0  0
  -24.6598  -15.8354   20.4478 H   0  0  0  0  0  0
  -26.2552  -15.5771   19.9742 H   0  0  0  0  0  0
  -26.7052  -32.5584   23.1244 H   0  0  0  0  0  0
  -25.0037  -33.9858   25.0563 H   0  0  0  0  0  0
  -22.6752  -31.3066   21.4284 H   0  0  0  0  0  0
  -23.3731  -35.9638   23.3290 H   0  0  0  0  0  0
  -24.3542  -36.8962   22.2069 H   0  0  0  0  0  0
  -23.7208  -37.6521   23.6661 H   0  0  0  0  0  0
  -26.0198  -31.6284   20.6001 H   0  0  0  0  0  0
  -26.8023  -30.9047   21.9757 H   0  0  0  0  0  0
  -28.0920  -29.1739   21.1117 H   0  0  0  0  0  0
  -26.0721  -25.9833   19.0221 H   0  0  0  0  0  0
  -23.9713  -27.2845   19.0561 H   0  0  0  0  0  0
  -23.6862  -30.6086   19.4149 H   0  0  0  0  0  0
  -22.7164  -29.2448   19.8847 H   0  0  0  0  0  0
  -25.1239  -36.2014   25.0854 H   0  0  0  0  0  0
  -20.9928  -28.3181   24.1491 H   0  0  0  0  0  0
  -20.5704  -26.2225   23.3611 H   0  0  0  0  0  0
  -21.6611  -26.7459   22.1198 H   0  0  0  0  0  0
  -19.6873  -25.6298   21.1257 H   0  0  0  0  0  0
  -19.6686  -27.3217   20.6768 H   0  0  0  0  0  0
  -17.4197  -26.6749   21.4012 H   0  0  0  0  0  0
  -18.0240  -26.0048   22.9005 H   0  0  0  0  0  0
  -19.7886  -30.7243   24.2342 H   0  0  0  0  0  0
  -17.4973  -31.6255   24.5149 H   0  0  0  0  0  0
  -15.5325  -30.2992   23.7592 H   0  0  0  0  0  0
  -15.8665  -28.0791   22.7091 H   0  0  0  0  0  0
  -24.5851  -30.7200   25.7868 H   0  0  0  0  0  0
  -24.9091  -32.2867   26.5162 H   0  0  0  0  0  0
  -25.8141  -30.8730   27.0221 H   0  0  0  0  0  0
  -26.2907  -29.6808   24.1246 H   0  0  0  0  0  0
  -27.4212  -29.7395   25.4621 H   0  0  0  0  0  0
  -27.8688  -30.4470   23.9240 H   0  0  0  0  0  0
  -27.2667  -33.3652   26.2154 H   0  0  0  0  0  0
  -28.3778  -32.7061   25.0246 H   0  0  0  0  0  0
  -28.0853  -31.8496   26.5352 H   0  0  0  0  0  0
  -28.2585  -38.0128   24.7510 H   0  0  0  0  0  0
  -28.1103  -36.2643   24.6250 H   0  0  0  0  0  0
  -27.2306  -37.1401   25.8885 H   0  0  0  0  0  0
  -20.9262  -29.8689   21.7002 H   0  0  0  0  0  0
  -26.0182  -38.2877   24.1453 H   0  0  0  0  0  0
  -31.3021  -18.5000   24.2325 H   0  0  0  0  0  0
  -30.0112  -20.3283   23.1803 H   0  0  0  0  0  0
  -31.2268  -16.2024   23.2791 H   0  0  0  0  0  0
  -27.5633  -17.8511   19.6307 H   0  0  0  0  0  0
  -28.7202  -16.5938   19.2070 H   0  0  0  0  0  0
  -29.1050  -18.2605   18.8511 H   0  0  0  0  0  0
  -27.6591  -20.5398   21.4901 H   0  0  0  0  0  0
  -28.1655  -20.0811   19.8913 H   0  0  0  0  0  0
  -30.6473  -23.5114   19.9782 H   0  0  0  0  0  0
  -31.1077  -23.6239   21.6484 H   0  0  0  0  0  0
  -30.5523  -25.7873   20.5952 H   0  0  0  0  0  0
  -29.6046  -25.5013   22.0145 H   0  0  0  0  0  0
  -27.5950  -25.0441   20.6801 H   0  0  0  0  0  0
  -28.5263  -24.9977   19.1715 H   0  0  0  0  0  0
  -28.8395  -15.0949   21.1775 H   0  0  0  0  0  0
  -30.1186  -21.4215   20.0547 H   0  0  0  0  0  0
  1 25  1  0  0  0
  1 30  2  0  0  0
  1 83  1  0  0  0
  2  3  1  0  0  0
  2 25  1  0  0  0
  2 86  1  0  0  0
  2 87  1  0  0  0
  3  4  1  0  0  0
  3 88  1  0  0  0
  3 89  1  0  0  0
  4  5  1  0  0  0
  4 90  1  0  0  0
  4 91  1  0  0  0
  5  6  1  0  0  0
  5 26  1  0  0  0
  5 92  1  0  0  0
  6 25  1  0  0  0
  6 93  1  0  0  0
  6 94  1  0  0  0
  7  8  2  0  0  0
  7 26  1  0  0  0
  7 29  1  0  0  0
  8  9  1  0  0  0
  8 22  1  0  0  0
  9 10  1  0  0  0
  9 27  2  0  0  0
 10 11  2  0  0  0
 10 15  1  0  0  0
 11 12  1  0  0  0
 11 95  1  0  0  0
 12 13  2  0  0  0
 12 96  1  0  0  0
 13 14  1  0  0  0
 13 31  1  0  0  0
 14 15  2  0  0  0
 14 97  1  0  0  0
 15 98  1  0  0  0
 16 17  2  0  0  0
 16 21  1  0  0  0
 16 31  1  0  0  0
 17 18  1  0  0  0
 17 99  1  0  0  0
 18 19  2  0  0  0
 18100  1  0  0  0
 19 20  1  0  0  0
 19 24  1  0  0  0
 20 21  2  0  0  0
 20101  1  0  0  0
 21 23  1  0  0  0
 22 28  1  0  0  0
 22 32  2  0  0  0
 26 27  1  0  0  0
 28102  1  0  0  0
 28103  1  0  0  0
 29104  1  0  0  0
 29105  1  0  0  0
 33 34  1  0  0  0
 33 66  1  0  0  0
 33 70  2  0  0  0
 34 36  1  0  0  0
 34 59  1  0  0  0
 34106  1  0  0  0
 35 44  2  0  0  0
 35 45  1  0  0  0
 35 68  1  0  0  0
 36 56  1  0  0  0
 36107  1  0  0  0
 37 39  1  0  0  0
 37 47  1  0  0  0
 37 66  1  0  0  0
 37108  1  0  0  0
 38 43  2  0  0  0
 38 46  1  0  0  0
 38 47  1  0  0  0
 39 64  1  0  0  0
 39 67  2  0  0  0
 40 52  1  0  0  0
 40 53  2  0  0  0
 40 58  1  0  0  0
 41109  1  0  0  0
 41110  1  0  0  0
 41111  1  0  0  0
 41 48  1  0  0  0
 42 43  1  0  0  0
 42 66  1  0  0  0
 42112  1  0  0  0
 42113  1  0  0  0
 43 44  1  0  0  0
 44114  1  0  0  0
 45 46  2  0  0  0
 45115  1  0  0  0
 46116  1  0  0  0
 47117  1  0  0  0
 47118  1  0  0  0
 48 56  1  0  0  0
 48 65  1  0  0  0
 48119  1  0  0  0
 49 50  1  0  0  0
 49 53  1  0  0  0
 49 64  1  0  0  0
 49120  1  0  0  0
 50 51  1  0  0  0
 50121  1  0  0  0
 50122  1  0  0  0
 51 52  1  0  0  0
 51123  1  0  0  0
 51124  1  0  0  0
 52125  1  0  0  0
 52126  1  0  0  0
 53 54  1  0  0  0
 54 55  2  0  0  0
 54127  1  0  0  0
 55 57  1  0  0  0
 55128  1  0  0  0
 56 69  2  0  0  0
 57 58  2  0  0  0
 57129  1  0  0  0
 58130  1  0  0  0
 59 60  1  0  0  0
 59 61  1  0  0  0
 59 62  1  0  0  0
 60131  1  0  0  0
 60132  1  0  0  0
 60133  1  0  0  0
 61134  1  0  0  0
 61135  1  0  0  0
 61136  1  0  0  0
 62137  1  0  0  0
 62138  1  0  0  0
 62139  1  0  0  0
 63 65  1  0  0  0
 63140  1  0  0  0
 63141  1  0  0  0
 63142  1  0  0  0
 64143  1  0  0  0
 65144  1  0  0  0
 68 82  1  0  0  0
 71 72  2  0  0  0
 71 73  1  0  0  0
 71145  1  0  0  0
 72 74  1  0  0  0
 72146  1  0  0  0
 73 76  2  0  0  0
 73147  1  0  0  0
 74 75  2  0  0  0
 74 79  1  0  0  0
 75 76  1  0  0  0
 75 78  1  0  0  0
 76 83  1  0  0  0
 77 80  1  0  0  0
 77 84  1  0  0  0
 77 85  2  0  0  0
 78148  1  0  0  0
 78149  1  0  0  0
 78150  1  0  0  0
 79 84  1  0  0  0
 79151  1  0  0  0
 79152  1  0  0  0
 80 81  1  0  0  0
 80153  1  0  0  0
 80154  1  0  0  0
 81 82  1  0  0  0
 81155  1  0  0  0
 81156  1  0  0  0
 82157  1  0  0  0
 82158  1  0  0  0
 83159  1  0  0  0
 84160  1  0  0  0
M  ISO  4   1 100  68 101  82 101  83 100
M  END
> <chiral flag>
0

> <version>
0

> <s_m_source_file>
/data/baiqing/PycharmProjects/Reinvent-master-3.2/result/LINK_invent/BTK/process_docking_weight1_custom_product_contain_oxygen_bond_distance_aromatic_linkinvent_7_9_3/rearranged_h_0058.sdf

> <i_m_source_file_index>
37

> <r_mmod_Potential_Energy-OPLS-2005>
-167.195510864258

> <r_mmod_Stretch_Energy-OPLS-2005>
34.2859649658203

> <r_mmod_Bend_Energy-OPLS-2005>
106.567176818848

> <r_mmod_Torsional_Energy-OPLS-2005>
234.587554931641

> <r_mmod_Improper_Torsional_Energy-OPLS-2005>
6.43892765045166

> <r_mmod_Van_der_Waal_Energy-OPLS-2005>
158.637084960938

> <r_mmod_Electrostatic_Energy-OPLS-2005>
-487.646575927734

> <r_mmod_Solvation_Energy-OPLS-2005>
-236.4072265625

> <b_mmod_Minimization_Converged-OPLS-2005>
0

> <r_mmod_RMS_Derivative-OPLS-2005>
7.95747947692871

$$$$
37
                    3D
 Structure written by MMmdl.
158167  0  0  1  0            999 V2000
  -30.4892  -15.0360   20.3976 C   0  0  0  0  0  0
  -30.4440  -12.6376   19.5363 C   0  0  0  0  0  0
  -29.5385  -12.5237   18.2859 C   0  0  0  0  0  0
  -28.0745  -12.2907   18.7031 C   0  0  0  0  0  0
  -27.6249  -13.2507   19.8356 C   0  0  2  0  0  0
  -28.6553  -13.3207   20.9839 C   0  0  0  0  0  0
  -25.2428  -13.8224   20.5739 C   0  0  0  0  0  0
  -24.1742  -13.0448   20.9246 C   0  0  0  0  0  0
  -24.6366  -11.6929   20.8784 C   0  0  0  0  0  0
  -23.9079  -10.4284   21.0424 C   0  0  0  0  0  0
  -24.3639   -9.4187   21.9193 C   0  0  0  0  0  0
  -23.6304   -8.2224   22.0763 C   0  0  0  0  0  0
  -22.4271   -8.0282   21.3558 C   0  0  0  0  0  0
  -21.9914   -9.0264   20.4658 C   0  0  0  0  0  0
  -22.7256  -10.2134   20.3061 C   0  0  0  0  0  0
  -21.6832   -6.0748   22.5287 C   0  0  0  0  0  0
  -21.4008   -6.5655   23.8229 C   0  0  0  0  0  0
  -21.3660   -5.6800   24.9181 C   0  0  0  0  0  0
  -21.6043   -4.3068   24.7226 C   0  0  0  0  0  0
  -21.8813   -3.8157   23.4342 C   0  0  0  0  0  0
  -21.9178   -4.6976   22.3400 C   0  0  0  0  0  0
  -22.7757  -13.5228   21.1884 C   0  0  0  0  0  0
  -22.1642   -4.2165   21.0971 F   0  0  0  0  0  0
  -21.5623   -3.4565   25.7740 F   0  0  0  0  0  0
  -29.9275  -13.7520   20.3925 N   0  0  0  0  0  0
  -26.2843  -12.9454   20.3235 N   0  0  0  0  0  0
  -25.9288  -11.6587   20.5739 N   0  0  0  0  0  0
  -22.0389  -12.8252   22.0458 N   0  0  0  0  0  0
  -25.4072  -15.1950   20.4130 N   0  0  0  0  0  0
  -31.6900  -15.0899   20.1008 O   0  0  0  0  0  0
  -21.6619   -6.8890   21.4247 O   0  0  0  0  0  0
  -22.3455  -14.5520   20.6695 O   0  0  0  0  0  0
  -24.6485  -31.8387   23.1853 C   0  0  0  0  0  0
  -25.9230  -32.4677   23.8269 C   0  0  1  0  0  0
  -27.2070  -27.0889   20.1661 C   0  0  0  0  0  0
  -25.5960  -33.8473   24.2190 N   0  0  0  0  0  0
  -23.4558  -30.4585   21.5290 C   0  0  2  0  0  0
  -24.9062  -28.8777   20.1090 C   0  0  0  0  0  0
  -22.7602  -29.4509   22.4802 C   0  0  0  0  0  0
  -18.0299  -28.1401   22.8449 C   0  0  0  0  0  0
  -24.1494  -36.7253   23.2642 C   0  0  0  0  0  0
  -26.0145  -30.6998   21.3901 C   0  0  0  0  0  0
  -26.0839  -29.3061   20.7335 C   0  0  0  0  0  0
  -27.2371  -28.4287   20.7412 C   0  0  0  0  0  0
  -26.0078  -26.7750   19.4930 C   0  0  0  0  0  0
  -24.8842  -27.6296   19.4685 C   0  0  0  0  0  0
  -23.6876  -29.7874   20.1479 C   0  0  0  0  0  0
  -25.4117  -36.3021   24.0319 C   0  0  1  0  0  0
  -20.5919  -28.3732   23.1193 C   0  0  2  0  0  0
  -20.6791  -26.9421   22.5390 C   0  0  0  0  0  0
  -19.5770  -26.6370   21.5192 C   0  0  0  0  0  0
  -18.1948  -26.7928   22.1598 C   0  0  0  0  0  0
  -19.1565  -28.8873   23.2814 C   0  0  0  0  0  0
  -18.9481  -30.1461   23.8866 C   0  0  0  0  0  0
  -17.6481  -30.6586   24.0549 C   0  0  0  0  0  0
  -25.9067  -34.9391   23.5067 C   0  0  0  0  0  0
  -16.5364  -29.9086   23.6325 C   0  0  0  0  0  0
  -16.7287  -28.6501   23.0341 C   0  0  0  0  0  0
  -26.4539  -31.6551   25.0723 C   0  0  0  0  0  0
  -25.3727  -31.3741   26.1433 C   0  0  0  0  0  0
  -27.0410  -30.2937   24.6339 C   0  0  0  0  0  0
  -27.6081  -32.4306   25.7507 C   0  0  0  0  0  0
  -27.5569  -37.1780   24.8451 C   0  0  0  0  0  0
  -21.4281  -29.3054   22.3575 N   0  0  0  0  0  0
  -26.4277  -37.3740   23.9405 N   0  0  0  0  0  0
  -24.7265  -31.0209   22.0903 N   0  0  0  0  0  0
  -23.4223  -28.8052   23.2964 O   0  0  0  0  0  0
  -28.2369  -26.0711   20.2514 O   0  0  0  0  0  0
  -26.5647  -34.8900   22.4641 O   0  0  0  0  0  0
  -23.5588  -32.1263   23.7036 O   0  0  0  0  0  0
  -29.7787  -20.4332   18.9890 C   0  0  0  0  0  0
  -29.1560  -18.9418   20.7946 C   0  0  0  0  0  0
  -30.3245  -19.3011   18.3342 C   0  0  0  0  0  0
  -29.1540  -20.3493   20.2465 C   0  0  0  0  0  0
  -29.7491  -17.7115   20.1647 C   0  0  0  0  0  0
  -30.3159  -17.9926   18.8943 C   0  0  0  0  0  0
  -27.9832  -21.6433   22.0348 C   0  0  0  0  0  0
  -28.2604  -22.8983   22.8522 C   0  0  0  0  0  0
  -29.3416  -23.5988   22.0322 C   0  0  0  0  0  0
  -28.9726  -23.2270   20.5917 C   0  0  2  0  0  0
  -30.9226  -19.4997   16.9528 C   0  0  0  0  0  0
  -27.9438  -24.5221   20.1365 C   0  0  0  0  0  0
  -28.5799  -21.6809   20.8230 N   0  0  0  0  0  0
  -29.7060  -16.2236   20.6411 N   0  0  0  0  0  0
  -27.2854  -20.7299   22.4812 O   0  0  0  0  0  0
  -30.8237  -16.9816   18.1510 F   0  0  0  0  0  0
  -31.4774  -12.8013   19.2284 H   0  0  0  0  0  0
  -30.4553  -11.7043   20.0990 H   0  0  0  0  0  0
  -29.8828  -11.7076   17.6498 H   0  0  0  0  0  0
  -29.6160  -13.4317   17.6866 H   0  0  0  0  0  0
  -27.9976  -11.2610   19.0559 H   0  0  0  0  0  0
  -27.4115  -12.3628   17.8403 H   0  0  0  0  0  0
  -27.5827  -14.2397   19.3777 H   0  0  0  0  0  0
  -28.7547  -12.3570   21.4858 H   0  0  0  0  0  0
  -28.3329  -14.0342   21.7434 H   0  0  0  0  0  0
  -25.2781   -9.5673   22.4785 H   0  0  0  0  0  0
  -24.0017   -7.4608   22.7482 H   0  0  0  0  0  0
  -21.0848   -8.8801   19.8970 H   0  0  0  0  0  0
  -22.3724  -10.9689   19.6188 H   0  0  0  0  0  0
  -21.2007   -7.6160   23.9764 H   0  0  0  0  0  0
  -21.1486   -6.0504   25.9095 H   0  0  0  0  0  0
  -22.0583   -2.7618   23.2827 H   0  0  0  0  0  0
  -22.3991  -11.9944   22.4920 H   0  0  0  0  0  0
  -21.0994  -13.1274   22.2619 H   0  0  0  0  0  0
  -24.6401  -15.8452   20.5351 H   0  0  0  0  0  0
  -26.2418  -15.6390   20.0550 H   0  0  0  0  0  0
  -26.7304  -32.5288   23.1011 H   0  0  0  0  0  0
  -25.0117  -33.9571   25.0349 H   0  0  0  0  0  0
  -22.7620  -31.2870   21.3716 H   0  0  0  0  0  0
  -23.3765  -35.9577   23.3274 H   0  0  0  0  0  0
  -24.3590  -36.8917   22.2065 H   0  0  0  0  0  0
  -23.7248  -37.6441   23.6696 H   0  0  0  0  0  0
  -26.1758  -31.4509   20.6154 H   0  0  0  0  0  0
  -26.8832  -30.7545   22.0343 H   0  0  0  0  0  0
  -28.1349  -28.7441   21.2531 H   0  0  0  0  0  0
  -25.9072  -25.8188   19.0019 H   0  0  0  0  0  0
  -23.9870  -27.3041   18.9596 H   0  0  0  0  0  0
  -23.8386  -30.5638   19.3964 H   0  0  0  0  0  0
  -22.8013  -29.2375   19.8267 H   0  0  0  0  0  0
  -25.1310  -36.1853   25.0810 H   0  0  0  0  0  0
  -20.9997  -28.3341   24.1316 H   0  0  0  0  0  0
  -20.5656  -26.2344   23.3619 H   0  0  0  0  0  0
  -21.6667  -26.7414   22.1218 H   0  0  0  0  0  0
  -19.6944  -25.6271   21.1249 H   0  0  0  0  0  0
  -19.6719  -27.3150   20.6703 H   0  0  0  0  0  0
  -17.4214  -26.6631   21.4011 H   0  0  0  0  0  0
  -18.0369  -26.0082   22.9007 H   0  0  0  0  0  0
  -19.7957  -30.7267   24.2241 H   0  0  0  0  0  0
  -17.5035  -31.6263   24.5170 H   0  0  0  0  0  0
  -15.5361  -30.2988   23.7663 H   0  0  0  0  0  0
  -15.8674  -28.0811   22.7088 H   0  0  0  0  0  0
  -24.5913  -30.7081   25.7766 H   0  0  0  0  0  0
  -24.8919  -32.2918   26.4822 H   0  0  0  0  0  0
  -25.8024  -30.8949   27.0241 H   0  0  0  0  0  0
  -26.3033  -29.6642   24.1358 H   0  0  0  0  0  0
  -27.4017  -29.7263   25.4930 H   0  0  0  0  0  0
  -27.8952  -30.4162   23.9678 H   0  0  0  0  0  0
  -27.2706  -33.3641   26.2023 H   0  0  0  0  0  0
  -28.3937  -32.6792   25.0359 H   0  0  0  0  0  0
  -28.0710  -31.8466   26.5479 H   0  0  0  0  0  0
  -28.2571  -38.0093   24.7516 H   0  0  0  0  0  0
  -28.1084  -36.2620   24.6258 H   0  0  0  0  0  0
  -27.2284  -37.1419   25.8854 H   0  0  0  0  0  0
  -20.9489  -29.8799   21.6784 H   0  0  0  0  0  0
  -26.0142  -38.2805   24.1430 H   0  0  0  0  0  0
  -29.8135  -21.3930   18.4943 H   0  0  0  0  0  0
  -28.6850  -18.7889   21.7546 H   0  0  0  0  0  0
  -28.5974  -22.6591   23.8607 H   0  0  0  0  0  0
  -27.3518  -23.4980   22.9259 H   0  0  0  0  0  0
  -30.3241  -23.1979   22.2916 H   0  0  0  0  0  0
  -29.3745  -24.6737   22.2164 H   0  0  0  0  0  0
  -29.8640  -23.2730   19.9696 H   0  0  0  0  0  0
  -30.9060  -20.5508   16.6564 H   0  0  0  0  0  0
  -30.3614  -18.9358   16.2069 H   0  0  0  0  0  0
  -31.9585  -19.1623   16.9328 H   0  0  0  0  0  0
  -27.0055  -24.3713   20.6704 H   0  0  0  0  0  0
  -27.6911  -24.3505   19.0890 H   0  0  0  0  0  0
  -28.8485  -15.9975   21.1204 H   0  0  0  0  0  0
  1 25  1  0  0  0
  1 30  2  0  0  0
  1 84  1  0  0  0
  2  3  1  0  0  0
  2 25  1  0  0  0
  2 87  1  0  0  0
  2 88  1  0  0  0
  3  4  1  0  0  0
  3 89  1  0  0  0
  3 90  1  0  0  0
  4  5  1  0  0  0
  4 91  1  0  0  0
  4 92  1  0  0  0
  5  6  1  0  0  0
  5 26  1  0  0  0
  5 93  1  0  0  0
  6 25  1  0  0  0
  6 94  1  0  0  0
  6 95  1  0  0  0
  7  8  2  0  0  0
  7 26  1  0  0  0
  7 29  1  0  0  0
  8  9  1  0  0  0
  8 22  1  0  0  0
  9 10  1  0  0  0
  9 27  2  0  0  0
 10 11  2  0  0  0
 10 15  1  0  0  0
 11 12  1  0  0  0
 11 96  1  0  0  0
 12 13  2  0  0  0
 12 97  1  0  0  0
 13 14  1  0  0  0
 13 31  1  0  0  0
 14 15  2  0  0  0
 14 98  1  0  0  0
 15 99  1  0  0  0
 16 17  2  0  0  0
 16 21  1  0  0  0
 16 31  1  0  0  0
 17 18  1  0  0  0
 17100  1  0  0  0
 18 19  2  0  0  0
 18101  1  0  0  0
 19 20  1  0  0  0
 19 24  1  0  0  0
 20 21  2  0  0  0
 20102  1  0  0  0
 21 23  1  0  0  0
 22 28  1  0  0  0
 22 32  2  0  0  0
 26 27  1  0  0  0
 28103  1  0  0  0
 28104  1  0  0  0
 29105  1  0  0  0
 29106  1  0  0  0
 33 34  1  0  0  0
 33 66  1  0  0  0
 33 70  2  0  0  0
 34 36  1  0  0  0
 34 59  1  0  0  0
 34107  1  0  0  0
 35 44  2  0  0  0
 35 45  1  0  0  0
 35 68  1  0  0  0
 36 56  1  0  0  0
 36108  1  0  0  0
 37 39  1  0  0  0
 37 47  1  0  0  0
 37 66  1  0  0  0
 37109  1  0  0  0
 38 43  2  0  0  0
 38 46  1  0  0  0
 38 47  1  0  0  0
 39 64  1  0  0  0
 39 67  2  0  0  0
 40 52  1  0  0  0
 40 53  2  0  0  0
 40 58  1  0  0  0
 41110  1  0  0  0
 41111  1  0  0  0
 41112  1  0  0  0
 41 48  1  0  0  0
 42 43  1  0  0  0
 42 66  1  0  0  0
 42113  1  0  0  0
 42114  1  0  0  0
 43 44  1  0  0  0
 44115  1  0  0  0
 45 46  2  0  0  0
 45116  1  0  0  0
 46117  1  0  0  0
 47118  1  0  0  0
 47119  1  0  0  0
 48 56  1  0  0  0
 48 65  1  0  0  0
 48120  1  0  0  0
 49 50  1  0  0  0
 49 53  1  0  0  0
 49 64  1  0  0  0
 49121  1  0  0  0
 50 51  1  0  0  0
 50122  1  0  0  0
 50123  1  0  0  0
 51 52  1  0  0  0
 51124  1  0  0  0
 51125  1  0  0  0
 52126  1  0  0  0
 52127  1  0  0  0
 53 54  1  0  0  0
 54 55  2  0  0  0
 54128  1  0  0  0
 55 57  1  0  0  0
 55129  1  0  0  0
 56 69  2  0  0  0
 57 58  2  0  0  0
 57130  1  0  0  0
 58131  1  0  0  0
 59 60  1  0  0  0
 59 61  1  0  0  0
 59 62  1  0  0  0
 60132  1  0  0  0
 60133  1  0  0  0
 60134  1  0  0  0
 61135  1  0  0  0
 61136  1  0  0  0
 61137  1  0  0  0
 62138  1  0  0  0
 62139  1  0  0  0
 62140  1  0  0  0
 63 65  1  0  0  0
 63141  1  0  0  0
 63142  1  0  0  0
 63143  1  0  0  0
 64144  1  0  0  0
 65145  1  0  0  0
 68 82  1  0  0  0
 71 73  2  0  0  0
 71 74  1  0  0  0
 71146  1  0  0  0
 72 74  2  0  0  0
 72 75  1  0  0  0
 72147  1  0  0  0
 73 76  1  0  0  0
 73 81  1  0  0  0
 74 83  1  0  0  0
 75 76  2  0  0  0
 75 84  1  0  0  0
 76 86  1  0  0  0
 77 78  1  0  0  0
 77 83  1  0  0  0
 77 85  2  0  0  0
 78 79  1  0  0  0
 78148  1  0  0  0
 78149  1  0  0  0
 79 80  1  0  0  0
 79150  1  0  0  0
 79151  1  0  0  0
 80 82  1  0  0  0
 80 83  1  0  0  0
 80152  1  0  0  0
 81153  1  0  0  0
 81154  1  0  0  0
 81155  1  0  0  0
 82156  1  0  0  0
 82157  1  0  0  0
 84158  1  0  0  0
M  ISO  4   1 100  68 101  82 101  84 100
M  END
> <chiral flag>
0

> <version>
0

> <s_m_source_file>
/data/baiqing/PycharmProjects/Reinvent-master-3.2/result/LINK_invent/BTK/process_docking_weight1_custom_product_contain_oxygen_bond_distance_aromatic_linkinvent_7_9_3/rearranged_h_0058.sdf

> <i_m_source_file_index>
38

> <r_mmod_Potential_Energy-OPLS-2005>
719.843200683594

> <r_mmod_Stretch_Energy-OPLS-2005>
332.127502441406

> <r_mmod_Bend_Energy-OPLS-2005>
312.681579589844

> <r_mmod_Torsional_Energy-OPLS-2005>
290.683563232422

> <r_mmod_Improper_Torsional_Energy-OPLS-2005>
4.09219312667847

> <r_mmod_Van_der_Waal_Energy-OPLS-2005>
129.391342163086

> <r_mmod_Electrostatic_Energy-OPLS-2005>
-379.840972900391

> <r_mmod_Solvation_Energy-OPLS-2005>
-222.457992553711

> <b_mmod_Minimization_Converged-OPLS-2005>
0

> <r_mmod_RMS_Derivative-OPLS-2005>
3.50551915168762

$$$$
38
                    3D
 Structure written by MMmdl.
163171  0  0  1  0            999 V2000
  -30.7216  -14.4455   20.7195 C   0  0  0  0  0  0
  -30.4332  -12.3306   19.4468 C   0  0  0  0  0  0
  -29.5197  -12.5524   18.2278 C   0  0  0  0  0  0
  -28.0392  -12.3852   18.6196 C   0  0  0  0  0  0
  -27.6730  -13.2088   19.8823 C   0  0  2  0  0  0
  -28.7015  -12.9746   21.0108 C   0  0  0  0  0  0
  -25.2643  -13.8180   20.5646 C   0  0  0  0  0  0
  -24.1884  -13.0448   20.9118 C   0  0  0  0  0  0
  -24.6403  -11.6917   20.8654 C   0  0  0  0  0  0
  -23.9066  -10.4305   21.0349 C   0  0  0  0  0  0
  -24.3579   -9.4231   21.9150 C   0  0  0  0  0  0
  -23.6276   -8.2251   22.0754 C   0  0  0  0  0  0
  -22.4264   -8.0274   21.3547 C   0  0  0  0  0  0
  -21.9888   -9.0258   20.4658 C   0  0  0  0  0  0
  -22.7218  -10.2129   20.3038 C   0  0  0  0  0  0
  -21.6873   -6.0713   22.5285 C   0  0  0  0  0  0
  -21.4036   -6.5618   23.8219 C   0  0  0  0  0  0
  -21.3671   -5.6764   24.9178 C   0  0  0  0  0  0
  -21.6049   -4.3029   24.7224 C   0  0  0  0  0  0
  -21.8828   -3.8122   23.4354 C   0  0  0  0  0  0
  -21.9206   -4.6938   22.3410 C   0  0  0  0  0  0
  -22.7899  -13.5232   21.1778 C   0  0  0  0  0  0
  -22.1652   -4.2109   21.0985 F   0  0  0  0  0  0
  -21.5647   -3.4521   25.7742 F   0  0  0  0  0  0
  -30.0551  -13.2759   20.5050 N   0  0  0  0  0  0
  -26.3079  -12.9348   20.3329 N   0  0  0  0  0  0
  -25.9369  -11.6505   20.5761 N   0  0  0  0  0  0
  -22.0466  -12.8309   22.0338 N   0  0  0  0  0  0
  -25.4343  -15.1886   20.4052 N   0  0  0  0  0  0
  -31.6736  -14.8114   20.0223 O   0  0  0  0  0  0
  -21.6647   -6.8856   21.4248 O   0  0  0  0  0  0
  -22.3627  -14.5513   20.6528 O   0  0  0  0  0  0
  -24.6153  -31.8660   23.2052 C   0  0  0  0  0  0
  -25.9043  -32.4814   23.8332 C   0  0  1  0  0  0
  -27.2294  -27.4113   20.0810 C   0  0  0  0  0  0
  -25.5870  -33.8610   24.2244 N   0  0  0  0  0  0
  -23.3960  -30.4877   21.5599 C   0  0  2  0  0  0
  -24.8337  -28.9457   20.1219 C   0  0  0  0  0  0
  -22.7376  -29.4657   22.5119 C   0  0  0  0  0  0
  -18.0245  -28.1374   22.8506 C   0  0  0  0  0  0
  -24.1458  -36.7320   23.2637 C   0  0  0  0  0  0
  -25.9244  -30.8265   21.3475 C   0  0  0  0  0  0
  -26.0020  -29.4566   20.7000 C   0  0  0  0  0  0
  -27.1989  -28.6973   20.6757 C   0  0  0  0  0  0
  -26.0322  -26.9234   19.4976 C   0  0  0  0  0  0
  -24.8430  -27.6752   19.5259 C   0  0  0  0  0  0
  -23.5902  -29.8075   20.1807 C   0  0  0  0  0  0
  -25.4082  -36.3098   24.0319 C   0  0  1  0  0  0
  -20.5826  -28.3630   23.1361 C   0  0  2  0  0  0
  -20.6726  -26.9387   22.5428 C   0  0  0  0  0  0
  -19.5710  -26.6372   21.5227 C   0  0  0  0  0  0
  -18.1898  -26.7931   22.1641 C   0  0  0  0  0  0
  -19.1492  -28.8829   23.2924 C   0  0  0  0  0  0
  -18.9439  -30.1444   23.8904 C   0  0  0  0  0  0
  -17.6444  -30.6594   24.0560 C   0  0  0  0  0  0
  -25.9045  -34.9476   23.5096 C   0  0  0  0  0  0
  -16.5334  -29.9086   23.6331 C   0  0  0  0  0  0
  -16.7239  -28.6501   23.0369 C   0  0  0  0  0  0
  -26.4418  -31.6634   25.0714 C   0  0  0  0  0  0
  -25.3645  -31.3812   26.1436 C   0  0  0  0  0  0
  -27.0218  -30.3065   24.6105 C   0  0  0  0  0  0
  -27.5962  -32.4384   25.7506 C   0  0  0  0  0  0
  -27.5564  -37.1781   24.8446 C   0  0  0  0  0  0
  -21.4122  -29.2989   22.3797 N   0  0  0  0  0  0
  -26.4253  -37.3797   23.9435 N   0  0  0  0  0  0
  -24.6666  -31.0732   22.0968 N   0  0  0  0  0  0
  -23.4161  -28.8222   23.3174 O   0  0  0  0  0  0
  -28.4055  -26.6689   20.0920 O   0  0  0  0  0  0
  -26.5647  -34.8943   22.4685 O   0  0  0  0  0  0
  -23.5365  -32.1429   23.7473 O   0  0  0  0  0  0
  -29.6850  -17.4212   21.1753 C   0  0  0  0  0  0
  -28.7573  -16.2940   23.1190 C   0  0  0  0  0  0
  -28.8046  -18.5423   21.3475 C   0  0  0  0  0  0
  -27.8115  -18.4269   22.3761 C   0  0  0  0  0  0
  -29.6382  -16.2804   22.0225 C   0  0  0  0  0  0
  -27.8429  -17.3426   23.2781 C   0  0  0  0  0  0
  -30.3263  -21.8517   20.1961 C   0  0  0  0  0  0
  -26.6430  -19.4000   22.5599 C   0  0  0  0  0  0
  -31.1866  -19.6647   19.5542 C   0  0  0  0  0  0
  -28.8289  -19.7768   20.3823 C   0  0  0  0  0  0
  -29.1558  -22.8623   20.3248 C   0  0  0  0  0  0
  -29.5217  -24.3908   20.2347 C   0  0  0  0  0  0
  -28.2933  -25.2519   19.8307 C   0  0  0  0  0  0
  -30.4054  -15.0782   21.8640 N   0  0  0  0  0  0
  -30.1127  -20.4960   20.1219 N   0  0  0  0  0  0
  -31.4646  -22.3182   20.0945 O   0  0  0  0  0  0
  -26.9600  -17.2777   24.3053 F   0  0  0  0  0  0
  -31.4842  -12.4324   19.1662 H   0  0  0  0  0  0
  -30.3318  -11.3109   19.8196 H   0  0  0  0  0  0
  -29.7895  -11.8538   17.4338 H   0  0  0  0  0  0
  -29.6924  -13.5547   17.8312 H   0  0  0  0  0  0
  -27.8589  -11.3243   18.8015 H   0  0  0  0  0  0
  -27.3976  -12.6721   17.7828 H   0  0  0  0  0  0
  -27.7274  -14.2618   19.6007 H   0  0  0  0  0  0
  -28.6696  -11.9406   21.3592 H   0  0  0  0  0  0
  -28.4264  -13.5817   21.8740 H   0  0  0  0  0  0
  -25.2709   -9.5729   22.4725 H   0  0  0  0  0  0
  -24.0012   -7.4666   22.7476 H   0  0  0  0  0  0
  -21.0825   -8.8760   19.8970 H   0  0  0  0  0  0
  -22.3675  -10.9640   19.6121 H   0  0  0  0  0  0
  -21.2008   -7.6120   23.9720 H   0  0  0  0  0  0
  -21.1495   -6.0478   25.9079 H   0  0  0  0  0  0
  -22.0593   -2.7578   23.2865 H   0  0  0  0  0  0
  -22.4054  -12.0047   22.4885 H   0  0  0  0  0  0
  -21.1060  -13.1427   22.2419 H   0  0  0  0  0  0
  -24.6551  -15.8332   20.4920 H   0  0  0  0  0  0
  -26.3011  -15.6419   20.1434 H   0  0  0  0  0  0
  -26.7124  -32.5485   23.1119 H   0  0  0  0  0  0
  -24.9862  -33.9757   25.0280 H   0  0  0  0  0  0
  -22.6847  -31.3053   21.4275 H   0  0  0  0  0  0
  -23.3721  -35.9643   23.3258 H   0  0  0  0  0  0
  -24.3534  -36.9002   22.2058 H   0  0  0  0  0  0
  -23.7203  -37.6498   23.6707 H   0  0  0  0  0  0
  -26.0102  -31.5819   20.5645 H   0  0  0  0  0  0
  -26.8220  -30.8961   21.9502 H   0  0  0  0  0  0
  -28.1007  -29.0930   21.1194 H   0  0  0  0  0  0
  -25.9842  -25.9579   19.0148 H   0  0  0  0  0  0
  -23.9367  -27.2684   19.0962 H   0  0  0  0  0  0
  -23.6625  -30.5691   19.4056 H   0  0  0  0  0  0
  -22.7117  -29.2160   19.9168 H   0  0  0  0  0  0
  -25.1262  -36.1913   25.0801 H   0  0  0  0  0  0
  -20.9907  -28.3180   24.1493 H   0  0  0  0  0  0
  -20.5594  -26.2270   23.3611 H   0  0  0  0  0  0
  -21.6603  -26.7413   22.1243 H   0  0  0  0  0  0
  -19.6861  -25.6279   21.1266 H   0  0  0  0  0  0
  -19.6660  -27.3166   20.6750 H   0  0  0  0  0  0
  -17.4167  -26.6664   21.4055 H   0  0  0  0  0  0
  -18.0316  -26.0071   22.9028 H   0  0  0  0  0  0
  -19.7920  -30.7253   24.2291 H   0  0  0  0  0  0
  -17.5004  -31.6289   24.5137 H   0  0  0  0  0  0
  -15.5333  -30.2994   23.7652 H   0  0  0  0  0  0
  -15.8640  -28.0805   22.7109 H   0  0  0  0  0  0
  -24.5809  -30.7169   25.7787 H   0  0  0  0  0  0
  -24.8826  -32.2993   26.4804 H   0  0  0  0  0  0
  -25.7914  -30.9028   27.0263 H   0  0  0  0  0  0
  -26.2762  -29.6918   24.1052 H   0  0  0  0  0  0
  -27.3842  -29.7223   25.4579 H   0  0  0  0  0  0
  -27.8653  -30.4356   23.9327 H   0  0  0  0  0  0
  -27.2553  -33.3715   26.2003 H   0  0  0  0  0  0
  -28.3814  -32.6911   25.0383 H   0  0  0  0  0  0
  -28.0573  -31.8578   26.5510 H   0  0  0  0  0  0
  -28.2537  -38.0125   24.7569 H   0  0  0  0  0  0
  -28.1104  -36.2669   24.6157 H   0  0  0  0  0  0
  -27.2316  -37.1289   25.8852 H   0  0  0  0  0  0
  -20.9320  -29.8661   21.6950 H   0  0  0  0  0  0
  -26.0133  -38.2850   24.1490 H   0  0  0  0  0  0
  -30.3948  -17.3966   20.3675 H   0  0  0  0  0  0
  -28.7269  -15.4720   23.8231 H   0  0  0  0  0  0
  -26.8562  -20.1312   23.3368 H   0  0  0  0  0  0
  -25.7598  -18.8468   22.8898 H   0  0  0  0  0  0
  -26.3210  -19.9028   21.6502 H   0  0  0  0  0  0
  -30.7804  -18.8589   18.9423 H   0  0  0  0  0  0
  -31.8173  -19.2405   20.3373 H   0  0  0  0  0  0
  -31.8371  -20.2177   18.8757 H   0  0  0  0  0  0
  -28.0989  -20.5160   20.7099 H   0  0  0  0  0  0
  -28.4491  -19.4307   19.4179 H   0  0  0  0  0  0
  -28.6377  -22.6953   21.2680 H   0  0  0  0  0  0
  -28.4482  -22.6232   19.5319 H   0  0  0  0  0  0
  -30.3329  -24.5784   19.5262 H   0  0  0  0  0  0
  -29.8914  -24.7223   21.2083 H   0  0  0  0  0  0
  -27.4407  -24.8508   20.3779 H   0  0  0  0  0  0
  -28.0999  -25.0967   18.7683 H   0  0  0  0  0  0
  -30.1888  -14.4024   22.5811 H   0  0  0  0  0  0
  1 25  1  0  0  0
  1 30  2  0  0  0
  1 84  1  0  0  0
  2  3  1  0  0  0
  2 25  1  0  0  0
  2 88  1  0  0  0
  2 89  1  0  0  0
  3  4  1  0  0  0
  3 90  1  0  0  0
  3 91  1  0  0  0
  4  5  1  0  0  0
  4 92  1  0  0  0
  4 93  1  0  0  0
  5  6  1  0  0  0
  5 26  1  0  0  0
  5 94  1  0  0  0
  6 25  1  0  0  0
  6 95  1  0  0  0
  6 96  1  0  0  0
  7  8  2  0  0  0
  7 26  1  0  0  0
  7 29  1  0  0  0
  8  9  1  0  0  0
  8 22  1  0  0  0
  9 10  1  0  0  0
  9 27  2  0  0  0
 10 11  2  0  0  0
 10 15  1  0  0  0
 11 12  1  0  0  0
 11 97  1  0  0  0
 12 13  2  0  0  0
 12 98  1  0  0  0
 13 14  1  0  0  0
 13 31  1  0  0  0
 14 15  2  0  0  0
 14 99  1  0  0  0
 15100  1  0  0  0
 16 17  2  0  0  0
 16 21  1  0  0  0
 16 31  1  0  0  0
 17 18  1  0  0  0
 17101  1  0  0  0
 18 19  2  0  0  0
 18102  1  0  0  0
 19 20  1  0  0  0
 19 24  1  0  0  0
 20 21  2  0  0  0
 20103  1  0  0  0
 21 23  1  0  0  0
 22 28  1  0  0  0
 22 32  2  0  0  0
 26 27  1  0  0  0
 28104  1  0  0  0
 28105  1  0  0  0
 29106  1  0  0  0
 29107  1  0  0  0
 33 34  1  0  0  0
 33 66  1  0  0  0
 33 70  2  0  0  0
 34 36  1  0  0  0
 34 59  1  0  0  0
 34108  1  0  0  0
 35 44  2  0  0  0
 35 45  1  0  0  0
 35 68  1  0  0  0
 36 56  1  0  0  0
 36109  1  0  0  0
 37 39  1  0  0  0
 37 47  1  0  0  0
 37 66  1  0  0  0
 37110  1  0  0  0
 38 43  2  0  0  0
 38 46  1  0  0  0
 38 47  1  0  0  0
 39 64  1  0  0  0
 39 67  2  0  0  0
 40 52  1  0  0  0
 40 53  2  0  0  0
 40 58  1  0  0  0
 41111  1  0  0  0
 41112  1  0  0  0
 41113  1  0  0  0
 41 48  1  0  0  0
 42 43  1  0  0  0
 42 66  1  0  0  0
 42114  1  0  0  0
 42115  1  0  0  0
 43 44  1  0  0  0
 44116  1  0  0  0
 45 46  2  0  0  0
 45117  1  0  0  0
 46118  1  0  0  0
 47119  1  0  0  0
 47120  1  0  0  0
 48 56  1  0  0  0
 48 65  1  0  0  0
 48121  1  0  0  0
 49 50  1  0  0  0
 49 53  1  0  0  0
 49 64  1  0  0  0
 49122  1  0  0  0
 50 51  1  0  0  0
 50123  1  0  0  0
 50124  1  0  0  0
 51 52  1  0  0  0
 51125  1  0  0  0
 51126  1  0  0  0
 52127  1  0  0  0
 52128  1  0  0  0
 53 54  1  0  0  0
 54 55  2  0  0  0
 54129  1  0  0  0
 55 57  1  0  0  0
 55130  1  0  0  0
 56 69  2  0  0  0
 57 58  2  0  0  0
 57131  1  0  0  0
 58132  1  0  0  0
 59 60  1  0  0  0
 59 61  1  0  0  0
 59 62  1  0  0  0
 60133  1  0  0  0
 60134  1  0  0  0
 60135  1  0  0  0
 61136  1  0  0  0
 61137  1  0  0  0
 61138  1  0  0  0
 62139  1  0  0  0
 62140  1  0  0  0
 62141  1  0  0  0
 63 65  1  0  0  0
 63142  1  0  0  0
 63143  1  0  0  0
 63144  1  0  0  0
 64145  1  0  0  0
 65146  1  0  0  0
 68 83  1  0  0  0
 71 73  2  0  0  0
 71 75  1  0  0  0
 71147  1  0  0  0
 72 75  2  0  0  0
 72 76  1  0  0  0
 72148  1  0  0  0
 73 74  1  0  0  0
 73 80  1  0  0  0
 74 76  2  0  0  0
 74 78  1  0  0  0
 75 84  1  0  0  0
 76 87  1  0  0  0
 77 81  1  0  0  0
 77 85  1  0  0  0
 77 86  2  0  0  0
 78149  1  0  0  0
 78150  1  0  0  0
 78151  1  0  0  0
 79 85  1  0  0  0
 79152  1  0  0  0
 79153  1  0  0  0
 79154  1  0  0  0
 80 85  1  0  0  0
 80155  1  0  0  0
 80156  1  0  0  0
 81 82  1  0  0  0
 81157  1  0  0  0
 81158  1  0  0  0
 82 83  1  0  0  0
 82159  1  0  0  0
 82160  1  0  0  0
 83161  1  0  0  0
 83162  1  0  0  0
 84163  1  0  0  0
M  ISO  4   1 100  68 101  83 101  84 100
M  END
> <chiral flag>
0

> <version>
0

> <s_m_source_file>
/data/baiqing/PycharmProjects/Reinvent-master-3.2/result/LINK_invent/BTK/process_docking_weight1_custom_product_contain_oxygen_bond_distance_aromatic_linkinvent_7_9_3/rearranged_h_0058.sdf

> <i_m_source_file_index>
39

> <r_mmod_Potential_Energy-OPLS-2005>
6.41782331466675

> <r_mmod_Stretch_Energy-OPLS-2005>
56.893611907959

> <r_mmod_Bend_Energy-OPLS-2005>
128.957916259766

> <r_mmod_Torsional_Energy-OPLS-2005>
261.52392578125

> <r_mmod_Improper_Torsional_Energy-OPLS-2005>
8.66346836090088

> <r_mmod_Van_der_Waal_Energy-OPLS-2005>
164.974822998047

> <r_mmod_Electrostatic_Energy-OPLS-2005>
-398.634704589844

> <r_mmod_Solvation_Energy-OPLS-2005>
-232.87727355957

> <b_mmod_Minimization_Converged-OPLS-2005>
0

> <r_mmod_RMS_Derivative-OPLS-2005>
6.9982442855835

$$$$
39
                    3D
 Structure written by MMmdl.
159167  0  0  1  0            999 V2000
  -30.6668  -14.6148   20.3601 C   0  0  0  0  0  0
  -30.4290  -12.3428   19.4449 C   0  0  0  0  0  0
  -29.4984  -12.3673   18.2171 C   0  0  0  0  0  0
  -28.0144  -12.2969   18.6349 C   0  0  0  0  0  0
  -27.6436  -13.2170   19.8314 C   0  0  2  0  0  0
  -28.6982  -13.1549   20.9558 C   0  0  0  0  0  0
  -25.2559  -13.8199   20.5700 C   0  0  0  0  0  0
  -24.1814  -13.0481   20.9177 C   0  0  0  0  0  0
  -24.6388  -11.6944   20.8739 C   0  0  0  0  0  0
  -23.9050  -10.4314   21.0386 C   0  0  0  0  0  0
  -24.3606   -9.4225   21.9152 C   0  0  0  0  0  0
  -23.6286   -8.2262   22.0739 C   0  0  0  0  0  0
  -22.4268   -8.0277   21.3544 C   0  0  0  0  0  0
  -21.9897   -9.0248   20.4650 C   0  0  0  0  0  0
  -22.7221  -10.2135   20.3041 C   0  0  0  0  0  0
  -21.6866   -6.0726   22.5265 C   0  0  0  0  0  0
  -21.4035   -6.5630   23.8200 C   0  0  0  0  0  0
  -21.3654   -5.6778   24.9153 C   0  0  0  0  0  0
  -21.6048   -4.3045   24.7207 C   0  0  0  0  0  0
  -21.8825   -3.8138   23.4330 C   0  0  0  0  0  0
  -21.9201   -4.6954   22.3385 C   0  0  0  0  0  0
  -22.7830  -13.5250   21.1823 C   0  0  0  0  0  0
  -22.1664   -4.2145   21.0964 F   0  0  0  0  0  0
  -21.5621   -3.4527   25.7717 F   0  0  0  0  0  0
  -29.9975  -13.4282   20.3392 N   0  0  0  0  0  0
  -26.2975  -12.9393   20.3261 N   0  0  0  0  0  0
  -25.9323  -11.6559   20.5783 N   0  0  0  0  0  0
  -22.0490  -12.8245   22.0390 N   0  0  0  0  0  0
  -25.4269  -15.1918   20.4105 N   0  0  0  0  0  0
  -31.8998  -14.6396   20.2951 O   0  0  0  0  0  0
  -21.6655   -6.8865   21.4223 O   0  0  0  0  0  0
  -22.3501  -14.5542   20.6645 O   0  0  0  0  0  0
  -24.6198  -31.8630   23.2032 C   0  0  0  0  0  0
  -25.9077  -32.4789   23.8337 C   0  0  1  0  0  0
  -27.2266  -27.3773   20.1134 C   0  0  0  0  0  0
  -25.5932  -33.8578   24.2285 N   0  0  0  0  0  0
  -23.4095  -30.4891   21.5408 C   0  0  2  0  0  0
  -24.8576  -28.9479   20.1060 C   0  0  0  0  0  0
  -22.7433  -29.4664   22.4906 C   0  0  0  0  0  0
  -18.0289  -28.1411   22.8483 C   0  0  0  0  0  0
  -24.1505  -36.7298   23.2626 C   0  0  0  0  0  0
  -25.9431  -30.8176   21.3600 C   0  0  0  0  0  0
  -26.0205  -29.4475   20.7057 C   0  0  0  0  0  0
  -27.2101  -28.6743   20.6943 C   0  0  0  0  0  0
  -26.0459  -26.9064   19.5029 C   0  0  0  0  0  0
  -24.8707  -27.6833   19.4934 C   0  0  0  0  0  0
  -23.6196  -29.8190   20.1558 C   0  0  0  0  0  0
  -25.4117  -36.3083   24.0318 C   0  0  1  0  0  0
  -20.5883  -28.3710   23.1291 C   0  0  2  0  0  0
  -20.6780  -26.9443   22.5403 C   0  0  0  0  0  0
  -19.5763  -26.6407   21.5206 C   0  0  0  0  0  0
  -18.1944  -26.7952   22.1621 C   0  0  0  0  0  0
  -19.1538  -28.8863   23.2901 C   0  0  0  0  0  0
  -18.9460  -30.1459   23.8919 C   0  0  0  0  0  0
  -17.6460  -30.6602   24.0572 C   0  0  0  0  0  0
  -25.9039  -34.9449   23.5095 C   0  0  0  0  0  0
  -16.5349  -29.9104   23.6339 C   0  0  0  0  0  0
  -16.7271  -28.6534   23.0338 C   0  0  0  0  0  0
  -26.4490  -31.6571   25.0678 C   0  0  0  0  0  0
  -25.3730  -31.3692   26.1414 C   0  0  0  0  0  0
  -27.0301  -30.2997   24.6068 C   0  0  0  0  0  0
  -27.6079  -32.4268   25.7447 C   0  0  0  0  0  0
  -27.5583  -37.1804   24.8462 C   0  0  0  0  0  0
  -21.4149  -29.3067   22.3664 N   0  0  0  0  0  0
  -26.4304  -37.3771   23.9408 N   0  0  0  0  0  0
  -24.6761  -31.0721   22.0929 N   0  0  0  0  0  0
  -23.4187  -28.8187   23.2947 O   0  0  0  0  0  0
  -28.3723  -26.5932   20.1297 O   0  0  0  0  0  0
  -26.5604  -34.8906   22.4656 O   0  0  0  0  0  0
  -23.5390  -32.1385   23.7433 O   0  0  0  0  0  0
  -29.6203  -19.3912   22.1623 C   0  0  0  0  0  0
  -30.1336  -16.9997   22.0345 C   0  0  0  0  0  0
  -29.0944  -18.1348   20.1448 C   0  0  0  0  0  0
  -29.1413  -19.3943   20.8339 C   0  0  0  0  0  0
  -29.7095  -16.9318   20.6834 C   0  0  0  0  0  0
  -30.0657  -18.1993   22.7661 C   0  0  0  0  0  0
  -29.7504  -15.7665   17.4425 C   0  0  0  0  0  0
  -28.4447  -22.8252   19.3920 C   0  0  0  0  0  0
  -28.2727  -24.1821   19.4013 C   0  0  0  0  0  0
  -30.3983  -16.0576   18.5849 C   0  0  0  0  0  0
  -28.6699  -21.9223   20.5333 C   0  0  0  0  0  0
  -28.3059  -18.1121   18.8390 C   0  0  0  0  0  0
  -28.2429  -25.2006   20.5523 C   0  0  0  0  0  0
  -28.7553  -20.6196   20.1420 N   0  0  0  0  0  0
  -29.9771  -15.7188   19.8871 N   0  0  0  0  0  0
  -28.7449  -22.2887   21.7074 O   0  0  0  0  0  0
  -30.5819  -18.2204   24.4143 Cl  0  0  0  0  0  0
  -31.4648  -12.4534   19.1173 H   0  0  0  0  0  0
  -30.3736  -11.3844   19.9614 H   0  0  0  0  0  0
  -29.7340  -11.5288   17.5596 H   0  0  0  0  0  0
  -29.6882  -13.2477   17.6174 H   0  0  0  0  0  0
  -27.8156  -11.2584   18.9002 H   0  0  0  0  0  0
  -27.3716  -12.5133   17.7818 H   0  0  0  0  0  0
  -27.6377  -14.2336   19.4385 H   0  0  0  0  0  0
  -28.7080  -12.1819   21.4467 H   0  0  0  0  0  0
  -28.4792  -13.8990   21.7227 H   0  0  0  0  0  0
  -25.2767   -9.5723   22.4713 H   0  0  0  0  0  0
  -24.0019   -7.4663   22.7462 H   0  0  0  0  0  0
  -21.0831   -8.8765   19.8954 H   0  0  0  0  0  0
  -22.3666  -10.9667   19.6151 H   0  0  0  0  0  0
  -21.2051   -7.6147   23.9703 H   0  0  0  0  0  0
  -21.1463   -6.0506   25.9058 H   0  0  0  0  0  0
  -22.0615   -2.7601   23.2826 H   0  0  0  0  0  0
  -22.4126  -11.9940   22.4844 H   0  0  0  0  0  0
  -21.1098  -13.1234   22.2554 H   0  0  0  0  0  0
  -24.6679  -15.8509   20.5370 H   0  0  0  0  0  0
  -26.2927  -15.6341   20.1335 H   0  0  0  0  0  0
  -26.7134  -32.5479   23.1087 H   0  0  0  0  0  0
  -25.0121  -33.9734   25.0462 H   0  0  0  0  0  0
  -22.6989  -31.3073   21.3984 H   0  0  0  0  0  0
  -23.3761  -35.9645   23.3295 H   0  0  0  0  0  0
  -24.3593  -36.8908   22.2040 H   0  0  0  0  0  0
  -23.7275  -37.6504   23.6641 H   0  0  0  0  0  0
  -26.0566  -31.5843   20.5916 H   0  0  0  0  0  0
  -26.8307  -30.8727   21.9784 H   0  0  0  0  0  0
  -28.1087  -29.0565   21.1547 H   0  0  0  0  0  0
  -26.0313  -25.9374   19.0248 H   0  0  0  0  0  0
  -23.9816  -27.2972   19.0164 H   0  0  0  0  0  0
  -23.7246  -30.5926   19.3938 H   0  0  0  0  0  0
  -22.7437  -29.2375   19.8637 H   0  0  0  0  0  0
  -25.1313  -36.1916   25.0811 H   0  0  0  0  0  0
  -21.0010  -28.3292   24.1396 H   0  0  0  0  0  0
  -20.5705  -26.2314   23.3600 H   0  0  0  0  0  0
  -21.6646  -26.7489   22.1183 H   0  0  0  0  0  0
  -19.6926  -25.6322   21.1234 H   0  0  0  0  0  0
  -19.6696  -27.3220   20.6739 H   0  0  0  0  0  0
  -17.4210  -26.6696   21.4029 H   0  0  0  0  0  0
  -18.0354  -26.0106   22.9026 H   0  0  0  0  0  0
  -19.7917  -30.7286   24.2304 H   0  0  0  0  0  0
  -17.5001  -31.6286   24.5179 H   0  0  0  0  0  0
  -15.5355  -30.3011   23.7646 H   0  0  0  0  0  0
  -15.8674  -28.0861   22.7028 H   0  0  0  0  0  0
  -24.5950  -30.6985   25.7756 H   0  0  0  0  0  0
  -24.8857  -32.2838   26.4793 H   0  0  0  0  0  0
  -25.8061  -30.8921   27.0205 H   0  0  0  0  0  0
  -26.2829  -29.6772   24.1129 H   0  0  0  0  0  0
  -27.4066  -29.7236   25.4525 H   0  0  0  0  0  0
  -27.8672  -30.4314   23.9207 H   0  0  0  0  0  0
  -27.2736  -33.3578   26.2035 H   0  0  0  0  0  0
  -28.3893  -32.6787   25.0266 H   0  0  0  0  0  0
  -28.0733  -31.8349   26.5346 H   0  0  0  0  0  0
  -28.2612  -38.0095   24.7507 H   0  0  0  0  0  0
  -28.1070  -36.2616   24.6301 H   0  0  0  0  0  0
  -27.2289  -37.1471   25.8865 H   0  0  0  0  0  0
  -20.9292  -29.8761   21.6867 H   0  0  0  0  0  0
  -26.0178  -38.2846   24.1406 H   0  0  0  0  0  0
  -29.6534  -20.2960   22.7473 H   0  0  0  0  0  0
  -30.5578  -16.1421   22.5349 H   0  0  0  0  0  0
  -30.1610  -16.0727   16.4904 H   0  0  0  0  0  0
  -28.8076  -15.2426   17.4269 H   0  0  0  0  0  0
  -28.4085  -22.3699   18.4113 H   0  0  0  0  0  0
  -28.1195  -24.6423   18.4354 H   0  0  0  0  0  0
  -31.3273  -16.6136   18.5759 H   0  0  0  0  0  0
  -27.4704  -18.8088   18.8522 H   0  0  0  0  0  0
  -27.8547  -17.1328   18.6834 H   0  0  0  0  0  0
  -28.9393  -18.3622   17.9891 H   0  0  0  0  0  0
  -27.3401  -25.0480   21.1463 H   0  0  0  0  0  0
  -29.0794  -24.9837   21.2172 H   0  0  0  0  0  0
  -28.5801  -20.4979   19.1550 H   0  0  0  0  0  0
  1 25  1  0  0  0
  1 30  2  0  0  0
  1 85  1  0  0  0
  2  3  1  0  0  0
  2 25  1  0  0  0
  2 88  1  0  0  0
  2 89  1  0  0  0
  3  4  1  0  0  0
  3 90  1  0  0  0
  3 91  1  0  0  0
  4  5  1  0  0  0
  4 92  1  0  0  0
  4 93  1  0  0  0
  5  6  1  0  0  0
  5 26  1  0  0  0
  5 94  1  0  0  0
  6 25  1  0  0  0
  6 95  1  0  0  0
  6 96  1  0  0  0
  7  8  2  0  0  0
  7 26  1  0  0  0
  7 29  1  0  0  0
  8  9  1  0  0  0
  8 22  1  0  0  0
  9 10  1  0  0  0
  9 27  2  0  0  0
 10 11  2  0  0  0
 10 15  1  0  0  0
 11 12  1  0  0  0
 11 97  1  0  0  0
 12 13  2  0  0  0
 12 98  1  0  0  0
 13 14  1  0  0  0
 13 31  1  0  0  0
 14 15  2  0  0  0
 14 99  1  0  0  0
 15100  1  0  0  0
 16 17  2  0  0  0
 16 21  1  0  0  0
 16 31  1  0  0  0
 17 18  1  0  0  0
 17101  1  0  0  0
 18 19  2  0  0  0
 18102  1  0  0  0
 19 20  1  0  0  0
 19 24  1  0  0  0
 20 21  2  0  0  0
 20103  1  0  0  0
 21 23  1  0  0  0
 22 28  1  0  0  0
 22 32  2  0  0  0
 26 27  1  0  0  0
 28104  1  0  0  0
 28105  1  0  0  0
 29106  1  0  0  0
 29107  1  0  0  0
 33 34  1  0  0  0
 33 66  1  0  0  0
 33 70  2  0  0  0
 34 36  1  0  0  0
 34 59  1  0  0  0
 34108  1  0  0  0
 35 44  2  0  0  0
 35 45  1  0  0  0
 35 68  1  0  0  0
 36 56  1  0  0  0
 36109  1  0  0  0
 37 39  1  0  0  0
 37 47  1  0  0  0
 37 66  1  0  0  0
 37110  1  0  0  0
 38 43  2  0  0  0
 38 46  1  0  0  0
 38 47  1  0  0  0
 39 64  1  0  0  0
 39 67  2  0  0  0
 40 52  1  0  0  0
 40 53  2  0  0  0
 40 58  1  0  0  0
 41111  1  0  0  0
 41112  1  0  0  0
 41113  1  0  0  0
 41 48  1  0  0  0
 42 43  1  0  0  0
 42 66  1  0  0  0
 42114  1  0  0  0
 42115  1  0  0  0
 43 44  1  0  0  0
 44116  1  0  0  0
 45 46  2  0  0  0
 45117  1  0  0  0
 46118  1  0  0  0
 47119  1  0  0  0
 47120  1  0  0  0
 48 56  1  0  0  0
 48 65  1  0  0  0
 48121  1  0  0  0
 49 50  1  0  0  0
 49 53  1  0  0  0
 49 64  1  0  0  0
 49122  1  0  0  0
 50 51  1  0  0  0
 50123  1  0  0  0
 50124  1  0  0  0
 51 52  1  0  0  0
 51125  1  0  0  0
 51126  1  0  0  0
 52127  1  0  0  0
 52128  1  0  0  0
 53 54  1  0  0  0
 54 55  2  0  0  0
 54129  1  0  0  0
 55 57  1  0  0  0
 55130  1  0  0  0
 56 69  2  0  0  0
 57 58  2  0  0  0
 57131  1  0  0  0
 58132  1  0  0  0
 59 60  1  0  0  0
 59 61  1  0  0  0
 59 62  1  0  0  0
 60133  1  0  0  0
 60134  1  0  0  0
 60135  1  0  0  0
 61136  1  0  0  0
 61137  1  0  0  0
 61138  1  0  0  0
 62139  1  0  0  0
 62140  1  0  0  0
 62141  1  0  0  0
 63 65  1  0  0  0
 63142  1  0  0  0
 63143  1  0  0  0
 63144  1  0  0  0
 64145  1  0  0  0
 65146  1  0  0  0
 68 83  1  0  0  0
 71 74  2  0  0  0
 71 76  1  0  0  0
 71147  1  0  0  0
 72 75  1  0  0  0
 72 76  2  0  0  0
 72148  1  0  0  0
 73 74  1  0  0  0
 73 75  2  0  0  0
 73 82  1  0  0  0
 74 84  1  0  0  0
 75 85  1  0  0  0
 76 87  1  0  0  0
 77 80  2  0  0  0
 77149  1  0  0  0
 77150  1  0  0  0
 78 79  2  0  0  0
 78 81  1  0  0  0
 78151  1  0  0  0
 79 83  1  0  0  0
 79152  1  0  0  0
 80 85  1  0  0  0
 80153  1  0  0  0
 81 84  1  0  0  0
 81 86  2  0  0  0
 82154  1  0  0  0
 82155  1  0  0  0
 82156  1  0  0  0
 83157  1  0  0  0
 83158  1  0  0  0
 84159  1  0  0  0
M  ISO  4   1 100  68 101  83 101  85 100
M  END
> <chiral flag>
0

> <version>
0

> <s_m_source_file>
/data/baiqing/PycharmProjects/Reinvent-master-3.2/result/LINK_invent/BTK/process_docking_weight1_custom_product_contain_oxygen_bond_distance_aromatic_linkinvent_7_9_3/rearranged_h_0058.sdf

> <i_m_source_file_index>
40

> <r_mmod_Potential_Energy-OPLS-2005>
260.918518066406

> <r_mmod_Stretch_Energy-OPLS-2005>
69.3330688476562

> <r_mmod_Bend_Energy-OPLS-2005>
146.988891601562

> <r_mmod_Torsional_Energy-OPLS-2005>
369.233703613281

> <r_mmod_Improper_Torsional_Energy-OPLS-2005>
23.1050434112549

> <r_mmod_Van_der_Waal_Energy-OPLS-2005>
164.270065307617

> <r_mmod_Electrostatic_Energy-OPLS-2005>
-347.145751953125

> <r_mmod_Solvation_Energy-OPLS-2005>
-218.569564819336

> <b_mmod_Minimization_Converged-OPLS-2005>
0

> <r_mmod_RMS_Derivative-OPLS-2005>
3.21826791763306

$$$$
40
                    3D
 Structure written by MMmdl.
154162  0  0  1  0            999 V2000
  -30.6188  -14.7529   20.4384 C   0  0  0  0  0  0
  -30.4276  -12.4573   19.4854 C   0  0  0  0  0  0
  -29.5149  -12.5292   18.2417 C   0  0  0  0  0  0
  -28.0349  -12.3597   18.6391 C   0  0  0  0  0  0
  -27.6456  -13.2399   19.8562 C   0  0  2  0  0  0
  -28.6893  -13.1779   20.9936 C   0  0  0  0  0  0
  -25.2517  -13.8220   20.5700 C   0  0  0  0  0  0
  -24.1823  -13.0453   20.9206 C   0  0  0  0  0  0
  -24.6398  -11.6935   20.8703 C   0  0  0  0  0  0
  -23.9033  -10.4336   21.0363 C   0  0  0  0  0  0
  -24.3593   -9.4264   21.9136 C   0  0  0  0  0  0
  -23.6294   -8.2282   22.0707 C   0  0  0  0  0  0
  -22.4279   -8.0287   21.3516 C   0  0  0  0  0  0
  -21.9892   -9.0239   20.4619 C   0  0  0  0  0  0
  -22.7193  -10.2143   20.3018 C   0  0  0  0  0  0
  -21.6833   -6.0750   22.5287 C   0  0  0  0  0  0
  -21.4005   -6.5654   23.8216 C   0  0  0  0  0  0
  -21.3677   -5.6789   24.9179 C   0  0  0  0  0  0
  -21.6045   -4.3048   24.7213 C   0  0  0  0  0  0
  -21.8822   -3.8136   23.4338 C   0  0  0  0  0  0
  -21.9200   -4.6978   22.3397 C   0  0  0  0  0  0
  -22.7872  -13.5242   21.1885 C   0  0  0  0  0  0
  -22.1661   -4.2177   21.0971 F   0  0  0  0  0  0
  -21.5626   -3.4534   25.7714 F   0  0  0  0  0  0
  -29.9973  -13.5228   20.4225 N   0  0  0  0  0  0
  -26.2959  -12.9452   20.3303 N   0  0  0  0  0  0
  -25.9344  -11.6587   20.5727 N   0  0  0  0  0  0
  -22.0506  -12.8242   22.0442 N   0  0  0  0  0  0
  -25.4182  -15.1960   20.4135 N   0  0  0  0  0  0
  -31.7907  -14.8422   20.0589 O   0  0  0  0  0  0
  -21.6629   -6.8894   21.4241 O   0  0  0  0  0  0
  -22.3570  -14.5532   20.6706 O   0  0  0  0  0  0
  -24.6317  -31.8565   23.1977 C   0  0  0  0  0  0
  -25.9154  -32.4750   23.8325 C   0  0  1  0  0  0
  -27.2360  -27.2672   20.1248 C   0  0  0  0  0  0
  -25.5978  -33.8562   24.2251 N   0  0  0  0  0  0
  -23.4299  -30.4763   21.5387 C   0  0  2  0  0  0
  -24.8782  -28.9236   20.1120 C   0  0  0  0  0  0
  -22.7502  -29.4629   22.4906 C   0  0  0  0  0  0
  -18.0312  -28.1404   22.8479 C   0  0  0  0  0  0
  -24.1490  -36.7261   23.2634 C   0  0  0  0  0  0
  -25.9748  -30.7674   21.3782 C   0  0  0  0  0  0
  -26.0472  -29.3916   20.7223 C   0  0  0  0  0  0
  -27.2265  -28.5742   20.7199 C   0  0  0  0  0  0
  -26.0415  -26.8786   19.4735 C   0  0  0  0  0  0
  -24.8798  -27.6730   19.4817 C   0  0  0  0  0  0
  -23.6472  -29.8045   20.1576 C   0  0  0  0  0  0
  -25.4117  -36.3048   24.0318 C   0  0  1  0  0  0
  -20.5913  -28.3709   23.1238 C   0  0  2  0  0  0
  -20.6790  -26.9419   22.5387 C   0  0  0  0  0  0
  -19.5773  -26.6384   21.5196 C   0  0  0  0  0  0
  -18.1957  -26.7940   22.1600 C   0  0  0  0  0  0
  -19.1560  -28.8869   23.2858 C   0  0  0  0  0  0
  -18.9479  -30.1466   23.8878 C   0  0  0  0  0  0
  -17.6476  -30.6588   24.0559 C   0  0  0  0  0  0
  -25.9066  -34.9427   23.5070 C   0  0  0  0  0  0
  -16.5382  -29.9069   23.6334 C   0  0  0  0  0  0
  -16.7296  -28.6496   23.0352 C   0  0  0  0  0  0
  -26.4536  -31.6556   25.0698 C   0  0  0  0  0  0
  -25.3758  -31.3690   26.1403 C   0  0  0  0  0  0
  -27.0420  -30.2991   24.6200 C   0  0  0  0  0  0
  -27.6114  -32.4305   25.7461 C   0  0  0  0  0  0
  -27.5593  -37.1760   24.8447 C   0  0  0  0  0  0
  -21.4206  -29.3063   22.3617 N   0  0  0  0  0  0
  -26.4267  -37.3774   23.9432 N   0  0  0  0  0  0
  -24.6971  -31.0512   22.0951 N   0  0  0  0  0  0
  -23.4173  -28.8157   23.3026 O   0  0  0  0  0  0
  -28.3359  -26.3720   20.2001 O   0  0  0  0  0  0
  -26.5607  -34.8926   22.4631 O   0  0  0  0  0  0
  -23.5466  -32.1380   23.7251 O   0  0  0  0  0  0
  -29.7871  -18.4665   17.9516 C   0  0  0  0  0  0
  -29.8633  -17.2550   18.6683 C   0  0  0  0  0  0
  -29.7569  -18.5269   20.7308 C   0  0  0  0  0  0
  -29.7055  -19.7232   18.5944 C   0  0  0  0  0  0
  -29.6568  -19.8016   20.0178 C   0  0  0  0  0  0
  -29.8775  -17.2253   20.0810 C   0  0  0  0  0  0
  -29.1197  -23.8030   20.4389 C   0  0  0  0  0  0
  -29.7136  -20.9593   17.7004 C   0  0  0  0  0  0
  -29.5955  -21.2145   20.7727 C   0  0  0  0  0  0
  -28.1081  -24.9136   19.8825 C   0  0  0  0  0  0
  -29.8901  -15.8941   20.7536 N   0  0  0  0  0  0
  -28.8928  -22.4508   20.2086 N   0  0  0  0  0  0
  -30.0975  -24.1719   21.0947 O   0  0  0  0  0  0
  -31.4718  -12.5651   19.1873 H   0  0  0  0  0  0
  -30.3519  -11.4794   19.9632 H   0  0  0  0  0  0
  -29.8027  -11.7700   17.5140 H   0  0  0  0  0  0
  -29.6564  -13.4909   17.7481 H   0  0  0  0  0  0
  -27.8728  -11.3072   18.8696 H   0  0  0  0  0  0
  -27.3794  -12.5841   17.7970 H   0  0  0  0  0  0
  -27.6413  -14.2683   19.4921 H   0  0  0  0  0  0
  -28.7238  -12.1853   21.4473 H   0  0  0  0  0  0
  -28.4254  -13.8731   21.7901 H   0  0  0  0  0  0
  -25.2736   -9.5767   22.4724 H   0  0  0  0  0  0
  -24.0023   -7.4664   22.7423 H   0  0  0  0  0  0
  -21.0828   -8.8702   19.8957 H   0  0  0  0  0  0
  -22.3562  -10.9652   19.6124 H   0  0  0  0  0  0
  -21.1974   -7.6147   23.9722 H   0  0  0  0  0  0
  -21.1509   -6.0520   25.9089 H   0  0  0  0  0  0
  -22.0592   -2.7617   23.2795 H   0  0  0  0  0  0
  -22.4039  -11.9864   22.4823 H   0  0  0  0  0  0
  -21.1127  -13.1284   22.2588 H   0  0  0  0  0  0
  -24.6567  -15.8492   20.5605 H   0  0  0  0  0  0
  -26.2389  -15.6301   20.0099 H   0  0  0  0  0  0
  -26.7210  -32.5375   23.1050 H   0  0  0  0  0  0
  -25.0197  -33.9707   25.0441 H   0  0  0  0  0  0
  -22.7298  -31.2983   21.3852 H   0  0  0  0  0  0
  -23.3802  -35.9536   23.3191 H   0  0  0  0  0  0
  -24.3606  -36.8995   22.2068 H   0  0  0  0  0  0
  -23.7175  -37.6406   23.6726 H   0  0  0  0  0  0
  -26.1090  -31.5278   20.6055 H   0  0  0  0  0  0
  -26.8536  -30.8188   22.0085 H   0  0  0  0  0  0
  -28.1180  -28.9354   21.2110 H   0  0  0  0  0  0
  -25.9690  -25.9344   18.9569 H   0  0  0  0  0  0
  -23.9859  -27.3056   18.9953 H   0  0  0  0  0  0
  -23.7637  -30.5704   19.3933 H   0  0  0  0  0  0
  -22.7720  -29.2237   19.8579 H   0  0  0  0  0  0
  -25.1293  -36.1873   25.0809 H   0  0  0  0  0  0
  -21.0043  -28.3292   24.1343 H   0  0  0  0  0  0
  -20.5653  -26.2345   23.3607 H   0  0  0  0  0  0
  -21.6659  -26.7411   22.1194 H   0  0  0  0  0  0
  -19.6901  -25.6278   21.1230 H   0  0  0  0  0  0
  -19.6688  -27.3180   20.6711 H   0  0  0  0  0  0
  -17.4224  -26.6701   21.4004 H   0  0  0  0  0  0
  -18.0349  -26.0078   22.8989 H   0  0  0  0  0  0
  -19.7970  -30.7302   24.2215 H   0  0  0  0  0  0
  -17.5043  -31.6271   24.5162 H   0  0  0  0  0  0
  -15.5373  -30.2970   23.7694 H   0  0  0  0  0  0
  -15.8709  -28.0821   22.7062 H   0  0  0  0  0  0
  -24.5987  -30.6988   25.7693 H   0  0  0  0  0  0
  -24.8884  -32.2843   26.4781 H   0  0  0  0  0  0
  -25.8071  -30.8888   27.0195 H   0  0  0  0  0  0
  -26.3009  -29.6694   24.1274 H   0  0  0  0  0  0
  -27.4161  -29.7308   25.4720 H   0  0  0  0  0  0
  -27.8854  -30.4271   23.9429 H   0  0  0  0  0  0
  -27.2769  -33.3654   26.1974 H   0  0  0  0  0  0
  -28.3965  -32.6774   25.0300 H   0  0  0  0  0  0
  -28.0740  -31.8457   26.5416 H   0  0  0  0  0  0
  -28.2512  -38.0158   24.7687 H   0  0  0  0  0  0
  -28.1202  -36.2716   24.6044 H   0  0  0  0  0  0
  -27.2343  -37.1127   25.8848 H   0  0  0  0  0  0
  -20.9399  -29.8768   21.6797 H   0  0  0  0  0  0
  -26.0133  -38.2815   24.1564 H   0  0  0  0  0  0
  -29.7994  -18.4244   16.8699 H   0  0  0  0  0  0
  -29.8967  -16.3385   18.0976 H   0  0  0  0  0  0
  -29.7519  -18.5619   21.8136 H   0  0  0  0  0  0
  -30.0029  -20.7122   16.6764 H   0  0  0  0  0  0
  -30.4270  -21.7057   18.0553 H   0  0  0  0  0  0
  -28.7246  -21.4126   17.6502 H   0  0  0  0  0  0
  -30.6260  -21.4864   21.0040 H   0  0  0  0  0  0
  -29.1344  -21.0298   21.7439 H   0  0  0  0  0  0
  -27.1344  -24.6093   20.2662 H   0  0  0  0  0  0
  -28.0786  -24.8138   18.7973 H   0  0  0  0  0  0
  -29.0981  -15.7226   21.3555 H   0  0  0  0  0  0
  -28.0643  -22.2470   19.6693 H   0  0  0  0  0  0
  1 25  1  0  0  0
  1 30  2  0  0  0
  1 81  1  0  0  0
  2  3  1  0  0  0
  2 25  1  0  0  0
  2 84  1  0  0  0
  2 85  1  0  0  0
  3  4  1  0  0  0
  3 86  1  0  0  0
  3 87  1  0  0  0
  4  5  1  0  0  0
  4 88  1  0  0  0
  4 89  1  0  0  0
  5  6  1  0  0  0
  5 26  1  0  0  0
  5 90  1  0  0  0
  6 25  1  0  0  0
  6 91  1  0  0  0
  6 92  1  0  0  0
  7  8  2  0  0  0
  7 26  1  0  0  0
  7 29  1  0  0  0
  8  9  1  0  0  0
  8 22  1  0  0  0
  9 10  1  0  0  0
  9 27  2  0  0  0
 10 11  2  0  0  0
 10 15  1  0  0  0
 11 12  1  0  0  0
 11 93  1  0  0  0
 12 13  2  0  0  0
 12 94  1  0  0  0
 13 14  1  0  0  0
 13 31  1  0  0  0
 14 15  2  0  0  0
 14 95  1  0  0  0
 15 96  1  0  0  0
 16 17  2  0  0  0
 16 21  1  0  0  0
 16 31  1  0  0  0
 17 18  1  0  0  0
 17 97  1  0  0  0
 18 19  2  0  0  0
 18 98  1  0  0  0
 19 20  1  0  0  0
 19 24  1  0  0  0
 20 21  2  0  0  0
 20 99  1  0  0  0
 21 23  1  0  0  0
 22 28  1  0  0  0
 22 32  2  0  0  0
 26 27  1  0  0  0
 28100  1  0  0  0
 28101  1  0  0  0
 29102  1  0  0  0
 29103  1  0  0  0
 33 34  1  0  0  0
 33 66  1  0  0  0
 33 70  2  0  0  0
 34 36  1  0  0  0
 34 59  1  0  0  0
 34104  1  0  0  0
 35 44  2  0  0  0
 35 45  1  0  0  0
 35 68  1  0  0  0
 36 56  1  0  0  0
 36105  1  0  0  0
 37 39  1  0  0  0
 37 47  1  0  0  0
 37 66  1  0  0  0
 37106  1  0  0  0
 38 43  2  0  0  0
 38 46  1  0  0  0
 38 47  1  0  0  0
 39 64  1  0  0  0
 39 67  2  0  0  0
 40 52  1  0  0  0
 40 53  2  0  0  0
 40 58  1  0  0  0
 41107  1  0  0  0
 41108  1  0  0  0
 41109  1  0  0  0
 41 48  1  0  0  0
 42 43  1  0  0  0
 42 66  1  0  0  0
 42110  1  0  0  0
 42111  1  0  0  0
 43 44  1  0  0  0
 44112  1  0  0  0
 45 46  2  0  0  0
 45113  1  0  0  0
 46114  1  0  0  0
 47115  1  0  0  0
 47116  1  0  0  0
 48 56  1  0  0  0
 48 65  1  0  0  0
 48117  1  0  0  0
 49 50  1  0  0  0
 49 53  1  0  0  0
 49 64  1  0  0  0
 49118  1  0  0  0
 50 51  1  0  0  0
 50119  1  0  0  0
 50120  1  0  0  0
 51 52  1  0  0  0
 51121  1  0  0  0
 51122  1  0  0  0
 52123  1  0  0  0
 52124  1  0  0  0
 53 54  1  0  0  0
 54 55  2  0  0  0
 54125  1  0  0  0
 55 57  1  0  0  0
 55126  1  0  0  0
 56 69  2  0  0  0
 57 58  2  0  0  0
 57127  1  0  0  0
 58128  1  0  0  0
 59 60  1  0  0  0
 59 61  1  0  0  0
 59 62  1  0  0  0
 60129  1  0  0  0
 60130  1  0  0  0
 60131  1  0  0  0
 61132  1  0  0  0
 61133  1  0  0  0
 61134  1  0  0  0
 62135  1  0  0  0
 62136  1  0  0  0
 62137  1  0  0  0
 63 65  1  0  0  0
 63138  1  0  0  0
 63139  1  0  0  0
 63140  1  0  0  0
 64141  1  0  0  0
 65142  1  0  0  0
 68 80  1  0  0  0
 71 72  2  0  0  0
 71 74  1  0  0  0
 71143  1  0  0  0
 72 76  1  0  0  0
 72144  1  0  0  0
 73 75  1  0  0  0
 73 76  2  0  0  0
 73145  1  0  0  0
 74 75  2  0  0  0
 74 78  1  0  0  0
 75 79  1  0  0  0
 76 81  1  0  0  0
 77 80  1  0  0  0
 77 82  1  0  0  0
 77 83  2  0  0  0
 78146  1  0  0  0
 78147  1  0  0  0
 78148  1  0  0  0
 79 82  1  0  0  0
 79149  1  0  0  0
 79150  1  0  0  0
 80151  1  0  0  0
 80152  1  0  0  0
 81153  1  0  0  0
 82154  1  0  0  0
M  ISO  4   1 100  68 101  80 101  81 100
M  END
> <chiral flag>
0

> <version>
0

> <s_m_source_file>
/data/baiqing/PycharmProjects/Reinvent-master-3.2/result/LINK_invent/BTK/process_docking_weight1_custom_product_contain_oxygen_bond_distance_aromatic_linkinvent_7_9_3/rearranged_h_0058.sdf

> <i_m_source_file_index>
41

> <r_mmod_Potential_Energy-OPLS-2005>
100.975120544434

> <r_mmod_Stretch_Energy-OPLS-2005>
128.956878662109

> <r_mmod_Bend_Energy-OPLS-2005>
159.108367919922

> <r_mmod_Torsional_Energy-OPLS-2005>
237.841979980469

> <r_mmod_Improper_Torsional_Energy-OPLS-2005>
4.69848155975342

> <r_mmod_Van_der_Waal_Energy-OPLS-2005>
139.847930908203

> <r_mmod_Electrostatic_Energy-OPLS-2005>
-404.097412109375

> <r_mmod_Solvation_Energy-OPLS-2005>
-251.028945922852

> <b_mmod_Minimization_Converged-OPLS-2005>
0

> <r_mmod_RMS_Derivative-OPLS-2005>
5.51674318313599

$$$$
41
                    3D
 Structure written by MMmdl.
157165  0  0  1  0            999 V2000
  -30.6873  -14.4723   20.5503 C   0  0  0  0  0  0
  -30.4249  -12.2992   19.4265 C   0  0  0  0  0  0
  -29.4977  -12.5008   18.2088 C   0  0  0  0  0  0
  -28.0170  -12.3661   18.6193 C   0  0  0  0  0  0
  -27.6628  -13.2059   19.8760 C   0  0  2  0  0  0
  -28.7026  -12.9812   20.9978 C   0  0  0  0  0  0
  -25.2597  -13.8162   20.5682 C   0  0  0  0  0  0
  -24.1843  -13.0442   20.9170 C   0  0  0  0  0  0
  -24.6391  -11.6907   20.8726 C   0  0  0  0  0  0
  -23.9053  -10.4295   21.0403 C   0  0  0  0  0  0
  -24.3607   -9.4212   21.9185 C   0  0  0  0  0  0
  -23.6288   -8.2243   22.0756 C   0  0  0  0  0  0
  -22.4272   -8.0278   21.3545 C   0  0  0  0  0  0
  -21.9899   -9.0250   20.4648 C   0  0  0  0  0  0
  -22.7223  -10.2132   20.3057 C   0  0  0  0  0  0
  -21.6851   -6.0731   22.5278 C   0  0  0  0  0  0
  -21.4011   -6.5637   23.8209 C   0  0  0  0  0  0
  -21.3659   -5.6791   24.9173 C   0  0  0  0  0  0
  -21.6045   -4.3054   24.7223 C   0  0  0  0  0  0
  -21.8820   -3.8142   23.4346 C   0  0  0  0  0  0
  -21.9193   -4.6959   22.3403 C   0  0  0  0  0  0
  -22.7868  -13.5244   21.1838 C   0  0  0  0  0  0
  -22.1663   -4.2143   21.0980 F   0  0  0  0  0  0
  -21.5632   -3.4536   25.7739 F   0  0  0  0  0  0
  -30.0372  -13.2819   20.4509 N   0  0  0  0  0  0
  -26.3026  -12.9325   20.3360 N   0  0  0  0  0  0
  -25.9317  -11.6486   20.5758 N   0  0  0  0  0  0
  -22.0501  -12.8244   22.0393 N   0  0  0  0  0  0
  -25.4341  -15.1879   20.4109 N   0  0  0  0  0  0
  -31.8280  -14.6426   20.1099 O   0  0  0  0  0  0
  -21.6639   -6.8873   21.4241 O   0  0  0  0  0  0
  -22.3559  -14.5552   20.6691 O   0  0  0  0  0  0
  -24.6134  -31.8680   23.2103 C   0  0  0  0  0  0
  -25.9028  -32.4820   23.8405 C   0  0  1  0  0  0
  -27.2344  -27.4474   20.0982 C   0  0  0  0  0  0
  -25.5888  -33.8616   24.2342 N   0  0  0  0  0  0
  -23.4018  -30.4920   21.5492 C   0  0  2  0  0  0
  -24.8503  -28.9591   20.1121 C   0  0  0  0  0  0
  -22.7404  -29.4664   22.4979 C   0  0  0  0  0  0
  -18.0265  -28.1375   22.8498 C   0  0  0  0  0  0
  -24.1483  -36.7316   23.2639 C   0  0  0  0  0  0
  -25.9289  -30.8384   21.3607 C   0  0  0  0  0  0
  -26.0093  -29.4733   20.7094 C   0  0  0  0  0  0
  -27.2075  -28.7245   20.7004 C   0  0  0  0  0  0
  -26.0652  -26.9452   19.4914 C   0  0  0  0  0  0
  -24.8724  -27.6934   19.4989 C   0  0  0  0  0  0
  -23.6107  -29.8233   20.1639 C   0  0  0  0  0  0
  -25.4097  -36.3106   24.0346 C   0  0  1  0  0  0
  -20.5857  -28.3661   23.1322 C   0  0  2  0  0  0
  -20.6760  -26.9399   22.5420 C   0  0  0  0  0  0
  -19.5739  -26.6388   21.5214 C   0  0  0  0  0  0
  -18.1915  -26.7926   22.1625 C   0  0  0  0  0  0
  -19.1515  -28.8833   23.2909 C   0  0  0  0  0  0
  -18.9450  -30.1442   23.8912 C   0  0  0  0  0  0
  -17.6455  -30.6589   24.0568 C   0  0  0  0  0  0
  -25.9026  -34.9473   23.5143 C   0  0  0  0  0  0
  -16.5344  -29.9098   23.6326 C   0  0  0  0  0  0
  -16.7255  -28.6514   23.0348 C   0  0  0  0  0  0
  -26.4458  -31.6587   25.0722 C   0  0  0  0  0  0
  -25.3739  -31.3702   26.1490 C   0  0  0  0  0  0
  -27.0279  -30.3035   24.6068 C   0  0  0  0  0  0
  -27.6049  -32.4292   25.7473 C   0  0  0  0  0  0
  -27.5581  -37.1805   24.8463 C   0  0  0  0  0  0
  -21.4130  -29.3036   22.3736 N   0  0  0  0  0  0
  -26.4283  -37.3791   23.9419 N   0  0  0  0  0  0
  -24.6662  -31.0800   22.0992 N   0  0  0  0  0  0
  -23.4185  -28.8201   23.3012 O   0  0  0  0  0  0
  -28.3687  -26.6711   20.1171 O   0  0  0  0  0  0
  -26.5589  -34.8927   22.4704 O   0  0  0  0  0  0
  -23.5333  -32.1418   23.7516 O   0  0  0  0  0  0
  -30.6243  -18.7628   19.2779 C   0  0  0  0  0  0
  -28.8563  -19.0680   20.9116 C   0  0  0  0  0  0
  -30.7658  -17.4170   19.6742 C   0  0  0  0  0  0
  -28.9942  -17.7169   21.3069 C   0  0  0  0  0  0
  -29.6574  -19.5969   19.8771 C   0  0  0  0  0  0
  -29.9375  -16.8653   20.6846 C   0  0  0  0  0  0
  -29.0619  -23.3491   20.0668 C   0  0  0  0  0  0
  -30.7428  -21.9740   21.2690 C   0  0  0  0  0  0
  -29.4420  -21.0192   19.3422 C   0  0  0  0  0  0
  -29.3904  -24.5466   20.9881 C   0  0  0  0  0  0
  -28.2885  -25.6291   21.1015 C   0  0  0  0  0  0
  -29.9534  -15.4817   21.0642 N   0  0  0  0  0  0
  -29.6926  -22.1556   20.2574 N   0  0  0  0  0  0
  -28.2336  -23.5112   19.1645 O   0  0  0  0  0  0
  -31.4696  -12.3963   19.1260 H   0  0  0  0  0  0
  -30.3236  -11.2873   19.8215 H   0  0  0  0  0  0
  -29.7358  -11.7732   17.4311 H   0  0  0  0  0  0
  -29.6707  -13.4846   17.7700 H   0  0  0  0  0  0
  -27.8235  -11.3108   18.8144 H   0  0  0  0  0  0
  -27.3683  -12.6420   17.7867 H   0  0  0  0  0  0
  -27.7089  -14.2545   19.5806 H   0  0  0  0  0  0
  -28.6740  -11.9449   21.3366 H   0  0  0  0  0  0
  -28.4639  -13.5788   21.8787 H   0  0  0  0  0  0
  -25.2756   -9.5686   22.4757 H   0  0  0  0  0  0
  -23.9997   -7.4633   22.7476 H   0  0  0  0  0  0
  -21.0828   -8.8763   19.8960 H   0  0  0  0  0  0
  -22.3681  -10.9665   19.6160 H   0  0  0  0  0  0
  -21.1999   -7.6148   23.9709 H   0  0  0  0  0  0
  -21.1483   -6.0525   25.9076 H   0  0  0  0  0  0
  -22.0601   -2.7607   23.2848 H   0  0  0  0  0  0
  -22.4109  -11.9901   22.4780 H   0  0  0  0  0  0
  -21.1121  -13.1280   22.2595 H   0  0  0  0  0  0
  -24.6712  -15.8463   20.5232 H   0  0  0  0  0  0
  -26.2918  -15.6250   20.0971 H   0  0  0  0  0  0
  -26.7106  -32.5541   23.1180 H   0  0  0  0  0  0
  -25.0048  -33.9775   25.0496 H   0  0  0  0  0  0
  -22.6901  -31.3086   21.4101 H   0  0  0  0  0  0
  -23.3741  -35.9651   23.3286 H   0  0  0  0  0  0
  -24.3592  -36.8937   22.2056 H   0  0  0  0  0  0
  -23.7238  -37.6522   23.6652 H   0  0  0  0  0  0
  -26.0385  -31.6034   20.5907 H   0  0  0  0  0  0
  -26.8183  -30.8948   21.9766 H   0  0  0  0  0  0
  -28.1013  -29.1134   21.1687 H   0  0  0  0  0  0
  -26.0799  -25.9698   19.0244 H   0  0  0  0  0  0
  -23.9825  -27.2922   19.0338 H   0  0  0  0  0  0
  -23.7187  -30.5975   19.4033 H   0  0  0  0  0  0
  -22.7351  -29.2421   19.8686 H   0  0  0  0  0  0
  -25.1270  -36.1962   25.0839 H   0  0  0  0  0  0
  -20.9947  -28.3214   24.1441 H   0  0  0  0  0  0
  -20.5658  -26.2266   23.3603 H   0  0  0  0  0  0
  -21.6633  -26.7449   22.1208 H   0  0  0  0  0  0
  -19.6901  -25.6303   21.1231 H   0  0  0  0  0  0
  -19.6675  -27.3212   20.6754 H   0  0  0  0  0  0
  -17.4188  -26.6672   21.4022 H   0  0  0  0  0  0
  -18.0315  -26.0063   22.9015 H   0  0  0  0  0  0
  -19.7930  -30.7254   24.2276 H   0  0  0  0  0  0
  -17.5020  -31.6268   24.5173 H   0  0  0  0  0  0
  -15.5349  -30.3014   23.7644 H   0  0  0  0  0  0
  -15.8651  -28.0853   22.7039 H   0  0  0  0  0  0
  -24.5877  -30.7080   25.7840 H   0  0  0  0  0  0
  -24.8973  -32.2870   26.4973 H   0  0  0  0  0  0
  -25.8107  -30.8843   27.0226 H   0  0  0  0  0  0
  -26.2815  -29.6802   24.1130 H   0  0  0  0  0  0
  -27.4082  -29.7249   25.4497 H   0  0  0  0  0  0
  -27.8632  -30.4370   23.9190 H   0  0  0  0  0  0
  -27.2688  -33.3595   26.2063 H   0  0  0  0  0  0
  -28.3848  -32.6839   25.0284 H   0  0  0  0  0  0
  -28.0720  -31.8399   26.5375 H   0  0  0  0  0  0
  -28.2585  -38.0114   24.7524 H   0  0  0  0  0  0
  -28.1088  -36.2651   24.6255 H   0  0  0  0  0  0
  -27.2317  -37.1411   25.8870 H   0  0  0  0  0  0
  -20.9275  -29.8788   21.6995 H   0  0  0  0  0  0
  -26.0169  -38.2868   24.1420 H   0  0  0  0  0  0
  -31.2502  -19.1439   18.4825 H   0  0  0  0  0  0
  -28.1070  -19.6886   21.3832 H   0  0  0  0  0  0
  -31.5013  -16.8232   19.1537 H   0  0  0  0  0  0
  -28.3425  -17.3339   22.0803 H   0  0  0  0  0  0
  -30.2989  -21.8279   22.2544 H   0  0  0  0  0  0
  -31.4131  -22.8327   21.3187 H   0  0  0  0  0  0
  -31.3798  -21.1146   21.0633 H   0  0  0  0  0  0
  -28.4118  -21.0431   18.9815 H   0  0  0  0  0  0
  -30.0609  -21.1697   18.4565 H   0  0  0  0  0  0
  -30.3341  -24.9962   20.6809 H   0  0  0  0  0  0
  -29.5442  -24.1597   21.9954 H   0  0  0  0  0  0
  -28.3714  -26.1027   22.0807 H   0  0  0  0  0  0
  -27.3081  -25.1490   21.0939 H   0  0  0  0  0  0
  -29.1375  -15.1711   21.5697 H   0  0  0  0  0  0
  1 25  1  0  0  0
  1 30  2  0  0  0
  1 82  1  0  0  0
  2  3  1  0  0  0
  2 25  1  0  0  0
  2 85  1  0  0  0
  2 86  1  0  0  0
  3  4  1  0  0  0
  3 87  1  0  0  0
  3 88  1  0  0  0
  4  5  1  0  0  0
  4 89  1  0  0  0
  4 90  1  0  0  0
  5  6  1  0  0  0
  5 26  1  0  0  0
  5 91  1  0  0  0
  6 25  1  0  0  0
  6 92  1  0  0  0
  6 93  1  0  0  0
  7  8  2  0  0  0
  7 26  1  0  0  0
  7 29  1  0  0  0
  8  9  1  0  0  0
  8 22  1  0  0  0
  9 10  1  0  0  0
  9 27  2  0  0  0
 10 11  2  0  0  0
 10 15  1  0  0  0
 11 12  1  0  0  0
 11 94  1  0  0  0
 12 13  2  0  0  0
 12 95  1  0  0  0
 13 14  1  0  0  0
 13 31  1  0  0  0
 14 15  2  0  0  0
 14 96  1  0  0  0
 15 97  1  0  0  0
 16 17  2  0  0  0
 16 21  1  0  0  0
 16 31  1  0  0  0
 17 18  1  0  0  0
 17 98  1  0  0  0
 18 19  2  0  0  0
 18 99  1  0  0  0
 19 20  1  0  0  0
 19 24  1  0  0  0
 20 21  2  0  0  0
 20100  1  0  0  0
 21 23  1  0  0  0
 22 28  1  0  0  0
 22 32  2  0  0  0
 26 27  1  0  0  0
 28101  1  0  0  0
 28102  1  0  0  0
 29103  1  0  0  0
 29104  1  0  0  0
 33 34  1  0  0  0
 33 66  1  0  0  0
 33 70  2  0  0  0
 34 36  1  0  0  0
 34 59  1  0  0  0
 34105  1  0  0  0
 35 44  2  0  0  0
 35 45  1  0  0  0
 35 68  1  0  0  0
 36 56  1  0  0  0
 36106  1  0  0  0
 37 39  1  0  0  0
 37 47  1  0  0  0
 37 66  1  0  0  0
 37107  1  0  0  0
 38 43  2  0  0  0
 38 46  1  0  0  0
 38 47  1  0  0  0
 39 64  1  0  0  0
 39 67  2  0  0  0
 40 52  1  0  0  0
 40 53  2  0  0  0
 40 58  1  0  0  0
 41108  1  0  0  0
 41109  1  0  0  0
 41110  1  0  0  0
 41 48  1  0  0  0
 42 43  1  0  0  0
 42 66  1  0  0  0
 42111  1  0  0  0
 42112  1  0  0  0
 43 44  1  0  0  0
 44113  1  0  0  0
 45 46  2  0  0  0
 45114  1  0  0  0
 46115  1  0  0  0
 47116  1  0  0  0
 47117  1  0  0  0
 48 56  1  0  0  0
 48 65  1  0  0  0
 48118  1  0  0  0
 49 50  1  0  0  0
 49 53  1  0  0  0
 49 64  1  0  0  0
 49119  1  0  0  0
 50 51  1  0  0  0
 50120  1  0  0  0
 50121  1  0  0  0
 51 52  1  0  0  0
 51122  1  0  0  0
 51123  1  0  0  0
 52124  1  0  0  0
 52125  1  0  0  0
 53 54  1  0  0  0
 54 55  2  0  0  0
 54126  1  0  0  0
 55 57  1  0  0  0
 55127  1  0  0  0
 56 69  2  0  0  0
 57 58  2  0  0  0
 57128  1  0  0  0
 58129  1  0  0  0
 59 60  1  0  0  0
 59 61  1  0  0  0
 59 62  1  0  0  0
 60130  1  0  0  0
 60131  1  0  0  0
 60132  1  0  0  0
 61133  1  0  0  0
 61134  1  0  0  0
 61135  1  0  0  0
 62136  1  0  0  0
 62137  1  0  0  0
 62138  1  0  0  0
 63 65  1  0  0  0
 63139  1  0  0  0
 63140  1  0  0  0
 63141  1  0  0  0
 64142  1  0  0  0
 65143  1  0  0  0
 68 81  1  0  0  0
 71 73  2  0  0  0
 71 75  1  0  0  0
 71144  1  0  0  0
 72 74  1  0  0  0
 72 75  2  0  0  0
 72145  1  0  0  0
 73 76  1  0  0  0
 73146  1  0  0  0
 74 76  2  0  0  0
 74147  1  0  0  0
 75 79  1  0  0  0
 76 82  1  0  0  0
 77 80  1  0  0  0
 77 83  1  0  0  0
 77 84  2  0  0  0
 78 83  1  0  0  0
 78148  1  0  0  0
 78149  1  0  0  0
 78150  1  0  0  0
 79 83  1  0  0  0
 79151  1  0  0  0
 79152  1  0  0  0
 80 81  1  0  0  0
 80153  1  0  0  0
 80154  1  0  0  0
 81155  1  0  0  0
 81156  1  0  0  0
 82157  1  0  0  0
M  ISO  4   1 100  68 101  81 101  82 100
M  END
> <chiral flag>
0

> <version>
0

> <s_m_source_file>
/data/baiqing/PycharmProjects/Reinvent-master-3.2/result/LINK_invent/BTK/process_docking_weight1_custom_product_contain_oxygen_bond_distance_aromatic_linkinvent_7_9_3/rearranged_h_0058.sdf

> <i_m_source_file_index>
42

> <r_mmod_Potential_Energy-OPLS-2005>
-50.8997077941895

> <r_mmod_Stretch_Energy-OPLS-2005>
39.8721160888672

> <r_mmod_Bend_Energy-OPLS-2005>
98.5852813720703

> <r_mmod_Torsional_Energy-OPLS-2005>
251.276214599609

> <r_mmod_Improper_Torsional_Energy-OPLS-2005>
4.21750116348267

> <r_mmod_Van_der_Waal_Energy-OPLS-2005>
163.873397827148

> <r_mmod_Electrostatic_Energy-OPLS-2005>
-392.501434326172

> <r_mmod_Solvation_Energy-OPLS-2005>
-229.358688354492

> <b_mmod_Minimization_Converged-OPLS-2005>
0

> <r_mmod_RMS_Derivative-OPLS-2005>
0.977296650409698

$$$$
42
                    3D
 Structure written by MMmdl.
162171  0  0  1  0            999 V2000
  -30.6684  -14.4720   20.5366 C   0  0  0  0  0  0
  -30.4268  -12.2925   19.4171 C   0  0  0  0  0  0
  -29.4973  -12.4816   18.1997 C   0  0  0  0  0  0
  -28.0127  -12.3584   18.6050 C   0  0  0  0  0  0
  -27.6585  -13.1885   19.8686 C   0  0  2  0  0  0
  -28.7002  -12.9628   20.9870 C   0  0  0  0  0  0
  -25.2566  -13.8122   20.5607 C   0  0  0  0  0  0
  -24.1803  -13.0430   20.9133 C   0  0  0  0  0  0
  -24.6321  -11.6884   20.8724 C   0  0  0  0  0  0
  -23.8981  -10.4291   21.0411 C   0  0  0  0  0  0
  -24.3540   -9.4230   21.9217 C   0  0  0  0  0  0
  -23.6225   -8.2262   22.0801 C   0  0  0  0  0  0
  -22.4227   -8.0265   21.3561 C   0  0  0  0  0  0
  -21.9835   -9.0242   20.4685 C   0  0  0  0  0  0
  -22.7155  -10.2128   20.3078 C   0  0  0  0  0  0
  -21.6864   -6.0673   22.5266 C   0  0  0  0  0  0
  -21.4020   -6.5600   23.8178 C   0  0  0  0  0  0
  -21.3642   -5.6767   24.9159 C   0  0  0  0  0  0
  -21.6030   -4.3032   24.7233 C   0  0  0  0  0  0
  -21.8836   -3.8109   23.4367 C   0  0  0  0  0  0
  -21.9207   -4.6909   22.3397 C   0  0  0  0  0  0
  -22.7838  -13.5282   21.1731 C   0  0  0  0  0  0
  -22.1690   -4.2081   21.0992 F   0  0  0  0  0  0
  -21.5611   -3.4532   25.7756 F   0  0  0  0  0  0
  -30.0348  -13.2732   20.4376 N   0  0  0  0  0  0
  -26.2981  -12.9238   20.3321 N   0  0  0  0  0  0
  -25.9236  -11.6422   20.5748 N   0  0  0  0  0  0
  -22.0383  -12.8414   22.0303 N   0  0  0  0  0  0
  -25.4270  -15.1838   20.3933 N   0  0  0  0  0  0
  -31.7944  -14.6863   20.0763 O   0  0  0  0  0  0
  -21.6647   -6.8829   21.4218 O   0  0  0  0  0  0
  -22.3582  -14.5585   20.6524 O   0  0  0  0  0  0
  -24.6151  -31.8677   23.2117 C   0  0  0  0  0  0
  -25.9047  -32.4815   23.8405 C   0  0  1  0  0  0
  -27.2463  -27.4490   20.0879 C   0  0  0  0  0  0
  -25.5900  -33.8600   24.2355 N   0  0  0  0  0  0
  -23.4006  -30.4916   21.5519 C   0  0  2  0  0  0
  -24.8476  -28.9565   20.1183 C   0  0  0  0  0  0
  -22.7422  -29.4642   22.5001 C   0  0  0  0  0  0
  -18.0280  -28.1390   22.8503 C   0  0  0  0  0  0
  -24.1459  -36.7254   23.2645 C   0  0  0  0  0  0
  -25.9291  -30.8366   21.3624 C   0  0  0  0  0  0
  -26.0048  -29.4708   20.7124 C   0  0  0  0  0  0
  -27.2027  -28.7242   20.6936 C   0  0  0  0  0  0
  -26.0653  -26.9429   19.4917 C   0  0  0  0  0  0
  -24.8724  -27.6919   19.5047 C   0  0  0  0  0  0
  -23.6088  -29.8224   20.1664 C   0  0  0  0  0  0
  -25.4076  -36.3084   24.0365 C   0  0  1  0  0  0
  -20.5875  -28.3650   23.1332 C   0  0  2  0  0  0
  -20.6767  -26.9384   22.5419 C   0  0  0  0  0  0
  -19.5727  -26.6388   21.5227 C   0  0  0  0  0  0
  -18.1909  -26.7941   22.1635 C   0  0  0  0  0  0
  -19.1533  -28.8844   23.2915 C   0  0  0  0  0  0
  -18.9458  -30.1458   23.8911 C   0  0  0  0  0  0
  -17.6451  -30.6584   24.0578 C   0  0  0  0  0  0
  -25.9028  -34.9459   23.5158 C   0  0  0  0  0  0
  -16.5345  -29.9079   23.6330 C   0  0  0  0  0  0
  -16.7270  -28.6503   23.0345 C   0  0  0  0  0  0
  -26.4495  -31.6566   25.0704 C   0  0  0  0  0  0
  -25.3789  -31.3604   26.1465 C   0  0  0  0  0  0
  -27.0323  -30.3031   24.6007 C   0  0  0  0  0  0
  -27.6102  -32.4259   25.7438 C   0  0  0  0  0  0
  -27.5558  -37.1760   24.8471 C   0  0  0  0  0  0
  -21.4155  -29.3001   22.3732 N   0  0  0  0  0  0
  -26.4251  -37.3779   23.9465 N   0  0  0  0  0  0
  -24.6658  -31.0804   22.0997 N   0  0  0  0  0  0
  -23.4219  -28.8181   23.3016 O   0  0  0  0  0  0
  -28.4585  -26.7900   20.0557 O   0  0  0  0  0  0
  -26.5584  -34.8929   22.4717 O   0  0  0  0  0  0
  -23.5354  -32.1415   23.7537 O   0  0  0  0  0  0
  -29.1002  -19.3722   19.7044 C   0  0  0  0  0  0
  -28.8964  -16.9589   19.4458 C   0  0  0  0  0  0
  -30.2853  -17.8799   21.2313 C   0  0  0  0  0  0
  -28.5526  -18.2643   19.0361 C   0  0  0  0  0  0
  -29.9641  -19.1922   20.8056 C   0  0  0  0  0  0
  -29.7539  -16.7560   20.5539 C   0  0  0  0  0  0
  -31.7433  -23.5243   18.9439 C   0  0  0  0  0  0
  -32.4852  -22.4207   19.0966 C   0  0  0  0  0  0
  -30.5214  -23.7341   19.6876 C   0  0  0  0  0  0
  -32.0924  -21.3807   20.0332 C   0  0  0  0  0  0
  -30.0808  -22.6518   20.5942 C   0  0  0  0  0  0
  -29.8258  -24.8814   19.4770 C   0  0  0  0  0  0
  -27.5377  -18.4901   17.9296 C   0  0  0  0  0  0
  -30.4872  -20.4153   21.5668 C   0  0  0  0  0  0
  -28.4997  -25.3608   20.0553 C   0  0  0  0  0  0
  -30.9018  -21.5496   20.6948 N   0  0  0  0  0  0
  -29.9223  -15.4455   21.0821 N   0  0  0  0  0  0
  -32.8101  -20.3908   20.2075 O   0  0  0  0  0  0
  -29.0211  -22.7068   21.2256 O   0  0  0  0  0  0
  -31.4707  -12.3959   19.1141 H   0  0  0  0  0  0
  -30.3336  -11.2822   19.8170 H   0  0  0  0  0  0
  -29.7341  -11.7395   17.4344 H   0  0  0  0  0  0
  -29.6774  -13.4549   17.7426 H   0  0  0  0  0  0
  -27.8001  -11.3032   18.7771 H   0  0  0  0  0  0
  -27.3793  -12.6613   17.7710 H   0  0  0  0  0  0
  -27.6958  -14.2342   19.5785 H   0  0  0  0  0  0
  -28.6745  -11.9252   21.3215 H   0  0  0  0  0  0
  -28.4536  -13.5528   21.8704 H   0  0  0  0  0  0
  -25.2660   -9.5731   22.4807 H   0  0  0  0  0  0
  -23.9912   -7.4678   22.7548 H   0  0  0  0  0  0
  -21.0755   -8.8749   19.9000 H   0  0  0  0  0  0
  -22.3583  -10.9651   19.6189 H   0  0  0  0  0  0
  -21.2022   -7.6104   23.9653 H   0  0  0  0  0  0
  -21.1438   -6.0516   25.9052 H   0  0  0  0  0  0
  -22.0631   -2.7561   23.2911 H   0  0  0  0  0  0
  -22.3896  -12.0141   22.4897 H   0  0  0  0  0  0
  -21.0999  -13.1559   22.2309 H   0  0  0  0  0  0
  -24.6428  -15.8265   20.4328 H   0  0  0  0  0  0
  -26.2726  -15.6203   20.0516 H   0  0  0  0  0  0
  -26.7104  -32.5541   23.1157 H   0  0  0  0  0  0
  -25.0068  -33.9739   25.0515 H   0  0  0  0  0  0
  -22.6879  -31.3076   21.4151 H   0  0  0  0  0  0
  -23.3751  -35.9550   23.3295 H   0  0  0  0  0  0
  -24.3568  -36.8864   22.2058 H   0  0  0  0  0  0
  -23.7173  -37.6442   23.6661 H   0  0  0  0  0  0
  -26.0447  -31.5996   20.5925 H   0  0  0  0  0  0
  -26.8191  -30.8919   21.9760 H   0  0  0  0  0  0
  -28.1016  -29.1271   21.1395 H   0  0  0  0  0  0
  -26.0443  -25.9944   18.9791 H   0  0  0  0  0  0
  -23.9841  -27.2972   19.0320 H   0  0  0  0  0  0
  -23.7219  -30.5974   19.4077 H   0  0  0  0  0  0
  -22.7327  -29.2432   19.8689 H   0  0  0  0  0  0
  -25.1243  -36.1927   25.0855 H   0  0  0  0  0  0
  -20.9978  -28.3215   24.1447 H   0  0  0  0  0  0
  -20.5673  -26.2246   23.3599 H   0  0  0  0  0  0
  -21.6640  -26.7433   22.1202 H   0  0  0  0  0  0
  -19.6865  -25.6309   21.1218 H   0  0  0  0  0  0
  -19.6647  -27.3230   20.6781 H   0  0  0  0  0  0
  -17.4180  -26.6728   21.4026 H   0  0  0  0  0  0
  -18.0260  -26.0083   22.9014 H   0  0  0  0  0  0
  -19.7931  -30.7292   24.2269 H   0  0  0  0  0  0
  -17.4995  -31.6260   24.5181 H   0  0  0  0  0  0
  -15.5341  -30.2968   23.7650 H   0  0  0  0  0  0
  -15.8679  -28.0824   22.7046 H   0  0  0  0  0  0
  -24.5974  -30.6943   25.7788 H   0  0  0  0  0  0
  -24.8959  -32.2715   26.4992 H   0  0  0  0  0  0
  -25.8177  -30.8713   27.0169 H   0  0  0  0  0  0
  -26.2811  -29.6741   24.1209 H   0  0  0  0  0  0
  -27.4313  -29.7304   25.4390 H   0  0  0  0  0  0
  -27.8552  -30.4404   23.8989 H   0  0  0  0  0  0
  -27.2798  -33.3579   26.2037 H   0  0  0  0  0  0
  -28.3885  -32.6772   25.0217 H   0  0  0  0  0  0
  -28.0798  -31.8348   26.5313 H   0  0  0  0  0  0
  -28.2566  -38.0070   24.7614 H   0  0  0  0  0  0
  -28.1062  -36.2624   24.6176 H   0  0  0  0  0  0
  -27.2313  -37.1290   25.8879 H   0  0  0  0  0  0
  -20.9328  -29.8690   21.6921 H   0  0  0  0  0  0
  -26.0123  -38.2833   24.1541 H   0  0  0  0  0  0
  -28.8216  -20.3681   19.3908 H   0  0  0  0  0  0
  -28.4615  -16.1220   18.9247 H   0  0  0  0  0  0
  -30.9110  -17.7342   22.1017 H   0  0  0  0  0  0
  -32.0727  -24.2664   18.2299 H   0  0  0  0  0  0
  -33.3841  -22.2939   18.5127 H   0  0  0  0  0  0
  -30.2309  -25.5745   18.7509 H   0  0  0  0  0  0
  -27.6752  -19.4624   17.4530 H   0  0  0  0  0  0
  -26.5307  -18.4683   18.3490 H   0  0  0  0  0  0
  -27.6005  -17.7220   17.1595 H   0  0  0  0  0  0
  -31.3186  -20.1174   22.2084 H   0  0  0  0  0  0
  -29.7119  -20.6908   22.2836 H   0  0  0  0  0  0
  -28.3687  -25.0393   21.0859 H   0  0  0  0  0  0
  -27.7236  -24.8975   19.4522 H   0  0  0  0  0  0
  -29.0872  -15.0661   21.5031 H   0  0  0  0  0  0
  1 25  1  0  0  0
  1 30  2  0  0  0
  1 87  1  0  0  0
  2  3  1  0  0  0
  2 25  1  0  0  0
  2 90  1  0  0  0
  2 91  1  0  0  0
  3  4  1  0  0  0
  3 92  1  0  0  0
  3 93  1  0  0  0
  4  5  1  0  0  0
  4 94  1  0  0  0
  4 95  1  0  0  0
  5  6  1  0  0  0
  5 26  1  0  0  0
  5 96  1  0  0  0
  6 25  1  0  0  0
  6 97  1  0  0  0
  6 98  1  0  0  0
  7  8  2  0  0  0
  7 26  1  0  0  0
  7 29  1  0  0  0
  8  9  1  0  0  0
  8 22  1  0  0  0
  9 10  1  0  0  0
  9 27  2  0  0  0
 10 11  2  0  0  0
 10 15  1  0  0  0
 11 12  1  0  0  0
 11 99  1  0  0  0
 12 13  2  0  0  0
 12100  1  0  0  0
 13 14  1  0  0  0
 13 31  1  0  0  0
 14 15  2  0  0  0
 14101  1  0  0  0
 15102  1  0  0  0
 16 17  2  0  0  0
 16 21  1  0  0  0
 16 31  1  0  0  0
 17 18  1  0  0  0
 17103  1  0  0  0
 18 19  2  0  0  0
 18104  1  0  0  0
 19 20  1  0  0  0
 19 24  1  0  0  0
 20 21  2  0  0  0
 20105  1  0  0  0
 21 23  1  0  0  0
 22 28  1  0  0  0
 22 32  2  0  0  0
 26 27  1  0  0  0
 28106  1  0  0  0
 28107  1  0  0  0
 29108  1  0  0  0
 29109  1  0  0  0
 33 34  1  0  0  0
 33 66  1  0  0  0
 33 70  2  0  0  0
 34 36  1  0  0  0
 34 59  1  0  0  0
 34110  1  0  0  0
 35 44  2  0  0  0
 35 45  1  0  0  0
 35 68  1  0  0  0
 36 56  1  0  0  0
 36111  1  0  0  0
 37 39  1  0  0  0
 37 47  1  0  0  0
 37 66  1  0  0  0
 37112  1  0  0  0
 38 43  2  0  0  0
 38 46  1  0  0  0
 38 47  1  0  0  0
 39 64  1  0  0  0
 39 67  2  0  0  0
 40 52  1  0  0  0
 40 53  2  0  0  0
 40 58  1  0  0  0
 41113  1  0  0  0
 41114  1  0  0  0
 41115  1  0  0  0
 41 48  1  0  0  0
 42 43  1  0  0  0
 42 66  1  0  0  0
 42116  1  0  0  0
 42117  1  0  0  0
 43 44  1  0  0  0
 44118  1  0  0  0
 45 46  2  0  0  0
 45119  1  0  0  0
 46120  1  0  0  0
 47121  1  0  0  0
 47122  1  0  0  0
 48 56  1  0  0  0
 48 65  1  0  0  0
 48123  1  0  0  0
 49 50  1  0  0  0
 49 53  1  0  0  0
 49 64  1  0  0  0
 49124  1  0  0  0
 50 51  1  0  0  0
 50125  1  0  0  0
 50126  1  0  0  0
 51 52  1  0  0  0
 51127  1  0  0  0
 51128  1  0  0  0
 52129  1  0  0  0
 52130  1  0  0  0
 53 54  1  0  0  0
 54 55  2  0  0  0
 54131  1  0  0  0
 55 57  1  0  0  0
 55132  1  0  0  0
 56 69  2  0  0  0
 57 58  2  0  0  0
 57133  1  0  0  0
 58134  1  0  0  0
 59 60  1  0  0  0
 59 61  1  0  0  0
 59 62  1  0  0  0
 60135  1  0  0  0
 60136  1  0  0  0
 60137  1  0  0  0
 61138  1  0  0  0
 61139  1  0  0  0
 61140  1  0  0  0
 62141  1  0  0  0
 62142  1  0  0  0
 62143  1  0  0  0
 63 65  1  0  0  0
 63144  1  0  0  0
 63145  1  0  0  0
 63146  1  0  0  0
 64147  1  0  0  0
 65148  1  0  0  0
 68 85  1  0  0  0
 71 74  2  0  0  0
 71 75  1  0  0  0
 71149  1  0  0  0
 72 74  1  0  0  0
 72 76  2  0  0  0
 72150  1  0  0  0
 73 75  2  0  0  0
 73 76  1  0  0  0
 73151  1  0  0  0
 74 83  1  0  0  0
 75 84  1  0  0  0
 76 87  1  0  0  0
 77 78  2  0  0  0
 77 79  1  0  0  0
 77152  1  0  0  0
 78 80  1  0  0  0
 78153  1  0  0  0
 79 81  1  0  0  0
 79 82  2  0  0  0
 80 86  1  0  0  0
 80 88  2  0  0  0
 81 86  1  0  0  0
 81 89  2  0  0  0
 82 85  1  0  0  0
 82154  1  0  0  0
 83155  1  0  0  0
 83156  1  0  0  0
 83157  1  0  0  0
 84 86  1  0  0  0
 84158  1  0  0  0
 84159  1  0  0  0
 85160  1  0  0  0
 85161  1  0  0  0
 87162  1  0  0  0
M  ISO  4   1 100  68 101  85 101  87 100
M  END
> <chiral flag>
0

> <version>
0

> <s_m_source_file>
/data/baiqing/PycharmProjects/Reinvent-master-3.2/result/LINK_invent/BTK/process_docking_weight1_custom_product_contain_oxygen_bond_distance_aromatic_linkinvent_7_9_3/rearranged_h_0058.sdf

> <i_m_source_file_index>
43

> <r_mmod_Potential_Energy-OPLS-2005>
-62.7367515563965

> <r_mmod_Stretch_Energy-OPLS-2005>
46.1655387878418

> <r_mmod_Bend_Energy-OPLS-2005>
121.93904876709

> <r_mmod_Torsional_Energy-OPLS-2005>
244.509765625

> <r_mmod_Improper_Torsional_Energy-OPLS-2005>
7.3558292388916

> <r_mmod_Van_der_Waal_Energy-OPLS-2005>
193.215789794922

> <r_mmod_Electrostatic_Energy-OPLS-2005>
-452.997131347656

> <r_mmod_Solvation_Energy-OPLS-2005>
-235.87141418457

> <b_mmod_Minimization_Converged-OPLS-2005>
0

> <r_mmod_RMS_Derivative-OPLS-2005>
3.57081747055054

$$$$
43
                    3D
 Structure written by MMmdl.
162170  0  0  1  0            999 V2000
  -30.6486  -14.5007   20.6137 C   0  0  0  0  0  0
  -30.4426  -12.3411   19.3990 C   0  0  0  0  0  0
  -29.4901  -12.5296   18.1946 C   0  0  0  0  0  0
  -28.0152  -12.3651   18.6187 C   0  0  0  0  0  0
  -27.6656  -13.1913   19.8821 C   0  0  2  0  0  0
  -28.7137  -12.9355   20.9918 C   0  0  0  0  0  0
  -25.2627  -13.8125   20.5646 C   0  0  0  0  0  0
  -24.1871  -13.0410   20.9169 C   0  0  0  0  0  0
  -24.6409  -11.6871   20.8720 C   0  0  0  0  0  0
  -23.9054  -10.4279   21.0385 C   0  0  0  0  0  0
  -24.3612   -9.4193   21.9149 C   0  0  0  0  0  0
  -23.6298   -8.2223   22.0728 C   0  0  0  0  0  0
  -22.4269   -8.0262   21.3539 C   0  0  0  0  0  0
  -21.9908   -9.0227   20.4635 C   0  0  0  0  0  0
  -22.7230  -10.2104   20.3041 C   0  0  0  0  0  0
  -21.6850   -6.0715   22.5267 C   0  0  0  0  0  0
  -21.4008   -6.5626   23.8197 C   0  0  0  0  0  0
  -21.3665   -5.6794   24.9173 C   0  0  0  0  0  0
  -21.6052   -4.3053   24.7238 C   0  0  0  0  0  0
  -21.8822   -3.8132   23.4362 C   0  0  0  0  0  0
  -21.9199   -4.6940   22.3408 C   0  0  0  0  0  0
  -22.7887  -13.5173   21.1867 C   0  0  0  0  0  0
  -22.1667   -4.2114   21.0988 F   0  0  0  0  0  0
  -21.5637   -3.4549   25.7760 F   0  0  0  0  0  0
  -30.0364  -13.2937   20.4436 N   0  0  0  0  0  0
  -26.3049  -12.9260   20.3396 N   0  0  0  0  0  0
  -25.9338  -11.6422   20.5796 N   0  0  0  0  0  0
  -22.0592  -12.8135   22.0460 N   0  0  0  0  0  0
  -25.4417  -15.1825   20.3970 N   0  0  0  0  0  0
  -31.7749  -14.7571   20.1727 O   0  0  0  0  0  0
  -21.6640   -6.8848   21.4228 O   0  0  0  0  0  0
  -22.3542  -14.5471   20.6737 O   0  0  0  0  0  0
  -24.6162  -31.8674   23.2108 C   0  0  0  0  0  0
  -25.9015  -32.4837   23.8413 C   0  0  1  0  0  0
  -27.2169  -27.4039   20.1066 C   0  0  0  0  0  0
  -25.5820  -33.8632   24.2321 N   0  0  0  0  0  0
  -23.4066  -30.4962   21.5519 C   0  0  2  0  0  0
  -24.8501  -28.9688   20.1081 C   0  0  0  0  0  0
  -22.7426  -29.4668   22.4987 C   0  0  0  0  0  0
  -18.0295  -28.1378   22.8513 C   0  0  0  0  0  0
  -24.1473  -36.7337   23.2656 C   0  0  0  0  0  0
  -25.9409  -30.8274   21.3679 C   0  0  0  0  0  0
  -26.0159  -29.4621   20.7089 C   0  0  0  0  0  0
  -27.2059  -28.6910   20.7018 C   0  0  0  0  0  0
  -26.0394  -26.9469   19.4734 C   0  0  0  0  0  0
  -24.8597  -27.7127   19.4785 C   0  0  0  0  0  0
  -23.6166  -29.8414   20.1644 C   0  0  0  0  0  0
  -25.4107  -36.3152   24.0357 C   0  0  1  0  0  0
  -20.5893  -28.3681   23.1365 C   0  0  2  0  0  0
  -20.6757  -26.9413   22.5448 C   0  0  0  0  0  0
  -19.5765  -26.6418   21.5214 C   0  0  0  0  0  0
  -18.1973  -26.7916   22.1643 C   0  0  0  0  0  0
  -19.1554  -28.8852   23.2949 C   0  0  0  0  0  0
  -18.9478  -30.1441   23.8960 C   0  0  0  0  0  0
  -17.6486  -30.6593   24.0589 C   0  0  0  0  0  0
  -25.9014  -34.9487   23.5163 C   0  0  0  0  0  0
  -16.5385  -29.9097   23.6320 C   0  0  0  0  0  0
  -16.7295  -28.6526   23.0341 C   0  0  0  0  0  0
  -26.4416  -31.6641   25.0750 C   0  0  0  0  0  0
  -25.3670  -31.3718   26.1488 C   0  0  0  0  0  0
  -27.0237  -30.3084   24.6136 C   0  0  0  0  0  0
  -27.6002  -32.4362   25.7514 C   0  0  0  0  0  0
  -27.5594  -37.1845   24.8475 C   0  0  0  0  0  0
  -21.4150  -29.3064   22.3762 N   0  0  0  0  0  0
  -26.4309  -37.3823   23.9415 N   0  0  0  0  0  0
  -24.6738  -31.0755   22.1028 N   0  0  0  0  0  0
  -23.4183  -28.8163   23.2994 O   0  0  0  0  0  0
  -28.3361  -26.5888   20.1624 O   0  0  0  0  0  0
  -26.5616  -34.8943   22.4745 O   0  0  0  0  0  0
  -23.5353  -32.1409   23.7497 O   0  0  0  0  0  0
  -30.1905  -18.2706   23.5052 C   0  0  0  0  0  0
  -30.3150  -16.9848   22.9494 C   0  0  0  0  0  0
  -29.6834  -17.8846   20.7796 C   0  0  0  0  0  0
  -29.5185  -19.1942   21.3329 C   0  0  0  0  0  0
  -29.7548  -19.3684   22.7325 C   0  0  0  0  0  0
  -30.0410  -16.7711   21.5862 C   0  0  0  0  0  0
  -28.9834  -20.2902   20.4731 C   0  0  0  0  0  0
  -29.4974  -20.6688   23.4923 C   0  0  0  0  0  0
  -28.0209  -25.4736   22.2838 C   0  0  0  0  0  0
  -29.1621  -24.1876   20.3862 C   0  0  0  0  0  0
  -28.5625  -22.7704   20.0967 C   0  0  0  0  0  0
  -28.1051  -25.2805   20.7593 C   0  0  2  0  0  0
  -28.0911  -19.9925   19.5280 N   0  0  0  0  0  0
  -29.8254  -15.4305   21.1443 N   0  0  0  0  0  0
  -29.3174  -21.5956   20.6315 N   0  3  0  0  0  0
  -31.4798  -12.4842   19.0901 H   0  0  0  0  0  0
  -30.3761  -11.3204   19.7759 H   0  0  0  0  0  0
  -29.7303  -11.8192   17.4019 H   0  0  0  0  0  0
  -29.6362  -13.5207   17.7637 H   0  0  0  0  0  0
  -27.8405  -11.3048   18.8110 H   0  0  0  0  0  0
  -27.3512  -12.6371   17.7963 H   0  0  0  0  0  0
  -27.7202  -14.2422   19.5961 H   0  0  0  0  0  0
  -28.7133  -11.8837   21.2830 H   0  0  0  0  0  0
  -28.4681  -13.4750   21.9084 H   0  0  0  0  0  0
  -25.2762   -9.5641   22.4726 H   0  0  0  0  0  0
  -23.9993   -7.4606   22.7434 H   0  0  0  0  0  0
  -21.0842   -8.8761   19.8948 H   0  0  0  0  0  0
  -22.3696  -10.9643   19.6157 H   0  0  0  0  0  0
  -21.1993   -7.6138   23.9683 H   0  0  0  0  0  0
  -21.1484   -6.0534   25.9065 H   0  0  0  0  0  0
  -22.0602   -2.7594   23.2891 H   0  0  0  0  0  0
  -22.4285  -11.9765   22.4730 H   0  0  0  0  0  0
  -21.1218  -13.1096   22.2754 H   0  0  0  0  0  0
  -24.6704  -15.8388   20.4590 H   0  0  0  0  0  0
  -26.2921  -15.6070   20.0458 H   0  0  0  0  0  0
  -26.7093  -32.5545   23.1187 H   0  0  0  0  0  0
  -24.9849  -33.9777   25.0380 H   0  0  0  0  0  0
  -22.6954  -31.3168   21.4165 H   0  0  0  0  0  0
  -23.3729  -35.9676   23.3357 H   0  0  0  0  0  0
  -24.3546  -36.8901   22.2057 H   0  0  0  0  0  0
  -23.7206  -37.6557   23.6625 H   0  0  0  0  0  0
  -26.0532  -31.5974   20.6027 H   0  0  0  0  0  0
  -26.8274  -30.8818   21.9885 H   0  0  0  0  0  0
  -28.1033  -29.0582   21.1806 H   0  0  0  0  0  0
  -26.0200  -25.9905   18.9727 H   0  0  0  0  0  0
  -23.9701  -27.3348   18.9924 H   0  0  0  0  0  0
  -23.7350  -30.6297   19.4188 H   0  0  0  0  0  0
  -22.7385  -29.2762   19.8513 H   0  0  0  0  0  0
  -25.1285  -36.2069   25.0855 H   0  0  0  0  0  0
  -21.0028  -28.3256   24.1466 H   0  0  0  0  0  0
  -20.5623  -26.2289   23.3614 H   0  0  0  0  0  0
  -21.6644  -26.7397   22.1285 H   0  0  0  0  0  0
  -19.6956  -25.6372   21.1164 H   0  0  0  0  0  0
  -19.6695  -27.3277   20.6791 H   0  0  0  0  0  0
  -17.4196  -26.6545   21.4147 H   0  0  0  0  0  0
  -18.0484  -26.0099   22.9121 H   0  0  0  0  0  0
  -19.7966  -30.7223   24.2367 H   0  0  0  0  0  0
  -17.5063  -31.6279   24.5179 H   0  0  0  0  0  0
  -15.5383  -30.3035   23.7634 H   0  0  0  0  0  0
  -15.8717  -28.0863   22.7014 H   0  0  0  0  0  0
  -24.5825  -30.7095   25.7799 H   0  0  0  0  0  0
  -24.8849  -32.2845   26.5011 H   0  0  0  0  0  0
  -25.7996  -30.8821   27.0219 H   0  0  0  0  0  0
  -26.2769  -29.6885   24.1168 H   0  0  0  0  0  0
  -27.3944  -29.7290   25.4605 H   0  0  0  0  0  0
  -27.8626  -30.4372   23.9296 H   0  0  0  0  0  0
  -27.2616  -33.3633   26.2152 H   0  0  0  0  0  0
  -28.3777  -32.6999   25.0326 H   0  0  0  0  0  0
  -28.0714  -31.8455   26.5384 H   0  0  0  0  0  0
  -28.2671  -38.0090   24.7499 H   0  0  0  0  0  0
  -28.1023  -36.2630   24.6335 H   0  0  0  0  0  0
  -27.2302  -37.1548   25.8874 H   0  0  0  0  0  0
  -20.9297  -29.8856   21.7052 H   0  0  0  0  0  0
  -26.0231  -38.2928   24.1365 H   0  0  0  0  0  0
  -30.3630  -18.3959   24.5661 H   0  0  0  0  0  0
  -30.5451  -16.1551   23.6014 H   0  0  0  0  0  0
  -29.4455  -17.7068   19.7401 H   0  0  0  0  0  0
  -29.2745  -20.4555   24.5388 H   0  0  0  0  0  0
  -28.6385  -21.2211   23.1167 H   0  0  0  0  0  0
  -30.3716  -21.3177   23.4736 H   0  0  0  0  0  0
  -27.8610  -24.5244   22.7941 H   0  0  0  0  0  0
  -27.1970  -26.1333   22.5616 H   0  0  0  0  0  0
  -28.9383  -25.9172   22.6766 H   0  0  0  0  0  0
  -29.9446  -24.1382   21.1441 H   0  0  0  0  0  0
  -29.6630  -24.5126   19.4753 H   0  0  0  0  0  0
  -28.4406  -22.6626   19.0181 H   0  0  0  0  0  0
  -27.5566  -22.7037   20.5183 H   0  0  0  0  0  0
  -27.1396  -24.8917   20.4365 H   0  0  0  0  0  0
  -27.7428  -19.0476   19.4529 H   0  0  0  0  0  0
  -27.7830  -20.6677   18.8489 H   0  0  0  0  0  0
  -28.9288  -15.0442   21.4014 H   0  0  0  0  0  0
  -30.0463  -21.7772   21.3074 H   0  0  0  0  0  0
  1 25  1  0  0  0
  1 30  2  0  0  0
  1 84  1  0  0  0
  2  3  1  0  0  0
  2 25  1  0  0  0
  2 86  1  0  0  0
  2 87  1  0  0  0
  3  4  1  0  0  0
  3 88  1  0  0  0
  3 89  1  0  0  0
  4  5  1  0  0  0
  4 90  1  0  0  0
  4 91  1  0  0  0
  5  6  1  0  0  0
  5 26  1  0  0  0
  5 92  1  0  0  0
  6 25  1  0  0  0
  6 93  1  0  0  0
  6 94  1  0  0  0
  7  8  2  0  0  0
  7 26  1  0  0  0
  7 29  1  0  0  0
  8  9  1  0  0  0
  8 22  1  0  0  0
  9 10  1  0  0  0
  9 27  2  0  0  0
 10 11  2  0  0  0
 10 15  1  0  0  0
 11 12  1  0  0  0
 11 95  1  0  0  0
 12 13  2  0  0  0
 12 96  1  0  0  0
 13 14  1  0  0  0
 13 31  1  0  0  0
 14 15  2  0  0  0
 14 97  1  0  0  0
 15 98  1  0  0  0
 16 17  2  0  0  0
 16 21  1  0  0  0
 16 31  1  0  0  0
 17 18  1  0  0  0
 17 99  1  0  0  0
 18 19  2  0  0  0
 18100  1  0  0  0
 19 20  1  0  0  0
 19 24  1  0  0  0
 20 21  2  0  0  0
 20101  1  0  0  0
 21 23  1  0  0  0
 22 28  1  0  0  0
 22 32  2  0  0  0
 26 27  1  0  0  0
 28102  1  0  0  0
 28103  1  0  0  0
 29104  1  0  0  0
 29105  1  0  0  0
 33 34  1  0  0  0
 33 66  1  0  0  0
 33 70  2  0  0  0
 34 36  1  0  0  0
 34 59  1  0  0  0
 34106  1  0  0  0
 35 44  2  0  0  0
 35 45  1  0  0  0
 35 68  1  0  0  0
 36 56  1  0  0  0
 36107  1  0  0  0
 37 39  1  0  0  0
 37 47  1  0  0  0
 37 66  1  0  0  0
 37108  1  0  0  0
 38 43  2  0  0  0
 38 46  1  0  0  0
 38 47  1  0  0  0
 39 64  1  0  0  0
 39 67  2  0  0  0
 40 52  1  0  0  0
 40 53  2  0  0  0
 40 58  1  0  0  0
 41109  1  0  0  0
 41110  1  0  0  0
 41111  1  0  0  0
 41 48  1  0  0  0
 42 43  1  0  0  0
 42 66  1  0  0  0
 42112  1  0  0  0
 42113  1  0  0  0
 43 44  1  0  0  0
 44114  1  0  0  0
 45 46  2  0  0  0
 45115  1  0  0  0
 46116  1  0  0  0
 47117  1  0  0  0
 47118  1  0  0  0
 48 56  1  0  0  0
 48 65  1  0  0  0
 48119  1  0  0  0
 49 50  1  0  0  0
 49 53  1  0  0  0
 49 64  1  0  0  0
 49120  1  0  0  0
 50 51  1  0  0  0
 50121  1  0  0  0
 50122  1  0  0  0
 51 52  1  0  0  0
 51123  1  0  0  0
 51124  1  0  0  0
 52125  1  0  0  0
 52126  1  0  0  0
 53 54  1  0  0  0
 54 55  2  0  0  0
 54127  1  0  0  0
 55 57  1  0  0  0
 55128  1  0  0  0
 56 69  2  0  0  0
 57 58  2  0  0  0
 57129  1  0  0  0
 58130  1  0  0  0
 59 60  1  0  0  0
 59 61  1  0  0  0
 59 62  1  0  0  0
 60131  1  0  0  0
 60132  1  0  0  0
 60133  1  0  0  0
 61134  1  0  0  0
 61135  1  0  0  0
 61136  1  0  0  0
 62137  1  0  0  0
 62138  1  0  0  0
 62139  1  0  0  0
 63 65  1  0  0  0
 63140  1  0  0  0
 63141  1  0  0  0
 63142  1  0  0  0
 64143  1  0  0  0
 65144  1  0  0  0
 68 82  1  0  0  0
 71 72  2  0  0  0
 71 75  1  0  0  0
 71145  1  0  0  0
 72 76  1  0  0  0
 72146  1  0  0  0
 73 74  1  0  0  0
 73 76  2  0  0  0
 73147  1  0  0  0
 74 75  2  0  0  0
 74 77  1  0  0  0
 75 78  1  0  0  0
 76 84  1  0  0  0
 77 83  1  0  0  0
 77 85  2  0  0  0
 78148  1  0  0  0
 78149  1  0  0  0
 78150  1  0  0  0
 79151  1  0  0  0
 79152  1  0  0  0
 79153  1  0  0  0
 79 82  1  0  0  0
 80 81  1  0  0  0
 80 82  1  0  0  0
 80154  1  0  0  0
 80155  1  0  0  0
 81 85  1  0  0  0
 81156  1  0  0  0
 81157  1  0  0  0
 82158  1  0  0  0
 83159  1  0  0  0
 83160  1  0  0  0
 84161  1  0  0  0
 85162  1  0  0  0
M  CHG  1  85   1
M  ISO  4   1 100  68 101  82 101  84 100
M  END
> <chiral flag>
0

> <version>
0

> <s_m_source_file>
/data/baiqing/PycharmProjects/Reinvent-master-3.2/result/LINK_invent/BTK/process_docking_weight1_custom_product_contain_oxygen_bond_distance_aromatic_linkinvent_7_9_3/rearranged_h_0058.sdf

> <i_m_source_file_index>
44

> <r_mmod_Potential_Energy-OPLS-2005>
-154.47102355957

> <r_mmod_Stretch_Energy-OPLS-2005>
48.4766807556152

> <r_mmod_Bend_Energy-OPLS-2005>
108.831665039062

> <r_mmod_Torsional_Energy-OPLS-2005>
278.551666259766

> <r_mmod_Improper_Torsional_Energy-OPLS-2005>
7.9369683265686

> <r_mmod_Van_der_Waal_Energy-OPLS-2005>
161.014389038086

> <r_mmod_Electrostatic_Energy-OPLS-2005>
-363.222686767578

> <r_mmod_Solvation_Energy-OPLS-2005>
-417.574371337891

> <b_mmod_Minimization_Converged-OPLS-2005>
0

> <r_mmod_RMS_Derivative-OPLS-2005>
4.95906639099121

$$$$
44
                    3D
 Structure written by MMmdl.
149157  0  0  1  0            999 V2000
  -30.5950  -14.6843   20.4937 C   0  0  0  0  0  0
  -30.4454  -12.4192   19.4592 C   0  0  0  0  0  0
  -29.5128  -12.5139   18.2295 C   0  0  0  0  0  0
  -28.0361  -12.3431   18.6402 C   0  0  0  0  0  0
  -27.6533  -13.2174   19.8634 C   0  0  2  0  0  0
  -28.6980  -13.0816   20.9944 C   0  0  0  0  0  0
  -25.2566  -13.8168   20.5684 C   0  0  0  0  0  0
  -24.1832  -13.0436   20.9193 C   0  0  0  0  0  0
  -24.6399  -11.6906   20.8740 C   0  0  0  0  0  0
  -23.9065  -10.4291   21.0406 C   0  0  0  0  0  0
  -24.3616   -9.4207   21.9184 C   0  0  0  0  0  0
  -23.6292   -8.2242   22.0753 C   0  0  0  0  0  0
  -22.4274   -8.0281   21.3545 C   0  0  0  0  0  0
  -21.9908   -9.0255   20.4647 C   0  0  0  0  0  0
  -22.7237  -10.2134   20.3056 C   0  0  0  0  0  0
  -21.6852   -6.0736   22.5279 C   0  0  0  0  0  0
  -21.4013   -6.5639   23.8213 C   0  0  0  0  0  0
  -21.3660   -5.6792   24.9175 C   0  0  0  0  0  0
  -21.6045   -4.3055   24.7226 C   0  0  0  0  0  0
  -21.8819   -3.8147   23.4347 C   0  0  0  0  0  0
  -21.9192   -4.6963   22.3402 C   0  0  0  0  0  0
  -22.7855  -13.5233   21.1855 C   0  0  0  0  0  0
  -22.1661   -4.2149   21.0980 F   0  0  0  0  0  0
  -21.5630   -3.4539   25.7739 F   0  0  0  0  0  0
  -30.0101  -13.4424   20.4331 N   0  0  0  0  0  0
  -26.2991  -12.9348   20.3313 N   0  0  0  0  0  0
  -25.9327  -11.6503   20.5753 N   0  0  0  0  0  0
  -22.0492  -12.8229   22.0411 N   0  0  0  0  0  0
  -25.4283  -15.1890   20.4092 N   0  0  0  0  0  0
  -31.7543  -14.8597   20.1050 O   0  0  0  0  0  0
  -21.6639   -6.8878   21.4241 O   0  0  0  0  0  0
  -22.3543  -14.5540   20.6702 O   0  0  0  0  0  0
  -24.6274  -31.8582   23.2011 C   0  0  0  0  0  0
  -25.9114  -32.4771   23.8348 C   0  0  1  0  0  0
  -27.2274  -27.3023   20.1263 C   0  0  0  0  0  0
  -25.5924  -33.8573   24.2273 N   0  0  0  0  0  0
  -23.4232  -30.4803   21.5432 C   0  0  2  0  0  0
  -24.8727  -28.9309   20.1120 C   0  0  0  0  0  0
  -22.7484  -29.4615   22.4926 C   0  0  0  0  0  0
  -18.0288  -28.1385   22.8487 C   0  0  0  0  0  0
  -24.1489  -36.7292   23.2637 C   0  0  0  0  0  0
  -25.9654  -30.7825   21.3767 C   0  0  0  0  0  0
  -26.0410  -29.4070   20.7220 C   0  0  0  0  0  0
  -27.2221  -28.6032   20.7221 C   0  0  0  0  0  0
  -26.0405  -26.8855   19.4847 C   0  0  0  0  0  0
  -24.8745  -27.6751   19.4843 C   0  0  0  0  0  0
  -23.6407  -29.8129   20.1595 C   0  0  0  0  0  0
  -25.4114  -36.3081   24.0328 C   0  0  1  0  0  0
  -20.5889  -28.3693   23.1277 C   0  0  2  0  0  0
  -20.6776  -26.9414   22.5410 C   0  0  0  0  0  0
  -19.5752  -26.6384   21.5212 C   0  0  0  0  0  0
  -18.1933  -26.7928   22.1625 C   0  0  0  0  0  0
  -19.1540  -28.8856   23.2878 C   0  0  0  0  0  0
  -18.9462  -30.1456   23.8896 C   0  0  0  0  0  0
  -17.6462  -30.6588   24.0562 C   0  0  0  0  0  0
  -25.9054  -34.9449   23.5104 C   0  0  0  0  0  0
  -16.5354  -29.9086   23.6329 C   0  0  0  0  0  0
  -16.7275  -28.6502   23.0353 C   0  0  0  0  0  0
  -26.4495  -31.6586   25.0724 C   0  0  0  0  0  0
  -25.3726  -31.3724   26.1447 C   0  0  0  0  0  0
  -27.0340  -30.3008   24.6191 C   0  0  0  0  0  0
  -27.6054  -32.4322   25.7495 C   0  0  0  0  0  0
  -27.5583  -37.1795   24.8459 C   0  0  0  0  0  0
  -21.4195  -29.3044   22.3667 N   0  0  0  0  0  0
  -26.4289  -37.3779   23.9413 N   0  0  0  0  0  0
  -24.6906  -31.0575   22.0972 N   0  0  0  0  0  0
  -23.4197  -28.8156   23.3015 O   0  0  0  0  0  0
  -28.3277  -26.4261   20.1469 O   0  0  0  0  0  0
  -26.5627  -34.8919   22.4672 O   0  0  0  0  0  0
  -23.5432  -32.1388   23.7327 O   0  0  0  0  0  0
  -28.6474  -17.9265   21.1568 C   0  0  0  0  0  0
  -28.5366  -19.3462   21.0283 C   0  0  0  0  0  0
  -30.8045  -17.9711   20.1143 C   0  0  0  0  0  0
  -29.7761  -17.1845   20.7055 C   0  0  0  0  0  0
  -29.5600  -20.1340   20.4324 C   0  0  0  0  0  0
  -30.6958  -19.3963   19.9844 C   0  0  0  0  0  0
  -28.9427  -23.9828   20.1971 C   0  0  0  0  0  0
  -28.1082  -25.0557   20.4431 C   0  0  0  0  0  0
  -28.5990  -22.5673   20.5595 C   0  0  0  0  0  0
  -29.5314  -21.6022   20.2491 N   0  0  0  0  0  0
  -29.7639  -15.7170   20.8674 N   0  0  0  0  0  0
  -27.5361  -22.2689   21.1084 O   0  0  0  0  0  0
  -31.7153  -20.0771   19.4062 F   0  0  0  0  0  0
  -31.4847  -12.5577   19.1562 H   0  0  0  0  0  0
  -30.3950  -11.4254   19.9065 H   0  0  0  0  0  0
  -29.7850  -11.7589   17.4908 H   0  0  0  0  0  0
  -29.6464  -13.4805   17.7410 H   0  0  0  0  0  0
  -27.8800  -11.2901   18.8774 H   0  0  0  0  0  0
  -27.3806  -12.5643   17.7970 H   0  0  0  0  0  0
  -27.6679  -14.2508   19.5170 H   0  0  0  0  0  0
  -28.7200  -12.0595   21.3753 H   0  0  0  0  0  0
  -28.4346  -13.7085   21.8476 H   0  0  0  0  0  0
  -25.2761   -9.5684   22.4758 H   0  0  0  0  0  0
  -24.0002   -7.4634   22.7472 H   0  0  0  0  0  0
  -21.0839   -8.8775   19.8954 H   0  0  0  0  0  0
  -22.3696  -10.9674   19.6166 H   0  0  0  0  0  0
  -21.2004   -7.6147   23.9717 H   0  0  0  0  0  0
  -21.1483   -6.0522   25.9079 H   0  0  0  0  0  0
  -22.0597   -2.7609   23.2847 H   0  0  0  0  0  0
  -22.4102  -11.9890   22.4805 H   0  0  0  0  0  0
  -21.1110  -13.1263   22.2612 H   0  0  0  0  0  0
  -24.6570  -15.8402   20.5082 H   0  0  0  0  0  0
  -26.2677  -15.6241   20.0488 H   0  0  0  0  0  0
  -26.7181  -32.5440   23.1096 H   0  0  0  0  0  0
  -25.0062  -33.9716   25.0411 H   0  0  0  0  0  0
  -22.7182  -31.3013   21.3976 H   0  0  0  0  0  0
  -23.3755  -35.9620   23.3291 H   0  0  0  0  0  0
  -24.3584  -36.8923   22.2054 H   0  0  0  0  0  0
  -23.7237  -37.6488   23.6666 H   0  0  0  0  0  0
  -26.0989  -31.5435   20.6065 H   0  0  0  0  0  0
  -26.8449  -30.8333   22.0069 H   0  0  0  0  0  0
  -28.1186  -28.9617   21.2082 H   0  0  0  0  0  0
  -26.0060  -25.9227   18.9949 H   0  0  0  0  0  0
  -23.9810  -27.3055   19.0000 H   0  0  0  0  0  0
  -23.7617  -30.5883   19.4022 H   0  0  0  0  0  0
  -22.7607  -29.2426   19.8565 H   0  0  0  0  0  0
  -25.1292  -36.1929   25.0821 H   0  0  0  0  0  0
  -20.9984  -28.3269   24.1396 H   0  0  0  0  0  0
  -20.5674  -26.2304   23.3611 H   0  0  0  0  0  0
  -21.6644  -26.7441   22.1203 H   0  0  0  0  0  0
  -19.6914  -25.6294   21.1245 H   0  0  0  0  0  0
  -19.6689  -27.3192   20.6739 H   0  0  0  0  0  0
  -17.4202  -26.6673   21.4029 H   0  0  0  0  0  0
  -18.0336  -26.0070   22.9021 H   0  0  0  0  0  0
  -19.7938  -30.7271   24.2268 H   0  0  0  0  0  0
  -17.5017  -31.6269   24.5162 H   0  0  0  0  0  0
  -15.5354  -30.2989   23.7652 H   0  0  0  0  0  0
  -15.8674  -28.0820   22.7073 H   0  0  0  0  0  0
  -24.5904  -30.7070   25.7772 H   0  0  0  0  0  0
  -24.8913  -32.2889   26.4871 H   0  0  0  0  0  0
  -25.8049  -30.8901   27.0223 H   0  0  0  0  0  0
  -26.2918  -29.6756   24.1213 H   0  0  0  0  0  0
  -27.4028  -29.7268   25.4701 H   0  0  0  0  0  0
  -27.8792  -30.4288   23.9424 H   0  0  0  0  0  0
  -27.2663  -33.3620   26.2076 H   0  0  0  0  0  0
  -28.3863  -32.6888   25.0323 H   0  0  0  0  0  0
  -28.0724  -31.8446   26.5409 H   0  0  0  0  0  0
  -28.2582  -38.0111   24.7538 H   0  0  0  0  0  0
  -28.1100  -36.2647   24.6245 H   0  0  0  0  0  0
  -27.2308  -37.1392   25.8863 H   0  0  0  0  0  0
  -20.9375  -29.8765   21.6874 H   0  0  0  0  0  0
  -26.0169  -38.2849   24.1432 H   0  0  0  0  0  0
  -27.8229  -17.4000   21.6174 H   0  0  0  0  0  0
  -27.6380  -19.8156   21.3988 H   0  0  0  0  0  0
  -31.6975  -17.4913   19.7422 H   0  0  0  0  0  0
  -29.8906  -24.1767   19.7176 H   0  0  0  0  0  0
  -27.1517  -24.9056   20.9275 H   0  0  0  0  0  0
  -30.3644  -21.9621   19.8032 H   0  0  0  0  0  0
  -28.8930  -15.3604   21.2298 H   0  0  0  0  0  0
  1 25  1  0  0  0
  1 30  2  0  0  0
  1 81  1  0  0  0
  2  3  1  0  0  0
  2 25  1  0  0  0
  2 84  1  0  0  0
  2 85  1  0  0  0
  3  4  1  0  0  0
  3 86  1  0  0  0
  3 87  1  0  0  0
  4  5  1  0  0  0
  4 88  1  0  0  0
  4 89  1  0  0  0
  5  6  1  0  0  0
  5 26  1  0  0  0
  5 90  1  0  0  0
  6 25  1  0  0  0
  6 91  1  0  0  0
  6 92  1  0  0  0
  7  8  2  0  0  0
  7 26  1  0  0  0
  7 29  1  0  0  0
  8  9  1  0  0  0
  8 22  1  0  0  0
  9 10  1  0  0  0
  9 27  2  0  0  0
 10 11  2  0  0  0
 10 15  1  0  0  0
 11 12  1  0  0  0
 11 93  1  0  0  0
 12 13  2  0  0  0
 12 94  1  0  0  0
 13 14  1  0  0  0
 13 31  1  0  0  0
 14 15  2  0  0  0
 14 95  1  0  0  0
 15 96  1  0  0  0
 16 17  2  0  0  0
 16 21  1  0  0  0
 16 31  1  0  0  0
 17 18  1  0  0  0
 17 97  1  0  0  0
 18 19  2  0  0  0
 18 98  1  0  0  0
 19 20  1  0  0  0
 19 24  1  0  0  0
 20 21  2  0  0  0
 20 99  1  0  0  0
 21 23  1  0  0  0
 22 28  1  0  0  0
 22 32  2  0  0  0
 26 27  1  0  0  0
 28100  1  0  0  0
 28101  1  0  0  0
 29102  1  0  0  0
 29103  1  0  0  0
 33 34  1  0  0  0
 33 66  1  0  0  0
 33 70  2  0  0  0
 34 36  1  0  0  0
 34 59  1  0  0  0
 34104  1  0  0  0
 35 44  2  0  0  0
 35 45  1  0  0  0
 35 68  1  0  0  0
 36 56  1  0  0  0
 36105  1  0  0  0
 37 39  1  0  0  0
 37 47  1  0  0  0
 37 66  1  0  0  0
 37106  1  0  0  0
 38 43  2  0  0  0
 38 46  1  0  0  0
 38 47  1  0  0  0
 39 64  1  0  0  0
 39 67  2  0  0  0
 40 52  1  0  0  0
 40 53  2  0  0  0
 40 58  1  0  0  0
 41107  1  0  0  0
 41108  1  0  0  0
 41109  1  0  0  0
 41 48  1  0  0  0
 42 43  1  0  0  0
 42 66  1  0  0  0
 42110  1  0  0  0
 42111  1  0  0  0
 43 44  1  0  0  0
 44112  1  0  0  0
 45 46  2  0  0  0
 45113  1  0  0  0
 46114  1  0  0  0
 47115  1  0  0  0
 47116  1  0  0  0
 48 56  1  0  0  0
 48 65  1  0  0  0
 48117  1  0  0  0
 49 50  1  0  0  0
 49 53  1  0  0  0
 49 64  1  0  0  0
 49118  1  0  0  0
 50 51  1  0  0  0
 50119  1  0  0  0
 50120  1  0  0  0
 51 52  1  0  0  0
 51121  1  0  0  0
 51122  1  0  0  0
 52123  1  0  0  0
 52124  1  0  0  0
 53 54  1  0  0  0
 54 55  2  0  0  0
 54125  1  0  0  0
 55 57  1  0  0  0
 55126  1  0  0  0
 56 69  2  0  0  0
 57 58  2  0  0  0
 57127  1  0  0  0
 58128  1  0  0  0
 59 60  1  0  0  0
 59 61  1  0  0  0
 59 62  1  0  0  0
 60129  1  0  0  0
 60130  1  0  0  0
 60131  1  0  0  0
 61132  1  0  0  0
 61133  1  0  0  0
 61134  1  0  0  0
 62135  1  0  0  0
 62136  1  0  0  0
 62137  1  0  0  0
 63 65  1  0  0  0
 63138  1  0  0  0
 63139  1  0  0  0
 63140  1  0  0  0
 64141  1  0  0  0
 65142  1  0  0  0
 68 78  1  0  0  0
 71 72  2  0  0  0
 71 74  1  0  0  0
 71143  1  0  0  0
 72 75  1  0  0  0
 72144  1  0  0  0
 73 74  2  0  0  0
 73 76  1  0  0  0
 73145  1  0  0  0
 74 81  1  0  0  0
 75 76  2  0  0  0
 75 80  1  0  0  0
 76 83  1  0  0  0
 77 78  2  0  0  0
 77 79  1  0  0  0
 77146  1  0  0  0
 78147  1  0  0  0
 79 80  1  0  0  0
 79 82  2  0  0  0
 80148  1  0  0  0
 81149  1  0  0  0
M  ISO  4   1 100  68 101  78 101  81 100
M  END
> <chiral flag>
0

> <version>
0

> <s_m_source_file>
/data/baiqing/PycharmProjects/Reinvent-master-3.2/result/LINK_invent/BTK/process_docking_weight1_custom_product_contain_oxygen_bond_distance_aromatic_linkinvent_7_9_3/rearranged_h_0058.sdf

> <i_m_source_file_index>
45

> <r_mmod_Potential_Energy-OPLS-2005>
3.57187271118164

> <r_mmod_Stretch_Energy-OPLS-2005>
87.7789154052734

> <r_mmod_Bend_Energy-OPLS-2005>
146.698623657227

> <r_mmod_Torsional_Energy-OPLS-2005>
214.719848632812

> <r_mmod_Improper_Torsional_Energy-OPLS-2005>
3.76124024391174

> <r_mmod_Van_der_Waal_Energy-OPLS-2005>
143.205413818359

> <r_mmod_Electrostatic_Energy-OPLS-2005>
-434.423645019531

> <r_mmod_Solvation_Energy-OPLS-2005>
-218.998580932617

> <b_mmod_Minimization_Converged-OPLS-2005>
0

> <r_mmod_RMS_Derivative-OPLS-2005>
0.240034863352776

$$$$
45
                    3D
 Structure written by MMmdl.
156165  0  0  1  0            999 V2000
  -30.6167  -14.7708   20.4610 C   0  0  0  0  0  0
  -30.4307  -12.4748   19.4722 C   0  0  0  0  0  0
  -29.5081  -12.5077   18.2348 C   0  0  0  0  0  0
  -28.0362  -12.3268   18.6521 C   0  0  0  0  0  0
  -27.6380  -13.2349   19.8461 C   0  0  2  0  0  0
  -28.6846  -13.1914   20.9804 C   0  0  0  0  0  0
  -25.2496  -13.8201   20.5705 C   0  0  0  0  0  0
  -24.1795  -13.0439   20.9218 C   0  0  0  0  0  0
  -24.6394  -11.6919   20.8755 C   0  0  0  0  0  0
  -23.9074  -10.4294   21.0411 C   0  0  0  0  0  0
  -24.3624   -9.4207   21.9186 C   0  0  0  0  0  0
  -23.6297   -8.2243   22.0755 C   0  0  0  0  0  0
  -22.4279   -8.0282   21.3544 C   0  0  0  0  0  0
  -21.9917   -9.0256   20.4647 C   0  0  0  0  0  0
  -22.7247  -10.2134   20.3058 C   0  0  0  0  0  0
  -21.6854   -6.0737   22.5279 C   0  0  0  0  0  0
  -21.4015   -6.5641   23.8213 C   0  0  0  0  0  0
  -21.3660   -5.6794   24.9175 C   0  0  0  0  0  0
  -21.6043   -4.3056   24.7225 C   0  0  0  0  0  0
  -21.8819   -3.8148   23.4347 C   0  0  0  0  0  0
  -21.9193   -4.6965   22.3404 C   0  0  0  0  0  0
  -22.7815  -13.5217   21.1874 C   0  0  0  0  0  0
  -22.1661   -4.2151   21.0982 F   0  0  0  0  0  0
  -21.5629   -3.4540   25.7737 F   0  0  0  0  0  0
  -29.9791  -13.5493   20.3885 N   0  0  0  0  0  0
  -26.2922  -12.9413   20.3277 N   0  0  0  0  0  0
  -25.9324  -11.6552   20.5755 N   0  0  0  0  0  0
  -22.0465  -12.8203   22.0429 N   0  0  0  0  0  0
  -25.4165  -15.1930   20.4123 N   0  0  0  0  0  0
  -31.8139  -14.8322   20.1669 O   0  0  0  0  0  0
  -21.6641   -6.8880   21.4241 O   0  0  0  0  0  0
  -22.3499  -14.5522   20.6722 O   0  0  0  0  0  0
  -24.6327  -31.8532   23.1963 C   0  0  0  0  0  0
  -25.9143  -32.4744   23.8318 C   0  0  1  0  0  0
  -27.2202  -27.2506   20.1404 C   0  0  0  0  0  0
  -25.5933  -33.8546   24.2243 N   0  0  0  0  0  0
  -23.4314  -30.4745   21.5394 C   0  0  2  0  0  0
  -24.8813  -28.9170   20.1121 C   0  0  0  0  0  0
  -22.7514  -29.4591   22.4901 C   0  0  0  0  0  0
  -18.0296  -28.1392   22.8477 C   0  0  0  0  0  0
  -24.1491  -36.7278   23.2640 C   0  0  0  0  0  0
  -25.9780  -30.7643   21.3773 C   0  0  0  0  0  0
  -26.0537  -29.3844   20.7220 C   0  0  0  0  0  0
  -27.2305  -28.5648   20.7221 C   0  0  0  0  0  0
  -26.0295  -26.8524   19.5005 C   0  0  0  0  0  0
  -24.8744  -27.6590   19.4890 C   0  0  0  0  0  0
  -23.6520  -29.8053   20.1570 C   0  0  0  0  0  0
  -25.4117  -36.3061   24.0325 C   0  0  1  0  0  0
  -20.5900  -28.3701   23.1263 C   0  0  2  0  0  0
  -20.6783  -26.9416   22.5408 C   0  0  0  0  0  0
  -19.5758  -26.6384   21.5213 C   0  0  0  0  0  0
  -18.1938  -26.7931   22.1622 C   0  0  0  0  0  0
  -19.1550  -28.8862   23.2864 C   0  0  0  0  0  0
  -18.9470  -30.1460   23.8886 C   0  0  0  0  0  0
  -17.6469  -30.6589   24.0560 C   0  0  0  0  0  0
  -25.9058  -34.9433   23.5089 C   0  0  0  0  0  0
  -16.5359  -29.9085   23.6333 C   0  0  0  0  0  0
  -16.7282  -28.6505   23.0351 C   0  0  0  0  0  0
  -26.4506  -31.6572   25.0714 C   0  0  0  0  0  0
  -25.3722  -31.3730   26.1431 C   0  0  0  0  0  0
  -27.0360  -30.2986   24.6208 C   0  0  0  0  0  0
  -27.6052  -32.4320   25.7495 C   0  0  0  0  0  0
  -27.5578  -37.1792   24.8463 C   0  0  0  0  0  0
  -21.4218  -29.3044   22.3649 N   0  0  0  0  0  0
  -26.4288  -37.3765   23.9411 N   0  0  0  0  0  0
  -24.6998  -31.0487   22.0942 N   0  0  0  0  0  0
  -23.4203  -28.8136   23.3013 O   0  0  0  0  0  0
  -28.2873  -26.3208   20.1564 O   0  0  0  0  0  0
  -26.5633  -34.8912   22.4661 O   0  0  0  0  0  0
  -23.5471  -32.1357   23.7247 O   0  0  0  0  0  0
  -31.9513  -18.9718   21.5446 C   0  0  0  0  0  0
  -31.1366  -20.0801   21.2454 C   0  0  0  0  0  0
  -31.5222  -17.6518   21.3122 C   0  0  0  0  0  0
  -29.4234  -18.5432   20.4628 C   0  0  0  0  0  0
  -29.8465  -19.9340   20.6861 C   0  0  0  0  0  0
  -30.2510  -17.3681   20.7645 C   0  0  0  0  0  0
  -27.6093  -22.8098   19.6266 C   0  0  0  0  0  0
  -28.4252  -23.5784   20.3630 C   0  0  0  0  0  0
  -28.0232  -21.3977   19.6011 C   0  0  0  0  0  0
  -29.4831  -22.5889   20.9175 C   0  0  0  0  0  0
  -28.7178  -25.2777   22.2999 C   0  0  0  0  0  0
  -28.0747  -25.0446   20.9275 C   0  0  1  0  0  0
  -29.1014  -21.2141   20.4098 N   0  0  0  0  0  0
  -29.8516  -15.9323   20.6104 N   0  0  0  0  0  0
  -27.4658  -20.5058   18.9553 O   0  0  0  0  0  0
  -31.4705  -12.5995   19.1658 H   0  0  0  0  0  0
  -30.3804  -11.5041   19.9682 H   0  0  0  0  0  0
  -29.7953  -11.7287   17.5274 H   0  0  0  0  0  0
  -29.6279  -13.4572   17.7104 H   0  0  0  0  0  0
  -27.9003  -11.2797   18.9248 H   0  0  0  0  0  0
  -27.3764  -12.5069   17.8027 H   0  0  0  0  0  0
  -27.6243  -14.2518   19.4535 H   0  0  0  0  0  0
  -28.7293  -12.2004   21.4343 H   0  0  0  0  0  0
  -28.4173  -13.8846   21.7797 H   0  0  0  0  0  0
  -25.2767   -9.5682   22.4763 H   0  0  0  0  0  0
  -24.0006   -7.4633   22.7473 H   0  0  0  0  0  0
  -21.0849   -8.8776   19.8951 H   0  0  0  0  0  0
  -22.3706  -10.9675   19.6168 H   0  0  0  0  0  0
  -21.2007   -7.6148   23.9717 H   0  0  0  0  0  0
  -21.1482   -6.0524   25.9077 H   0  0  0  0  0  0
  -22.0598   -2.7610   23.2847 H   0  0  0  0  0  0
  -22.4085  -11.9866   22.4815 H   0  0  0  0  0  0
  -21.1080  -13.1220   22.2636 H   0  0  0  0  0  0
  -24.6455  -15.8425   20.5238 H   0  0  0  0  0  0
  -26.2565  -15.6360   20.0639 H   0  0  0  0  0  0
  -26.7208  -32.5398   23.1057 H   0  0  0  0  0  0
  -25.0081  -33.9682   25.0388 H   0  0  0  0  0  0
  -22.7286  -31.2968   21.3899 H   0  0  0  0  0  0
  -23.3755  -35.9610   23.3301 H   0  0  0  0  0  0
  -24.3579  -36.8905   22.2055 H   0  0  0  0  0  0
  -23.7248  -37.6478   23.6668 H   0  0  0  0  0  0
  -26.1172  -31.5235   20.6063 H   0  0  0  0  0  0
  -26.8549  -30.8154   22.0111 H   0  0  0  0  0  0
  -28.1293  -28.9165   21.2083 H   0  0  0  0  0  0
  -25.9851  -25.8827   19.0247 H   0  0  0  0  0  0
  -23.9778  -27.2956   19.0063 H   0  0  0  0  0  0
  -23.7780  -30.5799   19.3999 H   0  0  0  0  0  0
  -22.7707  -29.2389   19.8513 H   0  0  0  0  0  0
  -25.1302  -36.1901   25.0818 H   0  0  0  0  0  0
  -20.9989  -28.3280   24.1385 H   0  0  0  0  0  0
  -20.5685  -26.2310   23.3613 H   0  0  0  0  0  0
  -21.6650  -26.7440   22.1201 H   0  0  0  0  0  0
  -19.6922  -25.6294   21.1246 H   0  0  0  0  0  0
  -19.6699  -27.3189   20.6738 H   0  0  0  0  0  0
  -17.4208  -26.6674   21.4024 H   0  0  0  0  0  0
  -18.0337  -26.0081   22.9026 H   0  0  0  0  0  0
  -19.7948  -30.7280   24.2250 H   0  0  0  0  0  0
  -17.5025  -31.6269   24.5162 H   0  0  0  0  0  0
  -15.5359  -30.2984   23.7667 H   0  0  0  0  0  0
  -15.8681  -28.0822   22.7070 H   0  0  0  0  0  0
  -24.5901  -30.7077   25.7755 H   0  0  0  0  0  0
  -24.8913  -32.2906   26.4832 H   0  0  0  0  0  0
  -25.8035  -30.8920   27.0220 H   0  0  0  0  0  0
  -26.2951  -29.6727   24.1219 H   0  0  0  0  0  0
  -27.4028  -29.7254   25.4732 H   0  0  0  0  0  0
  -27.8832  -30.4261   23.9465 H   0  0  0  0  0  0
  -27.2649  -33.3621   26.2058 H   0  0  0  0  0  0
  -28.3871  -32.6879   25.0333 H   0  0  0  0  0  0
  -28.0709  -31.8458   26.5425 H   0  0  0  0  0  0
  -28.2585  -38.0099   24.7517 H   0  0  0  0  0  0
  -28.1087  -36.2630   24.6282 H   0  0  0  0  0  0
  -27.2298  -37.1431   25.8866 H   0  0  0  0  0  0
  -20.9406  -29.8763   21.6848 H   0  0  0  0  0  0
  -26.0163  -38.2837   24.1417 H   0  0  0  0  0  0
  -32.9310  -19.1379   21.9703 H   0  0  0  0  0  0
  -31.5392  -21.0611   21.4527 H   0  0  0  0  0  0
  -32.1956  -16.8538   21.5894 H   0  0  0  0  0  0
  -28.4382  -18.3702   20.0544 H   0  0  0  0  0  0
  -26.6802  -23.1571   19.2009 H   0  0  0  0  0  0
  -29.4740  -22.5822   22.0072 H   0  0  0  0  0  0
  -30.4761  -22.8849   20.5781 H   0  0  0  0  0  0
  -28.4698  -24.4776   22.9976 H   0  0  0  0  0  0
  -28.3675  -26.2103   22.7430 H   0  0  0  0  0  0
  -29.8034  -25.3350   22.2206 H   0  0  0  0  0  0
  -27.0043  -24.9737   21.1261 H   0  0  0  0  0  0
  -28.8582  -15.7617   20.6295 H   0  0  0  0  0  0
  1 25  1  0  0  0
  1 30  2  0  0  0
  1 84  1  0  0  0
  2  3  1  0  0  0
  2 25  1  0  0  0
  2 86  1  0  0  0
  2 87  1  0  0  0
  3  4  1  0  0  0
  3 88  1  0  0  0
  3 89  1  0  0  0
  4  5  1  0  0  0
  4 90  1  0  0  0
  4 91  1  0  0  0
  5  6  1  0  0  0
  5 26  1  0  0  0
  5 92  1  0  0  0
  6 25  1  0  0  0
  6 93  1  0  0  0
  6 94  1  0  0  0
  7  8  2  0  0  0
  7 26  1  0  0  0
  7 29  1  0  0  0
  8  9  1  0  0  0
  8 22  1  0  0  0
  9 10  1  0  0  0
  9 27  2  0  0  0
 10 11  2  0  0  0
 10 15  1  0  0  0
 11 12  1  0  0  0
 11 95  1  0  0  0
 12 13  2  0  0  0
 12 96  1  0  0  0
 13 14  1  0  0  0
 13 31  1  0  0  0
 14 15  2  0  0  0
 14 97  1  0  0  0
 15 98  1  0  0  0
 16 17  2  0  0  0
 16 21  1  0  0  0
 16 31  1  0  0  0
 17 18  1  0  0  0
 17 99  1  0  0  0
 18 19  2  0  0  0
 18100  1  0  0  0
 19 20  1  0  0  0
 19 24  1  0  0  0
 20 21  2  0  0  0
 20101  1  0  0  0
 21 23  1  0  0  0
 22 28  1  0  0  0
 22 32  2  0  0  0
 26 27  1  0  0  0
 28102  1  0  0  0
 28103  1  0  0  0
 29104  1  0  0  0
 29105  1  0  0  0
 33 34  1  0  0  0
 33 66  1  0  0  0
 33 70  2  0  0  0
 34 36  1  0  0  0
 34 59  1  0  0  0
 34106  1  0  0  0
 35 44  2  0  0  0
 35 45  1  0  0  0
 35 68  1  0  0  0
 36 56  1  0  0  0
 36107  1  0  0  0
 37 39  1  0  0  0
 37 47  1  0  0  0
 37 66  1  0  0  0
 37108  1  0  0  0
 38 43  2  0  0  0
 38 46  1  0  0  0
 38 47  1  0  0  0
 39 64  1  0  0  0
 39 67  2  0  0  0
 40 52  1  0  0  0
 40 53  2  0  0  0
 40 58  1  0  0  0
 41109  1  0  0  0
 41110  1  0  0  0
 41111  1  0  0  0
 41 48  1  0  0  0
 42 43  1  0  0  0
 42 66  1  0  0  0
 42112  1  0  0  0
 42113  1  0  0  0
 43 44  1  0  0  0
 44114  1  0  0  0
 45 46  2  0  0  0
 45115  1  0  0  0
 46116  1  0  0  0
 47117  1  0  0  0
 47118  1  0  0  0
 48 56  1  0  0  0
 48 65  1  0  0  0
 48119  1  0  0  0
 49 50  1  0  0  0
 49 53  1  0  0  0
 49 64  1  0  0  0
 49120  1  0  0  0
 50 51  1  0  0  0
 50121  1  0  0  0
 50122  1  0  0  0
 51 52  1  0  0  0
 51123  1  0  0  0
 51124  1  0  0  0
 52125  1  0  0  0
 52126  1  0  0  0
 53 54  1  0  0  0
 54 55  2  0  0  0
 54127  1  0  0  0
 55 57  1  0  0  0
 55128  1  0  0  0
 56 69  2  0  0  0
 57 58  2  0  0  0
 57129  1  0  0  0
 58130  1  0  0  0
 59 60  1  0  0  0
 59 61  1  0  0  0
 59 62  1  0  0  0
 60131  1  0  0  0
 60132  1  0  0  0
 60133  1  0  0  0
 61134  1  0  0  0
 61135  1  0  0  0
 61136  1  0  0  0
 62137  1  0  0  0
 62138  1  0  0  0
 62139  1  0  0  0
 63 65  1  0  0  0
 63140  1  0  0  0
 63141  1  0  0  0
 63142  1  0  0  0
 64143  1  0  0  0
 65144  1  0  0  0
 68 82  1  0  0  0
 71 72  2  0  0  0
 71 73  1  0  0  0
 71145  1  0  0  0
 72 75  1  0  0  0
 72146  1  0  0  0
 73 76  2  0  0  0
 73147  1  0  0  0
 74 75  2  0  0  0
 74 76  1  0  0  0
 74148  1  0  0  0
 75 83  1  0  0  0
 76 84  1  0  0  0
 77 78  2  0  0  0
 77 79  1  0  0  0
 77149  1  0  0  0
 78 80  1  0  0  0
 78 82  1  0  0  0
 79 83  1  0  0  0
 79 85  2  0  0  0
 80 83  1  0  0  0
 80150  1  0  0  0
 80151  1  0  0  0
 81152  1  0  0  0
 81153  1  0  0  0
 81154  1  0  0  0
 81 82  1  0  0  0
 82155  1  0  0  0
 84156  1  0  0  0
M  ISO  4   1 100  68 101  82 101  84 100
M  END
> <chiral flag>
0

> <version>
0

> <s_m_source_file>
/data/baiqing/PycharmProjects/Reinvent-master-3.2/result/LINK_invent/BTK/process_docking_weight1_custom_product_contain_oxygen_bond_distance_aromatic_linkinvent_7_9_3/rearranged_h_0058.sdf

> <i_m_source_file_index>
46

> <r_mmod_Potential_Energy-OPLS-2005>
284.937194824219

> <r_mmod_Stretch_Energy-OPLS-2005>
137.996688842773

> <r_mmod_Bend_Energy-OPLS-2005>
221.351760864258

> <r_mmod_Torsional_Energy-OPLS-2005>
277.28515625

> <r_mmod_Improper_Torsional_Energy-OPLS-2005>
7.44204187393188

> <r_mmod_Van_der_Waal_Energy-OPLS-2005>
134.391036987305

> <r_mmod_Electrostatic_Energy-OPLS-2005>
-374.214813232422

> <r_mmod_Solvation_Energy-OPLS-2005>
-216.289703369141

> <b_mmod_Minimization_Converged-OPLS-2005>
0

> <r_mmod_RMS_Derivative-OPLS-2005>
0.444180905818939

$$$$
46
                    3D
 Structure written by MMmdl.
152160  0  0  1  0            999 V2000
  -30.7156  -14.5183   20.5484 C   0  0  0  0  0  0
  -30.4152  -12.3307   19.4372 C   0  0  0  0  0  0
  -29.4932  -12.4970   18.2130 C   0  0  0  0  0  0
  -28.0167  -12.3532   18.6279 C   0  0  0  0  0  0
  -27.6547  -13.2163   19.8667 C   0  0  2  0  0  0
  -28.6990  -13.0535   20.9947 C   0  0  0  0  0  0
  -25.2559  -13.8183   20.5687 C   0  0  0  0  0  0
  -24.1825  -13.0448   20.9192 C   0  0  0  0  0  0
  -24.6393  -11.6919   20.8745 C   0  0  0  0  0  0
  -23.9065  -10.4301   21.0407 C   0  0  0  0  0  0
  -24.3616   -9.4213   21.9183 C   0  0  0  0  0  0
  -23.6292   -8.2246   22.0753 C   0  0  0  0  0  0
  -22.4273   -8.0284   21.3545 C   0  0  0  0  0  0
  -21.9909   -9.0258   20.4646 C   0  0  0  0  0  0
  -22.7238  -10.2139   20.3056 C   0  0  0  0  0  0
  -21.6853   -6.0736   22.5279 C   0  0  0  0  0  0
  -21.4013   -6.5639   23.8213 C   0  0  0  0  0  0
  -21.3659   -5.6793   24.9175 C   0  0  0  0  0  0
  -21.6044   -4.3056   24.7227 C   0  0  0  0  0  0
  -21.8819   -3.8147   23.4347 C   0  0  0  0  0  0
  -21.9192   -4.6964   22.3401 C   0  0  0  0  0  0
  -22.7846  -13.5237   21.1853 C   0  0  0  0  0  0
  -22.1661   -4.2150   21.0979 F   0  0  0  0  0  0
  -21.5629   -3.4539   25.7738 F   0  0  0  0  0  0
  -30.0226  -13.3497   20.4269 N   0  0  0  0  0  0
  -26.2994  -12.9368   20.3348 N   0  0  0  0  0  0
  -25.9323  -11.6520   20.5778 N   0  0  0  0  0  0
  -22.0486  -12.8229   22.0407 N   0  0  0  0  0  0
  -25.4267  -15.1901   20.4078 N   0  0  0  0  0  0
  -31.8625  -14.6345   20.1082 O   0  0  0  0  0  0
  -21.6639   -6.8880   21.4241 O   0  0  0  0  0  0
  -22.3532  -14.5545   20.6703 O   0  0  0  0  0  0
  -24.6187  -31.8657   23.2087 C   0  0  0  0  0  0
  -25.9067  -32.4809   23.8389 C   0  0  1  0  0  0
  -27.2239  -27.3965   20.1059 C   0  0  0  0  0  0
  -25.5911  -33.8610   24.2317 N   0  0  0  0  0  0
  -23.4087  -30.4899   21.5498 C   0  0  2  0  0  0
  -24.8558  -28.9571   20.1097 C   0  0  0  0  0  0
  -22.7434  -29.4646   22.4973 C   0  0  0  0  0  0
  -18.0273  -28.1376   22.8483 C   0  0  0  0  0  0
  -24.1489  -36.7308   23.2639 C   0  0  0  0  0  0
  -25.9425  -30.8206   21.3686 C   0  0  0  0  0  0
  -26.0199  -29.4543   20.7109 C   0  0  0  0  0  0
  -27.2112  -28.6832   20.7035 C   0  0  0  0  0  0
  -26.0475  -26.9363   19.4754 C   0  0  0  0  0  0
  -24.8666  -27.6995   19.4850 C   0  0  0  0  0  0
  -23.6194  -29.8270   20.1627 C   0  0  0  0  0  0
  -25.4110  -36.3104   24.0334 C   0  0  1  0  0  0
  -20.5868  -28.3669   23.1303 C   0  0  2  0  0  0
  -20.6767  -26.9403   22.5413 C   0  0  0  0  0  0
  -19.5746  -26.6383   21.5206 C   0  0  0  0  0  0
  -18.1922  -26.7917   22.1620 C   0  0  0  0  0  0
  -19.1523  -28.8839   23.2888 C   0  0  0  0  0  0
  -18.9454  -30.1446   23.8903 C   0  0  0  0  0  0
  -17.6458  -30.6585   24.0563 C   0  0  0  0  0  0
  -25.9039  -34.9469   23.5121 C   0  0  0  0  0  0
  -16.5348  -29.9087   23.6331 C   0  0  0  0  0  0
  -16.7264  -28.6502   23.0349 C   0  0  0  0  0  0
  -26.4481  -31.6596   25.0728 C   0  0  0  0  0  0
  -25.3738  -31.3713   26.1473 C   0  0  0  0  0  0
  -27.0311  -30.3033   24.6122 C   0  0  0  0  0  0
  -27.6055  -32.4318   25.7489 C   0  0  0  0  0  0
  -27.5581  -37.1808   24.8465 C   0  0  0  0  0  0
  -21.4158  -29.3034   22.3715 N   0  0  0  0  0  0
  -26.4294  -37.3791   23.9409 N   0  0  0  0  0  0
  -24.6751  -31.0730   22.1004 N   0  0  0  0  0  0
  -23.4191  -28.8183   23.3024 O   0  0  0  0  0  0
  -28.3367  -26.5716   20.1475 O   0  0  0  0  0  0
  -26.5606  -34.8927   22.4685 O   0  0  0  0  0  0
  -23.5372  -32.1427   23.7460 O   0  0  0  0  0  0
  -32.3678  -18.3905   21.9799 C   0  0  0  0  0  0
  -31.6099  -19.5334   21.6736 C   0  0  0  0  0  0
  -31.8456  -17.1063   21.7531 C   0  0  0  0  0  0
  -29.7795  -18.1055   20.9275 C   0  0  0  0  0  0
  -30.3067  -19.4204   21.1314 C   0  0  0  0  0  0
  -30.5508  -16.9339   21.2097 C   0  0  0  0  0  0
  -28.8785  -22.8832   20.6996 C   0  0  0  0  0  0
  -29.1425  -24.2192   20.6644 C   0  0  0  0  0  0
  -29.9359  -21.8697   20.6081 C   0  0  0  0  0  0
  -28.0903  -25.3219   20.8467 C   0  0  0  0  0  0
  -29.5131  -20.6023   20.8693 N   0  0  0  0  0  0
  -30.0296  -15.6021   20.9977 N   0  0  0  0  0  0
  -31.1017  -22.1349   20.3022 O   0  0  0  0  0  0
  -31.4606  -12.4139   19.1350 H   0  0  0  0  0  0
  -30.3107  -11.3325   19.8650 H   0  0  0  0  0  0
  -29.7403  -11.7569   17.4508 H   0  0  0  0  0  0
  -29.6555  -13.4743   17.7556 H   0  0  0  0  0  0
  -27.8384  -11.3000   18.8468 H   0  0  0  0  0  0
  -27.3637  -12.6032   17.7910 H   0  0  0  0  0  0
  -27.6822  -14.2556   19.5385 H   0  0  0  0  0  0
  -28.6846  -12.0355   21.3866 H   0  0  0  0  0  0
  -28.4625  -13.7005   21.8407 H   0  0  0  0  0  0
  -25.2761   -9.5688   22.4763 H   0  0  0  0  0  0
  -24.0003   -7.4635   22.7473 H   0  0  0  0  0  0
  -21.0842   -8.8777   19.8950 H   0  0  0  0  0  0
  -22.3695  -10.9678   19.6167 H   0  0  0  0  0  0
  -21.2007   -7.6150   23.9717 H   0  0  0  0  0  0
  -21.1481   -6.0523   25.9078 H   0  0  0  0  0  0
  -22.0598   -2.7610   23.2846 H   0  0  0  0  0  0
  -22.4098  -11.9889   22.4796 H   0  0  0  0  0  0
  -21.1104  -13.1256   22.2613 H   0  0  0  0  0  0
  -24.6583  -15.8443   20.5102 H   0  0  0  0  0  0
  -26.2743  -15.6272   20.0691 H   0  0  0  0  0  0
  -26.7139  -32.5514   23.1154 H   0  0  0  0  0  0
  -25.0072  -33.9769   25.0468 H   0  0  0  0  0  0
  -22.6986  -31.3077   21.4110 H   0  0  0  0  0  0
  -23.3750  -35.9644   23.3309 H   0  0  0  0  0  0
  -24.3583  -36.8916   22.2052 H   0  0  0  0  0  0
  -23.7240  -37.6514   23.6648 H   0  0  0  0  0  0
  -26.0612  -31.5879   20.6022 H   0  0  0  0  0  0
  -26.8274  -30.8708   21.9911 H   0  0  0  0  0  0
  -28.1057  -29.0548   21.1843 H   0  0  0  0  0  0
  -26.0344  -25.9741   18.9829 H   0  0  0  0  0  0
  -23.9751  -27.3140   19.0099 H   0  0  0  0  0  0
  -23.7298  -30.6047   19.4058 H   0  0  0  0  0  0
  -22.7420  -29.2499   19.8652 H   0  0  0  0  0  0
  -25.1284  -36.1973   25.0827 H   0  0  0  0  0  0
  -20.9954  -28.3239   24.1427 H   0  0  0  0  0  0
  -20.5669  -26.2279   23.3602 H   0  0  0  0  0  0
  -21.6638  -26.7448   22.1204 H   0  0  0  0  0  0
  -19.6915  -25.6297   21.1232 H   0  0  0  0  0  0
  -19.6688  -27.3201   20.6739 H   0  0  0  0  0  0
  -17.4191  -26.6663   21.4023 H   0  0  0  0  0  0
  -18.0329  -26.0058   22.9015 H   0  0  0  0  0  0
  -19.7935  -30.7250   24.2282 H   0  0  0  0  0  0
  -17.5018  -31.6267   24.5159 H   0  0  0  0  0  0
  -15.5348  -30.2994   23.7653 H   0  0  0  0  0  0
  -15.8658  -28.0829   22.7063 H   0  0  0  0  0  0
  -24.5904  -30.7070   25.7807 H   0  0  0  0  0  0
  -24.8942  -32.2875   26.4932 H   0  0  0  0  0  0
  -25.8086  -30.8871   27.0226 H   0  0  0  0  0  0
  -26.2860  -29.6797   24.1170 H   0  0  0  0  0  0
  -27.4063  -29.7273   25.4590 H   0  0  0  0  0  0
  -27.8707  -30.4340   23.9290 H   0  0  0  0  0  0
  -27.2673  -33.3616   26.2081 H   0  0  0  0  0  0
  -28.3858  -32.6884   25.0307 H   0  0  0  0  0  0
  -28.0730  -31.8430   26.5395 H   0  0  0  0  0  0
  -28.2602  -38.0105   24.7513 H   0  0  0  0  0  0
  -28.1072  -36.2633   24.6286 H   0  0  0  0  0  0
  -27.2299  -37.1455   25.8870 H   0  0  0  0  0  0
  -20.9326  -29.8766   21.6942 H   0  0  0  0  0  0
  -26.0186  -38.2870   24.1412 H   0  0  0  0  0  0
  -33.3578  -18.4998   22.4001 H   0  0  0  0  0  0
  -32.0478  -20.4976   21.8872 H   0  0  0  0  0  0
  -32.4576  -16.2530   22.0109 H   0  0  0  0  0  0
  -28.7797  -17.9948   20.5322 H   0  0  0  0  0  0
  -27.8540  -22.5611   20.8227 H   0  0  0  0  0  0
  -30.1605  -24.5629   20.5431 H   0  0  0  0  0  0
  -28.0527  -25.5552   21.9119 H   0  0  0  0  0  0
  -27.1213  -24.8860   20.6036 H   0  0  0  0  0  0
  -28.5116  -20.4856   20.9369 H   0  0  0  0  0  0
  -29.0422  -15.4649   21.1519 H   0  0  0  0  0  0
  1 25  1  0  0  0
  1 30  2  0  0  0
  1 82  1  0  0  0
  2  3  1  0  0  0
  2 25  1  0  0  0
  2 84  1  0  0  0
  2 85  1  0  0  0
  3  4  1  0  0  0
  3 86  1  0  0  0
  3 87  1  0  0  0
  4  5  1  0  0  0
  4 88  1  0  0  0
  4 89  1  0  0  0
  5  6  1  0  0  0
  5 26  1  0  0  0
  5 90  1  0  0  0
  6 25  1  0  0  0
  6 91  1  0  0  0
  6 92  1  0  0  0
  7  8  2  0  0  0
  7 26  1  0  0  0
  7 29  1  0  0  0
  8  9  1  0  0  0
  8 22  1  0  0  0
  9 10  1  0  0  0
  9 27  2  0  0  0
 10 11  2  0  0  0
 10 15  1  0  0  0
 11 12  1  0  0  0
 11 93  1  0  0  0
 12 13  2  0  0  0
 12 94  1  0  0  0
 13 14  1  0  0  0
 13 31  1  0  0  0
 14 15  2  0  0  0
 14 95  1  0  0  0
 15 96  1  0  0  0
 16 17  2  0  0  0
 16 21  1  0  0  0
 16 31  1  0  0  0
 17 18  1  0  0  0
 17 97  1  0  0  0
 18 19  2  0  0  0
 18 98  1  0  0  0
 19 20  1  0  0  0
 19 24  1  0  0  0
 20 21  2  0  0  0
 20 99  1  0  0  0
 21 23  1  0  0  0
 22 28  1  0  0  0
 22 32  2  0  0  0
 26 27  1  0  0  0
 28100  1  0  0  0
 28101  1  0  0  0
 29102  1  0  0  0
 29103  1  0  0  0
 33 34  1  0  0  0
 33 66  1  0  0  0
 33 70  2  0  0  0
 34 36  1  0  0  0
 34 59  1  0  0  0
 34104  1  0  0  0
 35 44  2  0  0  0
 35 45  1  0  0  0
 35 68  1  0  0  0
 36 56  1  0  0  0
 36105  1  0  0  0
 37 39  1  0  0  0
 37 47  1  0  0  0
 37 66  1  0  0  0
 37106  1  0  0  0
 38 43  2  0  0  0
 38 46  1  0  0  0
 38 47  1  0  0  0
 39 64  1  0  0  0
 39 67  2  0  0  0
 40 52  1  0  0  0
 40 53  2  0  0  0
 40 58  1  0  0  0
 41107  1  0  0  0
 41108  1  0  0  0
 41109  1  0  0  0
 41 48  1  0  0  0
 42 43  1  0  0  0
 42 66  1  0  0  0
 42110  1  0  0  0
 42111  1  0  0  0
 43 44  1  0  0  0
 44112  1  0  0  0
 45 46  2  0  0  0
 45113  1  0  0  0
 46114  1  0  0  0
 47115  1  0  0  0
 47116  1  0  0  0
 48 56  1  0  0  0
 48 65  1  0  0  0
 48117  1  0  0  0
 49 50  1  0  0  0
 49 53  1  0  0  0
 49 64  1  0  0  0
 49118  1  0  0  0
 50 51  1  0  0  0
 50119  1  0  0  0
 50120  1  0  0  0
 51 52  1  0  0  0
 51121  1  0  0  0
 51122  1  0  0  0
 52123  1  0  0  0
 52124  1  0  0  0
 53 54  1  0  0  0
 54 55  2  0  0  0
 54125  1  0  0  0
 55 57  1  0  0  0
 55126  1  0  0  0
 56 69  2  0  0  0
 57 58  2  0  0  0
 57127  1  0  0  0
 58128  1  0  0  0
 59 60  1  0  0  0
 59 61  1  0  0  0
 59 62  1  0  0  0
 60129  1  0  0  0
 60130  1  0  0  0
 60131  1  0  0  0
 61132  1  0  0  0
 61133  1  0  0  0
 61134  1  0  0  0
 62135  1  0  0  0
 62136  1  0  0  0
 62137  1  0  0  0
 63 65  1  0  0  0
 63138  1  0  0  0
 63139  1  0  0  0
 63140  1  0  0  0
 64141  1  0  0  0
 65142  1  0  0  0
 68 80  1  0  0  0
 71 72  2  0  0  0
 71 73  1  0  0  0
 71143  1  0  0  0
 72 75  1  0  0  0
 72144  1  0  0  0
 73 76  2  0  0  0
 73145  1  0  0  0
 74 75  2  0  0  0
 74 76  1  0  0  0
 74146  1  0  0  0
 75 81  1  0  0  0
 76 82  1  0  0  0
 77 78  2  0  0  0
 77 79  1  0  0  0
 77147  1  0  0  0
 78 80  1  0  0  0
 78148  1  0  0  0
 79 81  1  0  0  0
 79 83  2  0  0  0
 80149  1  0  0  0
 80150  1  0  0  0
 81151  1  0  0  0
 82152  1  0  0  0
M  ISO  4   1 100  68 101  80 101  82 100
M  END
> <chiral flag>
0

> <version>
0

> <s_m_source_file>
/data/baiqing/PycharmProjects/Reinvent-master-3.2/result/LINK_invent/BTK/process_docking_weight1_custom_product_contain_oxygen_bond_distance_aromatic_linkinvent_7_9_3/rearranged_h_0058.sdf

> <i_m_source_file_index>
47

> <r_mmod_Potential_Energy-OPLS-2005>
-49.5611343383789

> <r_mmod_Stretch_Energy-OPLS-2005>
49.6872673034668

> <r_mmod_Bend_Energy-OPLS-2005>
97.8554916381836

> <r_mmod_Torsional_Energy-OPLS-2005>
250.232345581055

> <r_mmod_Improper_Torsional_Energy-OPLS-2005>
4.59473848342896

> <r_mmod_Van_der_Waal_Energy-OPLS-2005>
160.846084594727

> <r_mmod_Electrostatic_Energy-OPLS-2005>
-399.101959228516

> <r_mmod_Solvation_Energy-OPLS-2005>
-237.277526855469

> <b_mmod_Minimization_Converged-OPLS-2005>
0

> <r_mmod_RMS_Derivative-OPLS-2005>
0.667279124259949

$$$$
47
                    3D
 Structure written by MMmdl.
158167  0  0  1  0            999 V2000
  -30.6286  -14.6288   20.5008 C   0  0  0  0  0  0
  -30.4392  -12.3855   19.4488 C   0  0  0  0  0  0
  -29.5067  -12.5050   18.2227 C   0  0  0  0  0  0
  -28.0293  -12.3460   18.6360 C   0  0  0  0  0  0
  -27.6543  -13.2160   19.8656 C   0  0  2  0  0  0
  -28.7009  -13.0654   20.9931 C   0  0  0  0  0  0
  -25.2558  -13.8165   20.5691 C   0  0  0  0  0  0
  -24.1818  -13.0426   20.9162 C   0  0  0  0  0  0
  -24.6394  -11.6900   20.8726 C   0  0  0  0  0  0
  -23.9064  -10.4286   21.0398 C   0  0  0  0  0  0
  -24.3615   -9.4205   21.9180 C   0  0  0  0  0  0
  -23.6289   -8.2242   22.0753 C   0  0  0  0  0  0
  -22.4272   -8.0279   21.3543 C   0  0  0  0  0  0
  -21.9905   -9.0252   20.4646 C   0  0  0  0  0  0
  -22.7234  -10.2130   20.3051 C   0  0  0  0  0  0
  -21.6853   -6.0734   22.5279 C   0  0  0  0  0  0
  -21.4015   -6.5638   23.8212 C   0  0  0  0  0  0
  -21.3658   -5.6791   24.9174 C   0  0  0  0  0  0
  -21.6044   -4.3054   24.7225 C   0  0  0  0  0  0
  -21.8820   -3.8145   23.4347 C   0  0  0  0  0  0
  -21.9193   -4.6961   22.3403 C   0  0  0  0  0  0
  -22.7843  -13.5222   21.1839 C   0  0  0  0  0  0
  -22.1661   -4.2146   21.0980 F   0  0  0  0  0  0
  -21.5628   -3.4538   25.7738 F   0  0  0  0  0  0
  -30.0174  -13.4049   20.4286 N   0  0  0  0  0  0
  -26.2999  -12.9352   20.3348 N   0  0  0  0  0  0
  -25.9329  -11.6503   20.5767 N   0  0  0  0  0  0
  -22.0494  -12.8216   22.0404 N   0  0  0  0  0  0
  -25.4243  -15.1891   20.4177 N   0  0  0  0  0  0
  -31.7933  -14.7888   20.1249 O   0  0  0  0  0  0
  -21.6637   -6.8876   21.4240 O   0  0  0  0  0  0
  -22.3521  -14.5530   20.6697 O   0  0  0  0  0  0
  -24.6253  -31.8611   23.2039 C   0  0  0  0  0  0
  -25.9104  -32.4787   23.8363 C   0  0  1  0  0  0
  -27.2249  -27.3287   20.1109 C   0  0  0  0  0  0
  -25.5924  -33.8587   24.2288 N   0  0  0  0  0  0
  -23.4183  -30.4859   21.5467 C   0  0  2  0  0  0
  -24.8642  -28.9442   20.1119 C   0  0  0  0  0  0
  -22.7470  -29.4632   22.4940 C   0  0  0  0  0  0
  -18.0286  -28.1384   22.8487 C   0  0  0  0  0  0
  -24.1489  -36.7298   23.2638 C   0  0  0  0  0  0
  -25.9594  -30.7951   21.3737 C   0  0  0  0  0  0
  -26.0338  -29.4239   20.7143 C   0  0  0  0  0  0
  -27.2173  -28.6287   20.7035 C   0  0  0  0  0  0
  -26.0288  -26.9015   19.4855 C   0  0  0  0  0  0
  -24.8633  -27.6880   19.4896 C   0  0  0  0  0  0
  -23.6323  -29.8232   20.1614 C   0  0  0  0  0  0
  -25.4114  -36.3089   24.0329 C   0  0  1  0  0  0
  -20.5885  -28.3688   23.1285 C   0  0  2  0  0  0
  -20.6776  -26.9412   22.5409 C   0  0  0  0  0  0
  -19.5751  -26.6385   21.5212 C   0  0  0  0  0  0
  -18.1931  -26.7927   22.1626 C   0  0  0  0  0  0
  -19.1538  -28.8852   23.2882 C   0  0  0  0  0  0
  -18.9461  -30.1454   23.8898 C   0  0  0  0  0  0
  -17.6461  -30.6586   24.0565 C   0  0  0  0  0  0
  -25.9049  -34.9456   23.5108 C   0  0  0  0  0  0
  -16.5352  -29.9086   23.6329 C   0  0  0  0  0  0
  -16.7274  -28.6504   23.0350 C   0  0  0  0  0  0
  -26.4491  -31.6592   25.0727 C   0  0  0  0  0  0
  -25.3729  -31.3729   26.1457 C   0  0  0  0  0  0
  -27.0333  -30.3018   24.6173 C   0  0  0  0  0  0
  -27.6052  -32.4325   25.7497 C   0  0  0  0  0  0
  -27.5580  -37.1805   24.8465 C   0  0  0  0  0  0
  -21.4185  -29.3044   22.3682 N   0  0  0  0  0  0
  -26.4294  -37.3781   23.9407 N   0  0  0  0  0  0
  -24.6866  -31.0632   22.0985 N   0  0  0  0  0  0
  -23.4201  -28.8164   23.3009 O   0  0  0  0  0  0
  -28.3472  -26.4856   20.1595 O   0  0  0  0  0  0
  -26.5617  -34.8919   22.4674 O   0  0  0  0  0  0
  -23.5419  -32.1403   23.7373 O   0  0  0  0  0  0
  -31.1454  -19.2720   20.4888 C   0  0  0  0  0  0
  -31.1285  -17.8458   20.4857 C   0  0  0  0  0  0
  -28.7851  -19.3312   20.9425 C   0  0  0  0  0  0
  -29.9871  -20.0646   20.7586 C   0  0  0  0  0  0
  -29.9355  -17.1236   20.7416 C   0  0  0  0  0  0
  -28.7663  -17.9043   20.9445 C   0  0  0  0  0  0
  -31.0048  -22.0575   21.7597 C   0  0  0  0  0  0
  -31.1128  -23.5774   21.9777 C   0  0  0  0  0  0
  -29.0214  -22.4584   20.3240 C   0  0  0  0  0  0
  -29.3080  -24.0321   20.3906 C   0  0  1  0  0  0
  -28.1156  -25.0261   20.0561 C   0  0  0  0  0  0
  -30.0568  -21.5333   20.9233 N   0  0  0  0  0  0
  -29.8111  -15.6714   20.8359 N   0  0  0  0  0  0
  -29.8722  -24.3316   21.7155 N   0  3  0  0  0  0
  -31.8046  -21.3597   22.3937 O   0  0  0  0  0  0
  -27.5944  -17.2616   21.1670 F   0  0  0  0  0  0
  -31.4801  -12.5103   19.1452 H   0  0  0  0  0  0
  -30.3735  -11.3890   19.8885 H   0  0  0  0  0  0
  -29.7678  -11.7537   17.4762 H   0  0  0  0  0  0
  -29.6508  -13.4746   17.7433 H   0  0  0  0  0  0
  -27.8642  -11.2927   18.8662 H   0  0  0  0  0  0
  -27.3743  -12.5782   17.7954 H   0  0  0  0  0  0
  -27.6716  -14.2519   19.5263 H   0  0  0  0  0  0
  -28.7100  -12.0428   21.3732 H   0  0  0  0  0  0
  -28.4499  -13.6961   21.8474 H   0  0  0  0  0  0
  -25.2762   -9.5681   22.4751 H   0  0  0  0  0  0
  -23.9998   -7.4635   22.7474 H   0  0  0  0  0  0
  -21.0835   -8.8772   19.8954 H   0  0  0  0  0  0
  -22.3694  -10.9668   19.6158 H   0  0  0  0  0  0
  -21.2008   -7.6147   23.9715 H   0  0  0  0  0  0
  -21.1479   -6.0521   25.9076 H   0  0  0  0  0  0
  -22.0600   -2.7607   23.2849 H   0  0  0  0  0  0
  -22.4114  -11.9876   22.4786 H   0  0  0  0  0  0
  -21.1116  -13.1246   22.2624 H   0  0  0  0  0  0
  -24.6639  -15.8413   20.5717 H   0  0  0  0  0  0
  -26.3000  -15.6547   20.2129 H   0  0  0  0  0  0
  -26.7172  -32.5460   23.1112 H   0  0  0  0  0  0
  -25.0072  -33.9735   25.0433 H   0  0  0  0  0  0
  -22.7116  -31.3063   21.4054 H   0  0  0  0  0  0
  -23.3748  -35.9635   23.3306 H   0  0  0  0  0  0
  -24.3581  -36.8913   22.2052 H   0  0  0  0  0  0
  -23.7244  -37.6504   23.6655 H   0  0  0  0  0  0
  -26.0902  -31.5599   20.6069 H   0  0  0  0  0  0
  -26.8402  -30.8425   22.0026 H   0  0  0  0  0  0
  -28.1146  -28.9942   21.1832 H   0  0  0  0  0  0
  -25.9579  -25.9461   18.9889 H   0  0  0  0  0  0
  -23.9666  -27.3157   19.0130 H   0  0  0  0  0  0
  -23.7518  -30.6011   19.4063 H   0  0  0  0  0  0
  -22.7523  -29.2533   19.8580 H   0  0  0  0  0  0
  -25.1293  -36.1946   25.0822 H   0  0  0  0  0  0
  -20.9978  -28.3261   24.1406 H   0  0  0  0  0  0
  -20.5681  -26.2296   23.3607 H   0  0  0  0  0  0
  -21.6644  -26.7446   22.1200 H   0  0  0  0  0  0
  -19.6914  -25.6297   21.1239 H   0  0  0  0  0  0
  -19.6687  -27.3198   20.6744 H   0  0  0  0  0  0
  -17.4200  -26.6670   21.4030 H   0  0  0  0  0  0
  -18.0336  -26.0069   22.9025 H   0  0  0  0  0  0
  -19.7937  -30.7270   24.2268 H   0  0  0  0  0  0
  -17.5016  -31.6265   24.5167 H   0  0  0  0  0  0
  -15.5353  -30.2989   23.7651 H   0  0  0  0  0  0
  -15.8674  -28.0825   22.7063 H   0  0  0  0  0  0
  -24.5899  -30.7082   25.7788 H   0  0  0  0  0  0
  -24.8926  -32.2896   26.4889 H   0  0  0  0  0  0
  -25.8056  -30.8901   27.0228 H   0  0  0  0  0  0
  -26.2904  -29.6771   24.1198 H   0  0  0  0  0  0
  -27.4034  -29.7270   25.4673 H   0  0  0  0  0  0
  -27.8772  -30.4309   23.9393 H   0  0  0  0  0  0
  -27.2661  -33.3620   26.2082 H   0  0  0  0  0  0
  -28.3858  -32.6895   25.0323 H   0  0  0  0  0  0
  -28.0726  -31.8447   26.5407 H   0  0  0  0  0  0
  -28.2600  -38.0101   24.7510 H   0  0  0  0  0  0
  -28.1074  -36.2631   24.6293 H   0  0  0  0  0  0
  -27.2297  -37.1457   25.8868 H   0  0  0  0  0  0
  -20.9357  -29.8775   21.6902 H   0  0  0  0  0  0
  -26.0177  -38.2858   24.1405 H   0  0  0  0  0  0
  -32.0947  -19.7614   20.3197 H   0  0  0  0  0  0
  -32.0558  -17.3199   20.3116 H   0  0  0  0  0  0
  -27.8625  -19.8548   21.1436 H   0  0  0  0  0  0
  -31.9042  -23.9531   21.3285 H   0  0  0  0  0  0
  -31.4319  -23.7727   23.0019 H   0  0  0  0  0  0
  -28.8600  -22.1674   19.2854 H   0  0  0  0  0  0
  -28.0799  -22.2554   20.8359 H   0  0  0  0  0  0
  -30.0909  -24.2502   19.6621 H   0  0  0  0  0  0
  -27.2724  -24.7652   20.6982 H   0  0  0  0  0  0
  -27.8047  -24.8046   19.0347 H   0  0  0  0  0  0
  -28.8853  -15.3732   21.1035 H   0  0  0  0  0  0
  -30.0732  -25.3181   21.7765 H   0  0  0  0  0  0
  -29.1993  -24.1210   22.4367 H   0  0  0  0  0  0
  1 25  1  0  0  0
  1 30  2  0  0  0
  1 83  1  0  0  0
  2  3  1  0  0  0
  2 25  1  0  0  0
  2 87  1  0  0  0
  2 88  1  0  0  0
  3  4  1  0  0  0
  3 89  1  0  0  0
  3 90  1  0  0  0
  4  5  1  0  0  0
  4 91  1  0  0  0
  4 92  1  0  0  0
  5  6  1  0  0  0
  5 26  1  0  0  0
  5 93  1  0  0  0
  6 25  1  0  0  0
  6 94  1  0  0  0
  6 95  1  0  0  0
  7  8  2  0  0  0
  7 26  1  0  0  0
  7 29  1  0  0  0
  8  9  1  0  0  0
  8 22  1  0  0  0
  9 10  1  0  0  0
  9 27  2  0  0  0
 10 11  2  0  0  0
 10 15  1  0  0  0
 11 12  1  0  0  0
 11 96  1  0  0  0
 12 13  2  0  0  0
 12 97  1  0  0  0
 13 14  1  0  0  0
 13 31  1  0  0  0
 14 15  2  0  0  0
 14 98  1  0  0  0
 15 99  1  0  0  0
 16 17  2  0  0  0
 16 21  1  0  0  0
 16 31  1  0  0  0
 17 18  1  0  0  0
 17100  1  0  0  0
 18 19  2  0  0  0
 18101  1  0  0  0
 19 20  1  0  0  0
 19 24  1  0  0  0
 20 21  2  0  0  0
 20102  1  0  0  0
 21 23  1  0  0  0
 22 28  1  0  0  0
 22 32  2  0  0  0
 26 27  1  0  0  0
 28103  1  0  0  0
 28104  1  0  0  0
 29105  1  0  0  0
 29106  1  0  0  0
 33 34  1  0  0  0
 33 66  1  0  0  0
 33 70  2  0  0  0
 34 36  1  0  0  0
 34 59  1  0  0  0
 34107  1  0  0  0
 35 44  2  0  0  0
 35 45  1  0  0  0
 35 68  1  0  0  0
 36 56  1  0  0  0
 36108  1  0  0  0
 37 39  1  0  0  0
 37 47  1  0  0  0
 37 66  1  0  0  0
 37109  1  0  0  0
 38 43  2  0  0  0
 38 46  1  0  0  0
 38 47  1  0  0  0
 39 64  1  0  0  0
 39 67  2  0  0  0
 40 52  1  0  0  0
 40 53  2  0  0  0
 40 58  1  0  0  0
 41110  1  0  0  0
 41111  1  0  0  0
 41112  1  0  0  0
 41 48  1  0  0  0
 42 43  1  0  0  0
 42 66  1  0  0  0
 42113  1  0  0  0
 42114  1  0  0  0
 43 44  1  0  0  0
 44115  1  0  0  0
 45 46  2  0  0  0
 45116  1  0  0  0
 46117  1  0  0  0
 47118  1  0  0  0
 47119  1  0  0  0
 48 56  1  0  0  0
 48 65  1  0  0  0
 48120  1  0  0  0
 49 50  1  0  0  0
 49 53  1  0  0  0
 49 64  1  0  0  0
 49121  1  0  0  0
 50 51  1  0  0  0
 50122  1  0  0  0
 50123  1  0  0  0
 51 52  1  0  0  0
 51124  1  0  0  0
 51125  1  0  0  0
 52126  1  0  0  0
 52127  1  0  0  0
 53 54  1  0  0  0
 54 55  2  0  0  0
 54128  1  0  0  0
 55 57  1  0  0  0
 55129  1  0  0  0
 56 69  2  0  0  0
 57 58  2  0  0  0
 57130  1  0  0  0
 58131  1  0  0  0
 59 60  1  0  0  0
 59 61  1  0  0  0
 59 62  1  0  0  0
 60132  1  0  0  0
 60133  1  0  0  0
 60134  1  0  0  0
 61135  1  0  0  0
 61136  1  0  0  0
 61137  1  0  0  0
 62138  1  0  0  0
 62139  1  0  0  0
 62140  1  0  0  0
 63 65  1  0  0  0
 63141  1  0  0  0
 63142  1  0  0  0
 63143  1  0  0  0
 64144  1  0  0  0
 65145  1  0  0  0
 68 81  1  0  0  0
 71 72  2  0  0  0
 71 74  1  0  0  0
 71146  1  0  0  0
 72 75  1  0  0  0
 72147  1  0  0  0
 73 74  2  0  0  0
 73 76  1  0  0  0
 73148  1  0  0  0
 74 82  1  0  0  0
 75 76  2  0  0  0
 75 83  1  0  0  0
 76 86  1  0  0  0
 77 78  1  0  0  0
 77 82  1  0  0  0
 77 85  2  0  0  0
 78 84  1  0  0  0
 78149  1  0  0  0
 78150  1  0  0  0
 79 80  1  0  0  0
 79 82  1  0  0  0
 79151  1  0  0  0
 79152  1  0  0  0
 80 81  1  0  0  0
 80 84  1  0  0  0
 80153  1  0  0  0
 81154  1  0  0  0
 81155  1  0  0  0
 83156  1  0  0  0
 84157  1  0  0  0
 84158  1  0  0  0
M  CHG  1  84   1
M  ISO  4   1 100  68 101  81 101  83 100
M  END
> <chiral flag>
0

> <version>
0

> <s_m_source_file>
/data/baiqing/PycharmProjects/Reinvent-master-3.2/result/LINK_invent/BTK/process_docking_weight1_custom_product_contain_oxygen_bond_distance_aromatic_linkinvent_7_9_3/rearranged_h_0058.sdf

> <i_m_source_file_index>
48

> <r_mmod_Potential_Energy-OPLS-2005>
-117.818412780762

> <r_mmod_Stretch_Energy-OPLS-2005>
84.2360916137695

> <r_mmod_Bend_Energy-OPLS-2005>
135.698806762695

> <r_mmod_Torsional_Energy-OPLS-2005>
303.500823974609

> <r_mmod_Improper_Torsional_Energy-OPLS-2005>
4.52448987960815

> <r_mmod_Van_der_Waal_Energy-OPLS-2005>
160.412414550781

> <r_mmod_Electrostatic_Energy-OPLS-2005>
-353.724151611328

> <r_mmod_Solvation_Energy-OPLS-2005>
-497.30908203125

> <b_mmod_Minimization_Converged-OPLS-2005>
0

> <r_mmod_RMS_Derivative-OPLS-2005>
0.193397060036659

$$$$
48
                    3D
 Structure written by MMmdl.
158166  0  0  1  0            999 V2000
  -30.6057  -14.5824   20.6005 C   0  0  0  0  0  0
  -30.4648  -12.3867   19.4291 C   0  0  0  0  0  0
  -29.5161  -12.5053   18.2143 C   0  0  0  0  0  0
  -28.0306  -12.3585   18.6225 C   0  0  0  0  0  0
  -27.6624  -13.1980   19.8745 C   0  0  2  0  0  0
  -28.7075  -12.9856   20.9926 C   0  0  0  0  0  0
  -25.2650  -13.8132   20.5639 C   0  0  0  0  0  0
  -24.1882  -13.0428   20.9179 C   0  0  0  0  0  0
  -24.6414  -11.6879   20.8772 C   0  0  0  0  0  0
  -23.9043  -10.4267   21.0425 C   0  0  0  0  0  0
  -24.3590   -9.4197   21.9211 C   0  0  0  0  0  0
  -23.6270   -8.2230   22.0767 C   0  0  0  0  0  0
  -22.4264   -8.0273   21.3529 C   0  0  0  0  0  0
  -21.9888   -9.0262   20.4650 C   0  0  0  0  0  0
  -22.7212  -10.2141   20.3070 C   0  0  0  0  0  0
  -21.6856   -6.0732   22.5287 C   0  0  0  0  0  0
  -21.4018   -6.5639   23.8228 C   0  0  0  0  0  0
  -21.3647   -5.6781   24.9188 C   0  0  0  0  0  0
  -21.6031   -4.3044   24.7220 C   0  0  0  0  0  0
  -21.8824   -3.8129   23.4351 C   0  0  0  0  0  0
  -21.9198   -4.6953   22.3414 C   0  0  0  0  0  0
  -22.7912  -13.5296   21.1807 C   0  0  0  0  0  0
  -22.1674   -4.2156   21.0982 F   0  0  0  0  0  0
  -21.5611   -3.4535   25.7732 F   0  0  0  0  0  0
  -30.0206  -13.3591   20.4421 N   0  0  0  0  0  0
  -26.3036  -12.9244   20.3326 N   0  0  0  0  0  0
  -25.9338  -11.6415   20.5784 N   0  0  0  0  0  0
  -22.0479  -12.8346   22.0351 N   0  0  0  0  0  0
  -25.4408  -15.1833   20.3999 N   0  0  0  0  0  0
  -31.7537  -14.8226   20.2096 O   0  0  0  0  0  0
  -21.6621   -6.8871   21.4244 O   0  0  0  0  0  0
  -22.3643  -14.5577   20.6606 O   0  0  0  0  0  0
  -24.6160  -31.8671   23.2113 C   0  0  0  0  0  0
  -25.9029  -32.4842   23.8405 C   0  0  1  0  0  0
  -27.2323  -27.4111   20.1075 C   0  0  0  0  0  0
  -25.5880  -33.8616   24.2349 N   0  0  0  0  0  0
  -23.4083  -30.4909   21.5494 C   0  0  2  0  0  0
  -24.8586  -28.9596   20.1124 C   0  0  0  0  0  0
  -22.7419  -29.4663   22.4969 C   0  0  0  0  0  0
  -18.0292  -28.1383   22.8516 C   0  0  0  0  0  0
  -24.1475  -36.7328   23.2635 C   0  0  0  0  0  0
  -25.9420  -30.8274   21.3678 C   0  0  0  0  0  0
  -26.0221  -29.4609   20.7135 C   0  0  0  0  0  0
  -27.2146  -28.6946   20.7089 C   0  0  0  0  0  0
  -26.0600  -26.9502   19.4675 C   0  0  0  0  0  0
  -24.8737  -27.7032   19.4846 C   0  0  0  0  0  0
  -23.6205  -29.8287   20.1627 C   0  0  0  0  0  0
  -25.4104  -36.3131   24.0346 C   0  0  1  0  0  0
  -20.5881  -28.3667   23.1312 C   0  0  2  0  0  0
  -20.6772  -26.9405   22.5389 C   0  0  0  0  0  0
  -19.5740  -26.6397   21.5193 C   0  0  0  0  0  0
  -18.1929  -26.7936   22.1628 C   0  0  0  0  0  0
  -19.1535  -28.8837   23.2908 C   0  0  0  0  0  0
  -18.9466  -30.1453   23.8907 C   0  0  0  0  0  0
  -17.6472  -30.6573   24.0585 C   0  0  0  0  0  0
  -25.9020  -34.9482   23.5160 C   0  0  0  0  0  0
  -16.5352  -29.9081   23.6327 C   0  0  0  0  0  0
  -16.7279  -28.6508   23.0367 C   0  0  0  0  0  0
  -26.4450  -31.6608   25.0729 C   0  0  0  0  0  0
  -25.3731  -31.3682   26.1498 C   0  0  0  0  0  0
  -27.0274  -30.3053   24.6103 C   0  0  0  0  0  0
  -27.6064  -32.4301   25.7472 C   0  0  0  0  0  0
  -27.5595  -37.1809   24.8470 C   0  0  0  0  0  0
  -21.4144  -29.3050   22.3724 N   0  0  0  0  0  0
  -26.4295  -37.3812   23.9420 N   0  0  0  0  0  0
  -24.6755  -31.0744   22.1025 N   0  0  0  0  0  0
  -23.4186  -28.8180   23.2995 O   0  0  0  0  0  0
  -28.3366  -26.5765   20.1649 O   0  0  0  0  0  0
  -26.5575  -34.8924   22.4716 O   0  0  0  0  0  0
  -23.5332  -32.1431   23.7474 O   0  0  0  0  0  0
  -30.1405  -18.2772   23.5478 C   0  0  0  0  0  0
  -30.2956  -17.0284   22.9056 C   0  0  0  0  0  0
  -29.4886  -18.0233   20.8417 C   0  0  0  0  0  0
  -29.3595  -19.3069   21.4648 C   0  0  0  0  0  0
  -29.6335  -19.4091   22.8610 C   0  0  0  0  0  0
  -29.9301  -16.8706   21.5496 C   0  0  0  0  0  0
  -28.8690  -20.4614   20.6575 C   0  0  0  0  0  0
  -28.1978  -25.3611   20.8381 C   0  0  0  0  0  0
  -29.3427  -20.6707   23.6818 C   0  0  0  0  0  0
  -29.3456  -24.3471   20.6537 C   0  0  0  0  0  0
  -28.8932  -22.9634   20.0789 C   0  0  0  0  0  0
  -27.9765  -20.2348   19.6933 N   0  0  0  0  0  0
  -29.7398  -15.5529   20.9998 N   0  0  0  0  0  0
  -29.2901  -21.7382   20.8518 N   0  3  0  0  0  0
  -27.2314  -25.0489   21.5415 O   0  0  0  0  0  0
  -31.4955  -12.5683   19.1112 H   0  0  0  0  0  0
  -30.4560  -11.3806   19.8448 H   0  0  0  0  0  0
  -29.7698  -11.7508   17.4662 H   0  0  0  0  0  0
  -29.6761  -13.4745   17.7382 H   0  0  0  0  0  0
  -27.8506  -11.3009   18.8268 H   0  0  0  0  0  0
  -27.3804  -12.6230   17.7878 H   0  0  0  0  0  0
  -27.6971  -14.2442   19.5683 H   0  0  0  0  0  0
  -28.7278  -11.9408   21.3071 H   0  0  0  0  0  0
  -28.4583  -13.5528   21.8928 H   0  0  0  0  0  0
  -25.2740   -9.5697   22.4804 H   0  0  0  0  0  0
  -23.9984   -7.4629   22.7515 H   0  0  0  0  0  0
  -21.0802   -8.8768   19.9010 H   0  0  0  0  0  0
  -22.3643  -10.9682   19.6203 H   0  0  0  0  0  0
  -21.2015   -7.6160   23.9729 H   0  0  0  0  0  0
  -21.1474   -6.0522   25.9094 H   0  0  0  0  0  0
  -22.0619   -2.7604   23.2839 H   0  0  0  0  0  0
  -22.4002  -12.0034   22.4844 H   0  0  0  0  0  0
  -21.1129  -13.1503   22.2476 H   0  0  0  0  0  0
  -24.6633  -15.8306   20.4717 H   0  0  0  0  0  0
  -26.2603  -15.6038   19.9786 H   0  0  0  0  0  0
  -26.7121  -32.5540   23.1173 H   0  0  0  0  0  0
  -25.0083  -33.9823   25.0538 H   0  0  0  0  0  0
  -22.7017  -31.3101   21.4068 H   0  0  0  0  0  0
  -23.3749  -35.9638   23.3302 H   0  0  0  0  0  0
  -24.3572  -36.8932   22.2045 H   0  0  0  0  0  0
  -23.7196  -37.6527   23.6637 H   0  0  0  0  0  0
  -26.0513  -31.5923   20.5959 H   0  0  0  0  0  0
  -26.8293  -30.8841   21.9873 H   0  0  0  0  0  0
  -28.1053  -29.0721   21.1894 H   0  0  0  0  0  0
  -26.0525  -25.9820   18.9879 H   0  0  0  0  0  0
  -23.9797  -27.3111   19.0139 H   0  0  0  0  0  0
  -23.7422  -30.6068   19.4084 H   0  0  0  0  0  0
  -22.7453  -29.2515   19.8574 H   0  0  0  0  0  0
  -25.1267  -36.2019   25.0832 H   0  0  0  0  0  0
  -21.0004  -28.3219   24.1413 H   0  0  0  0  0  0
  -20.5638  -26.2271   23.3579 H   0  0  0  0  0  0
  -21.6642  -26.7448   22.1181 H   0  0  0  0  0  0
  -19.6871  -25.6320   21.1183 H   0  0  0  0  0  0
  -19.6636  -27.3272   20.6734 H   0  0  0  0  0  0
  -17.4189  -26.6726   21.4029 H   0  0  0  0  0  0
  -18.0342  -26.0027   22.8986 H   0  0  0  0  0  0
  -19.7930  -30.7296   24.2250 H   0  0  0  0  0  0
  -17.5018  -31.6251   24.5205 H   0  0  0  0  0  0
  -15.5359  -30.3005   23.7631 H   0  0  0  0  0  0
  -15.8688  -28.0830   22.7044 H   0  0  0  0  0  0
  -24.5959  -30.6977   25.7848 H   0  0  0  0  0  0
  -24.8860  -32.2810   26.4915 H   0  0  0  0  0  0
  -25.8102  -30.8888   27.0272 H   0  0  0  0  0  0
  -26.2819  -29.6841   24.1162 H   0  0  0  0  0  0
  -27.4073  -29.7255   25.4524 H   0  0  0  0  0  0
  -27.8615  -30.4394   23.9227 H   0  0  0  0  0  0
  -27.2745  -33.3623   26.2037 H   0  0  0  0  0  0
  -28.3846  -32.6819   25.0265 H   0  0  0  0  0  0
  -28.0759  -31.8427   26.5373 H   0  0  0  0  0  0
  -28.2614  -38.0111   24.7542 H   0  0  0  0  0  0
  -28.1086  -36.2642   24.6262 H   0  0  0  0  0  0
  -27.2320  -37.1438   25.8874 H   0  0  0  0  0  0
  -20.9301  -29.8822   21.6993 H   0  0  0  0  0  0
  -26.0202  -38.2889   24.1422 H   0  0  0  0  0  0
  -30.3653  -18.3538   24.6024 H   0  0  0  0  0  0
  -30.6161  -16.1815   23.4947 H   0  0  0  0  0  0
  -29.1851  -17.9002   19.8117 H   0  0  0  0  0  0
  -29.2904  -20.4472   24.7478 H   0  0  0  0  0  0
  -28.3745  -21.1066   23.4251 H   0  0  0  0  0  0
  -30.1138  -21.4321   23.5578 H   0  0  0  0  0  0
  -29.8103  -24.2163   21.6297 H   0  0  0  0  0  0
  -30.1023  -24.7963   20.0074 H   0  0  0  0  0  0
  -29.2954  -22.8724   19.0700 H   0  0  0  0  0  0
  -27.8081  -22.9559   19.9663 H   0  0  0  0  0  0
  -27.6288  -19.2967   19.5598 H   0  0  0  0  0  0
  -27.6248  -20.9528   19.0816 H   0  0  0  0  0  0
  -28.7926  -15.2140   21.0781 H   0  0  0  0  0  0
  -30.0093  -21.8429   21.5568 H   0  0  0  0  0  0
  1 25  1  0  0  0
  1 30  2  0  0  0
  1 83  1  0  0  0
  2  3  1  0  0  0
  2 25  1  0  0  0
  2 86  1  0  0  0
  2 87  1  0  0  0
  3  4  1  0  0  0
  3 88  1  0  0  0
  3 89  1  0  0  0
  4  5  1  0  0  0
  4 90  1  0  0  0
  4 91  1  0  0  0
  5  6  1  0  0  0
  5 26  1  0  0  0
  5 92  1  0  0  0
  6 25  1  0  0  0
  6 93  1  0  0  0
  6 94  1  0  0  0
  7  8  2  0  0  0
  7 26  1  0  0  0
  7 29  1  0  0  0
  8  9  1  0  0  0
  8 22  1  0  0  0
  9 10  1  0  0  0
  9 27  2  0  0  0
 10 11  2  0  0  0
 10 15  1  0  0  0
 11 12  1  0  0  0
 11 95  1  0  0  0
 12 13  2  0  0  0
 12 96  1  0  0  0
 13 14  1  0  0  0
 13 31  1  0  0  0
 14 15  2  0  0  0
 14 97  1  0  0  0
 15 98  1  0  0  0
 16 17  2  0  0  0
 16 21  1  0  0  0
 16 31  1  0  0  0
 17 18  1  0  0  0
 17 99  1  0  0  0
 18 19  2  0  0  0
 18100  1  0  0  0
 19 20  1  0  0  0
 19 24  1  0  0  0
 20 21  2  0  0  0
 20101  1  0  0  0
 21 23  1  0  0  0
 22 28  1  0  0  0
 22 32  2  0  0  0
 26 27  1  0  0  0
 28102  1  0  0  0
 28103  1  0  0  0
 29104  1  0  0  0
 29105  1  0  0  0
 33 34  1  0  0  0
 33 66  1  0  0  0
 33 70  2  0  0  0
 34 36  1  0  0  0
 34 59  1  0  0  0
 34106  1  0  0  0
 35 44  2  0  0  0
 35 45  1  0  0  0
 35 68  1  0  0  0
 36 56  1  0  0  0
 36107  1  0  0  0
 37 39  1  0  0  0
 37 47  1  0  0  0
 37 66  1  0  0  0
 37108  1  0  0  0
 38 43  2  0  0  0
 38 46  1  0  0  0
 38 47  1  0  0  0
 39 64  1  0  0  0
 39 67  2  0  0  0
 40 52  1  0  0  0
 40 53  2  0  0  0
 40 58  1  0  0  0
 41109  1  0  0  0
 41110  1  0  0  0
 41111  1  0  0  0
 41 48  1  0  0  0
 42 43  1  0  0  0
 42 66  1  0  0  0
 42112  1  0  0  0
 42113  1  0  0  0
 43 44  1  0  0  0
 44114  1  0  0  0
 45 46  2  0  0  0
 45115  1  0  0  0
 46116  1  0  0  0
 47117  1  0  0  0
 47118  1  0  0  0
 48 56  1  0  0  0
 48 65  1  0  0  0
 48119  1  0  0  0
 49 50  1  0  0  0
 49 53  1  0  0  0
 49 64  1  0  0  0
 49120  1  0  0  0
 50 51  1  0  0  0
 50121  1  0  0  0
 50122  1  0  0  0
 51 52  1  0  0  0
 51123  1  0  0  0
 51124  1  0  0  0
 52125  1  0  0  0
 52126  1  0  0  0
 53 54  1  0  0  0
 54 55  2  0  0  0
 54127  1  0  0  0
 55 57  1  0  0  0
 55128  1  0  0  0
 56 69  2  0  0  0
 57 58  2  0  0  0
 57129  1  0  0  0
 58130  1  0  0  0
 59 60  1  0  0  0
 59 61  1  0  0  0
 59 62  1  0  0  0
 60131  1  0  0  0
 60132  1  0  0  0
 60133  1  0  0  0
 61134  1  0  0  0
 61135  1  0  0  0
 61136  1  0  0  0
 62137  1  0  0  0
 62138  1  0  0  0
 62139  1  0  0  0
 63 65  1  0  0  0
 63140  1  0  0  0
 63141  1  0  0  0
 63142  1  0  0  0
 64143  1  0  0  0
 65144  1  0  0  0
 68 78  1  0  0  0
 71 72  2  0  0  0
 71 75  1  0  0  0
 71145  1  0  0  0
 72 76  1  0  0  0
 72146  1  0  0  0
 73 74  1  0  0  0
 73 76  2  0  0  0
 73147  1  0  0  0
 74 75  2  0  0  0
 74 77  1  0  0  0
 75 79  1  0  0  0
 76 83  1  0  0  0
 77 82  1  0  0  0
 77 84  2  0  0  0
 78 80  1  0  0  0
 78 85  2  0  0  0
 79148  1  0  0  0
 79149  1  0  0  0
 79150  1  0  0  0
 80 81  1  0  0  0
 80151  1  0  0  0
 80152  1  0  0  0
 81 84  1  0  0  0
 81153  1  0  0  0
 81154  1  0  0  0
 82155  1  0  0  0
 82156  1  0  0  0
 83157  1  0  0  0
 84158  1  0  0  0
M  CHG  1  84   1
M  ISO  4   1 100  68 101  78 101  83 100
M  END
> <chiral flag>
0

> <version>
0

> <s_m_source_file>
/data/baiqing/PycharmProjects/Reinvent-master-3.2/result/LINK_invent/BTK/process_docking_weight1_custom_product_contain_oxygen_bond_distance_aromatic_linkinvent_7_9_3/rearranged_h_0058.sdf

> <i_m_source_file_index>
49

> <r_mmod_Potential_Energy-OPLS-2005>
-162.841384887695

> <r_mmod_Stretch_Energy-OPLS-2005>
53.427173614502

> <r_mmod_Bend_Energy-OPLS-2005>
107.287200927734

> <r_mmod_Torsional_Energy-OPLS-2005>
245.492202758789

> <r_mmod_Improper_Torsional_Energy-OPLS-2005>
8.36789512634277

> <r_mmod_Van_der_Waal_Energy-OPLS-2005>
156.074584960938

> <r_mmod_Electrostatic_Energy-OPLS-2005>
-340.884796142578

> <r_mmod_Solvation_Energy-OPLS-2005>
-424.060546875

> <b_mmod_Minimization_Converged-OPLS-2005>
0

> <r_mmod_RMS_Derivative-OPLS-2005>
6.181800365448

$$$$
49
                    3D
 Structure written by MMmdl.
156164  0  0  1  0            999 V2000
  -30.6655  -14.5462   20.5455 C   0  0  0  0  0  0
  -30.4308  -12.3493   19.4214 C   0  0  0  0  0  0
  -29.4949  -12.5040   18.2040 C   0  0  0  0  0  0
  -28.0191  -12.3485   18.6239 C   0  0  0  0  0  0
  -27.6551  -13.2070   19.8643 C   0  0  2  0  0  0
  -28.7028  -13.0286   20.9857 C   0  0  0  0  0  0
  -25.2575  -13.8152   20.5670 C   0  0  0  0  0  0
  -24.1838  -13.0425   20.9191 C   0  0  0  0  0  0
  -24.6398  -11.6900   20.8752 C   0  0  0  0  0  0
  -23.9070  -10.4289   21.0418 C   0  0  0  0  0  0
  -24.3621   -9.4206   21.9193 C   0  0  0  0  0  0
  -23.6294   -8.2244   22.0762 C   0  0  0  0  0  0
  -22.4275   -8.0285   21.3553 C   0  0  0  0  0  0
  -21.9917   -9.0262   20.4658 C   0  0  0  0  0  0
  -22.7247  -10.2138   20.3069 C   0  0  0  0  0  0
  -21.6850   -6.0742   22.5284 C   0  0  0  0  0  0
  -21.4011   -6.5644   23.8215 C   0  0  0  0  0  0
  -21.3657   -5.6799   24.9179 C   0  0  0  0  0  0
  -21.6041   -4.3059   24.7228 C   0  0  0  0  0  0
  -21.8819   -3.8153   23.4346 C   0  0  0  0  0  0
  -21.9190   -4.6972   22.3404 C   0  0  0  0  0  0
  -22.7869  -13.5239   21.1846 C   0  0  0  0  0  0
  -22.1661   -4.2154   21.0982 F   0  0  0  0  0  0
  -21.5628   -3.4543   25.7741 F   0  0  0  0  0  0
  -30.0200  -13.3520   20.4166 N   0  0  0  0  0  0
  -26.2999  -12.9315   20.3332 N   0  0  0  0  0  0
  -25.9319  -11.6480   20.5769 N   0  0  0  0  0  0
  -22.0498  -12.8235   22.0399 N   0  0  0  0  0  0
  -25.4278  -15.1870   20.4042 N   0  0  0  0  0  0
  -31.8330  -14.7086   20.1789 O   0  0  0  0  0  0
  -21.6636   -6.8884   21.4245 O   0  0  0  0  0  0
  -22.3559  -14.5545   20.6693 O   0  0  0  0  0  0
  -24.6187  -31.8647   23.2065 C   0  0  0  0  0  0
  -25.9066  -32.4798   23.8366 C   0  0  1  0  0  0
  -27.2293  -27.3864   20.1151 C   0  0  0  0  0  0
  -25.5920  -33.8601   24.2310 N   0  0  0  0  0  0
  -23.4095  -30.4859   21.5489 C   0  0  2  0  0  0
  -24.8562  -28.9419   20.1185 C   0  0  0  0  0  0
  -22.7430  -29.4630   22.4986 C   0  0  0  0  0  0
  -18.0279  -28.1368   22.8490 C   0  0  0  0  0  0
  -24.1494  -36.7310   23.2637 C   0  0  0  0  0  0
  -25.9409  -30.8166   21.3648 C   0  0  0  0  0  0
  -26.0195  -29.4452   20.7155 C   0  0  0  0  0  0
  -27.2130  -28.6771   20.7050 C   0  0  0  0  0  0
  -26.0497  -26.9073   19.5096 C   0  0  0  0  0  0
  -24.8676  -27.6742   19.5102 C   0  0  0  0  0  0
  -23.6207  -29.8166   20.1647 C   0  0  0  0  0  0
  -25.4108  -36.3098   24.0334 C   0  0  1  0  0  0
  -20.5864  -28.3657   23.1315 C   0  0  2  0  0  0
  -20.6761  -26.9392   22.5418 C   0  0  0  0  0  0
  -19.5742  -26.6383   21.5206 C   0  0  0  0  0  0
  -18.1919  -26.7918   22.1611 C   0  0  0  0  0  0
  -19.1525  -28.8823   23.2898 C   0  0  0  0  0  0
  -18.9459  -30.1431   23.8907 C   0  0  0  0  0  0
  -17.6463  -30.6580   24.0557 C   0  0  0  0  0  0
  -25.9039  -34.9466   23.5112 C   0  0  0  0  0  0
  -16.5355  -29.9075   23.6324 C   0  0  0  0  0  0
  -16.7268  -28.6485   23.0349 C   0  0  0  0  0  0
  -26.4485  -31.6592   25.0712 C   0  0  0  0  0  0
  -25.3741  -31.3718   26.1460 C   0  0  0  0  0  0
  -27.0312  -30.3029   24.6104 C   0  0  0  0  0  0
  -27.6073  -32.4301   25.7464 C   0  0  0  0  0  0
  -27.5585  -37.1790   24.8458 C   0  0  0  0  0  0
  -21.4155  -29.3030   22.3728 N   0  0  0  0  0  0
  -26.4299  -37.3778   23.9405 N   0  0  0  0  0  0
  -24.6746  -31.0703   22.0985 N   0  0  0  0  0  0
  -23.4182  -28.8173   23.3047 O   0  0  0  0  0  0
  -28.3736  -26.6081   20.0782 O   0  0  0  0  0  0
  -26.5615  -34.8932   22.4682 O   0  0  0  0  0  0
  -23.5365  -32.1429   23.7432 O   0  0  0  0  0  0
  -31.2398  -18.3277   23.0185 C   0  0  0  0  0  0
  -30.9467  -17.0509   22.5088 C   0  0  0  0  0  0
  -29.8370  -18.0988   20.6124 C   0  0  0  0  0  0
  -30.1455  -19.4115   21.0978 C   0  0  0  0  0  0
  -30.8707  -19.5043   22.3274 C   0  0  0  0  0  0
  -30.2471  -16.9145   21.2961 C   0  0  0  0  0  0
  -29.8228  -20.6353   20.2344 C   0  0  0  0  0  0
  -28.3661  -24.0690   20.2405 C   0  0  0  0  0  0
  -31.3164  -20.8252   22.9438 C   0  0  0  0  0  0
  -29.6300  -23.1631   20.2484 C   0  0  0  0  0  0
  -28.4038  -25.4525   20.9628 C   0  0  0  0  0  0
  -29.8686  -15.6001   20.8567 N   0  0  0  0  0  0
  -29.4611  -21.7982   20.8287 N   0  0  0  0  0  0
  -29.9279  -20.5473   19.0095 O   0  0  0  0  0  0
  -27.3357  -23.6790   19.6827 O   0  0  0  0  0  0
  -31.4722  -12.4667   19.1168 H   0  0  0  0  0  0
  -30.3511  -11.3451   19.8424 H   0  0  0  0  0  0
  -29.7446  -11.7670   17.4394 H   0  0  0  0  0  0
  -29.6432  -13.4827   17.7445 H   0  0  0  0  0  0
  -27.8500  -11.2934   18.8422 H   0  0  0  0  0  0
  -27.3613  -12.5929   17.7894 H   0  0  0  0  0  0
  -27.6835  -14.2468   19.5384 H   0  0  0  0  0  0
  -28.7002  -12.0012   21.3534 H   0  0  0  0  0  0
  -28.4654  -13.6535   21.8480 H   0  0  0  0  0  0
  -25.2763   -9.5671   22.4767 H   0  0  0  0  0  0
  -23.9997   -7.4633   22.7478 H   0  0  0  0  0  0
  -21.0848   -8.8789   19.8961 H   0  0  0  0  0  0
  -22.3713  -10.9684   19.6178 H   0  0  0  0  0  0
  -21.2005   -7.6149   23.9720 H   0  0  0  0  0  0
  -21.1478   -6.0528   25.9080 H   0  0  0  0  0  0
  -22.0598   -2.7614   23.2848 H   0  0  0  0  0  0
  -22.4107  -11.9884   22.4777 H   0  0  0  0  0  0
  -21.1122  -13.1278   22.2613 H   0  0  0  0  0  0
  -24.6543  -15.8365   20.5013 H   0  0  0  0  0  0
  -26.2679  -15.6270   20.0504 H   0  0  0  0  0  0
  -26.7134  -32.5506   23.1121 H   0  0  0  0  0  0
  -25.0044  -33.9742   25.0438 H   0  0  0  0  0  0
  -22.7006  -31.3043   21.4072 H   0  0  0  0  0  0
  -23.3750  -35.9650   23.3298 H   0  0  0  0  0  0
  -24.3575  -36.8934   22.2052 H   0  0  0  0  0  0
  -23.7265  -37.6514   23.6661 H   0  0  0  0  0  0
  -26.0527  -31.5792   20.5929 H   0  0  0  0  0  0
  -26.8280  -30.8750   21.9830 H   0  0  0  0  0  0
  -28.1146  -29.0625   21.1592 H   0  0  0  0  0  0
  -26.0432  -25.9384   19.0309 H   0  0  0  0  0  0
  -23.9746  -27.2826   19.0412 H   0  0  0  0  0  0
  -23.7347  -30.5920   19.4056 H   0  0  0  0  0  0
  -22.7422  -29.2412   19.8676 H   0  0  0  0  0  0
  -25.1281  -36.1949   25.0827 H   0  0  0  0  0  0
  -20.9951  -28.3226   24.1437 H   0  0  0  0  0  0
  -20.5650  -26.2270   23.3604 H   0  0  0  0  0  0
  -21.6634  -26.7434   22.1216 H   0  0  0  0  0  0
  -19.6918  -25.6295   21.1227 H   0  0  0  0  0  0
  -19.6690  -27.3205   20.6736 H   0  0  0  0  0  0
  -17.4198  -26.6681   21.4008 H   0  0  0  0  0  0
  -18.0305  -26.0048   22.8987 H   0  0  0  0  0  0
  -19.7946  -30.7228   24.2296 H   0  0  0  0  0  0
  -17.5030  -31.6262   24.5152 H   0  0  0  0  0  0
  -15.5353  -30.2979   23.7649 H   0  0  0  0  0  0
  -15.8667  -28.0810   22.7059 H   0  0  0  0  0  0
  -24.5950  -30.7010   25.7814 H   0  0  0  0  0  0
  -24.8878  -32.2873   26.4846 H   0  0  0  0  0  0
  -25.8094  -30.8956   27.0259 H   0  0  0  0  0  0
  -26.2853  -29.6765   24.1194 H   0  0  0  0  0  0
  -27.4111  -29.7283   25.4560 H   0  0  0  0  0  0
  -27.8681  -30.4320   23.9231 H   0  0  0  0  0  0
  -27.2727  -33.3615   26.2035 H   0  0  0  0  0  0
  -28.3888  -32.6826   25.0285 H   0  0  0  0  0  0
  -28.0736  -31.8419   26.5375 H   0  0  0  0  0  0
  -28.2594  -38.0096   24.7501 H   0  0  0  0  0  0
  -28.1092  -36.2621   24.6283 H   0  0  0  0  0  0
  -27.2300  -37.1445   25.8864 H   0  0  0  0  0  0
  -20.9323  -29.8774   21.6965 H   0  0  0  0  0  0
  -26.0190  -38.2854   24.1424 H   0  0  0  0  0  0
  -31.7737  -18.3968   23.9565 H   0  0  0  0  0  0
  -31.2466  -16.1772   23.0715 H   0  0  0  0  0  0
  -29.2937  -18.0044   19.6822 H   0  0  0  0  0  0
  -32.0744  -20.6686   23.7121 H   0  0  0  0  0  0
  -30.4788  -21.3356   23.4190 H   0  0  0  0  0  0
  -31.7612  -21.4867   22.2003 H   0  0  0  0  0  0
  -30.4221  -23.6694   20.8002 H   0  0  0  0  0  0
  -29.9835  -23.1024   19.2181 H   0  0  0  0  0  0
  -29.3027  -25.5096   21.5765 H   0  0  0  0  0  0
  -27.5638  -25.4922   21.6586 H   0  0  0  0  0  0
  -28.8841  -15.3892   20.9027 H   0  0  0  0  0  0
  -29.3281  -21.7534   21.8288 H   0  0  0  0  0  0
  1 25  1  0  0  0
  1 30  2  0  0  0
  1 82  1  0  0  0
  2  3  1  0  0  0
  2 25  1  0  0  0
  2 86  1  0  0  0
  2 87  1  0  0  0
  3  4  1  0  0  0
  3 88  1  0  0  0
  3 89  1  0  0  0
  4  5  1  0  0  0
  4 90  1  0  0  0
  4 91  1  0  0  0
  5  6  1  0  0  0
  5 26  1  0  0  0
  5 92  1  0  0  0
  6 25  1  0  0  0
  6 93  1  0  0  0
  6 94  1  0  0  0
  7  8  2  0  0  0
  7 26  1  0  0  0
  7 29  1  0  0  0
  8  9  1  0  0  0
  8 22  1  0  0  0
  9 10  1  0  0  0
  9 27  2  0  0  0
 10 11  2  0  0  0
 10 15  1  0  0  0
 11 12  1  0  0  0
 11 95  1  0  0  0
 12 13  2  0  0  0
 12 96  1  0  0  0
 13 14  1  0  0  0
 13 31  1  0  0  0
 14 15  2  0  0  0
 14 97  1  0  0  0
 15 98  1  0  0  0
 16 17  2  0  0  0
 16 21  1  0  0  0
 16 31  1  0  0  0
 17 18  1  0  0  0
 17 99  1  0  0  0
 18 19  2  0  0  0
 18100  1  0  0  0
 19 20  1  0  0  0
 19 24  1  0  0  0
 20 21  2  0  0  0
 20101  1  0  0  0
 21 23  1  0  0  0
 22 28  1  0  0  0
 22 32  2  0  0  0
 26 27  1  0  0  0
 28102  1  0  0  0
 28103  1  0  0  0
 29104  1  0  0  0
 29105  1  0  0  0
 33 34  1  0  0  0
 33 66  1  0  0  0
 33 70  2  0  0  0
 34 36  1  0  0  0
 34 59  1  0  0  0
 34106  1  0  0  0
 35 44  2  0  0  0
 35 45  1  0  0  0
 35 68  1  0  0  0
 36 56  1  0  0  0
 36107  1  0  0  0
 37 39  1  0  0  0
 37 47  1  0  0  0
 37 66  1  0  0  0
 37108  1  0  0  0
 38 43  2  0  0  0
 38 46  1  0  0  0
 38 47  1  0  0  0
 39 64  1  0  0  0
 39 67  2  0  0  0
 40 52  1  0  0  0
 40 53  2  0  0  0
 40 58  1  0  0  0
 41109  1  0  0  0
 41110  1  0  0  0
 41111  1  0  0  0
 41 48  1  0  0  0
 42 43  1  0  0  0
 42 66  1  0  0  0
 42112  1  0  0  0
 42113  1  0  0  0
 43 44  1  0  0  0
 44114  1  0  0  0
 45 46  2  0  0  0
 45115  1  0  0  0
 46116  1  0  0  0
 47117  1  0  0  0
 47118  1  0  0  0
 48 56  1  0  0  0
 48 65  1  0  0  0
 48119  1  0  0  0
 49 50  1  0  0  0
 49 53  1  0  0  0
 49 64  1  0  0  0
 49120  1  0  0  0
 50 51  1  0  0  0
 50121  1  0  0  0
 50122  1  0  0  0
 51 52  1  0  0  0
 51123  1  0  0  0
 51124  1  0  0  0
 52125  1  0  0  0
 52126  1  0  0  0
 53 54  1  0  0  0
 54 55  2  0  0  0
 54127  1  0  0  0
 55 57  1  0  0  0
 55128  1  0  0  0
 56 69  2  0  0  0
 57 58  2  0  0  0
 57129  1  0  0  0
 58130  1  0  0  0
 59 60  1  0  0  0
 59 61  1  0  0  0
 59 62  1  0  0  0
 60131  1  0  0  0
 60132  1  0  0  0
 60133  1  0  0  0
 61134  1  0  0  0
 61135  1  0  0  0
 61136  1  0  0  0
 62137  1  0  0  0
 62138  1  0  0  0
 62139  1  0  0  0
 63 65  1  0  0  0
 63140  1  0  0  0
 63141  1  0  0  0
 63142  1  0  0  0
 64143  1  0  0  0
 65144  1  0  0  0
 68 81  1  0  0  0
 71 72  2  0  0  0
 71 75  1  0  0  0
 71145  1  0  0  0
 72 76  1  0  0  0
 72146  1  0  0  0
 73 74  1  0  0  0
 73 76  2  0  0  0
 73147  1  0  0  0
 74 75  2  0  0  0
 74 77  1  0  0  0
 75 79  1  0  0  0
 76 82  1  0  0  0
 77 83  1  0  0  0
 77 84  2  0  0  0
 78 80  1  0  0  0
 78 81  1  0  0  0
 78 85  2  0  0  0
 79148  1  0  0  0
 79149  1  0  0  0
 79150  1  0  0  0
 80 83  1  0  0  0
 80151  1  0  0  0
 80152  1  0  0  0
 81153  1  0  0  0
 81154  1  0  0  0
 82155  1  0  0  0
 83156  1  0  0  0
M  ISO  4   1 100  68 101  81 101  82 100
M  END
> <chiral flag>
0

> <version>
0

> <s_m_source_file>
/data/baiqing/PycharmProjects/Reinvent-master-3.2/result/LINK_invent/BTK/process_docking_weight1_custom_product_contain_oxygen_bond_distance_aromatic_linkinvent_7_9_3/rearranged_h_0058.sdf

> <i_m_source_file_index>
50

> <r_mmod_Potential_Energy-OPLS-2005>
-54.5502052307129

> <r_mmod_Stretch_Energy-OPLS-2005>
52.8272895812988

> <r_mmod_Bend_Energy-OPLS-2005>
107.792816162109

> <r_mmod_Torsional_Energy-OPLS-2005>
292.327972412109

> <r_mmod_Improper_Torsional_Energy-OPLS-2005>
7.83824443817139

> <r_mmod_Van_der_Waal_Energy-OPLS-2005>
144.695159912109

> <r_mmod_Electrostatic_Energy-OPLS-2005>
-425.449951171875

> <r_mmod_Solvation_Energy-OPLS-2005>
-258.378570556641

> <b_mmod_Minimization_Converged-OPLS-2005>
0

> <r_mmod_RMS_Derivative-OPLS-2005>
1.81872689723969

$$$$
50
                    3D
 Structure written by MMmdl.
162170  0  0  1  0            999 V2000
  -30.7106  -14.4094   20.5710 C   0  0  0  0  0  0
  -30.4176  -12.2619   19.4264 C   0  0  0  0  0  0
  -29.4948  -12.4932   18.2112 C   0  0  0  0  0  0
  -28.0153  -12.3610   18.6204 C   0  0  0  0  0  0
  -27.6650  -13.2019   19.8786 C   0  0  2  0  0  0
  -28.6991  -12.9567   21.0027 C   0  0  0  0  0  0
  -25.2600  -13.8215   20.5665 C   0  0  0  0  0  0
  -24.1836  -13.0474   20.9183 C   0  0  0  0  0  0
  -24.6400  -11.6947   20.8760 C   0  0  0  0  0  0
  -23.9087  -10.4317   21.0440 C   0  0  0  0  0  0
  -24.3639   -9.4228   21.9207 C   0  0  0  0  0  0
  -23.6310   -8.2262   22.0765 C   0  0  0  0  0  0
  -22.4284   -8.0322   21.3560 C   0  0  0  0  0  0
  -21.9935   -9.0305   20.4660 C   0  0  0  0  0  0
  -22.7275  -10.2175   20.3080 C   0  0  0  0  0  0
  -21.6858   -6.0776   22.5295 C   0  0  0  0  0  0
  -21.4009   -6.5664   23.8237 C   0  0  0  0  0  0
  -21.3649   -5.6811   24.9185 C   0  0  0  0  0  0
  -21.6030   -4.3074   24.7227 C   0  0  0  0  0  0
  -21.8814   -3.8175   23.4341 C   0  0  0  0  0  0
  -21.9183   -4.6999   22.3404 C   0  0  0  0  0  0
  -22.7859  -13.5287   21.1862 C   0  0  0  0  0  0
  -22.1655   -4.2194   21.0977 F   0  0  0  0  0  0
  -21.5620   -3.4543   25.7725 F   0  0  0  0  0  0
  -30.0430  -13.2329   20.4663 N   0  0  0  0  0  0
  -26.3023  -12.9352   20.3350 N   0  0  0  0  0  0
  -25.9309  -11.6525   20.5757 N   0  0  0  0  0  0
  -22.0472  -12.8275   22.0409 N   0  0  0  0  0  0
  -25.4349  -15.1924   20.4059 N   0  0  0  0  0  0
  -31.8118  -14.6081   20.0484 O   0  0  0  0  0  0
  -21.6643   -6.8921   21.4257 O   0  0  0  0  0  0
  -22.3545  -14.5599   20.6731 O   0  0  0  0  0  0
  -24.6208  -31.8720   23.2072 C   0  0  0  0  0  0
  -25.9085  -32.4854   23.8388 C   0  0  1  0  0  0
  -27.2187  -27.4354   20.1002 C   0  0  0  0  0  0
  -25.5937  -33.8636   24.2361 N   0  0  0  0  0  0
  -23.4091  -30.5011   21.5465 C   0  0  2  0  0  0
  -24.8492  -28.9812   20.1021 C   0  0  0  0  0  0
  -22.7443  -29.4730   22.4925 C   0  0  0  0  0  0
  -18.0325  -28.1355   22.8461 C   0  0  0  0  0  0
  -24.1504  -36.7345   23.2635 C   0  0  0  0  0  0
  -25.9363  -30.8402   21.3604 C   0  0  0  0  0  0
  -26.0079  -29.4759   20.7118 C   0  0  0  0  0  0
  -27.1921  -28.7048   20.7236 C   0  0  0  0  0  0
  -26.0476  -26.9869   19.4415 C   0  0  0  0  0  0
  -24.8611  -27.7310   19.4706 C   0  0  0  0  0  0
  -23.6158  -29.8468   20.1541 C   0  0  0  0  0  0
  -25.4104  -36.3147   24.0366 C   0  0  1  0  0  0
  -20.5930  -28.3676   23.1289 C   0  0  2  0  0  0
  -20.6816  -26.9470   22.5246 C   0  0  0  0  0  0
  -19.5795  -26.6619   21.5020 C   0  0  0  0  0  0
  -18.1967  -26.7989   22.1442 C   0  0  0  0  0  0
  -19.1568  -28.8799   23.2939 C   0  0  0  0  0  0
  -18.9470  -30.1359   23.9051 C   0  0  0  0  0  0
  -17.6464  -30.6511   24.0637 C   0  0  0  0  0  0
  -25.9029  -34.9500   23.5155 C   0  0  0  0  0  0
  -16.5375  -29.9028   23.6293 C   0  0  0  0  0  0
  -16.7309  -28.6467   23.0282 C   0  0  0  0  0  0
  -26.4470  -31.6598   25.0707 C   0  0  0  0  0  0
  -25.3734  -31.3697   26.1459 C   0  0  0  0  0  0
  -27.0308  -30.3067   24.6051 C   0  0  0  0  0  0
  -27.6091  -32.4234   25.7454 C   0  0  0  0  0  0
  -27.5592  -37.1824   24.8466 C   0  0  0  0  0  0
  -21.4156  -29.3148   22.3725 N   0  0  0  0  0  0
  -26.4310  -37.3824   23.9409 N   0  0  0  0  0  0
  -24.6747  -31.0832   22.0975 N   0  0  0  0  0  0
  -23.4209  -28.8238   23.2949 O   0  0  0  0  0  0
  -28.3621  -26.6598   20.1738 O   0  0  0  0  0  0
  -26.5548  -34.8958   22.4686 O   0  0  0  0  0  0
  -23.5377  -32.1459   23.7447 O   0  0  0  0  0  0
  -30.0955  -18.4349   18.9634 C   0  0  0  0  0  0
  -30.2029  -17.0994   19.3905 C   0  0  0  0  0  0
  -29.7664  -17.7954   21.6812 C   0  0  0  0  0  0
  -29.8015  -19.4649   19.8852 C   0  0  0  0  0  0
  -30.0294  -16.7596   20.7548 C   0  0  0  0  0  0
  -29.6750  -19.1406   21.2580 C   0  0  0  0  0  0
  -29.5563  -20.8177   19.3644 C   0  0  0  0  0  0
  -28.2987  -23.4536   21.6517 C   0  0  0  0  0  0
  -30.2539  -24.9971   21.3703 C   0  0  0  0  0  0
  -29.7425  -23.3245   19.5266 C   0  0  0  0  0  0
  -28.1802  -25.2589   19.9020 C   0  0  0  0  0  0
  -29.1344  -24.2566   20.6189 C   0  0  0  0  0  0
  -28.8503  -20.9340   18.2340 N   0  0  0  0  0  0
  -30.0533  -15.4012   21.1925 N   0  0  0  0  0  0
  -30.0029  -21.9367   19.9702 N   0  3  0  0  0  0
  -29.4432  -20.1080   22.1802 F   0  0  0  0  0  0
  -31.4643  -12.3478   19.1254 H   0  0  0  0  0  0
  -30.3049  -11.2442   19.8066 H   0  0  0  0  0  0
  -29.7270  -11.7792   17.4199 H   0  0  0  0  0  0
  -29.6760  -13.4848   17.7922 H   0  0  0  0  0  0
  -27.8191  -11.3046   18.8134 H   0  0  0  0  0  0
  -27.3670  -12.6413   17.7895 H   0  0  0  0  0  0
  -27.7226  -14.2506   19.5858 H   0  0  0  0  0  0
  -28.6432  -11.9184   21.3345 H   0  0  0  0  0  0
  -28.4695  -13.5522   21.8866 H   0  0  0  0  0  0
  -25.2795   -9.5678   22.4781 H   0  0  0  0  0  0
  -24.0019   -7.4637   22.7468 H   0  0  0  0  0  0
  -21.0882   -8.8856   19.8954 H   0  0  0  0  0  0
  -22.3783  -10.9728   19.6190 H   0  0  0  0  0  0
  -21.2014   -7.6172   23.9762 H   0  0  0  0  0  0
  -21.1462   -6.0524   25.9093 H   0  0  0  0  0  0
  -22.0590   -2.7638   23.2828 H   0  0  0  0  0  0
  -22.4043  -11.9935   22.4831 H   0  0  0  0  0  0
  -21.1092  -13.1323   22.2593 H   0  0  0  0  0  0
  -24.6818  -15.8595   20.5361 H   0  0  0  0  0  0
  -26.2918  -15.6238   20.0832 H   0  0  0  0  0  0
  -26.7200  -32.5608   23.1191 H   0  0  0  0  0  0
  -25.0151  -33.9791   25.0552 H   0  0  0  0  0  0
  -22.7094  -31.3273   21.4097 H   0  0  0  0  0  0
  -23.3791  -35.9665   23.3310 H   0  0  0  0  0  0
  -24.3658  -36.8908   22.2058 H   0  0  0  0  0  0
  -23.7227  -37.6556   23.6600 H   0  0  0  0  0  0
  -26.0373  -31.6026   20.5880 H   0  0  0  0  0  0
  -26.8318  -30.9058   21.9648 H   0  0  0  0  0  0
  -28.0709  -29.0710   21.2356 H   0  0  0  0  0  0
  -26.0107  -26.0596   18.8926 H   0  0  0  0  0  0
  -23.9737  -27.3410   18.9909 H   0  0  0  0  0  0
  -23.7244  -30.6280   19.4000 H   0  0  0  0  0  0
  -22.7478  -29.2634   19.8427 H   0  0  0  0  0  0
  -25.1269  -36.2048   25.0871 H   0  0  0  0  0  0
  -21.0090  -28.3114   24.1380 H   0  0  0  0  0  0
  -20.5724  -26.2256   23.3362 H   0  0  0  0  0  0
  -21.6655  -26.7562   22.0949 H   0  0  0  0  0  0
  -19.6972  -25.6675   21.0723 H   0  0  0  0  0  0
  -19.6668  -27.3731   20.6766 H   0  0  0  0  0  0
  -17.4279  -26.6839   21.3770 H   0  0  0  0  0  0
  -18.0357  -25.9971   22.8637 H   0  0  0  0  0  0
  -19.7924  -30.7143   24.2551 H   0  0  0  0  0  0
  -17.4999  -31.6152   24.5279 H   0  0  0  0  0  0
  -15.5375  -30.2933   23.7563 H   0  0  0  0  0  0
  -15.8736  -28.0801   22.6888 H   0  0  0  0  0  0
  -24.5914  -30.7026   25.7819 H   0  0  0  0  0  0
  -24.8902  -32.2847   26.4909 H   0  0  0  0  0  0
  -25.8107  -30.8875   27.0221 H   0  0  0  0  0  0
  -26.2855  -29.6811   24.1123 H   0  0  0  0  0  0
  -27.4175  -29.7300   25.4472 H   0  0  0  0  0  0
  -27.8651  -30.4477   23.9163 H   0  0  0  0  0  0
  -27.2798  -33.3528   26.2121 H   0  0  0  0  0  0
  -28.3865  -32.6764   25.0227 H   0  0  0  0  0  0
  -28.0804  -31.8250   26.5264 H   0  0  0  0  0  0
  -28.2618  -38.0110   24.7511 H   0  0  0  0  0  0
  -28.1063  -36.2638   24.6280 H   0  0  0  0  0  0
  -27.2322  -37.1492   25.8873 H   0  0  0  0  0  0
  -20.9246  -29.9050   21.7149 H   0  0  0  0  0  0
  -26.0225  -38.2941   24.1345 H   0  0  0  0  0  0
  -30.2190  -18.6616   17.9132 H   0  0  0  0  0  0
  -30.3968  -16.3438   18.6433 H   0  0  0  0  0  0
  -29.6292  -17.5719   22.7280 H   0  0  0  0  0  0
  -28.9147  -22.8080   22.2771 H   0  0  0  0  0  0
  -27.5535  -22.8192   21.1698 H   0  0  0  0  0  0
  -27.7639  -24.1225   22.3270 H   0  0  0  0  0  0
  -30.9588  -24.2997   21.8217 H   0  0  0  0  0  0
  -29.8485  -25.6231   22.1676 H   0  0  0  0  0  0
  -30.8116  -25.6540   20.7018 H   0  0  0  0  0  0
  -30.6709  -23.7576   19.1490 H   0  0  0  0  0  0
  -29.0871  -23.3021   18.6585 H   0  0  0  0  0  0
  -27.1828  -24.9426   20.2088 H   0  0  0  0  0  0
  -28.1969  -25.1474   18.8161 H   0  0  0  0  0  0
  -28.4892  -20.1077   17.7832 H   0  0  0  0  0  0
  -28.6573  -21.8198   17.8013 H   0  0  0  0  0  0
  -29.3352  -15.1231   21.8439 H   0  0  0  0  0  0
  -30.5333  -21.8130   20.8249 H   0  0  0  0  0  0
  1 25  1  0  0  0
  1 30  2  0  0  0
  1 84  1  0  0  0
  2  3  1  0  0  0
  2 25  1  0  0  0
  2 87  1  0  0  0
  2 88  1  0  0  0
  3  4  1  0  0  0
  3 89  1  0  0  0
  3 90  1  0  0  0
  4  5  1  0  0  0
  4 91  1  0  0  0
  4 92  1  0  0  0
  5  6  1  0  0  0
  5 26  1  0  0  0
  5 93  1  0  0  0
  6 25  1  0  0  0
  6 94  1  0  0  0
  6 95  1  0  0  0
  7  8  2  0  0  0
  7 26  1  0  0  0
  7 29  1  0  0  0
  8  9  1  0  0  0
  8 22  1  0  0  0
  9 10  1  0  0  0
  9 27  2  0  0  0
 10 11  2  0  0  0
 10 15  1  0  0  0
 11 12  1  0  0  0
 11 96  1  0  0  0
 12 13  2  0  0  0
 12 97  1  0  0  0
 13 14  1  0  0  0
 13 31  1  0  0  0
 14 15  2  0  0  0
 14 98  1  0  0  0
 15 99  1  0  0  0
 16 17  2  0  0  0
 16 21  1  0  0  0
 16 31  1  0  0  0
 17 18  1  0  0  0
 17100  1  0  0  0
 18 19  2  0  0  0
 18101  1  0  0  0
 19 20  1  0  0  0
 19 24  1  0  0  0
 20 21  2  0  0  0
 20102  1  0  0  0
 21 23  1  0  0  0
 22 28  1  0  0  0
 22 32  2  0  0  0
 26 27  1  0  0  0
 28103  1  0  0  0
 28104  1  0  0  0
 29105  1  0  0  0
 29106  1  0  0  0
 33 34  1  0  0  0
 33 66  1  0  0  0
 33 70  2  0  0  0
 34 36  1  0  0  0
 34 59  1  0  0  0
 34107  1  0  0  0
 35 44  2  0  0  0
 35 45  1  0  0  0
 35 68  1  0  0  0
 36 56  1  0  0  0
 36108  1  0  0  0
 37 39  1  0  0  0
 37 47  1  0  0  0
 37 66  1  0  0  0
 37109  1  0  0  0
 38 43  2  0  0  0
 38 46  1  0  0  0
 38 47  1  0  0  0
 39 64  1  0  0  0
 39 67  2  0  0  0
 40 52  1  0  0  0
 40 53  2  0  0  0
 40 58  1  0  0  0
 41110  1  0  0  0
 41111  1  0  0  0
 41112  1  0  0  0
 41 48  1  0  0  0
 42 43  1  0  0  0
 42 66  1  0  0  0
 42113  1  0  0  0
 42114  1  0  0  0
 43 44  1  0  0  0
 44115  1  0  0  0
 45 46  2  0  0  0
 45116  1  0  0  0
 46117  1  0  0  0
 47118  1  0  0  0
 47119  1  0  0  0
 48 56  1  0  0  0
 48 65  1  0  0  0
 48120  1  0  0  0
 49 50  1  0  0  0
 49 53  1  0  0  0
 49 64  1  0  0  0
 49121  1  0  0  0
 50 51  1  0  0  0
 50122  1  0  0  0
 50123  1  0  0  0
 51 52  1  0  0  0
 51124  1  0  0  0
 51125  1  0  0  0
 52126  1  0  0  0
 52127  1  0  0  0
 53 54  1  0  0  0
 54 55  2  0  0  0
 54128  1  0  0  0
 55 57  1  0  0  0
 55129  1  0  0  0
 56 69  2  0  0  0
 57 58  2  0  0  0
 57130  1  0  0  0
 58131  1  0  0  0
 59 60  1  0  0  0
 59 61  1  0  0  0
 59 62  1  0  0  0
 60132  1  0  0  0
 60133  1  0  0  0
 60134  1  0  0  0
 61135  1  0  0  0
 61136  1  0  0  0
 61137  1  0  0  0
 62138  1  0  0  0
 62139  1  0  0  0
 62140  1  0  0  0
 63 65  1  0  0  0
 63141  1  0  0  0
 63142  1  0  0  0
 63143  1  0  0  0
 64144  1  0  0  0
 65145  1  0  0  0
 68 81  1  0  0  0
 71 72  2  0  0  0
 71 74  1  0  0  0
 71146  1  0  0  0
 72 75  1  0  0  0
 72147  1  0  0  0
 73 75  2  0  0  0
 73 76  1  0  0  0
 73148  1  0  0  0
 74 76  2  0  0  0
 74 77  1  0  0  0
 75 84  1  0  0  0
 76 86  1  0  0  0
 77 83  1  0  0  0
 77 85  2  0  0  0
 78149  1  0  0  0
 78150  1  0  0  0
 78151  1  0  0  0
 78 82  1  0  0  0
 79 82  1  0  0  0
 79152  1  0  0  0
 79153  1  0  0  0
 79154  1  0  0  0
 80 82  1  0  0  0
 80 85  1  0  0  0
 80155  1  0  0  0
 80156  1  0  0  0
 81 82  1  0  0  0
 81157  1  0  0  0
 81158  1  0  0  0
 83159  1  0  0  0
 83160  1  0  0  0
 84161  1  0  0  0
 85162  1  0  0  0
M  CHG  1  85   1
M  ISO  4   1 100  68 101  81 101  84 100
M  END
> <chiral flag>
0

> <version>
0

> <s_m_source_file>
/data/baiqing/PycharmProjects/Reinvent-master-3.2/result/LINK_invent/BTK/process_docking_weight1_custom_product_contain_oxygen_bond_distance_aromatic_linkinvent_7_9_3/rearranged_h_0058.sdf

> <i_m_source_file_index>
51

> <r_mmod_Potential_Energy-OPLS-2005>
-150.743118286133

> <r_mmod_Stretch_Energy-OPLS-2005>
37.7916107177734

> <r_mmod_Bend_Energy-OPLS-2005>
102.111747741699

> <r_mmod_Torsional_Energy-OPLS-2005>
274.615905761719

> <r_mmod_Improper_Torsional_Energy-OPLS-2005>
3.94543075561523

> <r_mmod_Van_der_Waal_Energy-OPLS-2005>
190.041320800781

> <r_mmod_Electrostatic_Energy-OPLS-2005>
-357.101806640625

> <r_mmod_Solvation_Energy-OPLS-2005>
-416.465148925781

> <b_mmod_Minimization_Converged-OPLS-2005>
0

> <r_mmod_RMS_Derivative-OPLS-2005>
4.64685392379761

$$$$
51
                    3D
 Structure written by MMmdl.
160169  0  0  1  0            999 V2000
  -30.6244  -14.6327   20.5071 C   0  0  0  0  0  0
  -30.4389  -12.3851   19.4606 C   0  0  0  0  0  0
  -29.5120  -12.4999   18.2283 C   0  0  0  0  0  0
  -28.0309  -12.3466   18.6340 C   0  0  0  0  0  0
  -27.6530  -13.2171   19.8627 C   0  0  2  0  0  0
  -28.6954  -13.0696   20.9942 C   0  0  0  0  0  0
  -25.2544  -13.8167   20.5679 C   0  0  0  0  0  0
  -24.1811  -13.0429   20.9175 C   0  0  0  0  0  0
  -24.6389  -11.6902   20.8730 C   0  0  0  0  0  0
  -23.9068  -10.4284   21.0402 C   0  0  0  0  0  0
  -24.3617   -9.4201   21.9182 C   0  0  0  0  0  0
  -23.6289   -8.2241   22.0758 C   0  0  0  0  0  0
  -22.4269   -8.0281   21.3552 C   0  0  0  0  0  0
  -21.9902   -9.0254   20.4660 C   0  0  0  0  0  0
  -22.7234  -10.2130   20.3059 C   0  0  0  0  0  0
  -21.6846   -6.0737   22.5279 C   0  0  0  0  0  0
  -21.4017   -6.5639   23.8216 C   0  0  0  0  0  0
  -21.3659   -5.6791   24.9176 C   0  0  0  0  0  0
  -21.6037   -4.3052   24.7226 C   0  0  0  0  0  0
  -21.8815   -3.8148   23.4344 C   0  0  0  0  0  0
  -21.9189   -4.6966   22.3400 C   0  0  0  0  0  0
  -22.7836  -13.5228   21.1843 C   0  0  0  0  0  0
  -22.1653   -4.2151   21.0978 F   0  0  0  0  0  0
  -21.5628   -3.4539   25.7743 F   0  0  0  0  0  0
  -30.0145  -13.4075   20.4358 N   0  0  0  0  0  0
  -26.2980  -12.9358   20.3302 N   0  0  0  0  0  0
  -25.9317  -11.6510   20.5740 N   0  0  0  0  0  0
  -22.0482  -12.8243   22.0421 N   0  0  0  0  0  0
  -25.4232  -15.1895   20.4122 N   0  0  0  0  0  0
  -31.7831  -14.8001   20.1125 O   0  0  0  0  0  0
  -21.6633   -6.8881   21.4241 O   0  0  0  0  0  0
  -22.3517  -14.5527   20.6682 O   0  0  0  0  0  0
  -24.6242  -31.8600   23.2038 C   0  0  0  0  0  0
  -25.9087  -32.4783   23.8372 C   0  0  1  0  0  0
  -27.2270  -27.3264   20.1157 C   0  0  0  0  0  0
  -25.5905  -33.8586   24.2293 N   0  0  0  0  0  0
  -23.4187  -30.4827   21.5459 C   0  0  2  0  0  0
  -24.8656  -28.9389   20.1104 C   0  0  0  0  0  0
  -22.7466  -29.4621   22.4948 C   0  0  0  0  0  0
  -18.0287  -28.1388   22.8499 C   0  0  0  0  0  0
  -24.1482  -36.7297   23.2645 C   0  0  0  0  0  0
  -25.9589  -30.7905   21.3771 C   0  0  0  0  0  0
  -26.0315  -29.4193   20.7184 C   0  0  0  0  0  0
  -27.2128  -28.6226   20.7143 C   0  0  0  0  0  0
  -26.0378  -26.8957   19.4824 C   0  0  0  0  0  0
  -24.8701  -27.6821   19.4846 C   0  0  0  0  0  0
  -23.6328  -29.8173   20.1606 C   0  0  0  0  0  0
  -25.4104  -36.3087   24.0336 C   0  0  1  0  0  0
  -20.5882  -28.3683   23.1298 C   0  0  2  0  0  0
  -20.6770  -26.9408   22.5412 C   0  0  0  0  0  0
  -19.5743  -26.6388   21.5215 C   0  0  0  0  0  0
  -18.1926  -26.7934   22.1630 C   0  0  0  0  0  0
  -19.1537  -28.8854   23.2898 C   0  0  0  0  0  0
  -18.9458  -30.1458   23.8913 C   0  0  0  0  0  0
  -17.6454  -30.6589   24.0569 C   0  0  0  0  0  0
  -25.9042  -34.9455   23.5115 C   0  0  0  0  0  0
  -16.5348  -29.9088   23.6331 C   0  0  0  0  0  0
  -16.7274  -28.6504   23.0358 C   0  0  0  0  0  0
  -26.4485  -31.6607   25.0747 C   0  0  0  0  0  0
  -25.3731  -31.3747   26.1486 C   0  0  0  0  0  0
  -27.0341  -30.3034   24.6217 C   0  0  0  0  0  0
  -27.6053  -32.4353   25.7495 C   0  0  0  0  0  0
  -27.5576  -37.1798   24.8463 C   0  0  0  0  0  0
  -21.4175  -29.3039   22.3690 N   0  0  0  0  0  0
  -26.4287  -37.3774   23.9411 N   0  0  0  0  0  0
  -24.6859  -31.0611   22.0994 N   0  0  0  0  0  0
  -23.4188  -28.8163   23.3031 O   0  0  0  0  0  0
  -28.3600  -26.5020   20.1769 O   0  0  0  0  0  0
  -26.5607  -34.8916   22.4684 O   0  0  0  0  0  0
  -23.5402  -32.1415   23.7354 O   0  0  0  0  0  0
  -30.5314  -19.3803   21.4945 C   0  0  0  0  0  0
  -30.5187  -17.9658   21.6587 C   0  0  0  0  0  0
  -29.3889  -17.7551   19.5500 C   0  0  0  0  0  0
  -29.4138  -19.1739   19.3574 C   0  0  0  0  0  0
  -30.0058  -20.0338   20.3410 C   0  0  0  0  0  0
  -29.9633  -17.1116   20.6774 C   0  0  0  0  0  0
  -31.6921  -23.2858   19.5422 C   0  0  0  0  0  0
  -30.7891  -24.3097   19.6787 C   0  0  0  0  0  0
  -31.4860  -21.8955   19.9169 C   0  0  0  0  0  0
  -29.3887  -20.5968   17.2712 C   0  0  0  0  0  0
  -28.8814  -19.6357   18.0603 C   0  0  0  0  0  0
  -29.0661  -22.4781   20.1245 C   0  0  0  0  0  0
  -29.4076  -24.0347   20.2933 C   0  0  2  0  0  0
  -28.2433  -25.0572   19.8632 C   0  0  0  0  0  0
  -30.2100  -21.4888   20.1760 N   0  0  0  0  0  0
  -29.8268  -15.6756   20.8919 N   0  0  0  0  0  0
  -30.9555  -25.5050   19.3504 O   0  5  0  0  0  0
  -32.4576  -21.1389   19.9695 O   0  0  0  0  0  0
  -31.4828  -12.5039   19.1649 H   0  0  0  0  0  0
  -30.3699  -11.3912   19.9051 H   0  0  0  0  0  0
  -29.7756  -11.7434   17.4881 H   0  0  0  0  0  0
  -29.6618  -13.4655   17.7434 H   0  0  0  0  0  0
  -27.8598  -11.2943   18.8618 H   0  0  0  0  0  0
  -27.3813  -12.5819   17.7906 H   0  0  0  0  0  0
  -27.6726  -14.2529   19.5226 H   0  0  0  0  0  0
  -28.7004  -12.0486   21.3788 H   0  0  0  0  0  0
  -28.4392  -13.7029   21.8453 H   0  0  0  0  0  0
  -25.2765   -9.5673   22.4758 H   0  0  0  0  0  0
  -23.9998   -7.4627   22.7475 H   0  0  0  0  0  0
  -21.0828   -8.8771   19.8972 H   0  0  0  0  0  0
  -22.3686  -10.9668   19.6173 H   0  0  0  0  0  0
  -21.2017   -7.6153   23.9720 H   0  0  0  0  0  0
  -21.1484   -6.0525   25.9081 H   0  0  0  0  0  0
  -22.0596   -2.7611   23.2840 H   0  0  0  0  0  0
  -22.4086  -11.9915   22.4836 H   0  0  0  0  0  0
  -21.1103  -13.1287   22.2628 H   0  0  0  0  0  0
  -24.6536  -15.8401   20.5284 H   0  0  0  0  0  0
  -26.2697  -15.6379   20.0857 H   0  0  0  0  0  0
  -26.7158  -32.5449   23.1126 H   0  0  0  0  0  0
  -25.0051  -33.9746   25.0434 H   0  0  0  0  0  0
  -22.7132  -31.3038   21.4027 H   0  0  0  0  0  0
  -23.3739  -35.9635   23.3313 H   0  0  0  0  0  0
  -24.3582  -36.8910   22.2059 H   0  0  0  0  0  0
  -23.7239  -37.6501   23.6668 H   0  0  0  0  0  0
  -26.0928  -31.5543   20.6097 H   0  0  0  0  0  0
  -26.8378  -30.8371   22.0084 H   0  0  0  0  0  0
  -28.1066  -28.9826   21.2043 H   0  0  0  0  0  0
  -25.9821  -25.9363   18.9894 H   0  0  0  0  0  0
  -23.9758  -27.3092   19.0040 H   0  0  0  0  0  0
  -23.7508  -30.5941   19.4045 H   0  0  0  0  0  0
  -22.7534  -29.2457   19.8588 H   0  0  0  0  0  0
  -25.1278  -36.1949   25.0827 H   0  0  0  0  0  0
  -20.9986  -28.3252   24.1414 H   0  0  0  0  0  0
  -20.5675  -26.2287   23.3605 H   0  0  0  0  0  0
  -21.6640  -26.7441   22.1200 H   0  0  0  0  0  0
  -19.6897  -25.6299   21.1244 H   0  0  0  0  0  0
  -19.6680  -27.3201   20.6747 H   0  0  0  0  0  0
  -17.4190  -26.6696   21.4036 H   0  0  0  0  0  0
  -18.0322  -26.0076   22.9024 H   0  0  0  0  0  0
  -19.7929  -30.7277   24.2289 H   0  0  0  0  0  0
  -17.5004  -31.6270   24.5166 H   0  0  0  0  0  0
  -15.5350  -30.2988   23.7646 H   0  0  0  0  0  0
  -15.8676  -28.0819   22.7074 H   0  0  0  0  0  0
  -24.5871  -30.7141   25.7816 H   0  0  0  0  0  0
  -24.8963  -32.2915   26.4963 H   0  0  0  0  0  0
  -25.8051  -30.8877   27.0237 H   0  0  0  0  0  0
  -26.2934  -29.6777   24.1228 H   0  0  0  0  0  0
  -27.4024  -29.7302   25.4734 H   0  0  0  0  0  0
  -27.8806  -30.4327   23.9469 H   0  0  0  0  0  0
  -27.2670  -33.3642   26.2098 H   0  0  0  0  0  0
  -28.3831  -32.6938   25.0297 H   0  0  0  0  0  0
  -28.0772  -31.8479   26.5380 H   0  0  0  0  0  0
  -28.2591  -38.0094   24.7497 H   0  0  0  0  0  0
  -28.1070  -36.2623   24.6295 H   0  0  0  0  0  0
  -27.2305  -37.1465   25.8870 H   0  0  0  0  0  0
  -20.9350  -29.8769   21.6904 H   0  0  0  0  0  0
  -26.0168  -38.2853   24.1399 H   0  0  0  0  0  0
  -30.9967  -19.9776   22.2655 H   0  0  0  0  0  0
  -30.9386  -17.5406   22.5592 H   0  0  0  0  0  0
  -28.9303  -17.1384   18.7896 H   0  0  0  0  0  0
  -32.6573  -23.5228   19.1153 H   0  0  0  0  0  0
  -28.9042  -20.8569   16.3406 H   0  0  0  0  0  0
  -30.2892  -21.1359   17.5217 H   0  0  0  0  0  0
  -27.9805  -19.1408   17.7244 H   0  0  0  0  0  0
  -28.5707  -22.3492   19.1645 H   0  0  0  0  0  0
  -28.3310  -22.1902   20.8765 H   0  0  0  0  0  0
  -29.5232  -24.1811   21.3684 H   0  0  0  0  0  0
  -27.3323  -24.6871   20.3342 H   0  0  0  0  0  0
  -28.0890  -24.9641   18.7870 H   0  0  0  0  0  0
  -28.9085  -15.3779   21.1868 H   0  0  0  0  0  0
  1 25  1  0  0  0
  1 30  2  0  0  0
  1 86  1  0  0  0
  2  3  1  0  0  0
  2 25  1  0  0  0
  2 89  1  0  0  0
  2 90  1  0  0  0
  3  4  1  0  0  0
  3 91  1  0  0  0
  3 92  1  0  0  0
  4  5  1  0  0  0
  4 93  1  0  0  0
  4 94  1  0  0  0
  5  6  1  0  0  0
  5 26  1  0  0  0
  5 95  1  0  0  0
  6 25  1  0  0  0
  6 96  1  0  0  0
  6 97  1  0  0  0
  7  8  2  0  0  0
  7 26  1  0  0  0
  7 29  1  0  0  0
  8  9  1  0  0  0
  8 22  1  0  0  0
  9 10  1  0  0  0
  9 27  2  0  0  0
 10 11  2  0  0  0
 10 15  1  0  0  0
 11 12  1  0  0  0
 11 98  1  0  0  0
 12 13  2  0  0  0
 12 99  1  0  0  0
 13 14  1  0  0  0
 13 31  1  0  0  0
 14 15  2  0  0  0
 14100  1  0  0  0
 15101  1  0  0  0
 16 17  2  0  0  0
 16 21  1  0  0  0
 16 31  1  0  0  0
 17 18  1  0  0  0
 17102  1  0  0  0
 18 19  2  0  0  0
 18103  1  0  0  0
 19 20  1  0  0  0
 19 24  1  0  0  0
 20 21  2  0  0  0
 20104  1  0  0  0
 21 23  1  0  0  0
 22 28  1  0  0  0
 22 32  2  0  0  0
 26 27  1  0  0  0
 28105  1  0  0  0
 28106  1  0  0  0
 29107  1  0  0  0
 29108  1  0  0  0
 33 34  1  0  0  0
 33 66  1  0  0  0
 33 70  2  0  0  0
 34 36  1  0  0  0
 34 59  1  0  0  0
 34109  1  0  0  0
 35 44  2  0  0  0
 35 45  1  0  0  0
 35 68  1  0  0  0
 36 56  1  0  0  0
 36110  1  0  0  0
 37 39  1  0  0  0
 37 47  1  0  0  0
 37 66  1  0  0  0
 37111  1  0  0  0
 38 43  2  0  0  0
 38 46  1  0  0  0
 38 47  1  0  0  0
 39 64  1  0  0  0
 39 67  2  0  0  0
 40 52  1  0  0  0
 40 53  2  0  0  0
 40 58  1  0  0  0
 41112  1  0  0  0
 41113  1  0  0  0
 41114  1  0  0  0
 41 48  1  0  0  0
 42 43  1  0  0  0
 42 66  1  0  0  0
 42115  1  0  0  0
 42116  1  0  0  0
 43 44  1  0  0  0
 44117  1  0  0  0
 45 46  2  0  0  0
 45118  1  0  0  0
 46119  1  0  0  0
 47120  1  0  0  0
 47121  1  0  0  0
 48 56  1  0  0  0
 48 65  1  0  0  0
 48122  1  0  0  0
 49 50  1  0  0  0
 49 53  1  0  0  0
 49 64  1  0  0  0
 49123  1  0  0  0
 50 51  1  0  0  0
 50124  1  0  0  0
 50125  1  0  0  0
 51 52  1  0  0  0
 51126  1  0  0  0
 51127  1  0  0  0
 52128  1  0  0  0
 52129  1  0  0  0
 53 54  1  0  0  0
 54 55  2  0  0  0
 54130  1  0  0  0
 55 57  1  0  0  0
 55131  1  0  0  0
 56 69  2  0  0  0
 57 58  2  0  0  0
 57132  1  0  0  0
 58133  1  0  0  0
 59 60  1  0  0  0
 59 61  1  0  0  0
 59 62  1  0  0  0
 60134  1  0  0  0
 60135  1  0  0  0
 60136  1  0  0  0
 61137  1  0  0  0
 61138  1  0  0  0
 61139  1  0  0  0
 62140  1  0  0  0
 62141  1  0  0  0
 62142  1  0  0  0
 63 65  1  0  0  0
 63143  1  0  0  0
 63144  1  0  0  0
 63145  1  0  0  0
 64146  1  0  0  0
 65147  1  0  0  0
 68 84  1  0  0  0
 71 72  2  0  0  0
 71 75  1  0  0  0
 71148  1  0  0  0
 72 76  1  0  0  0
 72149  1  0  0  0
 73 74  1  0  0  0
 73 76  2  0  0  0
 73150  1  0  0  0
 74 75  2  0  0  0
 74 81  1  0  0  0
 75 85  1  0  0  0
 76 86  1  0  0  0
 77 78  2  0  0  0
 77 79  1  0  0  0
 77151  1  0  0  0
 78 83  1  0  0  0
 78 87  1  0  0  0
 79 85  1  0  0  0
 79 88  2  0  0  0
 80 81  2  0  0  0
 80152  1  0  0  0
 80153  1  0  0  0
 81154  1  0  0  0
 82 83  1  0  0  0
 82 85  1  0  0  0
 82155  1  0  0  0
 82156  1  0  0  0
 83 84  1  0  0  0
 83157  1  0  0  0
 84158  1  0  0  0
 84159  1  0  0  0
 86160  1  0  0  0
M  CHG  1  87  -1
M  ISO  4   1 100  68 101  84 101  86 100
M  END
> <chiral flag>
0

> <version>
0

> <s_m_source_file>
/data/baiqing/PycharmProjects/Reinvent-master-3.2/result/LINK_invent/BTK/process_docking_weight1_custom_product_contain_oxygen_bond_distance_aromatic_linkinvent_7_9_3/rearranged_h_0058.sdf

> <i_m_source_file_index>
52

> <r_mmod_Potential_Energy-OPLS-2005>
-106.022315979004

> <r_mmod_Stretch_Energy-OPLS-2005>
88.8712692260742

> <r_mmod_Bend_Energy-OPLS-2005>
157.872222900391

> <r_mmod_Torsional_Energy-OPLS-2005>
315.238372802734

> <r_mmod_Improper_Torsional_Energy-OPLS-2005>
5.47240686416626

> <r_mmod_Van_der_Waal_Energy-OPLS-2005>
159.608749389648

> <r_mmod_Electrostatic_Energy-OPLS-2005>
-361.391998291016

> <r_mmod_Solvation_Energy-OPLS-2005>
-517.293579101562

> <b_mmod_Minimization_Converged-OPLS-2005>
0

> <r_mmod_RMS_Derivative-OPLS-2005>
1.47840571403503

$$$$
52
                    3D
 Structure written by MMmdl.
162171  0  0  1  0            999 V2000
  -30.6196  -14.7474   20.4479 C   0  0  0  0  0  0
  -30.4296  -12.4561   19.4682 C   0  0  0  0  0  0
  -29.5050  -12.4879   18.2336 C   0  0  0  0  0  0
  -28.0339  -12.3122   18.6560 C   0  0  0  0  0  0
  -27.6371  -13.2294   19.8432 C   0  0  2  0  0  0
  -28.6827  -13.1869   20.9778 C   0  0  0  0  0  0
  -25.2496  -13.8198   20.5681 C   0  0  0  0  0  0
  -24.1794  -13.0450   20.9210 C   0  0  0  0  0  0
  -24.6376  -11.6925   20.8762 C   0  0  0  0  0  0
  -23.9062  -10.4301   21.0425 C   0  0  0  0  0  0
  -24.3609   -9.4209   21.9200 C   0  0  0  0  0  0
  -23.6283   -8.2244   22.0760 C   0  0  0  0  0  0
  -22.4270   -8.0281   21.3544 C   0  0  0  0  0  0
  -21.9906   -9.0256   20.4647 C   0  0  0  0  0  0
  -22.7234  -10.2143   20.3063 C   0  0  0  0  0  0
  -21.6844   -6.0730   22.5274 C   0  0  0  0  0  0
  -21.4011   -6.5631   23.8211 C   0  0  0  0  0  0
  -21.3655   -5.6784   24.9171 C   0  0  0  0  0  0
  -21.6048   -4.3049   24.7220 C   0  0  0  0  0  0
  -21.8815   -3.8140   23.4341 C   0  0  0  0  0  0
  -21.9192   -4.6959   22.3396 C   0  0  0  0  0  0
  -22.7817  -13.5229   21.1885 C   0  0  0  0  0  0
  -22.1658   -4.2148   21.0969 F   0  0  0  0  0  0
  -21.5631   -3.4531   25.7731 F   0  0  0  0  0  0
  -29.9812  -13.5297   20.3851 N   0  0  0  0  0  0
  -26.2910  -12.9396   20.3256 N   0  0  0  0  0  0
  -25.9307  -11.6548   20.5760 N   0  0  0  0  0  0
  -22.0456  -12.8229   22.0438 N   0  0  0  0  0  0
  -25.4186  -15.1919   20.4069 N   0  0  0  0  0  0
  -31.8188  -14.8028   20.1594 O   0  0  0  0  0  0
  -21.6630   -6.8880   21.4238 O   0  0  0  0  0  0
  -22.3508  -14.5539   20.6735 O   0  0  0  0  0  0
  -24.6282  -31.8535   23.1901 C   0  0  0  0  0  0
  -25.9097  -32.4753   23.8267 C   0  0  1  0  0  0
  -27.2304  -27.2624   20.1220 C   0  0  0  0  0  0
  -25.5871  -33.8547   24.2176 N   0  0  0  0  0  0
  -23.4263  -30.4675   21.5362 C   0  0  2  0  0  0
  -24.8753  -28.9046   20.1117 C   0  0  0  0  0  0
  -22.7496  -29.4564   22.4924 C   0  0  0  0  0  0
  -18.0279  -28.1376   22.8493 C   0  0  0  0  0  0
  -24.1488  -36.7294   23.2646 C   0  0  0  0  0  0
  -25.9708  -30.7621   21.3719 C   0  0  0  0  0  0
  -26.0438  -29.3826   20.7175 C   0  0  0  0  0  0
  -27.2200  -28.5701   20.7138 C   0  0  0  0  0  0
  -26.0370  -26.8400   19.4978 C   0  0  0  0  0  0
  -24.8748  -27.6408   19.4961 C   0  0  0  0  0  0
  -23.6453  -29.7893   20.1572 C   0  0  0  0  0  0
  -25.4117  -36.3068   24.0316 C   0  0  1  0  0  0
  -20.5878  -28.3676   23.1291 C   0  0  2  0  0  0
  -20.6768  -26.9397   22.5425 C   0  0  0  0  0  0
  -19.5742  -26.6360   21.5231 C   0  0  0  0  0  0
  -18.1918  -26.7911   22.1637 C   0  0  0  0  0  0
  -19.1535  -28.8847   23.2872 C   0  0  0  0  0  0
  -18.9474  -30.1455   23.8881 C   0  0  0  0  0  0
  -17.6474  -30.6586   24.0574 C   0  0  0  0  0  0
  -25.9053  -34.9445   23.5063 C   0  0  0  0  0  0
  -16.5356  -29.9097   23.6332 C   0  0  0  0  0  0
  -16.7271  -28.6513   23.0347 C   0  0  0  0  0  0
  -26.4440  -31.6608   25.0689 C   0  0  0  0  0  0
  -25.3655  -31.3779   26.1423 C   0  0  0  0  0  0
  -27.0319  -30.3030   24.6172 C   0  0  0  0  0  0
  -27.5943  -32.4431   25.7497 C   0  0  0  0  0  0
  -27.5581  -37.1780   24.8453 C   0  0  0  0  0  0
  -21.4195  -29.3029   22.3698 N   0  0  0  0  0  0
  -26.4285  -37.3767   23.9405 N   0  0  0  0  0  0
  -24.6941  -31.0471   22.0887 N   0  0  0  0  0  0
  -23.4209  -28.8100   23.3014 O   0  0  0  0  0  0
  -28.3620  -26.4228   20.1996 O   0  0  0  0  0  0
  -26.5680  -34.8925   22.4662 O   0  0  0  0  0  0
  -23.5424  -32.1390   23.7164 O   0  0  0  0  0  0
  -31.9648  -19.0080   21.2188 C   0  0  0  0  0  0
  -31.5599  -17.6761   21.0333 C   0  0  0  0  0  0
  -29.3384  -18.4920   20.5020 C   0  0  0  0  0  0
  -31.0803  -20.0983   21.0826 C   0  0  0  0  0  0
  -29.7256  -19.8979   20.6772 C   0  0  0  0  0  0
  -30.2343  -17.3466   20.6825 C   0  0  0  0  0  0
  -27.4744  -21.6394   22.7238 C   0  0  0  0  0  0
  -29.0059  -22.3208   20.0134 C   0  0  0  0  0  0
  -27.5246  -20.9329   21.3593 C   0  0  0  0  0  0
  -28.4665  -23.8834   21.9555 C   0  0  0  0  0  0
  -28.2064  -23.6544   20.4499 C   0  0  1  0  0  0
  -31.6365  -21.4574   21.4848 C   0  0  0  0  0  0
  -28.4773  -25.0368   19.6262 C   0  0  0  0  0  0
  -27.9000  -22.9022   22.8920 N   0  0  0  0  0  0
  -28.7880  -21.0775   20.6226 N   0  0  0  0  0  0
  -29.8506  -15.9056   20.5856 N   0  0  0  0  0  0
  -27.0297  -21.0231   23.6900 O   0  0  0  0  0  0
  -29.8199  -22.4237   19.0904 O   0  0  0  0  0  0
  -31.4670  -12.5804   19.1539 H   0  0  0  0  0  0
  -30.3831  -11.4848   19.9632 H   0  0  0  0  0  0
  -29.7856  -11.7028   17.5299 H   0  0  0  0  0  0
  -29.6253  -13.4327   17.7028 H   0  0  0  0  0  0
  -27.9018  -11.2681   18.9411 H   0  0  0  0  0  0
  -27.3716  -12.4785   17.8063 H   0  0  0  0  0  0
  -27.6253  -14.2429   19.4436 H   0  0  0  0  0  0
  -28.7188  -12.2005   21.4433 H   0  0  0  0  0  0
  -28.4203  -13.8910   21.7694 H   0  0  0  0  0  0
  -25.2750   -9.5680   22.4780 H   0  0  0  0  0  0
  -23.9989   -7.4634   22.7481 H   0  0  0  0  0  0
  -21.0836   -8.8782   19.8944 H   0  0  0  0  0  0
  -22.3698  -10.9687   19.6173 H   0  0  0  0  0  0
  -21.1998   -7.6144   23.9715 H   0  0  0  0  0  0
  -21.1481   -6.0511   25.9077 H   0  0  0  0  0  0
  -22.0599   -2.7602   23.2837 H   0  0  0  0  0  0
  -22.4069  -11.9879   22.4819 H   0  0  0  0  0  0
  -21.1089  -13.1282   22.2670 H   0  0  0  0  0  0
  -24.6471  -15.8430   20.5064 H   0  0  0  0  0  0
  -26.2585  -15.6292   20.0506 H   0  0  0  0  0  0
  -26.7157  -32.5393   23.1008 H   0  0  0  0  0  0
  -24.9898  -33.9659   25.0232 H   0  0  0  0  0  0
  -22.7239  -31.2883   21.3796 H   0  0  0  0  0  0
  -23.3759  -35.9618   23.3274 H   0  0  0  0  0  0
  -24.3549  -36.8972   22.2061 H   0  0  0  0  0  0
  -23.7253  -37.6469   23.6733 H   0  0  0  0  0  0
  -26.1083  -31.5185   20.5984 H   0  0  0  0  0  0
  -26.8476  -30.8123   22.0060 H   0  0  0  0  0  0
  -28.1155  -28.9238   21.2042 H   0  0  0  0  0  0
  -25.9730  -25.8666   19.0369 H   0  0  0  0  0  0
  -23.9753  -27.2638   19.0283 H   0  0  0  0  0  0
  -23.7650  -30.5593   19.3944 H   0  0  0  0  0  0
  -22.7680  -29.2128   19.8589 H   0  0  0  0  0  0
  -25.1293  -36.1894   25.0812 H   0  0  0  0  0  0
  -20.9934  -28.3278   24.1425 H   0  0  0  0  0  0
  -20.5675  -26.2287   23.3628 H   0  0  0  0  0  0
  -21.6631  -26.7440   22.1208 H   0  0  0  0  0  0
  -19.6911  -25.6270   21.1269 H   0  0  0  0  0  0
  -19.6683  -27.3175   20.6767 H   0  0  0  0  0  0
  -17.4182  -26.6646   21.4047 H   0  0  0  0  0  0
  -18.0309  -26.0061   22.9043 H   0  0  0  0  0  0
  -19.7963  -30.7261   24.2233 H   0  0  0  0  0  0
  -17.5045  -31.6262   24.5199 H   0  0  0  0  0  0
  -15.5362  -30.3003   23.7656 H   0  0  0  0  0  0
  -15.8661  -28.0849   22.7050 H   0  0  0  0  0  0
  -24.5770  -30.7208   25.7731 H   0  0  0  0  0  0
  -24.8923  -32.2977   26.4890 H   0  0  0  0  0  0
  -25.7942  -30.8900   27.0193 H   0  0  0  0  0  0
  -26.2911  -29.6777   24.1173 H   0  0  0  0  0  0
  -27.3986  -29.7288   25.4687 H   0  0  0  0  0  0
  -27.8780  -30.4301   23.9416 H   0  0  0  0  0  0
  -27.2443  -33.3717   26.2034 H   0  0  0  0  0  0
  -28.3756  -32.7059   25.0354 H   0  0  0  0  0  0
  -28.0616  -31.8636   26.5466 H   0  0  0  0  0  0
  -28.2547  -38.0125   24.7564 H   0  0  0  0  0  0
  -28.1126  -36.2652   24.6216 H   0  0  0  0  0  0
  -27.2287  -37.1350   25.8849 H   0  0  0  0  0  0
  -20.9397  -29.8798   21.6938 H   0  0  0  0  0  0
  -26.0162  -38.2830   24.1457 H   0  0  0  0  0  0
  -32.9862  -19.1873   21.5251 H   0  0  0  0  0  0
  -32.2971  -16.9097   21.2165 H   0  0  0  0  0  0
  -28.3143  -18.2831   20.2285 H   0  0  0  0  0  0
  -26.6935  -21.2989   20.7554 H   0  0  0  0  0  0
  -27.2918  -19.8813   21.5165 H   0  0  0  0  0  0
  -28.0624  -24.8533   22.2458 H   0  0  0  0  0  0
  -29.5388  -23.9519   22.1375 H   0  0  0  0  0  0
  -27.1432  -23.4595   20.3182 H   0  0  0  0  0  0
  -32.5332  -21.3510   22.0955 H   0  0  0  0  0  0
  -30.9227  -22.0151   22.0891 H   0  0  0  0  0  0
  -31.9118  -22.0477   20.6100 H   0  0  0  0  0  0
  -27.9384  -24.9965   18.6806 H   0  0  0  0  0  0
  -29.5197  -25.0022   19.3112 H   0  0  0  0  0  0
  -27.7949  -23.2469   23.8385 H   0  0  0  0  0  0
  -28.8600  -15.7247   20.6256 H   0  0  0  0  0  0
  1 25  1  0  0  0
  1 30  2  0  0  0
  1 86  1  0  0  0
  2  3  1  0  0  0
  2 25  1  0  0  0
  2 89  1  0  0  0
  2 90  1  0  0  0
  3  4  1  0  0  0
  3 91  1  0  0  0
  3 92  1  0  0  0
  4  5  1  0  0  0
  4 93  1  0  0  0
  4 94  1  0  0  0
  5  6  1  0  0  0
  5 26  1  0  0  0
  5 95  1  0  0  0
  6 25  1  0  0  0
  6 96  1  0  0  0
  6 97  1  0  0  0
  7  8  2  0  0  0
  7 26  1  0  0  0
  7 29  1  0  0  0
  8  9  1  0  0  0
  8 22  1  0  0  0
  9 10  1  0  0  0
  9 27  2  0  0  0
 10 11  2  0  0  0
 10 15  1  0  0  0
 11 12  1  0  0  0
 11 98  1  0  0  0
 12 13  2  0  0  0
 12 99  1  0  0  0
 13 14  1  0  0  0
 13 31  1  0  0  0
 14 15  2  0  0  0
 14100  1  0  0  0
 15101  1  0  0  0
 16 17  2  0  0  0
 16 21  1  0  0  0
 16 31  1  0  0  0
 17 18  1  0  0  0
 17102  1  0  0  0
 18 19  2  0  0  0
 18103  1  0  0  0
 19 20  1  0  0  0
 19 24  1  0  0  0
 20 21  2  0  0  0
 20104  1  0  0  0
 21 23  1  0  0  0
 22 28  1  0  0  0
 22 32  2  0  0  0
 26 27  1  0  0  0
 28105  1  0  0  0
 28106  1  0  0  0
 29107  1  0  0  0
 29108  1  0  0  0
 33 34  1  0  0  0
 33 66  1  0  0  0
 33 70  2  0  0  0
 34 36  1  0  0  0
 34 59  1  0  0  0
 34109  1  0  0  0
 35 44  2  0  0  0
 35 45  1  0  0  0
 35 68  1  0  0  0
 36 56  1  0  0  0
 36110  1  0  0  0
 37 39  1  0  0  0
 37 47  1  0  0  0
 37 66  1  0  0  0
 37111  1  0  0  0
 38 43  2  0  0  0
 38 46  1  0  0  0
 38 47  1  0  0  0
 39 64  1  0  0  0
 39 67  2  0  0  0
 40 52  1  0  0  0
 40 53  2  0  0  0
 40 58  1  0  0  0
 41112  1  0  0  0
 41113  1  0  0  0
 41114  1  0  0  0
 41 48  1  0  0  0
 42 43  1  0  0  0
 42 66  1  0  0  0
 42115  1  0  0  0
 42116  1  0  0  0
 43 44  1  0  0  0
 44117  1  0  0  0
 45 46  2  0  0  0
 45118  1  0  0  0
 46119  1  0  0  0
 47120  1  0  0  0
 47121  1  0  0  0
 48 56  1  0  0  0
 48 65  1  0  0  0
 48122  1  0  0  0
 49 50  1  0  0  0
 49 53  1  0  0  0
 49 64  1  0  0  0
 49123  1  0  0  0
 50 51  1  0  0  0
 50124  1  0  0  0
 50125  1  0  0  0
 51 52  1  0  0  0
 51126  1  0  0  0
 51127  1  0  0  0
 52128  1  0  0  0
 52129  1  0  0  0
 53 54  1  0  0  0
 54 55  2  0  0  0
 54130  1  0  0  0
 55 57  1  0  0  0
 55131  1  0  0  0
 56 69  2  0  0  0
 57 58  2  0  0  0
 57132  1  0  0  0
 58133  1  0  0  0
 59 60  1  0  0  0
 59 61  1  0  0  0
 59 62  1  0  0  0
 60134  1  0  0  0
 60135  1  0  0  0
 60136  1  0  0  0
 61137  1  0  0  0
 61138  1  0  0  0
 61139  1  0  0  0
 62140  1  0  0  0
 62141  1  0  0  0
 62142  1  0  0  0
 63 65  1  0  0  0
 63143  1  0  0  0
 63144  1  0  0  0
 63145  1  0  0  0
 64146  1  0  0  0
 65147  1  0  0  0
 68 83  1  0  0  0
 71 72  2  0  0  0
 71 74  1  0  0  0
 71148  1  0  0  0
 72 76  1  0  0  0
 72149  1  0  0  0
 73 75  1  0  0  0
 73 76  2  0  0  0
 73150  1  0  0  0
 74 75  2  0  0  0
 74 82  1  0  0  0
 75 85  1  0  0  0
 76 86  1  0  0  0
 77 79  1  0  0  0
 77 84  1  0  0  0
 77 87  2  0  0  0
 78 81  1  0  0  0
 78 85  1  0  0  0
 78 88  2  0  0  0
 79 85  1  0  0  0
 79151  1  0  0  0
 79152  1  0  0  0
 80 81  1  0  0  0
 80 84  1  0  0  0
 80153  1  0  0  0
 80154  1  0  0  0
 81 83  1  0  0  0
 81155  1  0  0  0
 82156  1  0  0  0
 82157  1  0  0  0
 82158  1  0  0  0
 83159  1  0  0  0
 83160  1  0  0  0
 84161  1  0  0  0
 86162  1  0  0  0
M  ISO  4   1 100  68 101  83 101  86 100
M  END
> <chiral flag>
0

> <version>
0

> <s_m_source_file>
/data/baiqing/PycharmProjects/Reinvent-master-3.2/result/LINK_invent/BTK/process_docking_weight1_custom_product_contain_oxygen_bond_distance_aromatic_linkinvent_7_9_3/rearranged_h_0058.sdf

> <i_m_source_file_index>
53

> <r_mmod_Potential_Energy-OPLS-2005>
186.184906005859

> <r_mmod_Stretch_Energy-OPLS-2005>
144.392150878906

> <r_mmod_Bend_Energy-OPLS-2005>
199.425491333008

> <r_mmod_Torsional_Energy-OPLS-2005>
275.52490234375

> <r_mmod_Improper_Torsional_Energy-OPLS-2005>
6.76875495910645

> <r_mmod_Van_der_Waal_Energy-OPLS-2005>
153.698211669922

> <r_mmod_Electrostatic_Energy-OPLS-2005>
-424.596130371094

> <r_mmod_Solvation_Energy-OPLS-2005>
-254.026412963867

> <b_mmod_Minimization_Converged-OPLS-2005>
0

> <r_mmod_RMS_Derivative-OPLS-2005>
2.50350570678711

$$$$
53
                    3D
 Structure written by MMmdl.
160168  0  0  1  0            999 V2000
  -30.6837  -14.4984   20.5050 C   0  0  0  0  0  0
  -30.4194  -12.3002   19.4399 C   0  0  0  0  0  0
  -29.5006  -12.4919   18.2148 C   0  0  0  0  0  0
  -28.0200  -12.3539   18.6221 C   0  0  0  0  0  0
  -27.6583  -13.2081   19.8672 C   0  0  2  0  0  0
  -28.6987  -13.0200   20.9959 C   0  0  0  0  0  0
  -25.2590  -13.8164   20.5665 C   0  0  0  0  0  0
  -24.1844  -13.0440   20.9165 C   0  0  0  0  0  0
  -24.6392  -11.6906   20.8712 C   0  0  0  0  0  0
  -23.9058  -10.4298   21.0395 C   0  0  0  0  0  0
  -24.3616   -9.4214   21.9170 C   0  0  0  0  0  0
  -23.6295   -8.2252   22.0750 C   0  0  0  0  0  0
  -22.4276   -8.0280   21.3545 C   0  0  0  0  0  0
  -21.9904   -9.0253   20.4651 C   0  0  0  0  0  0
  -22.7229  -10.2136   20.3057 C   0  0  0  0  0  0
  -21.6857   -6.0731   22.5276 C   0  0  0  0  0  0
  -21.4019   -6.5637   23.8212 C   0  0  0  0  0  0
  -21.3668   -5.6789   24.9170 C   0  0  0  0  0  0
  -21.6051   -4.3048   24.7222 C   0  0  0  0  0  0
  -21.8824   -3.8143   23.4347 C   0  0  0  0  0  0
  -21.9201   -4.6961   22.3400 C   0  0  0  0  0  0
  -22.7869  -13.5234   21.1835 C   0  0  0  0  0  0
  -22.1666   -4.2146   21.0976 F   0  0  0  0  0  0
  -21.5633   -3.4529   25.7738 F   0  0  0  0  0  0
  -30.0303  -13.3065   20.4415 N   0  0  0  0  0  0
  -26.3012  -12.9327   20.3328 N   0  0  0  0  0  0
  -25.9321  -11.6487   20.5746 N   0  0  0  0  0  0
  -22.0522  -12.8230   22.0397 N   0  0  0  0  0  0
  -25.4324  -15.1882   20.4082 N   0  0  0  0  0  0
  -31.8536  -14.6319   20.1332 O   0  0  0  0  0  0
  -21.6644   -6.8875   21.4242 O   0  0  0  0  0  0
  -22.3555  -14.5536   20.6679 O   0  0  0  0  0  0
  -24.6149  -31.8680   23.2101 C   0  0  0  0  0  0
  -25.9037  -32.4829   23.8405 C   0  0  1  0  0  0
  -27.2250  -27.4323   20.1013 C   0  0  0  0  0  0
  -25.5892  -33.8628   24.2329 N   0  0  0  0  0  0
  -23.4041  -30.4912   21.5512 C   0  0  2  0  0  0
  -24.8500  -28.9602   20.1113 C   0  0  0  0  0  0
  -22.7422  -29.4655   22.4996 C   0  0  0  0  0  0
  -18.0272  -28.1381   22.8488 C   0  0  0  0  0  0
  -24.1485  -36.7323   23.2635 C   0  0  0  0  0  0
  -25.9337  -30.8334   21.3645 C   0  0  0  0  0  0
  -26.0113  -29.4694   20.7083 C   0  0  0  0  0  0
  -27.2062  -28.7131   20.6982 C   0  0  0  0  0  0
  -26.0542  -26.9419   19.4874 C   0  0  0  0  0  0
  -24.8670  -27.6967   19.4953 C   0  0  0  0  0  0
  -23.6122  -29.8261   20.1645 C   0  0  0  0  0  0
  -25.4105  -36.3122   24.0339 C   0  0  1  0  0  0
  -20.5863  -28.3665   23.1323 C   0  0  2  0  0  0
  -20.6763  -26.9398   22.5421 C   0  0  0  0  0  0
  -19.5742  -26.6387   21.5219 C   0  0  0  0  0  0
  -18.1918  -26.7924   22.1628 C   0  0  0  0  0  0
  -19.1521  -28.8841   23.2900 C   0  0  0  0  0  0
  -18.9449  -30.1448   23.8909 C   0  0  0  0  0  0
  -17.6451  -30.6585   24.0567 C   0  0  0  0  0  0
  -25.9036  -34.9483   23.5136 C   0  0  0  0  0  0
  -16.5342  -29.9090   23.6322 C   0  0  0  0  0  0
  -16.7263  -28.6511   23.0338 C   0  0  0  0  0  0
  -26.4443  -31.6608   25.0738 C   0  0  0  0  0  0
  -25.3698  -31.3734   26.1485 C   0  0  0  0  0  0
  -27.0254  -30.3042   24.6124 C   0  0  0  0  0  0
  -27.6031  -32.4318   25.7491 C   0  0  0  0  0  0
  -27.5586  -37.1813   24.8458 C   0  0  0  0  0  0
  -21.4149  -29.3032   22.3735 N   0  0  0  0  0  0
  -26.4292  -37.3807   23.9414 N   0  0  0  0  0  0
  -24.6693  -31.0784   22.1001 N   0  0  0  0  0  0
  -23.4190  -28.8195   23.3038 O   0  0  0  0  0  0
  -28.3556  -26.6476   20.1279 O   0  0  0  0  0  0
  -26.5600  -34.8930   22.4700 O   0  0  0  0  0  0
  -23.5338  -32.1433   23.7489 O   0  0  0  0  0  0
  -30.4907  -18.2616   18.2317 C   0  0  0  0  0  0
  -30.5365  -17.0237   18.8894 C   0  0  0  0  0  0
  -29.3637  -17.9968   20.7778 C   0  0  0  0  0  0
  -29.3197  -19.2698   20.1342 C   0  0  0  0  0  0
  -29.8724  -19.3821   18.8219 C   0  0  0  0  0  0
  -29.9676  -16.8624   20.1734 C   0  0  0  0  0  0
  -28.6121  -20.4217   20.8309 C   0  0  0  0  0  0
  -29.8085  -20.6494   17.9764 C   0  0  0  0  0  0
  -30.3416  -24.3520   20.0745 C   0  0  0  0  0  0
  -28.4909  -22.9145   21.1317 C   0  0  0  0  0  0
  -28.2097  -25.4537   20.9243 C   0  0  0  0  0  0
  -28.8267  -24.1801   20.2845 C   0  0  1  0  0  0
  -29.9223  -15.5734   20.8139 N   0  0  0  0  0  0
  -29.0740  -21.6674   20.6127 N   0  0  0  0  0  0
  -27.6730  -20.1997   21.5975 O   0  0  0  0  0  0
  -31.4667  -12.3836   19.1431 H   0  0  0  0  0  0
  -30.3043  -11.2962   19.8520 H   0  0  0  0  0  0
  -29.7442  -11.7622   17.4412 H   0  0  0  0  0  0
  -29.6740  -13.4744   17.7722 H   0  0  0  0  0  0
  -27.8353  -11.2998   18.8297 H   0  0  0  0  0  0
  -27.3719  -12.6136   17.7839 H   0  0  0  0  0  0
  -27.6927  -14.2499   19.5483 H   0  0  0  0  0  0
  -28.6733  -11.9959   21.3712 H   0  0  0  0  0  0
  -28.4659  -13.6558   21.8515 H   0  0  0  0  0  0
  -25.2773   -9.5681   22.4722 H   0  0  0  0  0  0
  -24.0005   -7.4647   22.7469 H   0  0  0  0  0  0
  -21.0839   -8.8775   19.8957 H   0  0  0  0  0  0
  -22.3695  -10.9666   19.6154 H   0  0  0  0  0  0
  -21.2011   -7.6145   23.9709 H   0  0  0  0  0  0
  -21.1480   -6.0515   25.9070 H   0  0  0  0  0  0
  -22.0599   -2.7605   23.2842 H   0  0  0  0  0  0
  -22.4157  -11.9897   22.4778 H   0  0  0  0  0  0
  -21.1148  -13.1263   22.2624 H   0  0  0  0  0  0
  -24.6665  -15.8434   20.5163 H   0  0  0  0  0  0
  -26.2869  -15.6280   20.0888 H   0  0  0  0  0  0
  -26.7117  -32.5533   23.1179 H   0  0  0  0  0  0
  -25.0034  -33.9792   25.0468 H   0  0  0  0  0  0
  -22.6933  -31.3078   21.4136 H   0  0  0  0  0  0
  -23.3754  -35.9650   23.3292 H   0  0  0  0  0  0
  -24.3583  -36.8941   22.2050 H   0  0  0  0  0  0
  -23.7224  -37.6524   23.6645 H   0  0  0  0  0  0
  -26.0480  -31.6009   20.5979 H   0  0  0  0  0  0
  -26.8204  -30.8840   21.9851 H   0  0  0  0  0  0
  -28.1015  -29.0953   21.1681 H   0  0  0  0  0  0
  -26.0599  -25.9687   19.0160 H   0  0  0  0  0  0
  -23.9757  -27.3005   19.0287 H   0  0  0  0  0  0
  -23.7196  -30.6026   19.4062 H   0  0  0  0  0  0
  -22.7364  -29.2457   19.8680 H   0  0  0  0  0  0
  -25.1280  -36.1994   25.0833 H   0  0  0  0  0  0
  -20.9946  -28.3225   24.1448 H   0  0  0  0  0  0
  -20.5682  -26.2271   23.3612 H   0  0  0  0  0  0
  -21.6636  -26.7455   22.1205 H   0  0  0  0  0  0
  -19.6905  -25.6301   21.1240 H   0  0  0  0  0  0
  -19.6679  -27.3209   20.6756 H   0  0  0  0  0  0
  -17.4191  -26.6676   21.4022 H   0  0  0  0  0  0
  -18.0311  -26.0064   22.9025 H   0  0  0  0  0  0
  -19.7925  -30.7259   24.2286 H   0  0  0  0  0  0
  -17.5007  -31.6264   24.5171 H   0  0  0  0  0  0
  -15.5343  -30.3001   23.7637 H   0  0  0  0  0  0
  -15.8663  -28.0845   22.7034 H   0  0  0  0  0  0
  -24.5888  -30.7054   25.7834 H   0  0  0  0  0  0
  -24.8861  -32.2891   26.4896 H   0  0  0  0  0  0
  -25.8040  -30.8944   27.0269 H   0  0  0  0  0  0
  -26.2807  -29.6853   24.1108 H   0  0  0  0  0  0
  -27.3927  -29.7235   25.4597 H   0  0  0  0  0  0
  -27.8685  -30.4352   23.9337 H   0  0  0  0  0  0
  -27.2658  -33.3602   26.2113 H   0  0  0  0  0  0
  -28.3802  -32.6907   25.0287 H   0  0  0  0  0  0
  -28.0737  -31.8415   26.5363 H   0  0  0  0  0  0
  -28.2602  -38.0112   24.7526 H   0  0  0  0  0  0
  -28.1080  -36.2650   24.6251 H   0  0  0  0  0  0
  -27.2311  -37.1430   25.8861 H   0  0  0  0  0  0
  -20.9317  -29.8759   21.6954 H   0  0  0  0  0  0
  -26.0187  -38.2888   24.1424 H   0  0  0  0  0  0
  -30.9160  -18.3342   17.2406 H   0  0  0  0  0  0
  -30.9889  -16.1955   18.3639 H   0  0  0  0  0  0
  -28.9115  -17.8934   21.7547 H   0  0  0  0  0  0
  -30.0178  -20.4383   16.9278 H   0  0  0  0  0  0
  -30.5465  -21.3784   18.3104 H   0  0  0  0  0  0
  -28.8187  -21.1057   18.0073 H   0  0  0  0  0  0
  -30.7708  -23.5201   19.5188 H   0  0  0  0  0  0
  -30.8683  -24.4281   21.0266 H   0  0  0  0  0  0
  -30.5560  -25.2567   19.5050 H   0  0  0  0  0  0
  -27.4055  -22.8067   21.1924 H   0  0  0  0  0  0
  -28.8398  -23.0496   22.1567 H   0  0  0  0  0  0
  -28.6794  -25.6425   21.8900 H   0  0  0  0  0  0
  -27.1621  -25.2464   21.1551 H   0  0  0  0  0  0
  -28.3659  -24.0539   19.3035 H   0  0  0  0  0  0
  -29.0770  -15.3693   21.3262 H   0  0  0  0  0  0
  -29.8786  -21.7463   20.0084 H   0  0  0  0  0  0
  1 25  1  0  0  0
  1 30  2  0  0  0
  1 83  1  0  0  0
  2  3  1  0  0  0
  2 25  1  0  0  0
  2 86  1  0  0  0
  2 87  1  0  0  0
  3  4  1  0  0  0
  3 88  1  0  0  0
  3 89  1  0  0  0
  4  5  1  0  0  0
  4 90  1  0  0  0
  4 91  1  0  0  0
  5  6  1  0  0  0
  5 26  1  0  0  0
  5 92  1  0  0  0
  6 25  1  0  0  0
  6 93  1  0  0  0
  6 94  1  0  0  0
  7  8  2  0  0  0
  7 26  1  0  0  0
  7 29  1  0  0  0
  8  9  1  0  0  0
  8 22  1  0  0  0
  9 10  1  0  0  0
  9 27  2  0  0  0
 10 11  2  0  0  0
 10 15  1  0  0  0
 11 12  1  0  0  0
 11 95  1  0  0  0
 12 13  2  0  0  0
 12 96  1  0  0  0
 13 14  1  0  0  0
 13 31  1  0  0  0
 14 15  2  0  0  0
 14 97  1  0  0  0
 15 98  1  0  0  0
 16 17  2  0  0  0
 16 21  1  0  0  0
 16 31  1  0  0  0
 17 18  1  0  0  0
 17 99  1  0  0  0
 18 19  2  0  0  0
 18100  1  0  0  0
 19 20  1  0  0  0
 19 24  1  0  0  0
 20 21  2  0  0  0
 20101  1  0  0  0
 21 23  1  0  0  0
 22 28  1  0  0  0
 22 32  2  0  0  0
 26 27  1  0  0  0
 28102  1  0  0  0
 28103  1  0  0  0
 29104  1  0  0  0
 29105  1  0  0  0
 33 34  1  0  0  0
 33 66  1  0  0  0
 33 70  2  0  0  0
 34 36  1  0  0  0
 34 59  1  0  0  0
 34106  1  0  0  0
 35 44  2  0  0  0
 35 45  1  0  0  0
 35 68  1  0  0  0
 36 56  1  0  0  0
 36107  1  0  0  0
 37 39  1  0  0  0
 37 47  1  0  0  0
 37 66  1  0  0  0
 37108  1  0  0  0
 38 43  2  0  0  0
 38 46  1  0  0  0
 38 47  1  0  0  0
 39 64  1  0  0  0
 39 67  2  0  0  0
 40 52  1  0  0  0
 40 53  2  0  0  0
 40 58  1  0  0  0
 41109  1  0  0  0
 41110  1  0  0  0
 41111  1  0  0  0
 41 48  1  0  0  0
 42 43  1  0  0  0
 42 66  1  0  0  0
 42112  1  0  0  0
 42113  1  0  0  0
 43 44  1  0  0  0
 44114  1  0  0  0
 45 46  2  0  0  0
 45115  1  0  0  0
 46116  1  0  0  0
 47117  1  0  0  0
 47118  1  0  0  0
 48 56  1  0  0  0
 48 65  1  0  0  0
 48119  1  0  0  0
 49 50  1  0  0  0
 49 53  1  0  0  0
 49 64  1  0  0  0
 49120  1  0  0  0
 50 51  1  0  0  0
 50121  1  0  0  0
 50122  1  0  0  0
 51 52  1  0  0  0
 51123  1  0  0  0
 51124  1  0  0  0
 52125  1  0  0  0
 52126  1  0  0  0
 53 54  1  0  0  0
 54 55  2  0  0  0
 54127  1  0  0  0
 55 57  1  0  0  0
 55128  1  0  0  0
 56 69  2  0  0  0
 57 58  2  0  0  0
 57129  1  0  0  0
 58130  1  0  0  0
 59 60  1  0  0  0
 59 61  1  0  0  0
 59 62  1  0  0  0
 60131  1  0  0  0
 60132  1  0  0  0
 60133  1  0  0  0
 61134  1  0  0  0
 61135  1  0  0  0
 61136  1  0  0  0
 62137  1  0  0  0
 62138  1  0  0  0
 62139  1  0  0  0
 63 65  1  0  0  0
 63140  1  0  0  0
 63141  1  0  0  0
 63142  1  0  0  0
 64143  1  0  0  0
 65144  1  0  0  0
 68 81  1  0  0  0
 71 72  2  0  0  0
 71 75  1  0  0  0
 71145  1  0  0  0
 72 76  1  0  0  0
 72146  1  0  0  0
 73 74  1  0  0  0
 73 76  2  0  0  0
 73147  1  0  0  0
 74 75  2  0  0  0
 74 77  1  0  0  0
 75 78  1  0  0  0
 76 83  1  0  0  0
 77 84  1  0  0  0
 77 85  2  0  0  0
 78148  1  0  0  0
 78149  1  0  0  0
 78150  1  0  0  0
 79151  1  0  0  0
 79152  1  0  0  0
 79153  1  0  0  0
 79 82  1  0  0  0
 80 82  1  0  0  0
 80 84  1  0  0  0
 80154  1  0  0  0
 80155  1  0  0  0
 81 82  1  0  0  0
 81156  1  0  0  0
 81157  1  0  0  0
 82158  1  0  0  0
 83159  1  0  0  0
 84160  1  0  0  0
M  ISO  4   1 100  68 101  81 101  83 100
M  END
> <chiral flag>
0

> <version>
0

> <s_m_source_file>
/data/baiqing/PycharmProjects/Reinvent-master-3.2/result/LINK_invent/BTK/process_docking_weight1_custom_product_contain_oxygen_bond_distance_aromatic_linkinvent_7_9_3/rearranged_h_0058.sdf

> <i_m_source_file_index>
54

> <r_mmod_Potential_Energy-OPLS-2005>
-59.443042755127

> <r_mmod_Stretch_Energy-OPLS-2005>
42.3403968811035

> <r_mmod_Bend_Energy-OPLS-2005>
95.9944076538086

> <r_mmod_Torsional_Energy-OPLS-2005>
268.244140625

> <r_mmod_Improper_Torsional_Energy-OPLS-2005>
5.88033246994019

> <r_mmod_Van_der_Waal_Energy-OPLS-2005>
160.294235229492

> <r_mmod_Electrostatic_Energy-OPLS-2005>
-430.162384033203

> <r_mmod_Solvation_Energy-OPLS-2005>
-220.495880126953

> <b_mmod_Minimization_Converged-OPLS-2005>
0

> <r_mmod_RMS_Derivative-OPLS-2005>
1.38446605205536

$$$$
54
                    3D
 Structure written by MMmdl.
165173  0  0  1  0            999 V2000
  -30.7368  -14.4017   20.6556 C   0  0  0  0  0  0
  -30.4103  -12.2636   19.4555 C   0  0  0  0  0  0
  -29.5097  -12.5045   18.2297 C   0  0  0  0  0  0
  -28.0297  -12.3400   18.6254 C   0  0  0  0  0  0
  -27.6603  -13.1946   19.8679 C   0  0  2  0  0  0
  -28.6816  -12.9782   21.0096 C   0  0  0  0  0  0
  -25.2573  -13.8121   20.5652 C   0  0  0  0  0  0
  -24.1823  -13.0416   20.9188 C   0  0  0  0  0  0
  -24.6363  -11.6879   20.8703 C   0  0  0  0  0  0
  -23.8995  -10.4274   21.0386 C   0  0  0  0  0  0
  -24.3556   -9.4199   21.9181 C   0  0  0  0  0  0
  -23.6248   -8.2237   22.0771 C   0  0  0  0  0  0
  -22.4224   -8.0253   21.3547 C   0  0  0  0  0  0
  -21.9842   -9.0218   20.4642 C   0  0  0  0  0  0
  -22.7167  -10.2104   20.3041 C   0  0  0  0  0  0
  -21.6841   -6.0690   22.5267 C   0  0  0  0  0  0
  -21.4048   -6.5624   23.8199 C   0  0  0  0  0  0
  -21.3688   -5.6799   24.9175 C   0  0  0  0  0  0
  -21.6034   -4.3053   24.7245 C   0  0  0  0  0  0
  -21.8817   -3.8112   23.4375 C   0  0  0  0  0  0
  -21.9209   -4.6913   22.3413 C   0  0  0  0  0  0
  -22.7850  -13.5226   21.1884 C   0  0  0  0  0  0
  -22.1666   -4.2085   21.1000 F   0  0  0  0  0  0
  -21.5604   -3.4559   25.7767 F   0  0  0  0  0  0
  -30.0446  -13.2401   20.4952 N   0  0  0  0  0  0
  -26.2977  -12.9278   20.3237 N   0  0  0  0  0  0
  -25.9253  -11.6422   20.5646 N   0  0  0  0  0  0
  -22.0503  -12.8203   22.0449 N   0  0  0  0  0  0
  -25.4294  -15.1863   20.4117 N   0  0  0  0  0  0
  -31.7606  -14.6786   20.0221 O   0  0  0  0  0  0
  -21.6627   -6.8828   21.4220 O   0  0  0  0  0  0
  -22.3543  -14.5558   20.6769 O   0  0  0  0  0  0
  -24.6178  -31.8712   23.2229 C   0  0  0  0  0  0
  -25.9081  -32.4853   23.8512 C   0  0  1  0  0  0
  -27.2310  -27.4335   20.0682 C   0  0  0  0  0  0
  -25.5914  -33.8640   24.2422 N   0  0  0  0  0  0
  -23.4060  -30.5033   21.5635 C   0  0  2  0  0  0
  -24.8490  -28.9803   20.1155 C   0  0  0  0  0  0
  -22.7516  -29.4761   22.5098 C   0  0  0  0  0  0
  -18.0450  -28.1508   22.8539 C   0  0  0  0  0  0
  -24.1488  -36.7317   23.2641 C   0  0  0  0  0  0
  -25.9385  -30.8345   21.3808 C   0  0  0  0  0  0
  -26.0136  -29.4681   20.7223 C   0  0  0  0  0  0
  -27.1999  -28.6956   20.7144 C   0  0  0  0  0  0
  -26.0474  -26.9822   19.4442 C   0  0  0  0  0  0
  -24.8621  -27.7336   19.4792 C   0  0  0  0  0  0
  -23.6095  -29.8445   20.1758 C   0  0  0  0  0  0
  -25.4101  -36.3129   24.0356 C   0  0  1  0  0  0
  -20.6025  -28.3720   23.1358 C   0  0  2  0  0  0
  -20.7027  -26.9562   22.5248 C   0  0  0  0  0  0
  -19.5870  -26.6431   21.5234 C   0  0  0  0  0  0
  -18.2161  -26.7967   22.1849 C   0  0  0  0  0  0
  -19.1713  -28.8907   23.3001 C   0  0  0  0  0  0
  -18.9709  -30.1506   23.9065 C   0  0  0  0  0  0
  -17.6730  -30.6679   24.0781 C   0  0  0  0  0  0
  -25.9017  -34.9474   23.5176 C   0  0  0  0  0  0
  -16.5592  -29.9240   23.6464 C   0  0  0  0  0  0
  -16.7458  -28.6702   23.0332 C   0  0  0  0  0  0
  -26.4507  -31.6638   25.0826 C   0  0  0  0  0  0
  -25.3865  -31.3655   26.1632 C   0  0  0  0  0  0
  -27.0279  -30.3099   24.6117 C   0  0  0  0  0  0
  -27.6102  -32.4340   25.7547 C   0  0  0  0  0  0
  -27.5585  -37.1809   24.8456 C   0  0  0  0  0  0
  -21.4265  -29.3128   22.3805 N   0  0  0  0  0  0
  -26.4292  -37.3794   23.9406 N   0  0  0  0  0  0
  -24.6730  -31.0829   22.1120 N   0  0  0  0  0  0
  -23.4307  -28.8304   23.3111 O   0  0  0  0  0  0
  -28.3945  -26.6831   20.0919 O   0  0  0  0  0  0
  -26.5557  -34.8908   22.4701 O   0  0  0  0  0  0
  -23.5376  -32.1436   23.7653 O   0  0  0  0  0  0
  -29.8409  -17.3041   20.3486 C   0  0  0  0  0  0
  -29.4143  -18.6437   20.3679 C   0  0  0  0  0  0
  -29.9979  -17.3304   22.7778 C   0  0  0  0  0  0
  -29.5383  -18.6683   22.8146 C   0  0  0  0  0  0
  -30.0952  -16.6240   21.5599 C   0  0  0  0  0  0
  -29.2163  -19.3235   21.5878 C   0  0  0  0  0  0
  -29.3158  -19.3132   24.1754 C   0  0  0  0  0  0
  -27.0890  -23.4826   18.7351 C   0  0  0  0  0  0
  -27.3825  -24.2660   21.1351 C   0  0  0  0  0  0
  -29.2978  -23.1331   19.8723 C   0  0  0  0  0  0
  -28.5409  -25.5271   19.2312 C   0  0  0  0  0  0
  -28.0724  -24.1099   19.7596 C   0  0  0  0  0  0
  -26.9087  -20.7426   21.1449 N   0  0  0  0  0  0
  -30.2675  -15.2147   21.6184 N   0  0  0  0  0  0
  -28.9519  -21.6915   20.0374 N   0  0  0  0  0  0
  -28.8680  -21.8021   22.6255 O   0  0  0  0  0  0
  -28.4152  -20.9510   21.5107 S   0  0  2  0  0  0
  -31.4667  -12.3184   19.1912 H   0  0  0  0  0  0
  -30.2553  -11.2474   19.8258 H   0  0  0  0  0  0
  -29.7676  -11.8072   17.4338 H   0  0  0  0  0  0
  -29.6801  -13.5052   17.8320 H   0  0  0  0  0  0
  -27.8619  -11.2842   18.8433 H   0  0  0  0  0  0
  -27.3852  -12.5743   17.7774 H   0  0  0  0  0  0
  -27.7076  -14.2386   19.5596 H   0  0  0  0  0  0
  -28.6200  -11.9536   21.3770 H   0  0  0  0  0  0
  -28.4012  -13.5993   21.8617 H   0  0  0  0  0  0
  -25.2688   -9.5713   22.4764 H   0  0  0  0  0  0
  -23.9947   -7.4664   22.7516 H   0  0  0  0  0  0
  -21.0775   -8.8697   19.8991 H   0  0  0  0  0  0
  -22.3569  -10.9626   19.6153 H   0  0  0  0  0  0
  -21.2062   -7.6144   23.9684 H   0  0  0  0  0  0
  -21.1521   -6.0545   25.9080 H   0  0  0  0  0  0
  -22.0576   -2.7566   23.2899 H   0  0  0  0  0  0
  -22.4056  -11.9801   22.4774 H   0  0  0  0  0  0
  -21.1153  -13.1240   22.2723 H   0  0  0  0  0  0
  -24.6560  -15.8344   20.5233 H   0  0  0  0  0  0
  -26.2757  -15.6325   20.0803 H   0  0  0  0  0  0
  -26.7170  -32.5563   23.1297 H   0  0  0  0  0  0
  -25.0056  -33.9784   25.0576 H   0  0  0  0  0  0
  -22.6891  -31.3186   21.4330 H   0  0  0  0  0  0
  -23.3746  -35.9654   23.3299 H   0  0  0  0  0  0
  -24.3633  -36.8885   22.2057 H   0  0  0  0  0  0
  -23.7217  -37.6509   23.6634 H   0  0  0  0  0  0
  -26.0689  -31.6107   20.6241 H   0  0  0  0  0  0
  -26.8171  -30.8770   22.0086 H   0  0  0  0  0  0
  -28.0947  -29.0573   21.2023 H   0  0  0  0  0  0
  -25.9983  -26.0428   18.9344 H   0  0  0  0  0  0
  -23.9674  -27.3528   19.0071 H   0  0  0  0  0  0
  -23.7126  -30.6198   19.4147 H   0  0  0  0  0  0
  -22.7294  -29.2683   19.8877 H   0  0  0  0  0  0
  -25.1304  -36.1984   25.0854 H   0  0  0  0  0  0
  -21.0186  -28.3250   24.1475 H   0  0  0  0  0  0
  -20.6356  -26.2232   23.3298 H   0  0  0  0  0  0
  -21.6788  -26.7922   22.0716 H   0  0  0  0  0  0
  -19.7088  -25.6333   21.1309 H   0  0  0  0  0  0
  -19.6641  -27.3141   20.6664 H   0  0  0  0  0  0
  -17.4333  -26.6366   21.4446 H   0  0  0  0  0  0
  -18.0806  -26.0312   22.9508 H   0  0  0  0  0  0
  -19.8194  -30.7223   24.2543 H   0  0  0  0  0  0
  -17.5458  -31.6336   24.5520 H   0  0  0  0  0  0
  -15.5638  -30.3179   23.8002 H   0  0  0  0  0  0
  -15.8898  -28.1103   22.6912 H   0  0  0  0  0  0
  -24.6050  -30.6942   25.8038 H   0  0  0  0  0  0
  -24.9084  -32.2766   26.5238 H   0  0  0  0  0  0
  -25.8390  -30.8779   27.0294 H   0  0  0  0  0  0
  -26.2760  -29.6924   24.1171 H   0  0  0  0  0  0
  -27.4050  -29.7264   25.4523 H   0  0  0  0  0  0
  -27.8651  -30.4434   23.9264 H   0  0  0  0  0  0
  -27.2723  -33.3599   26.2222 H   0  0  0  0  0  0
  -28.3860  -32.6965   25.0342 H   0  0  0  0  0  0
  -28.0839  -31.8414   26.5357 H   0  0  0  0  0  0
  -28.2640  -38.0089   24.7531 H   0  0  0  0  0  0
  -28.1060  -36.2617   24.6271 H   0  0  0  0  0  0
  -27.2325  -37.1449   25.8870 H   0  0  0  0  0  0
  -20.9474  -29.8824   21.6970 H   0  0  0  0  0  0
  -26.0189  -38.2883   24.1331 H   0  0  0  0  0  0
  -29.8900  -16.7953   19.3975 H   0  0  0  0  0  0
  -29.1580  -19.1303   19.4394 H   0  0  0  0  0  0
  -30.2079  -16.8096   23.7015 H   0  0  0  0  0  0
  -29.4367  -18.5914   24.9877 H   0  0  0  0  0  0
  -28.3008  -19.7052   24.2561 H   0  0  0  0  0  0
  -30.0208  -20.1233   24.3607 H   0  0  0  0  0  0
  -26.7065  -22.5184   19.0604 H   0  0  0  0  0  0
  -27.5760  -23.3230   17.7713 H   0  0  0  0  0  0
  -26.2081  -24.0847   18.5478 H   0  0  0  0  0  0
  -26.5002  -24.8975   21.0819 H   0  0  0  0  0  0
  -28.0521  -24.7091   21.8744 H   0  0  0  0  0  0
  -27.0441  -23.3140   21.5356 H   0  0  0  0  0  0
  -29.9879  -23.4418   20.6596 H   0  0  0  0  0  0
  -29.8706  -23.2011   18.9433 H   0  0  0  0  0  0
  -28.1196  -25.7444   18.2503 H   0  0  0  0  0  0
  -29.6128  -25.4832   19.0294 H   0  0  0  0  0  0
  -26.4116  -20.1347   21.8067 H   0  0  0  0  0  0
  -29.6665  -14.7625   22.2907 H   0  0  0  0  0  0
  -28.5559  -21.2564   19.1976 H   0  0  0  0  0  0
  1 25  1  0  0  0
  1 30  2  0  0  0
  1 84  1  0  0  0
  2  3  1  0  0  0
  2 25  1  0  0  0
  2 88  1  0  0  0
  2 89  1  0  0  0
  3  4  1  0  0  0
  3 90  1  0  0  0
  3 91  1  0  0  0
  4  5  1  0  0  0
  4 92  1  0  0  0
  4 93  1  0  0  0
  5  6  1  0  0  0
  5 26  1  0  0  0
  5 94  1  0  0  0
  6 25  1  0  0  0
  6 95  1  0  0  0
  6 96  1  0  0  0
  7  8  2  0  0  0
  7 26  1  0  0  0
  7 29  1  0  0  0
  8  9  1  0  0  0
  8 22  1  0  0  0
  9 10  1  0  0  0
  9 27  2  0  0  0
 10 11  2  0  0  0
 10 15  1  0  0  0
 11 12  1  0  0  0
 11 97  1  0  0  0
 12 13  2  0  0  0
 12 98  1  0  0  0
 13 14  1  0  0  0
 13 31  1  0  0  0
 14 15  2  0  0  0
 14 99  1  0  0  0
 15100  1  0  0  0
 16 17  2  0  0  0
 16 21  1  0  0  0
 16 31  1  0  0  0
 17 18  1  0  0  0
 17101  1  0  0  0
 18 19  2  0  0  0
 18102  1  0  0  0
 19 20  1  0  0  0
 19 24  1  0  0  0
 20 21  2  0  0  0
 20103  1  0  0  0
 21 23  1  0  0  0
 22 28  1  0  0  0
 22 32  2  0  0  0
 26 27  1  0  0  0
 28104  1  0  0  0
 28105  1  0  0  0
 29106  1  0  0  0
 29107  1  0  0  0
 33 34  1  0  0  0
 33 66  1  0  0  0
 33 70  2  0  0  0
 34 36  1  0  0  0
 34 59  1  0  0  0
 34108  1  0  0  0
 35 44  2  0  0  0
 35 45  1  0  0  0
 35 68  1  0  0  0
 36 56  1  0  0  0
 36109  1  0  0  0
 37 39  1  0  0  0
 37 47  1  0  0  0
 37 66  1  0  0  0
 37110  1  0  0  0
 38 43  2  0  0  0
 38 46  1  0  0  0
 38 47  1  0  0  0
 39 64  1  0  0  0
 39 67  2  0  0  0
 40 52  1  0  0  0
 40 53  2  0  0  0
 40 58  1  0  0  0
 41111  1  0  0  0
 41112  1  0  0  0
 41113  1  0  0  0
 41 48  1  0  0  0
 42 43  1  0  0  0
 42 66  1  0  0  0
 42114  1  0  0  0
 42115  1  0  0  0
 43 44  1  0  0  0
 44116  1  0  0  0
 45 46  2  0  0  0
 45117  1  0  0  0
 46118  1  0  0  0
 47119  1  0  0  0
 47120  1  0  0  0
 48 56  1  0  0  0
 48 65  1  0  0  0
 48121  1  0  0  0
 49 50  1  0  0  0
 49 53  1  0  0  0
 49 64  1  0  0  0
 49122  1  0  0  0
 50 51  1  0  0  0
 50123  1  0  0  0
 50124  1  0  0  0
 51 52  1  0  0  0
 51125  1  0  0  0
 51126  1  0  0  0
 52127  1  0  0  0
 52128  1  0  0  0
 53 54  1  0  0  0
 54 55  2  0  0  0
 54129  1  0  0  0
 55 57  1  0  0  0
 55130  1  0  0  0
 56 69  2  0  0  0
 57 58  2  0  0  0
 57131  1  0  0  0
 58132  1  0  0  0
 59 60  1  0  0  0
 59 61  1  0  0  0
 59 62  1  0  0  0
 60133  1  0  0  0
 60134  1  0  0  0
 60135  1  0  0  0
 61136  1  0  0  0
 61137  1  0  0  0
 61138  1  0  0  0
 62139  1  0  0  0
 62140  1  0  0  0
 62141  1  0  0  0
 63 65  1  0  0  0
 63142  1  0  0  0
 63143  1  0  0  0
 63144  1  0  0  0
 64145  1  0  0  0
 65146  1  0  0  0
 68 81  1  0  0  0
 71 72  2  0  0  0
 71 75  1  0  0  0
 71147  1  0  0  0
 72 76  1  0  0  0
 72148  1  0  0  0
 73 74  1  0  0  0
 73 75  2  0  0  0
 73149  1  0  0  0
 74 76  2  0  0  0
 74 77  1  0  0  0
 75 84  1  0  0  0
 76 87  1  0  0  0
 77150  1  0  0  0
 77151  1  0  0  0
 77152  1  0  0  0
 78153  1  0  0  0
 78154  1  0  0  0
 78155  1  0  0  0
 78 82  1  0  0  0
 79 82  1  0  0  0
 79156  1  0  0  0
 79157  1  0  0  0
 79158  1  0  0  0
 80 82  1  0  0  0
 80 85  1  0  0  0
 80159  1  0  0  0
 80160  1  0  0  0
 81 82  1  0  0  0
 81161  1  0  0  0
 81162  1  0  0  0
 83 87  2  0  0  0
 83163  1  0  0  0
 84164  1  0  0  0
 85165  1  0  0  0
 85 87  1  0  0  0
 86 87  2  0  0  0
M  ISO  4   1 100  68 101  81 101  84 100
M  END
> <chiral flag>
0

> <version>
0

> <s_m_source_file>
/data/baiqing/PycharmProjects/Reinvent-master-3.2/result/LINK_invent/BTK/process_docking_weight1_custom_product_contain_oxygen_bond_distance_aromatic_linkinvent_7_9_3/rearranged_h_0058.sdf

> <i_m_source_file_index>
55

> <r_mmod_Potential_Energy-OPLS-2005>
-118.608177185059

> <r_mmod_Stretch_Energy-OPLS-2005>
45.5367851257324

> <r_mmod_Bend_Energy-OPLS-2005>
128.659576416016

> <r_mmod_Torsional_Energy-OPLS-2005>
243.886795043945

> <r_mmod_Improper_Torsional_Energy-OPLS-2005>
7.70699739456177

> <r_mmod_Van_der_Waal_Energy-OPLS-2005>
158.690811157227

> <r_mmod_Electrostatic_Energy-OPLS-2005>
-475.730773925781

> <r_mmod_Solvation_Energy-OPLS-2005>
-240.470474243164

> <b_mmod_Minimization_Converged-OPLS-2005>
0

> <r_mmod_RMS_Derivative-OPLS-2005>
7.37956285476685

$$$$
55
                    3D
 Structure written by MMmdl.
163172  0  0  1  0            999 V2000
  -30.6976  -14.4434   20.6083 C   0  0  0  0  0  0
  -30.4296  -12.3189   19.3751 C   0  0  0  0  0  0
  -29.4794  -12.5587   18.1832 C   0  0  0  0  0  0
  -28.0068  -12.3915   18.6114 C   0  0  0  0  0  0
  -27.6705  -13.2009   19.8926 C   0  0  2  0  0  0
  -28.7209  -12.9244   20.9880 C   0  0  0  0  0  0
  -25.2606  -13.8151   20.5730 C   0  0  0  0  0  0
  -24.1859  -13.0428   20.9198 C   0  0  0  0  0  0
  -24.6425  -11.6891   20.8781 C   0  0  0  0  0  0
  -23.9092  -10.4288   21.0436 C   0  0  0  0  0  0
  -24.3628   -9.4201   21.9216 C   0  0  0  0  0  0
  -23.6294   -8.2254   22.0808 C   0  0  0  0  0  0
  -22.4279   -8.0306   21.3576 C   0  0  0  0  0  0
  -21.9923   -9.0290   20.4685 C   0  0  0  0  0  0
  -22.7276  -10.2149   20.3076 C   0  0  0  0  0  0
  -21.6844   -6.0753   22.5272 C   0  0  0  0  0  0
  -21.4026   -6.5647   23.8214 C   0  0  0  0  0  0
  -21.3647   -5.6791   24.9165 C   0  0  0  0  0  0
  -21.6046   -4.3062   24.7212 C   0  0  0  0  0  0
  -21.8811   -3.8160   23.4330 C   0  0  0  0  0  0
  -21.9204   -4.6986   22.3390 C   0  0  0  0  0  0
  -22.7883  -13.5243   21.1814 C   0  0  0  0  0  0
  -22.1668   -4.2165   21.0972 F   0  0  0  0  0  0
  -21.5609   -3.4543   25.7724 F   0  0  0  0  0  0
  -30.0480  -13.2607   20.4384 N   0  0  0  0  0  0
  -26.3089  -12.9323   20.3513 N   0  0  0  0  0  0
  -25.9362  -11.6486   20.5840 N   0  0  0  0  0  0
  -22.0508  -12.8250   22.0349 N   0  0  0  0  0  0
  -25.4283  -15.1882   20.4121 N   0  0  0  0  0  0
  -31.7865  -14.6963   20.0852 O   0  0  0  0  0  0
  -21.6638   -6.8900   21.4244 O   0  0  0  0  0  0
  -22.3567  -14.5554   20.6660 O   0  0  0  0  0  0
  -24.6225  -31.8696   23.2136 C   0  0  0  0  0  0
  -25.9102  -32.4836   23.8432 C   0  0  1  0  0  0
  -27.2131  -27.3918   20.0808 C   0  0  0  0  0  0
  -25.5930  -33.8634   24.2356 N   0  0  0  0  0  0
  -23.4102  -30.5020   21.5572 C   0  0  2  0  0  0
  -24.8477  -28.9788   20.1148 C   0  0  0  0  0  0
  -22.7453  -29.4686   22.4976 C   0  0  0  0  0  0
  -18.0288  -28.1369   22.8499 C   0  0  0  0  0  0
  -24.1490  -36.7297   23.2647 C   0  0  0  0  0  0
  -25.9504  -30.8224   21.3743 C   0  0  0  0  0  0
  -26.0206  -29.4603   20.7092 C   0  0  0  0  0  0
  -27.2082  -28.6788   20.6860 C   0  0  0  0  0  0
  -26.0004  -26.9492   19.4885 C   0  0  0  0  0  0
  -24.8351  -27.7213   19.5035 C   0  0  0  0  0  0
  -23.6172  -29.8514   20.1671 C   0  0  0  0  0  0
  -25.4115  -36.3121   24.0349 C   0  0  1  0  0  0
  -20.5877  -28.3674   23.1290 C   0  0  2  0  0  0
  -20.6779  -26.9403   22.5387 C   0  0  0  0  0  0
  -19.5742  -26.6387   21.5205 C   0  0  0  0  0  0
  -18.1932  -26.7919   22.1641 C   0  0  0  0  0  0
  -19.1541  -28.8838   23.2901 C   0  0  0  0  0  0
  -18.9470  -30.1445   23.8898 C   0  0  0  0  0  0
  -17.6466  -30.6574   24.0562 C   0  0  0  0  0  0
  -25.9039  -34.9484   23.5151 C   0  0  0  0  0  0
  -16.5347  -29.9065   23.6322 C   0  0  0  0  0  0
  -16.7281  -28.6483   23.0351 C   0  0  0  0  0  0
  -26.4503  -31.6616   25.0766 C   0  0  0  0  0  0
  -25.3763  -31.3694   26.1510 C   0  0  0  0  0  0
  -27.0342  -30.3069   24.6143 C   0  0  0  0  0  0
  -27.6065  -32.4334   25.7531 C   0  0  0  0  0  0
  -27.5580  -37.1810   24.8477 C   0  0  0  0  0  0
  -21.4177  -29.3051   22.3709 N   0  0  0  0  0  0
  -26.4310  -37.3797   23.9409 N   0  0  0  0  0  0
  -24.6807  -31.0768   22.1055 N   0  0  0  0  0  0
  -23.4214  -28.8198   23.3010 O   0  0  0  0  0  0
  -28.3522  -26.5834   20.0902 O   0  0  0  0  0  0
  -26.5586  -34.8931   22.4699 O   0  0  0  0  0  0
  -23.5404  -32.1442   23.7505 O   0  0  0  0  0  0
  -31.1616  -19.2177   22.6542 C   0  0  0  0  0  0
  -31.0052  -18.1590   23.5630 C   0  0  0  0  0  0
  -30.5926  -17.7264   20.8172 C   0  0  0  0  0  0
  -30.9526  -19.0264   21.2726 C   0  0  0  0  0  0
  -30.6392  -16.8763   23.1185 C   0  0  0  0  0  0
  -30.4428  -16.6464   21.7352 C   0  0  0  0  0  0
  -29.8396  -23.7369   21.1825 C   0  0  0  0  0  0
  -30.7289  -22.4378   21.2537 C   0  0  0  0  0  0
  -28.5494  -22.7697   19.3213 C   0  0  0  0  0  0
  -29.5311  -21.5896   19.2284 C   0  0  0  0  0  0
  -29.1994  -24.0767   19.8287 C   0  0  1  0  0  0
  -30.4903  -15.7641   24.1460 C   0  0  0  0  0  0
  -31.2352  -20.1781   20.2882 C   0  0  0  0  0  0
  -28.0952  -25.1755   19.8319 C   0  0  0  0  0  0
  -30.4267  -21.4250   20.3850 N   0  0  0  0  0  0
  -30.0104  -15.3578   21.3164 N   0  0  0  0  0  0
  -29.6968  -24.4822   22.1591 O   0  0  0  0  0  0
  -31.6471  -22.3724   22.0803 O   0  0  0  0  0  0
  -30.3499  -11.2905   19.7321 H   0  0  0  0  0  0
  -31.4691  -12.4471   19.0675 H   0  0  0  0  0  0
  -29.7108  -11.8735   17.3661 H   0  0  0  0  0  0
  -29.6296  -13.5651   17.7877 H   0  0  0  0  0  0
  -27.8325  -11.3286   18.7854 H   0  0  0  0  0  0
  -27.3364  -12.6817   17.8017 H   0  0  0  0  0  0
  -27.7310  -14.2598   19.6367 H   0  0  0  0  0  0
  -28.7013  -11.8688   21.2647 H   0  0  0  0  0  0
  -28.4885  -13.4579   21.9092 H   0  0  0  0  0  0
  -25.2793   -9.5650   22.4769 H   0  0  0  0  0  0
  -24.0005   -7.4636   22.7512 H   0  0  0  0  0  0
  -21.0866   -8.8822   19.8983 H   0  0  0  0  0  0
  -22.3786  -10.9688   19.6153 H   0  0  0  0  0  0
  -21.2039   -7.6158   23.9728 H   0  0  0  0  0  0
  -21.1450   -6.0517   25.9064 H   0  0  0  0  0  0
  -22.0609   -2.7628   23.2820 H   0  0  0  0  0  0
  -22.4120  -11.9890   22.4674 H   0  0  0  0  0  0
  -21.1132  -13.1304   22.2550 H   0  0  0  0  0  0
  -24.6558  -15.8341   20.5263 H   0  0  0  0  0  0
  -26.2763  -15.6402   20.0948 H   0  0  0  0  0  0
  -26.7171  -32.5525   23.1189 H   0  0  0  0  0  0
  -25.0134  -33.9788   25.0545 H   0  0  0  0  0  0
  -22.7019  -31.3219   21.4260 H   0  0  0  0  0  0
  -23.3755  -35.9623   23.3368 H   0  0  0  0  0  0
  -24.3571  -36.8840   22.2044 H   0  0  0  0  0  0
  -23.7228  -37.6520   23.6612 H   0  0  0  0  0  0
  -26.0748  -31.5923   20.6110 H   0  0  0  0  0  0
  -26.8351  -30.8645   21.9985 H   0  0  0  0  0  0
  -28.1113  -29.0486   21.1508 H   0  0  0  0  0  0
  -25.8888  -25.9911   19.0059 H   0  0  0  0  0  0
  -23.9349  -27.3397   19.0432 H   0  0  0  0  0  0
  -23.7346  -30.6352   19.4177 H   0  0  0  0  0  0
  -22.7362  -29.2820   19.8635 H   0  0  0  0  0  0
  -25.1295  -36.2010   25.0837 H   0  0  0  0  0  0
  -20.9990  -28.3226   24.1403 H   0  0  0  0  0  0
  -20.5706  -26.2266   23.3589 H   0  0  0  0  0  0
  -21.6655  -26.7449   22.1165 H   0  0  0  0  0  0
  -19.6899  -25.6307   21.1225 H   0  0  0  0  0  0
  -19.6668  -27.3207   20.6751 H   0  0  0  0  0  0
  -17.4198  -26.6663   21.4053 H   0  0  0  0  0  0
  -18.0345  -26.0059   22.9041 H   0  0  0  0  0  0
  -19.7938  -30.7277   24.2266 H   0  0  0  0  0  0
  -17.5008  -31.6264   24.5162 H   0  0  0  0  0  0
  -15.5344  -30.2971   23.7651 H   0  0  0  0  0  0
  -15.8689  -28.0814   22.7046 H   0  0  0  0  0  0
  -24.5919  -30.7073   25.7830 H   0  0  0  0  0  0
  -24.8990  -32.2841   26.5040 H   0  0  0  0  0  0
  -25.8122  -30.8796   27.0229 H   0  0  0  0  0  0
  -26.2872  -29.6793   24.1274 H   0  0  0  0  0  0
  -27.4204  -29.7342   25.4583 H   0  0  0  0  0  0
  -27.8671  -30.4412   23.9233 H   0  0  0  0  0  0
  -27.2681  -33.3604   26.2181 H   0  0  0  0  0  0
  -28.3849  -32.6948   25.0344 H   0  0  0  0  0  0
  -28.0783  -31.8424   26.5400 H   0  0  0  0  0  0
  -28.2648  -38.0067   24.7516 H   0  0  0  0  0  0
  -28.1033  -36.2605   24.6344 H   0  0  0  0  0  0
  -27.2290  -37.1502   25.8880 H   0  0  0  0  0  0
  -20.9331  -29.8793   21.6955 H   0  0  0  0  0  0
  -26.0219  -38.2886   24.1371 H   0  0  0  0  0  0
  -31.4890  -20.1698   23.0376 H   0  0  0  0  0  0
  -31.1899  -18.3337   24.6128 H   0  0  0  0  0  0
  -30.4380  -17.5475   19.7596 H   0  0  0  0  0  0
  -27.7237  -22.4979   19.9817 H   0  0  0  0  0  0
  -28.0940  -22.9251   18.3429 H   0  0  0  0  0  0
  -30.1543  -21.7281   18.3412 H   0  0  0  0  0  0
  -28.9665  -20.6685   19.0695 H   0  0  0  0  0  0
  -29.9958  -24.3741   19.1471 H   0  0  0  0  0  0
  -31.0453  -14.8733   23.8512 H   0  0  0  0  0  0
  -29.4428  -15.4968   24.2918 H   0  0  0  0  0  0
  -30.8846  -16.0684   25.1161 H   0  0  0  0  0  0
  -31.1710  -19.7733   19.2764 H   0  0  0  0  0  0
  -32.2878  -20.4457   20.3912 H   0  0  0  0  0  0
  -27.7217  -25.1283   18.8082 H   0  0  0  0  0  0
  -27.2937  -24.8376   20.4905 H   0  0  0  0  0  0
  -29.1715  -14.9985   21.7479 H   0  0  0  0  0  0
  1 25  1  0  0  0
  1 30  2  0  0  0
  1 86  1  0  0  0
  2  3  1  0  0  0
  2 25  1  0  0  0
  2 89  1  0  0  0
  2 90  1  0  0  0
  3  4  1  0  0  0
  3 91  1  0  0  0
  3 92  1  0  0  0
  4  5  1  0  0  0
  4 93  1  0  0  0
  4 94  1  0  0  0
  5  6  1  0  0  0
  5 26  1  0  0  0
  5 95  1  0  0  0
  6 25  1  0  0  0
  6 96  1  0  0  0
  6 97  1  0  0  0
  7  8  2  0  0  0
  7 26  1  0  0  0
  7 29  1  0  0  0
  8  9  1  0  0  0
  8 22  1  0  0  0
  9 10  1  0  0  0
  9 27  2  0  0  0
 10 11  2  0  0  0
 10 15  1  0  0  0
 11 12  1  0  0  0
 11 98  1  0  0  0
 12 13  2  0  0  0
 12 99  1  0  0  0
 13 14  1  0  0  0
 13 31  1  0  0  0
 14 15  2  0  0  0
 14100  1  0  0  0
 15101  1  0  0  0
 16 17  2  0  0  0
 16 21  1  0  0  0
 16 31  1  0  0  0
 17 18  1  0  0  0
 17102  1  0  0  0
 18 19  2  0  0  0
 18103  1  0  0  0
 19 20  1  0  0  0
 19 24  1  0  0  0
 20 21  2  0  0  0
 20104  1  0  0  0
 21 23  1  0  0  0
 22 28  1  0  0  0
 22 32  2  0  0  0
 26 27  1  0  0  0
 28105  1  0  0  0
 28106  1  0  0  0
 29107  1  0  0  0
 29108  1  0  0  0
 33 34  1  0  0  0
 33 66  1  0  0  0
 33 70  2  0  0  0
 34 36  1  0  0  0
 34 59  1  0  0  0
 34109  1  0  0  0
 35 44  2  0  0  0
 35 45  1  0  0  0
 35 68  1  0  0  0
 36 56  1  0  0  0
 36110  1  0  0  0
 37 39  1  0  0  0
 37 47  1  0  0  0
 37 66  1  0  0  0
 37111  1  0  0  0
 38 43  2  0  0  0
 38 46  1  0  0  0
 38 47  1  0  0  0
 39 64  1  0  0  0
 39 67  2  0  0  0
 40 52  1  0  0  0
 40 53  2  0  0  0
 40 58  1  0  0  0
 41112  1  0  0  0
 41113  1  0  0  0
 41114  1  0  0  0
 41 48  1  0  0  0
 42 43  1  0  0  0
 42 66  1  0  0  0
 42115  1  0  0  0
 42116  1  0  0  0
 43 44  1  0  0  0
 44117  1  0  0  0
 45 46  2  0  0  0
 45118  1  0  0  0
 46119  1  0  0  0
 47120  1  0  0  0
 47121  1  0  0  0
 48 56  1  0  0  0
 48 65  1  0  0  0
 48122  1  0  0  0
 49 50  1  0  0  0
 49 53  1  0  0  0
 49 64  1  0  0  0
 49123  1  0  0  0
 50 51  1  0  0  0
 50124  1  0  0  0
 50125  1  0  0  0
 51 52  1  0  0  0
 51126  1  0  0  0
 51127  1  0  0  0
 52128  1  0  0  0
 52129  1  0  0  0
 53 54  1  0  0  0
 54 55  2  0  0  0
 54130  1  0  0  0
 55 57  1  0  0  0
 55131  1  0  0  0
 56 69  2  0  0  0
 57 58  2  0  0  0
 57132  1  0  0  0
 58133  1  0  0  0
 59 60  1  0  0  0
 59 61  1  0  0  0
 59 62  1  0  0  0
 60134  1  0  0  0
 60135  1  0  0  0
 60136  1  0  0  0
 61137  1  0  0  0
 61138  1  0  0  0
 61139  1  0  0  0
 62140  1  0  0  0
 62141  1  0  0  0
 62142  1  0  0  0
 63 65  1  0  0  0
 63143  1  0  0  0
 63144  1  0  0  0
 63145  1  0  0  0
 64146  1  0  0  0
 65147  1  0  0  0
 68 84  1  0  0  0
 71 72  2  0  0  0
 71 74  1  0  0  0
 71148  1  0  0  0
 72 75  1  0  0  0
 72149  1  0  0  0
 73 74  2  0  0  0
 73 76  1  0  0  0
 73150  1  0  0  0
 74 83  1  0  0  0
 75 76  2  0  0  0
 75 82  1  0  0  0
 76 86  1  0  0  0
 77 78  1  0  0  0
 77 81  1  0  0  0
 77 87  2  0  0  0
 78 85  1  0  0  0
 78 88  2  0  0  0
 79 80  1  0  0  0
 79 81  1  0  0  0
 79151  1  0  0  0
 79152  1  0  0  0
 80 85  1  0  0  0
 80153  1  0  0  0
 80154  1  0  0  0
 81 84  1  0  0  0
 81155  1  0  0  0
 82156  1  0  0  0
 82157  1  0  0  0
 82158  1  0  0  0
 83 85  1  0  0  0
 83159  1  0  0  0
 83160  1  0  0  0
 84161  1  0  0  0
 84162  1  0  0  0
 86163  1  0  0  0
M  ISO  4   1 100  68 101  84 101  86 100
M  END
> <chiral flag>
0

> <version>
0

> <s_m_source_file>
/data/baiqing/PycharmProjects/Reinvent-master-3.2/result/LINK_invent/BTK/process_docking_weight1_custom_product_contain_oxygen_bond_distance_aromatic_linkinvent_7_9_3/rearranged_h_0058.sdf

> <i_m_source_file_index>
56

> <r_mmod_Potential_Energy-OPLS-2005>
54.9042816162109

> <r_mmod_Stretch_Energy-OPLS-2005>
50.8748779296875

> <r_mmod_Bend_Energy-OPLS-2005>
129.341842651367

> <r_mmod_Torsional_Energy-OPLS-2005>
234.665237426758

> <r_mmod_Improper_Torsional_Energy-OPLS-2005>
4.36526441574097

> <r_mmod_Van_der_Waal_Energy-OPLS-2005>
178.887634277344

> <r_mmod_Electrostatic_Energy-OPLS-2005>
-303.605316162109

> <r_mmod_Solvation_Energy-OPLS-2005>
-255.89501953125

> <b_mmod_Minimization_Converged-OPLS-2005>
0

> <r_mmod_RMS_Derivative-OPLS-2005>
4.35815334320068

$$$$
56
                    3D
 Structure written by MMmdl.
166174  0  0  1  0            999 V2000
  -30.6449  -14.5059   20.5542 C   0  0  0  0  0  0
  -30.4434  -12.3212   19.4237 C   0  0  0  0  0  0
  -29.4955  -12.4783   18.2169 C   0  0  0  0  0  0
  -28.0171  -12.3363   18.6351 C   0  0  0  0  0  0
  -27.6524  -13.2018   19.8699 C   0  0  2  0  0  0
  -28.6984  -12.9913   20.9918 C   0  0  0  0  0  0
  -25.2495  -13.8291   20.5499 C   0  0  0  0  0  0
  -24.1773  -13.0535   20.9064 C   0  0  0  0  0  0
  -24.6359  -11.7019   20.8810 C   0  0  0  0  0  0
  -23.9076  -10.4369   21.0494 C   0  0  0  0  0  0
  -24.3665   -9.4239   21.9198 C   0  0  0  0  0  0
  -23.6348   -8.2262   22.0732 C   0  0  0  0  0  0
  -22.4316   -8.0326   21.3539 C   0  0  0  0  0  0
  -21.9962   -9.0316   20.4655 C   0  0  0  0  0  0
  -22.7285  -10.2198   20.3109 C   0  0  0  0  0  0
  -21.6846   -6.0776   22.5282 C   0  0  0  0  0  0
  -21.3987   -6.5670   23.8222 C   0  0  0  0  0  0
  -21.3670   -5.6812   24.9177 C   0  0  0  0  0  0
  -21.6064   -4.3084   24.7208 C   0  0  0  0  0  0
  -21.8820   -3.8187   23.4320 C   0  0  0  0  0  0
  -21.9193   -4.7007   22.3384 C   0  0  0  0  0  0
  -22.7790  -13.5282   21.1782 C   0  0  0  0  0  0
  -22.1657   -4.2218   21.0957 F   0  0  0  0  0  0
  -21.5664   -3.4553   25.7706 F   0  0  0  0  0  0
  -30.0292  -13.3001   20.4311 N   0  0  0  0  0  0
  -26.2955  -12.9422   20.3357 N   0  0  0  0  0  0
  -25.9297  -11.6609   20.5937 N   0  0  0  0  0  0
  -22.0515  -12.8221   22.0389 N   0  0  0  0  0  0
  -25.4136  -15.2030   20.3758 N   0  0  0  0  0  0
  -31.8187  -14.7147   20.2509 O   0  0  0  0  0  0
  -21.6659   -6.8935   21.4251 O   0  0  0  0  0  0
  -22.3384  -14.5559   20.6661 O   0  0  0  0  0  0
  -24.6208  -31.8650   23.2107 C   0  0  0  0  0  0
  -25.9105  -32.4782   23.8410 C   0  0  1  0  0  0
  -27.2236  -27.4195   20.0684 C   0  0  0  0  0  0
  -25.5972  -33.8583   24.2376 N   0  0  0  0  0  0
  -23.4046  -30.4947   21.5479 C   0  0  2  0  0  0
  -24.8424  -28.9585   20.1132 C   0  0  0  0  0  0
  -22.7428  -29.4687   22.4957 C   0  0  0  0  0  0
  -18.0273  -28.1390   22.8485 C   0  0  0  0  0  0
  -24.1484  -36.7303   23.2640 C   0  0  0  0  0  0
  -25.9360  -30.8240   21.3639 C   0  0  0  0  0  0
  -26.0047  -29.4560   20.7133 C   0  0  0  0  0  0
  -27.1943  -28.6883   20.6973 C   0  0  0  0  0  0
  -26.0323  -26.9342   19.4753 C   0  0  0  0  0  0
  -24.8488  -27.6931   19.5044 C   0  0  0  0  0  0
  -23.6130  -29.8379   20.1586 C   0  0  0  0  0  0
  -25.4095  -36.3100   24.0361 C   0  0  1  0  0  0
  -20.5882  -28.3695   23.1305 C   0  0  2  0  0  0
  -20.6746  -26.9427   22.5399 C   0  0  0  0  0  0
  -19.5743  -26.6408   21.5181 C   0  0  0  0  0  0
  -18.1925  -26.7939   22.1600 C   0  0  0  0  0  0
  -19.1526  -28.8851   23.2899 C   0  0  0  0  0  0
  -18.9454  -30.1442   23.8936 C   0  0  0  0  0  0
  -17.6459  -30.6586   24.0583 C   0  0  0  0  0  0
  -25.9027  -34.9455   23.5151 C   0  0  0  0  0  0
  -16.5350  -29.9088   23.6335 C   0  0  0  0  0  0
  -16.7263  -28.6508   23.0348 C   0  0  0  0  0  0
  -26.4562  -31.6511   25.0686 C   0  0  0  0  0  0
  -25.3902  -31.3518   26.1466 C   0  0  0  0  0  0
  -27.0394  -30.2978   24.5991 C   0  0  0  0  0  0
  -27.6175  -32.4203   25.7404 C   0  0  0  0  0  0
  -27.5585  -37.1774   24.8494 C   0  0  0  0  0  0
  -21.4168  -29.3058   22.3689 N   0  0  0  0  0  0
  -26.4292  -37.3786   23.9436 N   0  0  0  0  0  0
  -24.6724  -31.0751   22.1006 N   0  0  0  0  0  0
  -23.4167  -28.8259   23.3037 O   0  0  0  0  0  0
  -28.4111  -26.7087   20.0640 O   0  0  0  0  0  0
  -26.5563  -34.8921   22.4694 O   0  0  0  0  0  0
  -23.5395  -32.1412   23.7495 O   0  0  0  0  0  0
  -28.6521  -19.1245   22.4876 C   0  0  0  0  0  0
  -28.3029  -16.7941   21.9590 C   0  0  0  0  0  0
  -29.8900  -19.1171   21.7968 C   0  0  0  0  0  0
  -30.4122  -17.8677   21.2977 C   0  0  0  0  0  0
  -29.5627  -16.7090   21.3240 C   0  0  0  0  0  0
  -27.8697  -17.9715   22.5755 C   0  0  0  0  0  0
  -31.3842  -18.2667   18.6290 C   0  0  0  0  0  0
  -31.8496  -17.7536   20.8339 C   0  0  0  0  0  0
  -30.5024  -20.4622   21.5971 C   0  0  0  0  0  0
  -29.9656  -22.8991   21.1489 C   0  0  0  0  0  0
  -31.8049  -18.6418   17.2297 C   0  0  0  0  0  0
  -28.7608  -23.8527   21.2508 C   0  0  0  0  0  0
  -28.0667  -24.2245   19.9179 C   0  0  0  0  0  0
  -28.5565  -25.5323   19.2495 C   0  0  0  0  0  0
  -32.2430  -18.0157   19.5299 N   0  0  0  0  0  0
  -29.7224  -15.4874   20.5944 N   0  0  0  0  0  0
  -29.6671  -21.4957   21.3049 N   0  0  0  0  0  0
  -31.8196  -20.6596   21.7263 N   0  3  0  0  0  0
  -32.6717  -17.4709   21.7051 O   0  0  0  0  0  0
  -31.1237  -23.3169   21.0543 O   0  0  0  0  0  0
  -26.6660  -18.0165   23.1991 F   0  0  0  0  0  0
  -31.4779  -12.4711   19.1074 H   0  0  0  0  0  0
  -30.3915  -11.3132   19.8362 H   0  0  0  0  0  0
  -29.7342  -11.7308   17.4613 H   0  0  0  0  0  0
  -29.6571  -13.4486   17.7475 H   0  0  0  0  0  0
  -27.8359  -11.2857   18.8629 H   0  0  0  0  0  0
  -27.3624  -12.5812   17.7999 H   0  0  0  0  0  0
  -27.6839  -14.2400   19.5425 H   0  0  0  0  0  0
  -28.6693  -11.9621   21.3555 H   0  0  0  0  0  0
  -28.4701  -13.6119   21.8620 H   0  0  0  0  0  0
  -25.2817   -9.5717   22.4752 H   0  0  0  0  0  0
  -24.0102   -7.4635   22.7378 H   0  0  0  0  0  0
  -21.0926   -8.8869   19.8925 H   0  0  0  0  0  0
  -22.3766  -10.9776   19.6264 H   0  0  0  0  0  0
  -21.1916   -7.6174   23.9755 H   0  0  0  0  0  0
  -21.1506   -6.0509   25.9089 H   0  0  0  0  0  0
  -22.0579   -2.7648   23.2780 H   0  0  0  0  0  0
  -22.4308  -12.0010   22.4868 H   0  0  0  0  0  0
  -21.1203  -13.1285   22.2838 H   0  0  0  0  0  0
  -24.6382  -15.8501   20.4724 H   0  0  0  0  0  0
  -26.2518  -15.6727   20.0608 H   0  0  0  0  0  0
  -26.7150  -32.5495   23.1140 H   0  0  0  0  0  0
  -25.0203  -33.9732   25.0583 H   0  0  0  0  0  0
  -22.6980  -31.3167   21.4123 H   0  0  0  0  0  0
  -23.3727  -35.9654   23.3329 H   0  0  0  0  0  0
  -24.3628  -36.8875   22.2056 H   0  0  0  0  0  0
  -23.7209  -37.6514   23.6620 H   0  0  0  0  0  0
  -26.0458  -31.5907   20.5968 H   0  0  0  0  0  0
  -26.8255  -30.8822   21.9791 H   0  0  0  0  0  0
  -28.0953  -29.0678   21.1598 H   0  0  0  0  0  0
  -25.9851  -25.9719   18.9876 H   0  0  0  0  0  0
  -23.9466  -27.3034   19.0512 H   0  0  0  0  0  0
  -23.7439  -30.6186   19.4068 H   0  0  0  0  0  0
  -22.7294  -29.2756   19.8538 H   0  0  0  0  0  0
  -25.1234  -36.1981   25.0849 H   0  0  0  0  0  0
  -20.9986  -28.3237   24.1429 H   0  0  0  0  0  0
  -20.5620  -26.2311   23.3583 H   0  0  0  0  0  0
  -21.6620  -26.7426   22.1239 H   0  0  0  0  0  0
  -19.6909  -25.6326   21.1195 H   0  0  0  0  0  0
  -19.6677  -27.3236   20.6738 H   0  0  0  0  0  0
  -17.4187  -26.6729   21.3996 H   0  0  0  0  0  0
  -18.0332  -26.0046   22.8981 H   0  0  0  0  0  0
  -19.7924  -30.7244   24.2339 H   0  0  0  0  0  0
  -17.5005  -31.6279   24.5158 H   0  0  0  0  0  0
  -15.5349  -30.3000   23.7616 H   0  0  0  0  0  0
  -15.8679  -28.0825   22.7046 H   0  0  0  0  0  0
  -24.6119  -30.6805   25.7794 H   0  0  0  0  0  0
  -24.9032  -32.2615   26.5004 H   0  0  0  0  0  0
  -25.8372  -30.8624   27.0145 H   0  0  0  0  0  0
  -26.2866  -29.6617   24.1285 H   0  0  0  0  0  0
  -27.4489  -29.7314   25.4374 H   0  0  0  0  0  0
  -27.8592  -30.4314   23.8913 H   0  0  0  0  0  0
  -27.2867  -33.3520   26.2029 H   0  0  0  0  0  0
  -28.3956  -32.6714   25.0165 H   0  0  0  0  0  0
  -28.0903  -31.8251   26.5233 H   0  0  0  0  0  0
  -28.2598  -38.0076   24.7547 H   0  0  0  0  0  0
  -28.1080  -36.2597   24.6303 H   0  0  0  0  0  0
  -27.2349  -37.1451   25.8920 H   0  0  0  0  0  0
  -20.9327  -29.8785   21.6929 H   0  0  0  0  0  0
  -26.0185  -38.2869   24.1452 H   0  0  0  0  0  0
  -28.2605  -20.0216   22.9467 H   0  0  0  0  0  0
  -27.6279  -15.9532   21.9732 H   0  0  0  0  0  0
  -30.2995  -18.2478   18.7790 H   0  0  0  0  0  0
  -31.3917  -17.9364   16.5093 H   0  0  0  0  0  0
  -32.8921  -18.6385   17.1389 H   0  0  0  0  0  0
  -31.4425  -19.6411   16.9944 H   0  0  0  0  0  0
  -28.0336  -23.4039   21.9299 H   0  0  0  0  0  0
  -29.0974  -24.7652   21.7483 H   0  0  0  0  0  0
  -26.9928  -24.2880   20.0896 H   0  0  0  0  0  0
  -28.1865  -23.4071   19.2046 H   0  0  0  0  0  0
  -28.0761  -25.6776   18.2787 H   0  0  0  0  0  0
  -29.6145  -25.4183   19.0175 H   0  0  0  0  0  0
  -28.8316  -15.0500   20.4235 H   0  0  0  0  0  0
  -28.7121  -21.1775   21.2619 H   0  0  0  0  0  0
  -32.4413  -19.9440   22.0736 H   0  0  0  0  0  0
  -32.1820  -21.5918   21.5637 H   0  0  0  0  0  0
  1 25  1  0  0  0
  1 30  2  0  0  0
  1 86  1  0  0  0
  2  3  1  0  0  0
  2 25  1  0  0  0
  2 92  1  0  0  0
  2 93  1  0  0  0
  3  4  1  0  0  0
  3 94  1  0  0  0
  3 95  1  0  0  0
  4  5  1  0  0  0
  4 96  1  0  0  0
  4 97  1  0  0  0
  5  6  1  0  0  0
  5 26  1  0  0  0
  5 98  1  0  0  0
  6 25  1  0  0  0
  6 99  1  0  0  0
  6100  1  0  0  0
  7  8  2  0  0  0
  7 26  1  0  0  0
  7 29  1  0  0  0
  8  9  1  0  0  0
  8 22  1  0  0  0
  9 10  1  0  0  0
  9 27  2  0  0  0
 10 11  2  0  0  0
 10 15  1  0  0  0
 11 12  1  0  0  0
 11101  1  0  0  0
 12 13  2  0  0  0
 12102  1  0  0  0
 13 14  1  0  0  0
 13 31  1  0  0  0
 14 15  2  0  0  0
 14103  1  0  0  0
 15104  1  0  0  0
 16 17  2  0  0  0
 16 21  1  0  0  0
 16 31  1  0  0  0
 17 18  1  0  0  0
 17105  1  0  0  0
 18 19  2  0  0  0
 18106  1  0  0  0
 19 20  1  0  0  0
 19 24  1  0  0  0
 20 21  2  0  0  0
 20107  1  0  0  0
 21 23  1  0  0  0
 22 28  1  0  0  0
 22 32  2  0  0  0
 26 27  1  0  0  0
 28108  1  0  0  0
 28109  1  0  0  0
 29110  1  0  0  0
 29111  1  0  0  0
 33 34  1  0  0  0
 33 66  1  0  0  0
 33 70  2  0  0  0
 34 36  1  0  0  0
 34 59  1  0  0  0
 34112  1  0  0  0
 35 44  2  0  0  0
 35 45  1  0  0  0
 35 68  1  0  0  0
 36 56  1  0  0  0
 36113  1  0  0  0
 37 39  1  0  0  0
 37 47  1  0  0  0
 37 66  1  0  0  0
 37114  1  0  0  0
 38 43  2  0  0  0
 38 46  1  0  0  0
 38 47  1  0  0  0
 39 64  1  0  0  0
 39 67  2  0  0  0
 40 52  1  0  0  0
 40 53  2  0  0  0
 40 58  1  0  0  0
 41115  1  0  0  0
 41116  1  0  0  0
 41117  1  0  0  0
 41 48  1  0  0  0
 42 43  1  0  0  0
 42 66  1  0  0  0
 42118  1  0  0  0
 42119  1  0  0  0
 43 44  1  0  0  0
 44120  1  0  0  0
 45 46  2  0  0  0
 45121  1  0  0  0
 46122  1  0  0  0
 47123  1  0  0  0
 47124  1  0  0  0
 48 56  1  0  0  0
 48 65  1  0  0  0
 48125  1  0  0  0
 49 50  1  0  0  0
 49 53  1  0  0  0
 49 64  1  0  0  0
 49126  1  0  0  0
 50 51  1  0  0  0
 50127  1  0  0  0
 50128  1  0  0  0
 51 52  1  0  0  0
 51129  1  0  0  0
 51130  1  0  0  0
 52131  1  0  0  0
 52132  1  0  0  0
 53 54  1  0  0  0
 54 55  2  0  0  0
 54133  1  0  0  0
 55 57  1  0  0  0
 55134  1  0  0  0
 56 69  2  0  0  0
 57 58  2  0  0  0
 57135  1  0  0  0
 58136  1  0  0  0
 59 60  1  0  0  0
 59 61  1  0  0  0
 59 62  1  0  0  0
 60137  1  0  0  0
 60138  1  0  0  0
 60139  1  0  0  0
 61140  1  0  0  0
 61141  1  0  0  0
 61142  1  0  0  0
 62143  1  0  0  0
 62144  1  0  0  0
 62145  1  0  0  0
 63 65  1  0  0  0
 63146  1  0  0  0
 63147  1  0  0  0
 63148  1  0  0  0
 64149  1  0  0  0
 65150  1  0  0  0
 68 84  1  0  0  0
 71 73  2  0  0  0
 71 76  1  0  0  0
 71151  1  0  0  0
 72 75  1  0  0  0
 72 76  2  0  0  0
 72152  1  0  0  0
 73 74  1  0  0  0
 73 79  1  0  0  0
 74 75  2  0  0  0
 74 78  1  0  0  0
 75 86  1  0  0  0
 76 91  1  0  0  0
 77 81  1  0  0  0
 77 85  2  0  0  0
 77153  1  0  0  0
 78 85  1  0  0  0
 78 89  2  0  0  0
 79 87  1  0  0  0
 79 88  2  0  0  0
 80 82  1  0  0  0
 80 87  1  0  0  0
 80 90  2  0  0  0
 81154  1  0  0  0
 81155  1  0  0  0
 81156  1  0  0  0
 82 83  1  0  0  0
 82157  1  0  0  0
 82158  1  0  0  0
 83 84  1  0  0  0
 83159  1  0  0  0
 83160  1  0  0  0
 84161  1  0  0  0
 84162  1  0  0  0
 86163  1  0  0  0
 87164  1  0  0  0
 88165  1  0  0  0
 88166  1  0  0  0
M  CHG  1  88   1
M  ISO  4   1 100  68 101  84 101  86 100
M  END
> <chiral flag>
0

> <version>
0

> <s_m_source_file>
/data/baiqing/PycharmProjects/Reinvent-master-3.2/result/LINK_invent/BTK/process_docking_weight1_custom_product_contain_oxygen_bond_distance_aromatic_linkinvent_7_9_3/rearranged_h_0058.sdf

> <i_m_source_file_index>
57

> <r_mmod_Potential_Energy-OPLS-2005>
-330.611755371094

> <r_mmod_Stretch_Energy-OPLS-2005>
47.3947944641113

> <r_mmod_Bend_Energy-OPLS-2005>
175.424041748047

> <r_mmod_Torsional_Energy-OPLS-2005>
238.197814941406

> <r_mmod_Improper_Torsional_Energy-OPLS-2005>
18.3990859985352

> <r_mmod_Van_der_Waal_Energy-OPLS-2005>
167.972808837891

> <r_mmod_Electrostatic_Energy-OPLS-2005>
-528.482482910156

> <r_mmod_Solvation_Energy-OPLS-2005>
-470.448486328125

> <b_mmod_Minimization_Converged-OPLS-2005>
0

> <r_mmod_RMS_Derivative-OPLS-2005>
6.27346801757812

$$$$
57
                    3D
 Structure written by MMmdl.
165173  0  0  1  0            999 V2000
  -30.7925  -14.3096   20.6757 C   0  0  0  0  0  0
  -30.4017  -12.2598   19.3813 C   0  0  0  0  0  0
  -29.4751  -12.5213   18.1816 C   0  0  0  0  0  0
  -27.9998  -12.3887   18.6006 C   0  0  0  0  0  0
  -27.6646  -13.2032   19.8783 C   0  0  2  0  0  0
  -28.7020  -12.9272   20.9893 C   0  0  0  0  0  0
  -25.2585  -13.8163   20.5679 C   0  0  0  0  0  0
  -24.1831  -13.0444   20.9185 C   0  0  0  0  0  0
  -24.6387  -11.6909   20.8741 C   0  0  0  0  0  0
  -23.9054  -10.4301   21.0414 C   0  0  0  0  0  0
  -24.3617   -9.4205   21.9180 C   0  0  0  0  0  0
  -23.6297   -8.2237   22.0747 C   0  0  0  0  0  0
  -22.4262   -8.0297   21.3558 C   0  0  0  0  0  0
  -21.9911   -9.0257   20.4640 C   0  0  0  0  0  0
  -22.7238  -10.2133   20.3050 C   0  0  0  0  0  0
  -21.6847   -6.0744   22.5288 C   0  0  0  0  0  0
  -21.4004   -6.5644   23.8226 C   0  0  0  0  0  0
  -21.3656   -5.6792   24.9186 C   0  0  0  0  0  0
  -21.6051   -4.3059   24.7234 C   0  0  0  0  0  0
  -21.8810   -3.8151   23.4355 C   0  0  0  0  0  0
  -21.9189   -4.6969   22.3412 C   0  0  0  0  0  0
  -22.7854  -13.5246   21.1853 C   0  0  0  0  0  0
  -22.1659   -4.2163   21.0988 F   0  0  0  0  0  0
  -21.5630   -3.4540   25.7745 F   0  0  0  0  0  0
  -30.0458  -13.2022   20.4474 N   0  0  0  0  0  0
  -26.3026  -12.9330   20.3355 N   0  0  0  0  0  0
  -25.9313  -11.6483   20.5750 N   0  0  0  0  0  0
  -22.0486  -12.8248   22.0403 N   0  0  0  0  0  0
  -25.4284  -15.1897   20.4076 N   0  0  0  0  0  0
  -31.8011  -14.5929   20.0207 O   0  0  0  0  0  0
  -21.6630   -6.8894   21.4254 O   0  0  0  0  0  0
  -22.3540  -14.5561   20.6710 O   0  0  0  0  0  0
  -24.6073  -31.8712   23.2091 C   0  0  0  0  0  0
  -25.8992  -32.4833   23.8384 C   0  0  1  0  0  0
  -27.2515  -27.4806   20.0999 C   0  0  0  0  0  0
  -25.5880  -33.8641   24.2320 N   0  0  0  0  0  0
  -23.3952  -30.4901   21.5462 C   0  0  2  0  0  0
  -24.8461  -28.9619   20.1188 C   0  0  0  0  0  0
  -22.7403  -29.4605   22.4963 C   0  0  0  0  0  0
  -18.0279  -28.1385   22.8492 C   0  0  0  0  0  0
  -24.1488  -36.7327   23.2630 C   0  0  0  0  0  0
  -25.9170  -30.8533   21.3527 C   0  0  0  0  0  0
  -25.9985  -29.4876   20.7119 C   0  0  0  0  0  0
  -27.1989  -28.7530   20.7008 C   0  0  0  0  0  0
  -26.0734  -26.9450   19.5261 C   0  0  0  0  0  0
  -24.8752  -27.6850   19.5320 C   0  0  0  0  0  0
  -23.6061  -29.8215   20.1606 C   0  0  0  0  0  0
  -25.4098  -36.3114   24.0326 C   0  0  1  0  0  0
  -20.5864  -28.3592   23.1376 C   0  0  2  0  0  0
  -20.6776  -26.9339   22.5434 C   0  0  0  0  0  0
  -19.5726  -26.6379   21.5252 C   0  0  0  0  0  0
  -18.1903  -26.7937   22.1654 C   0  0  0  0  0  0
  -19.1533  -28.8813   23.2935 C   0  0  0  0  0  0
  -18.9459  -30.1456   23.8881 C   0  0  0  0  0  0
  -17.6458  -30.6569   24.0564 C   0  0  0  0  0  0
  -25.9023  -34.9481   23.5108 C   0  0  0  0  0  0
  -16.5349  -29.9061   23.6347 C   0  0  0  0  0  0
  -16.7281  -28.6518   23.0297 C   0  0  0  0  0  0
  -26.4437  -31.6627   25.0714 C   0  0  0  0  0  0
  -25.3736  -31.3768   26.1485 C   0  0  0  0  0  0
  -27.0234  -30.3074   24.6052 C   0  0  0  0  0  0
  -27.5992  -32.4352   25.7499 C   0  0  0  0  0  0
  -27.5573  -37.1822   24.8463 C   0  0  0  0  0  0
  -21.4131  -29.2976   22.3780 N   0  0  0  0  0  0
  -26.4288  -37.3794   23.9401 N   0  0  0  0  0  0
  -24.6570  -31.0853   22.0943 N   0  0  0  0  0  0
  -23.4228  -28.8158   23.2959 O   0  0  0  0  0  0
  -28.4755  -26.8539   20.0876 O   0  0  0  0  0  0
  -26.5585  -34.8931   22.4675 O   0  0  0  0  0  0
  -23.5278  -32.1429   23.7506 O   0  0  0  0  0  0
  -33.1174  -17.2402   23.0132 C   0  0  0  0  0  0
  -32.4405  -16.0950   22.5655 C   0  0  0  0  0  0
  -30.4128  -17.4111   22.2893 C   0  0  0  0  0  0
  -31.0913  -18.5867   22.6929 C   0  0  0  0  0  0
  -32.4653  -18.4886   23.0762 C   0  0  0  0  0  0
  -31.0842  -16.1868   22.1889 C   0  0  0  0  0  0
  -30.3183  -19.8828   22.7193 C   0  0  0  0  0  0
  -28.4923  -20.9371   21.5048 C   0  0  0  0  0  0
  -33.2904  -19.6763   23.5570 C   0  0  0  0  0  0
  -27.7734  -22.6426   23.2457 C   0  0  0  0  0  0
  -28.2002  -24.6713   21.1050 C   0  0  0  0  0  0
  -28.5702  -25.4583   19.8397 C   0  0  0  0  0  0
  -28.6639  -22.3745   22.0156 C   0  0  2  0  0  0
  -30.3836  -15.0658   21.6984 N   0  0  0  0  0  0
  -29.3723  -19.9657   21.7710 N   0  0  0  0  0  0
  -28.3206  -23.2192   20.8564 N   0  3  0  0  0  0
  -30.5667  -20.7586   23.5503 O   0  0  0  0  0  0
  -27.5289  -20.7046   20.7678 O   0  0  0  0  0  0
  -31.4485  -12.3363   19.0804 H   0  0  0  0  0  0
  -30.2785  -11.2357   19.7408 H   0  0  0  0  0  0
  -29.7012  -11.8269   17.3712 H   0  0  0  0  0  0
  -29.6599  -13.5201   17.7821 H   0  0  0  0  0  0
  -27.7936  -11.3323   18.7703 H   0  0  0  0  0  0
  -27.3496  -12.6953   17.7799 H   0  0  0  0  0  0
  -27.7283  -14.2597   19.6170 H   0  0  0  0  0  0
  -28.6502  -11.8790   21.2895 H   0  0  0  0  0  0
  -28.4555  -13.4938   21.8872 H   0  0  0  0  0  0
  -25.2761   -9.5693   22.4753 H   0  0  0  0  0  0
  -24.0012   -7.4627   22.7465 H   0  0  0  0  0  0
  -21.0840   -8.8783   19.8952 H   0  0  0  0  0  0
  -22.3703  -10.9678   19.6163 H   0  0  0  0  0  0
  -21.1984   -7.6148   23.9749 H   0  0  0  0  0  0
  -21.1486   -6.0511   25.9096 H   0  0  0  0  0  0
  -22.0590   -2.7617   23.2848 H   0  0  0  0  0  0
  -22.4065  -11.9904   22.4815 H   0  0  0  0  0  0
  -21.1107  -13.1284   22.2604 H   0  0  0  0  0  0
  -24.6590  -15.8439   20.5057 H   0  0  0  0  0  0
  -26.2841  -15.6297   20.0936 H   0  0  0  0  0  0
  -26.7057  -32.5532   23.1158 H   0  0  0  0  0  0
  -25.0057  -33.9833   25.0474 H   0  0  0  0  0  0
  -22.6797  -31.3029   21.4069 H   0  0  0  0  0  0
  -23.3750  -35.9680   23.3331 H   0  0  0  0  0  0
  -24.3588  -36.8921   22.2047 H   0  0  0  0  0  0
  -23.7312  -37.6572   23.6631 H   0  0  0  0  0  0
  -26.0192  -31.6156   20.5784 H   0  0  0  0  0  0
  -26.8098  -30.9125   21.9637 H   0  0  0  0  0  0
  -28.0875  -29.1655   21.1599 H   0  0  0  0  0  0
  -26.0552  -25.9682   19.0671 H   0  0  0  0  0  0
  -23.9801  -27.2709   19.0851 H   0  0  0  0  0  0
  -23.7169  -30.5980   19.4028 H   0  0  0  0  0  0
  -22.7337  -29.2386   19.8569 H   0  0  0  0  0  0
  -25.1310  -36.1940   25.0835 H   0  0  0  0  0  0
  -20.9946  -28.3096   24.1502 H   0  0  0  0  0  0
  -20.5733  -26.2166   23.3595 H   0  0  0  0  0  0
  -21.6628  -26.7430   22.1166 H   0  0  0  0  0  0
  -19.6883  -25.6320   21.1217 H   0  0  0  0  0  0
  -19.6673  -27.3247   20.6843 H   0  0  0  0  0  0
  -17.4201  -26.6722   21.4037 H   0  0  0  0  0  0
  -18.0242  -26.0112   22.9066 H   0  0  0  0  0  0
  -19.7933  -30.7308   24.2195 H   0  0  0  0  0  0
  -17.5007  -31.6239   24.5168 H   0  0  0  0  0  0
  -15.5346  -30.2938   23.7711 H   0  0  0  0  0  0
  -15.8695  -28.0882   22.6914 H   0  0  0  0  0  0
  -24.5860  -30.7144   25.7885 H   0  0  0  0  0  0
  -24.8973  -32.2955   26.4931 H   0  0  0  0  0  0
  -25.8098  -30.8968   27.0249 H   0  0  0  0  0  0
  -26.2763  -29.6896   24.1056 H   0  0  0  0  0  0
  -27.4006  -29.7238   25.4467 H   0  0  0  0  0  0
  -27.8595  -30.4454   23.9189 H   0  0  0  0  0  0
  -27.2565  -33.3626   26.2109 H   0  0  0  0  0  0
  -28.3779  -32.6973   25.0319 H   0  0  0  0  0  0
  -28.0681  -31.8473   26.5400 H   0  0  0  0  0  0
  -28.2599  -38.0110   24.7465 H   0  0  0  0  0  0
  -28.1049  -36.2630   24.6319 H   0  0  0  0  0  0
  -27.2268  -37.1529   25.8866 H   0  0  0  0  0  0
  -20.9269  -29.8739   21.7049 H   0  0  0  0  0  0
  -26.0157  -38.2871   24.1420 H   0  0  0  0  0  0
  -34.1565  -17.1483   23.2981 H   0  0  0  0  0  0
  -32.9690  -15.1518   22.5074 H   0  0  0  0  0  0
  -29.3668  -17.4405   22.0157 H   0  0  0  0  0  0
  -34.3004  -19.3687   23.8374 H   0  0  0  0  0  0
  -32.8462  -20.1282   24.4435 H   0  0  0  0  0  0
  -33.3866  -20.4373   22.7813 H   0  0  0  0  0  0
  -27.8448  -21.8311   23.9691 H   0  0  0  0  0  0
  -26.7233  -22.7463   22.9691 H   0  0  0  0  0  0
  -28.0915  -23.5498   23.7625 H   0  0  0  0  0  0
  -27.1840  -24.8920   21.4341 H   0  0  0  0  0  0
  -28.8643  -24.9819   21.9128 H   0  0  0  0  0  0
  -27.9972  -25.1456   18.9669 H   0  0  0  0  0  0
  -29.6160  -25.2621   19.5927 H   0  0  0  0  0  0
  -29.7047  -22.5974   22.2526 H   0  0  0  0  0  0
  -29.4755  -14.8574   22.0913 H   0  0  0  0  0  0
  -29.2655  -19.1275   21.2241 H   0  0  0  0  0  0
  -29.0383  -23.0557   20.1678 H   0  0  0  0  0  0
  -27.4739  -22.8243   20.4656 H   0  0  0  0  0  0
  1 25  1  0  0  0
  1 30  2  0  0  0
  1 84  1  0  0  0
  2  3  1  0  0  0
  2 25  1  0  0  0
  2 89  1  0  0  0
  2 90  1  0  0  0
  3  4  1  0  0  0
  3 91  1  0  0  0
  3 92  1  0  0  0
  4  5  1  0  0  0
  4 93  1  0  0  0
  4 94  1  0  0  0
  5  6  1  0  0  0
  5 26  1  0  0  0
  5 95  1  0  0  0
  6 25  1  0  0  0
  6 96  1  0  0  0
  6 97  1  0  0  0
  7  8  2  0  0  0
  7 26  1  0  0  0
  7 29  1  0  0  0
  8  9  1  0  0  0
  8 22  1  0  0  0
  9 10  1  0  0  0
  9 27  2  0  0  0
 10 11  2  0  0  0
 10 15  1  0  0  0
 11 12  1  0  0  0
 11 98  1  0  0  0
 12 13  2  0  0  0
 12 99  1  0  0  0
 13 14  1  0  0  0
 13 31  1  0  0  0
 14 15  2  0  0  0
 14100  1  0  0  0
 15101  1  0  0  0
 16 17  2  0  0  0
 16 21  1  0  0  0
 16 31  1  0  0  0
 17 18  1  0  0  0
 17102  1  0  0  0
 18 19  2  0  0  0
 18103  1  0  0  0
 19 20  1  0  0  0
 19 24  1  0  0  0
 20 21  2  0  0  0
 20104  1  0  0  0
 21 23  1  0  0  0
 22 28  1  0  0  0
 22 32  2  0  0  0
 26 27  1  0  0  0
 28105  1  0  0  0
 28106  1  0  0  0
 29107  1  0  0  0
 29108  1  0  0  0
 33 34  1  0  0  0
 33 66  1  0  0  0
 33 70  2  0  0  0
 34 36  1  0  0  0
 34 59  1  0  0  0
 34109  1  0  0  0
 35 44  2  0  0  0
 35 45  1  0  0  0
 35 68  1  0  0  0
 36 56  1  0  0  0
 36110  1  0  0  0
 37 39  1  0  0  0
 37 47  1  0  0  0
 37 66  1  0  0  0
 37111  1  0  0  0
 38 43  2  0  0  0
 38 46  1  0  0  0
 38 47  1  0  0  0
 39 64  1  0  0  0
 39 67  2  0  0  0
 40 52  1  0  0  0
 40 53  2  0  0  0
 40 58  1  0  0  0
 41112  1  0  0  0
 41113  1  0  0  0
 41114  1  0  0  0
 41 48  1  0  0  0
 42 43  1  0  0  0
 42 66  1  0  0  0
 42115  1  0  0  0
 42116  1  0  0  0
 43 44  1  0  0  0
 44117  1  0  0  0
 45 46  2  0  0  0
 45118  1  0  0  0
 46119  1  0  0  0
 47120  1  0  0  0
 47121  1  0  0  0
 48 56  1  0  0  0
 48 65  1  0  0  0
 48122  1  0  0  0
 49 50  1  0  0  0
 49 53  1  0  0  0
 49 64  1  0  0  0
 49123  1  0  0  0
 50 51  1  0  0  0
 50124  1  0  0  0
 50125  1  0  0  0
 51 52  1  0  0  0
 51126  1  0  0  0
 51127  1  0  0  0
 52128  1  0  0  0
 52129  1  0  0  0
 53 54  1  0  0  0
 54 55  2  0  0  0
 54130  1  0  0  0
 55 57  1  0  0  0
 55131  1  0  0  0
 56 69  2  0  0  0
 57 58  2  0  0  0
 57132  1  0  0  0
 58133  1  0  0  0
 59 60  1  0  0  0
 59 61  1  0  0  0
 59 62  1  0  0  0
 60134  1  0  0  0
 60135  1  0  0  0
 60136  1  0  0  0
 61137  1  0  0  0
 61138  1  0  0  0
 61139  1  0  0  0
 62140  1  0  0  0
 62141  1  0  0  0
 62142  1  0  0  0
 63 65  1  0  0  0
 63143  1  0  0  0
 63144  1  0  0  0
 63145  1  0  0  0
 64146  1  0  0  0
 65147  1  0  0  0
 68 82  1  0  0  0
 71 72  2  0  0  0
 71 75  1  0  0  0
 71148  1  0  0  0
 72 76  1  0  0  0
 72149  1  0  0  0
 73 74  1  0  0  0
 73 76  2  0  0  0
 73150  1  0  0  0
 74 75  2  0  0  0
 74 77  1  0  0  0
 75 79  1  0  0  0
 76 84  1  0  0  0
 77 85  1  0  0  0
 77 87  2  0  0  0
 78 83  1  0  0  0
 78 85  1  0  0  0
 78 88  2  0  0  0
 79151  1  0  0  0
 79152  1  0  0  0
 79153  1  0  0  0
 80154  1  0  0  0
 80155  1  0  0  0
 80156  1  0  0  0
 80 83  1  0  0  0
 81 82  1  0  0  0
 81 86  1  0  0  0
 81157  1  0  0  0
 81158  1  0  0  0
 82159  1  0  0  0
 82160  1  0  0  0
 83 86  1  0  0  0
 83161  1  0  0  0
 84162  1  0  0  0
 85163  1  0  0  0
 86164  1  0  0  0
 86165  1  0  0  0
M  CHG  1  86   1
M  ISO  4   1 100  68 101  82 101  84 100
M  END
> <chiral flag>
0

> <version>
0

> <s_m_source_file>
/data/baiqing/PycharmProjects/Reinvent-master-3.2/result/LINK_invent/BTK/process_docking_weight1_custom_product_contain_oxygen_bond_distance_aromatic_linkinvent_7_9_3/rearranged_h_0058.sdf

> <i_m_source_file_index>
58

> <r_mmod_Potential_Energy-OPLS-2005>
-415.253570556641

> <r_mmod_Stretch_Energy-OPLS-2005>
32.9968643188477

> <r_mmod_Bend_Energy-OPLS-2005>
118.013656616211

> <r_mmod_Torsional_Energy-OPLS-2005>
243.421157836914

> <r_mmod_Improper_Torsional_Energy-OPLS-2005>
2.2688250541687

> <r_mmod_Van_der_Waal_Energy-OPLS-2005>
182.115478515625

> <r_mmod_Electrostatic_Energy-OPLS-2005>
-529.798645019531

> <r_mmod_Solvation_Energy-OPLS-2005>
-473.816925048828

> <b_mmod_Minimization_Converged-OPLS-2005>
0

> <r_mmod_RMS_Derivative-OPLS-2005>
4.34614229202271

$$$$
58
                    3D
 Structure written by MMmdl.
177187  0  0  1  0            999 V2000
  -30.7455  -14.4528   20.6272 C   0  0  0  0  0  0
  -30.4085  -12.3297   19.3987 C   0  0  0  0  0  0
  -29.4759  -12.5391   18.1915 C   0  0  0  0  0  0
  -28.0062  -12.3684   18.6142 C   0  0  0  0  0  0
  -27.6561  -13.2031   19.8716 C   0  0  2  0  0  0
  -28.7026  -12.9783   20.9896 C   0  0  0  0  0  0
  -25.2552  -13.8152   20.5649 C   0  0  0  0  0  0
  -24.1810  -13.0440   20.9168 C   0  0  0  0  0  0
  -24.6366  -11.6907   20.8731 C   0  0  0  0  0  0
  -23.9035  -10.4284   21.0404 C   0  0  0  0  0  0
  -24.3603   -9.4219   21.9180 C   0  0  0  0  0  0
  -23.6298   -8.2251   22.0745 C   0  0  0  0  0  0
  -22.4279   -8.0261   21.3556 C   0  0  0  0  0  0
  -21.9898   -9.0219   20.4660 C   0  0  0  0  0  0
  -22.7218  -10.2099   20.3051 C   0  0  0  0  0  0
  -21.6874   -6.0716   22.5297 C   0  0  0  0  0  0
  -21.4025   -6.5630   23.8228 C   0  0  0  0  0  0
  -21.3648   -5.6788   24.9201 C   0  0  0  0  0  0
  -21.6034   -4.3046   24.7261 C   0  0  0  0  0  0
  -21.8820   -3.8128   23.4390 C   0  0  0  0  0  0
  -21.9210   -4.6936   22.3435 C   0  0  0  0  0  0
  -22.7838  -13.5241   21.1834 C   0  0  0  0  0  0
  -22.1673   -4.2119   21.1012 F   0  0  0  0  0  0
  -21.5624   -3.4523   25.7787 F   0  0  0  0  0  0
  -30.0323  -13.3025   20.4445 N   0  0  0  0  0  0
  -26.2989  -12.9319   20.3364 N   0  0  0  0  0  0
  -25.9288  -11.6487   20.5740 N   0  0  0  0  0  0
  -22.0477  -12.8232   22.0386 N   0  0  0  0  0  0
  -25.4263  -15.1858   20.3989 N   0  0  0  0  0  0
  -31.8156  -14.6481   20.0408 O   0  0  0  0  0  0
  -21.6659   -6.8840   21.4245 O   0  0  0  0  0  0
  -22.3532  -14.5549   20.6693 O   0  0  0  0  0  0
  -24.6120  -31.8654   23.2068 C   0  0  0  0  0  0
  -25.9030  -32.4800   23.8354 C   0  0  1  0  0  0
  -27.2470  -27.4460   20.0840 C   0  0  0  0  0  0
  -25.5897  -33.8597   24.2288 N   0  0  0  0  0  0
  -23.4000  -30.4866   21.5445 C   0  0  2  0  0  0
  -24.8518  -28.9509   20.1058 C   0  0  0  0  0  0
  -22.7391  -29.4638   22.4964 C   0  0  0  0  0  0
  -18.0256  -28.1376   22.8485 C   0  0  0  0  0  0
  -24.1488  -36.7307   23.2634 C   0  0  0  0  0  0
  -25.9261  -30.8312   21.3600 C   0  0  0  0  0  0
  -26.0052  -29.4651   20.7105 C   0  0  0  0  0  0
  -27.2001  -28.7107   20.7115 C   0  0  0  0  0  0
  -26.0801  -26.9414   19.4726 C   0  0  0  0  0  0
  -24.8831  -27.6870   19.4869 C   0  0  0  0  0  0
  -23.6089  -29.8111   20.1596 C   0  0  0  0  0  0
  -25.4110  -36.3093   24.0326 C   0  0  1  0  0  0
  -20.5845  -28.3646   23.1334 C   0  0  2  0  0  0
  -20.6752  -26.9385   22.5427 C   0  0  0  0  0  0
  -19.5742  -26.6378   21.5211 C   0  0  0  0  0  0
  -18.1916  -26.7929   22.1607 C   0  0  0  0  0  0
  -19.1506  -28.8826   23.2907 C   0  0  0  0  0  0
  -18.9441  -30.1440   23.8910 C   0  0  0  0  0  0
  -17.6447  -30.6583   24.0561 C   0  0  0  0  0  0
  -25.9032  -34.9467   23.5100 C   0  0  0  0  0  0
  -16.5329  -29.9083   23.6331 C   0  0  0  0  0  0
  -16.7251  -28.6500   23.0339 C   0  0  0  0  0  0
  -26.4478  -31.6579   25.0687 C   0  0  0  0  0  0
  -25.3754  -31.3702   26.1444 C   0  0  0  0  0  0
  -27.0296  -30.3016   24.6077 C   0  0  0  0  0  0
  -27.6044  -32.4306   25.7471 C   0  0  0  0  0  0
  -27.5579  -37.1800   24.8458 C   0  0  0  0  0  0
  -21.4115  -29.3011   22.3724 N   0  0  0  0  0  0
  -26.4287  -37.3792   23.9411 N   0  0  0  0  0  0
  -24.6637  -31.0756   22.0969 N   0  0  0  0  0  0
  -23.4172  -28.8190   23.3005 O   0  0  0  0  0  0
  -28.4126  -26.7141   20.1469 O   0  0  0  0  0  0
  -26.5587  -34.8932   22.4657 O   0  0  0  0  0  0
  -23.5327  -32.1393   23.7488 O   0  0  0  0  0  0
  -30.3263  -18.0174   20.3123 C   0  0  0  0  0  0
  -30.3463  -19.3035   19.7331 C   0  0  0  0  0  0
  -29.1920  -17.5495   21.0128 C   0  0  0  0  0  0
  -28.0607  -18.4123   21.1157 C   0  0  0  0  0  0
  -28.0638  -19.6913   20.4867 C   0  0  0  0  0  0
  -29.2169  -20.1507   19.8025 C   0  0  0  0  0  0
  -31.1965  -22.9510   19.5437 C   0  0  0  0  0  0
  -31.1794  -23.8315   18.2892 C   0  0  0  0  0  0
  -29.1826  -22.7459   17.0486 C   0  0  0  0  0  0
  -28.9058  -23.7596   20.1350 C   0  0  0  0  0  0
  -29.4873  -21.4079   17.7562 C   0  0  0  0  0  0
  -29.8118  -22.4977   20.0429 C   0  0  1  0  0  0
  -29.7390  -24.0249   17.7301 C   0  0  1  0  0  0
  -28.7645  -24.5734   18.8156 C   0  0  2  0  0  0
  -26.8128  -17.9989   21.9000 C   0  0  0  0  0  0
  -26.8127  -20.5688   20.5489 C   0  0  0  0  0  0
  -31.4069  -15.7603   22.5557 C   0  0  0  0  0  0
  -29.1490  -16.1280   21.6179 C   0  0  0  0  0  0
  -28.9311  -26.1186   18.9569 C   0  0  0  0  0  0
  -29.2296  -21.4311   19.2020 N   0  0  0  0  0  0
  -30.3716  -15.2934   21.6268 N   0  0  0  0  0  0
  -32.2604  -22.6264   20.0743 O   0  0  0  0  0  0
  -31.4501  -12.4197   19.0860 H   0  0  0  0  0  0
  -30.3027  -11.3120   19.7787 H   0  0  0  0  0  0
  -29.7177  -11.8343   17.3942 H   0  0  0  0  0  0
  -29.6240  -13.5361   17.7748 H   0  0  0  0  0  0
  -27.8371  -11.3105   18.8124 H   0  0  0  0  0  0
  -27.3412  -12.6281   17.7891 H   0  0  0  0  0  0
  -27.6917  -14.2433   19.5552 H   0  0  0  0  0  0
  -28.6869  -11.9347   21.3063 H   0  0  0  0  0  0
  -28.4600  -13.5440   21.8891 H   0  0  0  0  0  0
  -25.2755   -9.5727   22.4735 H   0  0  0  0  0  0
  -24.0037   -7.4651   22.7463 H   0  0  0  0  0  0
  -21.0817   -8.8708   19.8981 H   0  0  0  0  0  0
  -22.3667  -10.9598   19.6126 H   0  0  0  0  0  0
  -21.2003   -7.6136   23.9729 H   0  0  0  0  0  0
  -21.1466   -6.0520   25.9098 H   0  0  0  0  0  0
  -22.0609   -2.7586   23.2923 H   0  0  0  0  0  0
  -22.4113  -11.9936   22.4855 H   0  0  0  0  0  0
  -21.1076  -13.1215   22.2555 H   0  0  0  0  0  0
  -24.6541  -15.8349   20.4917 H   0  0  0  0  0  0
  -26.2751  -15.6214   20.0645 H   0  0  0  0  0  0
  -26.7097  -32.5516   23.1112 H   0  0  0  0  0  0
  -25.0076  -33.9763   25.0449 H   0  0  0  0  0  0
  -22.6890  -31.3039   21.4015 H   0  0  0  0  0  0
  -23.3759  -35.9629   23.3281 H   0  0  0  0  0  0
  -24.3586  -36.8944   22.2053 H   0  0  0  0  0  0
  -23.7240  -37.6503   23.6666 H   0  0  0  0  0  0
  -26.0366  -31.5975   20.5908 H   0  0  0  0  0  0
  -26.8138  -30.8843   21.9784 H   0  0  0  0  0  0
  -28.0864  -29.0994   21.1931 H   0  0  0  0  0  0
  -26.0848  -25.9670   19.0058 H   0  0  0  0  0  0
  -23.9943  -27.2847   19.0182 H   0  0  0  0  0  0
  -23.7036  -30.5793   19.3914 H   0  0  0  0  0  0
  -22.7359  -29.2204   19.8740 H   0  0  0  0  0  0
  -25.1297  -36.1930   25.0819 H   0  0  0  0  0  0
  -20.9953  -28.3195   24.1454 H   0  0  0  0  0  0
  -20.5641  -26.2253   23.3599 H   0  0  0  0  0  0
  -21.6624  -26.7422   22.1229 H   0  0  0  0  0  0
  -19.6910  -25.6295   21.1234 H   0  0  0  0  0  0
  -19.6717  -27.3194   20.6754 H   0  0  0  0  0  0
  -17.4208  -26.6684   21.3987 H   0  0  0  0  0  0
  -18.0294  -26.0049   22.8974 H   0  0  0  0  0  0
  -19.7934  -30.7239   24.2272 H   0  0  0  0  0  0
  -17.5017  -31.6273   24.5143 H   0  0  0  0  0  0
  -15.5334  -30.2983   23.7678 H   0  0  0  0  0  0
  -15.8645  -28.0841   22.7034 H   0  0  0  0  0  0
  -24.5944  -30.7026   25.7797 H   0  0  0  0  0  0
  -24.8940  -32.2864   26.4866 H   0  0  0  0  0  0
  -25.8126  -30.8903   27.0208 H   0  0  0  0  0  0
  -26.2826  -29.6775   24.1166 H   0  0  0  0  0  0
  -27.4081  -29.7262   25.4534 H   0  0  0  0  0  0
  -27.8661  -30.4303   23.9205 H   0  0  0  0  0  0
  -27.2653  -33.3604   26.2052 H   0  0  0  0  0  0
  -28.3883  -32.6859   25.0323 H   0  0  0  0  0  0
  -28.0684  -31.8421   26.5400 H   0  0  0  0  0  0
  -28.2585  -38.0108   24.7515 H   0  0  0  0  0  0
  -28.1083  -36.2642   24.6259 H   0  0  0  0  0  0
  -27.2303  -37.1416   25.8861 H   0  0  0  0  0  0
  -20.9255  -29.8733   21.6967 H   0  0  0  0  0  0
  -26.0164  -38.2861   24.1432 H   0  0  0  0  0  0
  -31.2027  -17.3964   20.2045 H   0  0  0  0  0  0
  -31.2394  -19.6302   19.2200 H   0  0  0  0  0  0
  -31.8273  -23.3837   17.5364 H   0  0  0  0  0  0
  -31.6163  -24.7941   18.5542 H   0  0  0  0  0  0
  -28.1089  -22.8460   16.8827 H   0  0  0  0  0  0
  -29.6097  -22.6809   16.0465 H   0  0  0  0  0  0
  -29.3181  -24.4081   20.9103 H   0  0  0  0  0  0
  -27.9174  -23.4799   20.4997 H   0  0  0  0  0  0
  -30.5242  -21.1263   17.5636 H   0  0  0  0  0  0
  -28.8890  -20.6215   17.2921 H   0  0  0  0  0  0
  -29.9325  -22.1061   21.0535 H   0  0  0  0  0  0
  -29.7931  -24.7748   16.9400 H   0  0  0  0  0  0
  -27.7444  -24.4196   18.4632 H   0  0  0  0  0  0
  -26.9041  -17.0751   22.4622 H   0  0  0  0  0  0
  -25.9646  -17.8747   21.2276 H   0  0  0  0  0  0
  -26.5581  -18.7675   22.6299 H   0  0  0  0  0  0
  -25.9101  -19.9852   20.3678 H   0  0  0  0  0  0
  -26.8019  -21.3610   19.8011 H   0  0  0  0  0  0
  -26.7311  -21.0342   21.5297 H   0  0  0  0  0  0
  -30.9892  -16.3450   23.3764 H   0  0  0  0  0  0
  -32.1575  -16.3738   22.0529 H   0  0  0  0  0  0
  -31.9175  -14.9031   22.9976 H   0  0  0  0  0  0
  -28.3424  -15.6174   21.1064 H   0  0  0  0  0  0
  -28.8333  -16.2024   22.6592 H   0  0  0  0  0  0
  -28.5396  -26.6220   18.0715 H   0  0  0  0  0  0
  -29.9945  -26.3564   18.9678 H   0  0  0  0  0  0
  1 25  1  0  0  0
  1 30  2  0  0  0
  1 91  1  0  0  0
  2  3  1  0  0  0
  2 25  1  0  0  0
  2 93  1  0  0  0
  2 94  1  0  0  0
  3  4  1  0  0  0
  3 95  1  0  0  0
  3 96  1  0  0  0
  4  5  1  0  0  0
  4 97  1  0  0  0
  4 98  1  0  0  0
  5  6  1  0  0  0
  5 26  1  0  0  0
  5 99  1  0  0  0
  6 25  1  0  0  0
  6100  1  0  0  0
  6101  1  0  0  0
  7  8  2  0  0  0
  7 26  1  0  0  0
  7 29  1  0  0  0
  8  9  1  0  0  0
  8 22  1  0  0  0
  9 10  1  0  0  0
  9 27  2  0  0  0
 10 11  2  0  0  0
 10 15  1  0  0  0
 11 12  1  0  0  0
 11102  1  0  0  0
 12 13  2  0  0  0
 12103  1  0  0  0
 13 14  1  0  0  0
 13 31  1  0  0  0
 14 15  2  0  0  0
 14104  1  0  0  0
 15105  1  0  0  0
 16 17  2  0  0  0
 16 21  1  0  0  0
 16 31  1  0  0  0
 17 18  1  0  0  0
 17106  1  0  0  0
 18 19  2  0  0  0
 18107  1  0  0  0
 19 20  1  0  0  0
 19 24  1  0  0  0
 20 21  2  0  0  0
 20108  1  0  0  0
 21 23  1  0  0  0
 22 28  1  0  0  0
 22 32  2  0  0  0
 26 27  1  0  0  0
 28109  1  0  0  0
 28110  1  0  0  0
 29111  1  0  0  0
 29112  1  0  0  0
 33 34  1  0  0  0
 33 66  1  0  0  0
 33 70  2  0  0  0
 34 36  1  0  0  0
 34 59  1  0  0  0
 34113  1  0  0  0
 35 44  2  0  0  0
 35 45  1  0  0  0
 35 68  1  0  0  0
 36 56  1  0  0  0
 36114  1  0  0  0
 37 39  1  0  0  0
 37 47  1  0  0  0
 37 66  1  0  0  0
 37115  1  0  0  0
 38 43  2  0  0  0
 38 46  1  0  0  0
 38 47  1  0  0  0
 39 64  1  0  0  0
 39 67  2  0  0  0
 40 52  1  0  0  0
 40 53  2  0  0  0
 40 58  1  0  0  0
 41116  1  0  0  0
 41117  1  0  0  0
 41118  1  0  0  0
 41 48  1  0  0  0
 42 43  1  0  0  0
 42 66  1  0  0  0
 42119  1  0  0  0
 42120  1  0  0  0
 43 44  1  0  0  0
 44121  1  0  0  0
 45 46  2  0  0  0
 45122  1  0  0  0
 46123  1  0  0  0
 47124  1  0  0  0
 47125  1  0  0  0
 48 56  1  0  0  0
 48 65  1  0  0  0
 48126  1  0  0  0
 49 50  1  0  0  0
 49 53  1  0  0  0
 49 64  1  0  0  0
 49127  1  0  0  0
 50 51  1  0  0  0
 50128  1  0  0  0
 50129  1  0  0  0
 51 52  1  0  0  0
 51130  1  0  0  0
 51131  1  0  0  0
 52132  1  0  0  0
 52133  1  0  0  0
 53 54  1  0  0  0
 54 55  2  0  0  0
 54134  1  0  0  0
 55 57  1  0  0  0
 55135  1  0  0  0
 56 69  2  0  0  0
 57 58  2  0  0  0
 57136  1  0  0  0
 58137  1  0  0  0
 59 60  1  0  0  0
 59 61  1  0  0  0
 59 62  1  0  0  0
 60138  1  0  0  0
 60139  1  0  0  0
 60140  1  0  0  0
 61141  1  0  0  0
 61142  1  0  0  0
 61143  1  0  0  0
 62144  1  0  0  0
 62145  1  0  0  0
 62146  1  0  0  0
 63 65  1  0  0  0
 63147  1  0  0  0
 63148  1  0  0  0
 63149  1  0  0  0
 64150  1  0  0  0
 65151  1  0  0  0
 68 89  1  0  0  0
 71 72  2  0  0  0
 71 73  1  0  0  0
 71152  1  0  0  0
 72 76  1  0  0  0
 72153  1  0  0  0
 73 74  2  0  0  0
 73 88  1  0  0  0
 74 75  1  0  0  0
 74 85  1  0  0  0
 75 76  2  0  0  0
 75 86  1  0  0  0
 76 90  1  0  0  0
 77 78  1  0  0  0
 77 82  1  0  0  0
 77 92  2  0  0  0
 78154  1  0  0  0
 78155  1  0  0  0
 78 83  1  0  0  0
 79 81  1  0  0  0
 79 83  1  0  0  0
 79156  1  0  0  0
 79157  1  0  0  0
 80 84  1  0  0  0
 80158  1  0  0  0
 80159  1  0  0  0
 80 82  1  0  0  0
 81 90  1  0  0  0
 81160  1  0  0  0
 81161  1  0  0  0
 82 90  1  0  0  0
 82162  1  0  0  0
 83 84  1  0  0  0
 83163  1  0  0  0
 84 89  1  0  0  0
 84164  1  0  0  0
 85165  1  0  0  0
 85166  1  0  0  0
 85167  1  0  0  0
 86168  1  0  0  0
 86169  1  0  0  0
 86170  1  0  0  0
 87 91  1  0  0  0
 87171  1  0  0  0
 87172  1  0  0  0
 87173  1  0  0  0
 88 91  1  0  0  0
 88174  1  0  0  0
 88175  1  0  0  0
 89176  1  0  0  0
 89177  1  0  0  0
M  ISO  4   1 100  68 101  89 101  91 100
M  END
> <chiral flag>
0

> <version>
0

> <s_m_source_file>
/data/baiqing/PycharmProjects/Reinvent-master-3.2/result/LINK_invent/BTK/process_docking_weight1_custom_product_contain_oxygen_bond_distance_aromatic_linkinvent_7_9_3/rearranged_h_0058.sdf

> <i_m_source_file_index>
59

> <r_mmod_Potential_Energy-OPLS-2005>
190.671142578125

> <r_mmod_Stretch_Energy-OPLS-2005>
49.9843406677246

> <r_mmod_Bend_Energy-OPLS-2005>
127.889953613281

> <r_mmod_Torsional_Energy-OPLS-2005>
350.222442626953

> <r_mmod_Improper_Torsional_Energy-OPLS-2005>
8.72853660583496

> <r_mmod_Van_der_Waal_Energy-OPLS-2005>
177.937286376953

> <r_mmod_Electrostatic_Energy-OPLS-2005>
-332.824035644531

> <r_mmod_Solvation_Energy-OPLS-2005>
-203.093856811523

> <b_mmod_Minimization_Converged-OPLS-2005>
0

> <r_mmod_RMS_Derivative-OPLS-2005>
3.2688045501709

$$$$
59
                    3D
 Structure written by MMmdl.
156164  0  0  1  0            999 V2000
  -30.7148  -14.4423   20.5025 C   0  0  0  0  0  0
  -30.4177  -12.2616   19.4238 C   0  0  0  0  0  0
  -29.4923  -12.4717   18.2062 C   0  0  0  0  0  0
  -28.0108  -12.3422   18.6167 C   0  0  0  0  0  0
  -27.6547  -13.1868   19.8683 C   0  0  2  0  0  0
  -28.7045  -13.0032   20.9873 C   0  0  0  0  0  0
  -25.2584  -13.8080   20.5757 C   0  0  0  0  0  0
  -24.1810  -13.0380   20.9176 C   0  0  0  0  0  0
  -24.6352  -11.6848   20.8731 C   0  0  0  0  0  0
  -23.9021  -10.4257   21.0407 C   0  0  0  0  0  0
  -24.3586   -9.4183   21.9186 C   0  0  0  0  0  0
  -23.6268   -8.2219   22.0754 C   0  0  0  0  0  0
  -22.4252   -8.0258   21.3541 C   0  0  0  0  0  0
  -21.9879   -9.0229   20.4644 C   0  0  0  0  0  0
  -22.7199  -10.2109   20.3052 C   0  0  0  0  0  0
  -21.6842   -6.0723   22.5279 C   0  0  0  0  0  0
  -21.4009   -6.5633   23.8212 C   0  0  0  0  0  0
  -21.3658   -5.6788   24.9177 C   0  0  0  0  0  0
  -21.6046   -4.3052   24.7227 C   0  0  0  0  0  0
  -21.8821   -3.8139   23.4350 C   0  0  0  0  0  0
  -21.9189   -4.6952   22.3403 C   0  0  0  0  0  0
  -22.7845  -13.5211   21.1843 C   0  0  0  0  0  0
  -22.1658   -4.2139   21.0979 F   0  0  0  0  0  0
  -21.5631   -3.4538   25.7740 F   0  0  0  0  0  0
  -30.0449  -13.2601   20.4322 N   0  0  0  0  0  0
  -26.2992  -12.9213   20.3391 N   0  0  0  0  0  0
  -25.9268  -11.6392   20.5771 N   0  0  0  0  0  0
  -22.0481  -12.8217   22.0403 N   0  0  0  0  0  0
  -25.4299  -15.1805   20.4344 N   0  0  0  0  0  0
  -31.8942  -14.5519   20.1655 O   0  0  0  0  0  0
  -21.6619   -6.8859   21.4238 O   0  0  0  0  0  0
  -22.3545  -14.5528   20.6698 O   0  0  0  0  0  0
  -24.6096  -31.8725   23.2159 C   0  0  0  0  0  0
  -25.9013  -32.4847   23.8431 C   0  0  1  0  0  0
  -27.2394  -27.4786   20.0705 C   0  0  0  0  0  0
  -25.5888  -33.8644   24.2357 N   0  0  0  0  0  0
  -23.3947  -30.4986   21.5556 C   0  0  2  0  0  0
  -24.8389  -28.9717   20.1172 C   0  0  0  0  0  0
  -22.7377  -29.4686   22.5016 C   0  0  0  0  0  0
  -18.0261  -28.1378   22.8499 C   0  0  0  0  0  0
  -24.1484  -36.7335   23.2636 C   0  0  0  0  0  0
  -25.9203  -30.8446   21.3685 C   0  0  0  0  0  0
  -25.9943  -29.4801   20.7217 C   0  0  0  0  0  0
  -27.1884  -28.7313   20.7151 C   0  0  0  0  0  0
  -26.0641  -26.9842   19.4523 C   0  0  0  0  0  0
  -24.8654  -27.7173   19.4876 C   0  0  0  0  0  0
  -23.6001  -29.8344   20.1682 C   0  0  0  0  0  0
  -25.4100  -36.3129   24.0341 C   0  0  1  0  0  0
  -20.5847  -28.3663   23.1332 C   0  0  2  0  0  0
  -20.6756  -26.9405   22.5421 C   0  0  0  0  0  0
  -19.5737  -26.6392   21.5215 C   0  0  0  0  0  0
  -18.1912  -26.7928   22.1624 C   0  0  0  0  0  0
  -19.1509  -28.8834   23.2916 C   0  0  0  0  0  0
  -18.9440  -30.1440   23.8928 C   0  0  0  0  0  0
  -17.6445  -30.6589   24.0568 C   0  0  0  0  0  0
  -25.9023  -34.9490   23.5144 C   0  0  0  0  0  0
  -16.5335  -29.9098   23.6321 C   0  0  0  0  0  0
  -16.7252  -28.6510   23.0350 C   0  0  0  0  0  0
  -26.4456  -31.6612   25.0742 C   0  0  0  0  0  0
  -25.3733  -31.3702   26.1497 C   0  0  0  0  0  0
  -27.0284  -30.3059   24.6099 C   0  0  0  0  0  0
  -27.6046  -32.4321   25.7494 C   0  0  0  0  0  0
  -27.5581  -37.1818   24.8461 C   0  0  0  0  0  0
  -21.4112  -29.3040   22.3746 N   0  0  0  0  0  0
  -26.4294  -37.3805   23.9403 N   0  0  0  0  0  0
  -24.6595  -31.0857   22.1051 N   0  0  0  0  0  0
  -23.4166  -28.8219   23.3039 O   0  0  0  0  0  0
  -28.4448  -26.8098   20.0748 O   0  0  0  0  0  0
  -26.5586  -34.8933   22.4706 O   0  0  0  0  0  0
  -23.5301  -32.1469   23.7575 O   0  0  0  0  0  0
  -26.6469  -18.1521   18.4694 C   0  0  0  0  0  0
  -27.5076  -17.0743   18.7246 C   0  0  0  0  0  0
  -27.0542  -19.4532   18.7942 C   0  0  0  0  0  0
  -28.7571  -17.2766   19.3484 C   0  0  0  0  0  0
  -29.1751  -18.5921   19.6845 C   0  0  0  0  0  0
  -28.3194  -19.6824   19.3842 C   0  0  0  0  0  0
  -29.6095  -16.0929   19.5392 C   0  0  0  0  0  0
  -28.7620  -23.2990   19.5502 C   0  0  0  0  0  0
  -28.0911  -24.4608   19.5505 C   0  0  0  0  0  0
  -28.0689  -22.0778   19.9017 C   0  0  0  0  0  0
  -30.5493  -18.8378   20.3099 C   0  0  0  0  0  0
  -28.6694  -25.7887   19.1131 C   0  0  0  0  0  0
  -29.9075  -15.5526   20.6613 N   0  0  0  0  0  0
  -28.7880  -21.0077   19.5499 N   0  0  0  0  0  0
  -26.9638  -22.0107   20.4490 O   0  0  0  0  0  0
  -31.4644  -12.3341   19.1223 H   0  0  0  0  0  0
  -30.2925  -11.2568   19.8308 H   0  0  0  0  0  0
  -29.7248  -11.7419   17.4297 H   0  0  0  0  0  0
  -29.6713  -13.4514   17.7621 H   0  0  0  0  0  0
  -27.8162  -11.2882   18.8175 H   0  0  0  0  0  0
  -27.3628  -12.6156   17.7830 H   0  0  0  0  0  0
  -27.6737  -14.2227   19.5525 H   0  0  0  0  0  0
  -28.6637  -11.9887   21.3860 H   0  0  0  0  0  0
  -28.4883  -13.6642   21.8286 H   0  0  0  0  0  0
  -25.2734   -9.5665   22.4754 H   0  0  0  0  0  0
  -23.9979   -7.4613   22.7476 H   0  0  0  0  0  0
  -21.0809   -8.8746   19.8952 H   0  0  0  0  0  0
  -22.3661  -10.9650   19.6160 H   0  0  0  0  0  0
  -21.2002   -7.6142   23.9712 H   0  0  0  0  0  0
  -21.1481   -6.0519   25.9079 H   0  0  0  0  0  0
  -22.0603   -2.7601   23.2852 H   0  0  0  0  0  0
  -22.4085  -11.9869   22.4783 H   0  0  0  0  0  0
  -21.1112  -13.1270   22.2630 H   0  0  0  0  0  0
  -24.6708  -15.8356   20.5833 H   0  0  0  0  0  0
  -26.3130  -15.6359   20.2451 H   0  0  0  0  0  0
  -26.7088  -32.5576   23.1205 H   0  0  0  0  0  0
  -25.0033  -33.9814   25.0499 H   0  0  0  0  0  0
  -22.6821  -31.3148   21.4208 H   0  0  0  0  0  0
  -23.3739  -35.9677   23.3312 H   0  0  0  0  0  0
  -24.3579  -36.8936   22.2048 H   0  0  0  0  0  0
  -23.7248  -37.6550   23.6641 H   0  0  0  0  0  0
  -26.0267  -31.6080   20.5964 H   0  0  0  0  0  0
  -26.8113  -30.9005   21.9817 H   0  0  0  0  0  0
  -28.0802  -29.1224   21.1848 H   0  0  0  0  0  0
  -26.0436  -26.0474   18.9195 H   0  0  0  0  0  0
  -23.9795  -27.3232   19.0089 H   0  0  0  0  0  0
  -23.7056  -30.6112   19.4100 H   0  0  0  0  0  0
  -22.7250  -29.2523   19.8737 H   0  0  0  0  0  0
  -25.1274  -36.2004   25.0835 H   0  0  0  0  0  0
  -20.9933  -28.3229   24.1456 H   0  0  0  0  0  0
  -20.5663  -26.2271   23.3602 H   0  0  0  0  0  0
  -21.6629  -26.7460   22.1210 H   0  0  0  0  0  0
  -19.6899  -25.6308   21.1236 H   0  0  0  0  0  0
  -19.6677  -27.3212   20.6751 H   0  0  0  0  0  0
  -17.4181  -26.6680   21.4026 H   0  0  0  0  0  0
  -18.0310  -26.0063   22.9011 H   0  0  0  0  0  0
  -19.7917  -30.7243   24.2320 H   0  0  0  0  0  0
  -17.5004  -31.6272   24.5164 H   0  0  0  0  0  0
  -15.5338  -30.3013   23.7627 H   0  0  0  0  0  0
  -15.8648  -28.0838   22.7056 H   0  0  0  0  0  0
  -24.5918  -30.7031   25.7841 H   0  0  0  0  0  0
  -24.8906  -32.2847   26.4952 H   0  0  0  0  0  0
  -25.8098  -30.8877   27.0252 H   0  0  0  0  0  0
  -26.2823  -29.6829   24.1151 H   0  0  0  0  0  0
  -27.4059  -29.7282   25.4548 H   0  0  0  0  0  0
  -27.8657  -30.4386   23.9243 H   0  0  0  0  0  0
  -27.2679  -33.3610   26.2112 H   0  0  0  0  0  0
  -28.3831  -32.6897   25.0300 H   0  0  0  0  0  0
  -28.0745  -31.8421   26.5374 H   0  0  0  0  0  0
  -28.2605  -38.0109   24.7502 H   0  0  0  0  0  0
  -28.1068  -36.2641   24.6292 H   0  0  0  0  0  0
  -27.2300  -37.1477   25.8865 H   0  0  0  0  0  0
  -20.9256  -29.8771   21.6988 H   0  0  0  0  0  0
  -26.0193  -38.2889   24.1400 H   0  0  0  0  0  0
  -25.6891  -17.9844   17.9964 H   0  0  0  0  0  0
  -27.1967  -16.0845   18.4218 H   0  0  0  0  0  0
  -26.3990  -20.2751   18.5415 H   0  0  0  0  0  0
  -29.9649  -15.6760   18.5884 H   0  0  0  0  0  0
  -29.8034  -23.2796   19.2608 H   0  0  0  0  0  0
  -27.0558  -24.4651   19.8568 H   0  0  0  0  0  0
  -30.7764  -18.1013   21.0797 H   0  0  0  0  0  0
  -30.6252  -19.8074   20.8000 H   0  0  0  0  0  0
  -31.3262  -18.7838   19.5470 H   0  0  0  0  0  0
  -28.2693  -26.0689   18.1375 H   0  0  0  0  0  0
  -29.7464  -25.6855   18.9777 H   0  0  0  0  0  0
  -29.7450  -21.1807   19.2790 H   0  0  0  0  0  0
  1 25  1  0  0  0
  1 30  2  0  0  0
  1 83  1  0  0  0
  2  3  1  0  0  0
  2 25  1  0  0  0
  2 86  1  0  0  0
  2 87  1  0  0  0
  3  4  1  0  0  0
  3 88  1  0  0  0
  3 89  1  0  0  0
  4  5  1  0  0  0
  4 90  1  0  0  0
  4 91  1  0  0  0
  5  6  1  0  0  0
  5 26  1  0  0  0
  5 92  1  0  0  0
  6 25  1  0  0  0
  6 93  1  0  0  0
  6 94  1  0  0  0
  7  8  2  0  0  0
  7 26  1  0  0  0
  7 29  1  0  0  0
  8  9  1  0  0  0
  8 22  1  0  0  0
  9 10  1  0  0  0
  9 27  2  0  0  0
 10 11  2  0  0  0
 10 15  1  0  0  0
 11 12  1  0  0  0
 11 95  1  0  0  0
 12 13  2  0  0  0
 12 96  1  0  0  0
 13 14  1  0  0  0
 13 31  1  0  0  0
 14 15  2  0  0  0
 14 97  1  0  0  0
 15 98  1  0  0  0
 16 17  2  0  0  0
 16 21  1  0  0  0
 16 31  1  0  0  0
 17 18  1  0  0  0
 17 99  1  0  0  0
 18 19  2  0  0  0
 18100  1  0  0  0
 19 20  1  0  0  0
 19 24  1  0  0  0
 20 21  2  0  0  0
 20101  1  0  0  0
 21 23  1  0  0  0
 22 28  1  0  0  0
 22 32  2  0  0  0
 26 27  1  0  0  0
 28102  1  0  0  0
 28103  1  0  0  0
 29104  1  0  0  0
 29105  1  0  0  0
 33 34  1  0  0  0
 33 66  1  0  0  0
 33 70  2  0  0  0
 34 36  1  0  0  0
 34 59  1  0  0  0
 34106  1  0  0  0
 35 44  2  0  0  0
 35 45  1  0  0  0
 35 68  1  0  0  0
 36 56  1  0  0  0
 36107  1  0  0  0
 37 39  1  0  0  0
 37 47  1  0  0  0
 37 66  1  0  0  0
 37108  1  0  0  0
 38 43  2  0  0  0
 38 46  1  0  0  0
 38 47  1  0  0  0
 39 64  1  0  0  0
 39 67  2  0  0  0
 40 52  1  0  0  0
 40 53  2  0  0  0
 40 58  1  0  0  0
 41109  1  0  0  0
 41110  1  0  0  0
 41111  1  0  0  0
 41 48  1  0  0  0
 42 43  1  0  0  0
 42 66  1  0  0  0
 42112  1  0  0  0
 42113  1  0  0  0
 43 44  1  0  0  0
 44114  1  0  0  0
 45 46  2  0  0  0
 45115  1  0  0  0
 46116  1  0  0  0
 47117  1  0  0  0
 47118  1  0  0  0
 48 56  1  0  0  0
 48 65  1  0  0  0
 48119  1  0  0  0
 49 50  1  0  0  0
 49 53  1  0  0  0
 49 64  1  0  0  0
 49120  1  0  0  0
 50 51  1  0  0  0
 50121  1  0  0  0
 50122  1  0  0  0
 51 52  1  0  0  0
 51123  1  0  0  0
 51124  1  0  0  0
 52125  1  0  0  0
 52126  1  0  0  0
 53 54  1  0  0  0
 54 55  2  0  0  0
 54127  1  0  0  0
 55 57  1  0  0  0
 55128  1  0  0  0
 56 69  2  0  0  0
 57 58  2  0  0  0
 57129  1  0  0  0
 58130  1  0  0  0
 59 60  1  0  0  0
 59 61  1  0  0  0
 59 62  1  0  0  0
 60131  1  0  0  0
 60132  1  0  0  0
 60133  1  0  0  0
 61134  1  0  0  0
 61135  1  0  0  0
 61136  1  0  0  0
 62137  1  0  0  0
 62138  1  0  0  0
 62139  1  0  0  0
 63 65  1  0  0  0
 63140  1  0  0  0
 63141  1  0  0  0
 63142  1  0  0  0
 64143  1  0  0  0
 65144  1  0  0  0
 68 82  1  0  0  0
 71 72  2  0  0  0
 71 73  1  0  0  0
 71145  1  0  0  0
 72 74  1  0  0  0
 72146  1  0  0  0
 73 76  2  0  0  0
 73147  1  0  0  0
 74 75  2  0  0  0
 74 77  1  0  0  0
 75 76  1  0  0  0
 75 81  1  0  0  0
 76 84  1  0  0  0
 77 83  2  0  0  0
 77148  1  0  0  0
 78 79  2  0  0  0
 78 80  1  0  0  0
 78149  1  0  0  0
 79 82  1  0  0  0
 79150  1  0  0  0
 80 84  1  0  0  0
 80 85  2  0  0  0
 81151  1  0  0  0
 81152  1  0  0  0
 81153  1  0  0  0
 82154  1  0  0  0
 82155  1  0  0  0
 84156  1  0  0  0
M  ISO  4   1 100  68 101  82 101  83 100
M  END
> <chiral flag>
0

> <version>
0

> <s_m_source_file>
/data/baiqing/PycharmProjects/Reinvent-master-3.2/result/LINK_invent/BTK/process_docking_weight1_custom_product_contain_oxygen_bond_distance_aromatic_linkinvent_7_9_3/rearranged_h_0058.sdf

> <i_m_source_file_index>
60

> <r_mmod_Potential_Energy-OPLS-2005>
-59.9131546020508

> <r_mmod_Stretch_Energy-OPLS-2005>
32.5373077392578

> <r_mmod_Bend_Energy-OPLS-2005>
93.3905563354492

> <r_mmod_Torsional_Energy-OPLS-2005>
219.858612060547

> <r_mmod_Improper_Torsional_Energy-OPLS-2005>
8.91067218780518

> <r_mmod_Van_der_Waal_Energy-OPLS-2005>
179.90185546875

> <r_mmod_Electrostatic_Energy-OPLS-2005>
-403.859100341797

> <r_mmod_Solvation_Energy-OPLS-2005>
-207.473617553711

> <b_mmod_Minimization_Converged-OPLS-2005>
0

> <r_mmod_RMS_Derivative-OPLS-2005>
0.680563509464264

$$$$
60
                    3D
 Structure written by MMmdl.
163171  0  0  1  0            999 V2000
  -30.6211  -14.5449   20.5750 C   0  0  0  0  0  0
  -30.4419  -12.3534   19.4261 C   0  0  0  0  0  0
  -29.5073  -12.5104   18.2052 C   0  0  0  0  0  0
  -28.0272  -12.3478   18.6161 C   0  0  0  0  0  0
  -27.6545  -13.1971   19.8612 C   0  0  2  0  0  0
  -28.6929  -12.9826   20.9831 C   0  0  0  0  0  0
  -25.2558  -13.8110   20.5645 C   0  0  0  0  0  0
  -24.1809  -13.0402   20.9163 C   0  0  0  0  0  0
  -24.6359  -11.6865   20.8702 C   0  0  0  0  0  0
  -23.9021  -10.4264   21.0371 C   0  0  0  0  0  0
  -24.3590   -9.4199   21.9159 C   0  0  0  0  0  0
  -23.6283   -8.2228   22.0744 C   0  0  0  0  0  0
  -22.4260   -8.0256   21.3543 C   0  0  0  0  0  0
  -21.9881   -9.0213   20.4635 C   0  0  0  0  0  0
  -22.7199  -10.2096   20.3026 C   0  0  0  0  0  0
  -21.6837   -6.0713   22.5276 C   0  0  0  0  0  0
  -21.4011   -6.5618   23.8212 C   0  0  0  0  0  0
  -21.3674   -5.6774   24.9176 C   0  0  0  0  0  0
  -21.6044   -4.3037   24.7221 C   0  0  0  0  0  0
  -21.8830   -3.8126   23.4345 C   0  0  0  0  0  0
  -21.9199   -4.6943   22.3405 C   0  0  0  0  0  0
  -22.7848  -13.5217   21.1860 C   0  0  0  0  0  0
  -22.1661   -4.2127   21.0977 F   0  0  0  0  0  0
  -21.5638   -3.4529   25.7741 F   0  0  0  0  0  0
  -30.0150  -13.3321   20.4376 N   0  0  0  0  0  0
  -26.2966  -12.9257   20.3249 N   0  0  0  0  0  0
  -25.9267  -11.6435   20.5664 N   0  0  0  0  0  0
  -22.0481  -12.8210   22.0413 N   0  0  0  0  0  0
  -25.4250  -15.1848   20.4091 N   0  0  0  0  0  0
  -31.7772  -14.7616   20.1974 O   0  0  0  0  0  0
  -21.6634   -6.8848   21.4236 O   0  0  0  0  0  0
  -22.3540  -14.5532   20.6722 O   0  0  0  0  0  0
  -24.6216  -31.8659   23.2050 C   0  0  0  0  0  0
  -25.9086  -32.4831   23.8371 C   0  0  1  0  0  0
  -27.2193  -27.3798   20.1144 C   0  0  0  0  0  0
  -25.5960  -33.8644   24.2310 N   0  0  0  0  0  0
  -23.4125  -30.4888   21.5470 C   0  0  2  0  0  0
  -24.8549  -28.9524   20.1102 C   0  0  0  0  0  0
  -22.7448  -29.4642   22.4959 C   0  0  0  0  0  0
  -18.0262  -28.1361   22.8468 C   0  0  0  0  0  0
  -24.1483  -36.7287   23.2636 C   0  0  0  0  0  0
  -25.9489  -30.8168   21.3679 C   0  0  0  0  0  0
  -26.0209  -29.4490   20.7097 C   0  0  0  0  0  0
  -27.2095  -28.6736   20.6985 C   0  0  0  0  0  0
  -26.0387  -26.9175   19.4984 C   0  0  0  0  0  0
  -24.8632  -27.6903   19.4935 C   0  0  0  0  0  0
  -23.6213  -29.8257   20.1602 C   0  0  0  0  0  0
  -25.4118  -36.3129   24.0327 C   0  0  1  0  0  0
  -20.5864  -28.3677   23.1290 C   0  0  2  0  0  0
  -20.6751  -26.9412   22.5409 C   0  0  0  0  0  0
  -19.5729  -26.6375   21.5206 C   0  0  0  0  0  0
  -18.1904  -26.7899   22.1607 C   0  0  0  0  0  0
  -19.1518  -28.8824   23.2868 C   0  0  0  0  0  0
  -18.9452  -30.1418   23.8896 C   0  0  0  0  0  0
  -17.6456  -30.6567   24.0554 C   0  0  0  0  0  0
  -25.9055  -34.9501   23.5102 C   0  0  0  0  0  0
  -16.5341  -29.9073   23.6315 C   0  0  0  0  0  0
  -16.7250  -28.6484   23.0341 C   0  0  0  0  0  0
  -26.4475  -31.6624   25.0715 C   0  0  0  0  0  0
  -25.3701  -31.3748   26.1419 C   0  0  0  0  0  0
  -27.0319  -30.3065   24.6127 C   0  0  0  0  0  0
  -27.6056  -32.4350   25.7466 C   0  0  0  0  0  0
  -27.5565  -37.1802   24.8467 C   0  0  0  0  0  0
  -21.4161  -29.3060   22.3725 N   0  0  0  0  0  0
  -26.4288  -37.3819   23.9415 N   0  0  0  0  0  0
  -24.6801  -31.0722   22.0979 N   0  0  0  0  0  0
  -23.4206  -28.8174   23.3007 O   0  0  0  0  0  0
  -28.3518  -26.5795   20.1380 O   0  0  0  0  0  0
  -26.5599  -34.8957   22.4652 O   0  0  0  0  0  0
  -23.5394  -32.1420   23.7402 O   0  0  0  0  0  0
  -30.4639  -18.3609   23.2768 C   0  0  0  0  0  0
  -30.3571  -17.0598   22.7499 C   0  0  0  0  0  0
  -29.7786  -18.0180   20.5902 C   0  0  0  0  0  0
  -29.9065  -19.3521   21.0976 C   0  0  0  0  0  0
  -30.2557  -19.5054   22.4738 C   0  0  0  0  0  0
  -30.0205  -16.8692   21.3969 C   0  0  0  0  0  0
  -29.8339  -20.5313   20.1259 C   0  0  0  0  0  0
  -30.4550  -20.8627   23.1394 C   0  0  0  0  0  0
  -27.1904  -23.2285   19.2061 C   0  0  0  0  0  0
  -28.9096  -24.7230   18.1920 C   0  0  0  0  0  0
  -29.6279  -23.0413   19.9297 C   0  0  0  0  0  0
  -28.1809  -25.1878   20.5620 C   0  0  0  0  0  0
  -28.4706  -24.0402   19.5057 C   0  0  0  0  0  0
  -29.7654  -15.5378   20.9291 N   0  0  0  0  0  0
  -29.2893  -21.7126   20.5204 N   0  0  0  0  0  0
  -30.3158  -20.3878   19.0016 O   0  0  0  0  0  0
  -31.4845  -12.4939   19.1339 H   0  0  0  0  0  0
  -30.3788  -11.3404   19.8284 H   0  0  0  0  0  0
  -29.7658  -11.7744   17.4429 H   0  0  0  0  0  0
  -29.6574  -13.4878   17.7455 H   0  0  0  0  0  0
  -27.8663  -11.2914   18.8305 H   0  0  0  0  0  0
  -27.3698  -12.5862   17.7792 H   0  0  0  0  0  0
  -27.6888  -14.2404   19.5505 H   0  0  0  0  0  0
  -28.6841  -11.9393   21.3020 H   0  0  0  0  0  0
  -28.4428  -13.5581   21.8753 H   0  0  0  0  0  0
  -25.2733   -9.5688   22.4738 H   0  0  0  0  0  0
  -23.9996   -7.4613   22.7459 H   0  0  0  0  0  0
  -21.0815   -8.8713   19.8945 H   0  0  0  0  0  0
  -22.3642  -10.9625   19.6132 H   0  0  0  0  0  0
  -21.1989   -7.6121   23.9716 H   0  0  0  0  0  0
  -21.1497   -6.0493   25.9078 H   0  0  0  0  0  0
  -22.0604   -2.7585   23.2847 H   0  0  0  0  0  0
  -22.4080  -11.9883   22.4829 H   0  0  0  0  0  0
  -21.1095  -13.1236   22.2587 H   0  0  0  0  0  0
  -24.6506  -15.8305   20.5179 H   0  0  0  0  0  0
  -26.2671  -15.6352   20.0740 H   0  0  0  0  0  0
  -26.7173  -32.5492   23.1148 H   0  0  0  0  0  0
  -25.0233  -33.9840   25.0535 H   0  0  0  0  0  0
  -22.7057  -31.3097   21.4089 H   0  0  0  0  0  0
  -23.3782  -35.9586   23.3336 H   0  0  0  0  0  0
  -24.3536  -36.8854   22.2036 H   0  0  0  0  0  0
  -23.7187  -37.6481   23.6618 H   0  0  0  0  0  0
  -26.0780  -31.5848   20.6049 H   0  0  0  0  0  0
  -26.8328  -30.8577   21.9932 H   0  0  0  0  0  0
  -28.1086  -29.0513   21.1637 H   0  0  0  0  0  0
  -26.0187  -25.9527   19.0181 H   0  0  0  0  0  0
  -23.9741  -27.3030   19.0162 H   0  0  0  0  0  0
  -23.7399  -30.6041   19.4061 H   0  0  0  0  0  0
  -22.7446  -29.2526   19.8556 H   0  0  0  0  0  0
  -25.1304  -36.1992   25.0819 H   0  0  0  0  0  0
  -20.9911  -28.3225   24.1427 H   0  0  0  0  0  0
  -20.5650  -26.2293   23.3601 H   0  0  0  0  0  0
  -21.6621  -26.7444   22.1221 H   0  0  0  0  0  0
  -19.6911  -25.6293   21.1218 H   0  0  0  0  0  0
  -19.6653  -27.3198   20.6746 H   0  0  0  0  0  0
  -17.4185  -26.6636   21.4003 H   0  0  0  0  0  0
  -18.0304  -26.0032   22.8993 H   0  0  0  0  0  0
  -19.7941  -30.7206   24.2287 H   0  0  0  0  0  0
  -17.5023  -31.6251   24.5162 H   0  0  0  0  0  0
  -15.5343  -30.2993   23.7627 H   0  0  0  0  0  0
  -15.8632  -28.0805   22.7074 H   0  0  0  0  0  0
  -24.5894  -30.7099   25.7698 H   0  0  0  0  0  0
  -24.8879  -32.2909   26.4843 H   0  0  0  0  0  0
  -25.7990  -30.8893   27.0188 H   0  0  0  0  0  0
  -26.2871  -29.6823   24.1164 H   0  0  0  0  0  0
  -27.4067  -29.7309   25.4600 H   0  0  0  0  0  0
  -27.8723  -30.4410   23.9311 H   0  0  0  0  0  0
  -27.2703  -33.3674   26.2029 H   0  0  0  0  0  0
  -28.3835  -32.6869   25.0243 H   0  0  0  0  0  0
  -28.0749  -31.8471   26.5364 H   0  0  0  0  0  0
  -28.2633  -38.0061   24.7524 H   0  0  0  0  0  0
  -28.1013  -36.2598   24.6309 H   0  0  0  0  0  0
  -27.2258  -37.1447   25.8862 H   0  0  0  0  0  0
  -20.9319  -29.8846   21.7002 H   0  0  0  0  0  0
  -26.0180  -38.2897   24.1436 H   0  0  0  0  0  0
  -30.7255  -18.4756   24.3201 H   0  0  0  0  0  0
  -30.5162  -16.2116   23.4011 H   0  0  0  0  0  0
  -29.4998  -17.8808   19.5555 H   0  0  0  0  0  0
  -30.9108  -20.7674   24.1259 H   0  0  0  0  0  0
  -29.4969  -21.3630   23.2802 H   0  0  0  0  0  0
  -31.1086  -21.5108   22.5541 H   0  0  0  0  0  0
  -27.3963  -22.4242   18.4974 H   0  0  0  0  0  0
  -26.4037  -23.8410   18.7689 H   0  0  0  0  0  0
  -26.7794  -22.7720   20.1062 H   0  0  0  0  0  0
  -29.0495  -24.0002   17.3873 H   0  0  0  0  0  0
  -29.8550  -25.2510   18.3229 H   0  0  0  0  0  0
  -28.1735  -25.4507   17.8480 H   0  0  0  0  0  0
  -30.2973  -23.5353   20.6338 H   0  0  0  0  0  0
  -30.2569  -22.8640   19.0556 H   0  0  0  0  0  0
  -28.8455  -25.0569   21.4153 H   0  0  0  0  0  0
  -27.1911  -25.0416   20.9984 H   0  0  0  0  0  0
  -28.8191  -15.2162   21.0592 H   0  0  0  0  0  0
  -28.8283  -21.7135   21.4172 H   0  0  0  0  0  0
  1 25  1  0  0  0
  1 30  2  0  0  0
  1 84  1  0  0  0
  2  3  1  0  0  0
  2 25  1  0  0  0
  2 87  1  0  0  0
  2 88  1  0  0  0
  3  4  1  0  0  0
  3 89  1  0  0  0
  3 90  1  0  0  0
  4  5  1  0  0  0
  4 91  1  0  0  0
  4 92  1  0  0  0
  5  6  1  0  0  0
  5 26  1  0  0  0
  5 93  1  0  0  0
  6 25  1  0  0  0
  6 94  1  0  0  0
  6 95  1  0  0  0
  7  8  2  0  0  0
  7 26  1  0  0  0
  7 29  1  0  0  0
  8  9  1  0  0  0
  8 22  1  0  0  0
  9 10  1  0  0  0
  9 27  2  0  0  0
 10 11  2  0  0  0
 10 15  1  0  0  0
 11 12  1  0  0  0
 11 96  1  0  0  0
 12 13  2  0  0  0
 12 97  1  0  0  0
 13 14  1  0  0  0
 13 31  1  0  0  0
 14 15  2  0  0  0
 14 98  1  0  0  0
 15 99  1  0  0  0
 16 17  2  0  0  0
 16 21  1  0  0  0
 16 31  1  0  0  0
 17 18  1  0  0  0
 17100  1  0  0  0
 18 19  2  0  0  0
 18101  1  0  0  0
 19 20  1  0  0  0
 19 24  1  0  0  0
 20 21  2  0  0  0
 20102  1  0  0  0
 21 23  1  0  0  0
 22 28  1  0  0  0
 22 32  2  0  0  0
 26 27  1  0  0  0
 28103  1  0  0  0
 28104  1  0  0  0
 29105  1  0  0  0
 29106  1  0  0  0
 33 34  1  0  0  0
 33 66  1  0  0  0
 33 70  2  0  0  0
 34 36  1  0  0  0
 34 59  1  0  0  0
 34107  1  0  0  0
 35 44  2  0  0  0
 35 45  1  0  0  0
 35 68  1  0  0  0
 36 56  1  0  0  0
 36108  1  0  0  0
 37 39  1  0  0  0
 37 47  1  0  0  0
 37 66  1  0  0  0
 37109  1  0  0  0
 38 43  2  0  0  0
 38 46  1  0  0  0
 38 47  1  0  0  0
 39 64  1  0  0  0
 39 67  2  0  0  0
 40 52  1  0  0  0
 40 53  2  0  0  0
 40 58  1  0  0  0
 41110  1  0  0  0
 41111  1  0  0  0
 41112  1  0  0  0
 41 48  1  0  0  0
 42 43  1  0  0  0
 42 66  1  0  0  0
 42113  1  0  0  0
 42114  1  0  0  0
 43 44  1  0  0  0
 44115  1  0  0  0
 45 46  2  0  0  0
 45116  1  0  0  0
 46117  1  0  0  0
 47118  1  0  0  0
 47119  1  0  0  0
 48 56  1  0  0  0
 48 65  1  0  0  0
 48120  1  0  0  0
 49 50  1  0  0  0
 49 53  1  0  0  0
 49 64  1  0  0  0
 49121  1  0  0  0
 50 51  1  0  0  0
 50122  1  0  0  0
 50123  1  0  0  0
 51 52  1  0  0  0
 51124  1  0  0  0
 51125  1  0  0  0
 52126  1  0  0  0
 52127  1  0  0  0
 53 54  1  0  0  0
 54 55  2  0  0  0
 54128  1  0  0  0
 55 57  1  0  0  0
 55129  1  0  0  0
 56 69  2  0  0  0
 57 58  2  0  0  0
 57130  1  0  0  0
 58131  1  0  0  0
 59 60  1  0  0  0
 59 61  1  0  0  0
 59 62  1  0  0  0
 60132  1  0  0  0
 60133  1  0  0  0
 60134  1  0  0  0
 61135  1  0  0  0
 61136  1  0  0  0
 61137  1  0  0  0
 62138  1  0  0  0
 62139  1  0  0  0
 62140  1  0  0  0
 63 65  1  0  0  0
 63141  1  0  0  0
 63142  1  0  0  0
 63143  1  0  0  0
 64144  1  0  0  0
 65145  1  0  0  0
 68 82  1  0  0  0
 71 72  2  0  0  0
 71 75  1  0  0  0
 71146  1  0  0  0
 72 76  1  0  0  0
 72147  1  0  0  0
 73 74  1  0  0  0
 73 76  2  0  0  0
 73148  1  0  0  0
 74 75  2  0  0  0
 74 77  1  0  0  0
 75 78  1  0  0  0
 76 84  1  0  0  0
 77 85  1  0  0  0
 77 86  2  0  0  0
 78149  1  0  0  0
 78150  1  0  0  0
 78151  1  0  0  0
 79152  1  0  0  0
 79153  1  0  0  0
 79154  1  0  0  0
 79 83  1  0  0  0
 80 83  1  0  0  0
 80155  1  0  0  0
 80156  1  0  0  0
 80157  1  0  0  0
 81 83  1  0  0  0
 81 85  1  0  0  0
 81158  1  0  0  0
 81159  1  0  0  0
 82 83  1  0  0  0
 82160  1  0  0  0
 82161  1  0  0  0
 84162  1  0  0  0
 85163  1  0  0  0
M  ISO  4   1 100  68 101  82 101  84 100
M  END
> <chiral flag>
0

> <version>
0

> <s_m_source_file>
/data/baiqing/PycharmProjects/Reinvent-master-3.2/result/LINK_invent/BTK/process_docking_weight1_custom_product_contain_oxygen_bond_distance_aromatic_linkinvent_7_9_3/rearranged_h_0058.sdf

> <i_m_source_file_index>
61

> <r_mmod_Potential_Energy-OPLS-2005>
24.2681560516357

> <r_mmod_Stretch_Energy-OPLS-2005>
58.2210235595703

> <r_mmod_Bend_Energy-OPLS-2005>
123.826934814453

> <r_mmod_Torsional_Energy-OPLS-2005>
310.17724609375

> <r_mmod_Improper_Torsional_Energy-OPLS-2005>
8.08870220184326

> <r_mmod_Van_der_Waal_Energy-OPLS-2005>
159.053298950195

> <r_mmod_Electrostatic_Energy-OPLS-2005>
-435.869689941406

> <r_mmod_Solvation_Energy-OPLS-2005>
-226.354827880859

> <b_mmod_Minimization_Converged-OPLS-2005>
0

> <r_mmod_RMS_Derivative-OPLS-2005>
3.25488829612732

$$$$
61
                    3D
 Structure written by MMmdl.
154162  0  0  1  0            999 V2000
  -30.7249  -14.4759   20.5726 C   0  0  0  0  0  0
  -30.4145  -12.3115   19.4256 C   0  0  0  0  0  0
  -29.4911  -12.4991   18.2062 C   0  0  0  0  0  0
  -28.0132  -12.3622   18.6199 C   0  0  0  0  0  0
  -27.6577  -13.2118   19.8695 C   0  0  2  0  0  0
  -28.7011  -13.0209   20.9936 C   0  0  0  0  0  0
  -25.2574  -13.8174   20.5682 C   0  0  0  0  0  0
  -24.1835  -13.0443   20.9185 C   0  0  0  0  0  0
  -24.6395  -11.6910   20.8736 C   0  0  0  0  0  0
  -23.9064  -10.4294   21.0409 C   0  0  0  0  0  0
  -24.3616   -9.4209   21.9188 C   0  0  0  0  0  0
  -23.6290   -8.2244   22.0755 C   0  0  0  0  0  0
  -22.4273   -8.0285   21.3545 C   0  0  0  0  0  0
  -21.9914   -9.0257   20.4644 C   0  0  0  0  0  0
  -22.7239  -10.2137   20.3055 C   0  0  0  0  0  0
  -21.6851   -6.0739   22.5279 C   0  0  0  0  0  0
  -21.4012   -6.5642   23.8213 C   0  0  0  0  0  0
  -21.3658   -5.6794   24.9175 C   0  0  0  0  0  0
  -21.6044   -4.3058   24.7225 C   0  0  0  0  0  0
  -21.8820   -3.8151   23.4346 C   0  0  0  0  0  0
  -21.9192   -4.6967   22.3402 C   0  0  0  0  0  0
  -22.7860  -13.5236   21.1854 C   0  0  0  0  0  0
  -22.1662   -4.2152   21.0979 F   0  0  0  0  0  0
  -21.5629   -3.4542   25.7737 F   0  0  0  0  0  0
  -30.0280  -13.3148   20.4309 N   0  0  0  0  0  0
  -26.3007  -12.9352   20.3352 N   0  0  0  0  0  0
  -25.9321  -11.6507   20.5765 N   0  0  0  0  0  0
  -22.0507  -12.8218   22.0405 N   0  0  0  0  0  0
  -25.4294  -15.1894   20.4081 N   0  0  0  0  0  0
  -31.8599  -14.6200   20.1097 O   0  0  0  0  0  0
  -21.6638   -6.8881   21.4241 O   0  0  0  0  0  0
  -22.3544  -14.5547   20.6708 O   0  0  0  0  0  0
  -24.6175  -31.8680   23.2113 C   0  0  0  0  0  0
  -25.9064  -32.4821   23.8408 C   0  0  1  0  0  0
  -27.2230  -27.4091   20.0931 C   0  0  0  0  0  0
  -25.5913  -33.8621   24.2336 N   0  0  0  0  0  0
  -23.4052  -30.4949   21.5532 C   0  0  2  0  0  0
  -24.8485  -28.9664   20.1110 C   0  0  0  0  0  0
  -22.7424  -29.4664   22.4984 C   0  0  0  0  0  0
  -18.0275  -28.1380   22.8497 C   0  0  0  0  0  0
  -24.1487  -36.7309   23.2641 C   0  0  0  0  0  0
  -25.9393  -30.8250   21.3705 C   0  0  0  0  0  0
  -26.0133  -29.4610   20.7110 C   0  0  0  0  0  0
  -27.2031  -28.6908   20.6988 C   0  0  0  0  0  0
  -26.0372  -26.9509   19.4672 C   0  0  0  0  0  0
  -24.8574  -27.7120   19.4846 C   0  0  0  0  0  0
  -23.6127  -29.8351   20.1657 C   0  0  0  0  0  0
  -25.4109  -36.3112   24.0339 C   0  0  1  0  0  0
  -20.5870  -28.3676   23.1310 C   0  0  2  0  0  0
  -20.6766  -26.9410   22.5414 C   0  0  0  0  0  0
  -19.5738  -26.6385   21.5215 C   0  0  0  0  0  0
  -18.1919  -26.7927   22.1626 C   0  0  0  0  0  0
  -19.1527  -28.8845   23.2898 C   0  0  0  0  0  0
  -18.9452  -30.1452   23.8905 C   0  0  0  0  0  0
  -17.6455  -30.6589   24.0564 C   0  0  0  0  0  0
  -25.9038  -34.9476   23.5132 C   0  0  0  0  0  0
  -16.5345  -29.9089   23.6330 C   0  0  0  0  0  0
  -16.7263  -28.6504   23.0355 C   0  0  0  0  0  0
  -26.4481  -31.6598   25.0740 C   0  0  0  0  0  0
  -25.3737  -31.3685   26.1473 C   0  0  0  0  0  0
  -27.0334  -30.3048   24.6131 C   0  0  0  0  0  0
  -27.6052  -32.4324   25.7505 C   0  0  0  0  0  0
  -27.5582  -37.1808   24.8468 C   0  0  0  0  0  0
  -21.4151  -29.3041   22.3718 N   0  0  0  0  0  0
  -26.4298  -37.3797   23.9409 N   0  0  0  0  0  0
  -24.6726  -31.0766   22.1027 N   0  0  0  0  0  0
  -23.4190  -28.8195   23.3023 O   0  0  0  0  0  0
  -28.3698  -26.6268   20.1398 O   0  0  0  0  0  0
  -26.5596  -34.8927   22.4690 O   0  0  0  0  0  0
  -23.5360  -32.1444   23.7492 O   0  0  0  0  0  0
  -32.3618  -18.2138   22.3260 C   0  0  0  0  0  0
  -31.6787  -19.3798   21.9369 C   0  0  0  0  0  0
  -31.8242  -16.9463   22.0475 C   0  0  0  0  0  0
  -29.8919  -18.0102   21.0063 C   0  0  0  0  0  0
  -30.4306  -19.3036   21.2693 C   0  0  0  0  0  0
  -30.5904  -16.8247   21.3706 C   0  0  0  0  0  0
  -29.9674  -21.7907   20.9767 C   0  0  0  0  0  0
  -28.9618  -22.7790   20.3497 C   0  0  0  0  0  0
  -29.2974  -24.2959   20.5163 C   0  0  0  0  0  0
  -28.1820  -25.2051   19.9495 C   0  0  0  0  0  0
  -29.6984  -20.4679   20.8360 N   0  0  0  0  0  0
  -30.0502  -15.5250   21.0947 N   0  0  0  0  0  0
  -30.9474  -22.2404   21.5735 O   0  0  0  0  0  0
  -31.4601  -12.3951   19.1240 H   0  0  0  0  0  0
  -30.3055  -11.3077   19.8391 H   0  0  0  0  0  0
  -29.7316  -11.7660   17.4350 H   0  0  0  0  0  0
  -29.6607  -13.4807   17.7602 H   0  0  0  0  0  0
  -27.8242  -11.3075   18.8235 H   0  0  0  0  0  0
  -27.3627  -12.6302   17.7866 H   0  0  0  0  0  0
  -27.6938  -14.2556   19.5566 H   0  0  0  0  0  0
  -28.6796  -11.9950   21.3645 H   0  0  0  0  0  0
  -28.4660  -13.6492   21.8540 H   0  0  0  0  0  0
  -25.2761   -9.5687   22.4761 H   0  0  0  0  0  0
  -24.0002   -7.4638   22.7476 H   0  0  0  0  0  0
  -21.0849   -8.8774   19.8947 H   0  0  0  0  0  0
  -22.3701  -10.9676   19.6161 H   0  0  0  0  0  0
  -21.2005   -7.6151   23.9716 H   0  0  0  0  0  0
  -21.1479   -6.0526   25.9077 H   0  0  0  0  0  0
  -22.0601   -2.7614   23.2844 H   0  0  0  0  0  0
  -22.4124  -11.9861   22.4760 H   0  0  0  0  0  0
  -21.1129  -13.1243   22.2632 H   0  0  0  0  0  0
  -24.6633  -15.8459   20.5134 H   0  0  0  0  0  0
  -26.2799  -15.6257   20.0751 H   0  0  0  0  0  0
  -26.7130  -32.5527   23.1167 H   0  0  0  0  0  0
  -25.0075  -33.9782   25.0487 H   0  0  0  0  0  0
  -22.6944  -31.3130   21.4179 H   0  0  0  0  0  0
  -23.3758  -35.9633   23.3305 H   0  0  0  0  0  0
  -24.3574  -36.8926   22.2053 H   0  0  0  0  0  0
  -23.7230  -37.6510   23.6655 H   0  0  0  0  0  0
  -26.0600  -31.5943   20.6063 H   0  0  0  0  0  0
  -26.8241  -30.8712   21.9935 H   0  0  0  0  0  0
  -28.0986  -29.0652   21.1752 H   0  0  0  0  0  0
  -25.9925  -25.9991   18.9587 H   0  0  0  0  0  0
  -23.9649  -27.3288   19.0090 H   0  0  0  0  0  0
  -23.7214  -30.6138   19.4097 H   0  0  0  0  0  0
  -22.7348  -29.2583   19.8690 H   0  0  0  0  0  0
  -25.1284  -36.1980   25.0833 H   0  0  0  0  0  0
  -20.9961  -28.3245   24.1430 H   0  0  0  0  0  0
  -20.5684  -26.2279   23.3602 H   0  0  0  0  0  0
  -21.6634  -26.7459   22.1197 H   0  0  0  0  0  0
  -19.6900  -25.6299   21.1235 H   0  0  0  0  0  0
  -19.6675  -27.3198   20.6749 H   0  0  0  0  0  0
  -17.4193  -26.6696   21.4021 H   0  0  0  0  0  0
  -18.0304  -26.0064   22.9015 H   0  0  0  0  0  0
  -19.7930  -30.7267   24.2272 H   0  0  0  0  0  0
  -17.5013  -31.6269   24.5168 H   0  0  0  0  0  0
  -15.5345  -30.2993   23.7650 H   0  0  0  0  0  0
  -15.8665  -28.0822   22.7066 H   0  0  0  0  0  0
  -24.5923  -30.7027   25.7791 H   0  0  0  0  0  0
  -24.8910  -32.2829   26.4934 H   0  0  0  0  0  0
  -25.8086  -30.8839   27.0225 H   0  0  0  0  0  0
  -26.2896  -29.6789   24.1192 H   0  0  0  0  0  0
  -27.4118  -29.7302   25.4596 H   0  0  0  0  0  0
  -27.8719  -30.4377   23.9290 H   0  0  0  0  0  0
  -27.2672  -33.3617   26.2105 H   0  0  0  0  0  0
  -28.3848  -32.6898   25.0322 H   0  0  0  0  0  0
  -28.0738  -31.8438   26.5402 H   0  0  0  0  0  0
  -28.2601  -38.0107   24.7534 H   0  0  0  0  0  0
  -28.1082  -36.2640   24.6284 H   0  0  0  0  0  0
  -27.2295  -37.1449   25.8870 H   0  0  0  0  0  0
  -20.9308  -29.8772   21.6950 H   0  0  0  0  0  0
  -26.0191  -38.2877   24.1413 H   0  0  0  0  0  0
  -33.3101  -18.2927   22.8387 H   0  0  0  0  0  0
  -32.1516  -20.3206   22.1691 H   0  0  0  0  0  0
  -32.3733  -16.0678   22.3580 H   0  0  0  0  0  0
  -28.9424  -17.9244   20.4971 H   0  0  0  0  0  0
  -27.9860  -22.5773   20.7934 H   0  0  0  0  0  0
  -28.8721  -22.5442   19.2886 H   0  0  0  0  0  0
  -30.2427  -24.5241   20.0228 H   0  0  0  0  0  0
  -29.4366  -24.5237   21.5737 H   0  0  0  0  0  0
  -27.2592  -24.8875   20.4387 H   0  0  0  0  0  0
  -28.0679  -25.0057   18.8828 H   0  0  0  0  0  0
  -28.8428  -20.2730   20.3335 H   0  0  0  0  0  0
  -29.0649  -15.3863   21.2601 H   0  0  0  0  0  0
  1 25  1  0  0  0
  1 30  2  0  0  0
  1 82  1  0  0  0
  2  3  1  0  0  0
  2 25  1  0  0  0
  2 84  1  0  0  0
  2 85  1  0  0  0
  3  4  1  0  0  0
  3 86  1  0  0  0
  3 87  1  0  0  0
  4  5  1  0  0  0
  4 88  1  0  0  0
  4 89  1  0  0  0
  5  6  1  0  0  0
  5 26  1  0  0  0
  5 90  1  0  0  0
  6 25  1  0  0  0
  6 91  1  0  0  0
  6 92  1  0  0  0
  7  8  2  0  0  0
  7 26  1  0  0  0
  7 29  1  0  0  0
  8  9  1  0  0  0
  8 22  1  0  0  0
  9 10  1  0  0  0
  9 27  2  0  0  0
 10 11  2  0  0  0
 10 15  1  0  0  0
 11 12  1  0  0  0
 11 93  1  0  0  0
 12 13  2  0  0  0
 12 94  1  0  0  0
 13 14  1  0  0  0
 13 31  1  0  0  0
 14 15  2  0  0  0
 14 95  1  0  0  0
 15 96  1  0  0  0
 16 17  2  0  0  0
 16 21  1  0  0  0
 16 31  1  0  0  0
 17 18  1  0  0  0
 17 97  1  0  0  0
 18 19  2  0  0  0
 18 98  1  0  0  0
 19 20  1  0  0  0
 19 24  1  0  0  0
 20 21  2  0  0  0
 20 99  1  0  0  0
 21 23  1  0  0  0
 22 28  1  0  0  0
 22 32  2  0  0  0
 26 27  1  0  0  0
 28100  1  0  0  0
 28101  1  0  0  0
 29102  1  0  0  0
 29103  1  0  0  0
 33 34  1  0  0  0
 33 66  1  0  0  0
 33 70  2  0  0  0
 34 36  1  0  0  0
 34 59  1  0  0  0
 34104  1  0  0  0
 35 44  2  0  0  0
 35 45  1  0  0  0
 35 68  1  0  0  0
 36 56  1  0  0  0
 36105  1  0  0  0
 37 39  1  0  0  0
 37 47  1  0  0  0
 37 66  1  0  0  0
 37106  1  0  0  0
 38 43  2  0  0  0
 38 46  1  0  0  0
 38 47  1  0  0  0
 39 64  1  0  0  0
 39 67  2  0  0  0
 40 52  1  0  0  0
 40 53  2  0  0  0
 40 58  1  0  0  0
 41107  1  0  0  0
 41108  1  0  0  0
 41109  1  0  0  0
 41 48  1  0  0  0
 42 43  1  0  0  0
 42 66  1  0  0  0
 42110  1  0  0  0
 42111  1  0  0  0
 43 44  1  0  0  0
 44112  1  0  0  0
 45 46  2  0  0  0
 45113  1  0  0  0
 46114  1  0  0  0
 47115  1  0  0  0
 47116  1  0  0  0
 48 56  1  0  0  0
 48 65  1  0  0  0
 48117  1  0  0  0
 49 50  1  0  0  0
 49 53  1  0  0  0
 49 64  1  0  0  0
 49118  1  0  0  0
 50 51  1  0  0  0
 50119  1  0  0  0
 50120  1  0  0  0
 51 52  1  0  0  0
 51121  1  0  0  0
 51122  1  0  0  0
 52123  1  0  0  0
 52124  1  0  0  0
 53 54  1  0  0  0
 54 55  2  0  0  0
 54125  1  0  0  0
 55 57  1  0  0  0
 55126  1  0  0  0
 56 69  2  0  0  0
 57 58  2  0  0  0
 57127  1  0  0  0
 58128  1  0  0  0
 59 60  1  0  0  0
 59 61  1  0  0  0
 59 62  1  0  0  0
 60129  1  0  0  0
 60130  1  0  0  0
 60131  1  0  0  0
 61132  1  0  0  0
 61133  1  0  0  0
 61134  1  0  0  0
 62135  1  0  0  0
 62136  1  0  0  0
 62137  1  0  0  0
 63 65  1  0  0  0
 63138  1  0  0  0
 63139  1  0  0  0
 63140  1  0  0  0
 64141  1  0  0  0
 65142  1  0  0  0
 68 80  1  0  0  0
 71 72  2  0  0  0
 71 73  1  0  0  0
 71143  1  0  0  0
 72 75  1  0  0  0
 72144  1  0  0  0
 73 76  2  0  0  0
 73145  1  0  0  0
 74 75  2  0  0  0
 74 76  1  0  0  0
 74146  1  0  0  0
 75 81  1  0  0  0
 76 82  1  0  0  0
 77 78  1  0  0  0
 77 81  1  0  0  0
 77 83  2  0  0  0
 78 79  1  0  0  0
 78147  1  0  0  0
 78148  1  0  0  0
 79 80  1  0  0  0
 79149  1  0  0  0
 79150  1  0  0  0
 80151  1  0  0  0
 80152  1  0  0  0
 81153  1  0  0  0
 82154  1  0  0  0
M  ISO  4   1 100  68 101  80 101  82 100
M  END
> <chiral flag>
0

> <version>
0

> <s_m_source_file>
/data/baiqing/PycharmProjects/Reinvent-master-3.2/result/LINK_invent/BTK/process_docking_weight1_custom_product_contain_oxygen_bond_distance_aromatic_linkinvent_7_9_3/rearranged_h_0058.sdf

> <i_m_source_file_index>
62

> <r_mmod_Potential_Energy-OPLS-2005>
-82.9036636352539

> <r_mmod_Stretch_Energy-OPLS-2005>
43.5146064758301

> <r_mmod_Bend_Energy-OPLS-2005>
102.434417724609

> <r_mmod_Torsional_Energy-OPLS-2005>
222.946380615234

> <r_mmod_Improper_Torsional_Energy-OPLS-2005>
3.56133818626404

> <r_mmod_Van_der_Waal_Energy-OPLS-2005>
167.015167236328

> <r_mmod_Electrostatic_Energy-OPLS-2005>
-401.277069091797

> <r_mmod_Solvation_Energy-OPLS-2005>
-238.666366577148

> <b_mmod_Minimization_Converged-OPLS-2005>
0

> <r_mmod_RMS_Derivative-OPLS-2005>
0.538797676563263

$$$$
62
                    3D
 Structure written by MMmdl.
154162  0  0  1  0            999 V2000
  -30.6206  -14.6226   20.5013 C   0  0  0  0  0  0
  -30.4411  -12.3807   19.4450 C   0  0  0  0  0  0
  -29.5090  -12.5060   18.2186 C   0  0  0  0  0  0
  -28.0300  -12.3487   18.6295 C   0  0  0  0  0  0
  -27.6567  -13.2120   19.8636 C   0  0  2  0  0  0
  -28.7024  -13.0496   20.9902 C   0  0  0  0  0  0
  -25.2573  -13.8158   20.5674 C   0  0  0  0  0  0
  -24.1837  -13.0434   20.9198 C   0  0  0  0  0  0
  -24.6399  -11.6910   20.8745 C   0  0  0  0  0  0
  -23.9064  -10.4295   21.0411 C   0  0  0  0  0  0
  -24.3618   -9.4207   21.9188 C   0  0  0  0  0  0
  -23.6298   -8.2238   22.0755 C   0  0  0  0  0  0
  -22.4275   -8.0282   21.3547 C   0  0  0  0  0  0
  -21.9909   -9.0254   20.4644 C   0  0  0  0  0  0
  -22.7238  -10.2132   20.3061 C   0  0  0  0  0  0
  -21.6845   -6.0734   22.5287 C   0  0  0  0  0  0
  -21.4003   -6.5643   23.8219 C   0  0  0  0  0  0
  -21.3662   -5.6793   24.9181 C   0  0  0  0  0  0
  -21.6046   -4.3054   24.7227 C   0  0  0  0  0  0
  -21.8819   -3.8148   23.4347 C   0  0  0  0  0  0
  -21.9188   -4.6963   22.3406 C   0  0  0  0  0  0
  -22.7862  -13.5231   21.1858 C   0  0  0  0  0  0
  -22.1662   -4.2153   21.0981 F   0  0  0  0  0  0
  -21.5630   -3.4538   25.7741 F   0  0  0  0  0  0
  -30.0194  -13.3940   20.4309 N   0  0  0  0  0  0
  -26.3004  -12.9333   20.3306 N   0  0  0  0  0  0
  -25.9326  -11.6491   20.5751 N   0  0  0  0  0  0
  -22.0493  -12.8232   22.0407 N   0  0  0  0  0  0
  -25.4279  -15.1875   20.4057 N   0  0  0  0  0  0
  -31.7821  -14.7956   20.1206 O   0  0  0  0  0  0
  -21.6638   -6.8879   21.4248 O   0  0  0  0  0  0
  -22.3559  -14.5537   20.6703 O   0  0  0  0  0  0
  -24.6263  -31.8608   23.2040 C   0  0  0  0  0  0
  -25.9115  -32.4778   23.8365 C   0  0  1  0  0  0
  -27.2199  -27.3272   20.1082 C   0  0  0  0  0  0
  -25.5942  -33.8578   24.2308 N   0  0  0  0  0  0
  -23.4193  -30.4879   21.5456 C   0  0  2  0  0  0
  -24.8632  -28.9473   20.1087 C   0  0  0  0  0  0
  -22.7480  -29.4646   22.4928 C   0  0  0  0  0  0
  -18.0291  -28.1384   22.8493 C   0  0  0  0  0  0
  -24.1489  -36.7273   23.2640 C   0  0  0  0  0  0
  -25.9608  -30.7947   21.3729 C   0  0  0  0  0  0
  -26.0330  -29.4241   20.7123 C   0  0  0  0  0  0
  -27.2148  -28.6259   20.7038 C   0  0  0  0  0  0
  -26.0232  -26.9044   19.4812 C   0  0  0  0  0  0
  -24.8589  -27.6922   19.4854 C   0  0  0  0  0  0
  -23.6325  -29.8275   20.1590 C   0  0  0  0  0  0
  -25.4111  -36.3079   24.0340 C   0  0  1  0  0  0
  -20.5900  -28.3686   23.1277 C   0  0  2  0  0  0
  -20.6786  -26.9406   22.5405 C   0  0  0  0  0  0
  -19.5762  -26.6385   21.5204 C   0  0  0  0  0  0
  -18.1940  -26.7936   22.1611 C   0  0  0  0  0  0
  -19.1548  -28.8846   23.2891 C   0  0  0  0  0  0
  -18.9471  -30.1446   23.8905 C   0  0  0  0  0  0
  -17.6470  -30.6583   24.0564 C   0  0  0  0  0  0
  -25.9048  -34.9449   23.5116 C   0  0  0  0  0  0
  -16.5356  -29.9081   23.6329 C   0  0  0  0  0  0
  -16.7279  -28.6501   23.0350 C   0  0  0  0  0  0
  -26.4504  -31.6573   25.0718 C   0  0  0  0  0  0
  -25.3741  -31.3706   26.1447 C   0  0  0  0  0  0
  -27.0335  -30.3006   24.6140 C   0  0  0  0  0  0
  -27.6094  -32.4272   25.7477 C   0  0  0  0  0  0
  -27.5584  -37.1792   24.8469 C   0  0  0  0  0  0
  -21.4197  -29.3044   22.3669 N   0  0  0  0  0  0
  -26.4289  -37.3769   23.9421 N   0  0  0  0  0  0
  -24.6875  -31.0640   22.0977 N   0  0  0  0  0  0
  -23.4217  -28.8184   23.2995 O   0  0  0  0  0  0
  -28.3381  -26.4785   20.1586 O   0  0  0  0  0  0
  -26.5604  -34.8917   22.4677 O   0  0  0  0  0  0
  -23.5430  -32.1401   23.7375 O   0  0  0  0  0  0
  -28.6709  -17.8624   20.8344 C   0  0  0  0  0  0
  -28.6459  -19.2825   20.7452 C   0  0  0  0  0  0
  -31.0455  -17.8591   20.4698 C   0  0  0  0  0  0
  -31.0386  -19.2907   20.3927 C   0  0  0  0  0  0
  -29.8651  -17.1075   20.7028 C   0  0  0  0  0  0
  -29.8258  -20.0421   20.5296 C   0  0  0  0  0  0
  -28.8939  -22.4434   20.2084 C   0  0  0  0  0  0
  -29.2328  -23.9810   20.3633 C   0  0  0  0  0  0
  -28.1085  -25.0283   19.9650 C   0  0  0  0  0  0
  -32.3627  -20.0155   20.1546 C   0  0  0  0  0  0
  -29.8429  -21.5108   20.5316 N   0  0  0  0  0  0
  -29.7907  -15.6537   20.8495 N   0  0  0  0  0  0
  -27.7864  -22.1156   19.7773 O   0  0  0  0  0  0
  -33.4066  -19.1839   20.1486 F   0  0  0  0  0  0
  -32.3279  -20.6405   18.9779 F   0  0  0  0  0  0
  -32.5657  -20.9236   21.1108 F   0  0  0  0  0  0
  -31.4823  -12.5043   19.1439 H   0  0  0  0  0  0
  -30.3743  -11.3808   19.8773 H   0  0  0  0  0  0
  -29.7709  -11.7576   17.4686 H   0  0  0  0  0  0
  -29.6543  -13.4766   17.7418 H   0  0  0  0  0  0
  -27.8589  -11.2951   18.8517 H   0  0  0  0  0  0
  -27.3767  -12.5892   17.7902 H   0  0  0  0  0  0
  -27.6796  -14.2502   19.5319 H   0  0  0  0  0  0
  -28.7093  -12.0223   21.3569 H   0  0  0  0  0  0
  -28.4511  -13.6671   21.8535 H   0  0  0  0  0  0
  -25.2762   -9.5680   22.4761 H   0  0  0  0  0  0
  -24.0012   -7.4620   22.7467 H   0  0  0  0  0  0
  -21.0842   -8.8764   19.8949 H   0  0  0  0  0  0
  -22.3700  -10.9667   19.6169 H   0  0  0  0  0  0
  -21.1993   -7.6154   23.9727 H   0  0  0  0  0  0
  -21.1486   -6.0522   25.9087 H   0  0  0  0  0  0
  -22.0596   -2.7615   23.2845 H   0  0  0  0  0  0
  -22.4102  -11.9889   22.4800 H   0  0  0  0  0  0
  -21.1108  -13.1257   22.2601 H   0  0  0  0  0  0
  -24.6517  -15.8329   20.4988 H   0  0  0  0  0  0
  -26.2548  -15.6171   20.0130 H   0  0  0  0  0  0
  -26.7186  -32.5454   23.1116 H   0  0  0  0  0  0
  -25.0119  -33.9722   25.0479 H   0  0  0  0  0  0
  -22.7143  -31.3103   21.4054 H   0  0  0  0  0  0
  -23.3758  -35.9595   23.3285 H   0  0  0  0  0  0
  -24.3602  -36.8897   22.2060 H   0  0  0  0  0  0
  -23.7225  -37.6470   23.6654 H   0  0  0  0  0  0
  -26.0930  -31.5602   20.6072 H   0  0  0  0  0  0
  -26.8419  -30.8414   22.0010 H   0  0  0  0  0  0
  -28.1119  -28.9884   21.1852 H   0  0  0  0  0  0
  -25.9500  -25.9480   18.9861 H   0  0  0  0  0  0
  -23.9616  -27.3228   19.0077 H   0  0  0  0  0  0
  -23.7567  -30.6066   19.4050 H   0  0  0  0  0  0
  -22.7518  -29.2594   19.8526 H   0  0  0  0  0  0
  -25.1289  -36.1924   25.0831 H   0  0  0  0  0  0
  -21.0005  -28.3244   24.1392 H   0  0  0  0  0  0
  -20.5668  -26.2292   23.3605 H   0  0  0  0  0  0
  -21.6657  -26.7429   22.1204 H   0  0  0  0  0  0
  -19.6921  -25.6296   21.1229 H   0  0  0  0  0  0
  -19.6704  -27.3204   20.6744 H   0  0  0  0  0  0
  -17.4220  -26.6685   21.4005 H   0  0  0  0  0  0
  -18.0336  -26.0074   22.9000 H   0  0  0  0  0  0
  -19.7945  -30.7264   24.2280 H   0  0  0  0  0  0
  -17.5020  -31.6268   24.5163 H   0  0  0  0  0  0
  -15.5359  -30.2980   23.7652 H   0  0  0  0  0  0
  -15.8684  -28.0819   22.7051 H   0  0  0  0  0  0
  -24.5949  -30.7012   25.7782 H   0  0  0  0  0  0
  -24.8886  -32.2862   26.4832 H   0  0  0  0  0  0
  -25.8077  -30.8929   27.0241 H   0  0  0  0  0  0
  -26.2895  -29.6754   24.1187 H   0  0  0  0  0  0
  -27.4090  -29.7255   25.4613 H   0  0  0  0  0  0
  -27.8740  -30.4317   23.9323 H   0  0  0  0  0  0
  -27.2760  -33.3589   26.2054 H   0  0  0  0  0  0
  -28.3903  -32.6783   25.0287 H   0  0  0  0  0  0
  -28.0750  -31.8371   26.5382 H   0  0  0  0  0  0
  -28.2589  -38.0098   24.7525 H   0  0  0  0  0  0
  -28.1091  -36.2637   24.6268 H   0  0  0  0  0  0
  -27.2318  -37.1402   25.8873 H   0  0  0  0  0  0
  -20.9362  -29.8785   21.6906 H   0  0  0  0  0  0
  -26.0168  -38.2838   24.1430 H   0  0  0  0  0  0
  -27.7363  -17.3505   21.0188 H   0  0  0  0  0  0
  -27.6993  -19.7852   20.8773 H   0  0  0  0  0  0
  -31.9841  -17.3367   20.3671 H   0  0  0  0  0  0
  -30.1257  -24.1843   19.7733 H   0  0  0  0  0  0
  -29.5085  -24.1496   21.4039 H   0  0  0  0  0  0
  -27.2124  -24.7506   20.5241 H   0  0  0  0  0  0
  -27.8784  -24.8671   18.9103 H   0  0  0  0  0  0
  -30.7339  -21.9126   20.7950 H   0  0  0  0  0  0
  -28.8887  -15.3159   21.1473 H   0  0  0  0  0  0
  1 25  1  0  0  0
  1 30  2  0  0  0
  1 82  1  0  0  0
  2  3  1  0  0  0
  2 25  1  0  0  0
  2 87  1  0  0  0
  2 88  1  0  0  0
  3  4  1  0  0  0
  3 89  1  0  0  0
  3 90  1  0  0  0
  4  5  1  0  0  0
  4 91  1  0  0  0
  4 92  1  0  0  0
  5  6  1  0  0  0
  5 26  1  0  0  0
  5 93  1  0  0  0
  6 25  1  0  0  0
  6 94  1  0  0  0
  6 95  1  0  0  0
  7  8  2  0  0  0
  7 26  1  0  0  0
  7 29  1  0  0  0
  8  9  1  0  0  0
  8 22  1  0  0  0
  9 10  1  0  0  0
  9 27  2  0  0  0
 10 11  2  0  0  0
 10 15  1  0  0  0
 11 12  1  0  0  0
 11 96  1  0  0  0
 12 13  2  0  0  0
 12 97  1  0  0  0
 13 14  1  0  0  0
 13 31  1  0  0  0
 14 15  2  0  0  0
 14 98  1  0  0  0
 15 99  1  0  0  0
 16 17  2  0  0  0
 16 21  1  0  0  0
 16 31  1  0  0  0
 17 18  1  0  0  0
 17100  1  0  0  0
 18 19  2  0  0  0
 18101  1  0  0  0
 19 20  1  0  0  0
 19 24  1  0  0  0
 20 21  2  0  0  0
 20102  1  0  0  0
 21 23  1  0  0  0
 22 28  1  0  0  0
 22 32  2  0  0  0
 26 27  1  0  0  0
 28103  1  0  0  0
 28104  1  0  0  0
 29105  1  0  0  0
 29106  1  0  0  0
 33 34  1  0  0  0
 33 66  1  0  0  0
 33 70  2  0  0  0
 34 36  1  0  0  0
 34 59  1  0  0  0
 34107  1  0  0  0
 35 44  2  0  0  0
 35 45  1  0  0  0
 35 68  1  0  0  0
 36 56  1  0  0  0
 36108  1  0  0  0
 37 39  1  0  0  0
 37 47  1  0  0  0
 37 66  1  0  0  0
 37109  1  0  0  0
 38 43  2  0  0  0
 38 46  1  0  0  0
 38 47  1  0  0  0
 39 64  1  0  0  0
 39 67  2  0  0  0
 40 52  1  0  0  0
 40 53  2  0  0  0
 40 58  1  0  0  0
 41110  1  0  0  0
 41111  1  0  0  0
 41112  1  0  0  0
 41 48  1  0  0  0
 42 43  1  0  0  0
 42 66  1  0  0  0
 42113  1  0  0  0
 42114  1  0  0  0
 43 44  1  0  0  0
 44115  1  0  0  0
 45 46  2  0  0  0
 45116  1  0  0  0
 46117  1  0  0  0
 47118  1  0  0  0
 47119  1  0  0  0
 48 56  1  0  0  0
 48 65  1  0  0  0
 48120  1  0  0  0
 49 50  1  0  0  0
 49 53  1  0  0  0
 49 64  1  0  0  0
 49121  1  0  0  0
 50 51  1  0  0  0
 50122  1  0  0  0
 50123  1  0  0  0
 51 52  1  0  0  0
 51124  1  0  0  0
 51125  1  0  0  0
 52126  1  0  0  0
 52127  1  0  0  0
 53 54  1  0  0  0
 54 55  2  0  0  0
 54128  1  0  0  0
 55 57  1  0  0  0
 55129  1  0  0  0
 56 69  2  0  0  0
 57 58  2  0  0  0
 57130  1  0  0  0
 58131  1  0  0  0
 59 60  1  0  0  0
 59 61  1  0  0  0
 59 62  1  0  0  0
 60132  1  0  0  0
 60133  1  0  0  0
 60134  1  0  0  0
 61135  1  0  0  0
 61136  1  0  0  0
 61137  1  0  0  0
 62138  1  0  0  0
 62139  1  0  0  0
 62140  1  0  0  0
 63 65  1  0  0  0
 63141  1  0  0  0
 63142  1  0  0  0
 63143  1  0  0  0
 64144  1  0  0  0
 65145  1  0  0  0
 68 79  1  0  0  0
 71 72  2  0  0  0
 71 75  1  0  0  0
 71146  1  0  0  0
 72 76  1  0  0  0
 72147  1  0  0  0
 73 74  1  0  0  0
 73 75  2  0  0  0
 73148  1  0  0  0
 74 76  2  0  0  0
 74 80  1  0  0  0
 75 82  1  0  0  0
 76 81  1  0  0  0
 77 78  1  0  0  0
 77 81  1  0  0  0
 77 83  2  0  0  0
 78 79  1  0  0  0
 78149  1  0  0  0
 78150  1  0  0  0
 79151  1  0  0  0
 79152  1  0  0  0
 80 84  1  0  0  0
 80 85  1  0  0  0
 80 86  1  0  0  0
 81153  1  0  0  0
 82154  1  0  0  0
M  ISO  4   1 100  68 101  79 101  82 100
M  END
> <chiral flag>
0

> <version>
0

> <s_m_source_file>
/data/baiqing/PycharmProjects/Reinvent-master-3.2/result/LINK_invent/BTK/process_docking_weight1_custom_product_contain_oxygen_bond_distance_aromatic_linkinvent_7_9_3/rearranged_h_0058.sdf

> <i_m_source_file_index>
63

> <r_mmod_Potential_Energy-OPLS-2005>
26.3503074645996

> <r_mmod_Stretch_Energy-OPLS-2005>
76.8716812133789

> <r_mmod_Bend_Energy-OPLS-2005>
135.76953125

> <r_mmod_Torsional_Energy-OPLS-2005>
221.412170410156

> <r_mmod_Improper_Torsional_Energy-OPLS-2005>
4.8194465637207

> <r_mmod_Van_der_Waal_Energy-OPLS-2005>
151.664398193359

> <r_mmod_Electrostatic_Energy-OPLS-2005>
-387.115539550781

> <r_mmod_Solvation_Energy-OPLS-2005>
-221.667892456055

> <b_mmod_Minimization_Converged-OPLS-2005>
0

> <r_mmod_RMS_Derivative-OPLS-2005>
1.70327544212341

$$$$
63
                    3D
 Structure written by MMmdl.
158166  0  0  1  0            999 V2000
  -30.7223  -14.3995   20.6553 C   0  0  0  0  0  0
  -30.4206  -12.2930   19.4019 C   0  0  0  0  0  0
  -29.4849  -12.5231   18.1978 C   0  0  0  0  0  0
  -28.0073  -12.3822   18.6114 C   0  0  0  0  0  0
  -27.6650  -13.1984   19.8857 C   0  0  2  0  0  0
  -28.7029  -12.9250   20.9970 C   0  0  0  0  0  0
  -25.2588  -13.8147   20.5675 C   0  0  0  0  0  0
  -24.1835  -13.0433   20.9177 C   0  0  0  0  0  0
  -24.6382  -11.6897   20.8735 C   0  0  0  0  0  0
  -23.9050  -10.4289   21.0400 C   0  0  0  0  0  0
  -24.3608   -9.4204   21.9176 C   0  0  0  0  0  0
  -23.6293   -8.2233   22.0749 C   0  0  0  0  0  0
  -22.4272   -8.0272   21.3545 C   0  0  0  0  0  0
  -21.9907   -9.0238   20.4641 C   0  0  0  0  0  0
  -22.7222  -10.2126   20.3055 C   0  0  0  0  0  0
  -21.6855   -6.0736   22.5286 C   0  0  0  0  0  0
  -21.4012   -6.5642   23.8217 C   0  0  0  0  0  0
  -21.3663   -5.6795   24.9178 C   0  0  0  0  0  0
  -21.6049   -4.3057   24.7228 C   0  0  0  0  0  0
  -21.8817   -3.8150   23.4348 C   0  0  0  0  0  0
  -21.9190   -4.6967   22.3405 C   0  0  0  0  0  0
  -22.7859  -13.5227   21.1839 C   0  0  0  0  0  0
  -22.1650   -4.2156   21.0977 F   0  0  0  0  0  0
  -21.5637   -3.4539   25.7744 F   0  0  0  0  0  0
  -30.0399  -13.2400   20.4598 N   0  0  0  0  0  0
  -26.3029  -12.9302   20.3416 N   0  0  0  0  0  0
  -25.9309  -11.6463   20.5791 N   0  0  0  0  0  0
  -22.0507  -12.8218   22.0396 N   0  0  0  0  0  0
  -25.4332  -15.1861   20.4060 N   0  0  0  0  0  0
  -31.7914  -14.6493   20.0890 O   0  0  0  0  0  0
  -21.6637   -6.8872   21.4246 O   0  0  0  0  0  0
  -22.3545  -14.5533   20.6691 O   0  0  0  0  0  0
  -24.6127  -31.8697   23.2120 C   0  0  0  0  0  0
  -25.9028  -32.4838   23.8407 C   0  0  1  0  0  0
  -27.2273  -27.4553   20.0933 C   0  0  0  0  0  0
  -25.5894  -33.8635   24.2336 N   0  0  0  0  0  0
  -23.3995  -30.4939   21.5523 C   0  0  2  0  0  0
  -24.8460  -28.9657   20.1117 C   0  0  0  0  0  0
  -22.7406  -29.4661   22.4997 C   0  0  0  0  0  0
  -18.0271  -28.1377   22.8497 C   0  0  0  0  0  0
  -24.1487  -36.7322   23.2632 C   0  0  0  0  0  0
  -25.9267  -30.8426   21.3613 C   0  0  0  0  0  0
  -26.0055  -29.4790   20.7082 C   0  0  0  0  0  0
  -27.2035  -28.7310   20.6954 C   0  0  0  0  0  0
  -26.0571  -26.9544   19.4844 C   0  0  0  0  0  0
  -24.8655  -27.7018   19.4961 C   0  0  0  0  0  0
  -23.6063  -29.8291   20.1652 C   0  0  0  0  0  0
  -25.4106  -36.3120   24.0336 C   0  0  1  0  0  0
  -20.5861  -28.3653   23.1328 C   0  0  2  0  0  0
  -20.6763  -26.9391   22.5419 C   0  0  0  0  0  0
  -19.5741  -26.6384   21.5215 C   0  0  0  0  0  0
  -18.1918  -26.7926   22.1623 C   0  0  0  0  0  0
  -19.1519  -28.8831   23.2915 C   0  0  0  0  0  0
  -18.9449  -30.1440   23.8923 C   0  0  0  0  0  0
  -17.6451  -30.6580   24.0568 C   0  0  0  0  0  0
  -25.9033  -34.9484   23.5135 C   0  0  0  0  0  0
  -16.5343  -29.9085   23.6325 C   0  0  0  0  0  0
  -16.7262  -28.6504   23.0345 C   0  0  0  0  0  0
  -26.4465  -31.6612   25.0725 C   0  0  0  0  0  0
  -25.3747  -31.3718   26.1488 C   0  0  0  0  0  0
  -27.0268  -30.3055   24.6070 C   0  0  0  0  0  0
  -27.6050  -32.4326   25.7479 C   0  0  0  0  0  0
  -27.5595  -37.1797   24.8449 C   0  0  0  0  0  0
  -21.4135  -29.3026   22.3738 N   0  0  0  0  0  0
  -26.4288  -37.3810   23.9424 N   0  0  0  0  0  0
  -24.6647  -31.0819   22.1008 N   0  0  0  0  0  0
  -23.4190  -28.8193   23.3019 O   0  0  0  0  0  0
  -28.3709  -26.6966   20.1020 O   0  0  0  0  0  0
  -26.5593  -34.8934   22.4692 O   0  0  0  0  0  0
  -23.5326  -32.1433   23.7530 O   0  0  0  0  0  0
  -32.0521  -18.4237   22.1439 C   0  0  0  0  0  0
  -29.6741  -18.9211   22.1597 C   0  0  0  0  0  0
  -31.7756  -17.0731   21.8600 C   0  0  0  0  0  0
  -29.3922  -17.5655   21.8886 C   0  0  0  0  0  0
  -31.0095  -19.3625   22.2917 C   0  0  0  0  0  0
  -30.4405  -16.6336   21.7192 C   0  0  0  0  0  0
  -31.3741  -20.7490   22.6316 C   0  0  0  0  0  0
  -30.9581  -21.9221   22.1031 C   0  0  0  0  0  0
  -29.2113  -24.4114   20.4482 C   0  0  0  0  0  0
  -31.4965  -23.2280   22.6704 C   0  0  0  0  0  0
  -29.9891  -22.0734   20.9281 C   0  0  0  0  0  0
  -28.2466  -25.5133   20.9071 C   0  0  0  0  0  0
  -30.1082  -15.2742   21.4726 N   0  0  0  0  0  0
  -29.1055  -23.2327   21.0834 N   0  0  0  0  0  0
  -30.0422  -24.6219   19.5606 O   0  0  0  0  0  0
  -31.4624  -12.4045   19.0964 H   0  0  0  0  0  0
  -30.3300  -11.2699   19.7706 H   0  0  0  0  0  0
  -29.7179  -11.8191   17.3978 H   0  0  0  0  0  0
  -29.6538  -13.5186   17.7862 H   0  0  0  0  0  0
  -27.8092  -11.3241   18.7839 H   0  0  0  0  0  0
  -27.3569  -12.6803   17.7879 H   0  0  0  0  0  0
  -27.7257  -14.2548   19.6234 H   0  0  0  0  0  0
  -28.6717  -11.8738   21.2855 H   0  0  0  0  0  0
  -28.4537  -13.4715   21.9068 H   0  0  0  0  0  0
  -25.2754   -9.5678   22.4743 H   0  0  0  0  0  0
  -24.0012   -7.4628   22.7465 H   0  0  0  0  0  0
  -21.0839   -8.8738   19.8949 H   0  0  0  0  0  0
  -22.3669  -10.9655   19.6158 H   0  0  0  0  0  0
  -21.1994   -7.6153   23.9723 H   0  0  0  0  0  0
  -21.1493   -6.0525   25.9083 H   0  0  0  0  0  0
  -22.0597   -2.7613   23.2845 H   0  0  0  0  0  0
  -22.4139  -11.9877   22.4768 H   0  0  0  0  0  0
  -21.1137  -13.1247   22.2634 H   0  0  0  0  0  0
  -24.6690  -15.8450   20.5122 H   0  0  0  0  0  0
  -26.2904  -15.6211   20.0863 H   0  0  0  0  0  0
  -26.7100  -32.5558   23.1175 H   0  0  0  0  0  0
  -25.0069  -33.9812   25.0495 H   0  0  0  0  0  0
  -22.6872  -31.3099   21.4154 H   0  0  0  0  0  0
  -23.3757  -35.9644   23.3270 H   0  0  0  0  0  0
  -24.3593  -36.8961   22.2049 H   0  0  0  0  0  0
  -23.7221  -37.6512   23.6659 H   0  0  0  0  0  0
  -26.0333  -31.6092   20.5925 H   0  0  0  0  0  0
  -26.8169  -30.8979   21.9761 H   0  0  0  0  0  0
  -28.0997  -29.1196   21.1584 H   0  0  0  0  0  0
  -26.0655  -25.9852   19.0051 H   0  0  0  0  0  0
  -23.9753  -27.3035   19.0287 H   0  0  0  0  0  0
  -23.7109  -30.6055   19.4065 H   0  0  0  0  0  0
  -22.7312  -29.2475   19.8700 H   0  0  0  0  0  0
  -25.1277  -36.1981   25.0822 H   0  0  0  0  0  0
  -20.9961  -28.3209   24.1445 H   0  0  0  0  0  0
  -20.5667  -26.2256   23.3600 H   0  0  0  0  0  0
  -21.6635  -26.7435   22.1204 H   0  0  0  0  0  0
  -19.6901  -25.6297   21.1230 H   0  0  0  0  0  0
  -19.6691  -27.3211   20.6757 H   0  0  0  0  0  0
  -17.4193  -26.6687   21.4017 H   0  0  0  0  0  0
  -18.0310  -26.0060   22.9008 H   0  0  0  0  0  0
  -19.7923  -30.7253   24.2305 H   0  0  0  0  0  0
  -17.5002  -31.6265   24.5159 H   0  0  0  0  0  0
  -15.5344  -30.2995   23.7633 H   0  0  0  0  0  0
  -15.8663  -28.0833   22.7045 H   0  0  0  0  0  0
  -24.5904  -30.7081   25.7833 H   0  0  0  0  0  0
  -24.8963  -32.2877   26.4968 H   0  0  0  0  0  0
  -25.8113  -30.8866   27.0226 H   0  0  0  0  0  0
  -26.2783  -29.6845   24.1136 H   0  0  0  0  0  0
  -27.4052  -29.7268   25.4502 H   0  0  0  0  0  0
  -27.8618  -30.4374   23.9188 H   0  0  0  0  0  0
  -27.2675  -33.3613   26.2097 H   0  0  0  0  0  0
  -28.3839  -32.6915   25.0292 H   0  0  0  0  0  0
  -28.0745  -31.8432   26.5364 H   0  0  0  0  0  0
  -28.2562  -38.0145   24.7579 H   0  0  0  0  0  0
  -28.1143  -36.2684   24.6161 H   0  0  0  0  0  0
  -27.2331  -37.1308   25.8852 H   0  0  0  0  0  0
  -20.9282  -29.8767   21.6983 H   0  0  0  0  0  0
  -26.0175  -38.2873   24.1488 H   0  0  0  0  0  0
  -33.0803  -18.7362   22.2610 H   0  0  0  0  0  0
  -28.8521  -19.6089   22.3051 H   0  0  0  0  0  0
  -32.6003  -16.3801   21.7714 H   0  0  0  0  0  0
  -28.3604  -17.2506   21.8138 H   0  0  0  0  0  0
  -32.0773  -20.8118   23.4505 H   0  0  0  0  0  0
  -32.2967  -23.0579   23.3910 H   0  0  0  0  0  0
  -30.7090  -23.7858   23.1788 H   0  0  0  0  0  0
  -31.9002  -23.8498   21.8706 H   0  0  0  0  0  0
  -29.3756  -21.1854   20.7943 H   0  0  0  0  0  0
  -30.5809  -22.1643   20.0151 H   0  0  0  0  0  0
  -28.4770  -25.7715   21.9416 H   0  0  0  0  0  0
  -27.2373  -25.0980   20.9022 H   0  0  0  0  0  0
  -29.2138  -14.9631   21.8191 H   0  0  0  0  0  0
  -28.3841  -23.1575   21.7893 H   0  0  0  0  0  0
  1 25  1  0  0  0
  1 30  2  0  0  0
  1 83  1  0  0  0
  2  3  1  0  0  0
  2 25  1  0  0  0
  2 86  1  0  0  0
  2 87  1  0  0  0
  3  4  1  0  0  0
  3 88  1  0  0  0
  3 89  1  0  0  0
  4  5  1  0  0  0
  4 90  1  0  0  0
  4 91  1  0  0  0
  5  6  1  0  0  0
  5 26  1  0  0  0
  5 92  1  0  0  0
  6 25  1  0  0  0
  6 93  1  0  0  0
  6 94  1  0  0  0
  7  8  2  0  0  0
  7 26  1  0  0  0
  7 29  1  0  0  0
  8  9  1  0  0  0
  8 22  1  0  0  0
  9 10  1  0  0  0
  9 27  2  0  0  0
 10 11  2  0  0  0
 10 15  1  0  0  0
 11 12  1  0  0  0
 11 95  1  0  0  0
 12 13  2  0  0  0
 12 96  1  0  0  0
 13 14  1  0  0  0
 13 31  1  0  0  0
 14 15  2  0  0  0
 14 97  1  0  0  0
 15 98  1  0  0  0
 16 17  2  0  0  0
 16 21  1  0  0  0
 16 31  1  0  0  0
 17 18  1  0  0  0
 17 99  1  0  0  0
 18 19  2  0  0  0
 18100  1  0  0  0
 19 20  1  0  0  0
 19 24  1  0  0  0
 20 21  2  0  0  0
 20101  1  0  0  0
 21 23  1  0  0  0
 22 28  1  0  0  0
 22 32  2  0  0  0
 26 27  1  0  0  0
 28102  1  0  0  0
 28103  1  0  0  0
 29104  1  0  0  0
 29105  1  0  0  0
 33 34  1  0  0  0
 33 66  1  0  0  0
 33 70  2  0  0  0
 34 36  1  0  0  0
 34 59  1  0  0  0
 34106  1  0  0  0
 35 44  2  0  0  0
 35 45  1  0  0  0
 35 68  1  0  0  0
 36 56  1  0  0  0
 36107  1  0  0  0
 37 39  1  0  0  0
 37 47  1  0  0  0
 37 66  1  0  0  0
 37108  1  0  0  0
 38 43  2  0  0  0
 38 46  1  0  0  0
 38 47  1  0  0  0
 39 64  1  0  0  0
 39 67  2  0  0  0
 40 52  1  0  0  0
 40 53  2  0  0  0
 40 58  1  0  0  0
 41109  1  0  0  0
 41110  1  0  0  0
 41111  1  0  0  0
 41 48  1  0  0  0
 42 43  1  0  0  0
 42 66  1  0  0  0
 42112  1  0  0  0
 42113  1  0  0  0
 43 44  1  0  0  0
 44114  1  0  0  0
 45 46  2  0  0  0
 45115  1  0  0  0
 46116  1  0  0  0
 47117  1  0  0  0
 47118  1  0  0  0
 48 56  1  0  0  0
 48 65  1  0  0  0
 48119  1  0  0  0
 49 50  1  0  0  0
 49 53  1  0  0  0
 49 64  1  0  0  0
 49120  1  0  0  0
 50 51  1  0  0  0
 50121  1  0  0  0
 50122  1  0  0  0
 51 52  1  0  0  0
 51123  1  0  0  0
 51124  1  0  0  0
 52125  1  0  0  0
 52126  1  0  0  0
 53 54  1  0  0  0
 54 55  2  0  0  0
 54127  1  0  0  0
 55 57  1  0  0  0
 55128  1  0  0  0
 56 69  2  0  0  0
 57 58  2  0  0  0
 57129  1  0  0  0
 58130  1  0  0  0
 59 60  1  0  0  0
 59 61  1  0  0  0
 59 62  1  0  0  0
 60131  1  0  0  0
 60132  1  0  0  0
 60133  1  0  0  0
 61134  1  0  0  0
 61135  1  0  0  0
 61136  1  0  0  0
 62137  1  0  0  0
 62138  1  0  0  0
 62139  1  0  0  0
 63 65  1  0  0  0
 63140  1  0  0  0
 63141  1  0  0  0
 63142  1  0  0  0
 64143  1  0  0  0
 65144  1  0  0  0
 68 82  1  0  0  0
 71 73  2  0  0  0
 71 75  1  0  0  0
 71145  1  0  0  0
 72 74  1  0  0  0
 72 75  2  0  0  0
 72146  1  0  0  0
 73 76  1  0  0  0
 73147  1  0  0  0
 74 76  2  0  0  0
 74148  1  0  0  0
 75 77  1  0  0  0
 76 83  1  0  0  0
 77 78  2  0  0  0
 77149  1  0  0  0
 78 80  1  0  0  0
 78 81  1  0  0  0
 79 82  1  0  0  0
 79 84  1  0  0  0
 79 85  2  0  0  0
 80150  1  0  0  0
 80151  1  0  0  0
 80152  1  0  0  0
 81 84  1  0  0  0
 81153  1  0  0  0
 81154  1  0  0  0
 82155  1  0  0  0
 82156  1  0  0  0
 83157  1  0  0  0
 84158  1  0  0  0
M  ISO  4   1 100  68 101  82 101  83 100
M  END
> <chiral flag>
0

> <version>
0

> <s_m_source_file>
/data/baiqing/PycharmProjects/Reinvent-master-3.2/result/LINK_invent/BTK/process_docking_weight1_custom_product_contain_oxygen_bond_distance_aromatic_linkinvent_7_9_3/rearranged_h_0058.sdf

> <i_m_source_file_index>
64

> <r_mmod_Potential_Energy-OPLS-2005>
-96.6873474121094

> <r_mmod_Stretch_Energy-OPLS-2005>
33.8863182067871

> <r_mmod_Bend_Energy-OPLS-2005>
96.5085983276367

> <r_mmod_Torsional_Energy-OPLS-2005>
249.211929321289

> <r_mmod_Improper_Torsional_Energy-OPLS-2005>
2.7267062664032

> <r_mmod_Van_der_Waal_Energy-OPLS-2005>
161.448028564453

> <r_mmod_Electrostatic_Energy-OPLS-2005>
-406.521667480469

> <r_mmod_Solvation_Energy-OPLS-2005>
-242.388748168945

> <b_mmod_Minimization_Converged-OPLS-2005>
0

> <r_mmod_RMS_Derivative-OPLS-2005>
1.68399322032928

$$$$
64
                    3D
 Structure written by MMmdl.
155163  0  0  1  0            999 V2000
  -30.6887  -14.4698   20.5844 C   0  0  0  0  0  0
  -30.4269  -12.3066   19.4230 C   0  0  0  0  0  0
  -29.4985  -12.5068   18.2068 C   0  0  0  0  0  0
  -28.0180  -12.3651   18.6154 C   0  0  0  0  0  0
  -27.6620  -13.2014   19.8738 C   0  0  2  0  0  0
  -28.7010  -12.9722   20.9950 C   0  0  0  0  0  0
  -25.2595  -13.8151   20.5674 C   0  0  0  0  0  0
  -24.1840  -13.0435   20.9174 C   0  0  0  0  0  0
  -24.6376  -11.6897   20.8715 C   0  0  0  0  0  0
  -23.9037  -10.4288   21.0389 C   0  0  0  0  0  0
  -24.3594   -9.4212   21.9175 C   0  0  0  0  0  0
  -23.6277   -8.2246   22.0752 C   0  0  0  0  0  0
  -22.4262   -8.0276   21.3543 C   0  0  0  0  0  0
  -21.9886   -9.0244   20.4644 C   0  0  0  0  0  0
  -22.7205  -10.2129   20.3045 C   0  0  0  0  0  0
  -21.6854   -6.0727   22.5276 C   0  0  0  0  0  0
  -21.4016   -6.5633   23.8209 C   0  0  0  0  0  0
  -21.3661   -5.6785   24.9171 C   0  0  0  0  0  0
  -21.6047   -4.3049   24.7222 C   0  0  0  0  0  0
  -21.8819   -3.8140   23.4343 C   0  0  0  0  0  0
  -21.9193   -4.6956   22.3399 C   0  0  0  0  0  0
  -22.7868  -13.5251   21.1835 C   0  0  0  0  0  0
  -22.1661   -4.2142   21.0977 F   0  0  0  0  0  0
  -21.5630   -3.4533   25.7736 F   0  0  0  0  0  0
  -30.0333  -13.2844   20.4486 N   0  0  0  0  0  0
  -26.3014  -12.9305   20.3332 N   0  0  0  0  0  0
  -25.9297  -11.6470   20.5725 N   0  0  0  0  0  0
  -22.0496  -12.8252   22.0387 N   0  0  0  0  0  0
  -25.4339  -15.1870   20.4091 N   0  0  0  0  0  0
  -31.8136  -14.6649   20.1143 O   0  0  0  0  0  0
  -21.6636   -6.8868   21.4238 O   0  0  0  0  0  0
  -22.3564  -14.5554   20.6672 O   0  0  0  0  0  0
  -24.6138  -31.8681   23.2090 C   0  0  0  0  0  0
  -25.9033  -32.4824   23.8390 C   0  0  1  0  0  0
  -27.2378  -27.4381   20.1068 C   0  0  0  0  0  0
  -25.5891  -33.8621   24.2326 N   0  0  0  0  0  0
  -23.4024  -30.4894   21.5496 C   0  0  2  0  0  0
  -24.8512  -28.9508   20.1184 C   0  0  0  0  0  0
  -22.7410  -29.4654   22.4998 C   0  0  0  0  0  0
  -18.0277  -28.1366   22.8495 C   0  0  0  0  0  0
  -24.1486  -36.7316   23.2640 C   0  0  0  0  0  0
  -25.9292  -30.8361   21.3599 C   0  0  0  0  0  0
  -26.0092  -29.4683   20.7123 C   0  0  0  0  0  0
  -27.2082  -28.7201   20.6999 C   0  0  0  0  0  0
  -26.0657  -26.9295   19.5104 C   0  0  0  0  0  0
  -24.8738  -27.6807   19.5131 C   0  0  0  0  0  0
  -23.6120  -29.8172   20.1655 C   0  0  0  0  0  0
  -25.4106  -36.3115   24.0344 C   0  0  1  0  0  0
  -20.5867  -28.3655   23.1325 C   0  0  2  0  0  0
  -20.6775  -26.9393   22.5413 C   0  0  0  0  0  0
  -19.5753  -26.6385   21.5207 C   0  0  0  0  0  0
  -18.1927  -26.7918   22.1614 C   0  0  0  0  0  0
  -19.1525  -28.8825   23.2908 C   0  0  0  0  0  0
  -18.9450  -30.1427   23.8925 C   0  0  0  0  0  0
  -17.6453  -30.6571   24.0571 C   0  0  0  0  0  0
  -25.9031  -34.9480   23.5132 C   0  0  0  0  0  0
  -16.5344  -29.9078   23.6320 C   0  0  0  0  0  0
  -16.7266  -28.6494   23.0343 C   0  0  0  0  0  0
  -26.4468  -31.6598   25.0711 C   0  0  0  0  0  0
  -25.3740  -31.3691   26.1463 C   0  0  0  0  0  0
  -27.0295  -30.3048   24.6060 C   0  0  0  0  0  0
  -27.6052  -32.4309   25.7471 C   0  0  0  0  0  0
  -27.5582  -37.1812   24.8469 C   0  0  0  0  0  0
  -21.4138  -29.3036   22.3745 N   0  0  0  0  0  0
  -26.4294  -37.3796   23.9410 N   0  0  0  0  0  0
  -24.6668  -31.0786   22.0985 N   0  0  0  0  0  0
  -23.4185  -28.8197   23.3040 O   0  0  0  0  0  0
  -28.4036  -26.7074   20.0837 O   0  0  0  0  0  0
  -26.5596  -34.8937   22.4696 O   0  0  0  0  0  0
  -23.5330  -32.1429   23.7484 O   0  0  0  0  0  0
  -31.6602  -18.8260   21.2914 C   0  0  0  0  0  0
  -31.4804  -17.4261   21.2988 C   0  0  0  0  0  0
  -30.5581  -19.6903   21.1211 C   0  0  0  0  0  0
  -29.0868  -17.7419   20.9901 C   0  0  0  0  0  0
  -30.1906  -16.8659   21.1341 C   0  0  0  0  0  0
  -29.2687  -19.1452   20.9725 C   0  0  0  0  0  0
  -28.4088  -24.2107   20.0340 C   0  0  0  0  0  0
  -28.5918  -22.9203   20.8776 C   0  0  0  0  0  0
  -28.4061  -25.5091   20.8763 C   0  0  0  0  0  0
  -29.9551  -15.4542   21.1473 N   0  0  0  0  0  0
  -28.3871  -21.7071   20.0572 N   0  0  0  0  0  0
  -27.0088  -19.5895   19.6381 O   0  0  0  0  0  0
  -27.2016  -20.4914   22.0039 O   0  0  0  0  0  0
  -27.8229  -20.1986   20.7017 S   0  0  0  0  0  0
  -31.4715  -12.4108   19.1247 H   0  0  0  0  0  0
  -30.3313  -11.2940   19.8175 H   0  0  0  0  0  0
  -29.7407  -11.7835   17.4271 H   0  0  0  0  0  0
  -29.6681  -13.4941   17.7734 H   0  0  0  0  0  0
  -27.8292  -11.3083   18.8081 H   0  0  0  0  0  0
  -27.3698  -12.6427   17.7833 H   0  0  0  0  0  0
  -27.7096  -14.2500   19.5801 H   0  0  0  0  0  0
  -28.6785  -11.9324   21.3252 H   0  0  0  0  0  0
  -28.4562  -13.5594   21.8812 H   0  0  0  0  0  0
  -25.2737   -9.5700   22.4747 H   0  0  0  0  0  0
  -23.9991   -7.4645   22.7473 H   0  0  0  0  0  0
  -21.0817   -8.8748   19.8952 H   0  0  0  0  0  0
  -22.3651  -10.9662   19.6153 H   0  0  0  0  0  0
  -21.2009   -7.6142   23.9708 H   0  0  0  0  0  0
  -21.1486   -6.0518   25.9073 H   0  0  0  0  0  0
  -22.0596   -2.7602   23.2843 H   0  0  0  0  0  0
  -22.4099  -11.9915   22.4785 H   0  0  0  0  0  0
  -21.1117  -13.1295   22.2579 H   0  0  0  0  0  0
  -24.6635  -15.8399   20.5057 H   0  0  0  0  0  0
  -26.2716  -15.6172   20.0394 H   0  0  0  0  0  0
  -26.7109  -32.5547   23.1162 H   0  0  0  0  0  0
  -25.0052  -33.9785   25.0478 H   0  0  0  0  0  0
  -22.6901  -31.3052   21.4088 H   0  0  0  0  0  0
  -23.3746  -35.9652   23.3313 H   0  0  0  0  0  0
  -24.3574  -36.8911   22.2050 H   0  0  0  0  0  0
  -23.7242  -37.6530   23.6639 H   0  0  0  0  0  0
  -26.0357  -31.5989   20.5874 H   0  0  0  0  0  0
  -26.8190  -30.8956   21.9746 H   0  0  0  0  0  0
  -28.1058  -29.1174   21.1530 H   0  0  0  0  0  0
  -26.0756  -25.9587   19.0369 H   0  0  0  0  0  0
  -23.9848  -27.2764   19.0483 H   0  0  0  0  0  0
  -23.7195  -30.5900   19.4035 H   0  0  0  0  0  0
  -22.7368  -29.2349   19.8723 H   0  0  0  0  0  0
  -25.1281  -36.1987   25.0839 H   0  0  0  0  0  0
  -20.9954  -28.3216   24.1447 H   0  0  0  0  0  0
  -20.5684  -26.2248   23.3588 H   0  0  0  0  0  0
  -21.6646  -26.7449   22.1200 H   0  0  0  0  0  0
  -19.6911  -25.6306   21.1210 H   0  0  0  0  0  0
  -19.6694  -27.3212   20.6752 H   0  0  0  0  0  0
  -17.4203  -26.6682   21.4008 H   0  0  0  0  0  0
  -18.0326  -26.0044   22.8993 H   0  0  0  0  0  0
  -19.7926  -30.7236   24.2310 H   0  0  0  0  0  0
  -17.5010  -31.6251   24.5176 H   0  0  0  0  0  0
  -15.5345  -30.2987   23.7626 H   0  0  0  0  0  0
  -15.8671  -28.0818   22.7038 H   0  0  0  0  0  0
  -24.5912  -30.7043   25.7795 H   0  0  0  0  0  0
  -24.8934  -32.2841   26.4936 H   0  0  0  0  0  0
  -25.8098  -30.8842   27.0206 H   0  0  0  0  0  0
  -26.2828  -29.6813   24.1127 H   0  0  0  0  0  0
  -27.4101  -29.7277   25.4496 H   0  0  0  0  0  0
  -27.8647  -30.4382   23.9178 H   0  0  0  0  0  0
  -27.2681  -33.3596   26.2089 H   0  0  0  0  0  0
  -28.3840  -32.6885   25.0281 H   0  0  0  0  0  0
  -28.0747  -31.8406   26.5351 H   0  0  0  0  0  0
  -28.2613  -38.0097   24.7508 H   0  0  0  0  0  0
  -28.1062  -36.2629   24.6302 H   0  0  0  0  0  0
  -27.2298  -37.1482   25.8872 H   0  0  0  0  0  0
  -20.9289  -29.8773   21.6987 H   0  0  0  0  0  0
  -26.0188  -38.2880   24.1397 H   0  0  0  0  0  0
  -32.6517  -19.2385   21.4139 H   0  0  0  0  0  0
  -32.3461  -16.7925   21.4360 H   0  0  0  0  0  0
  -30.7018  -20.7602   21.1086 H   0  0  0  0  0  0
  -28.0865  -17.3521   20.8723 H   0  0  0  0  0  0
  -27.4753  -24.1487   19.4756 H   0  0  0  0  0  0
  -29.2041  -24.2710   19.2906 H   0  0  0  0  0  0
  -27.8700  -22.9265   21.6958 H   0  0  0  0  0  0
  -29.5818  -22.8924   21.3344 H   0  0  0  0  0  0
  -27.5742  -25.4956   21.5837 H   0  0  0  0  0  0
  -29.3106  -25.5358   21.4849 H   0  0  0  0  0  0
  -29.0302  -15.1612   21.4231 H   0  0  0  0  0  0
  -29.0018  -21.5918   19.2476 H   0  0  0  0  0  0
  1 25  1  0  0  0
  1 30  2  0  0  0
  1 80  1  0  0  0
  2  3  1  0  0  0
  2 25  1  0  0  0
  2 85  1  0  0  0
  2 86  1  0  0  0
  3  4  1  0  0  0
  3 87  1  0  0  0
  3 88  1  0  0  0
  4  5  1  0  0  0
  4 89  1  0  0  0
  4 90  1  0  0  0
  5  6  1  0  0  0
  5 26  1  0  0  0
  5 91  1  0  0  0
  6 25  1  0  0  0
  6 92  1  0  0  0
  6 93  1  0  0  0
  7  8  2  0  0  0
  7 26  1  0  0  0
  7 29  1  0  0  0
  8  9  1  0  0  0
  8 22  1  0  0  0
  9 10  1  0  0  0
  9 27  2  0  0  0
 10 11  2  0  0  0
 10 15  1  0  0  0
 11 12  1  0  0  0
 11 94  1  0  0  0
 12 13  2  0  0  0
 12 95  1  0  0  0
 13 14  1  0  0  0
 13 31  1  0  0  0
 14 15  2  0  0  0
 14 96  1  0  0  0
 15 97  1  0  0  0
 16 17  2  0  0  0
 16 21  1  0  0  0
 16 31  1  0  0  0
 17 18  1  0  0  0
 17 98  1  0  0  0
 18 19  2  0  0  0
 18 99  1  0  0  0
 19 20  1  0  0  0
 19 24  1  0  0  0
 20 21  2  0  0  0
 20100  1  0  0  0
 21 23  1  0  0  0
 22 28  1  0  0  0
 22 32  2  0  0  0
 26 27  1  0  0  0
 28101  1  0  0  0
 28102  1  0  0  0
 29103  1  0  0  0
 29104  1  0  0  0
 33 34  1  0  0  0
 33 66  1  0  0  0
 33 70  2  0  0  0
 34 36  1  0  0  0
 34 59  1  0  0  0
 34105  1  0  0  0
 35 44  2  0  0  0
 35 45  1  0  0  0
 35 68  1  0  0  0
 36 56  1  0  0  0
 36106  1  0  0  0
 37 39  1  0  0  0
 37 47  1  0  0  0
 37 66  1  0  0  0
 37107  1  0  0  0
 38 43  2  0  0  0
 38 46  1  0  0  0
 38 47  1  0  0  0
 39 64  1  0  0  0
 39 67  2  0  0  0
 40 52  1  0  0  0
 40 53  2  0  0  0
 40 58  1  0  0  0
 41108  1  0  0  0
 41109  1  0  0  0
 41110  1  0  0  0
 41 48  1  0  0  0
 42 43  1  0  0  0
 42 66  1  0  0  0
 42111  1  0  0  0
 42112  1  0  0  0
 43 44  1  0  0  0
 44113  1  0  0  0
 45 46  2  0  0  0
 45114  1  0  0  0
 46115  1  0  0  0
 47116  1  0  0  0
 47117  1  0  0  0
 48 56  1  0  0  0
 48 65  1  0  0  0
 48118  1  0  0  0
 49 50  1  0  0  0
 49 53  1  0  0  0
 49 64  1  0  0  0
 49119  1  0  0  0
 50 51  1  0  0  0
 50120  1  0  0  0
 50121  1  0  0  0
 51 52  1  0  0  0
 51122  1  0  0  0
 51123  1  0  0  0
 52124  1  0  0  0
 52125  1  0  0  0
 53 54  1  0  0  0
 54 55  2  0  0  0
 54126  1  0  0  0
 55 57  1  0  0  0
 55127  1  0  0  0
 56 69  2  0  0  0
 57 58  2  0  0  0
 57128  1  0  0  0
 58129  1  0  0  0
 59 60  1  0  0  0
 59 61  1  0  0  0
 59 62  1  0  0  0
 60130  1  0  0  0
 60131  1  0  0  0
 60132  1  0  0  0
 61133  1  0  0  0
 61134  1  0  0  0
 61135  1  0  0  0
 62136  1  0  0  0
 62137  1  0  0  0
 62138  1  0  0  0
 63 65  1  0  0  0
 63139  1  0  0  0
 63140  1  0  0  0
 63141  1  0  0  0
 64142  1  0  0  0
 65143  1  0  0  0
 68 79  1  0  0  0
 71 72  2  0  0  0
 71 73  1  0  0  0
 71144  1  0  0  0
 72 75  1  0  0  0
 72145  1  0  0  0
 73 76  2  0  0  0
 73146  1  0  0  0
 74 75  2  0  0  0
 74 76  1  0  0  0
 74147  1  0  0  0
 75 80  1  0  0  0
 76 84  1  0  0  0
 77 78  1  0  0  0
 77 79  1  0  0  0
 77148  1  0  0  0
 77149  1  0  0  0
 78 81  1  0  0  0
 78150  1  0  0  0
 78151  1  0  0  0
 79152  1  0  0  0
 79153  1  0  0  0
 80154  1  0  0  0
 81155  1  0  0  0
 81 84  1  0  0  0
 82 84  2  0  0  0
 83 84  2  0  0  0
M  ISO  4   1 100  68 101  79 101  80 100
M  END
> <chiral flag>
0

> <version>
0

> <s_m_source_file>
/data/baiqing/PycharmProjects/Reinvent-master-3.2/result/LINK_invent/BTK/process_docking_weight1_custom_product_contain_oxygen_bond_distance_aromatic_linkinvent_7_9_3/rearranged_h_0058.sdf

> <i_m_source_file_index>
65

> <r_mmod_Potential_Energy-OPLS-2005>
-142.399871826172

> <r_mmod_Stretch_Energy-OPLS-2005>
36.7371215820312

> <r_mmod_Bend_Energy-OPLS-2005>
100.441009521484

> <r_mmod_Torsional_Energy-OPLS-2005>
240.951477050781

> <r_mmod_Improper_Torsional_Energy-OPLS-2005>
6.07030773162842

> <r_mmod_Van_der_Waal_Energy-OPLS-2005>
141.311752319336

> <r_mmod_Electrostatic_Energy-OPLS-2005>
-430.218902587891

> <r_mmod_Solvation_Energy-OPLS-2005>
-249.157623291016

> <b_mmod_Minimization_Converged-OPLS-2005>
0

> <r_mmod_RMS_Derivative-OPLS-2005>
0.921369910240173

$$$$
65
                    3D
 Structure written by MMmdl.
149156  0  0  1  0            999 V2000
  -30.5570  -14.8992   20.3832 C   0  0  0  0  0  0
  -30.4446  -12.5444   19.4839 C   0  0  0  0  0  0
  -29.5253  -12.4927   18.2411 C   0  0  0  0  0  0
  -28.0508  -12.3056   18.6582 C   0  0  0  0  0  0
  -27.6359  -13.2435   19.8242 C   0  0  2  0  0  0
  -28.6805  -13.2526   20.9593 C   0  0  0  0  0  0
  -25.2499  -13.8220   20.5631 C   0  0  0  0  0  0
  -24.1832  -13.0462   20.9255 C   0  0  0  0  0  0
  -24.6442  -11.6932   20.8750 C   0  0  0  0  0  0
  -23.9134  -10.4298   21.0398 C   0  0  0  0  0  0
  -24.3658   -9.4188   21.9174 C   0  0  0  0  0  0
  -23.6293   -8.2255   22.0764 C   0  0  0  0  0  0
  -22.4286   -8.0291   21.3546 C   0  0  0  0  0  0
  -21.9920   -9.0276   20.4682 C   0  0  0  0  0  0
  -22.7264  -10.2162   20.3087 C   0  0  0  0  0  0
  -21.6839   -6.0766   22.5317 C   0  0  0  0  0  0
  -21.3990   -6.5659   23.8245 C   0  0  0  0  0  0
  -21.3630   -5.6790   24.9205 C   0  0  0  0  0  0
  -21.5995   -4.3049   24.7258 C   0  0  0  0  0  0
  -21.8823   -3.8158   23.4370 C   0  0  0  0  0  0
  -21.9200   -4.6986   22.3432 C   0  0  0  0  0  0
  -22.7848  -13.5175   21.1857 C   0  0  0  0  0  0
  -22.1702   -4.2176   21.1028 F   0  0  0  0  0  0
  -21.5565   -3.4543   25.7770 F   0  0  0  0  0  0
  -29.9608  -13.6458   20.3599 N   0  0  0  0  0  0
  -26.2918  -12.9444   20.3126 N   0  0  0  0  0  0
  -25.9358  -11.6587   20.5710 N   0  0  0  0  0  0
  -22.0628  -12.8334   22.0626 N   0  0  0  0  0  0
  -25.4103  -15.1924   20.4017 N   0  0  0  0  0  0
  -31.7614  -14.9730   20.1289 O   0  0  0  0  0  0
  -21.6608   -6.8902   21.4277 O   0  0  0  0  0  0
  -22.3436  -14.5363   20.6565 O   0  0  0  0  0  0
  -24.6436  -31.8479   23.1893 C   0  0  0  0  0  0
  -25.9226  -32.4681   23.8254 C   0  0  1  0  0  0
  -27.2243  -27.1582   20.1560 C   0  0  0  0  0  0
  -25.5979  -33.8445   24.2184 N   0  0  0  0  0  0
  -23.4431  -30.4675   21.5400 C   0  0  2  0  0  0
  -24.8936  -28.8871   20.1217 C   0  0  0  0  0  0
  -22.7519  -29.4584   22.4902 C   0  0  0  0  0  0
  -18.0269  -28.1403   22.8445 C   0  0  0  0  0  0
  -24.1498  -36.7213   23.2627 C   0  0  0  0  0  0
  -25.9963  -30.7294   21.3805 C   0  0  0  0  0  0
  -26.0724  -29.3383   20.7282 C   0  0  0  0  0  0
  -27.2433  -28.4926   20.7237 C   0  0  0  0  0  0
  -26.0164  -26.8001   19.5207 C   0  0  0  0  0  0
  -24.8715  -27.6249   19.5082 C   0  0  0  0  0  0
  -23.6696  -29.7887   20.1616 C   0  0  0  0  0  0
  -25.4124  -36.2980   24.0308 C   0  0  1  0  0  0
  -20.5875  -28.3713   23.1230 C   0  0  2  0  0  0
  -20.6746  -26.9417   22.5417 C   0  0  0  0  0  0
  -19.5748  -26.6384   21.5187 C   0  0  0  0  0  0
  -18.1934  -26.7938   22.1616 C   0  0  0  0  0  0
  -19.1530  -28.8881   23.2821 C   0  0  0  0  0  0
  -18.9474  -30.1462   23.8849 C   0  0  0  0  0  0
  -17.6488  -30.6599   24.0550 C   0  0  0  0  0  0
  -25.9076  -34.9366   23.5058 C   0  0  0  0  0  0
  -16.5372  -29.9096   23.6347 C   0  0  0  0  0  0
  -16.7263  -28.6522   23.0354 C   0  0  0  0  0  0
  -26.4552  -31.6541   25.0689 C   0  0  0  0  0  0
  -25.3734  -31.3745   26.1358 C   0  0  0  0  0  0
  -27.0430  -30.2926   24.6261 C   0  0  0  0  0  0
  -27.6080  -32.4281   25.7478 C   0  0  0  0  0  0
  -27.5562  -37.1751   24.8464 C   0  0  0  0  0  0
  -21.4221  -29.3047   22.3622 N   0  0  0  0  0  0
  -26.4271  -37.3714   23.9417 N   0  0  0  0  0  0
  -24.7150  -31.0328   22.0955 N   0  0  0  0  0  0
  -23.4140  -28.8127   23.3084 O   0  0  0  0  0  0
  -28.2933  -26.1953   20.1664 O   0  0  0  0  0  0
  -26.5651  -34.8887   22.4625 O   0  0  0  0  0  0
  -23.5580  -32.1368   23.7150 O   0  0  0  0  0  0
  -28.9680  -23.4846   19.9096 C   0  0  0  0  0  0
  -29.2483  -20.6575   17.9567 C   0  0  0  0  0  0
  -28.0190  -24.7015   20.4867 C   0  0  0  0  0  0
  -30.1173  -17.5789   20.1389 C   0  0  0  0  0  0
  -29.0943  -18.9011   20.3498 C   0  0  0  0  0  0
  -28.7010  -22.0666   20.2748 N   0  0  0  0  0  0
  -29.7699  -16.0721   20.4499 N   0  0  0  0  0  0
  -29.8917  -23.8038   19.1604 O   0  0  0  0  0  0
  -31.0681  -20.8194   19.8870 O   0  0  0  0  0  0
  -29.6028  -20.7686   19.7551 S   0  0  2  0  0  0
  -31.4798  -12.6989   19.1702 H   0  0  0  0  0  0
  -30.4297  -11.5933   20.0180 H   0  0  0  0  0  0
  -29.8404  -11.6778   17.5863 H   0  0  0  0  0  0
  -29.6336  -13.4104   17.6597 H   0  0  0  0  0  0
  -27.9258  -11.2599   18.9501 H   0  0  0  0  0  0
  -27.3984  -12.4519   17.7987 H   0  0  0  0  0  0
  -27.6047  -14.2486   19.3967 H   0  0  0  0  0  0
  -28.7616  -12.2740   21.4308 H   0  0  0  0  0  0
  -28.3967  -13.9507   21.7443 H   0  0  0  0  0  0
  -25.2784   -9.5633   22.4808 H   0  0  0  0  0  0
  -23.9957   -7.4662   22.7530 H   0  0  0  0  0  0
  -21.0809   -8.8828   19.9013 H   0  0  0  0  0  0
  -22.3697  -10.9699   19.6194 H   0  0  0  0  0  0
  -21.1998   -7.6177   23.9779 H   0  0  0  0  0  0
  -21.1415   -6.0521   25.9103 H   0  0  0  0  0  0
  -22.0606   -2.7637   23.2901 H   0  0  0  0  0  0
  -22.4488  -12.0348   22.5421 H   0  0  0  0  0  0
  -21.1299  -13.1462   22.2962 H   0  0  0  0  0  0
  -24.6212  -15.8245   20.5062 H   0  0  0  0  0  0
  -26.2119  -15.6330   19.9674 H   0  0  0  0  0  0
  -26.7271  -32.5319   23.0959 H   0  0  0  0  0  0
  -25.0099  -33.9552   25.0326 H   0  0  0  0  0  0
  -22.7442  -31.2919   21.3779 H   0  0  0  0  0  0
  -23.3761  -35.9545   23.3303 H   0  0  0  0  0  0
  -24.3598  -36.8832   22.2039 H   0  0  0  0  0  0
  -23.7227  -37.6401   23.6658 H   0  0  0  0  0  0
  -26.1419  -31.4879   20.6094 H   0  0  0  0  0  0
  -26.8649  -30.7842   22.0223 H   0  0  0  0  0  0
  -28.1440  -28.8395   21.2086 H   0  0  0  0  0  0
  -25.9321  -25.8405   19.0365 H   0  0  0  0  0  0
  -23.9669  -27.2613   19.0365 H   0  0  0  0  0  0
  -23.8057  -30.5557   19.3986 H   0  0  0  0  0  0
  -22.7857  -29.2276   19.8532 H   0  0  0  0  0  0
  -25.1309  -36.1831   25.0792 H   0  0  0  0  0  0
  -20.9953  -28.3353   24.1353 H   0  0  0  0  0  0
  -20.5598  -26.2366   23.3650 H   0  0  0  0  0  0
  -21.6632  -26.7421   22.1258 H   0  0  0  0  0  0
  -19.6936  -25.6274   21.1260 H   0  0  0  0  0  0
  -19.6695  -27.3176   20.6687 H   0  0  0  0  0  0
  -17.4193  -26.6618   21.4037 H   0  0  0  0  0  0
  -18.0360  -26.0077   22.9019 H   0  0  0  0  0  0
  -19.7962  -30.7263   24.2232 H   0  0  0  0  0  0
  -17.5055  -31.6283   24.5161 H   0  0  0  0  0  0
  -15.5371  -30.3015   23.7684 H   0  0  0  0  0  0
  -15.8640  -28.0834   22.7109 H   0  0  0  0  0  0
  -24.5951  -30.7047   25.7701 H   0  0  0  0  0  0
  -24.8912  -32.2934   26.4651 H   0  0  0  0  0  0
  -25.8022  -30.9025   27.0201 H   0  0  0  0  0  0
  -26.3090  -29.6581   24.1259 H   0  0  0  0  0  0
  -27.4027  -29.7217   25.4849 H   0  0  0  0  0  0
  -27.8991  -30.4107   23.9593 H   0  0  0  0  0  0
  -27.2662  -33.3576   26.2001 H   0  0  0  0  0  0
  -28.3932  -32.6823   25.0351 H   0  0  0  0  0  0
  -28.0671  -31.8422   26.5452 H   0  0  0  0  0  0
  -28.2566  -38.0054   24.7514 H   0  0  0  0  0  0
  -28.1063  -36.2593   24.6310 H   0  0  0  0  0  0
  -27.2281  -37.1395   25.8857 H   0  0  0  0  0  0
  -20.9464  -29.8743   21.6750 H   0  0  0  0  0  0
  -26.0150  -38.2766   24.1475 H   0  0  0  0  0  0
  -28.1810  -20.7905   17.7860 H   0  0  0  0  0  0
  -29.5443  -19.6831   17.5757 H   0  0  0  0  0  0
  -29.8038  -21.4225   17.4135 H   0  0  0  0  0  0
  -28.0838  -24.6283   21.5739 H   0  0  0  0  0  0
  -26.9932  -24.4293   20.2499 H   0  0  0  0  0  0
  -31.0326  -17.7943   20.6893 H   0  0  0  0  0  0
  -30.4435  -17.5860   19.0979 H   0  0  0  0  0  0
  -28.8695  -18.9962   21.4109 H   0  0  0  0  0  0
  -28.1344  -18.6964   19.8744 H   0  0  0  0  0  0
  -28.7932  -15.8852   20.6188 H   0  0  0  0  0  0
  1 25  1  0  0  0
  1 30  2  0  0  0
  1 77  1  0  0  0
  2  3  1  0  0  0
  2 25  1  0  0  0
  2 81  1  0  0  0
  2 82  1  0  0  0
  3  4  1  0  0  0
  3 83  1  0  0  0
  3 84  1  0  0  0
  4  5  1  0  0  0
  4 85  1  0  0  0
  4 86  1  0  0  0
  5  6  1  0  0  0
  5 26  1  0  0  0
  5 87  1  0  0  0
  6 25  1  0  0  0
  6 88  1  0  0  0
  6 89  1  0  0  0
  7  8  2  0  0  0
  7 26  1  0  0  0
  7 29  1  0  0  0
  8  9  1  0  0  0
  8 22  1  0  0  0
  9 10  1  0  0  0
  9 27  2  0  0  0
 10 11  2  0  0  0
 10 15  1  0  0  0
 11 12  1  0  0  0
 11 90  1  0  0  0
 12 13  2  0  0  0
 12 91  1  0  0  0
 13 14  1  0  0  0
 13 31  1  0  0  0
 14 15  2  0  0  0
 14 92  1  0  0  0
 15 93  1  0  0  0
 16 17  2  0  0  0
 16 21  1  0  0  0
 16 31  1  0  0  0
 17 18  1  0  0  0
 17 94  1  0  0  0
 18 19  2  0  0  0
 18 95  1  0  0  0
 19 20  1  0  0  0
 19 24  1  0  0  0
 20 21  2  0  0  0
 20 96  1  0  0  0
 21 23  1  0  0  0
 22 28  1  0  0  0
 22 32  2  0  0  0
 26 27  1  0  0  0
 28 97  1  0  0  0
 28 98  1  0  0  0
 29 99  1  0  0  0
 29100  1  0  0  0
 33 34  1  0  0  0
 33 66  1  0  0  0
 33 70  2  0  0  0
 34 36  1  0  0  0
 34 59  1  0  0  0
 34101  1  0  0  0
 35 44  2  0  0  0
 35 45  1  0  0  0
 35 68  1  0  0  0
 36 56  1  0  0  0
 36102  1  0  0  0
 37 39  1  0  0  0
 37 47  1  0  0  0
 37 66  1  0  0  0
 37103  1  0  0  0
 38 43  2  0  0  0
 38 46  1  0  0  0
 38 47  1  0  0  0
 39 64  1  0  0  0
 39 67  2  0  0  0
 40 52  1  0  0  0
 40 53  2  0  0  0
 40 58  1  0  0  0
 41104  1  0  0  0
 41105  1  0  0  0
 41106  1  0  0  0
 41 48  1  0  0  0
 42 43  1  0  0  0
 42 66  1  0  0  0
 42107  1  0  0  0
 42108  1  0  0  0
 43 44  1  0  0  0
 44109  1  0  0  0
 45 46  2  0  0  0
 45110  1  0  0  0
 46111  1  0  0  0
 47112  1  0  0  0
 47113  1  0  0  0
 48 56  1  0  0  0
 48 65  1  0  0  0
 48114  1  0  0  0
 49 50  1  0  0  0
 49 53  1  0  0  0
 49 64  1  0  0  0
 49115  1  0  0  0
 50 51  1  0  0  0
 50116  1  0  0  0
 50117  1  0  0  0
 51 52  1  0  0  0
 51118  1  0  0  0
 51119  1  0  0  0
 52120  1  0  0  0
 52121  1  0  0  0
 53 54  1  0  0  0
 54 55  2  0  0  0
 54122  1  0  0  0
 55 57  1  0  0  0
 55123  1  0  0  0
 56 69  2  0  0  0
 57 58  2  0  0  0
 57124  1  0  0  0
 58125  1  0  0  0
 59 60  1  0  0  0
 59 61  1  0  0  0
 59 62  1  0  0  0
 60126  1  0  0  0
 60127  1  0  0  0
 60128  1  0  0  0
 61129  1  0  0  0
 61130  1  0  0  0
 61131  1  0  0  0
 62132  1  0  0  0
 62133  1  0  0  0
 62134  1  0  0  0
 63 65  1  0  0  0
 63135  1  0  0  0
 63136  1  0  0  0
 63137  1  0  0  0
 64138  1  0  0  0
 65139  1  0  0  0
 68 73  1  0  0  0
 71 73  1  0  0  0
 71 76  1  0  0  0
 71 78  2  0  0  0
 72140  1  0  0  0
 72141  1  0  0  0
 72142  1  0  0  0
 72 80  1  0  0  0
 73143  1  0  0  0
 73144  1  0  0  0
 74 75  1  0  0  0
 74 77  1  0  0  0
 74145  1  0  0  0
 74146  1  0  0  0
 75 80  1  0  0  0
 75147  1  0  0  0
 75148  1  0  0  0
 76 80  2  0  0  0
 77149  1  0  0  0
 79 80  2  0  0  0
M  ISO  4   1 100  68 101  73 101  77 100
M  END
> <chiral flag>
0

> <version>
0

> <s_m_source_file>
/data/baiqing/PycharmProjects/Reinvent-master-3.2/result/LINK_invent/BTK/process_docking_weight1_custom_product_contain_oxygen_bond_distance_aromatic_linkinvent_7_9_3/rearranged_h_0058.sdf

> <i_m_source_file_index>
66

> <r_mmod_Potential_Energy-OPLS-2005>
186.745910644531

> <r_mmod_Stretch_Energy-OPLS-2005>
233.167190551758

> <r_mmod_Bend_Energy-OPLS-2005>
232.48486328125

> <r_mmod_Torsional_Energy-OPLS-2005>
217.912780761719

> <r_mmod_Improper_Torsional_Energy-OPLS-2005>
6.13553810119629

> <r_mmod_Van_der_Waal_Energy-OPLS-2005>
108.534339904785

> <r_mmod_Electrostatic_Energy-OPLS-2005>
-515.108154296875

> <r_mmod_Solvation_Energy-OPLS-2005>
-262.328430175781

> <b_mmod_Minimization_Converged-OPLS-2005>
0

> <r_mmod_RMS_Derivative-OPLS-2005>
7.14706230163574

$$$$
66
                    3D
 Structure written by MMmdl.
161169  0  0  1  0            999 V2000
  -30.6706  -14.4572   20.6068 C   0  0  0  0  0  0
  -30.4372  -12.3090   19.4026 C   0  0  0  0  0  0
  -29.4961  -12.5129   18.1956 C   0  0  0  0  0  0
  -28.0160  -12.3692   18.6080 C   0  0  0  0  0  0
  -27.6661  -13.1924   19.8760 C   0  0  2  0  0  0
  -28.7062  -12.9262   20.9872 C   0  0  0  0  0  0
  -25.2622  -13.8120   20.5652 C   0  0  0  0  0  0
  -24.1861  -13.0425   20.9174 C   0  0  0  0  0  0
  -24.6388  -11.6886   20.8728 C   0  0  0  0  0  0
  -23.9045  -10.4283   21.0404 C   0  0  0  0  0  0
  -24.3604   -9.4203   21.9183 C   0  0  0  0  0  0
  -23.6284   -8.2236   22.0754 C   0  0  0  0  0  0
  -22.4266   -8.0274   21.3545 C   0  0  0  0  0  0
  -21.9895   -9.0245   20.4646 C   0  0  0  0  0  0
  -22.7218  -10.2126   20.3054 C   0  0  0  0  0  0
  -21.6850   -6.0731   22.5284 C   0  0  0  0  0  0
  -21.4011   -6.5636   23.8216 C   0  0  0  0  0  0
  -21.3657   -5.6790   24.9177 C   0  0  0  0  0  0
  -21.6043   -4.3053   24.7229 C   0  0  0  0  0  0
  -21.8819   -3.8145   23.4352 C   0  0  0  0  0  0
  -21.9192   -4.6960   22.3407 C   0  0  0  0  0  0
  -22.7889  -13.5245   21.1838 C   0  0  0  0  0  0
  -22.1663   -4.2144   21.0983 F   0  0  0  0  0  0
  -21.5625   -3.4537   25.7743 F   0  0  0  0  0  0
  -30.0387  -13.2621   20.4485 N   0  0  0  0  0  0
  -26.3040  -12.9260   20.3335 N   0  0  0  0  0  0
  -25.9307  -11.6436   20.5740 N   0  0  0  0  0  0
  -22.0518  -12.8246   22.0389 N   0  0  0  0  0  0
  -25.4364  -15.1832   20.4018 N   0  0  0  0  0  0
  -31.7817  -14.7031   20.1231 O   0  0  0  0  0  0
  -21.6635   -6.8871   21.4242 O   0  0  0  0  0  0
  -22.3585  -14.5554   20.6687 O   0  0  0  0  0  0
  -24.6118  -31.8691   23.2100 C   0  0  0  0  0  0
  -25.9014  -32.4829   23.8393 C   0  0  1  0  0  0
  -27.2385  -27.4499   20.0964 C   0  0  0  0  0  0
  -25.5879  -33.8626   24.2328 N   0  0  0  0  0  0
  -23.4002  -30.4904   21.5494 C   0  0  2  0  0  0
  -24.8490  -28.9529   20.1200 C   0  0  0  0  0  0
  -22.7394  -29.4646   22.4989 C   0  0  0  0  0  0
  -18.0275  -28.1375   22.8501 C   0  0  0  0  0  0
  -24.1487  -36.7311   23.2638 C   0  0  0  0  0  0
  -25.9273  -30.8379   21.3613 C   0  0  0  0  0  0
  -26.0077  -29.4700   20.7157 C   0  0  0  0  0  0
  -27.2071  -28.7239   20.7055 C   0  0  0  0  0  0
  -26.0688  -26.9394   19.5008 C   0  0  0  0  0  0
  -24.8719  -27.6836   19.5137 C   0  0  0  0  0  0
  -23.6098  -29.8193   20.1656 C   0  0  0  0  0  0
  -25.4107  -36.3112   24.0340 C   0  0  1  0  0  0
  -20.5861  -28.3644   23.1333 C   0  0  2  0  0  0
  -20.6767  -26.9385   22.5422 C   0  0  0  0  0  0
  -19.5747  -26.6384   21.5217 C   0  0  0  0  0  0
  -18.1926  -26.7923   22.1624 C   0  0  0  0  0  0
  -19.1524  -28.8830   23.2913 C   0  0  0  0  0  0
  -18.9453  -30.1448   23.8909 C   0  0  0  0  0  0
  -17.6459  -30.6590   24.0570 C   0  0  0  0  0  0
  -25.9036  -34.9476   23.5137 C   0  0  0  0  0  0
  -16.5353  -29.9094   23.6330 C   0  0  0  0  0  0
  -16.7262  -28.6509   23.0352 C   0  0  0  0  0  0
  -26.4450  -31.6606   25.0712 C   0  0  0  0  0  0
  -25.3719  -31.3722   26.1466 C   0  0  0  0  0  0
  -27.0282  -30.3058   24.6061 C   0  0  0  0  0  0
  -27.6031  -32.4316   25.7474 C   0  0  0  0  0  0
  -27.5579  -37.1814   24.8466 C   0  0  0  0  0  0
  -21.4127  -29.3020   22.3737 N   0  0  0  0  0  0
  -26.4296  -37.3791   23.9405 N   0  0  0  0  0  0
  -24.6640  -31.0804   22.0990 N   0  0  0  0  0  0
  -23.4175  -28.8194   23.3019 O   0  0  0  0  0  0
  -28.3958  -26.7106   20.0443 O   0  0  0  0  0  0
  -26.5599  -34.8927   22.4698 O   0  0  0  0  0  0
  -23.5315  -32.1426   23.7515 O   0  0  0  0  0  0
  -28.8974  -18.9499   21.5286 C   0  0  0  0  0  0
  -28.8570  -17.5537   21.3444 C   0  0  0  0  0  0
  -31.2820  -17.4610   21.4511 C   0  0  0  0  0  0
  -30.1247  -19.6186   21.7279 C   0  0  0  0  0  0
  -31.3389  -18.8650   21.6635 C   0  0  0  0  0  0
  -30.0441  -16.7924   21.3170 C   0  0  0  0  0  0
  -32.6845  -19.5056   21.7541 C   0  0  0  0  0  0
  -30.0652  -21.0392   22.1326 C   0  0  0  0  0  0
  -33.7639  -18.7398   22.5111 C   0  0  0  0  0  0
  -28.8217  -24.3408   20.6233 C   0  0  0  0  0  0
  -29.2095  -23.3939   21.7827 C   0  0  0  0  0  0
  -28.5673  -25.7843   21.1217 C   0  0  0  0  0  0
  -30.5777  -21.3832   23.3137 N   0  0  0  0  0  0
  -29.9162  -15.3761   21.2381 N   0  0  0  0  0  0
  -29.4536  -21.9820   21.3863 N   0  3  0  0  0  0
  -32.9569  -20.6067   21.2688 O   0  0  0  0  0  0
  -31.4775  -12.4384   19.0980 H   0  0  0  0  0  0
  -30.3621  -11.2878   19.7778 H   0  0  0  0  0  0
  -29.7348  -11.7959   17.4088 H   0  0  0  0  0  0
  -29.6605  -13.5018   17.7650 H   0  0  0  0  0  0
  -27.8233  -11.3114   18.7907 H   0  0  0  0  0  0
  -27.3653  -12.6562   17.7810 H   0  0  0  0  0  0
  -27.7225  -14.2457   19.6011 H   0  0  0  0  0  0
  -28.6861  -11.8732   21.2725 H   0  0  0  0  0  0
  -28.4570  -13.4677   21.9008 H   0  0  0  0  0  0
  -25.2756   -9.5676   22.4750 H   0  0  0  0  0  0
  -23.9997   -7.4626   22.7474 H   0  0  0  0  0  0
  -21.0827   -8.8754   19.8957 H   0  0  0  0  0  0
  -22.3677  -10.9658   19.6157 H   0  0  0  0  0  0
  -21.2003   -7.6146   23.9715 H   0  0  0  0  0  0
  -21.1477   -6.0523   25.9079 H   0  0  0  0  0  0
  -22.0600   -2.7607   23.2853 H   0  0  0  0  0  0
  -22.4128  -11.9905   22.4780 H   0  0  0  0  0  0
  -21.1133  -13.1277   22.2586 H   0  0  0  0  0  0
  -24.6596  -15.8303   20.4844 H   0  0  0  0  0  0
  -26.2619  -15.6058   19.9977 H   0  0  0  0  0  0
  -26.7082  -32.5552   23.1160 H   0  0  0  0  0  0
  -25.0036  -33.9791   25.0478 H   0  0  0  0  0  0
  -22.6887  -31.3066   21.4100 H   0  0  0  0  0  0
  -23.3747  -35.9644   23.3323 H   0  0  0  0  0  0
  -24.3586  -36.8903   22.2048 H   0  0  0  0  0  0
  -23.7244  -37.6526   23.6641 H   0  0  0  0  0  0
  -26.0380  -31.6018   20.5900 H   0  0  0  0  0  0
  -26.8153  -30.8963   21.9781 H   0  0  0  0  0  0
  -28.1033  -29.1213   21.1623 H   0  0  0  0  0  0
  -26.0855  -25.9689   19.0257 H   0  0  0  0  0  0
  -23.9813  -27.2795   19.0521 H   0  0  0  0  0  0
  -23.7174  -30.5923   19.4038 H   0  0  0  0  0  0
  -22.7362  -29.2362   19.8700 H   0  0  0  0  0  0
  -25.1295  -36.1972   25.0832 H   0  0  0  0  0  0
  -20.9963  -28.3195   24.1450 H   0  0  0  0  0  0
  -20.5677  -26.2245   23.3594 H   0  0  0  0  0  0
  -21.6641  -26.7440   22.1219 H   0  0  0  0  0  0
  -19.6909  -25.6299   21.1237 H   0  0  0  0  0  0
  -19.6706  -27.3206   20.6759 H   0  0  0  0  0  0
  -17.4207  -26.6680   21.4014 H   0  0  0  0  0  0
  -18.0333  -26.0066   22.9018 H   0  0  0  0  0  0
  -19.7934  -30.7271   24.2268 H   0  0  0  0  0  0
  -17.5021  -31.6269   24.5175 H   0  0  0  0  0  0
  -15.5357  -30.3011   23.7646 H   0  0  0  0  0  0
  -15.8661  -28.0846   22.7045 H   0  0  0  0  0  0
  -24.5872  -30.7089   25.7817 H   0  0  0  0  0  0
  -24.8927  -32.2889   26.4914 H   0  0  0  0  0  0
  -25.8066  -30.8891   27.0223 H   0  0  0  0  0  0
  -26.2829  -29.6829   24.1101 H   0  0  0  0  0  0
  -27.4080  -29.7273   25.4492 H   0  0  0  0  0  0
  -27.8643  -30.4419   23.9194 H   0  0  0  0  0  0
  -27.2655  -33.3602   26.2086 H   0  0  0  0  0  0
  -28.3817  -32.6895   25.0286 H   0  0  0  0  0  0
  -28.0716  -31.8412   26.5358 H   0  0  0  0  0  0
  -28.2618  -38.0095   24.7514 H   0  0  0  0  0  0
  -28.1063  -36.2633   24.6304 H   0  0  0  0  0  0
  -27.2305  -37.1480   25.8873 H   0  0  0  0  0  0
  -20.9279  -29.8740   21.6968 H   0  0  0  0  0  0
  -26.0188  -38.2870   24.1404 H   0  0  0  0  0  0
  -27.9671  -19.4990   21.5845 H   0  0  0  0  0  0
  -27.8944  -17.0699   21.2500 H   0  0  0  0  0  0
  -32.1960  -16.8855   21.4149 H   0  0  0  0  0  0
  -33.3253  -18.1568   23.3212 H   0  0  0  0  0  0
  -34.4849  -19.4335   22.9426 H   0  0  0  0  0  0
  -34.2903  -18.0636   21.8386 H   0  0  0  0  0  0
  -27.9296  -23.9720   20.1149 H   0  0  0  0  0  0
  -29.6224  -24.3507   19.8838 H   0  0  0  0  0  0
  -28.4252  -23.4084   22.5420 H   0  0  0  0  0  0
  -30.1063  -23.7909   22.2614 H   0  0  0  0  0  0
  -29.4241  -26.1245   21.7048 H   0  0  0  0  0  0
  -27.7145  -25.7889   21.8046 H   0  0  0  0  0  0
  -30.9183  -20.6610   23.9310 H   0  0  0  0  0  0
  -30.5549  -22.3256   23.6625 H   0  0  0  0  0  0
  -29.0230  -15.0111   21.5276 H   0  0  0  0  0  0
  -29.0674  -21.6719   20.5023 H   0  0  0  0  0  0
  1 25  1  0  0  0
  1 30  2  0  0  0
  1 84  1  0  0  0
  2  3  1  0  0  0
  2 25  1  0  0  0
  2 87  1  0  0  0
  2 88  1  0  0  0
  3  4  1  0  0  0
  3 89  1  0  0  0
  3 90  1  0  0  0
  4  5  1  0  0  0
  4 91  1  0  0  0
  4 92  1  0  0  0
  5  6  1  0  0  0
  5 26  1  0  0  0
  5 93  1  0  0  0
  6 25  1  0  0  0
  6 94  1  0  0  0
  6 95  1  0  0  0
  7  8  2  0  0  0
  7 26  1  0  0  0
  7 29  1  0  0  0
  8  9  1  0  0  0
  8 22  1  0  0  0
  9 10  1  0  0  0
  9 27  2  0  0  0
 10 11  2  0  0  0
 10 15  1  0  0  0
 11 12  1  0  0  0
 11 96  1  0  0  0
 12 13  2  0  0  0
 12 97  1  0  0  0
 13 14  1  0  0  0
 13 31  1  0  0  0
 14 15  2  0  0  0
 14 98  1  0  0  0
 15 99  1  0  0  0
 16 17  2  0  0  0
 16 21  1  0  0  0
 16 31  1  0  0  0
 17 18  1  0  0  0
 17100  1  0  0  0
 18 19  2  0  0  0
 18101  1  0  0  0
 19 20  1  0  0  0
 19 24  1  0  0  0
 20 21  2  0  0  0
 20102  1  0  0  0
 21 23  1  0  0  0
 22 28  1  0  0  0
 22 32  2  0  0  0
 26 27  1  0  0  0
 28103  1  0  0  0
 28104  1  0  0  0
 29105  1  0  0  0
 29106  1  0  0  0
 33 34  1  0  0  0
 33 66  1  0  0  0
 33 70  2  0  0  0
 34 36  1  0  0  0
 34 59  1  0  0  0
 34107  1  0  0  0
 35 44  2  0  0  0
 35 45  1  0  0  0
 35 68  1  0  0  0
 36 56  1  0  0  0
 36108  1  0  0  0
 37 39  1  0  0  0
 37 47  1  0  0  0
 37 66  1  0  0  0
 37109  1  0  0  0
 38 43  2  0  0  0
 38 46  1  0  0  0
 38 47  1  0  0  0
 39 64  1  0  0  0
 39 67  2  0  0  0
 40 52  1  0  0  0
 40 53  2  0  0  0
 40 58  1  0  0  0
 41110  1  0  0  0
 41111  1  0  0  0
 41112  1  0  0  0
 41 48  1  0  0  0
 42 43  1  0  0  0
 42 66  1  0  0  0
 42113  1  0  0  0
 42114  1  0  0  0
 43 44  1  0  0  0
 44115  1  0  0  0
 45 46  2  0  0  0
 45116  1  0  0  0
 46117  1  0  0  0
 47118  1  0  0  0
 47119  1  0  0  0
 48 56  1  0  0  0
 48 65  1  0  0  0
 48120  1  0  0  0
 49 50  1  0  0  0
 49 53  1  0  0  0
 49 64  1  0  0  0
 49121  1  0  0  0
 50 51  1  0  0  0
 50122  1  0  0  0
 50123  1  0  0  0
 51 52  1  0  0  0
 51124  1  0  0  0
 51125  1  0  0  0
 52126  1  0  0  0
 52127  1  0  0  0
 53 54  1  0  0  0
 54 55  2  0  0  0
 54128  1  0  0  0
 55 57  1  0  0  0
 55129  1  0  0  0
 56 69  2  0  0  0
 57 58  2  0  0  0
 57130  1  0  0  0
 58131  1  0  0  0
 59 60  1  0  0  0
 59 61  1  0  0  0
 59 62  1  0  0  0
 60132  1  0  0  0
 60133  1  0  0  0
 60134  1  0  0  0
 61135  1  0  0  0
 61136  1  0  0  0
 61137  1  0  0  0
 62138  1  0  0  0
 62139  1  0  0  0
 62140  1  0  0  0
 63 65  1  0  0  0
 63141  1  0  0  0
 63142  1  0  0  0
 63143  1  0  0  0
 64144  1  0  0  0
 65145  1  0  0  0
 68 82  1  0  0  0
 71 72  2  0  0  0
 71 74  1  0  0  0
 71146  1  0  0  0
 72 76  1  0  0  0
 72147  1  0  0  0
 73 75  1  0  0  0
 73 76  2  0  0  0
 73148  1  0  0  0
 74 75  2  0  0  0
 74 78  1  0  0  0
 75 77  1  0  0  0
 76 84  1  0  0  0
 77 79  1  0  0  0
 77 86  2  0  0  0
 78 83  1  0  0  0
 78 85  2  0  0  0
 79149  1  0  0  0
 79150  1  0  0  0
 79151  1  0  0  0
 80 81  1  0  0  0
 80 82  1  0  0  0
 80152  1  0  0  0
 80153  1  0  0  0
 81 85  1  0  0  0
 81154  1  0  0  0
 81155  1  0  0  0
 82156  1  0  0  0
 82157  1  0  0  0
 83158  1  0  0  0
 83159  1  0  0  0
 84160  1  0  0  0
 85161  1  0  0  0
M  CHG  1  85   1
M  ISO  4   1 100  68 101  82 101  84 100
M  END
> <chiral flag>
0

> <version>
0

> <s_m_source_file>
/data/baiqing/PycharmProjects/Reinvent-master-3.2/result/LINK_invent/BTK/process_docking_weight1_custom_product_contain_oxygen_bond_distance_aromatic_linkinvent_7_9_3/rearranged_h_0058.sdf

> <i_m_source_file_index>
67

> <r_mmod_Potential_Energy-OPLS-2005>
-316.998352050781

> <r_mmod_Stretch_Energy-OPLS-2005>
38.1395721435547

> <r_mmod_Bend_Energy-OPLS-2005>
97.8703079223633

> <r_mmod_Torsional_Energy-OPLS-2005>
282.074157714844

> <r_mmod_Improper_Torsional_Energy-OPLS-2005>
5.00527667999268

> <r_mmod_Van_der_Waal_Energy-OPLS-2005>
159.937713623047

> <r_mmod_Electrostatic_Energy-OPLS-2005>
-486.074859619141

> <r_mmod_Solvation_Energy-OPLS-2005>
-424.181030273438

> <b_mmod_Minimization_Converged-OPLS-2005>
0

> <r_mmod_RMS_Derivative-OPLS-2005>
1.37339389324188

$$$$
67
                    3D
 Structure written by MMmdl.
158167  0  0  1  0            999 V2000
  -30.6223  -14.6276   20.5037 C   0  0  0  0  0  0
  -30.4451  -12.3879   19.4472 C   0  0  0  0  0  0
  -29.5105  -12.5101   18.2226 C   0  0  0  0  0  0
  -28.0330  -12.3493   18.6336 C   0  0  0  0  0  0
  -27.6585  -13.2133   19.8680 C   0  0  2  0  0  0
  -28.7042  -13.0515   20.9949 C   0  0  0  0  0  0
  -25.2597  -13.8167   20.5706 C   0  0  0  0  0  0
  -24.1847  -13.0443   20.9185 C   0  0  0  0  0  0
  -24.6407  -11.6910   20.8731 C   0  0  0  0  0  0
  -23.9067  -10.4296   21.0399 C   0  0  0  0  0  0
  -24.3625   -9.4215   21.9179 C   0  0  0  0  0  0
  -23.6302   -8.2245   22.0750 C   0  0  0  0  0  0
  -22.4281   -8.0281   21.3540 C   0  0  0  0  0  0
  -21.9917   -9.0255   20.4639 C   0  0  0  0  0  0
  -22.7243  -10.2133   20.3046 C   0  0  0  0  0  0
  -21.6849   -6.0740   22.5281 C   0  0  0  0  0  0
  -21.4008   -6.5643   23.8218 C   0  0  0  0  0  0
  -21.3661   -5.6789   24.9178 C   0  0  0  0  0  0
  -21.6047   -4.3054   24.7223 C   0  0  0  0  0  0
  -21.8818   -3.8145   23.4345 C   0  0  0  0  0  0
  -21.9196   -4.6966   22.3405 C   0  0  0  0  0  0
  -22.7873  -13.5245   21.1847 C   0  0  0  0  0  0
  -22.1663   -4.2155   21.0982 F   0  0  0  0  0  0
  -21.5635   -3.4532   25.7734 F   0  0  0  0  0  0
  -30.0212  -13.3982   20.4355 N   0  0  0  0  0  0
  -26.3022  -12.9337   20.3333 N   0  0  0  0  0  0
  -25.9334  -11.6499   20.5754 N   0  0  0  0  0  0
  -22.0500  -12.8229   22.0385 N   0  0  0  0  0  0
  -25.4335  -15.1892   20.4172 N   0  0  0  0  0  0
  -31.7757  -14.8039   20.1003 O   0  0  0  0  0  0
  -21.6642   -6.8879   21.4242 O   0  0  0  0  0  0
  -22.3569  -14.5561   20.6711 O   0  0  0  0  0  0
  -24.6270  -31.8599   23.2031 C   0  0  0  0  0  0
  -25.9113  -32.4780   23.8355 C   0  0  1  0  0  0
  -27.2297  -27.3319   20.1013 C   0  0  0  0  0  0
  -25.5937  -33.8579   24.2303 N   0  0  0  0  0  0
  -23.4198  -30.4880   21.5432 C   0  0  2  0  0  0
  -24.8657  -28.9435   20.1090 C   0  0  0  0  0  0
  -22.7462  -29.4650   22.4897 C   0  0  0  0  0  0
  -18.0285  -28.1404   22.8498 C   0  0  0  0  0  0
  -24.1491  -36.7290   23.2633 C   0  0  0  0  0  0
  -25.9598  -30.7977   21.3674 C   0  0  0  0  0  0
  -26.0361  -29.4253   20.7091 C   0  0  0  0  0  0
  -27.2210  -28.6318   20.6945 C   0  0  0  0  0  0
  -26.0307  -26.8997   19.4870 C   0  0  0  0  0  0
  -24.8635  -27.6849   19.4908 C   0  0  0  0  0  0
  -23.6351  -29.8241   20.1576 C   0  0  0  0  0  0
  -25.4107  -36.3086   24.0344 C   0  0  1  0  0  0
  -20.5888  -28.3714   23.1271 C   0  0  2  0  0  0
  -20.6775  -26.9439   22.5395 C   0  0  0  0  0  0
  -19.5751  -26.6397   21.5201 C   0  0  0  0  0  0
  -18.1930  -26.7954   22.1616 C   0  0  0  0  0  0
  -19.1541  -28.8865   23.2898 C   0  0  0  0  0  0
  -18.9462  -30.1456   23.8931 C   0  0  0  0  0  0
  -17.6470  -30.6612   24.0568 C   0  0  0  0  0  0
  -25.9049  -34.9455   23.5123 C   0  0  0  0  0  0
  -16.5357  -29.9126   23.6325 C   0  0  0  0  0  0
  -16.7272  -28.6534   23.0363 C   0  0  0  0  0  0
  -26.4499  -31.6568   25.0703 C   0  0  0  0  0  0
  -25.3754  -31.3687   26.1441 C   0  0  0  0  0  0
  -27.0308  -30.2994   24.6106 C   0  0  0  0  0  0
  -27.6084  -32.4258   25.7474 C   0  0  0  0  0  0
  -27.5588  -37.1791   24.8461 C   0  0  0  0  0  0
  -21.4172  -29.3086   22.3656 N   0  0  0  0  0  0
  -26.4281  -37.3787   23.9437 N   0  0  0  0  0  0
  -24.6883  -31.0638   22.0955 N   0  0  0  0  0  0
  -23.4193  -28.8154   23.2946 O   0  0  0  0  0  0
  -28.3586  -26.4954   20.1336 O   0  0  0  0  0  0
  -26.5595  -34.8923   22.4675 O   0  0  0  0  0  0
  -23.5433  -32.1361   23.7389 O   0  0  0  0  0  0
  -28.8932  -19.3262   21.3619 C   0  0  0  0  0  0
  -28.8912  -17.9021   21.4118 C   0  0  0  0  0  0
  -30.8532  -17.8308   20.0223 C   0  0  0  0  0  0
  -29.8967  -20.0477   20.6657 C   0  0  0  0  0  0
  -29.8844  -17.1114   20.7734 C   0  0  0  0  0  0
  -30.8616  -19.2590   19.9666 C   0  0  0  0  0  0
  -31.0000  -21.9604   21.6376 C   0  0  0  0  0  0
  -31.2546  -23.4680   21.7904 C   0  0  0  0  0  0
  -30.0023  -24.3348   21.6275 C   0  0  0  0  0  0
  -28.9970  -22.4689   20.2494 C   0  0  0  0  0  0
  -29.3367  -24.0319   20.2892 C   0  0  1  0  0  0
  -28.1443  -25.0382   19.9922 C   0  0  0  0  0  0
  -30.0237  -21.5068   20.8020 N   0  0  0  0  0  0
  -29.8115  -15.6549   20.9066 N   0  0  0  0  0  0
  -31.7345  -21.2030   22.2829 O   0  0  0  0  0  0
  -32.0931  -20.0272   19.0257 Cl  0  0  0  0  0  0
  -31.4843  -12.5223   19.1422 H   0  0  0  0  0  0
  -30.3902  -11.3880   19.8807 H   0  0  0  0  0  0
  -29.7743  -11.7626   17.4729 H   0  0  0  0  0  0
  -29.6519  -13.4821   17.7467 H   0  0  0  0  0  0
  -27.8651  -11.2952   18.8563 H   0  0  0  0  0  0
  -27.3796  -12.5870   17.7931 H   0  0  0  0  0  0
  -27.6797  -14.2524   19.5384 H   0  0  0  0  0  0
  -28.7135  -12.0243   21.3635 H   0  0  0  0  0  0
  -28.4507  -13.6700   21.8572 H   0  0  0  0  0  0
  -25.2770   -9.5691   22.4755 H   0  0  0  0  0  0
  -24.0011   -7.4635   22.7470 H   0  0  0  0  0  0
  -21.0845   -8.8773   19.8945 H   0  0  0  0  0  0
  -22.3706  -10.9674   19.6152 H   0  0  0  0  0  0
  -21.1987   -7.6148   23.9720 H   0  0  0  0  0  0
  -21.1489   -6.0517   25.9081 H   0  0  0  0  0  0
  -22.0600   -2.7607   23.2834 H   0  0  0  0  0  0
  -22.4099  -11.9882   22.4760 H   0  0  0  0  0  0
  -21.1113  -13.1264   22.2579 H   0  0  0  0  0  0
  -24.6708  -15.8453   20.5417 H   0  0  0  0  0  0
  -26.2867  -15.6305   20.0979 H   0  0  0  0  0  0
  -26.7179  -32.5462   23.1109 H   0  0  0  0  0  0
  -25.0128  -33.9712   25.0477 H   0  0  0  0  0  0
  -22.7164  -31.3108   21.3990 H   0  0  0  0  0  0
  -23.3768  -35.9604   23.3248 H   0  0  0  0  0  0
  -24.3610  -36.8938   22.2057 H   0  0  0  0  0  0
  -23.7204  -37.6472   23.6659 H   0  0  0  0  0  0
  -26.0824  -31.5614   20.5976 H   0  0  0  0  0  0
  -26.8452  -30.8523   21.9892 H   0  0  0  0  0  0
  -28.1216  -28.9999   21.1664 H   0  0  0  0  0  0
  -25.9615  -25.9392   18.9995 H   0  0  0  0  0  0
  -23.9661  -27.3097   19.0182 H   0  0  0  0  0  0
  -23.7604  -30.6016   19.4025 H   0  0  0  0  0  0
  -22.7545  -29.2571   19.8510 H   0  0  0  0  0  0
  -25.1284  -36.1930   25.0835 H   0  0  0  0  0  0
  -21.0007  -28.3285   24.1384 H   0  0  0  0  0  0
  -20.5653  -26.2334   23.3599 H   0  0  0  0  0  0
  -21.6643  -26.7462   22.1186 H   0  0  0  0  0  0
  -19.6911  -25.6304   21.1245 H   0  0  0  0  0  0
  -19.6692  -27.3197   20.6724 H   0  0  0  0  0  0
  -17.4197  -26.6702   21.4018 H   0  0  0  0  0  0
  -18.0334  -26.0098   22.9013 H   0  0  0  0  0  0
  -19.7935  -30.7248   24.2336 H   0  0  0  0  0  0
  -17.5035  -31.6304   24.5152 H   0  0  0  0  0  0
  -15.5365  -30.3051   23.7630 H   0  0  0  0  0  0
  -15.8663  -28.0859   22.7088 H   0  0  0  0  0  0
  -24.6013  -30.6920   25.7798 H   0  0  0  0  0  0
  -24.8843  -32.2829   26.4786 H   0  0  0  0  0  0
  -25.8123  -30.8969   27.0254 H   0  0  0  0  0  0
  -26.2842  -29.6750   24.1177 H   0  0  0  0  0  0
  -27.4071  -29.7235   25.4569 H   0  0  0  0  0  0
  -27.8695  -30.4280   23.9260 H   0  0  0  0  0  0
  -27.2765  -33.3621   26.1973 H   0  0  0  0  0  0
  -28.3958  -32.6681   25.0323 H   0  0  0  0  0  0
  -28.0663  -31.8390   26.5447 H   0  0  0  0  0  0
  -28.2557  -38.0137   24.7574 H   0  0  0  0  0  0
  -28.1130  -36.2672   24.6194 H   0  0  0  0  0  0
  -27.2328  -37.1316   25.8866 H   0  0  0  0  0  0
  -20.9311  -29.8896   21.6963 H   0  0  0  0  0  0
  -26.0159  -38.2852   24.1476 H   0  0  0  0  0  0
  -28.1421  -19.8678   21.9195 H   0  0  0  0  0  0
  -28.1139  -17.4145   21.9847 H   0  0  0  0  0  0
  -31.6172  -17.2970   19.4781 H   0  0  0  0  0  0
  -32.0002  -23.7528   21.0475 H   0  0  0  0  0  0
  -31.7080  -23.6603   22.7637 H   0  0  0  0  0  0
  -30.2840  -25.3881   21.6773 H   0  0  0  0  0  0
  -29.3071  -24.1588   22.4492 H   0  0  0  0  0  0
  -28.7838  -22.1802   19.2200 H   0  0  0  0  0  0
  -28.0719  -22.2973   20.8011 H   0  0  0  0  0  0
  -30.0841  -24.2174   19.5152 H   0  0  0  0  0  0
  -27.3088  -24.7550   20.6350 H   0  0  0  0  0  0
  -27.8288  -24.8443   18.9664 H   0  0  0  0  0  0
  -28.9487  -15.3151   21.3031 H   0  0  0  0  0  0
  1 25  1  0  0  0
  1 30  2  0  0  0
  1 84  1  0  0  0
  2  3  1  0  0  0
  2 25  1  0  0  0
  2 87  1  0  0  0
  2 88  1  0  0  0
  3  4  1  0  0  0
  3 89  1  0  0  0
  3 90  1  0  0  0
  4  5  1  0  0  0
  4 91  1  0  0  0
  4 92  1  0  0  0
  5  6  1  0  0  0
  5 26  1  0  0  0
  5 93  1  0  0  0
  6 25  1  0  0  0
  6 94  1  0  0  0
  6 95  1  0  0  0
  7  8  2  0  0  0
  7 26  1  0  0  0
  7 29  1  0  0  0
  8  9  1  0  0  0
  8 22  1  0  0  0
  9 10  1  0  0  0
  9 27  2  0  0  0
 10 11  2  0  0  0
 10 15  1  0  0  0
 11 12  1  0  0  0
 11 96  1  0  0  0
 12 13  2  0  0  0
 12 97  1  0  0  0
 13 14  1  0  0  0
 13 31  1  0  0  0
 14 15  2  0  0  0
 14 98  1  0  0  0
 15 99  1  0  0  0
 16 17  2  0  0  0
 16 21  1  0  0  0
 16 31  1  0  0  0
 17 18  1  0  0  0
 17100  1  0  0  0
 18 19  2  0  0  0
 18101  1  0  0  0
 19 20  1  0  0  0
 19 24  1  0  0  0
 20 21  2  0  0  0
 20102  1  0  0  0
 21 23  1  0  0  0
 22 28  1  0  0  0
 22 32  2  0  0  0
 26 27  1  0  0  0
 28103  1  0  0  0
 28104  1  0  0  0
 29105  1  0  0  0
 29106  1  0  0  0
 33 34  1  0  0  0
 33 66  1  0  0  0
 33 70  2  0  0  0
 34 36  1  0  0  0
 34 59  1  0  0  0
 34107  1  0  0  0
 35 44  2  0  0  0
 35 45  1  0  0  0
 35 68  1  0  0  0
 36 56  1  0  0  0
 36108  1  0  0  0
 37 39  1  0  0  0
 37 47  1  0  0  0
 37 66  1  0  0  0
 37109  1  0  0  0
 38 43  2  0  0  0
 38 46  1  0  0  0
 38 47  1  0  0  0
 39 64  1  0  0  0
 39 67  2  0  0  0
 40 52  1  0  0  0
 40 53  2  0  0  0
 40 58  1  0  0  0
 41110  1  0  0  0
 41111  1  0  0  0
 41112  1  0  0  0
 41 48  1  0  0  0
 42 43  1  0  0  0
 42 66  1  0  0  0
 42113  1  0  0  0
 42114  1  0  0  0
 43 44  1  0  0  0
 44115  1  0  0  0
 45 46  2  0  0  0
 45116  1  0  0  0
 46117  1  0  0  0
 47118  1  0  0  0
 47119  1  0  0  0
 48 56  1  0  0  0
 48 65  1  0  0  0
 48120  1  0  0  0
 49 50  1  0  0  0
 49 53  1  0  0  0
 49 64  1  0  0  0
 49121  1  0  0  0
 50 51  1  0  0  0
 50122  1  0  0  0
 50123  1  0  0  0
 51 52  1  0  0  0
 51124  1  0  0  0
 51125  1  0  0  0
 52126  1  0  0  0
 52127  1  0  0  0
 53 54  1  0  0  0
 54 55  2  0  0  0
 54128  1  0  0  0
 55 57  1  0  0  0
 55129  1  0  0  0
 56 69  2  0  0  0
 57 58  2  0  0  0
 57130  1  0  0  0
 58131  1  0  0  0
 59 60  1  0  0  0
 59 61  1  0  0  0
 59 62  1  0  0  0
 60132  1  0  0  0
 60133  1  0  0  0
 60134  1  0  0  0
 61135  1  0  0  0
 61136  1  0  0  0
 61137  1  0  0  0
 62138  1  0  0  0
 62139  1  0  0  0
 62140  1  0  0  0
 63 65  1  0  0  0
 63141  1  0  0  0
 63142  1  0  0  0
 63143  1  0  0  0
 64144  1  0  0  0
 65145  1  0  0  0
 68 82  1  0  0  0
 71 72  2  0  0  0
 71 74  1  0  0  0
 71146  1  0  0  0
 72 75  1  0  0  0
 72147  1  0  0  0
 73 75  2  0  0  0
 73 76  1  0  0  0
 73148  1  0  0  0
 74 76  2  0  0  0
 74 83  1  0  0  0
 75 84  1  0  0  0
 76 86  1  0  0  0
 77 78  1  0  0  0
 77 83  1  0  0  0
 77 85  2  0  0  0
 78 79  1  0  0  0
 78149  1  0  0  0
 78150  1  0  0  0
 79 81  1  0  0  0
 79151  1  0  0  0
 79152  1  0  0  0
 80 81  1  0  0  0
 80 83  1  0  0  0
 80153  1  0  0  0
 80154  1  0  0  0
 81 82  1  0  0  0
 81155  1  0  0  0
 82156  1  0  0  0
 82157  1  0  0  0
 84158  1  0  0  0
M  ISO  4   1 100  68 101  82 101  84 100
M  END
> <chiral flag>
0

> <version>
0

> <s_m_source_file>
/data/baiqing/PycharmProjects/Reinvent-master-3.2/result/LINK_invent/BTK/process_docking_weight1_custom_product_contain_oxygen_bond_distance_aromatic_linkinvent_7_9_3/rearranged_h_0058.sdf

> <i_m_source_file_index>
68

> <r_mmod_Potential_Energy-OPLS-2005>
129.416519165039

> <r_mmod_Stretch_Energy-OPLS-2005>
82.9105987548828

> <r_mmod_Bend_Energy-OPLS-2005>
136.444686889648

> <r_mmod_Torsional_Energy-OPLS-2005>
287.429046630859

> <r_mmod_Improper_Torsional_Energy-OPLS-2005>
4.40291690826416

> <r_mmod_Van_der_Waal_Energy-OPLS-2005>
153.071228027344

> <r_mmod_Electrostatic_Energy-OPLS-2005>
-351.974060058594

> <r_mmod_Solvation_Energy-OPLS-2005>
-225.776306152344

> <b_mmod_Minimization_Converged-OPLS-2005>
0

> <r_mmod_RMS_Derivative-OPLS-2005>
1.77303433418274

$$$$
68
                    3D
 Structure written by MMmdl.
157165  0  0  1  0            999 V2000
  -30.7152  -14.4424   20.5778 C   0  0  0  0  0  0
  -30.4185  -12.2922   19.4152 C   0  0  0  0  0  0
  -29.4942  -12.5163   18.2008 C   0  0  0  0  0  0
  -28.0135  -12.3828   18.6082 C   0  0  0  0  0  0
  -27.6646  -13.2077   19.8772 C   0  0  2  0  0  0
  -28.7051  -12.9717   20.9961 C   0  0  0  0  0  0
  -25.2604  -13.8154   20.5664 C   0  0  0  0  0  0
  -24.1852  -13.0428   20.9139 C   0  0  0  0  0  0
  -24.6402  -11.6892   20.8695 C   0  0  0  0  0  0
  -23.9059  -10.4283   21.0380 C   0  0  0  0  0  0
  -24.3614   -9.4207   21.9170 C   0  0  0  0  0  0
  -23.6286   -8.2245   22.0755 C   0  0  0  0  0  0
  -22.4271   -8.0275   21.3544 C   0  0  0  0  0  0
  -21.9901   -9.0242   20.4648 C   0  0  0  0  0  0
  -22.7223  -10.2122   20.3044 C   0  0  0  0  0  0
  -21.6860   -6.0735   22.5272 C   0  0  0  0  0  0
  -21.4020   -6.5639   23.8202 C   0  0  0  0  0  0
  -21.3659   -5.6792   24.9165 C   0  0  0  0  0  0
  -21.6039   -4.3051   24.7215 C   0  0  0  0  0  0
  -21.8825   -3.8146   23.4335 C   0  0  0  0  0  0
  -21.9192   -4.6964   22.3393 C   0  0  0  0  0  0
  -22.7874  -13.5231   21.1788 C   0  0  0  0  0  0
  -22.1665   -4.2153   21.0971 F   0  0  0  0  0  0
  -21.5622   -3.4534   25.7724 F   0  0  0  0  0  0
  -30.0404  -13.2683   20.4485 N   0  0  0  0  0  0
  -26.3043  -12.9323   20.3354 N   0  0  0  0  0  0
  -25.9333  -11.6476   20.5738 N   0  0  0  0  0  0
  -22.0520  -12.8238   22.0358 N   0  0  0  0  0  0
  -25.4318  -15.1877   20.4118 N   0  0  0  0  0  0
  -31.8355  -14.6200   20.0915 O   0  0  0  0  0  0
  -21.6638   -6.8874   21.4236 O   0  0  0  0  0  0
  -22.3565  -14.5537   20.6630 O   0  0  0  0  0  0
  -24.6135  -31.8683   23.2101 C   0  0  0  0  0  0
  -25.9030  -32.4822   23.8388 C   0  0  1  0  0  0
  -27.2306  -27.4437   20.0871 C   0  0  0  0  0  0
  -25.5875  -33.8623   24.2311 N   0  0  0  0  0  0
  -23.4020  -30.4936   21.5493 C   0  0  2  0  0  0
  -24.8466  -28.9638   20.1067 C   0  0  0  0  0  0
  -22.7420  -29.4652   22.4959 C   0  0  0  0  0  0
  -18.0275  -28.1381   22.8465 C   0  0  0  0  0  0
  -24.1492  -36.7322   23.2641 C   0  0  0  0  0  0
  -25.9297  -30.8392   21.3589 C   0  0  0  0  0  0
  -26.0075  -29.4757   20.7002 C   0  0  0  0  0  0
  -27.2044  -28.7245   20.6833 C   0  0  0  0  0  0
  -26.0528  -26.9472   19.4832 C   0  0  0  0  0  0
  -24.8639  -27.6989   19.4943 C   0  0  0  0  0  0
  -23.6095  -29.8299   20.1610 C   0  0  0  0  0  0
  -25.4115  -36.3115   24.0339 C   0  0  1  0  0  0
  -20.5875  -28.3662   23.1296 C   0  0  2  0  0  0
  -20.6775  -26.9396   22.5406 C   0  0  0  0  0  0
  -19.5762  -26.6381   21.5202 C   0  0  0  0  0  0
  -18.1936  -26.7921   22.1608 C   0  0  0  0  0  0
  -19.1532  -28.8835   23.2876 C   0  0  0  0  0  0
  -18.9470  -30.1439   23.8893 C   0  0  0  0  0  0
  -17.6476  -30.6579   24.0563 C   0  0  0  0  0  0
  -25.9039  -34.9482   23.5129 C   0  0  0  0  0  0
  -16.5357  -29.9093   23.6319 C   0  0  0  0  0  0
  -16.7268  -28.6514   23.0324 C   0  0  0  0  0  0
  -26.4452  -31.6627   25.0727 C   0  0  0  0  0  0
  -25.3720  -31.3749   26.1479 C   0  0  0  0  0  0
  -27.0289  -30.3081   24.6092 C   0  0  0  0  0  0
  -27.6016  -32.4359   25.7487 C   0  0  0  0  0  0
  -27.5586  -37.1821   24.8465 C   0  0  0  0  0  0
  -21.4153  -29.3033   22.3707 N   0  0  0  0  0  0
  -26.4302  -37.3799   23.9410 N   0  0  0  0  0  0
  -24.6671  -31.0802   22.0987 N   0  0  0  0  0  0
  -23.4205  -28.8172   23.2975 O   0  0  0  0  0  0
  -28.3895  -26.6849   20.1644 O   0  0  0  0  0  0
  -26.5613  -34.8933   22.4702 O   0  0  0  0  0  0
  -23.5342  -32.1416   23.7523 O   0  0  0  0  0  0
  -29.7168  -17.6430   22.1776 C   0  0  0  0  0  0
  -31.0707  -17.4786   20.1752 C   0  0  0  0  0  0
  -30.7444  -19.6728   21.2353 C   0  0  0  0  0  0
  -29.9352  -19.0419   22.2267 C   0  0  0  0  0  0
  -30.2986  -16.8403   21.1745 C   0  0  0  0  0  0
  -31.2959  -18.8681   20.2081 C   0  0  0  0  0  0
  -31.0935  -21.1406   21.2614 C   0  0  0  0  0  0
  -29.8124  -23.0963   20.5183 C   0  0  0  0  0  0
  -29.3042  -19.8132   23.3783 C   0  0  0  0  0  0
  -28.7691  -24.1169   21.0138 C   0  0  0  0  0  0
  -28.2999  -25.2440   20.0309 C   0  0  0  0  0  0
  -32.3437  -21.4806   21.2475 N   0  0  0  0  0  0
  -30.0381  -15.4322   21.1925 N   0  0  0  0  0  0
  -30.0559  -22.0735   21.3625 N   0  0  0  0  0  0
  -30.3617  -23.2332   19.4208 O   0  0  0  0  0  0
  -32.0543  -19.4212   19.2291 F   0  0  0  0  0  0
  -32.6553  -22.8568   21.4015 F   0  0  0  0  0  0
  -31.4640  -12.3813   19.1150 H   0  0  0  0  0  0
  -30.3045  -11.2766   19.7975 H   0  0  0  0  0  0
  -29.7290  -11.8038   17.4092 H   0  0  0  0  0  0
  -29.6702  -13.5086   17.7806 H   0  0  0  0  0  0
  -27.8113  -11.3256   18.7838 H   0  0  0  0  0  0
  -27.3696  -12.6814   17.7801 H   0  0  0  0  0  0
  -27.7135  -14.2603   19.5950 H   0  0  0  0  0  0
  -28.6725  -11.9325   21.3258 H   0  0  0  0  0  0
  -28.4671  -13.5633   21.8809 H   0  0  0  0  0  0
  -25.2773   -9.5677   22.4733 H   0  0  0  0  0  0
  -23.9989   -7.4648   22.7495 H   0  0  0  0  0  0
  -21.0821   -8.8751   19.8971 H   0  0  0  0  0  0
  -22.3673  -10.9651   19.6145 H   0  0  0  0  0  0
  -21.2025   -7.6149   23.9701 H   0  0  0  0  0  0
  -21.1478   -6.0525   25.9063 H   0  0  0  0  0  0
  -22.0608   -2.7609   23.2827 H   0  0  0  0  0  0
  -22.4151  -11.9906   22.4750 H   0  0  0  0  0  0
  -21.1144  -13.1280   22.2565 H   0  0  0  0  0  0
  -24.6628  -15.8396   20.5213 H   0  0  0  0  0  0
  -26.2877  -15.6317   20.1029 H   0  0  0  0  0  0
  -26.7099  -32.5537   23.1155 H   0  0  0  0  0  0
  -24.9983  -33.9770   25.0423 H   0  0  0  0  0  0
  -22.6893  -31.3091   21.4119 H   0  0  0  0  0  0
  -23.3738  -35.9666   23.3319 H   0  0  0  0  0  0
  -24.3577  -36.8931   22.2047 H   0  0  0  0  0  0
  -23.7263  -37.6540   23.6658 H   0  0  0  0  0  0
  -26.0400  -31.6106   20.5942 H   0  0  0  0  0  0
  -26.8181  -30.8894   21.9768 H   0  0  0  0  0  0
  -28.0996  -29.1082   21.1509 H   0  0  0  0  0  0
  -26.0374  -25.9743   19.0123 H   0  0  0  0  0  0
  -23.9699  -27.2964   19.0380 H   0  0  0  0  0  0
  -23.7171  -30.6084   19.4040 H   0  0  0  0  0  0
  -22.7315  -29.2526   19.8640 H   0  0  0  0  0  0
  -25.1299  -36.1970   25.0833 H   0  0  0  0  0  0
  -20.9970  -28.3241   24.1414 H   0  0  0  0  0  0
  -20.5705  -26.2268   23.3597 H   0  0  0  0  0  0
  -21.6646  -26.7447   22.1194 H   0  0  0  0  0  0
  -19.6941  -25.6301   21.1226 H   0  0  0  0  0  0
  -19.6717  -27.3186   20.6733 H   0  0  0  0  0  0
  -17.4215  -26.6645   21.4001 H   0  0  0  0  0  0
  -18.0330  -26.0061   22.9011 H   0  0  0  0  0  0
  -19.7956  -30.7244   24.2266 H   0  0  0  0  0  0
  -17.5046  -31.6262   24.5163 H   0  0  0  0  0  0
  -15.5369  -30.3011   23.7651 H   0  0  0  0  0  0
  -15.8658  -28.0859   22.7020 H   0  0  0  0  0  0
  -24.5861  -30.7122   25.7840 H   0  0  0  0  0  0
  -24.8932  -32.2916   26.4947 H   0  0  0  0  0  0
  -25.8072  -30.8911   27.0231 H   0  0  0  0  0  0
  -26.2841  -29.6852   24.1133 H   0  0  0  0  0  0
  -27.4053  -29.7315   25.4549 H   0  0  0  0  0  0
  -27.8672  -30.4406   23.9245 H   0  0  0  0  0  0
  -27.2603  -33.3643   26.2083 H   0  0  0  0  0  0
  -28.3809  -32.6963   25.0309 H   0  0  0  0  0  0
  -28.0702  -31.8486   26.5390 H   0  0  0  0  0  0
  -28.2609  -38.0113   24.7503 H   0  0  0  0  0  0
  -28.1081  -36.2649   24.6308 H   0  0  0  0  0  0
  -27.2305  -37.1481   25.8869 H   0  0  0  0  0  0
  -20.9322  -29.8775   21.6932 H   0  0  0  0  0  0
  -26.0194  -38.2878   24.1419 H   0  0  0  0  0  0
  -29.1046  -17.1745   22.9364 H   0  0  0  0  0  0
  -31.5089  -16.9225   19.3610 H   0  0  0  0  0  0
  -29.0256  -19.1460   24.1951 H   0  0  0  0  0  0
  -28.3952  -20.3155   23.0458 H   0  0  0  0  0  0
  -29.9878  -20.5525   23.7969 H   0  0  0  0  0  0
  -29.1653  -24.5611   21.9307 H   0  0  0  0  0  0
  -27.9091  -23.5117   21.3183 H   0  0  0  0  0  0
  -29.3543  -25.4840   19.8936 H   0  0  0  0  0  0
  -27.6036  -25.3855   20.8601 H   0  0  0  0  0  0
  -29.1964  -15.1407   21.6657 H   0  0  0  0  0  0
  -29.4309  -21.9783   22.1472 H   0  0  0  0  0  0
  1 25  1  0  0  0
  1 30  2  0  0  0
  1 83  1  0  0  0
  2  3  1  0  0  0
  2 25  1  0  0  0
  2 88  1  0  0  0
  2 89  1  0  0  0
  3  4  1  0  0  0
  3 90  1  0  0  0
  3 91  1  0  0  0
  4  5  1  0  0  0
  4 92  1  0  0  0
  4 93  1  0  0  0
  5  6  1  0  0  0
  5 26  1  0  0  0
  5 94  1  0  0  0
  6 25  1  0  0  0
  6 95  1  0  0  0
  6 96  1  0  0  0
  7  8  2  0  0  0
  7 26  1  0  0  0
  7 29  1  0  0  0
  8  9  1  0  0  0
  8 22  1  0  0  0
  9 10  1  0  0  0
  9 27  2  0  0  0
 10 11  2  0  0  0
 10 15  1  0  0  0
 11 12  1  0  0  0
 11 97  1  0  0  0
 12 13  2  0  0  0
 12 98  1  0  0  0
 13 14  1  0  0  0
 13 31  1  0  0  0
 14 15  2  0  0  0
 14 99  1  0  0  0
 15100  1  0  0  0
 16 17  2  0  0  0
 16 21  1  0  0  0
 16 31  1  0  0  0
 17 18  1  0  0  0
 17101  1  0  0  0
 18 19  2  0  0  0
 18102  1  0  0  0
 19 20  1  0  0  0
 19 24  1  0  0  0
 20 21  2  0  0  0
 20103  1  0  0  0
 21 23  1  0  0  0
 22 28  1  0  0  0
 22 32  2  0  0  0
 26 27  1  0  0  0
 28104  1  0  0  0
 28105  1  0  0  0
 29106  1  0  0  0
 29107  1  0  0  0
 33 34  1  0  0  0
 33 66  1  0  0  0
 33 70  2  0  0  0
 34 36  1  0  0  0
 34 59  1  0  0  0
 34108  1  0  0  0
 35 44  2  0  0  0
 35 45  1  0  0  0
 35 68  1  0  0  0
 36 56  1  0  0  0
 36109  1  0  0  0
 37 39  1  0  0  0
 37 47  1  0  0  0
 37 66  1  0  0  0
 37110  1  0  0  0
 38 43  2  0  0  0
 38 46  1  0  0  0
 38 47  1  0  0  0
 39 64  1  0  0  0
 39 67  2  0  0  0
 40 52  1  0  0  0
 40 53  2  0  0  0
 40 58  1  0  0  0
 41111  1  0  0  0
 41112  1  0  0  0
 41113  1  0  0  0
 41 48  1  0  0  0
 42 43  1  0  0  0
 42 66  1  0  0  0
 42114  1  0  0  0
 42115  1  0  0  0
 43 44  1  0  0  0
 44116  1  0  0  0
 45 46  2  0  0  0
 45117  1  0  0  0
 46118  1  0  0  0
 47119  1  0  0  0
 47120  1  0  0  0
 48 56  1  0  0  0
 48 65  1  0  0  0
 48121  1  0  0  0
 49 50  1  0  0  0
 49 53  1  0  0  0
 49 64  1  0  0  0
 49122  1  0  0  0
 50 51  1  0  0  0
 50123  1  0  0  0
 50124  1  0  0  0
 51 52  1  0  0  0
 51125  1  0  0  0
 51126  1  0  0  0
 52127  1  0  0  0
 52128  1  0  0  0
 53 54  1  0  0  0
 54 55  2  0  0  0
 54129  1  0  0  0
 55 57  1  0  0  0
 55130  1  0  0  0
 56 69  2  0  0  0
 57 58  2  0  0  0
 57131  1  0  0  0
 58132  1  0  0  0
 59 60  1  0  0  0
 59 61  1  0  0  0
 59 62  1  0  0  0
 60133  1  0  0  0
 60134  1  0  0  0
 60135  1  0  0  0
 61136  1  0  0  0
 61137  1  0  0  0
 61138  1  0  0  0
 62139  1  0  0  0
 62140  1  0  0  0
 62141  1  0  0  0
 63 65  1  0  0  0
 63142  1  0  0  0
 63143  1  0  0  0
 63144  1  0  0  0
 64145  1  0  0  0
 65146  1  0  0  0
 68 81  1  0  0  0
 71 74  2  0  0  0
 71 75  1  0  0  0
 71147  1  0  0  0
 72 75  2  0  0  0
 72 76  1  0  0  0
 72148  1  0  0  0
 73 74  1  0  0  0
 73 76  2  0  0  0
 73 77  1  0  0  0
 74 79  1  0  0  0
 75 83  1  0  0  0
 76 86  1  0  0  0
 77 82  2  0  0  0
 77 84  1  0  0  0
 78 80  1  0  0  0
 78 84  1  0  0  0
 78 85  2  0  0  0
 79149  1  0  0  0
 79150  1  0  0  0
 79151  1  0  0  0
 80 81  1  0  0  0
 80152  1  0  0  0
 80153  1  0  0  0
 81154  1  0  0  0
 81155  1  0  0  0
 82 87  1  0  0  0
 83156  1  0  0  0
 84157  1  0  0  0
M  ISO  4   1 100  68 101  81 101  83 100
M  END
> <chiral flag>
0

> <version>
0

> <s_m_source_file>
/data/baiqing/PycharmProjects/Reinvent-master-3.2/result/LINK_invent/BTK/process_docking_weight1_custom_product_contain_oxygen_bond_distance_aromatic_linkinvent_7_9_3/rearranged_h_0058.sdf

> <i_m_source_file_index>
69

> <r_mmod_Potential_Energy-OPLS-2005>
184.060592651367

> <r_mmod_Stretch_Energy-OPLS-2005>
42.1572647094727

> <r_mmod_Bend_Energy-OPLS-2005>
328.01416015625

> <r_mmod_Torsional_Energy-OPLS-2005>
244.261337280273

> <r_mmod_Improper_Torsional_Energy-OPLS-2005>
3.06001710891724

> <r_mmod_Van_der_Waal_Energy-OPLS-2005>
189.150466918945

> <r_mmod_Electrostatic_Energy-OPLS-2005>
-379.116149902344

> <r_mmod_Solvation_Energy-OPLS-2005>
-256.211334228516

> <b_mmod_Minimization_Converged-OPLS-2005>
0

> <r_mmod_RMS_Derivative-OPLS-2005>
1.82776784896851

$$$$
69
                    3D
 Structure written by MMmdl.
155163  0  0  1  0            999 V2000
  -30.6712  -14.6024   20.5246 C   0  0  0  0  0  0
  -30.4241  -12.3756   19.4505 C   0  0  0  0  0  0
  -29.4969  -12.4882   18.2217 C   0  0  0  0  0  0
  -28.0222  -12.3339   18.6391 C   0  0  0  0  0  0
  -27.6473  -13.2193   19.8578 C   0  0  2  0  0  0
  -28.6916  -13.0922   20.9896 C   0  0  0  0  0  0
  -25.2503  -13.8188   20.5665 C   0  0  0  0  0  0
  -24.1788  -13.0440   20.9191 C   0  0  0  0  0  0
  -24.6376  -11.6916   20.8749 C   0  0  0  0  0  0
  -23.9057  -10.4288   21.0413 C   0  0  0  0  0  0
  -24.3613   -9.4195   21.9180 C   0  0  0  0  0  0
  -23.6283   -8.2232   22.0747 C   0  0  0  0  0  0
  -22.4267   -8.0273   21.3538 C   0  0  0  0  0  0
  -21.9898   -9.0252   20.4638 C   0  0  0  0  0  0
  -22.7231  -10.2131   20.3052 C   0  0  0  0  0  0
  -21.6850   -6.0724   22.5276 C   0  0  0  0  0  0
  -21.4017   -6.5632   23.8210 C   0  0  0  0  0  0
  -21.3659   -5.6777   24.9171 C   0  0  0  0  0  0
  -21.6048   -4.3045   24.7221 C   0  0  0  0  0  0
  -21.8820   -3.8138   23.4344 C   0  0  0  0  0  0
  -21.9188   -4.6950   22.3403 C   0  0  0  0  0  0
  -22.7805  -13.5216   21.1867 C   0  0  0  0  0  0
  -22.1655   -4.2139   21.0975 F   0  0  0  0  0  0
  -21.5628   -3.4531   25.7737 F   0  0  0  0  0  0
  -30.0079  -13.4100   20.4180 N   0  0  0  0  0  0
  -26.2946  -12.9386   20.3304 N   0  0  0  0  0  0
  -25.9305  -11.6542   20.5776 N   0  0  0  0  0  0
  -22.0455  -12.8211   22.0440 N   0  0  0  0  0  0
  -25.4170  -15.1914   20.4064 N   0  0  0  0  0  0
  -31.8413  -14.7125   20.1469 O   0  0  0  0  0  0
  -21.6634   -6.8869   21.4237 O   0  0  0  0  0  0
  -22.3481  -14.5512   20.6701 O   0  0  0  0  0  0
  -24.6222  -31.8631   23.2042 C   0  0  0  0  0  0
  -25.9087  -32.4796   23.8362 C   0  0  1  0  0  0
  -27.2282  -27.3635   20.1155 C   0  0  0  0  0  0
  -25.5920  -33.8593   24.2312 N   0  0  0  0  0  0
  -23.4150  -30.4863   21.5446 C   0  0  2  0  0  0
  -24.8655  -28.9419   20.1139 C   0  0  0  0  0  0
  -22.7460  -29.4636   22.4936 C   0  0  0  0  0  0
  -18.0290  -28.1380   22.8476 C   0  0  0  0  0  0
  -24.1479  -36.7290   23.2636 C   0  0  0  0  0  0
  -25.9513  -30.8058   21.3698 C   0  0  0  0  0  0
  -26.0289  -29.4335   20.7203 C   0  0  0  0  0  0
  -27.2181  -28.6517   20.7197 C   0  0  0  0  0  0
  -26.0505  -26.9078   19.4930 C   0  0  0  0  0  0
  -24.8730  -27.6802   19.4956 C   0  0  0  0  0  0
  -23.6319  -29.8198   20.1600 C   0  0  0  0  0  0
  -25.4101  -36.3091   24.0340 C   0  0  1  0  0  0
  -20.5885  -28.3684   23.1279 C   0  0  2  0  0  0
  -20.6763  -26.9410   22.5397 C   0  0  0  0  0  0
  -19.5745  -26.6381   21.5190 C   0  0  0  0  0  0
  -18.1931  -26.7916   22.1615 C   0  0  0  0  0  0
  -19.1540  -28.8849   23.2870 C   0  0  0  0  0  0
  -18.9467  -30.1447   23.8891 C   0  0  0  0  0  0
  -17.6472  -30.6575   24.0575 C   0  0  0  0  0  0
  -25.9042  -34.9460   23.5130 C   0  0  0  0  0  0
  -16.5363  -29.9077   23.6328 C   0  0  0  0  0  0
  -16.7283  -28.6500   23.0342 C   0  0  0  0  0  0
  -26.4494  -31.6577   25.0704 C   0  0  0  0  0  0
  -25.3773  -31.3702   26.1473 C   0  0  0  0  0  0
  -27.0295  -30.2997   24.6096 C   0  0  0  0  0  0
  -27.6074  -32.4289   25.7465 C   0  0  0  0  0  0
  -27.5571  -37.1806   24.8478 C   0  0  0  0  0  0
  -21.4186  -29.3039   22.3673 N   0  0  0  0  0  0
  -26.4283  -37.3784   23.9421 N   0  0  0  0  0  0
  -24.6808  -31.0680   22.0977 N   0  0  0  0  0  0
  -23.4203  -28.8194   23.3011 O   0  0  0  0  0  0
  -28.3180  -26.5032   20.1042 O   0  0  0  0  0  0
  -26.5603  -34.8932   22.4690 O   0  0  0  0  0  0
  -23.5397  -32.1416   23.7388 O   0  0  0  0  0  0
  -32.0483  -18.7275   21.6890 C   0  0  0  0  0  0
  -31.6195  -17.3941   21.5475 C   0  0  0  0  0  0
  -29.5229  -18.2047   20.6341 C   0  0  0  0  0  0
  -31.2409  -19.8139   21.2886 C   0  0  0  0  0  0
  -29.9403  -19.5767   20.7624 C   0  0  0  0  0  0
  -30.3566  -17.0919   20.9942 C   0  0  0  0  0  0
  -28.7119  -24.3749   21.3854 C   0  0  0  0  0  0
  -28.5001  -25.7233   21.2386 C   0  0  0  0  0  0
  -28.7745  -23.3004   20.3787 C   0  0  0  0  0  0
  -31.8360  -21.2094   21.4090 C   0  0  0  0  0  0
  -29.0259  -20.7378   20.2334 C   0  0  0  0  0  0
  -29.9267  -15.7048   20.8519 N   0  0  0  0  0  0
  -29.0118  -22.0685   20.9193 N   0  0  0  0  0  0
  -28.6035  -23.4586   19.1684 O   0  0  0  0  0  0
  -31.4652  -12.4846   19.1427 H   0  0  0  0  0  0
  -30.3489  -11.3853   19.9024 H   0  0  0  0  0  0
  -29.7542  -11.7255   17.4848 H   0  0  0  0  0  0
  -29.6413  -13.4514   17.7305 H   0  0  0  0  0  0
  -27.8613  -11.2840   18.8849 H   0  0  0  0  0  0
  -27.3656  -12.5497   17.7956 H   0  0  0  0  0  0
  -27.6608  -14.2503   19.5049 H   0  0  0  0  0  0
  -28.6944  -12.0800   21.3967 H   0  0  0  0  0  0
  -28.4456  -13.7514   21.8239 H   0  0  0  0  0  0
  -25.2769   -9.5661   22.4746 H   0  0  0  0  0  0
  -23.9990   -7.4624   22.7469 H   0  0  0  0  0  0
  -21.0825   -8.8780   19.8952 H   0  0  0  0  0  0
  -22.3700  -10.9671   19.6159 H   0  0  0  0  0  0
  -21.2018   -7.6140   23.9713 H   0  0  0  0  0  0
  -21.1477   -6.0508   25.9069 H   0  0  0  0  0  0
  -22.0603   -2.7597   23.2849 H   0  0  0  0  0  0
  -22.4091  -11.9890   22.4844 H   0  0  0  0  0  0
  -21.1073  -13.1236   22.2663 H   0  0  0  0  0  0
  -24.6432  -15.8393   20.5073 H   0  0  0  0  0  0
  -26.2595  -15.6359   20.0659 H   0  0  0  0  0  0
  -26.7161  -32.5477   23.1120 H   0  0  0  0  0  0
  -25.0059  -33.9738   25.0450 H   0  0  0  0  0  0
  -22.7059  -31.3044   21.3998 H   0  0  0  0  0  0
  -23.3727  -35.9640   23.3349 H   0  0  0  0  0  0
  -24.3556  -36.8845   22.2037 H   0  0  0  0  0  0
  -23.7264  -37.6524   23.6616 H   0  0  0  0  0  0
  -26.0710  -31.5667   20.5974 H   0  0  0  0  0  0
  -26.8369  -30.8621   21.9906 H   0  0  0  0  0  0
  -28.1147  -29.0241   21.1936 H   0  0  0  0  0  0
  -26.0448  -25.9338   19.0241 H   0  0  0  0  0  0
  -23.9786  -27.2956   19.0249 H   0  0  0  0  0  0
  -23.7537  -30.5986   19.4064 H   0  0  0  0  0  0
  -22.7523  -29.2515   19.8520 H   0  0  0  0  0  0
  -25.1271  -36.1939   25.0831 H   0  0  0  0  0  0
  -20.9975  -28.3259   24.1398 H   0  0  0  0  0  0
  -20.5613  -26.2311   23.3601 H   0  0  0  0  0  0
  -21.6639  -26.7398   22.1221 H   0  0  0  0  0  0
  -19.6909  -25.6296   21.1196 H   0  0  0  0  0  0
  -19.6668  -27.3208   20.6733 H   0  0  0  0  0  0
  -17.4182  -26.6655   21.4036 H   0  0  0  0  0  0
  -18.0358  -26.0056   22.9012 H   0  0  0  0  0  0
  -19.7949  -30.7262   24.2247 H   0  0  0  0  0  0
  -17.5025  -31.6239   24.5205 H   0  0  0  0  0  0
  -15.5366  -30.2982   23.7641 H   0  0  0  0  0  0
  -15.8686  -28.0822   22.7048 H   0  0  0  0  0  0
  -24.5944  -30.7039   25.7838 H   0  0  0  0  0  0
  -24.8975  -32.2860   26.4932 H   0  0  0  0  0  0
  -25.8148  -30.8876   27.0220 H   0  0  0  0  0  0
  -26.2815  -29.6773   24.1170 H   0  0  0  0  0  0
  -27.4062  -29.7229   25.4548 H   0  0  0  0  0  0
  -27.8669  -30.4279   23.9239 H   0  0  0  0  0  0
  -27.2693  -33.3576   26.2073 H   0  0  0  0  0  0
  -28.3874  -32.6862   25.0288 H   0  0  0  0  0  0
  -28.0754  -31.8389   26.5354 H   0  0  0  0  0  0
  -28.2632  -38.0060   24.7475 H   0  0  0  0  0  0
  -28.1025  -36.2597   24.6352 H   0  0  0  0  0  0
  -27.2295  -37.1521   25.8886 H   0  0  0  0  0  0
  -20.9372  -29.8763   21.6882 H   0  0  0  0  0  0
  -26.0163  -38.2859   24.1421 H   0  0  0  0  0  0
  -33.0331  -18.9123   22.0969 H   0  0  0  0  0  0
  -32.2856  -16.6058   21.8702 H   0  0  0  0  0  0
  -28.5459  -18.0044   20.2172 H   0  0  0  0  0  0
  -28.8395  -24.0617   22.4117 H   0  0  0  0  0  0
  -28.4691  -26.3506   22.1190 H   0  0  0  0  0  0
  -32.9104  -21.1683   21.5897 H   0  0  0  0  0  0
  -31.3898  -21.7531   22.2413 H   0  0  0  0  0  0
  -31.6892  -21.7825   20.4934 H   0  0  0  0  0  0
  -27.9977  -20.3737   20.2214 H   0  0  0  0  0  0
  -29.2933  -20.8875   19.1862 H   0  0  0  0  0  0
  -28.9385  -15.5331   20.9577 H   0  0  0  0  0  0
  -29.1336  -22.0353   21.9219 H   0  0  0  0  0  0
  1 25  1  0  0  0
  1 30  2  0  0  0
  1 82  1  0  0  0
  2  3  1  0  0  0
  2 25  1  0  0  0
  2 85  1  0  0  0
  2 86  1  0  0  0
  3  4  1  0  0  0
  3 87  1  0  0  0
  3 88  1  0  0  0
  4  5  1  0  0  0
  4 89  1  0  0  0
  4 90  1  0  0  0
  5  6  1  0  0  0
  5 26  1  0  0  0
  5 91  1  0  0  0
  6 25  1  0  0  0
  6 92  1  0  0  0
  6 93  1  0  0  0
  7  8  2  0  0  0
  7 26  1  0  0  0
  7 29  1  0  0  0
  8  9  1  0  0  0
  8 22  1  0  0  0
  9 10  1  0  0  0
  9 27  2  0  0  0
 10 11  2  0  0  0
 10 15  1  0  0  0
 11 12  1  0  0  0
 11 94  1  0  0  0
 12 13  2  0  0  0
 12 95  1  0  0  0
 13 14  1  0  0  0
 13 31  1  0  0  0
 14 15  2  0  0  0
 14 96  1  0  0  0
 15 97  1  0  0  0
 16 17  2  0  0  0
 16 21  1  0  0  0
 16 31  1  0  0  0
 17 18  1  0  0  0
 17 98  1  0  0  0
 18 19  2  0  0  0
 18 99  1  0  0  0
 19 20  1  0  0  0
 19 24  1  0  0  0
 20 21  2  0  0  0
 20100  1  0  0  0
 21 23  1  0  0  0
 22 28  1  0  0  0
 22 32  2  0  0  0
 26 27  1  0  0  0
 28101  1  0  0  0
 28102  1  0  0  0
 29103  1  0  0  0
 29104  1  0  0  0
 33 34  1  0  0  0
 33 66  1  0  0  0
 33 70  2  0  0  0
 34 36  1  0  0  0
 34 59  1  0  0  0
 34105  1  0  0  0
 35 44  2  0  0  0
 35 45  1  0  0  0
 35 68  1  0  0  0
 36 56  1  0  0  0
 36106  1  0  0  0
 37 39  1  0  0  0
 37 47  1  0  0  0
 37 66  1  0  0  0
 37107  1  0  0  0
 38 43  2  0  0  0
 38 46  1  0  0  0
 38 47  1  0  0  0
 39 64  1  0  0  0
 39 67  2  0  0  0
 40 52  1  0  0  0
 40 53  2  0  0  0
 40 58  1  0  0  0
 41108  1  0  0  0
 41109  1  0  0  0
 41110  1  0  0  0
 41 48  1  0  0  0
 42 43  1  0  0  0
 42 66  1  0  0  0
 42111  1  0  0  0
 42112  1  0  0  0
 43 44  1  0  0  0
 44113  1  0  0  0
 45 46  2  0  0  0
 45114  1  0  0  0
 46115  1  0  0  0
 47116  1  0  0  0
 47117  1  0  0  0
 48 56  1  0  0  0
 48 65  1  0  0  0
 48118  1  0  0  0
 49 50  1  0  0  0
 49 53  1  0  0  0
 49 64  1  0  0  0
 49119  1  0  0  0
 50 51  1  0  0  0
 50120  1  0  0  0
 50121  1  0  0  0
 51 52  1  0  0  0
 51122  1  0  0  0
 51123  1  0  0  0
 52124  1  0  0  0
 52125  1  0  0  0
 53 54  1  0  0  0
 54 55  2  0  0  0
 54126  1  0  0  0
 55 57  1  0  0  0
 55127  1  0  0  0
 56 69  2  0  0  0
 57 58  2  0  0  0
 57128  1  0  0  0
 58129  1  0  0  0
 59 60  1  0  0  0
 59 61  1  0  0  0
 59 62  1  0  0  0
 60130  1  0  0  0
 60131  1  0  0  0
 60132  1  0  0  0
 61133  1  0  0  0
 61134  1  0  0  0
 61135  1  0  0  0
 62136  1  0  0  0
 62137  1  0  0  0
 62138  1  0  0  0
 63 65  1  0  0  0
 63139  1  0  0  0
 63140  1  0  0  0
 63141  1  0  0  0
 64142  1  0  0  0
 65143  1  0  0  0
 68 78  1  0  0  0
 71 72  2  0  0  0
 71 74  1  0  0  0
 71144  1  0  0  0
 72 76  1  0  0  0
 72145  1  0  0  0
 73 75  1  0  0  0
 73 76  2  0  0  0
 73146  1  0  0  0
 74 75  2  0  0  0
 74 80  1  0  0  0
 75 81  1  0  0  0
 76 82  1  0  0  0
 77 78  2  0  0  0
 77 79  1  0  0  0
 77147  1  0  0  0
 78148  1  0  0  0
 79 83  1  0  0  0
 79 84  2  0  0  0
 80149  1  0  0  0
 80150  1  0  0  0
 80151  1  0  0  0
 81 83  1  0  0  0
 81152  1  0  0  0
 81153  1  0  0  0
 82154  1  0  0  0
 83155  1  0  0  0
M  ISO  4   1 100  68 101  78 101  82 100
M  END
> <chiral flag>
0

> <version>
0

> <s_m_source_file>
/data/baiqing/PycharmProjects/Reinvent-master-3.2/result/LINK_invent/BTK/process_docking_weight1_custom_product_contain_oxygen_bond_distance_aromatic_linkinvent_7_9_3/rearranged_h_0058.sdf

> <i_m_source_file_index>
70

> <r_mmod_Potential_Energy-OPLS-2005>
-59.3370170593262

> <r_mmod_Stretch_Energy-OPLS-2005>
63.4779090881348

> <r_mmod_Bend_Energy-OPLS-2005>
134.604446411133

> <r_mmod_Torsional_Energy-OPLS-2005>
229.358856201172

> <r_mmod_Improper_Torsional_Energy-OPLS-2005>
5.24034023284912

> <r_mmod_Van_der_Waal_Energy-OPLS-2005>
142.865707397461

> <r_mmod_Electrostatic_Energy-OPLS-2005>
-433.993438720703

> <r_mmod_Solvation_Energy-OPLS-2005>
-238.517593383789

> <b_mmod_Minimization_Converged-OPLS-2005>
0

> <r_mmod_RMS_Derivative-OPLS-2005>
2.03774809837341

$$$$
70
                    3D
 Structure written by MMmdl.
160168  0  0  1  0            999 V2000
  -30.7115  -14.5149   20.5269 C   0  0  0  0  0  0
  -30.4116  -12.3337   19.4259 C   0  0  0  0  0  0
  -29.4733  -12.4900   18.2132 C   0  0  0  0  0  0
  -28.0035  -12.3416   18.6403 C   0  0  0  0  0  0
  -27.6481  -13.2119   19.8716 C   0  0  2  0  0  0
  -28.6968  -13.0505   20.9958 C   0  0  0  0  0  0
  -25.2477  -13.8118   20.5661 C   0  0  0  0  0  0
  -24.1784  -13.0379   20.9249 C   0  0  0  0  0  0
  -24.6376  -11.6853   20.8814 C   0  0  0  0  0  0
  -23.9063  -10.4236   21.0456 C   0  0  0  0  0  0
  -24.3615   -9.4146   21.9220 C   0  0  0  0  0  0
  -23.6292   -8.2183   22.0754 C   0  0  0  0  0  0
  -22.4284   -8.0237   21.3532 C   0  0  0  0  0  0
  -21.9938   -9.0218   20.4643 C   0  0  0  0  0  0
  -22.7256  -10.2099   20.3077 C   0  0  0  0  0  0
  -21.6836   -6.0727   22.5274 C   0  0  0  0  0  0
  -21.4000   -6.5630   23.8209 C   0  0  0  0  0  0
  -21.3672   -5.6786   24.9166 C   0  0  0  0  0  0
  -21.6037   -4.3047   24.7228 C   0  0  0  0  0  0
  -21.8823   -3.8136   23.4345 C   0  0  0  0  0  0
  -21.9175   -4.6953   22.3395 C   0  0  0  0  0  0
  -22.7796  -13.5175   21.1858 C   0  0  0  0  0  0
  -22.1645   -4.2133   21.0979 F   0  0  0  0  0  0
  -21.5644   -3.4545   25.7749 F   0  0  0  0  0  0
  -30.0216  -13.3429   20.4270 N   0  0  0  0  0  0
  -26.2946  -12.9326   20.3402 N   0  0  0  0  0  0
  -25.9302  -11.6472   20.5875 N   0  0  0  0  0  0
  -22.0439  -12.8179   22.0419 N   0  0  0  0  0  0
  -25.4040  -15.1817   20.3868 N   0  0  0  0  0  0
  -31.8620  -14.6154   20.0996 O   0  0  0  0  0  0
  -21.6613   -6.8857   21.4226 O   0  0  0  0  0  0
  -22.3481  -14.5461   20.6641 O   0  0  0  0  0  0
  -24.6125  -31.8677   23.2139 C   0  0  0  0  0  0
  -25.9018  -32.4841   23.8419 C   0  0  1  0  0  0
  -27.2183  -27.4112   20.0938 C   0  0  0  0  0  0
  -25.5890  -33.8647   24.2318 N   0  0  0  0  0  0
  -23.4043  -30.4911   21.5567 C   0  0  2  0  0  0
  -24.8478  -28.9586   20.1179 C   0  0  0  0  0  0
  -22.7399  -29.4662   22.5031 C   0  0  0  0  0  0
  -18.0271  -28.1387   22.8625 C   0  0  0  0  0  0
  -24.1491  -36.7297   23.2632 C   0  0  0  0  0  0
  -25.9383  -30.8231   21.3773 C   0  0  0  0  0  0
  -26.0147  -29.4614   20.7104 C   0  0  0  0  0  0
  -27.2106  -28.6975   20.6901 C   0  0  0  0  0  0
  -26.0315  -26.9285   19.4984 C   0  0  0  0  0  0
  -24.8507  -27.6894   19.5152 C   0  0  0  0  0  0
  -23.6121  -29.8267   20.1724 C   0  0  0  0  0  0
  -25.4126  -36.3117   24.0309 C   0  0  1  0  0  0
  -20.5871  -28.3659   23.1425 C   0  0  2  0  0  0
  -20.6694  -26.9348   22.5630 C   0  0  0  0  0  0
  -19.5712  -26.6556   21.5290 C   0  0  0  0  0  0
  -18.1943  -26.7895   22.1874 C   0  0  0  0  0  0
  -19.1539  -28.8867   23.2986 C   0  0  0  0  0  0
  -18.9462  -30.1505   23.8941 C   0  0  0  0  0  0
  -17.6467  -30.6653   24.0580 C   0  0  0  0  0  0
  -25.9043  -34.9480   23.5123 C   0  0  0  0  0  0
  -16.5366  -29.9139   23.6382 C   0  0  0  0  0  0
  -16.7260  -28.6508   23.0503 C   0  0  0  0  0  0
  -26.4440  -31.6656   25.0782 C   0  0  0  0  0  0
  -25.3688  -31.3743   26.1517 C   0  0  0  0  0  0
  -27.0283  -30.3090   24.6223 C   0  0  0  0  0  0
  -27.6010  -32.4412   25.7511 C   0  0  0  0  0  0
  -27.5593  -37.1809   24.8472 C   0  0  0  0  0  0
  -21.4149  -29.2901   22.3676 N   0  0  0  0  0  0
  -26.4321  -37.3789   23.9389 N   0  0  0  0  0  0
  -24.6704  -31.0740   22.1064 N   0  0  0  0  0  0
  -23.4123  -28.8311   23.3188 O   0  0  0  0  0  0
  -28.3265  -26.5900   20.1195 O   0  0  0  0  0  0
  -26.5615  -34.8905   22.4691 O   0  0  0  0  0  0
  -23.5297  -32.1461   23.7520 O   0  0  0  0  0  0
  -32.0803  -18.7546   20.7081 C   0  0  0  0  0  0
  -31.1016  -19.7263   20.4755 C   0  0  0  0  0  0
  -31.7104  -17.4147   20.8844 C   0  0  0  0  0  0
  -29.7302  -19.3891   20.4290 C   0  0  0  0  0  0
  -29.3543  -18.0066   20.5807 C   0  0  0  0  0  0
  -30.3576  -16.9997   20.7944 C   0  0  0  0  0  0
  -28.1160  -25.3758   20.7548 C   0  0  0  0  0  0
  -28.0309  -23.0185   22.5791 C   0  0  0  0  0  0
  -28.7561  -20.5335   20.1976 C   0  0  0  0  0  0
  -28.5298  -24.1529   20.3234 C   0  0  0  0  0  0
  -27.8829  -17.5913   20.5282 C   0  0  0  0  0  0
  -29.3308  -23.9969   19.0406 C   0  0  0  0  0  0
  -28.1555  -22.8323   21.0571 C   0  0  1  0  0  0
  -30.0120  -15.5994   20.9497 N   0  0  0  0  0  0
  -29.0510  -21.6817   20.8368 N   0  0  0  0  0  0
  -27.0598  -22.6375   23.2385 O   0  0  0  0  0  0
  -27.7576  -20.4130   19.4865 O   0  0  0  0  0  0
  -31.4449  -12.4376   19.0957 H   0  0  0  0  0  0
  -30.3413  -11.3337   19.8575 H   0  0  0  0  0  0
  -29.7189  -11.7462   17.4562 H   0  0  0  0  0  0
  -29.6180  -13.4634   17.7424 H   0  0  0  0  0  0
  -27.8385  -11.2883   18.8768 H   0  0  0  0  0  0
  -27.3379  -12.5754   17.8097 H   0  0  0  0  0  0
  -27.6747  -14.2495   19.5384 H   0  0  0  0  0  0
  -28.6805  -12.0314   21.3832 H   0  0  0  0  0  0
  -28.4617  -13.6946   21.8443 H   0  0  0  0  0  0
  -25.2771   -9.5583   22.4798 H   0  0  0  0  0  0
  -23.9982   -7.4554   22.7483 H   0  0  0  0  0  0
  -21.0869   -8.8757   19.8949 H   0  0  0  0  0  0
  -22.3750  -10.9636   19.6176 H   0  0  0  0  0  0
  -21.1984   -7.6141   23.9741 H   0  0  0  0  0  0
  -21.1509   -6.0492   25.9091 H   0  0  0  0  0  0
  -22.0605   -2.7608   23.2826 H   0  0  0  0  0  0
  -22.4098  -11.9868   22.4805 H   0  0  0  0  0  0
  -21.1050  -13.1177   22.2659 H   0  0  0  0  0  0
  -24.6032  -15.8036   20.4299 H   0  0  0  0  0  0
  -26.2122  -15.6112   19.9582 H   0  0  0  0  0  0
  -26.7098  -32.5523   23.1172 H   0  0  0  0  0  0
  -25.0081  -33.9847   25.0496 H   0  0  0  0  0  0
  -22.6893  -31.3065   21.4225 H   0  0  0  0  0  0
  -23.3771  -35.9625   23.3350 H   0  0  0  0  0  0
  -24.3561  -36.8878   22.2040 H   0  0  0  0  0  0
  -23.7228  -37.6491   23.6643 H   0  0  0  0  0  0
  -26.0720  -31.6007   20.6265 H   0  0  0  0  0  0
  -26.8153  -30.8531   22.0125 H   0  0  0  0  0  0
  -28.1127  -29.0782   21.1478 H   0  0  0  0  0  0
  -26.0141  -25.9465   19.0437 H   0  0  0  0  0  0
  -23.9476  -27.2912   19.0722 H   0  0  0  0  0  0
  -23.7200  -30.6050   19.4144 H   0  0  0  0  0  0
  -22.7345  -29.2483   19.8762 H   0  0  0  0  0  0
  -25.1320  -36.1981   25.0797 H   0  0  0  0  0  0
  -20.9975  -28.3275   24.1541 H   0  0  0  0  0  0
  -20.5443  -26.2267   23.3828 H   0  0  0  0  0  0
  -21.6617  -26.7255   22.1653 H   0  0  0  0  0  0
  -19.6570  -27.3689   20.7063 H   0  0  0  0  0  0
  -19.6891  -25.6616   21.0976 H   0  0  0  0  0  0
  -17.4074  -26.6397   21.4453 H   0  0  0  0  0  0
  -18.0670  -26.0112   22.9430 H   0  0  0  0  0  0
  -19.7927  -30.7375   24.2294 H   0  0  0  0  0  0
  -17.5016  -31.6383   24.5122 H   0  0  0  0  0  0
  -15.5362  -30.3072   23.7740 H   0  0  0  0  0  0
  -15.8635  -28.0771   22.7357 H   0  0  0  0  0  0
  -24.5835  -30.7141   25.7809 H   0  0  0  0  0  0
  -24.8905  -32.2890   26.5034 H   0  0  0  0  0  0
  -25.8004  -30.8823   27.0246 H   0  0  0  0  0  0
  -26.2823  -29.6843   24.1293 H   0  0  0  0  0  0
  -27.4017  -29.7349   25.4718 H   0  0  0  0  0  0
  -27.8688  -30.4398   23.9405 H   0  0  0  0  0  0
  -27.2617  -33.3690   26.2125 H   0  0  0  0  0  0
  -28.3749  -32.7041   25.0288 H   0  0  0  0  0  0
  -28.0774  -31.8563   26.5390 H   0  0  0  0  0  0
  -28.2633  -38.0084   24.7509 H   0  0  0  0  0  0
  -28.1064  -36.2613   24.6344 H   0  0  0  0  0  0
  -27.2299  -37.1497   25.8871 H   0  0  0  0  0  0
  -20.9362  -29.8149   21.6498 H   0  0  0  0  0  0
  -26.0222  -38.2872   24.1379 H   0  0  0  0  0  0
  -33.1225  -19.0393   20.7476 H   0  0  0  0  0  0
  -31.4159  -20.7498   20.3277 H   0  0  0  0  0  0
  -32.5070  -16.7140   21.0782 H   0  0  0  0  0  0
  -27.5380  -25.5078   21.6606 H   0  0  0  0  0  0
  -28.9065  -23.4802   23.0370 H   0  0  0  0  0  0
  -27.3582  -18.0306   19.6796 H   0  0  0  0  0  0
  -27.3642  -17.8757   21.4437 H   0  0  0  0  0  0
  -27.7620  -16.5207   20.4023 H   0  0  0  0  0  0
  -29.5670  -24.9606   18.5878 H   0  0  0  0  0  0
  -28.7429  -23.4311   18.3156 H   0  0  0  0  0  0
  -30.2643  -23.4582   19.2141 H   0  0  0  0  0  0
  -27.1685  -22.5698   20.6784 H   0  0  0  0  0  0
  -29.0608  -15.4016   21.2266 H   0  0  0  0  0  0
  -29.8815  -21.6566   21.4084 H   0  0  0  0  0  0
  1 25  1  0  0  0
  1 30  2  0  0  0
  1 84  1  0  0  0
  2  3  1  0  0  0
  2 25  1  0  0  0
  2 88  1  0  0  0
  2 89  1  0  0  0
  3  4  1  0  0  0
  3 90  1  0  0  0
  3 91  1  0  0  0
  4  5  1  0  0  0
  4 92  1  0  0  0
  4 93  1  0  0  0
  5  6  1  0  0  0
  5 26  1  0  0  0
  5 94  1  0  0  0
  6 25  1  0  0  0
  6 95  1  0  0  0
  6 96  1  0  0  0
  7  8  2  0  0  0
  7 26  1  0  0  0
  7 29  1  0  0  0
  8  9  1  0  0  0
  8 22  1  0  0  0
  9 10  1  0  0  0
  9 27  2  0  0  0
 10 11  2  0  0  0
 10 15  1  0  0  0
 11 12  1  0  0  0
 11 97  1  0  0  0
 12 13  2  0  0  0
 12 98  1  0  0  0
 13 14  1  0  0  0
 13 31  1  0  0  0
 14 15  2  0  0  0
 14 99  1  0  0  0
 15100  1  0  0  0
 16 17  2  0  0  0
 16 21  1  0  0  0
 16 31  1  0  0  0
 17 18  1  0  0  0
 17101  1  0  0  0
 18 19  2  0  0  0
 18102  1  0  0  0
 19 20  1  0  0  0
 19 24  1  0  0  0
 20 21  2  0  0  0
 20103  1  0  0  0
 21 23  1  0  0  0
 22 28  1  0  0  0
 22 32  2  0  0  0
 26 27  1  0  0  0
 28104  1  0  0  0
 28105  1  0  0  0
 29106  1  0  0  0
 29107  1  0  0  0
 33 34  1  0  0  0
 33 66  1  0  0  0
 33 70  2  0  0  0
 34 36  1  0  0  0
 34 59  1  0  0  0
 34108  1  0  0  0
 35 44  2  0  0  0
 35 45  1  0  0  0
 35 68  1  0  0  0
 36 56  1  0  0  0
 36109  1  0  0  0
 37 39  1  0  0  0
 37 47  1  0  0  0
 37 66  1  0  0  0
 37110  1  0  0  0
 38 43  2  0  0  0
 38 46  1  0  0  0
 38 47  1  0  0  0
 39 64  1  0  0  0
 39 67  2  0  0  0
 40 52  1  0  0  0
 40 53  2  0  0  0
 40 58  1  0  0  0
 41111  1  0  0  0
 41112  1  0  0  0
 41113  1  0  0  0
 41 48  1  0  0  0
 42 43  1  0  0  0
 42 66  1  0  0  0
 42114  1  0  0  0
 42115  1  0  0  0
 43 44  1  0  0  0
 44116  1  0  0  0
 45 46  2  0  0  0
 45117  1  0  0  0
 46118  1  0  0  0
 47119  1  0  0  0
 47120  1  0  0  0
 48 56  1  0  0  0
 48 65  1  0  0  0
 48121  1  0  0  0
 49 50  1  0  0  0
 49 53  1  0  0  0
 49 64  1  0  0  0
 49122  1  0  0  0
 50 51  1  0  0  0
 50123  1  0  0  0
 50124  1  0  0  0
 51 52  1  0  0  0
 51125  1  0  0  0
 51126  1  0  0  0
 52127  1  0  0  0
 52128  1  0  0  0
 53 54  1  0  0  0
 54 55  2  0  0  0
 54129  1  0  0  0
 55 57  1  0  0  0
 55130  1  0  0  0
 56 69  2  0  0  0
 57 58  2  0  0  0
 57131  1  0  0  0
 58132  1  0  0  0
 59 60  1  0  0  0
 59 61  1  0  0  0
 59 62  1  0  0  0
 60133  1  0  0  0
 60134  1  0  0  0
 60135  1  0  0  0
 61136  1  0  0  0
 61137  1  0  0  0
 61138  1  0  0  0
 62139  1  0  0  0
 62140  1  0  0  0
 62141  1  0  0  0
 63 65  1  0  0  0
 63142  1  0  0  0
 63143  1  0  0  0
 63144  1  0  0  0
 64145  1  0  0  0
 65146  1  0  0  0
 68 77  1  0  0  0
 71 72  2  0  0  0
 71 73  1  0  0  0
 71147  1  0  0  0
 72 74  1  0  0  0
 72148  1  0  0  0
 73 76  2  0  0  0
 73149  1  0  0  0
 74 75  2  0  0  0
 74 79  1  0  0  0
 75 76  1  0  0  0
 75 81  1  0  0  0
 76 84  1  0  0  0
 77 80  2  0  0  0
 77150  1  0  0  0
 78 83  1  0  0  0
 78 86  2  0  0  0
 78151  1  0  0  0
 79 85  1  0  0  0
 79 87  2  0  0  0
 80 82  1  0  0  0
 80 83  1  0  0  0
 81152  1  0  0  0
 81153  1  0  0  0
 81154  1  0  0  0
 82155  1  0  0  0
 82156  1  0  0  0
 82157  1  0  0  0
 83 85  1  0  0  0
 83158  1  0  0  0
 84159  1  0  0  0
 85160  1  0  0  0
M  ISO  4   1 100  68 101  77 101  84 100
M  END
> <chiral flag>
0

> <version>
0

> <s_m_source_file>
/data/baiqing/PycharmProjects/Reinvent-master-3.2/result/LINK_invent/BTK/process_docking_weight1_custom_product_contain_oxygen_bond_distance_aromatic_linkinvent_7_9_3/rearranged_h_0058.sdf

> <i_m_source_file_index>
71

> <r_mmod_Potential_Energy-OPLS-2005>
-141.816604614258

> <r_mmod_Stretch_Energy-OPLS-2005>
50.4536209106445

> <r_mmod_Bend_Energy-OPLS-2005>
105.752601623535

> <r_mmod_Torsional_Energy-OPLS-2005>
215.081359863281

> <r_mmod_Improper_Torsional_Energy-OPLS-2005>
6.4771523475647

> <r_mmod_Van_der_Waal_Energy-OPLS-2005>
170.104690551758

> <r_mmod_Electrostatic_Energy-OPLS-2005>
-481.04345703125

> <r_mmod_Solvation_Energy-OPLS-2005>
-231.685546875

> <b_mmod_Minimization_Converged-OPLS-2005>
0

> <r_mmod_RMS_Derivative-OPLS-2005>
5.15666723251343

$$$$
71
                    3D
 Structure written by MMmdl.
153161  0  0  1  0            999 V2000
  -30.6782  -14.5768   20.4403 C   0  0  0  0  0  0
  -30.4290  -12.3282   19.4593 C   0  0  0  0  0  0
  -29.5057  -12.4326   18.2273 C   0  0  0  0  0  0
  -28.0230  -12.3291   18.6364 C   0  0  0  0  0  0
  -27.6566  -13.2150   19.8580 C   0  0  2  0  0  0
  -28.7041  -13.0921   20.9874 C   0  0  0  0  0  0
  -25.2610  -13.8176   20.5694 C   0  0  0  0  0  0
  -24.1860  -13.0442   20.9187 C   0  0  0  0  0  0
  -24.6413  -11.6908   20.8723 C   0  0  0  0  0  0
  -23.9082  -10.4275   21.0387 C   0  0  0  0  0  0
  -24.3618   -9.4196   21.9185 C   0  0  0  0  0  0
  -23.6292   -8.2239   22.0751 C   0  0  0  0  0  0
  -22.4277   -8.0272   21.3541 C   0  0  0  0  0  0
  -21.9901   -9.0249   20.4654 C   0  0  0  0  0  0
  -22.7239  -10.2123   20.3065 C   0  0  0  0  0  0
  -21.6852   -6.0722   22.5257 C   0  0  0  0  0  0
  -21.4017   -6.5634   23.8184 C   0  0  0  0  0  0
  -21.3664   -5.6790   24.9150 C   0  0  0  0  0  0
  -21.6052   -4.3056   24.7208 C   0  0  0  0  0  0
  -21.8817   -3.8143   23.4324 C   0  0  0  0  0  0
  -21.9196   -4.6952   22.3381 C   0  0  0  0  0  0
  -22.7880  -13.5236   21.1857 C   0  0  0  0  0  0
  -22.1665   -4.2141   21.0960 F   0  0  0  0  0  0
  -21.5650   -3.4544   25.7725 F   0  0  0  0  0  0
  -30.0214  -13.3809   20.4068 N   0  0  0  0  0  0
  -26.3040  -12.9358   20.3326 N   0  0  0  0  0  0
  -25.9354  -11.6513   20.5768 N   0  0  0  0  0  0
  -22.0521  -12.8198   22.0378 N   0  0  0  0  0  0
  -25.4357  -15.1889   20.4115 N   0  0  0  0  0  0
  -31.8841  -14.6594   20.1984 O   0  0  0  0  0  0
  -21.6643   -6.8863   21.4223 O   0  0  0  0  0  0
  -22.3557  -14.5546   20.6718 O   0  0  0  0  0  0
  -24.6204  -31.8620   23.2048 C   0  0  0  0  0  0
  -25.9069  -32.4789   23.8364 C   0  0  1  0  0  0
  -27.2262  -27.3635   20.1076 C   0  0  0  0  0  0
  -25.5906  -33.8593   24.2304 N   0  0  0  0  0  0
  -23.4111  -30.4836   21.5476 C   0  0  2  0  0  0
  -24.8559  -28.9427   20.1052 C   0  0  0  0  0  0
  -22.7447  -29.4615   22.4965 C   0  0  0  0  0  0
  -18.0279  -28.1391   22.8497 C   0  0  0  0  0  0
  -24.1493  -36.7312   23.2634 C   0  0  0  0  0  0
  -25.9438  -30.8024   21.3684 C   0  0  0  0  0  0
  -26.0142  -29.4297   20.7206 C   0  0  0  0  0  0
  -27.1939  -28.6418   20.7291 C   0  0  0  0  0  0
  -26.0507  -26.9163   19.4633 C   0  0  0  0  0  0
  -24.8728  -27.6900   19.4686 C   0  0  0  0  0  0
  -23.6216  -29.8171   20.1600 C   0  0  0  0  0  0
  -25.4107  -36.3101   24.0336 C   0  0  1  0  0  0
  -20.5877  -28.3671   23.1319 C   0  0  2  0  0  0
  -20.6763  -26.9403   22.5426 C   0  0  0  0  0  0
  -19.5740  -26.6399   21.5217 C   0  0  0  0  0  0
  -18.1917  -26.7943   22.1619 C   0  0  0  0  0  0
  -19.1532  -28.8850   23.2903 C   0  0  0  0  0  0
  -18.9447  -30.1461   23.8907 C   0  0  0  0  0  0
  -17.6447  -30.6589   24.0572 C   0  0  0  0  0  0
  -25.9037  -34.9463   23.5113 C   0  0  0  0  0  0
  -16.5339  -29.9092   23.6335 C   0  0  0  0  0  0
  -16.7270  -28.6514   23.0348 C   0  0  0  0  0  0
  -26.4475  -31.6584   25.0710 C   0  0  0  0  0  0
  -25.3735  -31.3697   26.1454 C   0  0  0  0  0  0
  -27.0291  -30.3027   24.6083 C   0  0  0  0  0  0
  -27.6051  -32.4301   25.7466 C   0  0  0  0  0  0
  -27.5589  -37.1798   24.8451 C   0  0  0  0  0  0
  -21.4167  -29.3025   22.3726 N   0  0  0  0  0  0
  -26.4290  -37.3788   23.9413 N   0  0  0  0  0  0
  -24.6776  -31.0661   22.0982 N   0  0  0  0  0  0
  -23.4202  -28.8142   23.3012 O   0  0  0  0  0  0
  -28.3768  -26.5848   20.1949 O   0  0  0  0  0  0
  -26.5602  -34.8931   22.4680 O   0  0  0  0  0  0
  -23.5384  -32.1384   23.7413 O   0  0  0  0  0  0
  -30.8622  -19.5280   18.7454 C   0  0  0  0  0  0
  -31.1298  -18.3383   18.0562 C   0  0  0  0  0  0
  -29.8595  -18.2301   20.5525 C   0  0  0  0  0  0
  -30.1635  -19.5046   19.9656 C   0  0  0  0  0  0
  -30.1977  -16.9948   19.8950 C   0  0  0  0  0  0
  -30.7613  -17.0919   18.5840 C   0  0  0  0  0  0
  -29.1539  -22.9873   20.0719 C   0  0  0  0  0  0
  -28.2561  -24.0014   19.8758 C   0  0  0  0  0  0
  -28.8292  -21.5702   20.3549 C   0  0  0  0  0  0
  -28.5993  -25.4254   19.3442 C   0  0  0  0  0  0
  -29.9250  -20.7979   20.5549 N   0  0  0  0  0  0
  -29.9092  -15.7016   20.5048 N   0  0  0  0  0  0
  -27.6853  -21.1104   20.4085 O   0  0  0  0  0  0
  -26.9284  -23.8588   20.0205 O   0  0  0  0  0  0
  -30.9535  -15.7452   17.5146 Cl  0  0  0  0  0  0
  -31.4761  -12.4118   19.1588 H   0  0  0  0  0  0
  -30.3319  -11.3471   19.9251 H   0  0  0  0  0  0
  -29.7444  -11.6410   17.5151 H   0  0  0  0  0  0
  -29.6763  -13.3687   17.7008 H   0  0  0  0  0  0
  -27.8248  -11.2812   18.8680 H   0  0  0  0  0  0
  -27.3837  -12.5781   17.7892 H   0  0  0  0  0  0
  -27.6760  -14.2452   19.5026 H   0  0  0  0  0  0
  -28.7026  -12.0877   21.4167 H   0  0  0  0  0  0
  -28.4801  -13.7754   21.8087 H   0  0  0  0  0  0
  -25.2757   -9.5680   22.4761 H   0  0  0  0  0  0
  -24.0002   -7.4628   22.7471 H   0  0  0  0  0  0
  -21.0829   -8.8779   19.8958 H   0  0  0  0  0  0
  -22.3701  -10.9668   19.6179 H   0  0  0  0  0  0
  -21.2001   -7.6133   23.9679 H   0  0  0  0  0  0
  -21.1511   -6.0522   25.9051 H   0  0  0  0  0  0
  -22.0601   -2.7612   23.2817 H   0  0  0  0  0  0
  -22.4131  -11.9809   22.4684 H   0  0  0  0  0  0
  -21.1177  -13.1258   22.2688 H   0  0  0  0  0  0
  -24.6734  -15.8484   20.5260 H   0  0  0  0  0  0
  -26.2934  -15.6247   20.0992 H   0  0  0  0  0  0
  -26.7127  -32.5484   23.1113 H   0  0  0  0  0  0
  -25.0069  -33.9728   25.0462 H   0  0  0  0  0  0
  -22.7025  -31.3026   21.4080 H   0  0  0  0  0  0
  -23.3751  -35.9644   23.3274 H   0  0  0  0  0  0
  -24.3600  -36.8949   22.2053 H   0  0  0  0  0  0
  -23.7245  -37.6514   23.6659 H   0  0  0  0  0  0
  -26.0594  -31.5569   20.5890 H   0  0  0  0  0  0
  -26.8329  -30.8635   21.9838 H   0  0  0  0  0  0
  -28.0800  -28.9991   21.2338 H   0  0  0  0  0  0
  -26.0143  -25.9570   18.9707 H   0  0  0  0  0  0
  -23.9868  -27.3136   18.9765 H   0  0  0  0  0  0
  -23.7359  -30.5920   19.4010 H   0  0  0  0  0  0
  -22.7434  -29.2421   19.8609 H   0  0  0  0  0  0
  -25.1282  -36.1953   25.0825 H   0  0  0  0  0  0
  -20.9968  -28.3236   24.1440 H   0  0  0  0  0  0
  -20.5670  -26.2266   23.3606 H   0  0  0  0  0  0
  -21.6629  -26.7451   22.1208 H   0  0  0  0  0  0
  -19.6886  -25.6313   21.1236 H   0  0  0  0  0  0
  -19.6685  -27.3223   20.6756 H   0  0  0  0  0  0
  -17.4194  -26.6732   21.4009 H   0  0  0  0  0  0
  -18.0287  -26.0086   22.9008 H   0  0  0  0  0  0
  -19.7919  -30.7286   24.2275 H   0  0  0  0  0  0
  -17.4992  -31.6261   24.5183 H   0  0  0  0  0  0
  -15.5335  -30.2981   23.7651 H   0  0  0  0  0  0
  -15.8677  -28.0833   22.7044 H   0  0  0  0  0  0
  -24.5892  -30.7066   25.7782 H   0  0  0  0  0  0
  -24.8949  -32.2858   26.4927 H   0  0  0  0  0  0
  -25.8086  -30.8836   27.0194 H   0  0  0  0  0  0
  -26.2820  -29.6799   24.1147 H   0  0  0  0  0  0
  -27.4070  -29.7251   25.4525 H   0  0  0  0  0  0
  -27.8660  -30.4344   23.9221 H   0  0  0  0  0  0
  -27.2669  -33.3584   26.2078 H   0  0  0  0  0  0
  -28.3835  -32.6880   25.0275 H   0  0  0  0  0  0
  -28.0742  -31.8404   26.5346 H   0  0  0  0  0  0
  -28.2575  -38.0124   24.7545 H   0  0  0  0  0  0
  -28.1126  -36.2660   24.6222 H   0  0  0  0  0  0
  -27.2331  -37.1395   25.8860 H   0  0  0  0  0  0
  -20.9340  -29.8743   21.6939 H   0  0  0  0  0  0
  -26.0180  -38.2870   24.1411 H   0  0  0  0  0  0
  -31.1730  -20.4665   18.3036 H   0  0  0  0  0  0
  -31.6029  -18.3875   17.0858 H   0  0  0  0  0  0
  -29.3808  -18.2014   21.5202 H   0  0  0  0  0  0
  -30.1963  -23.2395   19.9461 H   0  0  0  0  0  0
  -28.1479  -25.5660   18.3601 H   0  0  0  0  0  0
  -29.6723  -25.4232   19.1498 H   0  0  0  0  0  0
  -30.7595  -21.3638   20.6298 H   0  0  0  0  0  0
  -28.9743  -15.5781   20.8605 H   0  0  0  0  0  0
  -26.7600  -22.9508   20.2543 H   0  0  0  0  0  0
  1 25  1  0  0  0
  1 30  2  0  0  0
  1 82  1  0  0  0
  2  3  1  0  0  0
  2 25  1  0  0  0
  2 86  1  0  0  0
  2 87  1  0  0  0
  3  4  1  0  0  0
  3 88  1  0  0  0
  3 89  1  0  0  0
  4  5  1  0  0  0
  4 90  1  0  0  0
  4 91  1  0  0  0
  5  6  1  0  0  0
  5 26  1  0  0  0
  5 92  1  0  0  0
  6 25  1  0  0  0
  6 93  1  0  0  0
  6 94  1  0  0  0
  7  8  2  0  0  0
  7 26  1  0  0  0
  7 29  1  0  0  0
  8  9  1  0  0  0
  8 22  1  0  0  0
  9 10  1  0  0  0
  9 27  2  0  0  0
 10 11  2  0  0  0
 10 15  1  0  0  0
 11 12  1  0  0  0
 11 95  1  0  0  0
 12 13  2  0  0  0
 12 96  1  0  0  0
 13 14  1  0  0  0
 13 31  1  0  0  0
 14 15  2  0  0  0
 14 97  1  0  0  0
 15 98  1  0  0  0
 16 17  2  0  0  0
 16 21  1  0  0  0
 16 31  1  0  0  0
 17 18  1  0  0  0
 17 99  1  0  0  0
 18 19  2  0  0  0
 18100  1  0  0  0
 19 20  1  0  0  0
 19 24  1  0  0  0
 20 21  2  0  0  0
 20101  1  0  0  0
 21 23  1  0  0  0
 22 28  1  0  0  0
 22 32  2  0  0  0
 26 27  1  0  0  0
 28102  1  0  0  0
 28103  1  0  0  0
 29104  1  0  0  0
 29105  1  0  0  0
 33 34  1  0  0  0
 33 66  1  0  0  0
 33 70  2  0  0  0
 34 36  1  0  0  0
 34 59  1  0  0  0
 34106  1  0  0  0
 35 44  2  0  0  0
 35 45  1  0  0  0
 35 68  1  0  0  0
 36 56  1  0  0  0
 36107  1  0  0  0
 37 39  1  0  0  0
 37 47  1  0  0  0
 37 66  1  0  0  0
 37108  1  0  0  0
 38 43  2  0  0  0
 38 46  1  0  0  0
 38 47  1  0  0  0
 39 64  1  0  0  0
 39 67  2  0  0  0
 40 52  1  0  0  0
 40 53  2  0  0  0
 40 58  1  0  0  0
 41109  1  0  0  0
 41110  1  0  0  0
 41111  1  0  0  0
 41 48  1  0  0  0
 42 43  1  0  0  0
 42 66  1  0  0  0
 42112  1  0  0  0
 42113  1  0  0  0
 43 44  1  0  0  0
 44114  1  0  0  0
 45 46  2  0  0  0
 45115  1  0  0  0
 46116  1  0  0  0
 47117  1  0  0  0
 47118  1  0  0  0
 48 56  1  0  0  0
 48 65  1  0  0  0
 48119  1  0  0  0
 49 50  1  0  0  0
 49 53  1  0  0  0
 49 64  1  0  0  0
 49120  1  0  0  0
 50 51  1  0  0  0
 50121  1  0  0  0
 50122  1  0  0  0
 51 52  1  0  0  0
 51123  1  0  0  0
 51124  1  0  0  0
 52125  1  0  0  0
 52126  1  0  0  0
 53 54  1  0  0  0
 54 55  2  0  0  0
 54127  1  0  0  0
 55 57  1  0  0  0
 55128  1  0  0  0
 56 69  2  0  0  0
 57 58  2  0  0  0
 57129  1  0  0  0
 58130  1  0  0  0
 59 60  1  0  0  0
 59 61  1  0  0  0
 59 62  1  0  0  0
 60131  1  0  0  0
 60132  1  0  0  0
 60133  1  0  0  0
 61134  1  0  0  0
 61135  1  0  0  0
 61136  1  0  0  0
 62137  1  0  0  0
 62138  1  0  0  0
 62139  1  0  0  0
 63 65  1  0  0  0
 63140  1  0  0  0
 63141  1  0  0  0
 63142  1  0  0  0
 64143  1  0  0  0
 65144  1  0  0  0
 68 80  1  0  0  0
 71 72  2  0  0  0
 71 74  1  0  0  0
 71145  1  0  0  0
 72 76  1  0  0  0
 72146  1  0  0  0
 73 74  2  0  0  0
 73 75  1  0  0  0
 73147  1  0  0  0
 74 81  1  0  0  0
 75 76  2  0  0  0
 75 82  1  0  0  0
 76 85  1  0  0  0
 77 78  2  0  0  0
 77 79  1  0  0  0
 77148  1  0  0  0
 78 80  1  0  0  0
 78 84  1  0  0  0
 79 81  1  0  0  0
 79 83  2  0  0  0
 80149  1  0  0  0
 80150  1  0  0  0
 81151  1  0  0  0
 82152  1  0  0  0
 84153  1  0  0  0
M  ISO  4   1 100  68 101  80 101  82 100
M  END
> <chiral flag>
0

> <version>
0

> <s_m_source_file>
/data/baiqing/PycharmProjects/Reinvent-master-3.2/result/LINK_invent/BTK/process_docking_weight1_custom_product_contain_oxygen_bond_distance_aromatic_linkinvent_7_9_3/rearranged_h_0058.sdf

> <i_m_source_file_index>
72

> <r_mmod_Potential_Energy-OPLS-2005>
29.5558261871338

> <r_mmod_Stretch_Energy-OPLS-2005>
59.4621315002441

> <r_mmod_Bend_Energy-OPLS-2005>
131.624221801758

> <r_mmod_Torsional_Energy-OPLS-2005>
281.085083007812

> <r_mmod_Improper_Torsional_Energy-OPLS-2005>
10.8410367965698

> <r_mmod_Van_der_Waal_Energy-OPLS-2005>
150.546585083008

> <r_mmod_Electrostatic_Energy-OPLS-2005>
-402.818786621094

> <r_mmod_Solvation_Energy-OPLS-2005>
-240.284317016602

> <b_mmod_Minimization_Converged-OPLS-2005>
0

> <r_mmod_RMS_Derivative-OPLS-2005>
3.07991671562195

$$$$
72
                    3D
 Structure written by MMmdl.
167176  0  0  1  0            999 V2000
  -30.6736  -14.5834   20.6027 C   0  0  0  0  0  0
  -30.4223  -12.3876   19.4418 C   0  0  0  0  0  0
  -29.4957  -12.5286   18.2149 C   0  0  0  0  0  0
  -28.0228  -12.3541   18.6299 C   0  0  0  0  0  0
  -27.6531  -13.2075   19.8719 C   0  0  2  0  0  0
  -28.6959  -13.0499   21.0022 C   0  0  0  0  0  0
  -25.2556  -13.8095   20.5688 C   0  0  0  0  0  0
  -24.1818  -13.0385   20.9193 C   0  0  0  0  0  0
  -24.6379  -11.6858   20.8758 C   0  0  0  0  0  0
  -23.9040  -10.4263   21.0428 C   0  0  0  0  0  0
  -24.3592   -9.4177   21.9211 C   0  0  0  0  0  0
  -23.6266   -8.2216   22.0774 C   0  0  0  0  0  0
  -22.4250   -8.0262   21.3554 C   0  0  0  0  0  0
  -21.9899   -9.0237   20.4650 C   0  0  0  0  0  0
  -22.7217  -10.2116   20.3064 C   0  0  0  0  0  0
  -21.6841   -6.0734   22.5285 C   0  0  0  0  0  0
  -21.4012   -6.5637   23.8214 C   0  0  0  0  0  0
  -21.3665   -5.6797   24.9181 C   0  0  0  0  0  0
  -21.6039   -4.3058   24.7225 C   0  0  0  0  0  0
  -21.8826   -3.8149   23.4347 C   0  0  0  0  0  0
  -21.9189   -4.6971   22.3398 C   0  0  0  0  0  0
  -22.7862  -13.5206   21.1855 C   0  0  0  0  0  0
  -22.1665   -4.2157   21.0976 F   0  0  0  0  0  0
  -21.5629   -3.4530   25.7731 F   0  0  0  0  0  0
  -30.0098  -13.3958   20.4429 N   0  0  0  0  0  0
  -26.2988  -12.9274   20.3373 N   0  0  0  0  0  0
  -25.9306  -11.6440   20.5790 N   0  0  0  0  0  0
  -22.0490  -12.8214   22.0408 N   0  0  0  0  0  0
  -25.4259  -15.1783   20.4056 N   0  0  0  0  0  0
  -31.8159  -14.7279   20.1532 O   0  0  0  0  0  0
  -21.6617   -6.8863   21.4233 O   0  0  0  0  0  0
  -22.3583  -14.5531   20.6704 O   0  0  0  0  0  0
  -24.6245  -31.8619   23.2026 C   0  0  0  0  0  0
  -25.9090  -32.4789   23.8378 C   0  0  1  0  0  0
  -27.2135  -27.3070   20.1286 C   0  0  0  0  0  0
  -25.5911  -33.8592   24.2285 N   0  0  0  0  0  0
  -23.4211  -30.4874   21.5453 C   0  0  2  0  0  0
  -24.8680  -28.9490   20.1066 C   0  0  0  0  0  0
  -22.7475  -29.4651   22.4927 C   0  0  0  0  0  0
  -18.0277  -28.1409   22.8504 C   0  0  0  0  0  0
  -24.1486  -36.7297   23.2644 C   0  0  0  0  0  0
  -25.9631  -30.7875   21.3816 C   0  0  0  0  0  0
  -26.0369  -29.4160   20.7207 C   0  0  0  0  0  0
  -27.2126  -28.6054   20.7251 C   0  0  0  0  0  0
  -26.0269  -26.9141   19.4595 C   0  0  0  0  0  0
  -24.8674  -27.7048   19.4639 C   0  0  0  0  0  0
  -23.6343  -29.8254   20.1602 C   0  0  0  0  0  0
  -25.4120  -36.3095   24.0325 C   0  0  1  0  0  0
  -20.5878  -28.3723   23.1283 C   0  0  2  0  0  0
  -20.6755  -26.9442   22.5430 C   0  0  0  0  0  0
  -19.5737  -26.6409   21.5218 C   0  0  0  0  0  0
  -18.1917  -26.7958   22.1626 C   0  0  0  0  0  0
  -19.1534  -28.8881   23.2884 C   0  0  0  0  0  0
  -18.9459  -30.1480   23.8912 C   0  0  0  0  0  0
  -17.6460  -30.6616   24.0579 C   0  0  0  0  0  0
  -25.9054  -34.9462   23.5107 C   0  0  0  0  0  0
  -16.5343  -29.9122   23.6340 C   0  0  0  0  0  0
  -16.7260  -28.6525   23.0375 C   0  0  0  0  0  0
  -26.4478  -31.6612   25.0754 C   0  0  0  0  0  0
  -25.3707  -31.3712   26.1473 C   0  0  0  0  0  0
  -27.0348  -30.3045   24.6232 C   0  0  0  0  0  0
  -27.6046  -32.4363   25.7522 C   0  0  0  0  0  0
  -27.5583  -37.1793   24.8459 C   0  0  0  0  0  0
  -21.4181  -29.3071   22.3663 N   0  0  0  0  0  0
  -26.4298  -37.3798   23.9398 N   0  0  0  0  0  0
  -24.6888  -31.0620   22.0999 N   0  0  0  0  0  0
  -23.4185  -28.8174   23.3004 O   0  0  0  0  0  0
  -28.2995  -26.4164   20.2325 O   0  0  0  0  0  0
  -26.5637  -34.8922   22.4683 O   0  0  0  0  0  0
  -23.5404  -32.1429   23.7338 O   0  0  0  0  0  0
  -32.2439  -18.4050   22.2814 C   0  0  0  0  0  0
  -31.5030  -19.5696   22.0320 C   0  0  0  0  0  0
  -31.7232  -17.1450   21.9538 C   0  0  0  0  0  0
  -29.6212  -18.1997   21.2532 C   0  0  0  0  0  0
  -30.1990  -19.5152   21.4877 C   0  0  0  0  0  0
  -30.4247  -16.9979   21.4152 C   0  0  0  0  0  0
  -29.3707  -21.1781   19.8736 C   0  0  0  0  0  0
  -28.6521  -22.5128   19.5303 C   0  0  0  0  0  0
  -28.7747  -23.2185   21.8658 C   0  0  0  0  0  0
  -29.6085  -21.9219   22.1741 C   0  0  0  0  0  0
  -28.9509  -23.7567   20.4221 C   0  0  2  0  0  0
  -27.3071  -17.4630   22.0321 C   0  0  0  0  0  0
  -27.8627  -17.4488   19.5267 C   0  0  0  0  0  0
  -28.0077  -24.9783   20.0051 C   0  0  0  0  0  0
  -28.1289  -18.0988   20.8941 C   0  0  0  0  0  0
  -29.5749  -20.8145   21.1712 N   0  0  0  0  0  0
  -29.9703  -15.6372   21.1285 N   0  0  0  0  0  0
  -29.6902  -20.4491   18.9289 O   0  0  0  0  0  0
  -31.4652  -12.4982   19.1404 H   0  0  0  0  0  0
  -30.3376  -11.3863   19.8666 H   0  0  0  0  0  0
  -29.7556  -11.7911   17.4533 H   0  0  0  0  0  0
  -29.6383  -13.5095   17.7560 H   0  0  0  0  0  0
  -27.8611  -11.2963   18.8472 H   0  0  0  0  0  0
  -27.3657  -12.5974   17.7940 H   0  0  0  0  0  0
  -27.6747  -14.2420   19.5400 H   0  0  0  0  0  0
  -28.7111  -12.0209   21.3688 H   0  0  0  0  0  0
  -28.4382  -13.6683   21.8632 H   0  0  0  0  0  0
  -25.2738   -9.5654   22.4792 H   0  0  0  0  0  0
  -23.9975   -7.4610   22.7500 H   0  0  0  0  0  0
  -21.0844   -8.8733   19.8954 H   0  0  0  0  0  0
  -22.3670  -10.9655   19.6172 H   0  0  0  0  0  0
  -21.2005   -7.6138   23.9711 H   0  0  0  0  0  0
  -21.1489   -6.0528   25.9083 H   0  0  0  0  0  0
  -22.0598   -2.7608   23.2835 H   0  0  0  0  0  0
  -22.4073  -11.9832   22.4754 H   0  0  0  0  0  0
  -21.1135  -13.1295   22.2627 H   0  0  0  0  0  0
  -24.6616  -15.8323   20.5261 H   0  0  0  0  0  0
  -26.2816  -15.6186   20.0979 H   0  0  0  0  0  0
  -26.7156  -32.5472   23.1130 H   0  0  0  0  0  0
  -25.0005  -33.9766   25.0392 H   0  0  0  0  0  0
  -22.7153  -31.3074   21.4020 H   0  0  0  0  0  0
  -23.3761  -35.9620   23.3331 H   0  0  0  0  0  0
  -24.3546  -36.8914   22.2050 H   0  0  0  0  0  0
  -23.7234  -37.6492   23.6676 H   0  0  0  0  0  0
  -26.0984  -31.5509   20.6142 H   0  0  0  0  0  0
  -26.8425  -30.8355   22.0125 H   0  0  0  0  0  0
  -28.1038  -28.9482   21.2334 H   0  0  0  0  0  0
  -25.9517  -25.9721   18.9375 H   0  0  0  0  0  0
  -23.9766  -27.3475   18.9651 H   0  0  0  0  0  0
  -23.7457  -30.6005   19.4021 H   0  0  0  0  0  0
  -22.7549  -29.2497   19.8639 H   0  0  0  0  0  0
  -25.1293  -36.1955   25.0818 H   0  0  0  0  0  0
  -20.9970  -28.3322   24.1397 H   0  0  0  0  0  0
  -20.5652  -26.2336   23.3636 H   0  0  0  0  0  0
  -21.6624  -26.7469   22.1231 H   0  0  0  0  0  0
  -19.6901  -25.6320   21.1251 H   0  0  0  0  0  0
  -19.6663  -27.3206   20.6737 H   0  0  0  0  0  0
  -17.4185  -26.6737   21.4021 H   0  0  0  0  0  0
  -18.0284  -26.0095   22.9009 H   0  0  0  0  0  0
  -19.7929  -30.7283   24.2288 H   0  0  0  0  0  0
  -17.5022  -31.6287   24.5203 H   0  0  0  0  0  0
  -15.5351  -30.3030   23.7660 H   0  0  0  0  0  0
  -15.8658  -28.0839   22.7114 H   0  0  0  0  0  0
  -24.5934  -30.7009   25.7781 H   0  0  0  0  0  0
  -24.8823  -32.2844   26.4871 H   0  0  0  0  0  0
  -25.8037  -30.8919   27.0264 H   0  0  0  0  0  0
  -26.2938  -29.6773   24.1262 H   0  0  0  0  0  0
  -27.4041  -29.7320   25.4746 H   0  0  0  0  0  0
  -27.8808  -30.4326   23.9486 H   0  0  0  0  0  0
  -27.2678  -33.3689   26.2064 H   0  0  0  0  0  0
  -28.3862  -32.6880   25.0343 H   0  0  0  0  0  0
  -28.0720  -31.8521   26.5457 H   0  0  0  0  0  0
  -28.2586  -38.0107   24.7542 H   0  0  0  0  0  0
  -28.1107  -36.2631   24.6274 H   0  0  0  0  0  0
  -27.2297  -37.1432   25.8865 H   0  0  0  0  0  0
  -20.9354  -29.8801   21.6878 H   0  0  0  0  0  0
  -26.0188  -38.2870   24.1446 H   0  0  0  0  0  0
  -33.2379  -18.4797   22.7009 H   0  0  0  0  0  0
  -31.9757  -20.5168   22.2446 H   0  0  0  0  0  0
  -32.3403  -16.2786   22.1443 H   0  0  0  0  0  0
  -27.5858  -22.2916   19.5748 H   0  0  0  0  0  0
  -28.8648  -22.7539   18.4886 H   0  0  0  0  0  0
  -29.0371  -24.0011   22.5817 H   0  0  0  0  0  0
  -27.7204  -23.0022   22.0437 H   0  0  0  0  0  0
  -29.3101  -21.5250   23.1453 H   0  0  0  0  0  0
  -30.6448  -22.2368   22.2922 H   0  0  0  0  0  0
  -29.9904  -24.0468   20.2645 H   0  0  0  0  0  0
  -27.4362  -18.0167   22.9628 H   0  0  0  0  0  0
  -27.5833  -16.4276   22.2269 H   0  0  0  0  0  0
  -26.2406  -17.4773   21.8060 H   0  0  0  0  0  0
  -28.4241  -17.9514   18.7393 H   0  0  0  0  0  0
  -26.8059  -17.5144   19.2652 H   0  0  0  0  0  0
  -28.1377  -16.3991   19.4976 H   0  0  0  0  0  0
  -27.0347  -24.7431   20.4373 H   0  0  0  0  0  0
  -27.8838  -24.8983   18.9244 H   0  0  0  0  0  0
  -27.7285  -19.1059   20.8072 H   0  0  0  0  0  0
  -28.9942  -15.4547   21.2986 H   0  0  0  0  0  0
  1 25  1  0  0  0
  1 30  2  0  0  0
  1 87  1  0  0  0
  2  3  1  0  0  0
  2 25  1  0  0  0
  2 89  1  0  0  0
  2 90  1  0  0  0
  3  4  1  0  0  0
  3 91  1  0  0  0
  3 92  1  0  0  0
  4  5  1  0  0  0
  4 93  1  0  0  0
  4 94  1  0  0  0
  5  6  1  0  0  0
  5 26  1  0  0  0
  5 95  1  0  0  0
  6 25  1  0  0  0
  6 96  1  0  0  0
  6 97  1  0  0  0
  7  8  2  0  0  0
  7 26  1  0  0  0
  7 29  1  0  0  0
  8  9  1  0  0  0
  8 22  1  0  0  0
  9 10  1  0  0  0
  9 27  2  0  0  0
 10 11  2  0  0  0
 10 15  1  0  0  0
 11 12  1  0  0  0
 11 98  1  0  0  0
 12 13  2  0  0  0
 12 99  1  0  0  0
 13 14  1  0  0  0
 13 31  1  0  0  0
 14 15  2  0  0  0
 14100  1  0  0  0
 15101  1  0  0  0
 16 17  2  0  0  0
 16 21  1  0  0  0
 16 31  1  0  0  0
 17 18  1  0  0  0
 17102  1  0  0  0
 18 19  2  0  0  0
 18103  1  0  0  0
 19 20  1  0  0  0
 19 24  1  0  0  0
 20 21  2  0  0  0
 20104  1  0  0  0
 21 23  1  0  0  0
 22 28  1  0  0  0
 22 32  2  0  0  0
 26 27  1  0  0  0
 28105  1  0  0  0
 28106  1  0  0  0
 29107  1  0  0  0
 29108  1  0  0  0
 33 34  1  0  0  0
 33 66  1  0  0  0
 33 70  2  0  0  0
 34 36  1  0  0  0
 34 59  1  0  0  0
 34109  1  0  0  0
 35 44  2  0  0  0
 35 45  1  0  0  0
 35 68  1  0  0  0
 36 56  1  0  0  0
 36110  1  0  0  0
 37 39  1  0  0  0
 37 47  1  0  0  0
 37 66  1  0  0  0
 37111  1  0  0  0
 38 43  2  0  0  0
 38 46  1  0  0  0
 38 47  1  0  0  0
 39 64  1  0  0  0
 39 67  2  0  0  0
 40 52  1  0  0  0
 40 53  2  0  0  0
 40 58  1  0  0  0
 41112  1  0  0  0
 41113  1  0  0  0
 41114  1  0  0  0
 41 48  1  0  0  0
 42 43  1  0  0  0
 42 66  1  0  0  0
 42115  1  0  0  0
 42116  1  0  0  0
 43 44  1  0  0  0
 44117  1  0  0  0
 45 46  2  0  0  0
 45118  1  0  0  0
 46119  1  0  0  0
 47120  1  0  0  0
 47121  1  0  0  0
 48 56  1  0  0  0
 48 65  1  0  0  0
 48122  1  0  0  0
 49 50  1  0  0  0
 49 53  1  0  0  0
 49 64  1  0  0  0
 49123  1  0  0  0
 50 51  1  0  0  0
 50124  1  0  0  0
 50125  1  0  0  0
 51 52  1  0  0  0
 51126  1  0  0  0
 51127  1  0  0  0
 52128  1  0  0  0
 52129  1  0  0  0
 53 54  1  0  0  0
 54 55  2  0  0  0
 54130  1  0  0  0
 55 57  1  0  0  0
 55131  1  0  0  0
 56 69  2  0  0  0
 57 58  2  0  0  0
 57132  1  0  0  0
 58133  1  0  0  0
 59 60  1  0  0  0
 59 61  1  0  0  0
 59 62  1  0  0  0
 60134  1  0  0  0
 60135  1  0  0  0
 60136  1  0  0  0
 61137  1  0  0  0
 61138  1  0  0  0
 61139  1  0  0  0
 62140  1  0  0  0
 62141  1  0  0  0
 62142  1  0  0  0
 63 65  1  0  0  0
 63143  1  0  0  0
 63144  1  0  0  0
 63145  1  0  0  0
 64146  1  0  0  0
 65147  1  0  0  0
 68 84  1  0  0  0
 71 72  2  0  0  0
 71 73  1  0  0  0
 71148  1  0  0  0
 72 75  1  0  0  0
 72149  1  0  0  0
 73 76  2  0  0  0
 73150  1  0  0  0
 74 75  2  0  0  0
 74 76  1  0  0  0
 74 85  1  0  0  0
 75 86  1  0  0  0
 76 87  1  0  0  0
 77 78  1  0  0  0
 77 86  1  0  0  0
 77 88  2  0  0  0
 78 81  1  0  0  0
 78151  1  0  0  0
 78152  1  0  0  0
 79 80  1  0  0  0
 79 81  1  0  0  0
 79153  1  0  0  0
 79154  1  0  0  0
 80 86  1  0  0  0
 80155  1  0  0  0
 80156  1  0  0  0
 81 84  1  0  0  0
 81157  1  0  0  0
 82158  1  0  0  0
 82159  1  0  0  0
 82160  1  0  0  0
 82 85  1  0  0  0
 83 85  1  0  0  0
 83161  1  0  0  0
 83162  1  0  0  0
 83163  1  0  0  0
 84164  1  0  0  0
 84165  1  0  0  0
 85166  1  0  0  0
 87167  1  0  0  0
M  ISO  4   1 100  68 101  84 101  87 100
M  END
> <chiral flag>
0

> <version>
0

> <s_m_source_file>
/data/baiqing/PycharmProjects/Reinvent-master-3.2/result/LINK_invent/BTK/process_docking_weight1_custom_product_contain_oxygen_bond_distance_aromatic_linkinvent_7_9_3/rearranged_h_0058.sdf

> <i_m_source_file_index>
73

> <r_mmod_Potential_Energy-OPLS-2005>
183.826965332031

> <r_mmod_Stretch_Energy-OPLS-2005>
90.2698364257812

> <r_mmod_Bend_Energy-OPLS-2005>
153.030487060547

> <r_mmod_Torsional_Energy-OPLS-2005>
292.340881347656

> <r_mmod_Improper_Torsional_Energy-OPLS-2005>
4.88861322402954

> <r_mmod_Van_der_Waal_Energy-OPLS-2005>
158.367828369141

> <r_mmod_Electrostatic_Energy-OPLS-2005>
-346.130401611328

> <r_mmod_Solvation_Energy-OPLS-2005>
-216.253479003906

> <b_mmod_Minimization_Converged-OPLS-2005>
0

> <r_mmod_RMS_Derivative-OPLS-2005>
2.85048031806946

$$$$
73
                    3D
 Structure written by MMmdl.
150158  0  0  1  0            999 V2000
  -30.4772  -15.0875   20.3521 C   0  0  0  0  0  0
  -30.4387  -12.6761   19.5118 C   0  0  0  0  0  0
  -29.5392  -12.5874   18.2560 C   0  0  0  0  0  0
  -28.0637  -12.3683   18.6466 C   0  0  0  0  0  0
  -27.6266  -13.2759   19.8289 C   0  0  2  0  0  0
  -28.6644  -13.3347   20.9697 C   0  0  0  0  0  0
  -25.2446  -13.8248   20.5617 C   0  0  0  0  0  0
  -24.1808  -13.0442   20.9182 C   0  0  0  0  0  0
  -24.6455  -11.6935   20.8685 C   0  0  0  0  0  0
  -23.9137  -10.4292   21.0359 C   0  0  0  0  0  0
  -24.3684   -9.4217   21.9140 C   0  0  0  0  0  0
  -23.6336   -8.2272   22.0723 C   0  0  0  0  0  0
  -22.4308   -8.0304   21.3542 C   0  0  0  0  0  0
  -21.9954   -9.0269   20.4629 C   0  0  0  0  0  0
  -22.7306  -10.2138   20.3017 C   0  0  0  0  0  0
  -21.6888   -6.0720   22.5252 C   0  0  0  0  0  0
  -21.4027   -6.5605   23.8190 C   0  0  0  0  0  0
  -21.3682   -5.6764   24.9143 C   0  0  0  0  0  0
  -21.6071   -4.3021   24.7190 C   0  0  0  0  0  0
  -21.8847   -3.8112   23.4299 C   0  0  0  0  0  0
  -21.9200   -4.6932   22.3363 C   0  0  0  0  0  0
  -22.7812  -13.5170   21.1805 C   0  0  0  0  0  0
  -22.1668   -4.2116   21.0942 F   0  0  0  0  0  0
  -21.5654   -3.4506   25.7694 F   0  0  0  0  0  0
  -29.9277  -13.7896   20.3751 N   0  0  0  0  0  0
  -26.2881  -12.9533   20.3125 N   0  0  0  0  0  0
  -25.9390  -11.6627   20.5623 N   0  0  0  0  0  0
  -22.0527  -12.8178   22.0420 N   0  0  0  0  0  0
  -25.4066  -15.1986   20.4021 N   0  0  0  0  0  0
  -31.6710  -15.1373   20.0299 O   0  0  0  0  0  0
  -21.6690   -6.8882   21.4231 O   0  0  0  0  0  0
  -22.3460  -14.5438   20.6595 O   0  0  0  0  0  0
  -24.6546  -31.8350   23.1827 C   0  0  0  0  0  0
  -25.9291  -32.4645   23.8244 C   0  0  1  0  0  0
  -27.2183  -27.0376   20.1612 C   0  0  0  0  0  0
  -25.6020  -33.8468   24.2168 N   0  0  0  0  0  0
  -23.4612  -30.4509   21.5280 C   0  0  2  0  0  0
  -24.9141  -28.8604   20.1047 C   0  0  0  0  0  0
  -22.7619  -29.4479   22.4810 C   0  0  0  0  0  0
  -18.0321  -28.1380   22.8474 C   0  0  0  0  0  0
  -24.1490  -36.7228   23.2630 C   0  0  0  0  0  0
  -26.0222  -30.6754   21.3954 C   0  0  0  0  0  0
  -26.0904  -29.2760   20.7383 C   0  0  0  0  0  0
  -27.2375  -28.3818   20.7507 C   0  0  0  0  0  0
  -26.0205  -26.7560   19.4686 C   0  0  0  0  0  0
  -24.8956  -27.6154   19.4556 C   0  0  0  0  0  0
  -23.6953  -29.7754   20.1475 C   0  0  0  0  0  0
  -25.4143  -36.3018   24.0298 C   0  0  1  0  0  0
  -20.5940  -28.3707   23.1222 C   0  0  2  0  0  0
  -20.6786  -26.9391   22.5416 C   0  0  0  0  0  0
  -19.5773  -26.6343   21.5217 C   0  0  0  0  0  0
  -18.1956  -26.7918   22.1617 C   0  0  0  0  0  0
  -19.1581  -28.8862   23.2828 C   0  0  0  0  0  0
  -18.9476  -30.1466   23.8839 C   0  0  0  0  0  0
  -17.6471  -30.6554   24.0554 C   0  0  0  0  0  0
  -25.9117  -34.9380   23.5037 C   0  0  0  0  0  0
  -16.5362  -29.9047   23.6328 C   0  0  0  0  0  0
  -16.7301  -28.6464   23.0341 C   0  0  0  0  0  0
  -26.4579  -31.6544   25.0711 C   0  0  0  0  0  0
  -25.3721  -31.3748   26.1362 C   0  0  0  0  0  0
  -27.0468  -30.2935   24.6344 C   0  0  0  0  0  0
  -27.6106  -32.4280   25.7531 C   0  0  0  0  0  0
  -27.5590  -37.1782   24.8461 C   0  0  0  0  0  0
  -21.4287  -29.3022   22.3583 N   0  0  0  0  0  0
  -26.4297  -37.3744   23.9399 N   0  0  0  0  0  0
  -24.7327  -31.0135   22.0889 N   0  0  0  0  0  0
  -23.4214  -28.8043   23.3016 O   0  0  0  0  0  0
  -28.2501  -26.0016   20.2692 O   0  0  0  0  0  0
  -26.5662  -34.8885   22.4595 O   0  0  0  0  0  0
  -23.5648  -32.1285   23.6992 O   0  0  0  0  0  0
  -29.3946  -19.1142   17.9937 C   0  0  0  0  0  0
  -29.1054  -20.3078   18.6984 C   0  0  0  0  0  0
  -29.6686  -17.8878   18.6508 C   0  0  0  0  0  0
  -29.1184  -20.3244   20.1031 C   0  0  0  0  0  0
  -29.6284  -17.7651   20.0563 C   0  0  0  0  0  0
  -28.9332  -21.7487   20.8880 C   0  0  0  0  0  0
  -28.6335  -23.1805   20.8903 C   0  0  0  0  0  0
  -28.7668  -23.8454   22.2603 C   0  0  0  0  0  0
  -28.1497  -24.4392   19.8926 C   0  0  0  0  0  0
  -29.3443  -19.0267   20.7188 N   0  0  0  0  0  0
  -29.6976  -16.2890   20.5992 N   0  0  0  0  0  0
  -31.4750  -12.8397   19.2129 H   0  0  0  0  0  0
  -30.4302  -11.7260   20.0472 H   0  0  0  0  0  0
  -29.8823  -11.7918   17.5922 H   0  0  0  0  0  0
  -29.6240  -13.5126   17.6840 H   0  0  0  0  0  0
  -27.9394  -11.3189   18.9085 H   0  0  0  0  0  0
  -27.4252  -12.5516   17.7809 H   0  0  0  0  0  0
  -27.5702  -14.2812   19.4083 H   0  0  0  0  0  0
  -28.7778  -12.3602   21.4431 H   0  0  0  0  0  0
  -28.3427  -14.0243   21.7532 H   0  0  0  0  0  0
  -25.2881   -9.5663   22.4639 H   0  0  0  0  0  0
  -24.0053   -7.4665   22.7437 H   0  0  0  0  0  0
  -21.0891   -8.8833   19.8907 H   0  0  0  0  0  0
  -22.3841  -10.9670   19.6077 H   0  0  0  0  0  0
  -21.2027   -7.6117   23.9669 H   0  0  0  0  0  0
  -21.1495   -6.0486   25.9057 H   0  0  0  0  0  0
  -22.0602   -2.7557   23.2810 H   0  0  0  0  0  0
  -22.4202  -11.9934   22.4921 H   0  0  0  0  0  0
  -21.1068  -13.1072   22.2466 H   0  0  0  0  0  0
  -24.6284  -15.8417   20.4899 H   0  0  0  0  0  0
  -26.2410  -15.6421   20.0365 H   0  0  0  0  0  0
  -26.7337  -32.5224   23.0954 H   0  0  0  0  0  0
  -25.0248  -33.9582   25.0369 H   0  0  0  0  0  0
  -22.7657  -31.2787   21.3678 H   0  0  0  0  0  0
  -23.3784  -35.9524   23.3273 H   0  0  0  0  0  0
  -24.3567  -36.8899   22.2048 H   0  0  0  0  0  0
  -23.7199  -37.6392   23.6692 H   0  0  0  0  0  0
  -26.1961  -31.4208   20.6187 H   0  0  0  0  0  0
  -26.8828  -30.7263   22.0482 H   0  0  0  0  0  0
  -28.1273  -28.6898   21.2817 H   0  0  0  0  0  0
  -25.9145  -25.8145   18.9542 H   0  0  0  0  0  0
  -24.0011  -27.2982   18.9388 H   0  0  0  0  0  0
  -23.8408  -30.5486   19.3922 H   0  0  0  0  0  0
  -22.8040  -29.2274   19.8339 H   0  0  0  0  0  0
  -25.1338  -36.1840   25.0789 H   0  0  0  0  0  0
  -21.0044  -28.3296   24.1341 H   0  0  0  0  0  0
  -20.5670  -26.2323   23.3652 H   0  0  0  0  0  0
  -21.6656  -26.7371   22.1235 H   0  0  0  0  0  0
  -19.6939  -25.6230   21.1291 H   0  0  0  0  0  0
  -19.6742  -27.3112   20.6708 H   0  0  0  0  0  0
  -17.4253  -26.6681   21.3992 H   0  0  0  0  0  0
  -18.0327  -26.0045   22.8992 H   0  0  0  0  0  0
  -19.7939  -30.7307   24.2187 H   0  0  0  0  0  0
  -17.4998  -31.6245   24.5141 H   0  0  0  0  0  0
  -15.5353  -30.2917   23.7664 H   0  0  0  0  0  0
  -15.8706  -28.0762   22.7071 H   0  0  0  0  0  0
  -24.5949  -30.7051   25.7662 H   0  0  0  0  0  0
  -24.8854  -32.2926   26.4658 H   0  0  0  0  0  0
  -25.7968  -30.9009   27.0223 H   0  0  0  0  0  0
  -26.3117  -29.6616   24.1345 H   0  0  0  0  0  0
  -27.4064  -29.7272   25.4952 H   0  0  0  0  0  0
  -27.9027  -30.4167   23.9706 H   0  0  0  0  0  0
  -27.2735  -33.3627   26.2025 H   0  0  0  0  0  0
  -28.4006  -32.6743   25.0417 H   0  0  0  0  0  0
  -28.0661  -31.8425   26.5534 H   0  0  0  0  0  0
  -28.2586  -38.0102   24.7542 H   0  0  0  0  0  0
  -28.1116  -36.2637   24.6261 H   0  0  0  0  0  0
  -27.2307  -37.1369   25.8861 H   0  0  0  0  0  0
  -20.9521  -29.8754   21.6757 H   0  0  0  0  0  0
  -26.0172  -38.2813   24.1395 H   0  0  0  0  0  0
  -29.3977  -19.1333   16.9122 H   0  0  0  0  0  0
  -28.9093  -21.2200   18.1496 H   0  0  0  0  0  0
  -29.8516  -17.0136   18.0377 H   0  0  0  0  0  0
  -29.1744  -21.4589   21.8985 H   0  0  0  0  0  0
  -29.0783  -23.1708   23.0575 H   0  0  0  0  0  0
  -27.8172  -24.2936   22.5609 H   0  0  0  0  0  0
  -29.5143  -24.6389   22.2168 H   0  0  0  0  0  0
  -27.1083  -24.2124   19.6694 H   0  0  0  0  0  0
  -28.6761  -24.3096   18.9444 H   0  0  0  0  0  0
  -28.8565  -16.0490   21.0999 H   0  0  0  0  0  0
  1 25  1  0  0  0
  1 30  2  0  0  0
  1 81  1  0  0  0
  2  3  1  0  0  0
  2 25  1  0  0  0
  2 82  1  0  0  0
  2 83  1  0  0  0
  3  4  1  0  0  0
  3 84  1  0  0  0
  3 85  1  0  0  0
  4  5  1  0  0  0
  4 86  1  0  0  0
  4 87  1  0  0  0
  5  6  1  0  0  0
  5 26  1  0  0  0
  5 88  1  0  0  0
  6 25  1  0  0  0
  6 89  1  0  0  0
  6 90  1  0  0  0
  7  8  2  0  0  0
  7 26  1  0  0  0
  7 29  1  0  0  0
  8  9  1  0  0  0
  8 22  1  0  0  0
  9 10  1  0  0  0
  9 27  2  0  0  0
 10 11  2  0  0  0
 10 15  1  0  0  0
 11 12  1  0  0  0
 11 91  1  0  0  0
 12 13  2  0  0  0
 12 92  1  0  0  0
 13 14  1  0  0  0
 13 31  1  0  0  0
 14 15  2  0  0  0
 14 93  1  0  0  0
 15 94  1  0  0  0
 16 17  2  0  0  0
 16 21  1  0  0  0
 16 31  1  0  0  0
 17 18  1  0  0  0
 17 95  1  0  0  0
 18 19  2  0  0  0
 18 96  1  0  0  0
 19 20  1  0  0  0
 19 24  1  0  0  0
 20 21  2  0  0  0
 20 97  1  0  0  0
 21 23  1  0  0  0
 22 28  1  0  0  0
 22 32  2  0  0  0
 26 27  1  0  0  0
 28 98  1  0  0  0
 28 99  1  0  0  0
 29100  1  0  0  0
 29101  1  0  0  0
 33 34  1  0  0  0
 33 66  1  0  0  0
 33 70  2  0  0  0
 34 36  1  0  0  0
 34 59  1  0  0  0
 34102  1  0  0  0
 35 44  2  0  0  0
 35 45  1  0  0  0
 35 68  1  0  0  0
 36 56  1  0  0  0
 36103  1  0  0  0
 37 39  1  0  0  0
 37 47  1  0  0  0
 37 66  1  0  0  0
 37104  1  0  0  0
 38 43  2  0  0  0
 38 46  1  0  0  0
 38 47  1  0  0  0
 39 64  1  0  0  0
 39 67  2  0  0  0
 40 52  1  0  0  0
 40 53  2  0  0  0
 40 58  1  0  0  0
 41105  1  0  0  0
 41106  1  0  0  0
 41107  1  0  0  0
 41 48  1  0  0  0
 42 43  1  0  0  0
 42 66  1  0  0  0
 42108  1  0  0  0
 42109  1  0  0  0
 43 44  1  0  0  0
 44110  1  0  0  0
 45 46  2  0  0  0
 45111  1  0  0  0
 46112  1  0  0  0
 47113  1  0  0  0
 47114  1  0  0  0
 48 56  1  0  0  0
 48 65  1  0  0  0
 48115  1  0  0  0
 49 50  1  0  0  0
 49 53  1  0  0  0
 49 64  1  0  0  0
 49116  1  0  0  0
 50 51  1  0  0  0
 50117  1  0  0  0
 50118  1  0  0  0
 51 52  1  0  0  0
 51119  1  0  0  0
 51120  1  0  0  0
 52121  1  0  0  0
 52122  1  0  0  0
 53 54  1  0  0  0
 54 55  2  0  0  0
 54123  1  0  0  0
 55 57  1  0  0  0
 55124  1  0  0  0
 56 69  2  0  0  0
 57 58  2  0  0  0
 57125  1  0  0  0
 58126  1  0  0  0
 59 60  1  0  0  0
 59 61  1  0  0  0
 59 62  1  0  0  0
 60127  1  0  0  0
 60128  1  0  0  0
 60129  1  0  0  0
 61130  1  0  0  0
 61131  1  0  0  0
 61132  1  0  0  0
 62133  1  0  0  0
 62134  1  0  0  0
 62135  1  0  0  0
 63 65  1  0  0  0
 63136  1  0  0  0
 63137  1  0  0  0
 63138  1  0  0  0
 64139  1  0  0  0
 65140  1  0  0  0
 68 79  1  0  0  0
 71 72  2  0  0  0
 71 73  1  0  0  0
 71141  1  0  0  0
 72 74  1  0  0  0
 72142  1  0  0  0
 73 75  2  0  0  0
 73143  1  0  0  0
 74 76  1  0  0  0
 74 80  2  0  0  0
 75 80  1  0  0  0
 75 81  1  0  0  0
 76 77  2  0  0  0
 76144  1  0  0  0
 77 78  1  0  0  0
 77 79  1  0  0  0
 78145  1  0  0  0
 78146  1  0  0  0
 78147  1  0  0  0
 79148  1  0  0  0
 79149  1  0  0  0
 81150  1  0  0  0
M  ISO  4   1 100  68 101  79 101  81 100
M  END
> <chiral flag>
0

> <version>
0

> <s_m_source_file>
/data/baiqing/PycharmProjects/Reinvent-master-3.2/result/LINK_invent/BTK/process_docking_weight1_custom_product_contain_oxygen_bond_distance_aromatic_linkinvent_7_9_3/rearranged_h_0058.sdf

> <i_m_source_file_index>
74

> <r_mmod_Potential_Energy-OPLS-2005>
706.5302734375

> <r_mmod_Stretch_Energy-OPLS-2005>
377.848785400391

> <r_mmod_Bend_Energy-OPLS-2005>
383.771911621094

> <r_mmod_Torsional_Energy-OPLS-2005>
240.954452514648

> <r_mmod_Improper_Torsional_Energy-OPLS-2005>
4.43844842910767

> <r_mmod_Van_der_Waal_Energy-OPLS-2005>
131.069091796875

> <r_mmod_Electrostatic_Energy-OPLS-2005>
-510.726043701172

> <r_mmod_Solvation_Energy-OPLS-2005>
-218.278366088867

> <b_mmod_Minimization_Converged-OPLS-2005>
0

> <r_mmod_RMS_Derivative-OPLS-2005>
4.97088861465454

$$$$
74
                    3D
 Structure written by MMmdl.
161170  0  0  1  0            999 V2000
  -30.6681  -14.5076   20.5415 C   0  0  0  0  0  0
  -30.4302  -12.3292   19.3957 C   0  0  0  0  0  0
  -29.4891  -12.4807   18.1768 C   0  0  0  0  0  0
  -27.9993  -12.3754   18.5806 C   0  0  0  0  0  0
  -27.6476  -13.2059   19.8413 C   0  0  2  0  0  0
  -28.6955  -12.9834   20.9536 C   0  0  0  0  0  0
  -25.2503  -13.8107   20.5603 C   0  0  0  0  0  0
  -24.1798  -13.0425   20.9173 C   0  0  0  0  0  0
  -24.6330  -11.6857   20.8647 C   0  0  0  0  0  0
  -23.9008  -10.4258   21.0338 C   0  0  0  0  0  0
  -24.3555   -9.4195   21.9142 C   0  0  0  0  0  0
  -23.6225   -8.2242   22.0743 C   0  0  0  0  0  0
  -22.4206   -8.0287   21.3557 C   0  0  0  0  0  0
  -21.9832   -9.0238   20.4658 C   0  0  0  0  0  0
  -22.7151  -10.2115   20.3007 C   0  0  0  0  0  0
  -21.6904   -6.0683   22.5249 C   0  0  0  0  0  0
  -21.4041   -6.5571   23.8180 C   0  0  0  0  0  0
  -21.3671   -5.6750   24.9151 C   0  0  0  0  0  0
  -21.6052   -4.3006   24.7239 C   0  0  0  0  0  0
  -21.8811   -3.8084   23.4350 C   0  0  0  0  0  0
  -21.9194   -4.6890   22.3395 C   0  0  0  0  0  0
  -22.7801  -13.5236   21.1865 C   0  0  0  0  0  0
  -22.1656   -4.2053   21.0987 F   0  0  0  0  0  0
  -21.5650   -3.4499   25.7758 F   0  0  0  0  0  0
  -30.0178  -13.3198   20.3985 N   0  0  0  0  0  0
  -26.2919  -12.9298   20.3111 N   0  0  0  0  0  0
  -25.9253  -11.6459   20.5612 N   0  0  0  0  0  0
  -22.0468  -12.8225   22.0424 N   0  0  0  0  0  0
  -25.4238  -15.1852   20.4000 N   0  0  0  0  0  0
  -31.8337  -14.6828   20.1761 O   0  0  0  0  0  0
  -21.6642   -6.8826   21.4221 O   0  0  0  0  0  0
  -22.3477  -14.5567   20.6777 O   0  0  0  0  0  0
  -24.6191  -31.8718   23.2059 C   0  0  0  0  0  0
  -25.9095  -32.4856   23.8352 C   0  0  1  0  0  0
  -27.2112  -27.3710   20.0952 C   0  0  0  0  0  0
  -25.5918  -33.8642   24.2226 N   0  0  0  0  0  0
  -23.4011  -30.4979   21.5546 C   0  0  2  0  0  0
  -24.8363  -28.9574   20.1111 C   0  0  0  0  0  0
  -22.7362  -29.4706   22.5019 C   0  0  0  0  0  0
  -18.0296  -28.1276   22.8471 C   0  0  0  0  0  0
  -24.1454  -36.7297   23.2619 C   0  0  0  0  0  0
  -25.9350  -30.8206   21.3624 C   0  0  0  0  0  0
  -26.0098  -29.4519   20.6954 C   0  0  0  0  0  0
  -27.1999  -28.6702   20.6717 C   0  0  0  0  0  0
  -26.0053  -26.8968   19.5293 C   0  0  0  0  0  0
  -24.8304  -27.6767   19.5332 C   0  0  0  0  0  0
  -23.5957  -29.8268   20.1696 C   0  0  0  0  0  0
  -25.4093  -36.3095   24.0280 C   0  0  1  0  0  0
  -20.5878  -28.3536   23.1197 C   0  0  2  0  0  0
  -20.6936  -26.9427   22.4941 C   0  0  0  0  0  0
  -19.5634  -26.6058   21.5138 C   0  0  0  0  0  0
  -18.1889  -26.7776   22.1697 C   0  0  0  0  0  0
  -19.1550  -28.8673   23.2880 C   0  0  0  0  0  0
  -18.9550  -30.1217   23.9072 C   0  0  0  0  0  0
  -17.6594  -30.6465   24.0663 C   0  0  0  0  0  0
  -25.9033  -34.9483   23.5023 C   0  0  0  0  0  0
  -16.5449  -29.9095   23.6278 C   0  0  0  0  0  0
  -16.7323  -28.6503   23.0268 C   0  0  0  0  0  0
  -26.4439  -31.6718   25.0776 C   0  0  0  0  0  0
  -25.3637  -31.4035   26.1514 C   0  0  0  0  0  0
  -27.0285  -30.3092   24.6326 C   0  0  0  0  0  0
  -27.5922  -32.4477   25.7657 C   0  0  0  0  0  0
  -27.5526  -37.1805   24.8421 C   0  0  0  0  0  0
  -21.4079  -29.3155   22.3805 N   0  0  0  0  0  0
  -26.4249  -37.3794   23.9367 N   0  0  0  0  0  0
  -24.6709  -31.0762   22.0992 N   0  0  0  0  0  0
  -23.4104  -28.8120   23.2966 O   0  0  0  0  0  0
  -28.3765  -26.6067   20.1341 O   0  0  0  0  0  0
  -26.5605  -34.8958   22.4579 O   0  0  0  0  0  0
  -23.5398  -32.1476   23.7449 O   0  0  0  0  0  0
  -31.6296  -18.7134   21.8924 C   0  0  0  0  0  0
  -31.3720  -17.3388   21.7082 C   0  0  0  0  0  0
  -29.2407  -17.9251   20.7239 C   0  0  0  0  0  0
  -30.7226  -19.7152   21.4769 C   0  0  0  0  0  0
  -29.4712  -19.3192   20.9074 C   0  0  0  0  0  0
  -30.1804  -16.9245   21.0842 C   0  0  0  0  0  0
  -28.2573  -22.6639   19.6881 C   0  0  0  0  0  0
  -28.3739  -23.8131   21.7177 C   0  0  0  0  0  0
  -28.0602  -22.3216   21.9534 C   0  0  0  0  0  0
  -27.9035  -24.0460   20.2803 C   0  0  1  0  0  0
  -31.1811  -21.1586   21.6676 C   0  0  0  0  0  0
  -28.3066  -20.2455   20.4617 C   0  0  0  0  0  0
  -28.4688  -25.2881   19.5086 C   0  0  0  0  0  0
  -28.3103  -21.7151   20.6520 N   0  0  0  0  0  0
  -29.8612  -15.5423   20.8679 N   0  0  0  0  0  0
  -28.4369  -22.4790   18.4821 O   0  0  0  0  0  0
  -31.4671  -12.4664   19.0875 H   0  0  0  0  0  0
  -30.3777  -11.3211   19.8128 H   0  0  0  0  0  0
  -29.7152  -11.7233   17.4283 H   0  0  0  0  0  0
  -29.6732  -13.4389   17.6896 H   0  0  0  0  0  0
  -27.7767  -11.3220   18.7539 H   0  0  0  0  0  0
  -27.3597  -12.6860   17.7506 H   0  0  0  0  0  0
  -27.6794  -14.2492   19.5314 H   0  0  0  0  0  0
  -28.6909  -11.9344   21.2549 H   0  0  0  0  0  0
  -28.4505  -13.5576   21.8499 H   0  0  0  0  0  0
  -25.2715   -9.5694   22.4689 H   0  0  0  0  0  0
  -23.9944   -7.4644   22.7446 H   0  0  0  0  0  0
  -21.0784   -8.8751   19.8944 H   0  0  0  0  0  0
  -22.3625  -10.9632   19.6086 H   0  0  0  0  0  0
  -21.2047   -7.6084   23.9655 H   0  0  0  0  0  0
  -21.1516   -6.0494   25.9068 H   0  0  0  0  0  0
  -22.0583   -2.7532   23.2895 H   0  0  0  0  0  0
  -22.4116  -11.9886   22.4769 H   0  0  0  0  0  0
  -21.1089  -13.1231   22.2658 H   0  0  0  0  0  0
  -24.6755  -15.8480   20.5705 H   0  0  0  0  0  0
  -26.2640  -15.6122   20.0310 H   0  0  0  0  0  0
  -26.7163  -32.5448   23.1131 H   0  0  0  0  0  0
  -25.0139  -33.9849   25.0404 H   0  0  0  0  0  0
  -22.6945  -31.3205   21.4249 H   0  0  0  0  0  0
  -23.3722  -35.9630   23.3326 H   0  0  0  0  0  0
  -24.3507  -36.8901   22.2017 H   0  0  0  0  0  0
  -23.7269  -37.6509   23.6668 H   0  0  0  0  0  0
  -26.0473  -31.6070   20.6107 H   0  0  0  0  0  0
  -26.8117  -30.8544   21.9969 H   0  0  0  0  0  0
  -28.1036  -29.0511   21.1225 H   0  0  0  0  0  0
  -25.9339  -25.9040   19.1115 H   0  0  0  0  0  0
  -23.9172  -27.2798   19.1117 H   0  0  0  0  0  0
  -23.6580  -30.5933   19.3972 H   0  0  0  0  0  0
  -22.7132  -29.2405   19.9034 H   0  0  0  0  0  0
  -25.1309  -36.1941   25.0793 H   0  0  0  0  0  0
  -21.0027  -28.2850   24.1281 H   0  0  0  0  0  0
  -20.6636  -26.2032   23.2946 H   0  0  0  0  0  0
  -21.6579  -26.7983   22.0083 H   0  0  0  0  0  0
  -19.6736  -25.5782   21.1591 H   0  0  0  0  0  0
  -19.6483  -27.2424   20.6278 H   0  0  0  0  0  0
  -17.4076  -26.6399   21.4216 H   0  0  0  0  0  0
  -18.0408  -26.0007   22.9221 H   0  0  0  0  0  0
  -19.8073  -30.6889   24.2600 H   0  0  0  0  0  0
  -17.5209  -31.6101   24.5383 H   0  0  0  0  0  0
  -15.5479  -30.3073   23.7556 H   0  0  0  0  0  0
  -15.8658  -28.0905   22.6957 H   0  0  0  0  0  0
  -24.5703  -30.7496   25.7912 H   0  0  0  0  0  0
  -24.8985  -32.3322   26.4826 H   0  0  0  0  0  0
  -25.7910  -30.9310   27.0372 H   0  0  0  0  0  0
  -26.2982  -29.6995   24.1014 H   0  0  0  0  0  0
  -27.3510  -29.7260   25.4973 H   0  0  0  0  0  0
  -27.9018  -30.4287   23.9908 H   0  0  0  0  0  0
  -27.2381  -33.3708   26.2275 H   0  0  0  0  0  0
  -28.3804  -32.7184   25.0619 H   0  0  0  0  0  0
  -28.0514  -31.8617   26.5631 H   0  0  0  0  0  0
  -28.2549  -38.0090   24.7445 H   0  0  0  0  0  0
  -28.1031  -36.2619   24.6310 H   0  0  0  0  0  0
  -27.2213  -37.1499   25.8815 H   0  0  0  0  0  0
  -20.9148  -29.9148   21.7334 H   0  0  0  0  0  0
  -26.0126  -38.2847   24.1472 H   0  0  0  0  0  0
  -32.5600  -18.9938   22.3643 H   0  0  0  0  0  0
  -32.0962  -16.6121   22.0487 H   0  0  0  0  0  0
  -28.3111  -17.6077   20.2749 H   0  0  0  0  0  0
  -29.4504  -23.9759   21.7615 H   0  0  0  0  0  0
  -27.9031  -24.4760   22.4412 H   0  0  0  0  0  0
  -27.0070  -22.1851   22.2183 H   0  0  0  0  0  0
  -28.6618  -21.8779   22.7447 H   0  0  0  0  0  0
  -26.8162  -24.1076   20.2891 H   0  0  0  0  0  0
  -32.2699  -21.2095   21.6282 H   0  0  0  0  0  0
  -30.8946  -21.5290   22.6511 H   0  0  0  0  0  0
  -30.8343  -21.8589   20.9101 H   0  0  0  0  0  0
  -27.4195  -19.8740   20.9846 H   0  0  0  0  0  0
  -28.1176  -20.0318   19.4085 H   0  0  0  0  0  0
  -28.0213  -25.3304   18.5132 H   0  0  0  0  0  0
  -29.5279  -25.0952   19.3153 H   0  0  0  0  0  0
  -28.8802  -15.3091   20.8236 H   0  0  0  0  0  0
  1 25  1  0  0  0
  1 30  2  0  0  0
  1 85  1  0  0  0
  2  3  1  0  0  0
  2 25  1  0  0  0
  2 87  1  0  0  0
  2 88  1  0  0  0
  3  4  1  0  0  0
  3 89  1  0  0  0
  3 90  1  0  0  0
  4  5  1  0  0  0
  4 91  1  0  0  0
  4 92  1  0  0  0
  5  6  1  0  0  0
  5 26  1  0  0  0
  5 93  1  0  0  0
  6 25  1  0  0  0
  6 94  1  0  0  0
  6 95  1  0  0  0
  7  8  2  0  0  0
  7 26  1  0  0  0
  7 29  1  0  0  0
  8  9  1  0  0  0
  8 22  1  0  0  0
  9 10  1  0  0  0
  9 27  2  0  0  0
 10 11  2  0  0  0
 10 15  1  0  0  0
 11 12  1  0  0  0
 11 96  1  0  0  0
 12 13  2  0  0  0
 12 97  1  0  0  0
 13 14  1  0  0  0
 13 31  1  0  0  0
 14 15  2  0  0  0
 14 98  1  0  0  0
 15 99  1  0  0  0
 16 17  2  0  0  0
 16 21  1  0  0  0
 16 31  1  0  0  0
 17 18  1  0  0  0
 17100  1  0  0  0
 18 19  2  0  0  0
 18101  1  0  0  0
 19 20  1  0  0  0
 19 24  1  0  0  0
 20 21  2  0  0  0
 20102  1  0  0  0
 21 23  1  0  0  0
 22 28  1  0  0  0
 22 32  2  0  0  0
 26 27  1  0  0  0
 28103  1  0  0  0
 28104  1  0  0  0
 29105  1  0  0  0
 29106  1  0  0  0
 33 34  1  0  0  0
 33 66  1  0  0  0
 33 70  2  0  0  0
 34 36  1  0  0  0
 34 59  1  0  0  0
 34107  1  0  0  0
 35 44  2  0  0  0
 35 45  1  0  0  0
 35 68  1  0  0  0
 36 56  1  0  0  0
 36108  1  0  0  0
 37 39  1  0  0  0
 37 47  1  0  0  0
 37 66  1  0  0  0
 37109  1  0  0  0
 38 43  2  0  0  0
 38 46  1  0  0  0
 38 47  1  0  0  0
 39 64  1  0  0  0
 39 67  2  0  0  0
 40 52  1  0  0  0
 40 53  2  0  0  0
 40 58  1  0  0  0
 41110  1  0  0  0
 41111  1  0  0  0
 41112  1  0  0  0
 41 48  1  0  0  0
 42 43  1  0  0  0
 42 66  1  0  0  0
 42113  1  0  0  0
 42114  1  0  0  0
 43 44  1  0  0  0
 44115  1  0  0  0
 45 46  2  0  0  0
 45116  1  0  0  0
 46117  1  0  0  0
 47118  1  0  0  0
 47119  1  0  0  0
 48 56  1  0  0  0
 48 65  1  0  0  0
 48120  1  0  0  0
 49 50  1  0  0  0
 49 53  1  0  0  0
 49 64  1  0  0  0
 49121  1  0  0  0
 50 51  1  0  0  0
 50122  1  0  0  0
 50123  1  0  0  0
 51 52  1  0  0  0
 51124  1  0  0  0
 51125  1  0  0  0
 52126  1  0  0  0
 52127  1  0  0  0
 53 54  1  0  0  0
 54 55  2  0  0  0
 54128  1  0  0  0
 55 57  1  0  0  0
 55129  1  0  0  0
 56 69  2  0  0  0
 57 58  2  0  0  0
 57130  1  0  0  0
 58131  1  0  0  0
 59 60  1  0  0  0
 59 61  1  0  0  0
 59 62  1  0  0  0
 60132  1  0  0  0
 60133  1  0  0  0
 60134  1  0  0  0
 61135  1  0  0  0
 61136  1  0  0  0
 61137  1  0  0  0
 62138  1  0  0  0
 62139  1  0  0  0
 62140  1  0  0  0
 63 65  1  0  0  0
 63141  1  0  0  0
 63142  1  0  0  0
 63143  1  0  0  0
 64144  1  0  0  0
 65145  1  0  0  0
 68 83  1  0  0  0
 71 72  2  0  0  0
 71 74  1  0  0  0
 71146  1  0  0  0
 72 76  1  0  0  0
 72147  1  0  0  0
 73 75  1  0  0  0
 73 76  2  0  0  0
 73148  1  0  0  0
 74 75  2  0  0  0
 74 81  1  0  0  0
 75 82  1  0  0  0
 76 85  1  0  0  0
 77 80  1  0  0  0
 77 84  1  0  0  0
 77 86  2  0  0  0
 78 79  1  0  0  0
 78 80  1  0  0  0
 78149  1  0  0  0
 78150  1  0  0  0
 79 84  1  0  0  0
 79151  1  0  0  0
 79152  1  0  0  0
 80 83  1  0  0  0
 80153  1  0  0  0
 81154  1  0  0  0
 81155  1  0  0  0
 81156  1  0  0  0
 82 84  1  0  0  0
 82157  1  0  0  0
 82158  1  0  0  0
 83159  1  0  0  0
 83160  1  0  0  0
 85161  1  0  0  0
M  ISO  4   1 100  68 101  83 101  85 100
M  END
> <chiral flag>
0

> <version>
0

> <s_m_source_file>
/data/baiqing/PycharmProjects/Reinvent-master-3.2/result/LINK_invent/BTK/process_docking_weight1_custom_product_contain_oxygen_bond_distance_aromatic_linkinvent_7_9_3/rearranged_h_0058.sdf

> <i_m_source_file_index>
75

> <r_mmod_Potential_Energy-OPLS-2005>
36.0054244995117

> <r_mmod_Stretch_Energy-OPLS-2005>
51.2662239074707

> <r_mmod_Bend_Energy-OPLS-2005>
181.643920898438

> <r_mmod_Torsional_Energy-OPLS-2005>
232.733139038086

> <r_mmod_Improper_Torsional_Energy-OPLS-2005>
6.77552795410156

> <r_mmod_Van_der_Waal_Energy-OPLS-2005>
142.047927856445

> <r_mmod_Electrostatic_Energy-OPLS-2005>
-376.374786376953

> <r_mmod_Solvation_Energy-OPLS-2005>
-228.158721923828

> <b_mmod_Minimization_Converged-OPLS-2005>
0

> <r_mmod_RMS_Derivative-OPLS-2005>
8.50492000579834

$$$$
75
                    3D
 Structure written by MMmdl.
158166  0  0  1  0            999 V2000
  -30.7210  -14.4210   20.6357 C   0  0  0  0  0  0
  -30.4238  -12.2977   19.4064 C   0  0  0  0  0  0
  -29.4909  -12.5178   18.1986 C   0  0  0  0  0  0
  -28.0125  -12.3758   18.6122 C   0  0  0  0  0  0
  -27.6658  -13.2008   19.8799 C   0  0  2  0  0  0
  -28.7043  -12.9430   20.9943 C   0  0  0  0  0  0
  -25.2611  -13.8151   20.5682 C   0  0  0  0  0  0
  -24.1848  -13.0437   20.9166 C   0  0  0  0  0  0
  -24.6389  -11.6898   20.8722 C   0  0  0  0  0  0
  -23.9051  -10.4291   21.0397 C   0  0  0  0  0  0
  -24.3606   -9.4209   21.9176 C   0  0  0  0  0  0
  -23.6285   -8.2242   22.0751 C   0  0  0  0  0  0
  -22.4267   -8.0279   21.3544 C   0  0  0  0  0  0
  -21.9898   -9.0250   20.4646 C   0  0  0  0  0  0
  -22.7223  -10.2131   20.3049 C   0  0  0  0  0  0
  -21.6851   -6.0733   22.5279 C   0  0  0  0  0  0
  -21.4014   -6.5638   23.8213 C   0  0  0  0  0  0
  -21.3658   -5.6791   24.9176 C   0  0  0  0  0  0
  -21.6042   -4.3054   24.7225 C   0  0  0  0  0  0
  -21.8819   -3.8146   23.4347 C   0  0  0  0  0  0
  -21.9195   -4.6963   22.3404 C   0  0  0  0  0  0
  -22.7872  -13.5242   21.1836 C   0  0  0  0  0  0
  -22.1663   -4.2148   21.0979 F   0  0  0  0  0  0
  -21.5627   -3.4536   25.7737 F   0  0  0  0  0  0
  -30.0417  -13.2559   20.4550 N   0  0  0  0  0  0
  -26.3042  -12.9306   20.3379 N   0  0  0  0  0  0
  -25.9314  -11.6471   20.5751 N   0  0  0  0  0  0
  -22.0509  -12.8241   22.0396 N   0  0  0  0  0  0
  -25.4356  -15.1866   20.4101 N   0  0  0  0  0  0
  -31.7999  -14.6494   20.0807 O   0  0  0  0  0  0
  -21.6636   -6.8874   21.4240 O   0  0  0  0  0  0
  -22.3561  -14.5551   20.6689 O   0  0  0  0  0  0
  -24.6103  -31.8705   23.2127 C   0  0  0  0  0  0
  -25.9007  -32.4837   23.8416 C   0  0  1  0  0  0
  -27.2410  -27.4631   20.0963 C   0  0  0  0  0  0
  -25.5882  -33.8635   24.2352 N   0  0  0  0  0  0
  -23.3986  -30.4930   21.5512 C   0  0  2  0  0  0
  -24.8491  -28.9603   20.1176 C   0  0  0  0  0  0
  -22.7392  -29.4666   22.4999 C   0  0  0  0  0  0
  -18.0268  -28.1379   22.8494 C   0  0  0  0  0  0
  -24.1487  -36.7320   23.2637 C   0  0  0  0  0  0
  -25.9234  -30.8428   21.3645 C   0  0  0  0  0  0
  -26.0040  -29.4758   20.7212 C   0  0  0  0  0  0
  -27.2022  -28.7303   20.7201 C   0  0  0  0  0  0
  -26.0781  -26.9601   19.4815 C   0  0  0  0  0  0
  -24.8783  -27.6971   19.4991 C   0  0  0  0  0  0
  -23.6085  -29.8230   20.1662 C   0  0  0  0  0  0
  -25.4106  -36.3123   24.0344 C   0  0  1  0  0  0
  -20.5856  -28.3659   23.1324 C   0  0  2  0  0  0
  -20.6758  -26.9399   22.5420 C   0  0  0  0  0  0
  -19.5740  -26.6390   21.5210 C   0  0  0  0  0  0
  -18.1918  -26.7925   22.1623 C   0  0  0  0  0  0
  -19.1517  -28.8836   23.2907 C   0  0  0  0  0  0
  -18.9449  -30.1444   23.8915 C   0  0  0  0  0  0
  -17.6454  -30.6585   24.0570 C   0  0  0  0  0  0
  -25.9027  -34.9483   23.5147 C   0  0  0  0  0  0
  -16.5346  -29.9092   23.6324 C   0  0  0  0  0  0
  -16.7259  -28.6509   23.0346 C   0  0  0  0  0  0
  -26.4455  -31.6598   25.0724 C   0  0  0  0  0  0
  -25.3737  -31.3691   26.1485 C   0  0  0  0  0  0
  -27.0283  -30.3049   24.6063 C   0  0  0  0  0  0
  -27.6046  -32.4303   25.7472 C   0  0  0  0  0  0
  -27.5584  -37.1815   24.8467 C   0  0  0  0  0  0
  -21.4122  -29.3032   22.3733 N   0  0  0  0  0  0
  -26.4297  -37.3804   23.9412 N   0  0  0  0  0  0
  -24.6617  -31.0830   22.1015 N   0  0  0  0  0  0
  -23.4173  -28.8210   23.3033 O   0  0  0  0  0  0
  -28.3790  -26.6956   20.0480 O   0  0  0  0  0  0
  -26.5588  -34.8924   22.4708 O   0  0  0  0  0  0
  -23.5301  -32.1444   23.7534 O   0  0  0  0  0  0
  -31.7968  -18.6801   21.7371 C   0  0  0  0  0  0
  -31.5833  -17.3378   21.3671 C   0  0  0  0  0  0
  -29.4015  -17.4087   22.4286 C   0  0  0  0  0  0
  -30.8294  -19.4006   22.4701 C   0  0  0  0  0  0
  -29.6129  -18.7540   22.8112 C   0  0  0  0  0  0
  -30.3808  -16.6803   21.7176 C   0  0  0  0  0  0
  -29.6324  -23.9975   21.8340 C   0  0  0  0  0  0
  -29.8548  -25.1774   21.2178 C   0  0  0  0  0  0
  -30.5845  -22.9023   21.7260 C   0  0  0  0  0  0
  -28.5315  -19.4611   23.6118 C   0  0  0  0  0  0
  -31.1826  -20.8126   22.9472 C   0  0  0  0  0  0
  -28.9469  -26.3898   21.3164 C   0  0  0  0  0  0
  -30.0894  -15.3135   21.4224 N   0  0  0  0  0  0
  -30.2710  -21.8831   22.5361 N   0  0  0  0  0  0
  -31.6048  -22.9120   21.0333 O   0  0  0  0  0  0
  -31.4669  -12.4017   19.1024 H   0  0  0  0  0  0
  -30.3277  -11.2780   19.7822 H   0  0  0  0  0  0
  -29.7264  -11.8060   17.4062 H   0  0  0  0  0  0
  -29.6611  -13.5105   17.7782 H   0  0  0  0  0  0
  -27.8188  -11.3180   18.7954 H   0  0  0  0  0  0
  -27.3605  -12.6642   17.7866 H   0  0  0  0  0  0
  -27.7226  -14.2542   19.6042 H   0  0  0  0  0  0
  -28.6763  -11.8949   21.2961 H   0  0  0  0  0  0
  -28.4533  -13.5012   21.8966 H   0  0  0  0  0  0
  -25.2750   -9.5688   22.4750 H   0  0  0  0  0  0
  -23.9999   -7.4633   22.7468 H   0  0  0  0  0  0
  -21.0830   -8.8762   19.8952 H   0  0  0  0  0  0
  -22.3676  -10.9667   19.6158 H   0  0  0  0  0  0
  -21.2006   -7.6143   23.9716 H   0  0  0  0  0  0
  -21.1479   -6.0519   25.9078 H   0  0  0  0  0  0
  -22.0601   -2.7608   23.2846 H   0  0  0  0  0  0
  -22.4114  -11.9898   22.4783 H   0  0  0  0  0  0
  -21.1129  -13.1277   22.2600 H   0  0  0  0  0  0
  -24.6725  -15.8457   20.5180 H   0  0  0  0  0  0
  -26.2946  -15.6233   20.0986 H   0  0  0  0  0  0
  -26.7078  -32.5576   23.1188 H   0  0  0  0  0  0
  -25.0047  -33.9804   25.0505 H   0  0  0  0  0  0
  -22.6861  -31.3086   21.4123 H   0  0  0  0  0  0
  -23.3743  -35.9659   23.3319 H   0  0  0  0  0  0
  -24.3580  -36.8912   22.2047 H   0  0  0  0  0  0
  -23.7238  -37.6534   23.6631 H   0  0  0  0  0  0
  -26.0303  -31.6045   20.5908 H   0  0  0  0  0  0
  -26.8133  -30.9033   21.9790 H   0  0  0  0  0  0
  -28.0928  -29.1335   21.1820 H   0  0  0  0  0  0
  -26.1027  -25.9931   18.9989 H   0  0  0  0  0  0
  -23.9917  -27.2942   19.0291 H   0  0  0  0  0  0
  -23.7148  -30.5966   19.4050 H   0  0  0  0  0  0
  -22.7342  -29.2398   19.8709 H   0  0  0  0  0  0
  -25.1277  -36.2000   25.0837 H   0  0  0  0  0  0
  -20.9956  -28.3223   24.1439 H   0  0  0  0  0  0
  -20.5664  -26.2264   23.3603 H   0  0  0  0  0  0
  -21.6633  -26.7446   22.1217 H   0  0  0  0  0  0
  -19.6902  -25.6305   21.1226 H   0  0  0  0  0  0
  -19.6680  -27.3210   20.6748 H   0  0  0  0  0  0
  -17.4192  -26.6671   21.4023 H   0  0  0  0  0  0
  -18.0324  -26.0060   22.9015 H   0  0  0  0  0  0
  -19.7928  -30.7252   24.2292 H   0  0  0  0  0  0
  -17.5013  -31.6264   24.5173 H   0  0  0  0  0  0
  -15.5350  -30.3008   23.7632 H   0  0  0  0  0  0
  -15.8654  -28.0836   22.7053 H   0  0  0  0  0  0
  -24.5903  -30.7040   25.7831 H   0  0  0  0  0  0
  -24.8933  -32.2844   26.4956 H   0  0  0  0  0  0
  -25.8111  -30.8849   27.0227 H   0  0  0  0  0  0
  -26.2817  -29.6815   24.1127 H   0  0  0  0  0  0
  -27.4085  -29.7271   25.4497 H   0  0  0  0  0  0
  -27.8637  -30.4389   23.9186 H   0  0  0  0  0  0
  -27.2683  -33.3593   26.2088 H   0  0  0  0  0  0
  -28.3832  -32.6877   25.0279 H   0  0  0  0  0  0
  -28.0735  -31.8396   26.5352 H   0  0  0  0  0  0
  -28.2619  -38.0097   24.7515 H   0  0  0  0  0  0
  -28.1067  -36.2632   24.6299 H   0  0  0  0  0  0
  -27.2303  -37.1481   25.8870 H   0  0  0  0  0  0
  -20.9273  -29.8763   21.6970 H   0  0  0  0  0  0
  -26.0193  -38.2888   24.1405 H   0  0  0  0  0  0
  -32.7354  -19.1483   21.4744 H   0  0  0  0  0  0
  -32.3743  -16.8358   20.8319 H   0  0  0  0  0  0
  -28.4745  -16.9237   22.7041 H   0  0  0  0  0  0
  -28.7381  -23.8772   22.4286 H   0  0  0  0  0  0
  -30.7391  -25.3129   20.6098 H   0  0  0  0  0  0
  -27.7780  -18.7594   23.9711 H   0  0  0  0  0  0
  -28.0235  -20.2012   22.9933 H   0  0  0  0  0  0
  -28.9494  -19.9631   24.4847 H   0  0  0  0  0  0
  -32.2089  -21.0502   22.6602 H   0  0  0  0  0  0
  -31.1998  -20.7980   24.0376 H   0  0  0  0  0  0
  -29.5306  -27.2367   21.6795 H   0  0  0  0  0  0
  -28.1627  -26.1951   22.0512 H   0  0  0  0  0  0
  -29.2211  -14.9661   21.7993 H   0  0  0  0  0  0
  -29.4052  -21.9560   23.0501 H   0  0  0  0  0  0
  1 25  1  0  0  0
  1 30  2  0  0  0
  1 83  1  0  0  0
  2  3  1  0  0  0
  2 25  1  0  0  0
  2 86  1  0  0  0
  2 87  1  0  0  0
  3  4  1  0  0  0
  3 88  1  0  0  0
  3 89  1  0  0  0
  4  5  1  0  0  0
  4 90  1  0  0  0
  4 91  1  0  0  0
  5  6  1  0  0  0
  5 26  1  0  0  0
  5 92  1  0  0  0
  6 25  1  0  0  0
  6 93  1  0  0  0
  6 94  1  0  0  0
  7  8  2  0  0  0
  7 26  1  0  0  0
  7 29  1  0  0  0
  8  9  1  0  0  0
  8 22  1  0  0  0
  9 10  1  0  0  0
  9 27  2  0  0  0
 10 11  2  0  0  0
 10 15  1  0  0  0
 11 12  1  0  0  0
 11 95  1  0  0  0
 12 13  2  0  0  0
 12 96  1  0  0  0
 13 14  1  0  0  0
 13 31  1  0  0  0
 14 15  2  0  0  0
 14 97  1  0  0  0
 15 98  1  0  0  0
 16 17  2  0  0  0
 16 21  1  0  0  0
 16 31  1  0  0  0
 17 18  1  0  0  0
 17 99  1  0  0  0
 18 19  2  0  0  0
 18100  1  0  0  0
 19 20  1  0  0  0
 19 24  1  0  0  0
 20 21  2  0  0  0
 20101  1  0  0  0
 21 23  1  0  0  0
 22 28  1  0  0  0
 22 32  2  0  0  0
 26 27  1  0  0  0
 28102  1  0  0  0
 28103  1  0  0  0
 29104  1  0  0  0
 29105  1  0  0  0
 33 34  1  0  0  0
 33 66  1  0  0  0
 33 70  2  0  0  0
 34 36  1  0  0  0
 34 59  1  0  0  0
 34106  1  0  0  0
 35 44  2  0  0  0
 35 45  1  0  0  0
 35 68  1  0  0  0
 36 56  1  0  0  0
 36107  1  0  0  0
 37 39  1  0  0  0
 37 47  1  0  0  0
 37 66  1  0  0  0
 37108  1  0  0  0
 38 43  2  0  0  0
 38 46  1  0  0  0
 38 47  1  0  0  0
 39 64  1  0  0  0
 39 67  2  0  0  0
 40 52  1  0  0  0
 40 53  2  0  0  0
 40 58  1  0  0  0
 41109  1  0  0  0
 41110  1  0  0  0
 41111  1  0  0  0
 41 48  1  0  0  0
 42 43  1  0  0  0
 42 66  1  0  0  0
 42112  1  0  0  0
 42113  1  0  0  0
 43 44  1  0  0  0
 44114  1  0  0  0
 45 46  2  0  0  0
 45115  1  0  0  0
 46116  1  0  0  0
 47117  1  0  0  0
 47118  1  0  0  0
 48 56  1  0  0  0
 48 65  1  0  0  0
 48119  1  0  0  0
 49 50  1  0  0  0
 49 53  1  0  0  0
 49 64  1  0  0  0
 49120  1  0  0  0
 50 51  1  0  0  0
 50121  1  0  0  0
 50122  1  0  0  0
 51 52  1  0  0  0
 51123  1  0  0  0
 51124  1  0  0  0
 52125  1  0  0  0
 52126  1  0  0  0
 53 54  1  0  0  0
 54 55  2  0  0  0
 54127  1  0  0  0
 55 57  1  0  0  0
 55128  1  0  0  0
 56 69  2  0  0  0
 57 58  2  0  0  0
 57129  1  0  0  0
 58130  1  0  0  0
 59 60  1  0  0  0
 59 61  1  0  0  0
 59 62  1  0  0  0
 60131  1  0  0  0
 60132  1  0  0  0
 60133  1  0  0  0
 61134  1  0  0  0
 61135  1  0  0  0
 61136  1  0  0  0
 62137  1  0  0  0
 62138  1  0  0  0
 62139  1  0  0  0
 63 65  1  0  0  0
 63140  1  0  0  0
 63141  1  0  0  0
 63142  1  0  0  0
 64143  1  0  0  0
 65144  1  0  0  0
 68 82  1  0  0  0
 71 72  2  0  0  0
 71 74  1  0  0  0
 71145  1  0  0  0
 72 76  1  0  0  0
 72146  1  0  0  0
 73 75  1  0  0  0
 73 76  2  0  0  0
 73147  1  0  0  0
 74 75  2  0  0  0
 74 81  1  0  0  0
 75 80  1  0  0  0
 76 83  1  0  0  0
 77 78  2  0  0  0
 77 79  1  0  0  0
 77148  1  0  0  0
 78 82  1  0  0  0
 78149  1  0  0  0
 79 84  1  0  0  0
 79 85  2  0  0  0
 80150  1  0  0  0
 80151  1  0  0  0
 80152  1  0  0  0
 81 84  1  0  0  0
 81153  1  0  0  0
 81154  1  0  0  0
 82155  1  0  0  0
 82156  1  0  0  0
 83157  1  0  0  0
 84158  1  0  0  0
M  ISO  4   1 100  68 101  82 101  83 100
M  END
> <chiral flag>
0

> <version>
0

> <s_m_source_file>
/data/baiqing/PycharmProjects/Reinvent-master-3.2/result/LINK_invent/BTK/process_docking_weight1_custom_product_contain_oxygen_bond_distance_aromatic_linkinvent_7_9_3/rearranged_h_0058.sdf

> <i_m_source_file_index>
76

> <r_mmod_Potential_Energy-OPLS-2005>
-179.635391235352

> <r_mmod_Stretch_Energy-OPLS-2005>
34.1857452392578

> <r_mmod_Bend_Energy-OPLS-2005>
98.0178375244141

> <r_mmod_Torsional_Energy-OPLS-2005>
216.600555419922

> <r_mmod_Improper_Torsional_Energy-OPLS-2005>
3.13476061820984

> <r_mmod_Van_der_Waal_Energy-OPLS-2005>
160.323837280273

> <r_mmod_Electrostatic_Energy-OPLS-2005>
-462.775329589844

> <r_mmod_Solvation_Energy-OPLS-2005>
-236.681442260742

> <b_mmod_Minimization_Converged-OPLS-2005>
0

> <r_mmod_RMS_Derivative-OPLS-2005>
0.684813618659973

$$$$
76
                    3D
 Structure written by MMmdl.
155163  0  0  1  0            999 V2000
  -30.7192  -14.4205   20.6326 C   0  0  0  0  0  0
  -30.4177  -12.2916   19.4154 C   0  0  0  0  0  0
  -29.4874  -12.5105   18.2052 C   0  0  0  0  0  0
  -28.0086  -12.3727   18.6155 C   0  0  0  0  0  0
  -27.6627  -13.2011   19.8799 C   0  0  2  0  0  0
  -28.7000  -12.9493   20.9989 C   0  0  0  0  0  0
  -25.2580  -13.8160   20.5663 C   0  0  0  0  0  0
  -24.1827  -13.0439   20.9165 C   0  0  0  0  0  0
  -24.6367  -11.6904   20.8713 C   0  0  0  0  0  0
  -23.9029  -10.4300   21.0393 C   0  0  0  0  0  0
  -24.3585   -9.4216   21.9171 C   0  0  0  0  0  0
  -23.6276   -8.2249   22.0753 C   0  0  0  0  0  0
  -22.4267   -8.0276   21.3533 C   0  0  0  0  0  0
  -21.9886   -9.0238   20.4631 C   0  0  0  0  0  0
  -22.7202  -10.2126   20.3042 C   0  0  0  0  0  0
  -21.6839   -6.0723   22.5266 C   0  0  0  0  0  0
  -21.4013   -6.5623   23.8196 C   0  0  0  0  0  0
  -21.3663   -5.6788   24.9168 C   0  0  0  0  0  0
  -21.6054   -4.3046   24.7234 C   0  0  0  0  0  0
  -21.8820   -3.8139   23.4348 C   0  0  0  0  0  0
  -21.9188   -4.6952   22.3394 C   0  0  0  0  0  0
  -22.7848  -13.5235   21.1838 C   0  0  0  0  0  0
  -22.1654   -4.2142   21.0974 F   0  0  0  0  0  0
  -21.5635   -3.4536   25.7746 F   0  0  0  0  0  0
  -30.0389  -13.2543   20.4620 N   0  0  0  0  0  0
  -26.3009  -12.9315   20.3363 N   0  0  0  0  0  0
  -25.9292  -11.6476   20.5750 N   0  0  0  0  0  0
  -22.0506  -12.8223   22.0405 N   0  0  0  0  0  0
  -25.4310  -15.1883   20.4073 N   0  0  0  0  0  0
  -31.7957  -14.6437   20.0708 O   0  0  0  0  0  0
  -21.6631   -6.8869   21.4229 O   0  0  0  0  0  0
  -22.3527  -14.5533   20.6688 O   0  0  0  0  0  0
  -24.6132  -31.8700   23.2070 C   0  0  0  0  0  0
  -25.9035  -32.4838   23.8370 C   0  0  1  0  0  0
  -27.2433  -27.4547   20.0812 C   0  0  0  0  0  0
  -25.5887  -33.8627   24.2334 N   0  0  0  0  0  0
  -23.3970  -30.4919   21.5503 C   0  0  2  0  0  0
  -24.8425  -28.9549   20.1191 C   0  0  0  0  0  0
  -22.7398  -29.4661   22.5015 C   0  0  0  0  0  0
  -18.0275  -28.1366   22.8496 C   0  0  0  0  0  0
  -24.1474  -36.7309   23.2641 C   0  0  0  0  0  0
  -25.9226  -30.8433   21.3525 C   0  0  0  0  0  0
  -26.0000  -29.4741   20.7092 C   0  0  0  0  0  0
  -27.1977  -28.7291   20.6894 C   0  0  0  0  0  0
  -26.0580  -26.9341   19.5104 C   0  0  0  0  0  0
  -24.8655  -27.6838   19.5204 C   0  0  0  0  0  0
  -23.6005  -29.8159   20.1676 C   0  0  0  0  0  0
  -25.4097  -36.3123   24.0348 C   0  0  1  0  0  0
  -20.5857  -28.3654   23.1329 C   0  0  2  0  0  0
  -20.6740  -26.9385   22.5435 C   0  0  0  0  0  0
  -19.5730  -26.6367   21.5224 C   0  0  0  0  0  0
  -18.1912  -26.7912   22.1637 C   0  0  0  0  0  0
  -19.1521  -28.8828   23.2901 C   0  0  0  0  0  0
  -18.9461  -30.1443   23.8902 C   0  0  0  0  0  0
  -17.6462  -30.6584   24.0549 C   0  0  0  0  0  0
  -25.9038  -34.9484   23.5151 C   0  0  0  0  0  0
  -16.5354  -29.9090   23.6305 C   0  0  0  0  0  0
  -16.7267  -28.6504   23.0335 C   0  0  0  0  0  0
  -26.4441  -31.6607   25.0689 C   0  0  0  0  0  0
  -25.3683  -31.3710   26.1413 C   0  0  0  0  0  0
  -27.0282  -30.3069   24.6033 C   0  0  0  0  0  0
  -27.6009  -32.4309   25.7470 C   0  0  0  0  0  0
  -27.5581  -37.1802   24.8470 C   0  0  0  0  0  0
  -21.4133  -29.3023   22.3746 N   0  0  0  0  0  0
  -26.4287  -37.3810   23.9433 N   0  0  0  0  0  0
  -24.6629  -31.0814   22.0959 N   0  0  0  0  0  0
  -23.4187  -28.8201   23.3040 O   0  0  0  0  0  0
  -28.4630  -26.8109   20.0715 O   0  0  0  0  0  0
  -26.5602  -34.8934   22.4708 O   0  0  0  0  0  0
  -23.5335  -32.1443   23.7488 O   0  0  0  0  0  0
  -31.7912  -18.7008   21.4628 C   0  0  0  0  0  0
  -30.6820  -19.5361   21.6906 C   0  0  0  0  0  0
  -31.6218  -17.3054   21.3824 C   0  0  0  0  0  0
  -29.2311  -17.5792   21.7636 C   0  0  0  0  0  0
  -29.3950  -18.9812   21.8554 C   0  0  0  0  0  0
  -30.3347  -16.7302   21.5067 C   0  0  0  0  0  0
  -28.2363  -23.2290   20.5201 C   0  0  0  0  0  0
  -28.7915  -24.4569   20.5476 C   0  0  0  0  0  0
  -28.4967  -22.2889   21.5973 C   0  0  0  0  0  0
  -28.1991  -19.8764   22.1754 C   0  0  0  0  0  0
  -28.6410  -25.5231   19.4812 C   0  0  0  0  0  0
  -30.1028  -15.3249   21.4191 N   0  0  0  0  0  0
  -28.0741  -21.0509   21.3078 N   0  0  0  0  0  0
  -29.0579  -22.5648   22.6605 O   0  0  0  0  0  0
  -31.4618  -12.3861   19.1125 H   0  0  0  0  0  0
  -30.3142  -11.2738   19.7954 H   0  0  0  0  0  0
  -29.7184  -11.7945   17.4159 H   0  0  0  0  0  0
  -29.6621  -13.5007   17.7805 H   0  0  0  0  0  0
  -27.8091  -11.3162   18.8007 H   0  0  0  0  0  0
  -27.3610  -12.6614   17.7870 H   0  0  0  0  0  0
  -27.7183  -14.2520   19.5956 H   0  0  0  0  0  0
  -28.6717  -11.9024   21.3074 H   0  0  0  0  0  0
  -28.4512  -13.5174   21.8950 H   0  0  0  0  0  0
  -25.2729   -9.5698   22.4741 H   0  0  0  0  0  0
  -23.9975   -7.4652   22.7489 H   0  0  0  0  0  0
  -21.0816   -8.8751   19.8945 H   0  0  0  0  0  0
  -22.3647  -10.9658   19.6150 H   0  0  0  0  0  0
  -21.2006   -7.6132   23.9692 H   0  0  0  0  0  0
  -21.1484   -6.0523   25.9067 H   0  0  0  0  0  0
  -22.0601   -2.7602   23.2852 H   0  0  0  0  0  0
  -22.4127  -11.9860   22.4742 H   0  0  0  0  0  0
  -21.1134  -13.1257   22.2660 H   0  0  0  0  0  0
  -24.6661  -15.8469   20.5087 H   0  0  0  0  0  0
  -26.2874  -15.6232   20.0859 H   0  0  0  0  0  0
  -26.7103  -32.5571   23.1146 H   0  0  0  0  0  0
  -24.9988  -33.9787   25.0434 H   0  0  0  0  0  0
  -22.6835  -31.3070   21.4078 H   0  0  0  0  0  0
  -23.3749  -35.9617   23.3299 H   0  0  0  0  0  0
  -24.3558  -36.8955   22.2056 H   0  0  0  0  0  0
  -23.7208  -37.6503   23.6651 H   0  0  0  0  0  0
  -26.0188  -31.6038   20.5756 H   0  0  0  0  0  0
  -26.8189  -30.9104   21.9593 H   0  0  0  0  0  0
  -28.0969  -29.1327   21.1331 H   0  0  0  0  0  0
  -26.0179  -25.9564   19.0549 H   0  0  0  0  0  0
  -23.9726  -27.2697   19.0743 H   0  0  0  0  0  0
  -23.6959  -30.5840   19.3992 H   0  0  0  0  0  0
  -22.7284  -29.2249   19.8807 H   0  0  0  0  0  0
  -25.1260  -36.1991   25.0836 H   0  0  0  0  0  0
  -20.9954  -28.3222   24.1442 H   0  0  0  0  0  0
  -20.5684  -26.2246   23.3621 H   0  0  0  0  0  0
  -21.6609  -26.7451   22.1214 H   0  0  0  0  0  0
  -19.6886  -25.6290   21.1239 H   0  0  0  0  0  0
  -19.6663  -27.3177   20.6743 H   0  0  0  0  0  0
  -17.4185  -26.6698   21.4032 H   0  0  0  0  0  0
  -18.0295  -26.0046   22.9026 H   0  0  0  0  0  0
  -19.7931  -30.7252   24.2290 H   0  0  0  0  0  0
  -17.5024  -31.6256   24.5158 H   0  0  0  0  0  0
  -15.5367  -30.2999   23.7628 H   0  0  0  0  0  0
  -15.8660  -28.0852   22.7024 H   0  0  0  0  0  0
  -24.5838  -30.7103   25.7716 H   0  0  0  0  0  0
  -24.8867  -32.2866   26.4829 H   0  0  0  0  0  0
  -25.7982  -30.8862   27.0192 H   0  0  0  0  0  0
  -26.2833  -29.6857   24.1046 H   0  0  0  0  0  0
  -27.4060  -29.7262   25.4463 H   0  0  0  0  0  0
  -27.8637  -30.4423   23.9163 H   0  0  0  0  0  0
  -27.2636  -33.3618   26.2027 H   0  0  0  0  0  0
  -28.3814  -32.6885   25.0305 H   0  0  0  0  0  0
  -28.0647  -31.8439   26.5412 H   0  0  0  0  0  0
  -28.2579  -38.0124   24.7571 H   0  0  0  0  0  0
  -28.1114  -36.2662   24.6219 H   0  0  0  0  0  0
  -27.2299  -37.1385   25.8876 H   0  0  0  0  0  0
  -20.9300  -29.8775   21.6994 H   0  0  0  0  0  0
  -26.0188  -38.2894   24.1435 H   0  0  0  0  0  0
  -32.7762  -19.1327   21.3588 H   0  0  0  0  0  0
  -30.8297  -20.6039   21.7610 H   0  0  0  0  0  0
  -32.4977  -16.6926   21.2284 H   0  0  0  0  0  0
  -28.2435  -17.1574   21.8843 H   0  0  0  0  0  0
  -27.6043  -22.9476   19.6877 H   0  0  0  0  0  0
  -29.4260  -24.7371   21.3783 H   0  0  0  0  0  0
  -28.2733  -20.1816   23.2209 H   0  0  0  0  0  0
  -27.2734  -19.3035   22.1100 H   0  0  0  0  0  0
  -27.9159  -25.2473   18.7197 H   0  0  0  0  0  0
  -29.5950  -25.5662   18.9561 H   0  0  0  0  0  0
  -29.2405  -14.9931   21.8218 H   0  0  0  0  0  0
  -27.6021  -20.9141   20.4259 H   0  0  0  0  0  0
  1 25  1  0  0  0
  1 30  2  0  0  0
  1 82  1  0  0  0
  2  3  1  0  0  0
  2 25  1  0  0  0
  2 85  1  0  0  0
  2 86  1  0  0  0
  3  4  1  0  0  0
  3 87  1  0  0  0
  3 88  1  0  0  0
  4  5  1  0  0  0
  4 89  1  0  0  0
  4 90  1  0  0  0
  5  6  1  0  0  0
  5 26  1  0  0  0
  5 91  1  0  0  0
  6 25  1  0  0  0
  6 92  1  0  0  0
  6 93  1  0  0  0
  7  8  2  0  0  0
  7 26  1  0  0  0
  7 29  1  0  0  0
  8  9  1  0  0  0
  8 22  1  0  0  0
  9 10  1  0  0  0
  9 27  2  0  0  0
 10 11  2  0  0  0
 10 15  1  0  0  0
 11 12  1  0  0  0
 11 94  1  0  0  0
 12 13  2  0  0  0
 12 95  1  0  0  0
 13 14  1  0  0  0
 13 31  1  0  0  0
 14 15  2  0  0  0
 14 96  1  0  0  0
 15 97  1  0  0  0
 16 17  2  0  0  0
 16 21  1  0  0  0
 16 31  1  0  0  0
 17 18  1  0  0  0
 17 98  1  0  0  0
 18 19  2  0  0  0
 18 99  1  0  0  0
 19 20  1  0  0  0
 19 24  1  0  0  0
 20 21  2  0  0  0
 20100  1  0  0  0
 21 23  1  0  0  0
 22 28  1  0  0  0
 22 32  2  0  0  0
 26 27  1  0  0  0
 28101  1  0  0  0
 28102  1  0  0  0
 29103  1  0  0  0
 29104  1  0  0  0
 33 34  1  0  0  0
 33 66  1  0  0  0
 33 70  2  0  0  0
 34 36  1  0  0  0
 34 59  1  0  0  0
 34105  1  0  0  0
 35 44  2  0  0  0
 35 45  1  0  0  0
 35 68  1  0  0  0
 36 56  1  0  0  0
 36106  1  0  0  0
 37 39  1  0  0  0
 37 47  1  0  0  0
 37 66  1  0  0  0
 37107  1  0  0  0
 38 43  2  0  0  0
 38 46  1  0  0  0
 38 47  1  0  0  0
 39 64  1  0  0  0
 39 67  2  0  0  0
 40 52  1  0  0  0
 40 53  2  0  0  0
 40 58  1  0  0  0
 41108  1  0  0  0
 41109  1  0  0  0
 41110  1  0  0  0
 41 48  1  0  0  0
 42 43  1  0  0  0
 42 66  1  0  0  0
 42111  1  0  0  0
 42112  1  0  0  0
 43 44  1  0  0  0
 44113  1  0  0  0
 45 46  2  0  0  0
 45114  1  0  0  0
 46115  1  0  0  0
 47116  1  0  0  0
 47117  1  0  0  0
 48 56  1  0  0  0
 48 65  1  0  0  0
 48118  1  0  0  0
 49 50  1  0  0  0
 49 53  1  0  0  0
 49 64  1  0  0  0
 49119  1  0  0  0
 50 51  1  0  0  0
 50120  1  0  0  0
 50121  1  0  0  0
 51 52  1  0  0  0
 51122  1  0  0  0
 51123  1  0  0  0
 52124  1  0  0  0
 52125  1  0  0  0
 53 54  1  0  0  0
 54 55  2  0  0  0
 54126  1  0  0  0
 55 57  1  0  0  0
 55127  1  0  0  0
 56 69  2  0  0  0
 57 58  2  0  0  0
 57128  1  0  0  0
 58129  1  0  0  0
 59 60  1  0  0  0
 59 61  1  0  0  0
 59 62  1  0  0  0
 60130  1  0  0  0
 60131  1  0  0  0
 60132  1  0  0  0
 61133  1  0  0  0
 61134  1  0  0  0
 61135  1  0  0  0
 62136  1  0  0  0
 62137  1  0  0  0
 62138  1  0  0  0
 63 65  1  0  0  0
 63139  1  0  0  0
 63140  1  0  0  0
 63141  1  0  0  0
 64142  1  0  0  0
 65143  1  0  0  0
 68 81  1  0  0  0
 71 72  2  0  0  0
 71 73  1  0  0  0
 71144  1  0  0  0
 72 75  1  0  0  0
 72145  1  0  0  0
 73 76  2  0  0  0
 73146  1  0  0  0
 74 75  2  0  0  0
 74 76  1  0  0  0
 74147  1  0  0  0
 75 80  1  0  0  0
 76 82  1  0  0  0
 77 78  2  0  0  0
 77 79  1  0  0  0
 77148  1  0  0  0
 78 81  1  0  0  0
 78149  1  0  0  0
 79 83  1  0  0  0
 79 84  2  0  0  0
 80 83  1  0  0  0
 80150  1  0  0  0
 80151  1  0  0  0
 81152  1  0  0  0
 81153  1  0  0  0
 82154  1  0  0  0
 83155  1  0  0  0
M  ISO  4   1 100  68 101  81 101  82 100
M  END
> <chiral flag>
0

> <version>
0

> <s_m_source_file>
/data/baiqing/PycharmProjects/Reinvent-master-3.2/result/LINK_invent/BTK/process_docking_weight1_custom_product_contain_oxygen_bond_distance_aromatic_linkinvent_7_9_3/rearranged_h_0058.sdf

> <i_m_source_file_index>
77

> <r_mmod_Potential_Energy-OPLS-2005>
-198.623962402344

> <r_mmod_Stretch_Energy-OPLS-2005>
34.0698394775391

> <r_mmod_Bend_Energy-OPLS-2005>
105.001525878906

> <r_mmod_Torsional_Energy-OPLS-2005>
195.473526000977

> <r_mmod_Improper_Torsional_Energy-OPLS-2005>
2.85309195518494

> <r_mmod_Van_der_Waal_Energy-OPLS-2005>
161.974914550781

> <r_mmod_Electrostatic_Energy-OPLS-2005>
-466.150909423828

> <r_mmod_Solvation_Energy-OPLS-2005>
-241.060882568359

> <b_mmod_Minimization_Converged-OPLS-2005>
0

> <r_mmod_RMS_Derivative-OPLS-2005>
2.72616934776306

$$$$
77
                    3D
 Structure written by MMmdl.
169177  0  0  1  0            999 V2000
  -30.6212  -14.4961   20.5700 C   0  0  0  0  0  0
  -30.4585  -12.3284   19.4059 C   0  0  0  0  0  0
  -29.5249  -12.5609   18.2089 C   0  0  0  0  0  0
  -28.0416  -12.4031   18.6039 C   0  0  0  0  0  0
  -27.6708  -13.1953   19.8841 C   0  0  2  0  0  0
  -28.7091  -12.9108   20.9905 C   0  0  0  0  0  0
  -25.2611  -13.8161   20.5460 C   0  0  0  0  0  0
  -24.1779  -13.0440   20.8988 C   0  0  0  0  0  0
  -24.6361  -11.6912   20.8708 C   0  0  0  0  0  0
  -23.8983  -10.4280   21.0393 C   0  0  0  0  0  0
  -24.3495   -9.4189   21.9167 C   0  0  0  0  0  0
  -23.6163   -8.2228   22.0769 C   0  0  0  0  0  0
  -22.4159   -8.0238   21.3576 C   0  0  0  0  0  0
  -21.9830   -9.0188   20.4636 C   0  0  0  0  0  0
  -22.7162  -10.2093   20.3027 C   0  0  0  0  0  0
  -21.6834   -6.0636   22.5222 C   0  0  0  0  0  0
  -21.4024   -6.5546   23.8127 C   0  0  0  0  0  0
  -21.3680   -5.6729   24.9109 C   0  0  0  0  0  0
  -21.6046   -4.2977   24.7187 C   0  0  0  0  0  0
  -21.8816   -3.8055   23.4302 C   0  0  0  0  0  0
  -21.9158   -4.6873   22.3351 C   0  0  0  0  0  0
  -22.7795  -13.5312   21.1517 C   0  0  0  0  0  0
  -22.1608   -4.2012   21.0945 F   0  0  0  0  0  0
  -21.5676   -3.4486   25.7744 F   0  0  0  0  0  0
  -30.0366  -13.2709   20.4524 N   0  0  0  0  0  0
  -26.3036  -12.9244   20.3297 N   0  0  0  0  0  0
  -25.9306  -11.6459   20.5784 N   0  0  0  0  0  0
  -22.0252  -12.8571   22.0178 N   0  0  0  0  0  0
  -25.4631  -15.1812   20.3816 N   0  0  0  0  0  0
  -31.7526  -14.7504   20.1467 O   0  0  0  0  0  0
  -21.6613   -6.8798   21.4187 O   0  0  0  0  0  0
  -22.3571  -14.5523   20.6200 O   0  0  0  0  0  0
  -24.6201  -31.8803   23.2017 C   0  0  0  0  0  0
  -25.9064  -32.4936   23.8442 C   0  0  1  0  0  0
  -27.2337  -27.3711   20.0772 C   0  0  0  0  0  0
  -25.5972  -33.8724   24.2409 N   0  0  0  0  0  0
  -23.4006  -30.4726   21.5745 C   0  0  2  0  0  0
  -24.8337  -28.9114   20.1247 C   0  0  0  0  0  0
  -22.7476  -29.4659   22.5435 C   0  0  0  0  0  0
  -18.0251  -28.1410   22.8488 C   0  0  0  0  0  0
  -24.1428  -36.7243   23.2643 C   0  0  0  0  0  0
  -25.9339  -30.7892   21.3703 C   0  0  0  0  0  0
  -25.9936  -29.4145   20.7231 C   0  0  0  0  0  0
  -27.1832  -28.6461   20.7029 C   0  0  0  0  0  0
  -26.0708  -26.9092   19.4239 C   0  0  0  0  0  0
  -24.8717  -27.6584   19.4731 C   0  0  0  0  0  0
  -23.5800  -29.7601   20.2013 C   0  0  0  0  0  0
  -25.4099  -36.3210   24.0391 C   0  0  1  0  0  0
  -20.5857  -28.3618   23.1461 C   0  0  2  0  0  0
  -20.6754  -26.9431   22.5388 C   0  0  0  0  0  0
  -19.5689  -26.6343   21.5226 C   0  0  0  0  0  0
  -18.1850  -26.7980   22.1596 C   0  0  0  0  0  0
  -19.1508  -28.8866   23.2884 C   0  0  0  0  0  0
  -18.9460  -30.1542   23.8772 C   0  0  0  0  0  0
  -17.6431  -30.6628   24.0520 C   0  0  0  0  0  0
  -25.9056  -34.9592   23.5164 C   0  0  0  0  0  0
  -16.5342  -29.9050   23.6403 C   0  0  0  0  0  0
  -16.7240  -28.6489   23.0409 C   0  0  0  0  0  0
  -26.4317  -31.6890   25.0959 C   0  0  0  0  0  0
  -25.3491  -31.3986   26.1704 C   0  0  0  0  0  0
  -27.0236  -30.3441   24.6380 C   0  0  0  0  0  0
  -27.5944  -32.4665   25.7597 C   0  0  0  0  0  0
  -27.5593  -37.1836   24.8502 C   0  0  0  0  0  0
  -21.4249  -29.3002   22.4062 N   0  0  0  0  0  0
  -26.4289  -37.3941   23.9472 N   0  0  0  0  0  0
  -24.6707  -31.0683   22.1029 N   0  0  0  0  0  0
  -23.4226  -28.8334   23.3591 O   0  0  0  0  0  0
  -28.4256  -26.6581   20.1531 O   0  0  0  0  0  0
  -26.5531  -34.9000   22.4675 O   0  0  0  0  0  0
  -23.5388  -32.1711   23.7288 O   0  0  0  0  0  0
  -29.9616  -18.1245   23.5464 C   0  0  0  0  0  0
  -29.8412  -16.8656   22.9363 C   0  0  0  0  0  0
  -30.0812  -17.9387   20.7419 C   0  0  0  0  0  0
  -30.1494  -19.2926   22.7697 C   0  0  0  0  0  0
  -30.1495  -19.2363   21.3474 C   0  0  0  0  0  0
  -29.9538  -16.7496   21.5341 C   0  0  0  0  0  0
  -30.5841  -20.4909   23.4742 C   0  0  0  0  0  0
  -29.8519  -21.2598   24.2916 C   0  0  0  0  0  0
  -30.2783  -20.4952   20.5221 C   0  0  0  0  0  0
  -30.4733  -22.4551   24.9832 C   0  0  0  0  0  0
  -27.0449  -23.4778   19.8569 C   0  0  0  0  0  0
  -28.3660  -24.2831   21.8457 C   0  0  0  0  0  0
  -29.5095  -22.9010   19.9329 C   0  0  0  0  0  0
  -28.6918  -25.3693   19.5336 C   0  0  0  0  0  0
  -28.4183  -24.0094   20.3140 C   0  0  0  0  0  0
  -31.2912  -20.5815   19.6547 N   0  0  0  0  0  0
  -29.7484  -15.4339   21.0079 N   0  0  0  0  0  0
  -29.4238  -21.5610   20.6195 N   0  3  0  0  0  0
  -31.4995  -12.4833   19.0974 H   0  0  0  0  0  0
  -30.4022  -11.2989   19.7562 H   0  0  0  0  0  0
  -29.7823  -11.8918   17.3905 H   0  0  0  0  0  0
  -29.7018  -13.5729   17.8471 H   0  0  0  0  0  0
  -27.8582  -11.3440   18.7857 H   0  0  0  0  0  0
  -27.4061  -12.7022   17.7676 H   0  0  0  0  0  0
  -27.7346  -14.2540   19.6415 H   0  0  0  0  0  0
  -28.6853  -11.8537   21.2641 H   0  0  0  0  0  0
  -28.4636  -13.4530   21.9058 H   0  0  0  0  0  0
  -25.2590   -9.5634   22.4802 H   0  0  0  0  0  0
  -23.9765   -7.4654   22.7580 H   0  0  0  0  0  0
  -21.0711   -8.8626   19.9040 H   0  0  0  0  0  0
  -22.3483  -10.9548   19.6108 H   0  0  0  0  0  0
  -21.2067   -7.6066   23.9580 H   0  0  0  0  0  0
  -21.1538   -6.0496   25.9007 H   0  0  0  0  0  0
  -22.0637   -2.7514   23.2849 H   0  0  0  0  0  0
  -22.3639  -12.0349   22.4935 H   0  0  0  0  0  0
  -21.0864  -13.1799   22.2017 H   0  0  0  0  0  0
  -24.7586  -15.9085   20.4442 H   0  0  0  0  0  0
  -26.3711  -15.5534   20.1273 H   0  0  0  0  0  0
  -26.7161  -32.5518   23.1213 H   0  0  0  0  0  0
  -25.0449  -33.9961   25.0769 H   0  0  0  0  0  0
  -22.6939  -31.2944   21.4335 H   0  0  0  0  0  0
  -23.3855  -35.9412   23.3327 H   0  0  0  0  0  0
  -24.3463  -36.8770   22.2031 H   0  0  0  0  0  0
  -23.6973  -37.6368   23.6598 H   0  0  0  0  0  0
  -26.0778  -31.5275   20.5808 H   0  0  0  0  0  0
  -26.8210  -30.8408   21.9925 H   0  0  0  0  0  0
  -28.0746  -29.0442   21.1629 H   0  0  0  0  0  0
  -26.0834  -25.9867   18.8584 H   0  0  0  0  0  0
  -23.9802  -27.2790   18.9920 H   0  0  0  0  0  0
  -23.6275  -30.5074   19.4124 H   0  0  0  0  0  0
  -22.7013  -29.1553   19.9569 H   0  0  0  0  0  0
  -25.1289  -36.2048   25.0912 H   0  0  0  0  0  0
  -20.9814  -28.2946   24.1642 H   0  0  0  0  0  0
  -20.5668  -26.2277   23.3529 H   0  0  0  0  0  0
  -21.6628  -26.7442   22.1219 H   0  0  0  0  0  0
  -19.6776  -25.6175   21.1398 H   0  0  0  0  0  0
  -19.6614  -27.3022   20.6652 H   0  0  0  0  0  0
  -17.4194  -26.6853   21.3899 H   0  0  0  0  0  0
  -18.0094  -26.0136   22.8970 H   0  0  0  0  0  0
  -19.7942  -30.7442   24.2058 H   0  0  0  0  0  0
  -17.4982  -31.6327   24.5107 H   0  0  0  0  0  0
  -15.5345  -30.2849   23.7905 H   0  0  0  0  0  0
  -15.8679  -28.0709   22.7271 H   0  0  0  0  0  0
  -24.5571  -30.7462   25.7981 H   0  0  0  0  0  0
  -24.8716  -32.3115   26.5338 H   0  0  0  0  0  0
  -25.7759  -30.8985   27.0427 H   0  0  0  0  0  0
  -26.2834  -29.7277   24.1298 H   0  0  0  0  0  0
  -27.3938  -29.7691   25.4863 H   0  0  0  0  0  0
  -27.8658  -30.5002   23.9641 H   0  0  0  0  0  0
  -27.2692  -33.4040   26.2116 H   0  0  0  0  0  0
  -28.3651  -32.7166   25.0305 H   0  0  0  0  0  0
  -28.0772  -31.8918   26.5498 H   0  0  0  0  0  0
  -28.2749  -38.0045   24.7743 H   0  0  0  0  0  0
  -28.0992  -36.2650   24.6169 H   0  0  0  0  0  0
  -27.2346  -37.1312   25.8914 H   0  0  0  0  0  0
  -20.9610  -29.8635   21.7107 H   0  0  0  0  0  0
  -26.0174  -38.3007   24.1561 H   0  0  0  0  0  0
  -29.9562  -18.1720   24.6259 H   0  0  0  0  0  0
  -29.7064  -15.9919   23.5540 H   0  0  0  0  0  0
  -30.1052  -17.8570   19.6600 H   0  0  0  0  0  0
  -31.6255  -20.7411   23.3268 H   0  0  0  0  0  0
  -28.8057  -21.0354   24.4781 H   0  0  0  0  0  0
  -29.9296  -23.3688   24.7384 H   0  0  0  0  0  0
  -31.5197  -22.5883   24.6864 H   0  0  0  0  0  0
  -30.4561  -22.3016   26.0611 H   0  0  0  0  0  0
  -26.2401  -24.1913   20.0199 H   0  0  0  0  0  0
  -26.7792  -22.5611   20.3790 H   0  0  0  0  0  0
  -27.0529  -23.2633   18.7879 H   0  0  0  0  0  0
  -27.9814  -23.4372   22.4218 H   0  0  0  0  0  0
  -27.6975  -25.1163   22.0844 H   0  0  0  0  0  0
  -29.3378  -24.5469   22.2651 H   0  0  0  0  0  0
  -30.5230  -23.2910   20.0784 H   0  0  0  0  0  0
  -29.4311  -22.6841   18.8654 H   0  0  0  0  0  0
  -28.3607  -25.3400   18.4952 H   0  0  0  0  0  0
  -29.7729  -25.4287   19.4406 H   0  0  0  0  0  0
  -31.9776  -19.8379   19.6313 H   0  0  0  0  0  0
  -31.4098  -21.3737   19.0360 H   0  0  0  0  0  0
  -28.9340  -14.9514   21.3595 H   0  0  0  0  0  0
  -28.5310  -21.3586   21.0501 H   0  0  0  0  0  0
  1 25  1  0  0  0
  1 30  2  0  0  0
  1 87  1  0  0  0
  2  3  1  0  0  0
  2 25  1  0  0  0
  2 89  1  0  0  0
  2 90  1  0  0  0
  3  4  1  0  0  0
  3 91  1  0  0  0
  3 92  1  0  0  0
  4  5  1  0  0  0
  4 93  1  0  0  0
  4 94  1  0  0  0
  5  6  1  0  0  0
  5 26  1  0  0  0
  5 95  1  0  0  0
  6 25  1  0  0  0
  6 96  1  0  0  0
  6 97  1  0  0  0
  7  8  2  0  0  0
  7 26  1  0  0  0
  7 29  1  0  0  0
  8  9  1  0  0  0
  8 22  1  0  0  0
  9 10  1  0  0  0
  9 27  2  0  0  0
 10 11  2  0  0  0
 10 15  1  0  0  0
 11 12  1  0  0  0
 11 98  1  0  0  0
 12 13  2  0  0  0
 12 99  1  0  0  0
 13 14  1  0  0  0
 13 31  1  0  0  0
 14 15  2  0  0  0
 14100  1  0  0  0
 15101  1  0  0  0
 16 17  2  0  0  0
 16 21  1  0  0  0
 16 31  1  0  0  0
 17 18  1  0  0  0
 17102  1  0  0  0
 18 19  2  0  0  0
 18103  1  0  0  0
 19 20  1  0  0  0
 19 24  1  0  0  0
 20 21  2  0  0  0
 20104  1  0  0  0
 21 23  1  0  0  0
 22 28  1  0  0  0
 22 32  2  0  0  0
 26 27  1  0  0  0
 28105  1  0  0  0
 28106  1  0  0  0
 29107  1  0  0  0
 29108  1  0  0  0
 33 34  1  0  0  0
 33 66  1  0  0  0
 33 70  2  0  0  0
 34 36  1  0  0  0
 34 59  1  0  0  0
 34109  1  0  0  0
 35 44  2  0  0  0
 35 45  1  0  0  0
 35 68  1  0  0  0
 36 56  1  0  0  0
 36110  1  0  0  0
 37 39  1  0  0  0
 37 47  1  0  0  0
 37 66  1  0  0  0
 37111  1  0  0  0
 38 43  2  0  0  0
 38 46  1  0  0  0
 38 47  1  0  0  0
 39 64  1  0  0  0
 39 67  2  0  0  0
 40 52  1  0  0  0
 40 53  2  0  0  0
 40 58  1  0  0  0
 41112  1  0  0  0
 41113  1  0  0  0
 41114  1  0  0  0
 41 48  1  0  0  0
 42 43  1  0  0  0
 42 66  1  0  0  0
 42115  1  0  0  0
 42116  1  0  0  0
 43 44  1  0  0  0
 44117  1  0  0  0
 45 46  2  0  0  0
 45118  1  0  0  0
 46119  1  0  0  0
 47120  1  0  0  0
 47121  1  0  0  0
 48 56  1  0  0  0
 48 65  1  0  0  0
 48122  1  0  0  0
 49 50  1  0  0  0
 49 53  1  0  0  0
 49 64  1  0  0  0
 49123  1  0  0  0
 50 51  1  0  0  0
 50124  1  0  0  0
 50125  1  0  0  0
 51 52  1  0  0  0
 51126  1  0  0  0
 51127  1  0  0  0
 52128  1  0  0  0
 52129  1  0  0  0
 53 54  1  0  0  0
 54 55  2  0  0  0
 54130  1  0  0  0
 55 57  1  0  0  0
 55131  1  0  0  0
 56 69  2  0  0  0
 57 58  2  0  0  0
 57132  1  0  0  0
 58133  1  0  0  0
 59 60  1  0  0  0
 59 61  1  0  0  0
 59 62  1  0  0  0
 60134  1  0  0  0
 60135  1  0  0  0
 60136  1  0  0  0
 61137  1  0  0  0
 61138  1  0  0  0
 61139  1  0  0  0
 62140  1  0  0  0
 62141  1  0  0  0
 62142  1  0  0  0
 63 65  1  0  0  0
 63143  1  0  0  0
 63144  1  0  0  0
 63145  1  0  0  0
 64146  1  0  0  0
 65147  1  0  0  0
 68 84  1  0  0  0
 71 72  2  0  0  0
 71 74  1  0  0  0
 71148  1  0  0  0
 72 76  1  0  0  0
 72149  1  0  0  0
 73 75  1  0  0  0
 73 76  2  0  0  0
 73150  1  0  0  0
 74 75  2  0  0  0
 74 77  1  0  0  0
 75 79  1  0  0  0
 76 87  1  0  0  0
 77 78  2  0  0  0
 77151  1  0  0  0
 78 80  1  0  0  0
 78152  1  0  0  0
 79 86  1  0  0  0
 79 88  2  0  0  0
 80153  1  0  0  0
 80154  1  0  0  0
 80155  1  0  0  0
 81156  1  0  0  0
 81157  1  0  0  0
 81158  1  0  0  0
 81 85  1  0  0  0
 82 85  1  0  0  0
 82159  1  0  0  0
 82160  1  0  0  0
 82161  1  0  0  0
 83 85  1  0  0  0
 83 88  1  0  0  0
 83162  1  0  0  0
 83163  1  0  0  0
 84 85  1  0  0  0
 84164  1  0  0  0
 84165  1  0  0  0
 86166  1  0  0  0
 86167  1  0  0  0
 87168  1  0  0  0
 88169  1  0  0  0
M  CHG  1  88   1
M  ISO  4   1 100  68 101  84 101  87 100
M  END
> <chiral flag>
0

> <version>
0

> <s_m_source_file>
/data/baiqing/PycharmProjects/Reinvent-master-3.2/result/LINK_invent/BTK/process_docking_weight1_custom_product_contain_oxygen_bond_distance_aromatic_linkinvent_7_9_3/rearranged_h_0058.sdf

> <i_m_source_file_index>
78

> <r_mmod_Potential_Energy-OPLS-2005>
-117.187637329102

> <r_mmod_Stretch_Energy-OPLS-2005>
66.053092956543

> <r_mmod_Bend_Energy-OPLS-2005>
165.15022277832

> <r_mmod_Torsional_Energy-OPLS-2005>
292.605560302734

> <r_mmod_Improper_Torsional_Energy-OPLS-2005>
9.26306343078613

> <r_mmod_Van_der_Waal_Energy-OPLS-2005>
139.592712402344

> <r_mmod_Electrostatic_Energy-OPLS-2005>
-411.518859863281

> <r_mmod_Solvation_Energy-OPLS-2005>
-406.303924560547

> <b_mmod_Minimization_Converged-OPLS-2005>
0

> <r_mmod_RMS_Derivative-OPLS-2005>
13.8795909881592

$$$$
78
                    3D
 Structure written by MMmdl.
152160  0  0  1  0            999 V2000
  -30.7156  -14.5183   20.5484 C   0  0  0  0  0  0
  -30.4152  -12.3307   19.4372 C   0  0  0  0  0  0
  -29.4932  -12.4970   18.2130 C   0  0  0  0  0  0
  -28.0167  -12.3532   18.6279 C   0  0  0  0  0  0
  -27.6547  -13.2163   19.8667 C   0  0  2  0  0  0
  -28.6990  -13.0535   20.9947 C   0  0  0  0  0  0
  -25.2559  -13.8183   20.5687 C   0  0  0  0  0  0
  -24.1825  -13.0448   20.9192 C   0  0  0  0  0  0
  -24.6393  -11.6919   20.8745 C   0  0  0  0  0  0
  -23.9065  -10.4301   21.0407 C   0  0  0  0  0  0
  -24.3616   -9.4213   21.9183 C   0  0  0  0  0  0
  -23.6292   -8.2246   22.0753 C   0  0  0  0  0  0
  -22.4273   -8.0284   21.3545 C   0  0  0  0  0  0
  -21.9909   -9.0258   20.4646 C   0  0  0  0  0  0
  -22.7238  -10.2139   20.3056 C   0  0  0  0  0  0
  -21.6853   -6.0736   22.5279 C   0  0  0  0  0  0
  -21.4013   -6.5639   23.8213 C   0  0  0  0  0  0
  -21.3659   -5.6793   24.9175 C   0  0  0  0  0  0
  -21.6044   -4.3056   24.7227 C   0  0  0  0  0  0
  -21.8819   -3.8147   23.4347 C   0  0  0  0  0  0
  -21.9192   -4.6964   22.3401 C   0  0  0  0  0  0
  -22.7846  -13.5237   21.1853 C   0  0  0  0  0  0
  -22.1661   -4.2150   21.0979 F   0  0  0  0  0  0
  -21.5629   -3.4539   25.7738 F   0  0  0  0  0  0
  -30.0226  -13.3497   20.4269 N   0  0  0  0  0  0
  -26.2994  -12.9368   20.3348 N   0  0  0  0  0  0
  -25.9323  -11.6520   20.5778 N   0  0  0  0  0  0
  -22.0486  -12.8229   22.0407 N   0  0  0  0  0  0
  -25.4267  -15.1901   20.4078 N   0  0  0  0  0  0
  -31.8625  -14.6345   20.1082 O   0  0  0  0  0  0
  -21.6639   -6.8880   21.4241 O   0  0  0  0  0  0
  -22.3532  -14.5545   20.6703 O   0  0  0  0  0  0
  -24.6187  -31.8657   23.2087 C   0  0  0  0  0  0
  -25.9067  -32.4809   23.8389 C   0  0  1  0  0  0
  -27.2239  -27.3965   20.1059 C   0  0  0  0  0  0
  -25.5911  -33.8610   24.2317 N   0  0  0  0  0  0
  -23.4087  -30.4899   21.5498 C   0  0  2  0  0  0
  -24.8558  -28.9571   20.1097 C   0  0  0  0  0  0
  -22.7434  -29.4646   22.4973 C   0  0  0  0  0  0
  -18.0273  -28.1376   22.8483 C   0  0  0  0  0  0
  -24.1489  -36.7308   23.2639 C   0  0  0  0  0  0
  -25.9425  -30.8206   21.3686 C   0  0  0  0  0  0
  -26.0199  -29.4543   20.7109 C   0  0  0  0  0  0
  -27.2112  -28.6832   20.7035 C   0  0  0  0  0  0
  -26.0475  -26.9363   19.4754 C   0  0  0  0  0  0
  -24.8666  -27.6995   19.4850 C   0  0  0  0  0  0
  -23.6194  -29.8270   20.1627 C   0  0  0  0  0  0
  -25.4110  -36.3104   24.0334 C   0  0  1  0  0  0
  -20.5868  -28.3669   23.1303 C   0  0  2  0  0  0
  -20.6767  -26.9403   22.5413 C   0  0  0  0  0  0
  -19.5746  -26.6383   21.5206 C   0  0  0  0  0  0
  -18.1922  -26.7917   22.1620 C   0  0  0  0  0  0
  -19.1523  -28.8839   23.2888 C   0  0  0  0  0  0
  -18.9454  -30.1446   23.8903 C   0  0  0  0  0  0
  -17.6458  -30.6585   24.0563 C   0  0  0  0  0  0
  -25.9039  -34.9469   23.5121 C   0  0  0  0  0  0
  -16.5348  -29.9087   23.6331 C   0  0  0  0  0  0
  -16.7264  -28.6502   23.0349 C   0  0  0  0  0  0
  -26.4481  -31.6596   25.0728 C   0  0  0  0  0  0
  -25.3738  -31.3713   26.1473 C   0  0  0  0  0  0
  -27.0311  -30.3033   24.6122 C   0  0  0  0  0  0
  -27.6055  -32.4318   25.7489 C   0  0  0  0  0  0
  -27.5581  -37.1808   24.8465 C   0  0  0  0  0  0
  -21.4158  -29.3034   22.3715 N   0  0  0  0  0  0
  -26.4294  -37.3791   23.9409 N   0  0  0  0  0  0
  -24.6751  -31.0730   22.1004 N   0  0  0  0  0  0
  -23.4191  -28.8183   23.3024 O   0  0  0  0  0  0
  -28.3367  -26.5716   20.1475 O   0  0  0  0  0  0
  -26.5606  -34.8927   22.4685 O   0  0  0  0  0  0
  -23.5372  -32.1427   23.7460 O   0  0  0  0  0  0
  -32.3678  -18.3905   21.9799 C   0  0  0  0  0  0
  -31.6099  -19.5334   21.6736 C   0  0  0  0  0  0
  -31.8456  -17.1063   21.7531 C   0  0  0  0  0  0
  -29.7795  -18.1055   20.9275 C   0  0  0  0  0  0
  -30.3067  -19.4204   21.1314 C   0  0  0  0  0  0
  -30.5508  -16.9339   21.2097 C   0  0  0  0  0  0
  -28.8785  -22.8832   20.6996 C   0  0  0  0  0  0
  -29.1425  -24.2192   20.6644 C   0  0  0  0  0  0
  -29.9359  -21.8697   20.6081 C   0  0  0  0  0  0
  -28.0903  -25.3219   20.8467 C   0  0  0  0  0  0
  -29.5131  -20.6023   20.8693 N   0  0  0  0  0  0
  -30.0296  -15.6021   20.9977 N   0  0  0  0  0  0
  -31.1017  -22.1349   20.3022 O   0  0  0  0  0  0
  -31.4606  -12.4139   19.1350 H   0  0  0  0  0  0
  -30.3107  -11.3325   19.8650 H   0  0  0  0  0  0
  -29.7403  -11.7569   17.4508 H   0  0  0  0  0  0
  -29.6555  -13.4743   17.7556 H   0  0  0  0  0  0
  -27.8384  -11.3000   18.8468 H   0  0  0  0  0  0
  -27.3637  -12.6032   17.7910 H   0  0  0  0  0  0
  -27.6822  -14.2556   19.5385 H   0  0  0  0  0  0
  -28.6846  -12.0355   21.3866 H   0  0  0  0  0  0
  -28.4625  -13.7005   21.8407 H   0  0  0  0  0  0
  -25.2761   -9.5688   22.4763 H   0  0  0  0  0  0
  -24.0003   -7.4635   22.7473 H   0  0  0  0  0  0
  -21.0842   -8.8777   19.8950 H   0  0  0  0  0  0
  -22.3695  -10.9678   19.6167 H   0  0  0  0  0  0
  -21.2007   -7.6150   23.9717 H   0  0  0  0  0  0
  -21.1481   -6.0523   25.9078 H   0  0  0  0  0  0
  -22.0598   -2.7610   23.2846 H   0  0  0  0  0  0
  -22.4098  -11.9889   22.4796 H   0  0  0  0  0  0
  -21.1104  -13.1256   22.2613 H   0  0  0  0  0  0
  -24.6583  -15.8443   20.5102 H   0  0  0  0  0  0
  -26.2743  -15.6272   20.0691 H   0  0  0  0  0  0
  -26.7139  -32.5514   23.1154 H   0  0  0  0  0  0
  -25.0072  -33.9769   25.0468 H   0  0  0  0  0  0
  -22.6986  -31.3077   21.4110 H   0  0  0  0  0  0
  -23.3750  -35.9644   23.3309 H   0  0  0  0  0  0
  -24.3583  -36.8916   22.2052 H   0  0  0  0  0  0
  -23.7240  -37.6514   23.6648 H   0  0  0  0  0  0
  -26.0612  -31.5879   20.6022 H   0  0  0  0  0  0
  -26.8274  -30.8708   21.9911 H   0  0  0  0  0  0
  -28.1057  -29.0548   21.1843 H   0  0  0  0  0  0
  -26.0344  -25.9741   18.9829 H   0  0  0  0  0  0
  -23.9751  -27.3140   19.0099 H   0  0  0  0  0  0
  -23.7298  -30.6047   19.4058 H   0  0  0  0  0  0
  -22.7420  -29.2499   19.8652 H   0  0  0  0  0  0
  -25.1284  -36.1973   25.0827 H   0  0  0  0  0  0
  -20.9954  -28.3239   24.1427 H   0  0  0  0  0  0
  -20.5669  -26.2279   23.3602 H   0  0  0  0  0  0
  -21.6638  -26.7448   22.1204 H   0  0  0  0  0  0
  -19.6915  -25.6297   21.1232 H   0  0  0  0  0  0
  -19.6688  -27.3201   20.6739 H   0  0  0  0  0  0
  -17.4191  -26.6663   21.4023 H   0  0  0  0  0  0
  -18.0329  -26.0058   22.9015 H   0  0  0  0  0  0
  -19.7935  -30.7250   24.2282 H   0  0  0  0  0  0
  -17.5018  -31.6267   24.5159 H   0  0  0  0  0  0
  -15.5348  -30.2994   23.7653 H   0  0  0  0  0  0
  -15.8658  -28.0829   22.7063 H   0  0  0  0  0  0
  -24.5904  -30.7070   25.7807 H   0  0  0  0  0  0
  -24.8942  -32.2875   26.4932 H   0  0  0  0  0  0
  -25.8086  -30.8871   27.0226 H   0  0  0  0  0  0
  -26.2860  -29.6797   24.1170 H   0  0  0  0  0  0
  -27.4063  -29.7273   25.4590 H   0  0  0  0  0  0
  -27.8707  -30.4340   23.9290 H   0  0  0  0  0  0
  -27.2673  -33.3616   26.2081 H   0  0  0  0  0  0
  -28.3858  -32.6884   25.0307 H   0  0  0  0  0  0
  -28.0730  -31.8430   26.5395 H   0  0  0  0  0  0
  -28.2602  -38.0105   24.7513 H   0  0  0  0  0  0
  -28.1072  -36.2633   24.6286 H   0  0  0  0  0  0
  -27.2299  -37.1455   25.8870 H   0  0  0  0  0  0
  -20.9326  -29.8766   21.6942 H   0  0  0  0  0  0
  -26.0186  -38.2870   24.1412 H   0  0  0  0  0  0
  -33.3578  -18.4998   22.4001 H   0  0  0  0  0  0
  -32.0478  -20.4976   21.8872 H   0  0  0  0  0  0
  -32.4576  -16.2530   22.0109 H   0  0  0  0  0  0
  -28.7797  -17.9948   20.5322 H   0  0  0  0  0  0
  -27.8540  -22.5611   20.8227 H   0  0  0  0  0  0
  -30.1605  -24.5629   20.5431 H   0  0  0  0  0  0
  -28.0527  -25.5552   21.9119 H   0  0  0  0  0  0
  -27.1213  -24.8860   20.6036 H   0  0  0  0  0  0
  -28.5116  -20.4856   20.9369 H   0  0  0  0  0  0
  -29.0422  -15.4649   21.1519 H   0  0  0  0  0  0
  1 25  1  0  0  0
  1 30  2  0  0  0
  1 82  1  0  0  0
  2  3  1  0  0  0
  2 25  1  0  0  0
  2 84  1  0  0  0
  2 85  1  0  0  0
  3  4  1  0  0  0
  3 86  1  0  0  0
  3 87  1  0  0  0
  4  5  1  0  0  0
  4 88  1  0  0  0
  4 89  1  0  0  0
  5  6  1  0  0  0
  5 26  1  0  0  0
  5 90  1  0  0  0
  6 25  1  0  0  0
  6 91  1  0  0  0
  6 92  1  0  0  0
  7  8  2  0  0  0
  7 26  1  0  0  0
  7 29  1  0  0  0
  8  9  1  0  0  0
  8 22  1  0  0  0
  9 10  1  0  0  0
  9 27  2  0  0  0
 10 11  2  0  0  0
 10 15  1  0  0  0
 11 12  1  0  0  0
 11 93  1  0  0  0
 12 13  2  0  0  0
 12 94  1  0  0  0
 13 14  1  0  0  0
 13 31  1  0  0  0
 14 15  2  0  0  0
 14 95  1  0  0  0
 15 96  1  0  0  0
 16 17  2  0  0  0
 16 21  1  0  0  0
 16 31  1  0  0  0
 17 18  1  0  0  0
 17 97  1  0  0  0
 18 19  2  0  0  0
 18 98  1  0  0  0
 19 20  1  0  0  0
 19 24  1  0  0  0
 20 21  2  0  0  0
 20 99  1  0  0  0
 21 23  1  0  0  0
 22 28  1  0  0  0
 22 32  2  0  0  0
 26 27  1  0  0  0
 28100  1  0  0  0
 28101  1  0  0  0
 29102  1  0  0  0
 29103  1  0  0  0
 33 34  1  0  0  0
 33 66  1  0  0  0
 33 70  2  0  0  0
 34 36  1  0  0  0
 34 59  1  0  0  0
 34104  1  0  0  0
 35 44  2  0  0  0
 35 45  1  0  0  0
 35 68  1  0  0  0
 36 56  1  0  0  0
 36105  1  0  0  0
 37 39  1  0  0  0
 37 47  1  0  0  0
 37 66  1  0  0  0
 37106  1  0  0  0
 38 43  2  0  0  0
 38 46  1  0  0  0
 38 47  1  0  0  0
 39 64  1  0  0  0
 39 67  2  0  0  0
 40 52  1  0  0  0
 40 53  2  0  0  0
 40 58  1  0  0  0
 41107  1  0  0  0
 41108  1  0  0  0
 41109  1  0  0  0
 41 48  1  0  0  0
 42 43  1  0  0  0
 42 66  1  0  0  0
 42110  1  0  0  0
 42111  1  0  0  0
 43 44  1  0  0  0
 44112  1  0  0  0
 45 46  2  0  0  0
 45113  1  0  0  0
 46114  1  0  0  0
 47115  1  0  0  0
 47116  1  0  0  0
 48 56  1  0  0  0
 48 65  1  0  0  0
 48117  1  0  0  0
 49 50  1  0  0  0
 49 53  1  0  0  0
 49 64  1  0  0  0
 49118  1  0  0  0
 50 51  1  0  0  0
 50119  1  0  0  0
 50120  1  0  0  0
 51 52  1  0  0  0
 51121  1  0  0  0
 51122  1  0  0  0
 52123  1  0  0  0
 52124  1  0  0  0
 53 54  1  0  0  0
 54 55  2  0  0  0
 54125  1  0  0  0
 55 57  1  0  0  0
 55126  1  0  0  0
 56 69  2  0  0  0
 57 58  2  0  0  0
 57127  1  0  0  0
 58128  1  0  0  0
 59 60  1  0  0  0
 59 61  1  0  0  0
 59 62  1  0  0  0
 60129  1  0  0  0
 60130  1  0  0  0
 60131  1  0  0  0
 61132  1  0  0  0
 61133  1  0  0  0
 61134  1  0  0  0
 62135  1  0  0  0
 62136  1  0  0  0
 62137  1  0  0  0
 63 65  1  0  0  0
 63138  1  0  0  0
 63139  1  0  0  0
 63140  1  0  0  0
 64141  1  0  0  0
 65142  1  0  0  0
 68 80  1  0  0  0
 71 72  2  0  0  0
 71 73  1  0  0  0
 71143  1  0  0  0
 72 75  1  0  0  0
 72144  1  0  0  0
 73 76  2  0  0  0
 73145  1  0  0  0
 74 75  2  0  0  0
 74 76  1  0  0  0
 74146  1  0  0  0
 75 81  1  0  0  0
 76 82  1  0  0  0
 77 78  2  0  0  0
 77 79  1  0  0  0
 77147  1  0  0  0
 78 80  1  0  0  0
 78148  1  0  0  0
 79 81  1  0  0  0
 79 83  2  0  0  0
 80149  1  0  0  0
 80150  1  0  0  0
 81151  1  0  0  0
 82152  1  0  0  0
M  ISO  4   1 100  68 101  80 101  82 100
M  END
> <chiral flag>
0

> <version>
0

> <s_m_source_file>
/data/baiqing/PycharmProjects/Reinvent-master-3.2/result/LINK_invent/BTK/process_docking_weight1_custom_product_contain_oxygen_bond_distance_aromatic_linkinvent_7_9_3/rearranged_h_0058.sdf

> <i_m_source_file_index>
79

> <r_mmod_Potential_Energy-OPLS-2005>
-49.5611343383789

> <r_mmod_Stretch_Energy-OPLS-2005>
49.6872673034668

> <r_mmod_Bend_Energy-OPLS-2005>
97.8554916381836

> <r_mmod_Torsional_Energy-OPLS-2005>
250.232345581055

> <r_mmod_Improper_Torsional_Energy-OPLS-2005>
4.59473848342896

> <r_mmod_Van_der_Waal_Energy-OPLS-2005>
160.846084594727

> <r_mmod_Electrostatic_Energy-OPLS-2005>
-399.101959228516

> <r_mmod_Solvation_Energy-OPLS-2005>
-237.277526855469

> <b_mmod_Minimization_Converged-OPLS-2005>
0

> <r_mmod_RMS_Derivative-OPLS-2005>
0.667279124259949

$$$$
79
                    3D
 Structure written by MMmdl.
171180  0  0  1  0            999 V2000
  -30.6692  -14.6926   20.3881 C   0  0  0  0  0  0
  -30.4223  -12.4152   19.4589 C   0  0  0  0  0  0
  -29.4968  -12.4647   18.2257 C   0  0  0  0  0  0
  -28.0260  -12.3099   18.6509 C   0  0  0  0  0  0
  -27.6386  -13.2319   19.8369 C   0  0  2  0  0  0
  -28.6921  -13.1902   20.9659 C   0  0  0  0  0  0
  -25.2509  -13.8211   20.5706 C   0  0  0  0  0  0
  -24.1816  -13.0486   20.9239 C   0  0  0  0  0  0
  -24.6381  -11.6939   20.8764 C   0  0  0  0  0  0
  -23.9063  -10.4321   21.0427 C   0  0  0  0  0  0
  -24.3613   -9.4235   21.9209 C   0  0  0  0  0  0
  -23.6298   -8.2269   22.0772 C   0  0  0  0  0  0
  -22.4279   -8.0293   21.3563 C   0  0  0  0  0  0
  -21.9927   -9.0263   20.4644 C   0  0  0  0  0  0
  -22.7254  -10.2149   20.3065 C   0  0  0  0  0  0
  -21.6863   -6.0752   22.5281 C   0  0  0  0  0  0
  -21.4010   -6.5649   23.8214 C   0  0  0  0  0  0
  -21.3645   -5.6805   24.9174 C   0  0  0  0  0  0
  -21.6042   -4.3070   24.7225 C   0  0  0  0  0  0
  -21.8827   -3.8158   23.4348 C   0  0  0  0  0  0
  -21.9195   -4.6980   22.3407 C   0  0  0  0  0  0
  -22.7820  -13.5242   21.1871 C   0  0  0  0  0  0
  -22.1679   -4.2164   21.0988 F   0  0  0  0  0  0
  -21.5614   -3.4551   25.7733 F   0  0  0  0  0  0
  -29.9894  -13.5019   20.3602 N   0  0  0  0  0  0
  -26.2926  -12.9429   20.3252 N   0  0  0  0  0  0
  -25.9309  -11.6562   20.5776 N   0  0  0  0  0  0
  -22.0460  -12.8199   22.0364 N   0  0  0  0  0  0
  -25.4197  -15.1952   20.4051 N   0  0  0  0  0  0
  -31.8970  -14.6944   20.2681 O   0  0  0  0  0  0
  -21.6651   -6.8896   21.4240 O   0  0  0  0  0  0
  -22.3521  -14.5579   20.6739 O   0  0  0  0  0  0
  -24.6271  -31.8555   23.2002 C   0  0  0  0  0  0
  -25.9131  -32.4728   23.8341 C   0  0  1  0  0  0
  -27.2190  -27.3032   20.1434 C   0  0  0  0  0  0
  -25.5968  -33.8505   24.2271 N   0  0  0  0  0  0
  -23.4197  -30.4809   21.5395 C   0  0  2  0  0  0
  -24.8707  -28.9372   20.0984 C   0  0  0  0  0  0
  -22.7455  -29.4616   22.4857 C   0  0  0  0  0  0
  -18.0288  -28.1374   22.8396 C   0  0  0  0  0  0
  -24.1497  -36.7277   23.2631 C   0  0  0  0  0  0
  -25.9578  -30.7913   21.3660 C   0  0  0  0  0  0
  -26.0392  -29.4159   20.7089 C   0  0  0  0  0  0
  -27.2171  -28.6121   20.7197 C   0  0  0  0  0  0
  -26.0336  -26.8806   19.4942 C   0  0  0  0  0  0
  -24.8703  -27.6752   19.4787 C   0  0  0  0  0  0
  -23.6374  -29.8190   20.1530 C   0  0  0  0  0  0
  -25.4117  -36.3009   24.0288 C   0  0  1  0  0  0
  -20.5879  -28.3718   23.1178 C   0  0  2  0  0  0
  -20.6771  -26.9423   22.5353 C   0  0  0  0  0  0
  -19.5769  -26.6376   21.5123 C   0  0  0  0  0  0
  -18.1941  -26.7915   22.1541 C   0  0  0  0  0  0
  -19.1542  -28.8842   23.2794 C   0  0  0  0  0  0
  -18.9514  -30.1436   23.8838 C   0  0  0  0  0  0
  -17.6531  -30.6585   24.0530 C   0  0  0  0  0  0
  -25.9063  -34.9374   23.5064 C   0  0  0  0  0  0
  -16.5394  -29.9078   23.6336 C   0  0  0  0  0  0
  -16.7289  -28.6495   23.0318 C   0  0  0  0  0  0
  -26.4549  -31.6546   25.0693 C   0  0  0  0  0  0
  -25.3818  -31.3606   26.1432 C   0  0  0  0  0  0
  -27.0488  -30.2997   24.6125 C   0  0  0  0  0  0
  -27.6064  -32.4285   25.7518 C   0  0  0  0  0  0
  -27.5573  -37.1756   24.8468 C   0  0  0  0  0  0
  -21.4171  -29.3088   22.3601 N   0  0  0  0  0  0
  -26.4285  -37.3716   23.9406 N   0  0  0  0  0  0
  -24.6861  -31.0562   22.0937 N   0  0  0  0  0  0
  -23.4155  -28.8120   23.2928 O   0  0  0  0  0  0
  -28.3103  -26.4172   20.2341 O   0  0  0  0  0  0
  -26.5628  -34.8866   22.4627 O   0  0  0  0  0  0
  -23.5436  -32.1376   23.7330 O   0  0  0  0  0  0
  -31.5501  -17.2281   17.0791 C   0  0  0  0  0  0
  -31.4197  -18.6094   17.1645 C   0  0  0  0  0  0
  -31.0179  -16.4253   18.0890 C   0  0  0  0  0  0
  -30.7291  -19.1914   18.2434 C   0  0  0  0  0  0
  -30.1663  -18.3971   19.3032 C   0  0  0  0  0  0
  -30.3744  -16.9381   19.2553 C   0  0  0  0  0  0
  -28.0390  -19.3165   20.0278 C   0  0  0  0  0  0
  -27.6515  -21.8173   20.2680 C   0  0  0  0  0  0
  -27.2124  -20.4088   20.7355 C   0  0  0  0  0  0
  -30.0729  -20.0539   21.2619 C   0  0  0  0  0  0
  -29.6542  -21.5638   21.6745 C   0  0  2  0  0  0
  -30.5835  -20.7067   18.1690 C   0  0  0  0  0  0
  -29.2113  -21.5893   23.1638 C   0  0  0  0  0  0
  -27.9328  -25.3400   22.3675 C   0  0  0  0  0  0
  -29.0894  -23.8741   20.5426 C   0  0  0  0  0  0
  -28.0513  -25.0767   20.8512 C   0  0  2  0  0  0
  -29.3717  -19.1865   20.2571 N   0  0  0  0  0  0
  -28.7286  -22.4098   20.8365 N   0  0  0  0  0  0
  -29.9737  -15.8836   20.2103 N   0  0  0  0  0  0
  -27.4302  -18.5324   19.2906 O   0  0  0  0  0  0
  -26.9561  -22.4042   19.4304 O   0  0  0  0  0  0
  -31.4628  -12.5222   19.1482 H   0  0  0  0  0  0
  -30.3594  -11.4516   19.9637 H   0  0  0  0  0  0
  -29.7627  -11.6755   17.5225 H   0  0  0  0  0  0
  -29.6262  -13.4066   17.6918 H   0  0  0  0  0  0
  -27.8776  -11.2668   18.9349 H   0  0  0  0  0  0
  -27.3697  -12.4915   17.8000 H   0  0  0  0  0  0
  -27.6235  -14.2442   19.4307 H   0  0  0  0  0  0
  -28.7188  -12.2059   21.4360 H   0  0  0  0  0  0
  -28.4545  -13.9091   21.7507 H   0  0  0  0  0  0
  -25.2740   -9.5735   22.4803 H   0  0  0  0  0  0
  -24.0002   -7.4678   22.7509 H   0  0  0  0  0  0
  -21.0868   -8.8780   19.8942 H   0  0  0  0  0  0
  -22.3705  -10.9695   19.6176 H   0  0  0  0  0  0
  -21.2013   -7.6155   23.9721 H   0  0  0  0  0  0
  -21.1445   -6.0530   25.9080 H   0  0  0  0  0  0
  -22.0607   -2.7613   23.2848 H   0  0  0  0  0  0
  -22.4073  -11.9833   22.4720 H   0  0  0  0  0  0
  -21.1072  -13.1210   22.2583 H   0  0  0  0  0  0
  -24.6448  -15.8406   20.5013 H   0  0  0  0  0  0
  -26.2361  -15.6213   19.9869 H   0  0  0  0  0  0
  -26.7168  -32.5412   23.1082 H   0  0  0  0  0  0
  -25.0137  -33.9658   25.0427 H   0  0  0  0  0  0
  -22.7223  -31.3051   21.3959 H   0  0  0  0  0  0
  -23.3703  -35.9669   23.3283 H   0  0  0  0  0  0
  -24.3596  -36.8945   22.2065 H   0  0  0  0  0  0
  -23.7332  -37.6468   23.6737 H   0  0  0  0  0  0
  -26.0859  -31.5588   20.6001 H   0  0  0  0  0  0
  -26.8365  -30.8444   21.9970 H   0  0  0  0  0  0
  -28.1060  -28.9610   21.2263 H   0  0  0  0  0  0
  -25.9955  -25.9091   19.0150 H   0  0  0  0  0  0
  -23.9709  -27.3114   18.9968 H   0  0  0  0  0  0
  -23.7472  -30.6032   19.4037 H   0  0  0  0  0  0
  -22.7566  -29.2519   19.8449 H   0  0  0  0  0  0
  -25.1280  -36.1840   25.0772 H   0  0  0  0  0  0
  -20.9976  -28.3380   24.1290 H   0  0  0  0  0  0
  -20.5637  -26.2337   23.3582 H   0  0  0  0  0  0
  -21.6651  -26.7457   22.1163 H   0  0  0  0  0  0
  -19.6996  -25.6272   21.1204 H   0  0  0  0  0  0
  -19.6745  -27.3116   20.6575 H   0  0  0  0  0  0
  -17.4202  -26.6555   21.3973 H   0  0  0  0  0  0
  -18.0409  -26.0093   22.8972 H   0  0  0  0  0  0
  -19.8042  -30.7166   24.2222 H   0  0  0  0  0  0
  -17.5151  -31.6275   24.5136 H   0  0  0  0  0  0
  -15.5402  -30.2972   23.7761 H   0  0  0  0  0  0
  -15.8663  -28.0843   22.7059 H   0  0  0  0  0  0
  -24.6029  -30.6924   25.7770 H   0  0  0  0  0  0
  -24.8945  -32.2701   26.4924 H   0  0  0  0  0  0
  -25.8135  -30.8780   27.0215 H   0  0  0  0  0  0
  -26.3094  -29.6560   24.1302 H   0  0  0  0  0  0
  -27.4455  -29.7406   25.4625 H   0  0  0  0  0  0
  -27.8815  -30.4335   23.9186 H   0  0  0  0  0  0
  -27.2700  -33.3630   26.2029 H   0  0  0  0  0  0
  -28.3943  -32.6731   25.0385 H   0  0  0  0  0  0
  -28.0664  -31.8438   26.5525 H   0  0  0  0  0  0
  -28.2490  -38.0139   24.7498 H   0  0  0  0  0  0
  -28.1133  -36.2611   24.6290 H   0  0  0  0  0  0
  -27.2248  -37.1388   25.8859 H   0  0  0  0  0  0
  -20.9383  -29.8841   21.6820 H   0  0  0  0  0  0
  -26.0125  -38.2750   24.1461 H   0  0  0  0  0  0
  -32.0587  -16.7818   16.2367 H   0  0  0  0  0  0
  -31.8191  -19.2181   16.3634 H   0  0  0  0  0  0
  -31.1367  -15.3644   17.9294 H   0  0  0  0  0  0
  -27.2334  -20.2934   21.8123 H   0  0  0  0  0  0
  -26.1718  -20.2785   20.4503 H   0  0  0  0  0  0
  -30.1403  -19.4490   22.1685 H   0  0  0  0  0  0
  -31.1148  -20.0987   20.9372 H   0  0  0  0  0  0
  -30.5996  -22.1070   21.6768 H   0  0  0  0  0  0
  -31.0317  -21.1004   17.2555 H   0  0  0  0  0  0
  -31.0909  -21.2073   18.9919 H   0  0  0  0  0  0
  -29.5356  -21.0023   18.1516 H   0  0  0  0  0  0
  -28.4871  -20.8125   23.4190 H   0  0  0  0  0  0
  -28.7752  -22.5413   23.4608 H   0  0  0  0  0  0
  -30.0677  -21.4164   23.8143 H   0  0  0  0  0  0
  -27.4575  -24.5071   22.8846 H   0  0  0  0  0  0
  -27.3271  -26.2255   22.5772 H   0  0  0  0  0  0
  -28.9050  -25.5231   22.8329 H   0  0  0  0  0  0
  -30.0314  -24.1247   21.0261 H   0  0  0  0  0  0
  -29.3249  -23.9030   19.4775 H   0  0  0  0  0  0
  -27.0754  -24.7318   20.5170 H   0  0  0  0  0  0
  -29.0058  -15.8961   20.4921 H   0  0  0  0  0  0
  1 25  1  0  0  0
  1 30  2  0  0  0
  1 89  1  0  0  0
  2  3  1  0  0  0
  2 25  1  0  0  0
  2 92  1  0  0  0
  2 93  1  0  0  0
  3  4  1  0  0  0
  3 94  1  0  0  0
  3 95  1  0  0  0
  4  5  1  0  0  0
  4 96  1  0  0  0
  4 97  1  0  0  0
  5  6  1  0  0  0
  5 26  1  0  0  0
  5 98  1  0  0  0
  6 25  1  0  0  0
  6 99  1  0  0  0
  6100  1  0  0  0
  7  8  2  0  0  0
  7 26  1  0  0  0
  7 29  1  0  0  0
  8  9  1  0  0  0
  8 22  1  0  0  0
  9 10  1  0  0  0
  9 27  2  0  0  0
 10 11  2  0  0  0
 10 15  1  0  0  0
 11 12  1  0  0  0
 11101  1  0  0  0
 12 13  2  0  0  0
 12102  1  0  0  0
 13 14  1  0  0  0
 13 31  1  0  0  0
 14 15  2  0  0  0
 14103  1  0  0  0
 15104  1  0  0  0
 16 17  2  0  0  0
 16 21  1  0  0  0
 16 31  1  0  0  0
 17 18  1  0  0  0
 17105  1  0  0  0
 18 19  2  0  0  0
 18106  1  0  0  0
 19 20  1  0  0  0
 19 24  1  0  0  0
 20 21  2  0  0  0
 20107  1  0  0  0
 21 23  1  0  0  0
 22 28  1  0  0  0
 22 32  2  0  0  0
 26 27  1  0  0  0
 28108  1  0  0  0
 28109  1  0  0  0
 29110  1  0  0  0
 29111  1  0  0  0
 33 34  1  0  0  0
 33 66  1  0  0  0
 33 70  2  0  0  0
 34 36  1  0  0  0
 34 59  1  0  0  0
 34112  1  0  0  0
 35 44  2  0  0  0
 35 45  1  0  0  0
 35 68  1  0  0  0
 36 56  1  0  0  0
 36113  1  0  0  0
 37 39  1  0  0  0
 37 47  1  0  0  0
 37 66  1  0  0  0
 37114  1  0  0  0
 38 43  2  0  0  0
 38 46  1  0  0  0
 38 47  1  0  0  0
 39 64  1  0  0  0
 39 67  2  0  0  0
 40 52  1  0  0  0
 40 53  2  0  0  0
 40 58  1  0  0  0
 41115  1  0  0  0
 41116  1  0  0  0
 41117  1  0  0  0
 41 48  1  0  0  0
 42 43  1  0  0  0
 42 66  1  0  0  0
 42118  1  0  0  0
 42119  1  0  0  0
 43 44  1  0  0  0
 44120  1  0  0  0
 45 46  2  0  0  0
 45121  1  0  0  0
 46122  1  0  0  0
 47123  1  0  0  0
 47124  1  0  0  0
 48 56  1  0  0  0
 48 65  1  0  0  0
 48125  1  0  0  0
 49 50  1  0  0  0
 49 53  1  0  0  0
 49 64  1  0  0  0
 49126  1  0  0  0
 50 51  1  0  0  0
 50127  1  0  0  0
 50128  1  0  0  0
 51 52  1  0  0  0
 51129  1  0  0  0
 51130  1  0  0  0
 52131  1  0  0  0
 52132  1  0  0  0
 53 54  1  0  0  0
 54 55  2  0  0  0
 54133  1  0  0  0
 55 57  1  0  0  0
 55134  1  0  0  0
 56 69  2  0  0  0
 57 58  2  0  0  0
 57135  1  0  0  0
 58136  1  0  0  0
 59 60  1  0  0  0
 59 61  1  0  0  0
 59 62  1  0  0  0
 60137  1  0  0  0
 60138  1  0  0  0
 60139  1  0  0  0
 61140  1  0  0  0
 61141  1  0  0  0
 61142  1  0  0  0
 62143  1  0  0  0
 62144  1  0  0  0
 62145  1  0  0  0
 63 65  1  0  0  0
 63146  1  0  0  0
 63147  1  0  0  0
 63148  1  0  0  0
 64149  1  0  0  0
 65150  1  0  0  0
 68 86  1  0  0  0
 71 72  2  0  0  0
 71 73  1  0  0  0
 71151  1  0  0  0
 72 74  1  0  0  0
 72152  1  0  0  0
 73 76  2  0  0  0
 73153  1  0  0  0
 74 75  2  0  0  0
 74 82  1  0  0  0
 75 76  1  0  0  0
 75 87  1  0  0  0
 76 89  1  0  0  0
 77 79  1  0  0  0
 77 87  1  0  0  0
 77 90  2  0  0  0
 78 79  1  0  0  0
 78 88  1  0  0  0
 78 91  2  0  0  0
 79154  1  0  0  0
 79155  1  0  0  0
 80 81  1  0  0  0
 80 87  1  0  0  0
 80156  1  0  0  0
 80157  1  0  0  0
 81 83  1  0  0  0
 81 88  1  0  0  0
 81158  1  0  0  0
 82159  1  0  0  0
 82160  1  0  0  0
 82161  1  0  0  0
 83162  1  0  0  0
 83163  1  0  0  0
 83164  1  0  0  0
 84165  1  0  0  0
 84166  1  0  0  0
 84167  1  0  0  0
 84 86  1  0  0  0
 85 86  1  0  0  0
 85 88  1  0  0  0
 85168  1  0  0  0
 85169  1  0  0  0
 86170  1  0  0  0
 89171  1  0  0  0
M  ISO  4   1 100  68 101  86 101  89 100
M  END
> <chiral flag>
0

> <version>
0

> <s_m_source_file>
/data/baiqing/PycharmProjects/Reinvent-master-3.2/result/LINK_invent/BTK/process_docking_weight1_custom_product_contain_oxygen_bond_distance_aromatic_linkinvent_7_9_3/rearranged_h_0058.sdf

> <i_m_source_file_index>
80

> <r_mmod_Potential_Energy-OPLS-2005>
324.855346679688

> <r_mmod_Stretch_Energy-OPLS-2005>
128.340484619141

> <r_mmod_Bend_Energy-OPLS-2005>
207.071197509766

> <r_mmod_Torsional_Energy-OPLS-2005>
400.045501708984

> <r_mmod_Improper_Torsional_Energy-OPLS-2005>
11.6416664123535

> <r_mmod_Van_der_Waal_Energy-OPLS-2005>
160.363510131836

> <r_mmod_Electrostatic_Energy-OPLS-2005>
-431.74755859375

> <r_mmod_Solvation_Energy-OPLS-2005>
-229.660385131836

> <b_mmod_Minimization_Converged-OPLS-2005>
0

> <r_mmod_RMS_Derivative-OPLS-2005>
6.34330463409424

$$$$
80
                    3D
 Structure written by MMmdl.
168176  0  0  1  0            999 V2000
  -29.4024  -12.6603   19.9332 C   0  0  0  0  0  0
  -30.0462  -11.7585   18.8328 C   0  0  0  0  0  0
  -29.1407  -12.9407   17.6484 C   0  0  0  0  0  0
  -28.0680  -14.1874   18.4959 C   0  0  0  0  0  0
  -28.0264  -14.3750   20.4313 C   0  0  2  0  0  0
  -29.0651  -13.1448   21.3759 C   0  0  0  0  0  0
  -25.6019  -14.6366   20.4287 C   0  0  0  0  0  0
  -24.2939  -13.7647   20.4544 C   0  0  0  0  0  0
  -24.9542  -11.6160   21.5105 C   0  0  0  0  0  0
  -24.3676  -10.1030   21.3999 C   0  0  0  0  0  0
  -24.4177   -9.2363   22.4704 C   0  0  0  0  0  0
  -23.5831   -8.0900   22.5026 C   0  0  0  0  0  0
  -22.5344   -7.8867   21.5566 C   0  0  0  0  0  0
  -22.4777   -8.6878   20.4543 C   0  0  0  0  0  0
  -23.6028   -9.4769   20.3017 C   0  0  0  0  0  0
  -21.6177   -6.0220   22.5953 C   0  0  0  0  0  0
  -21.3154   -6.5029   23.8837 C   0  0  0  0  0  0
  -21.3219   -5.6157   24.9680 C   0  0  0  0  0  0
  -21.5984   -4.2549   24.7524 C   0  0  0  0  0  0
  -21.8858   -3.7763   23.4607 C   0  0  0  0  0  0
  -21.8995   -4.6637   22.3742 C   0  0  0  0  0  0
  -22.8697  -14.5184   20.2002 C   0  0  0  0  0  0
  -22.1688   -4.2139   21.1230 F   0  0  0  0  0  0
  -21.5766   -3.3990   25.7967 F   0  0  0  0  0  0
  -29.9179  -11.9739   20.5205 N   0  0  0  0  0  0
  -26.9505  -13.8562   21.1195 N   0  0  0  0  0  0
  -26.6623  -12.0242   21.8234 N   0  0  0  0  0  0
  -21.6194  -14.1511   20.5612 N   0  0  0  0  0  0
  -25.7107  -15.8892   19.9429 N   0  0  0  0  0  0
  -30.3425  -13.7764   19.7015 O   0  0  0  0  0  0
  -21.6270   -6.8731   21.5446 O   0  0  0  0  0  0
  -22.8220  -15.6584   19.9026 O   0  0  0  0  0  0
  -24.6597  -31.8309   23.1856 C   0  0  0  0  0  0
  -25.9327  -32.4617   23.8248 C   0  0  1  0  0  0
  -26.8066  -26.7559   20.3748 C   0  0  0  0  0  0
  -25.6027  -33.8456   24.2125 N   0  0  0  0  0  0
  -23.4586  -30.4723   21.5332 C   0  0  2  0  0  0
  -24.8613  -28.8896   20.0733 C   0  0  0  0  0  0
  -22.7601  -29.4504   22.4696 C   0  0  0  0  0  0
  -18.0288  -28.1406   22.8445 C   0  0  0  0  0  0
  -24.1479  -36.7225   23.2635 C   0  0  0  0  0  0
  -26.0276  -30.5915   21.4381 C   0  0  0  0  0  0
  -26.0273  -29.1779   20.7902 C   0  0  0  0  0  0
  -27.0257  -28.1152   20.9304 C   0  0  0  0  0  0
  -25.7721  -26.7127   19.4358 C   0  0  0  0  0  0
  -24.7842  -27.7037   19.3408 C   0  0  0  0  0  0
  -23.6867  -29.8552   20.1284 C   0  0  0  0  0  0
  -25.4122  -36.3007   24.0301 C   0  0  1  0  0  0
  -20.5916  -28.3751   23.1160 C   0  0  2  0  0  0
  -20.6786  -26.9436   22.5382 C   0  0  0  0  0  0
  -19.5765  -26.6364   21.5199 C   0  0  0  0  0  0
  -18.1937  -26.7934   22.1598 C   0  0  0  0  0  0
  -19.1552  -28.8890   23.2798 C   0  0  0  0  0  0
  -18.9476  -30.1477   23.8841 C   0  0  0  0  0  0
  -17.6480  -30.6602   24.0549 C   0  0  0  0  0  0
  -25.9106  -34.9388   23.5028 C   0  0  0  0  0  0
  -16.5363  -29.9094   23.6352 C   0  0  0  0  0  0
  -16.7273  -28.6510   23.0368 C   0  0  0  0  0  0
  -26.4568  -31.6581   25.0786 C   0  0  0  0  0  0
  -25.3675  -31.3875   26.1431 C   0  0  0  0  0  0
  -27.0478  -30.2936   24.6595 C   0  0  0  0  0  0
  -27.6048  -32.4401   25.7586 C   0  0  0  0  0  0
  -27.5580  -37.1763   24.8443 C   0  0  0  0  0  0
  -21.4273  -29.3060   22.3483 N   0  0  0  0  0  0
  -26.4250  -37.3759   23.9445 N   0  0  0  0  0  0
  -24.7391  -30.9970   22.1022 N   0  0  0  0  0  0
  -23.4196  -28.8001   23.2852 O   0  0  0  0  0  0
  -27.3175  -25.4018   20.7275 O   0  0  0  0  0  0
  -26.5688  -34.8900   22.4613 O   0  0  0  0  0  0
  -23.5683  -32.1351   23.6925 O   0  0  0  0  0  0
  -22.9128  -11.8735   20.2543 C   0  0  0  0  0  0
  -24.3793  -11.8144   19.1933 C   0  0  0  0  0  0
  -25.1657  -13.5593   22.4259 C   0  0  0  0  0  0
  -22.7477  -12.4930   21.9435 C   0  0  0  0  0  0
  -25.9148  -12.4269   19.7679 C   0  0  0  0  0  0
  -23.7062  -13.6648   22.7737 C   0  0  0  0  0  0
  -25.4884  -19.7767   21.9941 C   0  0  0  0  0  0
  -26.4752  -22.3454   21.4711 C   0  0  0  0  0  0
  -24.5370  -16.5899   22.7272 C   0  0  0  0  0  0
  -20.3160  -11.5871   21.8767 C   0  0  0  0  0  0
  -20.9336  -13.3135   23.5811 C   0  0  0  0  0  0
  -21.8190  -11.0165   23.7732 C   0  0  0  0  0  0
  -24.3678  -18.2999   22.1525 C   0  0  0  0  0  0
  -26.2879  -24.0322   20.8432 C   0  0  0  0  0  0
  -21.4721  -12.1157   22.7553 C   0  0  0  0  0  0
  -25.4236  -21.1513   21.5253 N   0  0  0  0  0  0
  -23.6123  -15.3628   22.7927 N   0  0  0  0  0  0
  -27.7604  -12.0148   19.5901 N   0  0  0  0  0  0
  -27.6035  -22.1379   21.9135 O   0  0  0  0  0  0
  -25.6561  -16.4147   23.2120 O   0  0  0  0  0  0
  -31.1114  -11.7360   18.5388 H   0  0  0  0  0  0
  -29.7676  -10.7229   18.5718 H   0  0  0  0  0  0
  -28.5444  -12.3634   16.9404 H   0  0  0  0  0  0
  -29.8765  -13.4666   17.0392 H   0  0  0  0  0  0
  -27.0596  -14.1258   18.0880 H   0  0  0  0  0  0
  -28.4073  -15.1542   18.1230 H   0  0  0  0  0  0
  -28.2147  -15.3966   20.7667 H   0  0  0  0  0  0
  -28.7274  -12.7579   22.3403 H   0  0  0  0  0  0
  -29.7917  -13.7777   21.9311 H   0  0  0  0  0  0
  -25.0416   -9.4738   23.3204 H   0  0  0  0  0  0
  -23.6922   -7.4350   23.3531 H   0  0  0  0  0  0
  -21.8158   -8.4563   19.6308 H   0  0  0  0  0  0
  -23.6696   -9.7042   19.2588 H   0  0  0  0  0  0
  -21.0873   -7.5479   24.0397 H   0  0  0  0  0  0
  -21.0965   -5.9706   25.9631 H   0  0  0  0  0  0
  -22.0942   -2.7287   23.3041 H   0  0  0  0  0  0
  -21.4931  -13.2445   20.9889 H   0  0  0  0  0  0
  -20.8374  -14.7682   20.4068 H   0  0  0  0  0  0
  -24.9145  -16.3361   19.4983 H   0  0  0  0  0  0
  -26.5791  -16.3948   19.8273 H   0  0  0  0  0  0
  -26.7361  -32.5076   23.0907 H   0  0  0  0  0  0
  -25.0167  -33.9583   25.0265 H   0  0  0  0  0  0
  -22.7685  -31.3081   21.4042 H   0  0  0  0  0  0
  -23.3793  -35.9498   23.3204 H   0  0  0  0  0  0
  -24.3564  -36.8966   22.2066 H   0  0  0  0  0  0
  -23.7149  -37.6354   23.6743 H   0  0  0  0  0  0
  -26.2357  -31.3241   20.6561 H   0  0  0  0  0  0
  -26.8840  -30.6241   22.0973 H   0  0  0  0  0  0
  -27.8488  -28.2734   21.6127 H   0  0  0  0  0  0
  -25.5926  -25.8080   18.8747 H   0  0  0  0  0  0
  -23.9197  -27.5224   18.7163 H   0  0  0  0  0  0
  -23.8791  -30.6564   19.4129 H   0  0  0  0  0  0
  -22.7751  -29.3656   19.7794 H   0  0  0  0  0  0
  -25.1295  -36.1817   25.0784 H   0  0  0  0  0  0
  -21.0010  -28.3385   24.1283 H   0  0  0  0  0  0
  -20.5691  -26.2373   23.3628 H   0  0  0  0  0  0
  -21.6652  -26.7442   22.1185 H   0  0  0  0  0  0
  -19.6959  -25.6257   21.1284 H   0  0  0  0  0  0
  -19.6728  -27.3116   20.6687 H   0  0  0  0  0  0
  -17.4216  -26.6622   21.4005 H   0  0  0  0  0  0
  -18.0357  -26.0096   22.9017 H   0  0  0  0  0  0
  -19.7957  -30.7290   24.2195 H   0  0  0  0  0  0
  -17.5042  -31.6285   24.5149 H   0  0  0  0  0  0
  -15.5364  -30.2995   23.7732 H   0  0  0  0  0  0
  -15.8648  -28.0830   22.7147 H   0  0  0  0  0  0
  -24.5858  -30.7209   25.7774 H   0  0  0  0  0  0
  -24.8852  -32.3089   26.4703 H   0  0  0  0  0  0
  -25.7877  -30.9166   27.0322 H   0  0  0  0  0  0
  -26.3167  -29.6578   24.1584 H   0  0  0  0  0  0
  -27.3939  -29.7361   25.5311 H   0  0  0  0  0  0
  -27.9147  -30.4101   24.0083 H   0  0  0  0  0  0
  -27.2612  -33.3744   26.2047 H   0  0  0  0  0  0
  -28.3929  -32.6899   25.0470 H   0  0  0  0  0  0
  -28.0641  -31.8618   26.5614 H   0  0  0  0  0  0
  -28.2502  -38.0156   24.7637 H   0  0  0  0  0  0
  -28.1174  -36.2702   24.6075 H   0  0  0  0  0  0
  -27.2331  -37.1161   25.8843 H   0  0  0  0  0  0
  -20.9467  -29.8836   21.6728 H   0  0  0  0  0  0
  -26.0102  -38.2802   24.1542 H   0  0  0  0  0  0
  -22.0387  -11.3956   19.8358 H   0  0  0  0  0  0
  -24.3420  -11.3297   18.2268 H   0  0  0  0  0  0
  -25.8509  -13.9940   23.1507 H   0  0  0  0  0  0
  -26.4635  -19.4700   22.3835 H   0  0  0  0  0  0
  -19.9543  -12.3175   21.1554 H   0  0  0  0  0  0
  -19.4533  -11.3248   22.4913 H   0  0  0  0  0  0
  -20.5869  -10.6824   21.3333 H   0  0  0  0  0  0
  -20.7158  -14.1881   22.9719 H   0  0  0  0  0  0
  -21.6270  -13.6256   24.3640 H   0  0  0  0  0  0
  -20.0056  -13.0540   24.0908 H   0  0  0  0  0  0
  -22.0581  -10.0814   23.2791 H   0  0  0  0  0  0
  -20.9801  -10.7992   24.4364 H   0  0  0  0  0  0
  -22.6671  -11.2917   24.4021 H   0  0  0  0  0  0
  -23.9516  -18.1765   21.1526 H   0  0  0  0  0  0
  -23.5215  -18.6673   22.7310 H   0  0  0  0  0  0
  -25.4104  -24.4067   21.3700 H   0  0  0  0  0  0
  -25.9342  -23.8665   19.8283 H   0  0  0  0  0  0
  -22.6774  -15.6633   22.5531 H   0  0  0  0  0  0
  -27.8528  -11.0156   19.6813 H   0  0  0  0  0  0
  1 25  1  0  0  0
  1 30  2  0  0  0
  1 88  1  0  0  0
  2  3  1  0  0  0
  2 25  1  0  0  0
  2 91  1  0  0  0
  2 92  1  0  0  0
  3  4  1  0  0  0
  3 93  1  0  0  0
  3 94  1  0  0  0
  4  5  1  0  0  0
  4 95  1  0  0  0
  4 96  1  0  0  0
  5  6  1  0  0  0
  5 26  1  0  0  0
  5 97  1  0  0  0
  6 25  1  0  0  0
  6 98  1  0  0  0
  6 99  1  0  0  0
  7  8  2  0  0  0
  7 26  1  0  0  0
  7 29  1  0  0  0
  8  9  1  0  0  0
  8 22  1  0  0  0
  9 10  1  0  0  0
  9 27  2  0  0  0
 10 11  2  0  0  0
 10 15  1  0  0  0
 11 12  1  0  0  0
 11100  1  0  0  0
 12 13  2  0  0  0
 12101  1  0  0  0
 13 14  1  0  0  0
 13 31  1  0  0  0
 14 15  2  0  0  0
 14102  1  0  0  0
 15103  1  0  0  0
 16 17  2  0  0  0
 16 21  1  0  0  0
 16 31  1  0  0  0
 17 18  1  0  0  0
 17104  1  0  0  0
 18 19  2  0  0  0
 18105  1  0  0  0
 19 20  1  0  0  0
 19 24  1  0  0  0
 20 21  2  0  0  0
 20106  1  0  0  0
 21 23  1  0  0  0
 22 28  1  0  0  0
 22 32  2  0  0  0
 26 27  1  0  0  0
 28107  1  0  0  0
 28108  1  0  0  0
 29109  1  0  0  0
 29110  1  0  0  0
 33 34  1  0  0  0
 33 66  1  0  0  0
 33 70  2  0  0  0
 34 36  1  0  0  0
 34 59  1  0  0  0
 34111  1  0  0  0
 35 44  2  0  0  0
 35 45  1  0  0  0
 35 68  1  0  0  0
 36 56  1  0  0  0
 36112  1  0  0  0
 37 39  1  0  0  0
 37 47  1  0  0  0
 37 66  1  0  0  0
 37113  1  0  0  0
 38 43  2  0  0  0
 38 46  1  0  0  0
 38 47  1  0  0  0
 39 64  1  0  0  0
 39 67  2  0  0  0
 40 52  1  0  0  0
 40 53  2  0  0  0
 40 58  1  0  0  0
 41114  1  0  0  0
 41115  1  0  0  0
 41116  1  0  0  0
 41 48  1  0  0  0
 42 43  1  0  0  0
 42 66  1  0  0  0
 42117  1  0  0  0
 42118  1  0  0  0
 43 44  1  0  0  0
 44119  1  0  0  0
 45 46  2  0  0  0
 45120  1  0  0  0
 46121  1  0  0  0
 47122  1  0  0  0
 47123  1  0  0  0
 48 56  1  0  0  0
 48 65  1  0  0  0
 48124  1  0  0  0
 49 50  1  0  0  0
 49 53  1  0  0  0
 49 64  1  0  0  0
 49125  1  0  0  0
 50 51  1  0  0  0
 50126  1  0  0  0
 50127  1  0  0  0
 51 52  1  0  0  0
 51128  1  0  0  0
 51129  1  0  0  0
 52130  1  0  0  0
 52131  1  0  0  0
 53 54  1  0  0  0
 54 55  2  0  0  0
 54132  1  0  0  0
 55 57  1  0  0  0
 55133  1  0  0  0
 56 69  2  0  0  0
 57 58  2  0  0  0
 57134  1  0  0  0
 58135  1  0  0  0
 59 60  1  0  0  0
 59 61  1  0  0  0
 59 62  1  0  0  0
 60136  1  0  0  0
 60137  1  0  0  0
 60138  1  0  0  0
 61139  1  0  0  0
 61140  1  0  0  0
 61141  1  0  0  0
 62142  1  0  0  0
 62143  1  0  0  0
 62144  1  0  0  0
 63 65  1  0  0  0
 63145  1  0  0  0
 63146  1  0  0  0
 63147  1  0  0  0
 64148  1  0  0  0
 65149  1  0  0  0
 68 84  1  0  0  0
 71 72  2  0  0  0
 71 74  1  0  0  0
 71150  1  0  0  0
 72 75  1  0  0  0
 72151  1  0  0  0
 73 75  2  0  0  0
 73 76  1  0  0  0
 73152  1  0  0  0
 74 76  2  0  0  0
 74 85  1  0  0  0
 75 88  1  0  0  0
 76 87  1  0  0  0
 77 83  1  0  0  0
 77 86  2  0  0  0
 77153  1  0  0  0
 78 84  1  0  0  0
 78 86  1  0  0  0
 78 89  2  0  0  0
 79 83  1  0  0  0
 79 87  1  0  0  0
 79 90  2  0  0  0
 80154  1  0  0  0
 80155  1  0  0  0
 80156  1  0  0  0
 80 85  1  0  0  0
 81 85  1  0  0  0
 81157  1  0  0  0
 81158  1  0  0  0
 81159  1  0  0  0
 82 85  1  0  0  0
 82160  1  0  0  0
 82161  1  0  0  0
 82162  1  0  0  0
 83163  1  0  0  0
 83164  1  0  0  0
 84165  1  0  0  0
 84166  1  0  0  0
 87167  1  0  0  0
 88168  1  0  0  0
M  ISO  4   1 100  68 101  84 101  88 100
M  END
> <chiral flag>
0

> <version>
0

> <s_m_source_file>
/data/baiqing/PycharmProjects/Reinvent-master-3.2/result/LINK_invent/BTK/process_docking_weight1_custom_product_contain_oxygen_bond_distance_aromatic_linkinvent_7_9_3/rearranged_h_0058.sdf

> <i_m_source_file_index>
81

> <r_mmod_Potential_Energy-OPLS-2005>
23720.796875

> <r_mmod_Stretch_Energy-OPLS-2005>
12557.1318359375

> <r_mmod_Bend_Energy-OPLS-2005>
1494.70434570312

> <r_mmod_Torsional_Energy-OPLS-2005>
700.60009765625

> <r_mmod_Improper_Torsional_Energy-OPLS-2005>
69.1446304321289

> <r_mmod_Van_der_Waal_Energy-OPLS-2005>
5634.56005859375

> <r_mmod_Electrostatic_Energy-OPLS-2005>
-435.148254394531

> <r_mmod_Solvation_Energy-OPLS-2005>
-243.916885375977

> <b_mmod_Minimization_Converged-OPLS-2005>
0

> <r_mmod_RMS_Derivative-OPLS-2005>
6.07187509536743

$$$$
81
                    3D
 Structure written by MMmdl.
162171  0  0  1  0            999 V2000
  -30.7654  -14.3975   20.6298 C   0  0  0  0  0  0
  -30.4087  -12.2811   19.4185 C   0  0  0  0  0  0
  -29.4894  -12.5174   18.2053 C   0  0  0  0  0  0
  -28.0120  -12.3810   18.6156 C   0  0  0  0  0  0
  -27.6654  -13.2095   19.8819 C   0  0  2  0  0  0
  -28.7049  -12.9790   21.0036 C   0  0  0  0  0  0
  -25.2595  -13.8174   20.5679 C   0  0  0  0  0  0
  -24.1842  -13.0447   20.9160 C   0  0  0  0  0  0
  -24.6400  -11.6912   20.8734 C   0  0  0  0  0  0
  -23.9073  -10.4292   21.0397 C   0  0  0  0  0  0
  -24.3620   -9.4212   21.9179 C   0  0  0  0  0  0
  -23.6293   -8.2247   22.0754 C   0  0  0  0  0  0
  -22.4277   -8.0281   21.3545 C   0  0  0  0  0  0
  -21.9912   -9.0256   20.4647 C   0  0  0  0  0  0
  -22.7240  -10.2133   20.3051 C   0  0  0  0  0  0
  -21.6852   -6.0736   22.5278 C   0  0  0  0  0  0
  -21.4011   -6.5639   23.8212 C   0  0  0  0  0  0
  -21.3661   -5.6791   24.9174 C   0  0  0  0  0  0
  -21.6044   -4.3055   24.7225 C   0  0  0  0  0  0
  -21.8820   -3.8148   23.4346 C   0  0  0  0  0  0
  -21.9194   -4.6964   22.3403 C   0  0  0  0  0  0
  -22.7863  -13.5245   21.1833 C   0  0  0  0  0  0
  -22.1660   -4.2149   21.0981 F   0  0  0  0  0  0
  -21.5634   -3.4542   25.7741 F   0  0  0  0  0  0
  -30.0454  -13.2569   20.4578 N   0  0  0  0  0  0
  -26.3047  -12.9347   20.3404 N   0  0  0  0  0  0
  -25.9333  -11.6505   20.5782 N   0  0  0  0  0  0
  -22.0511  -12.8235   22.0394 N   0  0  0  0  0  0
  -25.4341  -15.1891   20.4086 N   0  0  0  0  0  0
  -31.8258  -14.6001   20.0320 O   0  0  0  0  0  0
  -21.6638   -6.8877   21.4239 O   0  0  0  0  0  0
  -22.3548  -14.5552   20.6687 O   0  0  0  0  0  0
  -24.6107  -31.8696   23.2121 C   0  0  0  0  0  0
  -25.9012  -32.4830   23.8408 C   0  0  1  0  0  0
  -27.2331  -27.4565   20.1009 C   0  0  0  0  0  0
  -25.5889  -33.8630   24.2349 N   0  0  0  0  0  0
  -23.3983  -30.4917   21.5507 C   0  0  2  0  0  0
  -24.8485  -28.9607   20.1125 C   0  0  0  0  0  0
  -22.7391  -29.4650   22.4990 C   0  0  0  0  0  0
  -18.0260  -28.1373   22.8492 C   0  0  0  0  0  0
  -24.1490  -36.7319   23.2639 C   0  0  0  0  0  0
  -25.9239  -30.8385   21.3665 C   0  0  0  0  0  0
  -26.0026  -29.4728   20.7204 C   0  0  0  0  0  0
  -27.1971  -28.7230   20.7230 C   0  0  0  0  0  0
  -26.0770  -26.9634   19.4660 C   0  0  0  0  0  0
  -24.8792  -27.7034   19.4832 C   0  0  0  0  0  0
  -23.6069  -29.8219   20.1651 C   0  0  0  0  0  0
  -25.4110  -36.3118   24.0345 C   0  0  1  0  0  0
  -20.5850  -28.3651   23.1325 C   0  0  2  0  0  0
  -20.6759  -26.9388   22.5419 C   0  0  0  0  0  0
  -19.5741  -26.6376   21.5214 C   0  0  0  0  0  0
  -18.1913  -26.7919   22.1617 C   0  0  0  0  0  0
  -19.1514  -28.8829   23.2906 C   0  0  0  0  0  0
  -18.9444  -30.1438   23.8919 C   0  0  0  0  0  0
  -17.6450  -30.6586   24.0563 C   0  0  0  0  0  0
  -25.9029  -34.9479   23.5140 C   0  0  0  0  0  0
  -16.5340  -29.9089   23.6330 C   0  0  0  0  0  0
  -16.7253  -28.6499   23.0359 C   0  0  0  0  0  0
  -26.4467  -31.6598   25.0719 C   0  0  0  0  0  0
  -25.3742  -31.3677   26.1468 C   0  0  0  0  0  0
  -27.0304  -30.3052   24.6068 C   0  0  0  0  0  0
  -27.6052  -32.4314   25.7471 C   0  0  0  0  0  0
  -27.5587  -37.1808   24.8460 C   0  0  0  0  0  0
  -21.4119  -29.3022   22.3733 N   0  0  0  0  0  0
  -26.4301  -37.3798   23.9408 N   0  0  0  0  0  0
  -24.6619  -31.0812   22.1015 N   0  0  0  0  0  0
  -23.4176  -28.8193   23.3022 O   0  0  0  0  0  0
  -28.3786  -26.7008   20.0882 O   0  0  0  0  0  0
  -26.5581  -34.8915   22.4697 O   0  0  0  0  0  0
  -23.5308  -32.1438   23.7533 O   0  0  0  0  0  0
  -26.6384  -24.5093   21.6097 C   0  0  0  0  0  0
  -26.0448  -23.2343   21.6731 C   0  0  0  0  0  0
  -29.7731  -17.6724   21.9294 C   0  0  0  0  0  0
  -28.8304  -23.4775   21.3858 C   0  0  0  0  0  0
  -32.0864  -16.9607   21.7238 C   0  0  0  0  0  0
  -30.1924  -19.0095   22.1329 C   0  0  0  0  0  0
  -28.0304  -24.6431   21.4291 C   0  0  0  0  0  0
  -31.5818  -19.3184   22.1418 C   0  0  0  0  0  0
  -30.7082  -16.6420   21.6930 C   0  0  0  0  0  0
  -28.2501  -22.1937   21.5136 C   0  0  0  0  0  0
  -26.8400  -22.0737   21.6050 C   0  0  0  0  0  0
  -32.5167  -18.2814   21.9358 C   0  0  0  0  0  0
  -29.1444  -20.0559   22.3826 C   0  0  0  0  0  0
  -32.1000  -20.7295   22.4068 C   0  0  0  0  0  0
  -28.6657  -26.0286   21.3206 C   0  0  0  0  0  0
  -29.1021  -21.0555   21.4839 N   0  0  0  0  0  0
  -30.2295  -15.3165   21.4542 N   0  0  0  0  0  0
  -28.4043  -19.9553   23.3650 O   0  0  0  0  0  0
  -26.2293  -20.8515   21.5915 O   0  0  0  0  0  0
  -33.8457  -18.5450   21.9475 F   0  0  0  0  0  0
  -31.4572  -12.3485   19.1215 H   0  0  0  0  0  0
  -30.2807  -11.2677   19.8020 H   0  0  0  0  0  0
  -29.7244  -11.8085   17.4102 H   0  0  0  0  0  0
  -29.6675  -13.5121   17.7931 H   0  0  0  0  0  0
  -27.8164  -11.3236   18.7985 H   0  0  0  0  0  0
  -27.3632  -12.6718   17.7885 H   0  0  0  0  0  0
  -27.7153  -14.2607   19.5981 H   0  0  0  0  0  0
  -28.6650  -11.9445   21.3487 H   0  0  0  0  0  0
  -28.4626  -13.5827   21.8785 H   0  0  0  0  0  0
  -25.2763   -9.5686   22.4758 H   0  0  0  0  0  0
  -24.0005   -7.4639   22.7472 H   0  0  0  0  0  0
  -21.0846   -8.8767   19.8952 H   0  0  0  0  0  0
  -22.3698  -10.9670   19.6159 H   0  0  0  0  0  0
  -21.1991   -7.6146   23.9715 H   0  0  0  0  0  0
  -21.1487   -6.0523   25.9078 H   0  0  0  0  0  0
  -22.0600   -2.7610   23.2848 H   0  0  0  0  0  0
  -22.4118  -11.9887   22.4768 H   0  0  0  0  0  0
  -21.1135  -13.1265   22.2612 H   0  0  0  0  0  0
  -24.6711  -15.8501   20.5062 H   0  0  0  0  0  0
  -26.2958  -15.6245   20.1037 H   0  0  0  0  0  0
  -26.7075  -32.5565   23.1170 H   0  0  0  0  0  0
  -25.0071  -33.9798   25.0514 H   0  0  0  0  0  0
  -22.6850  -31.3067   21.4115 H   0  0  0  0  0  0
  -23.3751  -35.9652   23.3302 H   0  0  0  0  0  0
  -24.3567  -36.8931   22.2048 H   0  0  0  0  0  0
  -23.7237  -37.6527   23.6647 H   0  0  0  0  0  0
  -26.0322  -31.6003   20.5938 H   0  0  0  0  0  0
  -26.8137  -30.8966   21.9813 H   0  0  0  0  0  0
  -28.0872  -29.1079   21.1996 H   0  0  0  0  0  0
  -26.1031  -25.9999   18.9763 H   0  0  0  0  0  0
  -23.9956  -27.3085   19.0021 H   0  0  0  0  0  0
  -23.7060  -30.5958   19.4024 H   0  0  0  0  0  0
  -22.7341  -29.2347   19.8752 H   0  0  0  0  0  0
  -25.1285  -36.1991   25.0841 H   0  0  0  0  0  0
  -20.9941  -28.3216   24.1446 H   0  0  0  0  0  0
  -20.5668  -26.2255   23.3604 H   0  0  0  0  0  0
  -21.6631  -26.7436   22.1209 H   0  0  0  0  0  0
  -19.6905  -25.6291   21.1231 H   0  0  0  0  0  0
  -19.6695  -27.3190   20.6747 H   0  0  0  0  0  0
  -17.4190  -26.6679   21.4011 H   0  0  0  0  0  0
  -18.0305  -26.0051   22.9002 H   0  0  0  0  0  0
  -19.7922  -30.7248   24.2302 H   0  0  0  0  0  0
  -17.5003  -31.6275   24.5150 H   0  0  0  0  0  0
  -15.5342  -30.3006   23.7648 H   0  0  0  0  0  0
  -15.8641  -28.0829   22.7084 H   0  0  0  0  0  0
  -24.5928  -30.7016   25.7785 H   0  0  0  0  0  0
  -24.8923  -32.2824   26.4936 H   0  0  0  0  0  0
  -25.8108  -30.8824   27.0205 H   0  0  0  0  0  0
  -26.2838  -29.6796   24.1162 H   0  0  0  0  0  0
  -27.4135  -29.7297   25.4501 H   0  0  0  0  0  0
  -27.8635  -30.4382   23.9162 H   0  0  0  0  0  0
  -27.2683  -33.3601   26.2086 H   0  0  0  0  0  0
  -28.3842  -32.6901   25.0285 H   0  0  0  0  0  0
  -28.0743  -31.8415   26.5355 H   0  0  0  0  0  0
  -28.2604  -38.0108   24.7532 H   0  0  0  0  0  0
  -28.1093  -36.2647   24.6269 H   0  0  0  0  0  0
  -27.2294  -37.1422   25.8857 H   0  0  0  0  0  0
  -20.9271  -29.8733   21.6953 H   0  0  0  0  0  0
  -26.0199  -38.2880   24.1414 H   0  0  0  0  0  0
  -26.0119  -25.3867   21.6802 H   0  0  0  0  0  0
  -24.9704  -23.1596   21.7645 H   0  0  0  0  0  0
  -28.7142  -17.4488   21.9301 H   0  0  0  0  0  0
  -29.9006  -23.5723   21.2708 H   0  0  0  0  0  0
  -32.8415  -16.2019   21.5849 H   0  0  0  0  0  0
  -31.6741  -21.1321   23.3255 H   0  0  0  0  0  0
  -31.8490  -21.3977   21.5840 H   0  0  0  0  0  0
  -33.1841  -20.7541   22.5208 H   0  0  0  0  0  0
  -29.7489  -25.9347   21.4034 H   0  0  0  0  0  0
  -28.3549  -26.6241   22.1813 H   0  0  0  0  0  0
  -29.8237  -21.0425   20.7792 H   0  0  0  0  0  0
  -29.3189  -15.0835   21.8213 H   0  0  0  0  0  0
  -25.2833  -20.9058   21.6710 H   0  0  0  0  0  0
  1 25  1  0  0  0
  1 30  2  0  0  0
  1 87  1  0  0  0
  2  3  1  0  0  0
  2 25  1  0  0  0
  2 91  1  0  0  0
  2 92  1  0  0  0
  3  4  1  0  0  0
  3 93  1  0  0  0
  3 94  1  0  0  0
  4  5  1  0  0  0
  4 95  1  0  0  0
  4 96  1  0  0  0
  5  6  1  0  0  0
  5 26  1  0  0  0
  5 97  1  0  0  0
  6 25  1  0  0  0
  6 98  1  0  0  0
  6 99  1  0  0  0
  7  8  2  0  0  0
  7 26  1  0  0  0
  7 29  1  0  0  0
  8  9  1  0  0  0
  8 22  1  0  0  0
  9 10  1  0  0  0
  9 27  2  0  0  0
 10 11  2  0  0  0
 10 15  1  0  0  0
 11 12  1  0  0  0
 11100  1  0  0  0
 12 13  2  0  0  0
 12101  1  0  0  0
 13 14  1  0  0  0
 13 31  1  0  0  0
 14 15  2  0  0  0
 14102  1  0  0  0
 15103  1  0  0  0
 16 17  2  0  0  0
 16 21  1  0  0  0
 16 31  1  0  0  0
 17 18  1  0  0  0
 17104  1  0  0  0
 18 19  2  0  0  0
 18105  1  0  0  0
 19 20  1  0  0  0
 19 24  1  0  0  0
 20 21  2  0  0  0
 20106  1  0  0  0
 21 23  1  0  0  0
 22 28  1  0  0  0
 22 32  2  0  0  0
 26 27  1  0  0  0
 28107  1  0  0  0
 28108  1  0  0  0
 29109  1  0  0  0
 29110  1  0  0  0
 33 34  1  0  0  0
 33 66  1  0  0  0
 33 70  2  0  0  0
 34 36  1  0  0  0
 34 59  1  0  0  0
 34111  1  0  0  0
 35 44  2  0  0  0
 35 45  1  0  0  0
 35 68  1  0  0  0
 36 56  1  0  0  0
 36112  1  0  0  0
 37 39  1  0  0  0
 37 47  1  0  0  0
 37 66  1  0  0  0
 37113  1  0  0  0
 38 43  2  0  0  0
 38 46  1  0  0  0
 38 47  1  0  0  0
 39 64  1  0  0  0
 39 67  2  0  0  0
 40 52  1  0  0  0
 40 53  2  0  0  0
 40 58  1  0  0  0
 41114  1  0  0  0
 41115  1  0  0  0
 41116  1  0  0  0
 41 48  1  0  0  0
 42 43  1  0  0  0
 42 66  1  0  0  0
 42117  1  0  0  0
 42118  1  0  0  0
 43 44  1  0  0  0
 44119  1  0  0  0
 45 46  2  0  0  0
 45120  1  0  0  0
 46121  1  0  0  0
 47122  1  0  0  0
 47123  1  0  0  0
 48 56  1  0  0  0
 48 65  1  0  0  0
 48124  1  0  0  0
 49 50  1  0  0  0
 49 53  1  0  0  0
 49 64  1  0  0  0
 49125  1  0  0  0
 50 51  1  0  0  0
 50126  1  0  0  0
 50127  1  0  0  0
 51 52  1  0  0  0
 51128  1  0  0  0
 51129  1  0  0  0
 52130  1  0  0  0
 52131  1  0  0  0
 53 54  1  0  0  0
 54 55  2  0  0  0
 54132  1  0  0  0
 55 57  1  0  0  0
 55133  1  0  0  0
 56 69  2  0  0  0
 57 58  2  0  0  0
 57134  1  0  0  0
 58135  1  0  0  0
 59 60  1  0  0  0
 59 61  1  0  0  0
 59 62  1  0  0  0
 60136  1  0  0  0
 60137  1  0  0  0
 60138  1  0  0  0
 61139  1  0  0  0
 61140  1  0  0  0
 61141  1  0  0  0
 62142  1  0  0  0
 62143  1  0  0  0
 62144  1  0  0  0
 63 65  1  0  0  0
 63145  1  0  0  0
 63146  1  0  0  0
 63147  1  0  0  0
 64148  1  0  0  0
 65149  1  0  0  0
 68 85  1  0  0  0
 71 72  2  0  0  0
 71 77  1  0  0  0
 71150  1  0  0  0
 72 81  1  0  0  0
 72151  1  0  0  0
 73 76  2  0  0  0
 73 79  1  0  0  0
 73152  1  0  0  0
 74 77  2  0  0  0
 74 80  1  0  0  0
 74153  1  0  0  0
 75 79  2  0  0  0
 75 82  1  0  0  0
 75154  1  0  0  0
 76 78  1  0  0  0
 76 83  1  0  0  0
 77 85  1  0  0  0
 78 82  2  0  0  0
 78 84  1  0  0  0
 79 87  1  0  0  0
 80 81  2  0  0  0
 80 86  1  0  0  0
 81 89  1  0  0  0
 82 90  1  0  0  0
 83 86  1  0  0  0
 83 88  2  0  0  0
 84155  1  0  0  0
 84156  1  0  0  0
 84157  1  0  0  0
 85158  1  0  0  0
 85159  1  0  0  0
 86160  1  0  0  0
 87161  1  0  0  0
 89162  1  0  0  0
M  ISO  4   1 100  68 101  85 101  87 100
M  END
> <chiral flag>
0

> <version>
0

> <s_m_source_file>
/data/baiqing/PycharmProjects/Reinvent-master-3.2/result/LINK_invent/BTK/process_docking_weight1_custom_product_contain_oxygen_bond_distance_aromatic_linkinvent_7_9_3/rearranged_h_0058.sdf

> <i_m_source_file_index>
82

> <r_mmod_Potential_Energy-OPLS-2005>
-118.267875671387

> <r_mmod_Stretch_Energy-OPLS-2005>
36.8900985717773

> <r_mmod_Bend_Energy-OPLS-2005>
90.9080047607422

> <r_mmod_Torsional_Energy-OPLS-2005>
289.593994140625

> <r_mmod_Improper_Torsional_Energy-OPLS-2005>
2.52797794342041

> <r_mmod_Van_der_Waal_Energy-OPLS-2005>
177.664688110352

> <r_mmod_Electrostatic_Energy-OPLS-2005>
-481.040374755859

> <r_mmod_Solvation_Energy-OPLS-2005>
-243.364303588867

> <b_mmod_Minimization_Converged-OPLS-2005>
0

> <r_mmod_RMS_Derivative-OPLS-2005>
1.33231699466705

$$$$
82
                    3D
 Structure written by MMmdl.
161169  0  0  1  0            999 V2000
  -30.6087  -14.6405   20.5049 C   0  0  0  0  0  0
  -30.4474  -12.3913   19.4539 C   0  0  0  0  0  0
  -29.5181  -12.5084   18.2240 C   0  0  0  0  0  0
  -28.0357  -12.3507   18.6279 C   0  0  0  0  0  0
  -27.6547  -13.2147   19.8594 C   0  0  2  0  0  0
  -28.6977  -13.0592   20.9894 C   0  0  0  0  0  0
  -25.2554  -13.8152   20.5650 C   0  0  0  0  0  0
  -24.1831  -13.0423   20.9192 C   0  0  0  0  0  0
  -24.6399  -11.6896   20.8723 C   0  0  0  0  0  0
  -23.9061  -10.4282   21.0399 C   0  0  0  0  0  0
  -24.3615   -9.4201   21.9184 C   0  0  0  0  0  0
  -23.6290   -8.2239   22.0758 C   0  0  0  0  0  0
  -22.4277   -8.0280   21.3549 C   0  0  0  0  0  0
  -21.9900   -9.0256   20.4657 C   0  0  0  0  0  0
  -22.7234  -10.2124   20.3057 C   0  0  0  0  0  0
  -21.6848   -6.0743   22.5290 C   0  0  0  0  0  0
  -21.4013   -6.5638   23.8224 C   0  0  0  0  0  0
  -21.3652   -5.6791   24.9178 C   0  0  0  0  0  0
  -21.6041   -4.3055   24.7225 C   0  0  0  0  0  0
  -21.8819   -3.8152   23.4344 C   0  0  0  0  0  0
  -21.9187   -4.6969   22.3402 C   0  0  0  0  0  0
  -22.7848  -13.5226   21.1846 C   0  0  0  0  0  0
  -22.1660   -4.2158   21.0976 F   0  0  0  0  0  0
  -21.5630   -3.4537   25.7735 F   0  0  0  0  0  0
  -30.0169  -13.4064   20.4340 N   0  0  0  0  0  0
  -26.2987  -12.9336   20.3258 N   0  0  0  0  0  0
  -25.9316  -11.6495   20.5697 N   0  0  0  0  0  0
  -22.0471  -12.8239   22.0402 N   0  0  0  0  0  0
  -25.4231  -15.1864   20.4018 N   0  0  0  0  0  0
  -31.7730  -14.8229   20.1353 O   0  0  0  0  0  0
  -21.6646   -6.8880   21.4246 O   0  0  0  0  0  0
  -22.3532  -14.5530   20.6684 O   0  0  0  0  0  0
  -24.6254  -31.8602   23.2016 C   0  0  0  0  0  0
  -25.9103  -32.4785   23.8348 C   0  0  1  0  0  0
  -27.2265  -27.3242   20.1222 C   0  0  0  0  0  0
  -25.5927  -33.8582   24.2271 N   0  0  0  0  0  0
  -23.4199  -30.4831   21.5432 C   0  0  2  0  0  0
  -24.8673  -28.9327   20.1147 C   0  0  0  0  0  0
  -22.7466  -29.4630   22.4926 C   0  0  0  0  0  0
  -18.0285  -28.1390   22.8482 C   0  0  0  0  0  0
  -24.1492  -36.7290   23.2636 C   0  0  0  0  0  0
  -25.9599  -30.7914   21.3731 C   0  0  0  0  0  0
  -26.0349  -29.4176   20.7188 C   0  0  0  0  0  0
  -27.2189  -28.6240   20.7116 C   0  0  0  0  0  0
  -26.0404  -26.8876   19.4945 C   0  0  0  0  0  0
  -24.8704  -27.6722   19.4953 C   0  0  0  0  0  0
  -23.6362  -29.8143   20.1600 C   0  0  0  0  0  0
  -25.4115  -36.3079   24.0323 C   0  0  1  0  0  0
  -20.5887  -28.3691   23.1282 C   0  0  2  0  0  0
  -20.6775  -26.9414   22.5411 C   0  0  0  0  0  0
  -19.5752  -26.6384   21.5211 C   0  0  0  0  0  0
  -18.1929  -26.7933   22.1619 C   0  0  0  0  0  0
  -19.1539  -28.8854   23.2882 C   0  0  0  0  0  0
  -18.9462  -30.1451   23.8901 C   0  0  0  0  0  0
  -17.6466  -30.6591   24.0562 C   0  0  0  0  0  0
  -25.9053  -34.9454   23.5095 C   0  0  0  0  0  0
  -16.5354  -29.9089   23.6329 C   0  0  0  0  0  0
  -16.7276  -28.6510   23.0345 C   0  0  0  0  0  0
  -26.4488  -31.6603   25.0724 C   0  0  0  0  0  0
  -25.3726  -31.3752   26.1457 C   0  0  0  0  0  0
  -27.0334  -30.3028   24.6183 C   0  0  0  0  0  0
  -27.6042  -32.4344   25.7499 C   0  0  0  0  0  0
  -27.5578  -37.1799   24.8457 C   0  0  0  0  0  0
  -21.4184  -29.3053   22.3675 N   0  0  0  0  0  0
  -26.4287  -37.3776   23.9411 N   0  0  0  0  0  0
  -24.6873  -31.0613   22.0965 N   0  0  0  0  0  0
  -23.4188  -28.8167   23.3005 O   0  0  0  0  0  0
  -28.3506  -26.4903   20.1262 O   0  0  0  0  0  0
  -26.5615  -34.8919   22.4656 O   0  0  0  0  0  0
  -23.5420  -32.1401   23.7339 O   0  0  0  0  0  0
  -30.9003  -17.9509   20.8727 C   0  0  0  0  0  0
  -30.8175  -19.3635   20.6803 C   0  0  0  0  0  0
  -28.6284  -17.7527   20.1189 C   0  0  0  0  0  0
  -28.5404  -19.1616   19.8845 C   0  0  0  0  0  0
  -29.8013  -17.1050   20.5868 C   0  0  0  0  0  0
  -29.6537  -20.0116   20.1803 C   0  0  0  0  0  0
  -30.5090  -24.3660   19.8406 C   0  0  0  0  0  0
  -28.5201  -23.8237   18.3908 C   0  0  0  0  0  0
  -28.9171  -22.4867   20.5216 C   0  0  0  0  0  0
  -28.1830  -25.0831   20.5631 C   0  0  0  0  0  0
  -27.2320  -19.7016   19.2974 C   0  0  0  0  0  0
  -29.0292  -23.9370   19.8414 C   0  0  0  0  0  0
  -29.7638  -15.6652   20.8366 N   0  0  0  0  0  0
  -29.7288  -21.4119   19.8710 N   0  0  0  0  0  0
  -26.5656  -18.7445   18.6496 F   0  0  0  0  0  0
  -26.4513  -20.1497   20.2813 F   0  0  0  0  0  0
  -27.4300  -20.6882   18.4214 F   0  0  0  0  0  0
  -31.4903  -12.5248   19.1582 H   0  0  0  0  0  0
  -30.3850  -11.3947   19.8930 H   0  0  0  0  0  0
  -29.7873  -11.7598   17.4766 H   0  0  0  0  0  0
  -29.6648  -13.4796   17.7487 H   0  0  0  0  0  0
  -27.8644  -11.2971   18.8502 H   0  0  0  0  0  0
  -27.3902  -12.5925   17.7834 H   0  0  0  0  0  0
  -27.6737  -14.2508   19.5210 H   0  0  0  0  0  0
  -28.7040  -12.0337   21.3621 H   0  0  0  0  0  0
  -28.4381  -13.6796   21.8484 H   0  0  0  0  0  0
  -25.2757   -9.5685   22.4747 H   0  0  0  0  0  0
  -24.0014   -7.4626   22.7466 H   0  0  0  0  0  0
  -21.0842   -8.8773   19.8948 H   0  0  0  0  0  0
  -22.3711  -10.9662   19.6165 H   0  0  0  0  0  0
  -21.2016   -7.6153   23.9726 H   0  0  0  0  0  0
  -21.1469   -6.0522   25.9082 H   0  0  0  0  0  0
  -22.0601   -2.7618   23.2838 H   0  0  0  0  0  0
  -22.4081  -11.9922   22.4833 H   0  0  0  0  0  0
  -21.1082  -13.1274   22.2568 H   0  0  0  0  0  0
  -24.6403  -15.8264   20.4805 H   0  0  0  0  0  0
  -26.2433  -15.6085   19.9893 H   0  0  0  0  0  0
  -26.7174  -32.5453   23.1100 H   0  0  0  0  0  0
  -25.0099  -33.9740   25.0434 H   0  0  0  0  0  0
  -22.7139  -31.3034   21.3976 H   0  0  0  0  0  0
  -23.3760  -35.9617   23.3284 H   0  0  0  0  0  0
  -24.3592  -36.8926   22.2055 H   0  0  0  0  0  0
  -23.7240  -37.6482   23.6672 H   0  0  0  0  0  0
  -26.0906  -31.5521   20.6022 H   0  0  0  0  0  0
  -26.8405  -30.8423   22.0018 H   0  0  0  0  0  0
  -28.1180  -28.9883   21.1885 H   0  0  0  0  0  0
  -26.0112  -25.9271   18.9992 H   0  0  0  0  0  0
  -23.9751  -27.2967   19.0183 H   0  0  0  0  0  0
  -23.7601  -30.5889   19.4029 H   0  0  0  0  0  0
  -22.7556  -29.2460   19.8559 H   0  0  0  0  0  0
  -25.1296  -36.1921   25.0814 H   0  0  0  0  0  0
  -20.9988  -28.3272   24.1398 H   0  0  0  0  0  0
  -20.5680  -26.2301   23.3612 H   0  0  0  0  0  0
  -21.6645  -26.7451   22.1204 H   0  0  0  0  0  0
  -19.6916  -25.6292   21.1247 H   0  0  0  0  0  0
  -19.6694  -27.3191   20.6737 H   0  0  0  0  0  0
  -17.4203  -26.6679   21.4017 H   0  0  0  0  0  0
  -18.0328  -26.0080   22.9019 H   0  0  0  0  0  0
  -19.7940  -30.7260   24.2280 H   0  0  0  0  0  0
  -17.5025  -31.6274   24.5158 H   0  0  0  0  0  0
  -15.5358  -30.2993   23.7656 H   0  0  0  0  0  0
  -15.8672  -28.0836   22.7053 H   0  0  0  0  0  0
  -24.5879  -30.7128   25.7788 H   0  0  0  0  0  0
  -24.8952  -32.2932   26.4894 H   0  0  0  0  0  0
  -25.8052  -30.8916   27.0225 H   0  0  0  0  0  0
  -26.2913  -29.6783   24.1199 H   0  0  0  0  0  0
  -27.4023  -29.7280   25.4687 H   0  0  0  0  0  0
  -27.8783  -30.4314   23.9413 H   0  0  0  0  0  0
  -27.2644  -33.3636   26.2082 H   0  0  0  0  0  0
  -28.3853  -32.6922   25.0336 H   0  0  0  0  0  0
  -28.0716  -31.8477   26.5417 H   0  0  0  0  0  0
  -28.2580  -38.0111   24.7518 H   0  0  0  0  0  0
  -28.1088  -36.2641   24.6260 H   0  0  0  0  0  0
  -27.2303  -37.1421   25.8862 H   0  0  0  0  0  0
  -20.9347  -29.8790   21.6908 H   0  0  0  0  0  0
  -26.0161  -38.2844   24.1427 H   0  0  0  0  0  0
  -31.8176  -17.5290   21.2591 H   0  0  0  0  0  0
  -31.6893  -19.9607   20.9052 H   0  0  0  0  0  0
  -27.7607  -17.1471   19.9066 H   0  0  0  0  0  0
  -31.1396  -23.6539   19.3075 H   0  0  0  0  0  0
  -30.8935  -24.4469   20.8578 H   0  0  0  0  0  0
  -30.6419  -25.3344   19.3570 H   0  0  0  0  0  0
  -29.1222  -23.1363   17.7960 H   0  0  0  0  0  0
  -28.5350  -24.7894   17.8844 H   0  0  0  0  0  0
  -27.4918  -23.4598   18.3685 H   0  0  0  0  0  0
  -27.8694  -22.1861   20.5346 H   0  0  0  0  0  0
  -29.2182  -22.5546   21.5682 H   0  0  0  0  0  0
  -28.4471  -25.0708   21.6207 H   0  0  0  0  0  0
  -27.1357  -24.7827   20.5485 H   0  0  0  0  0  0
  -28.8514  -15.3145   21.0861 H   0  0  0  0  0  0
  -29.7292  -21.5604   18.8667 H   0  0  0  0  0  0
  1 25  1  0  0  0
  1 30  2  0  0  0
  1 83  1  0  0  0
  2  3  1  0  0  0
  2 25  1  0  0  0
  2 88  1  0  0  0
  2 89  1  0  0  0
  3  4  1  0  0  0
  3 90  1  0  0  0
  3 91  1  0  0  0
  4  5  1  0  0  0
  4 92  1  0  0  0
  4 93  1  0  0  0
  5  6  1  0  0  0
  5 26  1  0  0  0
  5 94  1  0  0  0
  6 25  1  0  0  0
  6 95  1  0  0  0
  6 96  1  0  0  0
  7  8  2  0  0  0
  7 26  1  0  0  0
  7 29  1  0  0  0
  8  9  1  0  0  0
  8 22  1  0  0  0
  9 10  1  0  0  0
  9 27  2  0  0  0
 10 11  2  0  0  0
 10 15  1  0  0  0
 11 12  1  0  0  0
 11 97  1  0  0  0
 12 13  2  0  0  0
 12 98  1  0  0  0
 13 14  1  0  0  0
 13 31  1  0  0  0
 14 15  2  0  0  0
 14 99  1  0  0  0
 15100  1  0  0  0
 16 17  2  0  0  0
 16 21  1  0  0  0
 16 31  1  0  0  0
 17 18  1  0  0  0
 17101  1  0  0  0
 18 19  2  0  0  0
 18102  1  0  0  0
 19 20  1  0  0  0
 19 24  1  0  0  0
 20 21  2  0  0  0
 20103  1  0  0  0
 21 23  1  0  0  0
 22 28  1  0  0  0
 22 32  2  0  0  0
 26 27  1  0  0  0
 28104  1  0  0  0
 28105  1  0  0  0
 29106  1  0  0  0
 29107  1  0  0  0
 33 34  1  0  0  0
 33 66  1  0  0  0
 33 70  2  0  0  0
 34 36  1  0  0  0
 34 59  1  0  0  0
 34108  1  0  0  0
 35 44  2  0  0  0
 35 45  1  0  0  0
 35 68  1  0  0  0
 36 56  1  0  0  0
 36109  1  0  0  0
 37 39  1  0  0  0
 37 47  1  0  0  0
 37 66  1  0  0  0
 37110  1  0  0  0
 38 43  2  0  0  0
 38 46  1  0  0  0
 38 47  1  0  0  0
 39 64  1  0  0  0
 39 67  2  0  0  0
 40 52  1  0  0  0
 40 53  2  0  0  0
 40 58  1  0  0  0
 41111  1  0  0  0
 41112  1  0  0  0
 41113  1  0  0  0
 41 48  1  0  0  0
 42 43  1  0  0  0
 42 66  1  0  0  0
 42114  1  0  0  0
 42115  1  0  0  0
 43 44  1  0  0  0
 44116  1  0  0  0
 45 46  2  0  0  0
 45117  1  0  0  0
 46118  1  0  0  0
 47119  1  0  0  0
 47120  1  0  0  0
 48 56  1  0  0  0
 48 65  1  0  0  0
 48121  1  0  0  0
 49 50  1  0  0  0
 49 53  1  0  0  0
 49 64  1  0  0  0
 49122  1  0  0  0
 50 51  1  0  0  0
 50123  1  0  0  0
 50124  1  0  0  0
 51 52  1  0  0  0
 51125  1  0  0  0
 51126  1  0  0  0
 52127  1  0  0  0
 52128  1  0  0  0
 53 54  1  0  0  0
 54 55  2  0  0  0
 54129  1  0  0  0
 55 57  1  0  0  0
 55130  1  0  0  0
 56 69  2  0  0  0
 57 58  2  0  0  0
 57131  1  0  0  0
 58132  1  0  0  0
 59 60  1  0  0  0
 59 61  1  0  0  0
 59 62  1  0  0  0
 60133  1  0  0  0
 60134  1  0  0  0
 60135  1  0  0  0
 61136  1  0  0  0
 61137  1  0  0  0
 61138  1  0  0  0
 62139  1  0  0  0
 62140  1  0  0  0
 62141  1  0  0  0
 63 65  1  0  0  0
 63142  1  0  0  0
 63143  1  0  0  0
 63144  1  0  0  0
 64145  1  0  0  0
 65146  1  0  0  0
 68 80  1  0  0  0
 71 72  2  0  0  0
 71 75  1  0  0  0
 71147  1  0  0  0
 72 76  1  0  0  0
 72148  1  0  0  0
 73 74  1  0  0  0
 73 75  2  0  0  0
 73149  1  0  0  0
 74 76  2  0  0  0
 74 81  1  0  0  0
 75 83  1  0  0  0
 76 84  1  0  0  0
 77150  1  0  0  0
 77151  1  0  0  0
 77152  1  0  0  0
 77 82  1  0  0  0
 78 82  1  0  0  0
 78153  1  0  0  0
 78154  1  0  0  0
 78155  1  0  0  0
 79 82  1  0  0  0
 79 84  1  0  0  0
 79156  1  0  0  0
 79157  1  0  0  0
 80 82  1  0  0  0
 80158  1  0  0  0
 80159  1  0  0  0
 81 85  1  0  0  0
 81 86  1  0  0  0
 81 87  1  0  0  0
 83160  1  0  0  0
 84161  1  0  0  0
M  ISO  4   1 100  68 101  80 101  83 100
M  END
> <chiral flag>
0

> <version>
0

> <s_m_source_file>
/data/baiqing/PycharmProjects/Reinvent-master-3.2/result/LINK_invent/BTK/process_docking_weight1_custom_product_contain_oxygen_bond_distance_aromatic_linkinvent_7_9_3/rearranged_h_0058.sdf

> <i_m_source_file_index>
83

> <r_mmod_Potential_Energy-OPLS-2005>
180.441986083984

> <r_mmod_Stretch_Energy-OPLS-2005>
78.6350631713867

> <r_mmod_Bend_Energy-OPLS-2005>
143.799468994141

> <r_mmod_Torsional_Energy-OPLS-2005>
280.686492919922

> <r_mmod_Improper_Torsional_Energy-OPLS-2005>
10.493558883667

> <r_mmod_Van_der_Waal_Energy-OPLS-2005>
139.292388916016

> <r_mmod_Electrostatic_Energy-OPLS-2005>
-320.170227050781

> <r_mmod_Solvation_Energy-OPLS-2005>
-199.007461547852

> <b_mmod_Minimization_Converged-OPLS-2005>
0

> <r_mmod_RMS_Derivative-OPLS-2005>
2.19740891456604

$$$$
83
                    3D
 Structure written by MMmdl.
154162  0  0  1  0            999 V2000
  -30.7031  -14.4668   20.5247 C   0  0  0  0  0  0
  -30.4175  -12.2872   19.4329 C   0  0  0  0  0  0
  -29.4959  -12.4895   18.2116 C   0  0  0  0  0  0
  -28.0158  -12.3581   18.6212 C   0  0  0  0  0  0
  -27.6609  -13.2070   19.8717 C   0  0  2  0  0  0
  -28.7020  -13.0040   20.9973 C   0  0  0  0  0  0
  -25.2587  -13.8166   20.5681 C   0  0  0  0  0  0
  -24.1836  -13.0444   20.9172 C   0  0  0  0  0  0
  -24.6387  -11.6910   20.8731 C   0  0  0  0  0  0
  -23.9054  -10.4297   21.0398 C   0  0  0  0  0  0
  -24.3610   -9.4214   21.9177 C   0  0  0  0  0  0
  -23.6289   -8.2248   22.0751 C   0  0  0  0  0  0
  -22.4269   -8.0284   21.3544 C   0  0  0  0  0  0
  -21.9900   -9.0257   20.4645 C   0  0  0  0  0  0
  -22.7226  -10.2137   20.3049 C   0  0  0  0  0  0
  -21.6853   -6.0738   22.5277 C   0  0  0  0  0  0
  -21.4019   -6.5640   23.8212 C   0  0  0  0  0  0
  -21.3658   -5.6791   24.9173 C   0  0  0  0  0  0
  -21.6041   -4.3054   24.7224 C   0  0  0  0  0  0
  -21.8820   -3.8148   23.4345 C   0  0  0  0  0  0
  -21.9194   -4.6966   22.3401 C   0  0  0  0  0  0
  -22.7859  -13.5246   21.1836 C   0  0  0  0  0  0
  -22.1661   -4.2152   21.0980 F   0  0  0  0  0  0
  -21.5624   -3.4536   25.7736 F   0  0  0  0  0  0
  -30.0358  -13.2853   20.4436 N   0  0  0  0  0  0
  -26.3019  -12.9335   20.3351 N   0  0  0  0  0  0
  -25.9311  -11.6495   20.5761 N   0  0  0  0  0  0
  -22.0499  -12.8249   22.0396 N   0  0  0  0  0  0
  -25.4314  -15.1885   20.4099 N   0  0  0  0  0  0
  -31.8616  -14.6038   20.1216 O   0  0  0  0  0  0
  -21.6636   -6.8880   21.4238 O   0  0  0  0  0  0
  -22.3548  -14.5553   20.6688 O   0  0  0  0  0  0
  -24.6141  -31.8694   23.2122 C   0  0  0  0  0  0
  -25.9040  -32.4832   23.8407 C   0  0  1  0  0  0
  -27.2325  -27.4370   20.0896 C   0  0  0  0  0  0
  -25.5903  -33.8630   24.2340 N   0  0  0  0  0  0
  -23.4008  -30.4950   21.5524 C   0  0  2  0  0  0
  -24.8450  -28.9645   20.1144 C   0  0  0  0  0  0
  -22.7406  -29.4669   22.4990 C   0  0  0  0  0  0
  -18.0271  -28.1379   22.8490 C   0  0  0  0  0  0
  -24.1488  -36.7315   23.2638 C   0  0  0  0  0  0
  -25.9302  -30.8347   21.3658 C   0  0  0  0  0  0
  -26.0053  -29.4700   20.7124 C   0  0  0  0  0  0
  -27.1986  -28.7122   20.7002 C   0  0  0  0  0  0
  -26.0495  -26.9515   19.4796 C   0  0  0  0  0  0
  -24.8621  -27.7036   19.4974 C   0  0  0  0  0  0
  -23.6086  -29.8316   20.1657 C   0  0  0  0  0  0
  -25.4111  -36.3117   24.0339 C   0  0  1  0  0  0
  -20.5863  -28.3665   23.1323 C   0  0  2  0  0  0
  -20.6765  -26.9404   22.5419 C   0  0  0  0  0  0
  -19.5743  -26.6388   21.5215 C   0  0  0  0  0  0
  -18.1920  -26.7926   22.1624 C   0  0  0  0  0  0
  -19.1521  -28.8836   23.2904 C   0  0  0  0  0  0
  -18.9452  -30.1441   23.8917 C   0  0  0  0  0  0
  -17.6455  -30.6586   24.0568 C   0  0  0  0  0  0
  -25.9034  -34.9481   23.5132 C   0  0  0  0  0  0
  -16.5345  -29.9091   23.6325 C   0  0  0  0  0  0
  -16.7260  -28.6508   23.0345 C   0  0  0  0  0  0
  -26.4473  -31.6605   25.0728 C   0  0  0  0  0  0
  -25.3744  -31.3704   26.1478 C   0  0  0  0  0  0
  -27.0302  -30.3052   24.6090 C   0  0  0  0  0  0
  -27.6056  -32.4320   25.7486 C   0  0  0  0  0  0
  -27.5582  -37.1814   24.8467 C   0  0  0  0  0  0
  -21.4133  -29.3034   22.3726 N   0  0  0  0  0  0
  -26.4298  -37.3800   23.9406 N   0  0  0  0  0  0
  -24.6666  -31.0804   22.1020 N   0  0  0  0  0  0
  -23.4182  -28.8208   23.3026 O   0  0  0  0  0  0
  -28.4124  -26.7151   20.1198 O   0  0  0  0  0  0
  -26.5593  -34.8928   22.4692 O   0  0  0  0  0  0
  -23.5334  -32.1444   23.7521 O   0  0  0  0  0  0
  -29.5843  -19.2734   20.7167 C   0  0  0  0  0  0
  -30.7550  -18.5060   18.7343 C   0  0  0  0  0  0
  -29.5271  -17.9389   21.1906 C   0  0  0  0  0  0
  -30.6996  -17.1815   19.2040 C   0  0  0  0  0  0
  -30.2014  -19.5663   19.4779 C   0  0  0  0  0  0
  -30.0915  -16.8751   20.4460 C   0  0  0  0  0  0
  -29.9263  -23.3693   19.1777 C   0  0  0  0  0  0
  -30.2640  -20.9621   18.8537 C   0  0  0  0  0  0
  -29.6407  -24.5677   20.0954 C   0  0  0  0  0  0
  -28.3881  -25.3579   19.6554 C   0  0  0  0  0  0
  -29.9697  -15.5277   20.9209 N   0  0  0  0  0  0
  -29.9538  -22.1250   19.6909 N   0  0  0  0  0  0
  -30.1454  -23.5772   17.9819 O   0  0  0  0  0  0
  -31.4642  -12.3677   19.1347 H   0  0  0  0  0  0
  -30.3018  -11.2811   19.8396 H   0  0  0  0  0  0
  -29.7337  -11.7602   17.4358 H   0  0  0  0  0  0
  -29.6706  -13.4726   17.7711 H   0  0  0  0  0  0
  -27.8237  -11.3039   18.8248 H   0  0  0  0  0  0
  -27.3677  -12.6271   17.7860 H   0  0  0  0  0  0
  -27.7016  -14.2516   19.5628 H   0  0  0  0  0  0
  -28.6686  -11.9775   21.3650 H   0  0  0  0  0  0
  -28.4738  -13.6322   21.8592 H   0  0  0  0  0  0
  -25.2758   -9.5693   22.4748 H   0  0  0  0  0  0
  -24.0001   -7.4640   22.7471 H   0  0  0  0  0  0
  -21.0830   -8.8779   19.8953 H   0  0  0  0  0  0
  -22.3685  -10.9677   19.6159 H   0  0  0  0  0  0
  -21.2016   -7.6148   23.9719 H   0  0  0  0  0  0
  -21.1473   -6.0518   25.9076 H   0  0  0  0  0  0
  -22.0599   -2.7609   23.2842 H   0  0  0  0  0  0
  -22.4113  -11.9920   22.4804 H   0  0  0  0  0  0
  -21.1116  -13.1279   22.2588 H   0  0  0  0  0  0
  -24.6668  -15.8457   20.5205 H   0  0  0  0  0  0
  -26.2870  -15.6276   20.0926 H   0  0  0  0  0  0
  -26.7109  -32.5546   23.1169 H   0  0  0  0  0  0
  -25.0068  -33.9799   25.0493 H   0  0  0  0  0  0
  -22.6886  -31.3117   21.4165 H   0  0  0  0  0  0
  -23.3747  -35.9652   23.3319 H   0  0  0  0  0  0
  -24.3576  -36.8909   22.2047 H   0  0  0  0  0  0
  -23.7248  -37.6528   23.6637 H   0  0  0  0  0  0
  -26.0436  -31.6013   20.5981 H   0  0  0  0  0  0
  -26.8184  -30.8865   21.9838 H   0  0  0  0  0  0
  -28.0934  -29.1002   21.1667 H   0  0  0  0  0  0
  -26.0143  -25.9950   18.9799 H   0  0  0  0  0  0
  -23.9699  -27.3101   19.0298 H   0  0  0  0  0  0
  -23.7186  -30.6086   19.4085 H   0  0  0  0  0  0
  -22.7318  -29.2536   19.8681 H   0  0  0  0  0  0
  -25.1289  -36.1986   25.0833 H   0  0  0  0  0  0
  -20.9953  -28.3231   24.1444 H   0  0  0  0  0  0
  -20.5676  -26.2271   23.3601 H   0  0  0  0  0  0
  -21.6636  -26.7453   22.1209 H   0  0  0  0  0  0
  -19.6908  -25.6304   21.1232 H   0  0  0  0  0  0
  -19.6690  -27.3209   20.6754 H   0  0  0  0  0  0
  -17.4193  -26.6673   21.4023 H   0  0  0  0  0  0
  -18.0323  -26.0068   22.9020 H   0  0  0  0  0  0
  -19.7927  -30.7249   24.2300 H   0  0  0  0  0  0
  -17.5012  -31.6272   24.5162 H   0  0  0  0  0  0
  -15.5347  -30.3004   23.7639 H   0  0  0  0  0  0
  -15.8657  -28.0837   22.7050 H   0  0  0  0  0  0
  -24.5924  -30.7043   25.7815 H   0  0  0  0  0  0
  -24.8926  -32.2856   26.4929 H   0  0  0  0  0  0
  -25.8104  -30.8874   27.0231 H   0  0  0  0  0  0
  -26.2839  -29.6817   24.1152 H   0  0  0  0  0  0
  -27.4089  -29.7283   25.4537 H   0  0  0  0  0  0
  -27.8667  -30.4377   23.9227 H   0  0  0  0  0  0
  -27.2684  -33.3613   26.2088 H   0  0  0  0  0  0
  -28.3851  -32.6889   25.0302 H   0  0  0  0  0  0
  -28.0738  -31.8427   26.5379 H   0  0  0  0  0  0
  -28.2616  -38.0096   24.7505 H   0  0  0  0  0  0
  -28.1062  -36.2629   24.6307 H   0  0  0  0  0  0
  -27.2293  -37.1484   25.8868 H   0  0  0  0  0  0
  -20.9285  -29.8756   21.6953 H   0  0  0  0  0  0
  -26.0189  -38.2880   24.1403 H   0  0  0  0  0  0
  -29.1343  -20.0607   21.3043 H   0  0  0  0  0  0
  -31.2169  -18.7034   17.7764 H   0  0  0  0  0  0
  -29.0390  -17.7401   22.1347 H   0  0  0  0  0  0
  -31.1175  -16.4096   18.5743 H   0  0  0  0  0  0
  -29.5858  -20.9574   17.9980 H   0  0  0  0  0  0
  -31.2668  -21.1002   18.4438 H   0  0  0  0  0  0
  -30.5131  -25.2204   20.0440 H   0  0  0  0  0  0
  -29.5509  -24.2549   21.1357 H   0  0  0  0  0  0
  -27.5223  -24.8268   20.0534 H   0  0  0  0  0  0
  -28.2942  -25.3730   18.5681 H   0  0  0  0  0  0
  -29.1231  -15.3087   21.4238 H   0  0  0  0  0  0
  -29.7908  -21.9845   20.6781 H   0  0  0  0  0  0
  1 25  1  0  0  0
  1 30  2  0  0  0
  1 81  1  0  0  0
  2  3  1  0  0  0
  2 25  1  0  0  0
  2 84  1  0  0  0
  2 85  1  0  0  0
  3  4  1  0  0  0
  3 86  1  0  0  0
  3 87  1  0  0  0
  4  5  1  0  0  0
  4 88  1  0  0  0
  4 89  1  0  0  0
  5  6  1  0  0  0
  5 26  1  0  0  0
  5 90  1  0  0  0
  6 25  1  0  0  0
  6 91  1  0  0  0
  6 92  1  0  0  0
  7  8  2  0  0  0
  7 26  1  0  0  0
  7 29  1  0  0  0
  8  9  1  0  0  0
  8 22  1  0  0  0
  9 10  1  0  0  0
  9 27  2  0  0  0
 10 11  2  0  0  0
 10 15  1  0  0  0
 11 12  1  0  0  0
 11 93  1  0  0  0
 12 13  2  0  0  0
 12 94  1  0  0  0
 13 14  1  0  0  0
 13 31  1  0  0  0
 14 15  2  0  0  0
 14 95  1  0  0  0
 15 96  1  0  0  0
 16 17  2  0  0  0
 16 21  1  0  0  0
 16 31  1  0  0  0
 17 18  1  0  0  0
 17 97  1  0  0  0
 18 19  2  0  0  0
 18 98  1  0  0  0
 19 20  1  0  0  0
 19 24  1  0  0  0
 20 21  2  0  0  0
 20 99  1  0  0  0
 21 23  1  0  0  0
 22 28  1  0  0  0
 22 32  2  0  0  0
 26 27  1  0  0  0
 28100  1  0  0  0
 28101  1  0  0  0
 29102  1  0  0  0
 29103  1  0  0  0
 33 34  1  0  0  0
 33 66  1  0  0  0
 33 70  2  0  0  0
 34 36  1  0  0  0
 34 59  1  0  0  0
 34104  1  0  0  0
 35 44  2  0  0  0
 35 45  1  0  0  0
 35 68  1  0  0  0
 36 56  1  0  0  0
 36105  1  0  0  0
 37 39  1  0  0  0
 37 47  1  0  0  0
 37 66  1  0  0  0
 37106  1  0  0  0
 38 43  2  0  0  0
 38 46  1  0  0  0
 38 47  1  0  0  0
 39 64  1  0  0  0
 39 67  2  0  0  0
 40 52  1  0  0  0
 40 53  2  0  0  0
 40 58  1  0  0  0
 41107  1  0  0  0
 41108  1  0  0  0
 41109  1  0  0  0
 41 48  1  0  0  0
 42 43  1  0  0  0
 42 66  1  0  0  0
 42110  1  0  0  0
 42111  1  0  0  0
 43 44  1  0  0  0
 44112  1  0  0  0
 45 46  2  0  0  0
 45113  1  0  0  0
 46114  1  0  0  0
 47115  1  0  0  0
 47116  1  0  0  0
 48 56  1  0  0  0
 48 65  1  0  0  0
 48117  1  0  0  0
 49 50  1  0  0  0
 49 53  1  0  0  0
 49 64  1  0  0  0
 49118  1  0  0  0
 50 51  1  0  0  0
 50119  1  0  0  0
 50120  1  0  0  0
 51 52  1  0  0  0
 51121  1  0  0  0
 51122  1  0  0  0
 52123  1  0  0  0
 52124  1  0  0  0
 53 54  1  0  0  0
 54 55  2  0  0  0
 54125  1  0  0  0
 55 57  1  0  0  0
 55126  1  0  0  0
 56 69  2  0  0  0
 57 58  2  0  0  0
 57127  1  0  0  0
 58128  1  0  0  0
 59 60  1  0  0  0
 59 61  1  0  0  0
 59 62  1  0  0  0
 60129  1  0  0  0
 60130  1  0  0  0
 60131  1  0  0  0
 61132  1  0  0  0
 61133  1  0  0  0
 61134  1  0  0  0
 62135  1  0  0  0
 62136  1  0  0  0
 62137  1  0  0  0
 63 65  1  0  0  0
 63138  1  0  0  0
 63139  1  0  0  0
 63140  1  0  0  0
 64141  1  0  0  0
 65142  1  0  0  0
 68 80  1  0  0  0
 71 73  2  0  0  0
 71 75  1  0  0  0
 71143  1  0  0  0
 72 74  1  0  0  0
 72 75  2  0  0  0
 72144  1  0  0  0
 73 76  1  0  0  0
 73145  1  0  0  0
 74 76  2  0  0  0
 74146  1  0  0  0
 75 78  1  0  0  0
 76 81  1  0  0  0
 77 79  1  0  0  0
 77 82  1  0  0  0
 77 83  2  0  0  0
 78 82  1  0  0  0
 78147  1  0  0  0
 78148  1  0  0  0
 79 80  1  0  0  0
 79149  1  0  0  0
 79150  1  0  0  0
 80151  1  0  0  0
 80152  1  0  0  0
 81153  1  0  0  0
 82154  1  0  0  0
M  ISO  4   1 100  68 101  80 101  81 100
M  END
> <chiral flag>
0

> <version>
0

> <s_m_source_file>
/data/baiqing/PycharmProjects/Reinvent-master-3.2/result/LINK_invent/BTK/process_docking_weight1_custom_product_contain_oxygen_bond_distance_aromatic_linkinvent_7_9_3/rearranged_h_0058.sdf

> <i_m_source_file_index>
84

> <r_mmod_Potential_Energy-OPLS-2005>
-136.95133972168

> <r_mmod_Stretch_Energy-OPLS-2005>
36.3676567077637

> <r_mmod_Bend_Energy-OPLS-2005>
98.5114364624023

> <r_mmod_Torsional_Energy-OPLS-2005>
217.594100952148

> <r_mmod_Improper_Torsional_Energy-OPLS-2005>
4.52767610549927

> <r_mmod_Van_der_Waal_Energy-OPLS-2005>
164.533584594727

> <r_mmod_Electrostatic_Energy-OPLS-2005>
-436.875091552734

> <r_mmod_Solvation_Energy-OPLS-2005>
-236.604675292969

> <b_mmod_Minimization_Converged-OPLS-2005>
0

> <r_mmod_RMS_Derivative-OPLS-2005>
0.736432313919067

$$$$
84
                    3D
 Structure written by MMmdl.
154162  0  0  1  0            999 V2000
  -30.6271  -14.5595   20.5408 C   0  0  0  0  0  0
  -30.4418  -12.3475   19.4455 C   0  0  0  0  0  0
  -29.5194  -12.5238   18.2183 C   0  0  0  0  0  0
  -28.0360  -12.3610   18.6121 C   0  0  0  0  0  0
  -27.6587  -13.2025   19.8612 C   0  0  2  0  0  0
  -28.6919  -12.9929   20.9886 C   0  0  0  0  0  0
  -25.2563  -13.8164   20.5585 C   0  0  0  0  0  0
  -24.1809  -13.0473   20.9106 C   0  0  0  0  0  0
  -24.6340  -11.6925   20.8658 C   0  0  0  0  0  0
  -23.9016  -10.4331   21.0382 C   0  0  0  0  0  0
  -24.3596   -9.4261   21.9164 C   0  0  0  0  0  0
  -23.6279   -8.2285   22.0754 C   0  0  0  0  0  0
  -22.4251   -8.0314   21.3566 C   0  0  0  0  0  0
  -21.9878   -9.0270   20.4665 C   0  0  0  0  0  0
  -22.7196  -10.2141   20.3045 C   0  0  0  0  0  0
  -21.6853   -6.0745   22.5276 C   0  0  0  0  0  0
  -21.4042   -6.5652   23.8206 C   0  0  0  0  0  0
  -21.3651   -5.6789   24.9158 C   0  0  0  0  0  0
  -21.6015   -4.3048   24.7203 C   0  0  0  0  0  0
  -21.8825   -3.8167   23.4325 C   0  0  0  0  0  0
  -21.9206   -4.6989   22.3391 C   0  0  0  0  0  0
  -22.7832  -13.5298   21.1767 C   0  0  0  0  0  0
  -22.1669   -4.2197   21.0968 F   0  0  0  0  0  0
  -21.5604   -3.4514   25.7716 F   0  0  0  0  0  0
  -30.0221  -13.3348   20.4556 N   0  0  0  0  0  0
  -26.2968  -12.9294   20.3197 N   0  0  0  0  0  0
  -25.9254  -11.6466   20.5620 N   0  0  0  0  0  0
  -22.0426  -12.8339   22.0334 N   0  0  0  0  0  0
  -25.4278  -15.1882   20.4025 N   0  0  0  0  0  0
  -31.7712  -14.7550   20.1213 O   0  0  0  0  0  0
  -21.6650   -6.8895   21.4250 O   0  0  0  0  0  0
  -22.3519  -14.5576   20.6576 O   0  0  0  0  0  0
  -24.6149  -31.8646   23.2069 C   0  0  0  0  0  0
  -25.9052  -32.4789   23.8369 C   0  0  1  0  0  0
  -27.2273  -27.3987   20.1300 C   0  0  0  0  0  0
  -25.5932  -33.8596   24.2314 N   0  0  0  0  0  0
  -23.4035  -30.4861   21.5487 C   0  0  2  0  0  0
  -24.8538  -28.9442   20.1177 C   0  0  0  0  0  0
  -22.7401  -29.4670   22.5002 C   0  0  0  0  0  0
  -18.0258  -28.1359   22.8456 C   0  0  0  0  0  0
  -24.1512  -36.7296   23.2629 C   0  0  0  0  0  0
  -25.9371  -30.8159   21.3702 C   0  0  0  0  0  0
  -26.0144  -29.4505   20.7173 C   0  0  0  0  0  0
  -27.2067  -28.6834   20.7233 C   0  0  0  0  0  0
  -26.0533  -26.9155   19.5136 C   0  0  0  0  0  0
  -24.8677  -27.6740   19.5151 C   0  0  0  0  0  0
  -23.6118  -29.8087   20.1670 C   0  0  0  0  0  0
  -25.4129  -36.3104   24.0337 C   0  0  1  0  0  0
  -20.5847  -28.3665   23.1290 C   0  0  2  0  0  0
  -20.6796  -26.9400   22.5384 C   0  0  0  0  0  0
  -19.5789  -26.6379   21.5180 C   0  0  0  0  0  0
  -18.1943  -26.7915   22.1566 C   0  0  0  0  0  0
  -19.1497  -28.8829   23.2869 C   0  0  0  0  0  0
  -18.9446  -30.1437   23.8874 C   0  0  0  0  0  0
  -17.6458  -30.6585   24.0535 C   0  0  0  0  0  0
  -25.9042  -34.9454   23.5114 C   0  0  0  0  0  0
  -16.5349  -29.9060   23.6340 C   0  0  0  0  0  0
  -16.7249  -28.6471   23.0363 C   0  0  0  0  0  0
  -26.4468  -31.6582   25.0706 C   0  0  0  0  0  0
  -25.3727  -31.3705   26.1454 C   0  0  0  0  0  0
  -27.0311  -30.3014   24.6138 C   0  0  0  0  0  0
  -27.6043  -32.4303   25.7456 C   0  0  0  0  0  0
  -27.5605  -37.1801   24.8442 C   0  0  0  0  0  0
  -21.4130  -29.3029   22.3705 N   0  0  0  0  0  0
  -26.4317  -37.3794   23.9400 N   0  0  0  0  0  0
  -24.6686  -31.0717   22.0982 N   0  0  0  0  0  0
  -23.4155  -28.8241   23.3081 O   0  0  0  0  0  0
  -28.3427  -26.5866   20.1691 O   0  0  0  0  0  0
  -26.5587  -34.8914   22.4664 O   0  0  0  0  0  0
  -23.5348  -32.1426   23.7451 O   0  0  0  0  0  0
  -28.8659  -17.8883   21.2591 C   0  0  0  0  0  0
  -30.7749  -17.7384   20.0799 C   0  0  0  0  0  0
  -29.8668  -16.9897   20.7794 C   0  0  0  0  0  0
  -29.1659  -19.1712   20.8490 C   0  0  0  0  0  0
  -28.1690  -25.3841   20.8421 C   0  0  0  0  0  0
  -28.4987  -24.1603   20.3492 C   0  0  0  0  0  0
  -28.2007  -22.9365   21.1207 C   0  0  0  0  0  0
  -31.0309  -20.1599   19.4252 C   0  0  0  0  0  0
  -28.3567  -20.4423   21.1748 C   0  0  0  0  0  0
  -30.3464  -19.0712   20.1002 N   0  0  0  0  0  0
  -29.8262  -15.5605   21.0026 N   0  0  0  0  0  0
  -28.7223  -21.7808   20.6379 N   0  0  0  0  0  0
  -27.4783  -22.9276   22.1205 O   0  0  0  0  0  0
  -29.0665  -24.0782   19.1368 O   0  0  0  0  0  0
  -31.4899  -12.4681   19.1694 H   0  0  0  0  0  0
  -30.3564  -11.3376   19.8503 H   0  0  0  0  0  0
  -29.7893  -11.8157   17.4330 H   0  0  0  0  0  0
  -29.6711  -13.5156   17.7894 H   0  0  0  0  0  0
  -27.8514  -11.3007   18.7987 H   0  0  0  0  0  0
  -27.4004  -12.6394   17.7737 H   0  0  0  0  0  0
  -27.7002  -14.2481   19.5552 H   0  0  0  0  0  0
  -28.6757  -11.9510   21.3075 H   0  0  0  0  0  0
  -28.4340  -13.5708   21.8759 H   0  0  0  0  0  0
  -25.2772   -9.5753   22.4702 H   0  0  0  0  0  0
  -24.0036   -7.4674   22.7453 H   0  0  0  0  0  0
  -21.0824   -8.8776   19.8962 H   0  0  0  0  0  0
  -22.3682  -10.9651   19.6133 H   0  0  0  0  0  0
  -21.2070   -7.6160   23.9732 H   0  0  0  0  0  0
  -21.1432   -6.0508   25.9052 H   0  0  0  0  0  0
  -22.0613   -2.7635   23.2798 H   0  0  0  0  0  0
  -22.4035  -12.0101   22.4896 H   0  0  0  0  0  0
  -21.0997  -13.1354   22.2403 H   0  0  0  0  0  0
  -24.6542  -15.8381   20.4948 H   0  0  0  0  0  0
  -26.2755  -15.6280   20.0669 H   0  0  0  0  0  0
  -26.7115  -32.5489   23.1116 H   0  0  0  0  0  0
  -25.0181  -33.9769   25.0532 H   0  0  0  0  0  0
  -22.6911  -31.3012   21.4030 H   0  0  0  0  0  0
  -23.3788  -35.9609   23.3254 H   0  0  0  0  0  0
  -24.3623  -36.8943   22.2045 H   0  0  0  0  0  0
  -23.7248  -37.6489   23.6658 H   0  0  0  0  0  0
  -26.0664  -31.5798   20.6048 H   0  0  0  0  0  0
  -26.8190  -30.8586   21.9979 H   0  0  0  0  0  0
  -28.0943  -29.0568   21.2129 H   0  0  0  0  0  0
  -26.0501  -25.9326   19.0637 H   0  0  0  0  0  0
  -23.9741  -27.2622   19.0688 H   0  0  0  0  0  0
  -23.7066  -30.5730   19.3950 H   0  0  0  0  0  0
  -22.7393  -29.2150   19.8876 H   0  0  0  0  0  0
  -25.1309  -36.1968   25.0833 H   0  0  0  0  0  0
  -20.9899  -28.3230   24.1419 H   0  0  0  0  0  0
  -20.5715  -26.2245   23.3558 H   0  0  0  0  0  0
  -21.6672  -26.7495   22.1173 H   0  0  0  0  0  0
  -19.6967  -25.6272   21.1223 H   0  0  0  0  0  0
  -19.6757  -27.3158   20.6687 H   0  0  0  0  0  0
  -17.4230  -26.6628   21.3956 H   0  0  0  0  0  0
  -18.0359  -26.0063   22.8961 H   0  0  0  0  0  0
  -19.7941  -30.7246   24.2232 H   0  0  0  0  0  0
  -17.5031  -31.6282   24.5105 H   0  0  0  0  0  0
  -15.5341  -30.2960   23.7727 H   0  0  0  0  0  0
  -15.8640  -28.0793   22.7116 H   0  0  0  0  0  0
  -24.5890  -30.7059   25.7789 H   0  0  0  0  0  0
  -24.8923  -32.2860   26.4906 H   0  0  0  0  0  0
  -25.8076  -30.8863   27.0204 H   0  0  0  0  0  0
  -26.2869  -29.6755   24.1194 H   0  0  0  0  0  0
  -27.4049  -29.7289   25.4639 H   0  0  0  0  0  0
  -27.8722  -30.4304   23.9328 H   0  0  0  0  0  0
  -27.2669  -33.3593   26.2065 H   0  0  0  0  0  0
  -28.3830  -32.6872   25.0261 H   0  0  0  0  0  0
  -28.0735  -31.8401   26.5350 H   0  0  0  0  0  0
  -28.2586  -38.0137   24.7579 H   0  0  0  0  0  0
  -28.1168  -36.2680   24.6183 H   0  0  0  0  0  0
  -27.2332  -37.1331   25.8847 H   0  0  0  0  0  0
  -20.9297  -29.8647   21.6844 H   0  0  0  0  0  0
  -26.0200  -38.2882   24.1395 H   0  0  0  0  0  0
  -27.9959  -17.6277   21.8497 H   0  0  0  0  0  0
  -31.6768  -17.4523   19.5549 H   0  0  0  0  0  0
  -27.7225  -25.5318   21.8205 H   0  0  0  0  0  0
  -31.9730  -19.8214   18.9934 H   0  0  0  0  0  0
  -31.2499  -20.9645   20.1273 H   0  0  0  0  0  0
  -30.3990  -20.5413   18.6223 H   0  0  0  0  0  0
  -28.3190  -20.5184   22.2644 H   0  0  0  0  0  0
  -27.3211  -20.2637   20.8773 H   0  0  0  0  0  0
  -28.9677  -15.2226   21.4082 H   0  0  0  0  0  0
  -29.3032  -21.8437   19.8165 H   0  0  0  0  0  0
  -29.1307  -24.9710   18.8172 H   0  0  0  0  0  0
  1 25  1  0  0  0
  1 30  2  0  0  0
  1 81  1  0  0  0
  2  3  1  0  0  0
  2 25  1  0  0  0
  2 85  1  0  0  0
  2 86  1  0  0  0
  3  4  1  0  0  0
  3 87  1  0  0  0
  3 88  1  0  0  0
  4  5  1  0  0  0
  4 89  1  0  0  0
  4 90  1  0  0  0
  5  6  1  0  0  0
  5 26  1  0  0  0
  5 91  1  0  0  0
  6 25  1  0  0  0
  6 92  1  0  0  0
  6 93  1  0  0  0
  7  8  2  0  0  0
  7 26  1  0  0  0
  7 29  1  0  0  0
  8  9  1  0  0  0
  8 22  1  0  0  0
  9 10  1  0  0  0
  9 27  2  0  0  0
 10 11  2  0  0  0
 10 15  1  0  0  0
 11 12  1  0  0  0
 11 94  1  0  0  0
 12 13  2  0  0  0
 12 95  1  0  0  0
 13 14  1  0  0  0
 13 31  1  0  0  0
 14 15  2  0  0  0
 14 96  1  0  0  0
 15 97  1  0  0  0
 16 17  2  0  0  0
 16 21  1  0  0  0
 16 31  1  0  0  0
 17 18  1  0  0  0
 17 98  1  0  0  0
 18 19  2  0  0  0
 18 99  1  0  0  0
 19 20  1  0  0  0
 19 24  1  0  0  0
 20 21  2  0  0  0
 20100  1  0  0  0
 21 23  1  0  0  0
 22 28  1  0  0  0
 22 32  2  0  0  0
 26 27  1  0  0  0
 28101  1  0  0  0
 28102  1  0  0  0
 29103  1  0  0  0
 29104  1  0  0  0
 33 34  1  0  0  0
 33 66  1  0  0  0
 33 70  2  0  0  0
 34 36  1  0  0  0
 34 59  1  0  0  0
 34105  1  0  0  0
 35 44  2  0  0  0
 35 45  1  0  0  0
 35 68  1  0  0  0
 36 56  1  0  0  0
 36106  1  0  0  0
 37 39  1  0  0  0
 37 47  1  0  0  0
 37 66  1  0  0  0
 37107  1  0  0  0
 38 43  2  0  0  0
 38 46  1  0  0  0
 38 47  1  0  0  0
 39 64  1  0  0  0
 39 67  2  0  0  0
 40 52  1  0  0  0
 40 53  2  0  0  0
 40 58  1  0  0  0
 41108  1  0  0  0
 41109  1  0  0  0
 41110  1  0  0  0
 41 48  1  0  0  0
 42 43  1  0  0  0
 42 66  1  0  0  0
 42111  1  0  0  0
 42112  1  0  0  0
 43 44  1  0  0  0
 44113  1  0  0  0
 45 46  2  0  0  0
 45114  1  0  0  0
 46115  1  0  0  0
 47116  1  0  0  0
 47117  1  0  0  0
 48 56  1  0  0  0
 48 65  1  0  0  0
 48118  1  0  0  0
 49 50  1  0  0  0
 49 53  1  0  0  0
 49 64  1  0  0  0
 49119  1  0  0  0
 50 51  1  0  0  0
 50120  1  0  0  0
 50121  1  0  0  0
 51 52  1  0  0  0
 51122  1  0  0  0
 51123  1  0  0  0
 52124  1  0  0  0
 52125  1  0  0  0
 53 54  1  0  0  0
 54 55  2  0  0  0
 54126  1  0  0  0
 55 57  1  0  0  0
 55127  1  0  0  0
 56 69  2  0  0  0
 57 58  2  0  0  0
 57128  1  0  0  0
 58129  1  0  0  0
 59 60  1  0  0  0
 59 61  1  0  0  0
 59 62  1  0  0  0
 60130  1  0  0  0
 60131  1  0  0  0
 60132  1  0  0  0
 61133  1  0  0  0
 61134  1  0  0  0
 61135  1  0  0  0
 62136  1  0  0  0
 62137  1  0  0  0
 62138  1  0  0  0
 63 65  1  0  0  0
 63139  1  0  0  0
 63140  1  0  0  0
 63141  1  0  0  0
 64142  1  0  0  0
 65143  1  0  0  0
 68 75  1  0  0  0
 71 73  1  0  0  0
 71 74  2  0  0  0
 71144  1  0  0  0
 72 73  2  0  0  0
 72 80  1  0  0  0
 72145  1  0  0  0
 73 81  1  0  0  0
 74 79  1  0  0  0
 74 80  1  0  0  0
 75 76  2  0  0  0
 75146  1  0  0  0
 76 77  1  0  0  0
 76 84  1  0  0  0
 77 82  1  0  0  0
 77 83  2  0  0  0
 78 80  1  0  0  0
 78147  1  0  0  0
 78148  1  0  0  0
 78149  1  0  0  0
 79 82  1  0  0  0
 79150  1  0  0  0
 79151  1  0  0  0
 81152  1  0  0  0
 82153  1  0  0  0
 84154  1  0  0  0
M  ISO  4   1 100  68 101  75 101  81 100
M  END
> <chiral flag>
0

> <version>
0

> <s_m_source_file>
/data/baiqing/PycharmProjects/Reinvent-master-3.2/result/LINK_invent/BTK/process_docking_weight1_custom_product_contain_oxygen_bond_distance_aromatic_linkinvent_7_9_3/rearranged_h_0058.sdf

> <i_m_source_file_index>
85

> <r_mmod_Potential_Energy-OPLS-2005>
-151.414306640625

> <r_mmod_Stretch_Energy-OPLS-2005>
48.7439079284668

> <r_mmod_Bend_Energy-OPLS-2005>
128.365264892578

> <r_mmod_Torsional_Energy-OPLS-2005>
211.783782958984

> <r_mmod_Improper_Torsional_Energy-OPLS-2005>
4.30773878097534

> <r_mmod_Van_der_Waal_Energy-OPLS-2005>
130.203765869141

> <r_mmod_Electrostatic_Energy-OPLS-2005>
-471.870574951172

> <r_mmod_Solvation_Energy-OPLS-2005>
-229.172744750977

> <b_mmod_Minimization_Converged-OPLS-2005>
0

> <r_mmod_RMS_Derivative-OPLS-2005>
5.00475358963013

$$$$
85
                    3D
 Structure written by MMmdl.
163171  0  0  1  0            999 V2000
  -30.6211  -14.5449   20.5750 C   0  0  0  0  0  0
  -30.4419  -12.3534   19.4261 C   0  0  0  0  0  0
  -29.5073  -12.5104   18.2052 C   0  0  0  0  0  0
  -28.0272  -12.3478   18.6161 C   0  0  0  0  0  0
  -27.6545  -13.1971   19.8612 C   0  0  2  0  0  0
  -28.6929  -12.9826   20.9831 C   0  0  0  0  0  0
  -25.2558  -13.8110   20.5645 C   0  0  0  0  0  0
  -24.1809  -13.0402   20.9163 C   0  0  0  0  0  0
  -24.6359  -11.6865   20.8702 C   0  0  0  0  0  0
  -23.9021  -10.4264   21.0371 C   0  0  0  0  0  0
  -24.3590   -9.4199   21.9159 C   0  0  0  0  0  0
  -23.6283   -8.2228   22.0744 C   0  0  0  0  0  0
  -22.4260   -8.0256   21.3543 C   0  0  0  0  0  0
  -21.9881   -9.0213   20.4635 C   0  0  0  0  0  0
  -22.7199  -10.2096   20.3026 C   0  0  0  0  0  0
  -21.6837   -6.0713   22.5276 C   0  0  0  0  0  0
  -21.4011   -6.5618   23.8212 C   0  0  0  0  0  0
  -21.3674   -5.6774   24.9176 C   0  0  0  0  0  0
  -21.6044   -4.3037   24.7221 C   0  0  0  0  0  0
  -21.8830   -3.8126   23.4345 C   0  0  0  0  0  0
  -21.9199   -4.6943   22.3405 C   0  0  0  0  0  0
  -22.7848  -13.5217   21.1860 C   0  0  0  0  0  0
  -22.1661   -4.2127   21.0977 F   0  0  0  0  0  0
  -21.5638   -3.4529   25.7741 F   0  0  0  0  0  0
  -30.0150  -13.3321   20.4376 N   0  0  0  0  0  0
  -26.2966  -12.9257   20.3249 N   0  0  0  0  0  0
  -25.9267  -11.6435   20.5664 N   0  0  0  0  0  0
  -22.0481  -12.8210   22.0413 N   0  0  0  0  0  0
  -25.4250  -15.1848   20.4091 N   0  0  0  0  0  0
  -31.7772  -14.7616   20.1974 O   0  0  0  0  0  0
  -21.6634   -6.8848   21.4236 O   0  0  0  0  0  0
  -22.3540  -14.5532   20.6722 O   0  0  0  0  0  0
  -24.6216  -31.8659   23.2050 C   0  0  0  0  0  0
  -25.9086  -32.4831   23.8371 C   0  0  1  0  0  0
  -27.2193  -27.3798   20.1144 C   0  0  0  0  0  0
  -25.5960  -33.8644   24.2310 N   0  0  0  0  0  0
  -23.4125  -30.4888   21.5470 C   0  0  2  0  0  0
  -24.8549  -28.9524   20.1102 C   0  0  0  0  0  0
  -22.7448  -29.4642   22.4959 C   0  0  0  0  0  0
  -18.0262  -28.1361   22.8468 C   0  0  0  0  0  0
  -24.1483  -36.7287   23.2636 C   0  0  0  0  0  0
  -25.9489  -30.8168   21.3679 C   0  0  0  0  0  0
  -26.0209  -29.4490   20.7097 C   0  0  0  0  0  0
  -27.2095  -28.6736   20.6985 C   0  0  0  0  0  0
  -26.0387  -26.9175   19.4984 C   0  0  0  0  0  0
  -24.8632  -27.6903   19.4935 C   0  0  0  0  0  0
  -23.6213  -29.8257   20.1602 C   0  0  0  0  0  0
  -25.4118  -36.3129   24.0327 C   0  0  1  0  0  0
  -20.5864  -28.3677   23.1290 C   0  0  2  0  0  0
  -20.6751  -26.9412   22.5409 C   0  0  0  0  0  0
  -19.5729  -26.6375   21.5206 C   0  0  0  0  0  0
  -18.1904  -26.7899   22.1607 C   0  0  0  0  0  0
  -19.1518  -28.8824   23.2868 C   0  0  0  0  0  0
  -18.9452  -30.1418   23.8896 C   0  0  0  0  0  0
  -17.6456  -30.6567   24.0554 C   0  0  0  0  0  0
  -25.9055  -34.9501   23.5102 C   0  0  0  0  0  0
  -16.5341  -29.9073   23.6315 C   0  0  0  0  0  0
  -16.7250  -28.6484   23.0341 C   0  0  0  0  0  0
  -26.4475  -31.6624   25.0715 C   0  0  0  0  0  0
  -25.3701  -31.3748   26.1419 C   0  0  0  0  0  0
  -27.0319  -30.3065   24.6127 C   0  0  0  0  0  0
  -27.6056  -32.4350   25.7466 C   0  0  0  0  0  0
  -27.5565  -37.1802   24.8467 C   0  0  0  0  0  0
  -21.4161  -29.3060   22.3725 N   0  0  0  0  0  0
  -26.4288  -37.3819   23.9415 N   0  0  0  0  0  0
  -24.6801  -31.0722   22.0979 N   0  0  0  0  0  0
  -23.4206  -28.8174   23.3007 O   0  0  0  0  0  0
  -28.3518  -26.5795   20.1380 O   0  0  0  0  0  0
  -26.5599  -34.8957   22.4652 O   0  0  0  0  0  0
  -23.5394  -32.1420   23.7402 O   0  0  0  0  0  0
  -30.4639  -18.3609   23.2768 C   0  0  0  0  0  0
  -30.3571  -17.0598   22.7499 C   0  0  0  0  0  0
  -29.7786  -18.0180   20.5902 C   0  0  0  0  0  0
  -29.9065  -19.3521   21.0976 C   0  0  0  0  0  0
  -30.2557  -19.5054   22.4738 C   0  0  0  0  0  0
  -30.0205  -16.8692   21.3969 C   0  0  0  0  0  0
  -29.8339  -20.5313   20.1259 C   0  0  0  0  0  0
  -30.4550  -20.8627   23.1394 C   0  0  0  0  0  0
  -27.1904  -23.2285   19.2061 C   0  0  0  0  0  0
  -28.9096  -24.7230   18.1920 C   0  0  0  0  0  0
  -29.6279  -23.0413   19.9297 C   0  0  0  0  0  0
  -28.1809  -25.1878   20.5620 C   0  0  0  0  0  0
  -28.4706  -24.0402   19.5057 C   0  0  0  0  0  0
  -29.7654  -15.5378   20.9291 N   0  0  0  0  0  0
  -29.2893  -21.7126   20.5204 N   0  0  0  0  0  0
  -30.3158  -20.3878   19.0016 O   0  0  0  0  0  0
  -31.4845  -12.4939   19.1339 H   0  0  0  0  0  0
  -30.3788  -11.3404   19.8284 H   0  0  0  0  0  0
  -29.7658  -11.7744   17.4429 H   0  0  0  0  0  0
  -29.6574  -13.4878   17.7455 H   0  0  0  0  0  0
  -27.8663  -11.2914   18.8305 H   0  0  0  0  0  0
  -27.3698  -12.5862   17.7792 H   0  0  0  0  0  0
  -27.6888  -14.2404   19.5505 H   0  0  0  0  0  0
  -28.6841  -11.9393   21.3020 H   0  0  0  0  0  0
  -28.4428  -13.5581   21.8753 H   0  0  0  0  0  0
  -25.2733   -9.5688   22.4738 H   0  0  0  0  0  0
  -23.9996   -7.4613   22.7459 H   0  0  0  0  0  0
  -21.0815   -8.8713   19.8945 H   0  0  0  0  0  0
  -22.3642  -10.9625   19.6132 H   0  0  0  0  0  0
  -21.1989   -7.6121   23.9716 H   0  0  0  0  0  0
  -21.1497   -6.0493   25.9078 H   0  0  0  0  0  0
  -22.0604   -2.7585   23.2847 H   0  0  0  0  0  0
  -22.4080  -11.9883   22.4829 H   0  0  0  0  0  0
  -21.1095  -13.1236   22.2587 H   0  0  0  0  0  0
  -24.6506  -15.8305   20.5179 H   0  0  0  0  0  0
  -26.2671  -15.6352   20.0740 H   0  0  0  0  0  0
  -26.7173  -32.5492   23.1148 H   0  0  0  0  0  0
  -25.0233  -33.9840   25.0535 H   0  0  0  0  0  0
  -22.7057  -31.3097   21.4089 H   0  0  0  0  0  0
  -23.3782  -35.9586   23.3336 H   0  0  0  0  0  0
  -24.3536  -36.8854   22.2036 H   0  0  0  0  0  0
  -23.7187  -37.6481   23.6618 H   0  0  0  0  0  0
  -26.0780  -31.5848   20.6049 H   0  0  0  0  0  0
  -26.8328  -30.8577   21.9932 H   0  0  0  0  0  0
  -28.1086  -29.0513   21.1637 H   0  0  0  0  0  0
  -26.0187  -25.9527   19.0181 H   0  0  0  0  0  0
  -23.9741  -27.3030   19.0162 H   0  0  0  0  0  0
  -23.7399  -30.6041   19.4061 H   0  0  0  0  0  0
  -22.7446  -29.2526   19.8556 H   0  0  0  0  0  0
  -25.1304  -36.1992   25.0819 H   0  0  0  0  0  0
  -20.9911  -28.3225   24.1427 H   0  0  0  0  0  0
  -20.5650  -26.2293   23.3601 H   0  0  0  0  0  0
  -21.6621  -26.7444   22.1221 H   0  0  0  0  0  0
  -19.6911  -25.6293   21.1218 H   0  0  0  0  0  0
  -19.6653  -27.3198   20.6746 H   0  0  0  0  0  0
  -17.4185  -26.6636   21.4003 H   0  0  0  0  0  0
  -18.0304  -26.0032   22.8993 H   0  0  0  0  0  0
  -19.7941  -30.7206   24.2287 H   0  0  0  0  0  0
  -17.5023  -31.6251   24.5162 H   0  0  0  0  0  0
  -15.5343  -30.2993   23.7627 H   0  0  0  0  0  0
  -15.8632  -28.0805   22.7074 H   0  0  0  0  0  0
  -24.5894  -30.7099   25.7698 H   0  0  0  0  0  0
  -24.8879  -32.2909   26.4843 H   0  0  0  0  0  0
  -25.7990  -30.8893   27.0188 H   0  0  0  0  0  0
  -26.2871  -29.6823   24.1164 H   0  0  0  0  0  0
  -27.4067  -29.7309   25.4600 H   0  0  0  0  0  0
  -27.8723  -30.4410   23.9311 H   0  0  0  0  0  0
  -27.2703  -33.3674   26.2029 H   0  0  0  0  0  0
  -28.3835  -32.6869   25.0243 H   0  0  0  0  0  0
  -28.0749  -31.8471   26.5364 H   0  0  0  0  0  0
  -28.2633  -38.0061   24.7524 H   0  0  0  0  0  0
  -28.1013  -36.2598   24.6309 H   0  0  0  0  0  0
  -27.2258  -37.1447   25.8862 H   0  0  0  0  0  0
  -20.9319  -29.8846   21.7002 H   0  0  0  0  0  0
  -26.0180  -38.2897   24.1436 H   0  0  0  0  0  0
  -30.7255  -18.4756   24.3201 H   0  0  0  0  0  0
  -30.5162  -16.2116   23.4011 H   0  0  0  0  0  0
  -29.4998  -17.8808   19.5555 H   0  0  0  0  0  0
  -30.9108  -20.7674   24.1259 H   0  0  0  0  0  0
  -29.4969  -21.3630   23.2802 H   0  0  0  0  0  0
  -31.1086  -21.5108   22.5541 H   0  0  0  0  0  0
  -27.3963  -22.4242   18.4974 H   0  0  0  0  0  0
  -26.4037  -23.8410   18.7689 H   0  0  0  0  0  0
  -26.7794  -22.7720   20.1062 H   0  0  0  0  0  0
  -29.0495  -24.0002   17.3873 H   0  0  0  0  0  0
  -29.8550  -25.2510   18.3229 H   0  0  0  0  0  0
  -28.1735  -25.4507   17.8480 H   0  0  0  0  0  0
  -30.2973  -23.5353   20.6338 H   0  0  0  0  0  0
  -30.2569  -22.8640   19.0556 H   0  0  0  0  0  0
  -28.8455  -25.0569   21.4153 H   0  0  0  0  0  0
  -27.1911  -25.0416   20.9984 H   0  0  0  0  0  0
  -28.8191  -15.2162   21.0592 H   0  0  0  0  0  0
  -28.8283  -21.7135   21.4172 H   0  0  0  0  0  0
  1 25  1  0  0  0
  1 30  2  0  0  0
  1 84  1  0  0  0
  2  3  1  0  0  0
  2 25  1  0  0  0
  2 87  1  0  0  0
  2 88  1  0  0  0
  3  4  1  0  0  0
  3 89  1  0  0  0
  3 90  1  0  0  0
  4  5  1  0  0  0
  4 91  1  0  0  0
  4 92  1  0  0  0
  5  6  1  0  0  0
  5 26  1  0  0  0
  5 93  1  0  0  0
  6 25  1  0  0  0
  6 94  1  0  0  0
  6 95  1  0  0  0
  7  8  2  0  0  0
  7 26  1  0  0  0
  7 29  1  0  0  0
  8  9  1  0  0  0
  8 22  1  0  0  0
  9 10  1  0  0  0
  9 27  2  0  0  0
 10 11  2  0  0  0
 10 15  1  0  0  0
 11 12  1  0  0  0
 11 96  1  0  0  0
 12 13  2  0  0  0
 12 97  1  0  0  0
 13 14  1  0  0  0
 13 31  1  0  0  0
 14 15  2  0  0  0
 14 98  1  0  0  0
 15 99  1  0  0  0
 16 17  2  0  0  0
 16 21  1  0  0  0
 16 31  1  0  0  0
 17 18  1  0  0  0
 17100  1  0  0  0
 18 19  2  0  0  0
 18101  1  0  0  0
 19 20  1  0  0  0
 19 24  1  0  0  0
 20 21  2  0  0  0
 20102  1  0  0  0
 21 23  1  0  0  0
 22 28  1  0  0  0
 22 32  2  0  0  0
 26 27  1  0  0  0
 28103  1  0  0  0
 28104  1  0  0  0
 29105  1  0  0  0
 29106  1  0  0  0
 33 34  1  0  0  0
 33 66  1  0  0  0
 33 70  2  0  0  0
 34 36  1  0  0  0
 34 59  1  0  0  0
 34107  1  0  0  0
 35 44  2  0  0  0
 35 45  1  0  0  0
 35 68  1  0  0  0
 36 56  1  0  0  0
 36108  1  0  0  0
 37 39  1  0  0  0
 37 47  1  0  0  0
 37 66  1  0  0  0
 37109  1  0  0  0
 38 43  2  0  0  0
 38 46  1  0  0  0
 38 47  1  0  0  0
 39 64  1  0  0  0
 39 67  2  0  0  0
 40 52  1  0  0  0
 40 53  2  0  0  0
 40 58  1  0  0  0
 41110  1  0  0  0
 41111  1  0  0  0
 41112  1  0  0  0
 41 48  1  0  0  0
 42 43  1  0  0  0
 42 66  1  0  0  0
 42113  1  0  0  0
 42114  1  0  0  0
 43 44  1  0  0  0
 44115  1  0  0  0
 45 46  2  0  0  0
 45116  1  0  0  0
 46117  1  0  0  0
 47118  1  0  0  0
 47119  1  0  0  0
 48 56  1  0  0  0
 48 65  1  0  0  0
 48120  1  0  0  0
 49 50  1  0  0  0
 49 53  1  0  0  0
 49 64  1  0  0  0
 49121  1  0  0  0
 50 51  1  0  0  0
 50122  1  0  0  0
 50123  1  0  0  0
 51 52  1  0  0  0
 51124  1  0  0  0
 51125  1  0  0  0
 52126  1  0  0  0
 52127  1  0  0  0
 53 54  1  0  0  0
 54 55  2  0  0  0
 54128  1  0  0  0
 55 57  1  0  0  0
 55129  1  0  0  0
 56 69  2  0  0  0
 57 58  2  0  0  0
 57130  1  0  0  0
 58131  1  0  0  0
 59 60  1  0  0  0
 59 61  1  0  0  0
 59 62  1  0  0  0
 60132  1  0  0  0
 60133  1  0  0  0
 60134  1  0  0  0
 61135  1  0  0  0
 61136  1  0  0  0
 61137  1  0  0  0
 62138  1  0  0  0
 62139  1  0  0  0
 62140  1  0  0  0
 63 65  1  0  0  0
 63141  1  0  0  0
 63142  1  0  0  0
 63143  1  0  0  0
 64144  1  0  0  0
 65145  1  0  0  0
 68 82  1  0  0  0
 71 72  2  0  0  0
 71 75  1  0  0  0
 71146  1  0  0  0
 72 76  1  0  0  0
 72147  1  0  0  0
 73 74  1  0  0  0
 73 76  2  0  0  0
 73148  1  0  0  0
 74 75  2  0  0  0
 74 77  1  0  0  0
 75 78  1  0  0  0
 76 84  1  0  0  0
 77 85  1  0  0  0
 77 86  2  0  0  0
 78149  1  0  0  0
 78150  1  0  0  0
 78151  1  0  0  0
 79152  1  0  0  0
 79153  1  0  0  0
 79154  1  0  0  0
 79 83  1  0  0  0
 80 83  1  0  0  0
 80155  1  0  0  0
 80156  1  0  0  0
 80157  1  0  0  0
 81 83  1  0  0  0
 81 85  1  0  0  0
 81158  1  0  0  0
 81159  1  0  0  0
 82 83  1  0  0  0
 82160  1  0  0  0
 82161  1  0  0  0
 84162  1  0  0  0
 85163  1  0  0  0
M  ISO  4   1 100  68 101  82 101  84 100
M  END
> <chiral flag>
0

> <version>
0

> <s_m_source_file>
/data/baiqing/PycharmProjects/Reinvent-master-3.2/result/LINK_invent/BTK/process_docking_weight1_custom_product_contain_oxygen_bond_distance_aromatic_linkinvent_7_9_3/rearranged_h_0058.sdf

> <i_m_source_file_index>
86

> <r_mmod_Potential_Energy-OPLS-2005>
24.2681560516357

> <r_mmod_Stretch_Energy-OPLS-2005>
58.2210235595703

> <r_mmod_Bend_Energy-OPLS-2005>
123.826934814453

> <r_mmod_Torsional_Energy-OPLS-2005>
310.17724609375

> <r_mmod_Improper_Torsional_Energy-OPLS-2005>
8.08870220184326

> <r_mmod_Van_der_Waal_Energy-OPLS-2005>
159.053298950195

> <r_mmod_Electrostatic_Energy-OPLS-2005>
-435.869689941406

> <r_mmod_Solvation_Energy-OPLS-2005>
-226.354827880859

> <b_mmod_Minimization_Converged-OPLS-2005>
0

> <r_mmod_RMS_Derivative-OPLS-2005>
3.25488829612732

$$$$
86
                    3D
 Structure written by MMmdl.
167175  0  0  1  0            999 V2000
  -30.6153  -14.7588   20.4652 C   0  0  0  0  0  0
  -30.4295  -12.4660   19.4771 C   0  0  0  0  0  0
  -29.5078  -12.5030   18.2384 C   0  0  0  0  0  0
  -28.0356  -12.3223   18.6550 C   0  0  0  0  0  0
  -27.6378  -13.2321   19.8480 C   0  0  2  0  0  0
  -28.6826  -13.1828   20.9843 C   0  0  0  0  0  0
  -25.2484  -13.8198   20.5693 C   0  0  0  0  0  0
  -24.1782  -13.0436   20.9210 C   0  0  0  0  0  0
  -24.6379  -11.6916   20.8756 C   0  0  0  0  0  0
  -23.9061  -10.4288   21.0413 C   0  0  0  0  0  0
  -24.3614   -9.4202   21.9189 C   0  0  0  0  0  0
  -23.6285   -8.2241   22.0761 C   0  0  0  0  0  0
  -22.4272   -8.0279   21.3545 C   0  0  0  0  0  0
  -21.9907   -9.0252   20.4651 C   0  0  0  0  0  0
  -22.7235  -10.2128   20.3060 C   0  0  0  0  0  0
  -21.6852   -6.0735   22.5273 C   0  0  0  0  0  0
  -21.4017   -6.5639   23.8208 C   0  0  0  0  0  0
  -21.3657   -5.6791   24.9170 C   0  0  0  0  0  0
  -21.6044   -4.3057   24.7218 C   0  0  0  0  0  0
  -21.8819   -3.8144   23.4343 C   0  0  0  0  0  0
  -21.9192   -4.6962   22.3399 C   0  0  0  0  0  0
  -22.7801  -13.5215   21.1858 C   0  0  0  0  0  0
  -22.1658   -4.2144   21.0976 F   0  0  0  0  0  0
  -21.5627   -3.4540   25.7734 F   0  0  0  0  0  0
  -29.9802  -13.5366   20.3988 N   0  0  0  0  0  0
  -26.2910  -12.9406   20.3281 N   0  0  0  0  0  0
  -25.9308  -11.6551   20.5767 N   0  0  0  0  0  0
  -22.0457  -12.8207   22.0424 N   0  0  0  0  0  0
  -25.4171  -15.1927   20.4100 N   0  0  0  0  0  0
  -31.8067  -14.8205   20.1496 O   0  0  0  0  0  0
  -21.6641   -6.8874   21.4235 O   0  0  0  0  0  0
  -22.3481  -14.5521   20.6705 O   0  0  0  0  0  0
  -24.6313  -31.8516   23.1981 C   0  0  0  0  0  0
  -25.9136  -32.4741   23.8328 C   0  0  1  0  0  0
  -27.2211  -27.2591   20.1260 C   0  0  0  0  0  0
  -25.5929  -33.8547   24.2256 N   0  0  0  0  0  0
  -23.4281  -30.4772   21.5388 C   0  0  2  0  0  0
  -24.8747  -28.9239   20.1046 C   0  0  0  0  0  0
  -22.7493  -29.4593   22.4870 C   0  0  0  0  0  0
  -18.0294  -28.1393   22.8468 C   0  0  0  0  0  0
  -24.1492  -36.7281   23.2646 C   0  0  0  0  0  0
  -25.9735  -30.7656   21.3778 C   0  0  0  0  0  0
  -26.0439  -29.3892   20.7179 C   0  0  0  0  0  0
  -27.2145  -28.5671   20.7194 C   0  0  0  0  0  0
  -26.0231  -26.8526   19.4965 C   0  0  0  0  0  0
  -24.8698  -27.6639   19.4861 C   0  0  0  0  0  0
  -23.6467  -29.8124   20.1533 C   0  0  0  0  0  0
  -25.4117  -36.3062   24.0320 C   0  0  1  0  0  0
  -20.5893  -28.3707   23.1242 C   0  0  2  0  0  0
  -20.6773  -26.9416   22.5407 C   0  0  0  0  0  0
  -19.5756  -26.6382   21.5207 C   0  0  0  0  0  0
  -18.1932  -26.7937   22.1609 C   0  0  0  0  0  0
  -19.1545  -28.8863   23.2858 C   0  0  0  0  0  0
  -18.9475  -30.1458   23.8890 C   0  0  0  0  0  0
  -17.6473  -30.6592   24.0562 C   0  0  0  0  0  0
  -25.9052  -34.9431   23.5085 C   0  0  0  0  0  0
  -16.5361  -29.9089   23.6332 C   0  0  0  0  0  0
  -16.7278  -28.6506   23.0347 C   0  0  0  0  0  0
  -26.4518  -31.6577   25.0719 C   0  0  0  0  0  0
  -25.3747  -31.3727   26.1443 C   0  0  0  0  0  0
  -27.0393  -30.2995   24.6230 C   0  0  0  0  0  0
  -27.6074  -32.4338   25.7488 C   0  0  0  0  0  0
  -27.5577  -37.1786   24.8457 C   0  0  0  0  0  0
  -21.4198  -29.3051   22.3618 N   0  0  0  0  0  0
  -26.4285  -37.3764   23.9410 N   0  0  0  0  0  0
  -24.6965  -31.0489   22.0955 N   0  0  0  0  0  0
  -23.4189  -28.8128   23.2968 O   0  0  0  0  0  0
  -28.3348  -26.3926   20.2218 O   0  0  0  0  0  0
  -26.5633  -34.8901   22.4665 O   0  0  0  0  0  0
  -23.5460  -32.1326   23.7279 O   0  0  0  0  0  0
  -29.2902  -18.4835   20.5920 C   0  0  0  0  0  0
  -31.5658  -17.7348   20.9067 C   0  0  0  0  0  0
  -29.6661  -19.8974   20.6767 C   0  0  0  0  0  0
  -31.0483  -20.1548   20.9176 C   0  0  0  0  0  0
  -30.2198  -17.3628   20.6993 C   0  0  0  0  0  0
  -31.9708  -19.0820   21.0047 C   0  0  0  0  0  0
  -31.5849  -21.5141   21.1236 C   0  0  0  0  0  0
  -28.9075  -22.4785   20.0256 C   0  0  0  0  0  0
  -32.1058  -21.9452   22.2855 C   0  0  0  0  0  0
  -28.2397  -23.6752   20.2727 C   0  0  0  0  0  0
  -28.6285  -21.0794   20.6317 C   0  0  0  0  0  0
  -32.6858  -23.3245   22.5026 C   0  0  0  0  0  0
  -34.8244  -20.5528   19.8450 C   0  0  0  0  0  0
  -35.1681  -18.1000   20.4237 C   0  0  0  0  0  0
  -28.4446  -25.0675   19.5261 C   0  0  0  0  0  0
  -34.1504  -19.2008   20.1101 C   0  0  0  0  0  0
  -29.8484  -15.9114   20.6570 N   0  0  0  0  0  0
  -27.4988  -20.8630   21.0798 O   0  0  0  0  0  0
  -33.2964  -19.3542   21.2378 O   0  0  0  0  0  0
  -31.4696  -12.5869   19.1723 H   0  0  0  0  0  0
  -30.3759  -11.4943   19.9707 H   0  0  0  0  0  0
  -29.7940  -11.7238   17.5307 H   0  0  0  0  0  0
  -29.6272  -13.4533   17.7152 H   0  0  0  0  0  0
  -27.9006  -11.2753   18.9304 H   0  0  0  0  0  0
  -27.3743  -12.4993   17.8059 H   0  0  0  0  0  0
  -27.6269  -14.2497   19.4562 H   0  0  0  0  0  0
  -28.7224  -12.1888   21.4334 H   0  0  0  0  0  0
  -28.4139  -13.8716   21.7866 H   0  0  0  0  0  0
  -25.2764   -9.5679   22.4759 H   0  0  0  0  0  0
  -23.9993   -7.4636   22.7486 H   0  0  0  0  0  0
  -21.0839   -8.8769   19.8956 H   0  0  0  0  0  0
  -22.3699  -10.9665   19.6166 H   0  0  0  0  0  0
  -21.2017   -7.6148   23.9705 H   0  0  0  0  0  0
  -21.1476   -6.0527   25.9069 H   0  0  0  0  0  0
  -22.0604   -2.7606   23.2843 H   0  0  0  0  0  0
  -22.4085  -11.9862   22.4797 H   0  0  0  0  0  0
  -21.1077  -13.1228   22.2651 H   0  0  0  0  0  0
  -24.6466  -15.8440   20.5157 H   0  0  0  0  0  0
  -26.2580  -15.6319   20.0586 H   0  0  0  0  0  0
  -26.7174  -32.5380   23.1047 H   0  0  0  0  0  0
  -25.0076  -33.9689   25.0400 H   0  0  0  0  0  0
  -22.7274  -31.3014   21.3915 H   0  0  0  0  0  0
  -23.3756  -35.9609   23.3293 H   0  0  0  0  0  0
  -24.3585  -36.8927   22.2064 H   0  0  0  0  0  0
  -23.7236  -37.6469   23.6688 H   0  0  0  0  0  0
  -26.1150  -31.5286   20.6110 H   0  0  0  0  0  0
  -26.8503  -30.8091   22.0115 H   0  0  0  0  0  0
  -28.1083  -28.9168   21.2161 H   0  0  0  0  0  0
  -25.9320  -25.8773   19.0432 H   0  0  0  0  0  0
  -23.9691  -27.2998   19.0122 H   0  0  0  0  0  0
  -23.7726  -30.5905   19.3996 H   0  0  0  0  0  0
  -22.7652  -29.2479   19.8444 H   0  0  0  0  0  0
  -25.1299  -36.1901   25.0806 H   0  0  0  0  0  0
  -20.9992  -28.3305   24.1359 H   0  0  0  0  0  0
  -20.5670  -26.2324   23.3623 H   0  0  0  0  0  0
  -21.6638  -26.7433   22.1202 H   0  0  0  0  0  0
  -19.6929  -25.6296   21.1233 H   0  0  0  0  0  0
  -19.6708  -27.3190   20.6735 H   0  0  0  0  0  0
  -17.4208  -26.6683   21.4006 H   0  0  0  0  0  0
  -18.0331  -26.0086   22.9012 H   0  0  0  0  0  0
  -19.7958  -30.7260   24.2264 H   0  0  0  0  0  0
  -17.5039  -31.6273   24.5170 H   0  0  0  0  0  0
  -15.5363  -30.2995   23.7674 H   0  0  0  0  0  0
  -15.8672  -28.0826   22.7076 H   0  0  0  0  0  0
  -24.5918  -30.7084   25.7761 H   0  0  0  0  0  0
  -24.8956  -32.2906   26.4862 H   0  0  0  0  0  0
  -25.8061  -30.8897   27.0222 H   0  0  0  0  0  0
  -26.2981  -29.6705   24.1283 H   0  0  0  0  0  0
  -27.4105  -29.7295   25.4762 H   0  0  0  0  0  0
  -27.8843  -30.4280   23.9460 H   0  0  0  0  0  0
  -27.2677  -33.3653   26.2032 H   0  0  0  0  0  0
  -28.3895  -32.6876   25.0320 H   0  0  0  0  0  0
  -28.0728  -31.8488   26.5433 H   0  0  0  0  0  0
  -28.2573  -38.0106   24.7515 H   0  0  0  0  0  0
  -28.1096  -36.2632   24.6265 H   0  0  0  0  0  0
  -27.2293  -37.1387   25.8860 H   0  0  0  0  0  0
  -20.9381  -29.8792   21.6834 H   0  0  0  0  0  0
  -26.0162  -38.2829   24.1447 H   0  0  0  0  0  0
  -28.2404  -18.2623   20.4518 H   0  0  0  0  0  0
  -32.3314  -16.9865   21.0336 H   0  0  0  0  0  0
  -31.5859  -22.1770   20.2714 H   0  0  0  0  0  0
  -29.6948  -22.5014   19.2899 H   0  0  0  0  0  0
  -32.1323  -21.2774   23.1362 H   0  0  0  0  0  0
  -27.4493  -23.6715   21.0090 H   0  0  0  0  0  0
  -32.5277  -23.9661   21.6351 H   0  0  0  0  0  0
  -33.7587  -23.2539   22.6868 H   0  0  0  0  0  0
  -32.2200  -23.7977   23.3676 H   0  0  0  0  0  0
  -35.5354  -20.4815   19.0214 H   0  0  0  0  0  0
  -35.3642  -20.9048   20.7247 H   0  0  0  0  0  0
  -34.0893  -21.3132   19.5789 H   0  0  0  0  0  0
  -35.8930  -17.9969   19.6159 H   0  0  0  0  0  0
  -34.6770  -17.1354   20.5509 H   0  0  0  0  0  0
  -35.7158  -18.3211   21.3398 H   0  0  0  0  0  0
  -27.8255  -25.0552   18.6315 H   0  0  0  0  0  0
  -29.4610  -25.0391   19.1316 H   0  0  0  0  0  0
  -33.5897  -18.9166   19.2161 H   0  0  0  0  0  0
  -28.8636  -15.7204   20.7605 H   0  0  0  0  0  0
  1 25  1  0  0  0
  1 30  2  0  0  0
  1 87  1  0  0  0
  2  3  1  0  0  0
  2 25  1  0  0  0
  2 90  1  0  0  0
  2 91  1  0  0  0
  3  4  1  0  0  0
  3 92  1  0  0  0
  3 93  1  0  0  0
  4  5  1  0  0  0
  4 94  1  0  0  0
  4 95  1  0  0  0
  5  6  1  0  0  0
  5 26  1  0  0  0
  5 96  1  0  0  0
  6 25  1  0  0  0
  6 97  1  0  0  0
  6 98  1  0  0  0
  7  8  2  0  0  0
  7 26  1  0  0  0
  7 29  1  0  0  0
  8  9  1  0  0  0
  8 22  1  0  0  0
  9 10  1  0  0  0
  9 27  2  0  0  0
 10 11  2  0  0  0
 10 15  1  0  0  0
 11 12  1  0  0  0
 11 99  1  0  0  0
 12 13  2  0  0  0
 12100  1  0  0  0
 13 14  1  0  0  0
 13 31  1  0  0  0
 14 15  2  0  0  0
 14101  1  0  0  0
 15102  1  0  0  0
 16 17  2  0  0  0
 16 21  1  0  0  0
 16 31  1  0  0  0
 17 18  1  0  0  0
 17103  1  0  0  0
 18 19  2  0  0  0
 18104  1  0  0  0
 19 20  1  0  0  0
 19 24  1  0  0  0
 20 21  2  0  0  0
 20105  1  0  0  0
 21 23  1  0  0  0
 22 28  1  0  0  0
 22 32  2  0  0  0
 26 27  1  0  0  0
 28106  1  0  0  0
 28107  1  0  0  0
 29108  1  0  0  0
 29109  1  0  0  0
 33 34  1  0  0  0
 33 66  1  0  0  0
 33 70  2  0  0  0
 34 36  1  0  0  0
 34 59  1  0  0  0
 34110  1  0  0  0
 35 44  2  0  0  0
 35 45  1  0  0  0
 35 68  1  0  0  0
 36 56  1  0  0  0
 36111  1  0  0  0
 37 39  1  0  0  0
 37 47  1  0  0  0
 37 66  1  0  0  0
 37112  1  0  0  0
 38 43  2  0  0  0
 38 46  1  0  0  0
 38 47  1  0  0  0
 39 64  1  0  0  0
 39 67  2  0  0  0
 40 52  1  0  0  0
 40 53  2  0  0  0
 40 58  1  0  0  0
 41113  1  0  0  0
 41114  1  0  0  0
 41115  1  0  0  0
 41 48  1  0  0  0
 42 43  1  0  0  0
 42 66  1  0  0  0
 42116  1  0  0  0
 42117  1  0  0  0
 43 44  1  0  0  0
 44118  1  0  0  0
 45 46  2  0  0  0
 45119  1  0  0  0
 46120  1  0  0  0
 47121  1  0  0  0
 47122  1  0  0  0
 48 56  1  0  0  0
 48 65  1  0  0  0
 48123  1  0  0  0
 49 50  1  0  0  0
 49 53  1  0  0  0
 49 64  1  0  0  0
 49124  1  0  0  0
 50 51  1  0  0  0
 50125  1  0  0  0
 50126  1  0  0  0
 51 52  1  0  0  0
 51127  1  0  0  0
 51128  1  0  0  0
 52129  1  0  0  0
 52130  1  0  0  0
 53 54  1  0  0  0
 54 55  2  0  0  0
 54131  1  0  0  0
 55 57  1  0  0  0
 55132  1  0  0  0
 56 69  2  0  0  0
 57 58  2  0  0  0
 57133  1  0  0  0
 58134  1  0  0  0
 59 60  1  0  0  0
 59 61  1  0  0  0
 59 62  1  0  0  0
 60135  1  0  0  0
 60136  1  0  0  0
 60137  1  0  0  0
 61138  1  0  0  0
 61139  1  0  0  0
 61140  1  0  0  0
 62141  1  0  0  0
 62142  1  0  0  0
 62143  1  0  0  0
 63 65  1  0  0  0
 63144  1  0  0  0
 63145  1  0  0  0
 63146  1  0  0  0
 64147  1  0  0  0
 65148  1  0  0  0
 68 85  1  0  0  0
 71 73  2  0  0  0
 71 75  1  0  0  0
 71149  1  0  0  0
 72 75  2  0  0  0
 72 76  1  0  0  0
 72150  1  0  0  0
 73 74  1  0  0  0
 73 81  1  0  0  0
 74 76  2  0  0  0
 74 77  1  0  0  0
 75 87  1  0  0  0
 76 89  1  0  0  0
 77 79  2  0  0  0
 77151  1  0  0  0
 78 80  2  0  0  0
 78 81  1  0  0  0
 78152  1  0  0  0
 79 82  1  0  0  0
 79153  1  0  0  0
 80 85  1  0  0  0
 80154  1  0  0  0
 81 88  2  0  0  0
 82155  1  0  0  0
 82156  1  0  0  0
 82157  1  0  0  0
 83158  1  0  0  0
 83159  1  0  0  0
 83160  1  0  0  0
 83 86  1  0  0  0
 84 86  1  0  0  0
 84161  1  0  0  0
 84162  1  0  0  0
 84163  1  0  0  0
 85164  1  0  0  0
 85165  1  0  0  0
 86 89  1  0  0  0
 86166  1  0  0  0
 87167  1  0  0  0
M  ISO  4   1 100  68 101  85 101  87 100
M  END
> <chiral flag>
0

> <version>
0

> <s_m_source_file>
/data/baiqing/PycharmProjects/Reinvent-master-3.2/result/LINK_invent/BTK/process_docking_weight1_custom_product_contain_oxygen_bond_distance_aromatic_linkinvent_7_9_3/rearranged_h_0058.sdf

> <i_m_source_file_index>
87

> <r_mmod_Potential_Energy-OPLS-2005>
208.551132202148

> <r_mmod_Stretch_Energy-OPLS-2005>
133.948547363281

> <r_mmod_Bend_Energy-OPLS-2005>
174.230255126953

> <r_mmod_Torsional_Energy-OPLS-2005>
273.690856933594

> <r_mmod_Improper_Torsional_Energy-OPLS-2005>
6.71980953216553

> <r_mmod_Van_der_Waal_Energy-OPLS-2005>
144.533386230469

> <r_mmod_Electrostatic_Energy-OPLS-2005>
-398.426605224609

> <r_mmod_Solvation_Energy-OPLS-2005>
-214.689178466797

> <b_mmod_Minimization_Converged-OPLS-2005>
0

> <r_mmod_RMS_Derivative-OPLS-2005>
1.63298964500427

$$$$
87
                    3D
 Structure written by MMmdl.
156164  0  0  1  0            999 V2000
  -30.7098  -14.4642   20.5695 C   0  0  0  0  0  0
  -30.4321  -12.3088   19.4075 C   0  0  0  0  0  0
  -29.4785  -12.4754   18.2070 C   0  0  0  0  0  0
  -28.0180  -12.2910   18.6564 C   0  0  0  0  0  0
  -27.6612  -13.1604   19.8869 C   0  0  2  0  0  0
  -28.7152  -12.9773   21.0041 C   0  0  0  0  0  0
  -25.2680  -13.8027   20.5828 C   0  0  0  0  0  0
  -24.1863  -13.0372   20.9242 C   0  0  0  0  0  0
  -24.6363  -11.6828   20.8857 C   0  0  0  0  0  0
  -23.9025  -10.4241   21.0531 C   0  0  0  0  0  0
  -24.3590   -9.4122   21.9270 C   0  0  0  0  0  0
  -23.6247   -8.2167   22.0776 C   0  0  0  0  0  0
  -22.4234   -8.0248   21.3556 C   0  0  0  0  0  0
  -21.9884   -9.0246   20.4686 C   0  0  0  0  0  0
  -22.7224  -10.2118   20.3142 C   0  0  0  0  0  0
  -21.6801   -6.0721   22.5286 C   0  0  0  0  0  0
  -21.3981   -6.5630   23.8220 C   0  0  0  0  0  0
  -21.3654   -5.6785   24.9191 C   0  0  0  0  0  0
  -21.6041   -4.3050   24.7232 C   0  0  0  0  0  0
  -21.8813   -3.8138   23.4359 C   0  0  0  0  0  0
  -21.9183   -4.6957   22.3411 C   0  0  0  0  0  0
  -22.7896  -13.5233   21.1837 C   0  0  0  0  0  0
  -22.1670   -4.2158   21.0983 F   0  0  0  0  0  0
  -21.5619   -3.4523   25.7741 F   0  0  0  0  0  0
  -30.0446  -13.2830   20.4404 N   0  0  0  0  0  0
  -26.3041  -12.9090   20.3526 N   0  0  0  0  0  0
  -25.9270  -11.6315   20.5926 N   0  0  0  0  0  0
  -22.0470  -12.8300   22.0409 N   0  0  0  0  0  0
  -25.4555  -15.1757   20.4396 N   0  0  0  0  0  0
  -31.8251  -14.6699   20.0789 O   0  0  0  0  0  0
  -21.6586   -6.8863   21.4250 O   0  0  0  0  0  0
  -22.3647  -14.5540   20.6652 O   0  0  0  0  0  0
  -24.6079  -31.8662   23.2123 C   0  0  0  0  0  0
  -25.8988  -32.4815   23.8394 C   0  0  1  0  0  0
  -27.2540  -27.4625   20.1114 C   0  0  0  0  0  0
  -25.5833  -33.8608   24.2301 N   0  0  0  0  0  0
  -23.3976  -30.4858   21.5493 C   0  0  2  0  0  0
  -24.8484  -28.9476   20.1222 C   0  0  0  0  0  0
  -22.7376  -29.4632   22.5001 C   0  0  0  0  0  0
  -18.0258  -28.1387   22.8468 C   0  0  0  0  0  0
  -24.1450  -36.7283   23.2638 C   0  0  0  0  0  0
  -25.9223  -30.8400   21.3638 C   0  0  0  0  0  0
  -26.0043  -29.4772   20.7107 C   0  0  0  0  0  0
  -27.2077  -28.7431   20.6975 C   0  0  0  0  0  0
  -26.0798  -26.9304   19.5309 C   0  0  0  0  0  0
  -24.8797  -27.6697   19.5324 C   0  0  0  0  0  0
  -23.6056  -29.8079   20.1670 C   0  0  0  0  0  0
  -25.4073  -36.3083   24.0333 C   0  0  1  0  0  0
  -20.5843  -28.3644   23.1316 C   0  0  2  0  0  0
  -20.6746  -26.9376   22.5421 C   0  0  0  0  0  0
  -19.5731  -26.6370   21.5212 C   0  0  0  0  0  0
  -18.1909  -26.7924   22.1621 C   0  0  0  0  0  0
  -19.1508  -28.8839   23.2884 C   0  0  0  0  0  0
  -18.9454  -30.1459   23.8872 C   0  0  0  0  0  0
  -17.6461  -30.6593   24.0574 C   0  0  0  0  0  0
  -25.9013  -34.9468   23.5126 C   0  0  0  0  0  0
  -16.5346  -29.9090   23.6360 C   0  0  0  0  0  0
  -16.7252  -28.6519   23.0349 C   0  0  0  0  0  0
  -26.4411  -31.6621   25.0738 C   0  0  0  0  0  0
  -25.3698  -31.3785   26.1527 C   0  0  0  0  0  0
  -27.0207  -30.3032   24.6165 C   0  0  0  0  0  0
  -27.5990  -32.4349   25.7479 C   0  0  0  0  0  0
  -27.5556  -37.1771   24.8446 C   0  0  0  0  0  0
  -21.4118  -29.2991   22.3701 N   0  0  0  0  0  0
  -26.4232  -37.3793   23.9443 N   0  0  0  0  0  0
  -24.6594  -31.0785   22.1000 N   0  0  0  0  0  0
  -23.4147  -28.8202   23.3068 O   0  0  0  0  0  0
  -28.4505  -26.7813   20.1109 O   0  0  0  0  0  0
  -26.5618  -34.8927   22.4710 O   0  0  0  0  0  0
  -23.5288  -32.1385   23.7549 O   0  0  0  0  0  0
  -30.2742  -23.8561   21.0213 C   0  0  0  0  0  0
  -29.2311  -19.2432   19.4482 C   0  0  0  0  0  0
  -28.8947  -16.8465   19.5414 C   0  0  0  0  0  0
  -30.4714  -17.8997   21.0795 C   0  0  0  0  0  0
  -28.5891  -18.0892   18.9727 C   0  0  0  0  0  0
  -30.1647  -19.1635   20.5048 C   0  0  0  0  0  0
  -29.8280  -16.7295   20.5964 C   0  0  0  0  0  0
  -30.8325  -22.6902   20.7698 C   0  0  0  0  0  0
  -29.6325  -24.9837   21.2482 C   0  0  0  0  0  0
  -30.1644  -21.4825   21.2404 C   0  0  0  0  0  0
  -27.5829  -18.1720   17.8444 C   0  0  0  0  0  0
  -28.3978  -25.4020   20.4658 C   0  0  0  0  0  0
  -30.8236  -20.3621   20.8940 N   0  0  0  0  0  0
  -30.0252  -15.4452   21.1807 N   0  0  0  0  0  0
  -29.0986  -21.4429   21.8667 O   0  0  0  0  0  0
  -31.4637  -12.4358   19.0769 H   0  0  0  0  0  0
  -30.3690  -11.2973   19.8104 H   0  0  0  0  0  0
  -29.7182  -11.7421   17.4349 H   0  0  0  0  0  0
  -29.6077  -13.4596   17.7525 H   0  0  0  0  0  0
  -27.8941  -11.2371   18.9136 H   0  0  0  0  0  0
  -27.3261  -12.4803   17.8366 H   0  0  0  0  0  0
  -27.6779  -14.1850   19.5511 H   0  0  0  0  0  0
  -28.7094  -11.9473   21.3639 H   0  0  0  0  0  0
  -28.4696  -13.5798   21.8798 H   0  0  0  0  0  0
  -25.2759   -9.5515   22.4838 H   0  0  0  0  0  0
  -23.9935   -7.4498   22.7448 H   0  0  0  0  0  0
  -21.0805   -8.8795   19.8968 H   0  0  0  0  0  0
  -22.3734  -10.9680   19.6244 H   0  0  0  0  0  0
  -21.1955   -7.6132   23.9738 H   0  0  0  0  0  0
  -21.1488   -6.0508   25.9088 H   0  0  0  0  0  0
  -22.0600   -2.7589   23.2859 H   0  0  0  0  0  0
  -22.4000  -11.9978   22.4890 H   0  0  0  0  0  0
  -21.1121  -13.1442   22.2576 H   0  0  0  0  0  0
  -24.7172  -15.8470   20.6198 H   0  0  0  0  0  0
  -26.3486  -15.6121   20.2493 H   0  0  0  0  0  0
  -26.7071  -32.5527   23.1173 H   0  0  0  0  0  0
  -24.9881  -33.9763   25.0372 H   0  0  0  0  0  0
  -22.6846  -31.3003   21.4087 H   0  0  0  0  0  0
  -23.3731  -35.9591   23.3260 H   0  0  0  0  0  0
  -24.3551  -36.8943   22.2060 H   0  0  0  0  0  0
  -23.7179  -37.6454   23.6703 H   0  0  0  0  0  0
  -26.0449  -31.6113   20.6022 H   0  0  0  0  0  0
  -26.8051  -30.8836   21.9904 H   0  0  0  0  0  0
  -28.1009  -29.1482   21.1517 H   0  0  0  0  0  0
  -26.0923  -25.9508   19.0749 H   0  0  0  0  0  0
  -23.9893  -27.2477   19.0869 H   0  0  0  0  0  0
  -23.7080  -30.5756   19.3990 H   0  0  0  0  0  0
  -22.7309  -29.2194   19.8808 H   0  0  0  0  0  0
  -25.1243  -36.1908   25.0819 H   0  0  0  0  0  0
  -20.9940  -28.3239   24.1442 H   0  0  0  0  0  0
  -20.5629  -26.2254   23.3607 H   0  0  0  0  0  0
  -21.6631  -26.7409   22.1246 H   0  0  0  0  0  0
  -19.6891  -25.6292   21.1222 H   0  0  0  0  0  0
  -19.6682  -27.3186   20.6753 H   0  0  0  0  0  0
  -17.4164  -26.6639   21.4044 H   0  0  0  0  0  0
  -18.0330  -26.0090   22.9043 H   0  0  0  0  0  0
  -19.7939  -30.7291   24.2203 H   0  0  0  0  0  0
  -17.5029  -31.6274   24.5170 H   0  0  0  0  0  0
  -15.5357  -30.2991   23.7735 H   0  0  0  0  0  0
  -15.8642  -28.0867   22.7064 H   0  0  0  0  0  0
  -24.5810  -30.7180   25.7919 H   0  0  0  0  0  0
  -24.8972  -32.2976   26.4999 H   0  0  0  0  0  0
  -25.8062  -30.8946   27.0273 H   0  0  0  0  0  0
  -26.2763  -29.6862   24.1127 H   0  0  0  0  0  0
  -27.3806  -29.7227   25.4667 H   0  0  0  0  0  0
  -27.8677  -30.4296   23.9421 H   0  0  0  0  0  0
  -27.2608  -33.3668   26.2028 H   0  0  0  0  0  0
  -28.3796  -32.6883   25.0296 H   0  0  0  0  0  0
  -28.0648  -31.8495   26.5414 H   0  0  0  0  0  0
  -28.2534  -38.0108   24.7566 H   0  0  0  0  0  0
  -28.1081  -36.2646   24.6150 H   0  0  0  0  0  0
  -27.2306  -37.1292   25.8855 H   0  0  0  0  0  0
  -20.9283  -29.8633   21.6851 H   0  0  0  0  0  0
  -26.0091  -38.2825   24.1575 H   0  0  0  0  0  0
  -29.0150  -20.1951   18.9844 H   0  0  0  0  0  0
  -28.4087  -15.9837   19.1325 H   0  0  0  0  0  0
  -31.1855  -17.8265   21.8870 H   0  0  0  0  0  0
  -31.7372  -22.6235   20.1801 H   0  0  0  0  0  0
  -29.9419  -25.6483   22.0432 H   0  0  0  0  0  0
  -27.2622  -19.1997   17.6751 H   0  0  0  0  0  0
  -26.6965  -17.5794   18.0763 H   0  0  0  0  0  0
  -28.0176  -17.7891   16.9203 H   0  0  0  0  0  0
  -27.5465  -25.2028   21.1204 H   0  0  0  0  0  0
  -28.2847  -24.7899   19.5693 H   0  0  0  0  0  0
  -31.7652  -20.4852   20.5466 H   0  0  0  0  0  0
  -29.2066  -15.0787   21.6442 H   0  0  0  0  0  0
  1 25  1  0  0  0
  1 30  2  0  0  0
  1 84  1  0  0  0
  2  3  1  0  0  0
  2 25  1  0  0  0
  2 86  1  0  0  0
  2 87  1  0  0  0
  3  4  1  0  0  0
  3 88  1  0  0  0
  3 89  1  0  0  0
  4  5  1  0  0  0
  4 90  1  0  0  0
  4 91  1  0  0  0
  5  6  1  0  0  0
  5 26  1  0  0  0
  5 92  1  0  0  0
  6 25  1  0  0  0
  6 93  1  0  0  0
  6 94  1  0  0  0
  7  8  2  0  0  0
  7 26  1  0  0  0
  7 29  1  0  0  0
  8  9  1  0  0  0
  8 22  1  0  0  0
  9 10  1  0  0  0
  9 27  2  0  0  0
 10 11  2  0  0  0
 10 15  1  0  0  0
 11 12  1  0  0  0
 11 95  1  0  0  0
 12 13  2  0  0  0
 12 96  1  0  0  0
 13 14  1  0  0  0
 13 31  1  0  0  0
 14 15  2  0  0  0
 14 97  1  0  0  0
 15 98  1  0  0  0
 16 17  2  0  0  0
 16 21  1  0  0  0
 16 31  1  0  0  0
 17 18  1  0  0  0
 17 99  1  0  0  0
 18 19  2  0  0  0
 18100  1  0  0  0
 19 20  1  0  0  0
 19 24  1  0  0  0
 20 21  2  0  0  0
 20101  1  0  0  0
 21 23  1  0  0  0
 22 28  1  0  0  0
 22 32  2  0  0  0
 26 27  1  0  0  0
 28102  1  0  0  0
 28103  1  0  0  0
 29104  1  0  0  0
 29105  1  0  0  0
 33 34  1  0  0  0
 33 66  1  0  0  0
 33 70  2  0  0  0
 34 36  1  0  0  0
 34 59  1  0  0  0
 34106  1  0  0  0
 35 44  2  0  0  0
 35 45  1  0  0  0
 35 68  1  0  0  0
 36 56  1  0  0  0
 36107  1  0  0  0
 37 39  1  0  0  0
 37 47  1  0  0  0
 37 66  1  0  0  0
 37108  1  0  0  0
 38 43  2  0  0  0
 38 46  1  0  0  0
 38 47  1  0  0  0
 39 64  1  0  0  0
 39 67  2  0  0  0
 40 52  1  0  0  0
 40 53  2  0  0  0
 40 58  1  0  0  0
 41109  1  0  0  0
 41110  1  0  0  0
 41111  1  0  0  0
 41 48  1  0  0  0
 42 43  1  0  0  0
 42 66  1  0  0  0
 42112  1  0  0  0
 42113  1  0  0  0
 43 44  1  0  0  0
 44114  1  0  0  0
 45 46  2  0  0  0
 45115  1  0  0  0
 46116  1  0  0  0
 47117  1  0  0  0
 47118  1  0  0  0
 48 56  1  0  0  0
 48 65  1  0  0  0
 48119  1  0  0  0
 49 50  1  0  0  0
 49 53  1  0  0  0
 49 64  1  0  0  0
 49120  1  0  0  0
 50 51  1  0  0  0
 50121  1  0  0  0
 50122  1  0  0  0
 51 52  1  0  0  0
 51123  1  0  0  0
 51124  1  0  0  0
 52125  1  0  0  0
 52126  1  0  0  0
 53 54  1  0  0  0
 54 55  2  0  0  0
 54127  1  0  0  0
 55 57  1  0  0  0
 55128  1  0  0  0
 56 69  2  0  0  0
 57 58  2  0  0  0
 57129  1  0  0  0
 58130  1  0  0  0
 59 60  1  0  0  0
 59 61  1  0  0  0
 59 62  1  0  0  0
 60131  1  0  0  0
 60132  1  0  0  0
 60133  1  0  0  0
 61134  1  0  0  0
 61135  1  0  0  0
 61136  1  0  0  0
 62137  1  0  0  0
 62138  1  0  0  0
 62139  1  0  0  0
 63 65  1  0  0  0
 63140  1  0  0  0
 63141  1  0  0  0
 63142  1  0  0  0
 64143  1  0  0  0
 65144  1  0  0  0
 68 82  1  0  0  0
 71 78  2  0  0  0
 71 79  2  0  0  0
 72 75  2  0  0  0
 72 76  1  0  0  0
 72145  1  0  0  0
 73 75  1  0  0  0
 73 77  2  0  0  0
 73146  1  0  0  0
 74 76  2  0  0  0
 74 77  1  0  0  0
 74147  1  0  0  0
 75 81  1  0  0  0
 76 83  1  0  0  0
 77 84  1  0  0  0
 78 80  1  0  0  0
 78148  1  0  0  0
 79 82  1  0  0  0
 79149  1  0  0  0
 80 83  1  0  0  0
 80 85  2  0  0  0
 81150  1  0  0  0
 81151  1  0  0  0
 81152  1  0  0  0
 82153  1  0  0  0
 82154  1  0  0  0
 83155  1  0  0  0
 84156  1  0  0  0
M  ISO  4   1 100  68 101  82 101  84 100
M  END
> <chiral flag>
0

> <version>
0

> <s_m_source_file>
/data/baiqing/PycharmProjects/Reinvent-master-3.2/result/LINK_invent/BTK/process_docking_weight1_custom_product_contain_oxygen_bond_distance_aromatic_linkinvent_7_9_3/rearranged_h_0058.sdf

> <i_m_source_file_index>
88

> <r_mmod_Potential_Energy-OPLS-2005>
-84.46875

> <r_mmod_Stretch_Energy-OPLS-2005>
33.9096221923828

> <r_mmod_Bend_Energy-OPLS-2005>
91.9699096679688

> <r_mmod_Torsional_Energy-OPLS-2005>
212.122131347656

> <r_mmod_Improper_Torsional_Energy-OPLS-2005>
8.64318180084229

> <r_mmod_Van_der_Waal_Energy-OPLS-2005>
154.362548828125

> <r_mmod_Electrostatic_Energy-OPLS-2005>
-366.934722900391

> <r_mmod_Solvation_Energy-OPLS-2005>
-232.364761352539

> <b_mmod_Minimization_Converged-OPLS-2005>
0

> <r_mmod_RMS_Derivative-OPLS-2005>
3.90728545188904

$$$$
88
                    3D
 Structure written by MMmdl.
158166  0  0  1  0            999 V2000
  -30.7081  -14.4830   20.4591 C   0  0  0  0  0  0
  -30.4253  -12.2870   19.4359 C   0  0  0  0  0  0
  -29.5041  -12.4527   18.2090 C   0  0  0  0  0  0
  -28.0196  -12.3482   18.6184 C   0  0  0  0  0  0
  -27.6591  -13.2162   19.8544 C   0  0  2  0  0  0
  -28.7025  -13.0480   20.9816 C   0  0  0  0  0  0
  -25.2569  -13.8178   20.5663 C   0  0  0  0  0  0
  -24.1820  -13.0464   20.9174 C   0  0  0  0  0  0
  -24.6368  -11.6938   20.8704 C   0  0  0  0  0  0
  -23.9051  -10.4302   21.0362 C   0  0  0  0  0  0
  -24.3621   -9.4224   21.9145 C   0  0  0  0  0  0
  -23.6289   -8.2259   22.0744 C   0  0  0  0  0  0
  -22.4257   -8.0282   21.3550 C   0  0  0  0  0  0
  -21.9875   -9.0246   20.4648 C   0  0  0  0  0  0
  -22.7199  -10.2105   20.3027 C   0  0  0  0  0  0
  -21.6823   -6.0717   22.5258 C   0  0  0  0  0  0
  -21.4010   -6.5623   23.8192 C   0  0  0  0  0  0
  -21.3674   -5.6774   24.9160 C   0  0  0  0  0  0
  -21.6028   -4.3030   24.7208 C   0  0  0  0  0  0
  -21.8833   -3.8144   23.4321 C   0  0  0  0  0  0
  -21.9188   -4.6961   22.3378 C   0  0  0  0  0  0
  -22.7843  -13.5267   21.1805 C   0  0  0  0  0  0
  -22.1672   -4.2161   21.0961 F   0  0  0  0  0  0
  -21.5624   -3.4519   25.7726 F   0  0  0  0  0  0
  -30.0347  -13.3089   20.4158 N   0  0  0  0  0  0
  -26.3005  -12.9368   20.3244 N   0  0  0  0  0  0
  -25.9295  -11.6543   20.5691 N   0  0  0  0  0  0
  -22.0473  -12.8300   22.0364 N   0  0  0  0  0  0
  -25.4283  -15.1879   20.4100 N   0  0  0  0  0  0
  -31.9073  -14.5634   20.1874 O   0  0  0  0  0  0
  -21.6651   -6.8857   21.4214 O   0  0  0  0  0  0
  -22.3562  -14.5576   20.6638 O   0  0  0  0  0  0
  -24.6153  -31.8670   23.2084 C   0  0  0  0  0  0
  -25.9055  -32.4825   23.8368 C   0  0  1  0  0  0
  -27.2322  -27.4377   20.0884 C   0  0  0  0  0  0
  -25.5913  -33.8610   24.2327 N   0  0  0  0  0  0
  -23.4025  -30.4902   21.5502 C   0  0  2  0  0  0
  -24.8471  -28.9507   20.1187 C   0  0  0  0  0  0
  -22.7386  -29.4658   22.4999 C   0  0  0  0  0  0
  -18.0255  -28.1374   22.8481 C   0  0  0  0  0  0
  -24.1487  -36.7301   23.2637 C   0  0  0  0  0  0
  -25.9311  -30.8323   21.3603 C   0  0  0  0  0  0
  -26.0065  -29.4643   20.7099 C   0  0  0  0  0  0
  -27.2039  -28.7160   20.6889 C   0  0  0  0  0  0
  -26.0565  -26.9291   19.4995 C   0  0  0  0  0  0
  -24.8641  -27.6808   19.5095 C   0  0  0  0  0  0
  -23.6104  -29.8205   20.1645 C   0  0  0  0  0  0
  -25.4103  -36.3109   24.0339 C   0  0  1  0  0  0
  -20.5844  -28.3663   23.1324 C   0  0  2  0  0  0
  -20.6775  -26.9404   22.5428 C   0  0  0  0  0  0
  -19.5760  -26.6393   21.5206 C   0  0  0  0  0  0
  -18.1923  -26.7927   22.1597 C   0  0  0  0  0  0
  -19.1509  -28.8828   23.2904 C   0  0  0  0  0  0
  -18.9448  -30.1422   23.8937 C   0  0  0  0  0  0
  -17.6459  -30.6579   24.0561 C   0  0  0  0  0  0
  -25.9036  -34.9466   23.5132 C   0  0  0  0  0  0
  -16.5341  -29.9093   23.6327 C   0  0  0  0  0  0
  -16.7245  -28.6505   23.0350 C   0  0  0  0  0  0
  -26.4496  -31.6575   25.0672 C   0  0  0  0  0  0
  -25.3789  -31.3676   26.1450 C   0  0  0  0  0  0
  -27.0309  -30.3014   24.6019 C   0  0  0  0  0  0
  -27.6062  -32.4295   25.7443 C   0  0  0  0  0  0
  -27.5583  -37.1803   24.8463 C   0  0  0  0  0  0
  -21.4124  -29.3023   22.3732 N   0  0  0  0  0  0
  -26.4295  -37.3790   23.9413 N   0  0  0  0  0  0
  -24.6673  -31.0760   22.0977 N   0  0  0  0  0  0
  -23.4155  -28.8194   23.3043 O   0  0  0  0  0  0
  -28.4128  -26.7337   20.0391 O   0  0  0  0  0  0
  -26.5583  -34.8924   22.4683 O   0  0  0  0  0  0
  -23.5344  -32.1420   23.7477 O   0  0  0  0  0  0
  -31.1747  -17.1423   19.0311 C   0  0  0  0  0  0
  -31.3528  -18.4293   18.4918 C   0  0  0  0  0  0
  -29.3071  -17.9503   20.3626 C   0  0  0  0  0  0
  -29.4496  -19.2391   19.7899 C   0  0  0  0  0  0
  -30.1708  -16.8860   20.0052 C   0  0  0  0  0  0
  -30.5018  -19.4772   18.8775 C   0  0  0  0  0  0
  -27.6668  -23.1140   19.6655 C   0  0  0  0  0  0
  -28.2229  -24.3282   19.4573 C   0  0  0  0  0  0
  -27.5319  -22.1548   18.5765 C   0  0  0  0  0  0
  -27.2840  -19.7923   17.9880 C   0  0  0  0  0  0
  -28.4484  -20.3582   20.1011 C   0  0  0  0  0  0
  -28.3960  -25.3906   20.5356 C   0  0  0  0  0  0
  -29.9441  -15.5875   20.5800 N   0  0  0  0  0  0
  -27.7043  -20.8492   18.9181 N   0  0  0  0  0  0
  -27.1980  -22.4894   17.4330 O   0  0  0  0  0  0
  -30.6789  -20.7116   18.3458 F   0  0  0  0  0  0
  -31.4758  -12.3562   19.1401 H   0  0  0  0  0  0
  -30.3078  -11.2953   19.8702 H   0  0  0  0  0  0
  -29.7296  -11.6855   17.4631 H   0  0  0  0  0  0
  -29.6905  -13.4080   17.7165 H   0  0  0  0  0  0
  -27.8065  -11.2999   18.8251 H   0  0  0  0  0  0
  -27.3888  -12.6186   17.7719 H   0  0  0  0  0  0
  -27.6941  -14.2530   19.5178 H   0  0  0  0  0  0
  -28.6674  -12.0327   21.3808 H   0  0  0  0  0  0
  -28.4907  -13.7113   21.8224 H   0  0  0  0  0  0
  -25.2760   -9.5727   22.4736 H   0  0  0  0  0  0
  -24.0004   -7.4636   22.7454 H   0  0  0  0  0  0
  -21.0800   -8.8738   19.8958 H   0  0  0  0  0  0
  -22.3628  -10.9649   19.6162 H   0  0  0  0  0  0
  -21.2038   -7.6144   23.9688 H   0  0  0  0  0  0
  -21.1470   -6.0512   25.9034 H   0  0  0  0  0  0
  -22.0615   -2.7604   23.2805 H   0  0  0  0  0  0
  -22.4092  -12.0022   22.4883 H   0  0  0  0  0  0
  -21.1064  -13.1267   22.2509 H   0  0  0  0  0  0
  -24.6688  -15.8480   20.5406 H   0  0  0  0  0  0
  -26.2730  -15.6151   20.0556 H   0  0  0  0  0  0
  -26.7117  -32.5546   23.1120 H   0  0  0  0  0  0
  -25.0137  -33.9761   25.0524 H   0  0  0  0  0  0
  -22.6912  -31.3057   21.4100 H   0  0  0  0  0  0
  -23.3758  -35.9632   23.3310 H   0  0  0  0  0  0
  -24.3593  -36.8901   22.2051 H   0  0  0  0  0  0
  -23.7233  -37.6498   23.6647 H   0  0  0  0  0  0
  -26.0437  -31.5957   20.5896 H   0  0  0  0  0  0
  -26.8203  -30.8881   21.9772 H   0  0  0  0  0  0
  -28.1046  -29.1109   21.1361 H   0  0  0  0  0  0
  -26.0637  -25.9642   19.0122 H   0  0  0  0  0  0
  -23.9737  -27.2810   19.0443 H   0  0  0  0  0  0
  -23.7236  -30.5976   19.4074 H   0  0  0  0  0  0
  -22.7339  -29.2445   19.8666 H   0  0  0  0  0  0
  -25.1279  -36.1980   25.0835 H   0  0  0  0  0  0
  -20.9923  -28.3255   24.1437 H   0  0  0  0  0  0
  -20.5686  -26.2258   23.3603 H   0  0  0  0  0  0
  -21.6654  -26.7477   22.1218 H   0  0  0  0  0  0
  -19.6947  -25.6310   21.1223 H   0  0  0  0  0  0
  -19.6722  -27.3220   20.6747 H   0  0  0  0  0  0
  -17.4201  -26.6661   21.3986 H   0  0  0  0  0  0
  -18.0320  -26.0064   22.8983 H   0  0  0  0  0  0
  -19.7927  -30.7213   24.2350 H   0  0  0  0  0  0
  -17.5017  -31.6270   24.5155 H   0  0  0  0  0  0
  -15.5346  -30.3012   23.7634 H   0  0  0  0  0  0
  -15.8634  -28.0830   22.7079 H   0  0  0  0  0  0
  -24.5967  -30.7005   25.7826 H   0  0  0  0  0  0
  -24.8988  -32.2826   26.4901 H   0  0  0  0  0  0
  -25.8186  -30.8864   27.0193 H   0  0  0  0  0  0
  -26.2813  -29.6754   24.1178 H   0  0  0  0  0  0
  -27.4204  -29.7260   25.4423 H   0  0  0  0  0  0
  -27.8593  -30.4314   23.9060 H   0  0  0  0  0  0
  -27.2670  -33.3578   26.2038 H   0  0  0  0  0  0
  -28.3865  -32.6875   25.0275 H   0  0  0  0  0  0
  -28.0745  -31.8416   26.5347 H   0  0  0  0  0  0
  -28.2610  -38.0089   24.7516 H   0  0  0  0  0  0
  -28.1071  -36.2627   24.6290 H   0  0  0  0  0  0
  -27.2311  -37.1459   25.8867 H   0  0  0  0  0  0
  -20.9272  -29.8707   21.6931 H   0  0  0  0  0  0
  -26.0191  -38.2871   24.1412 H   0  0  0  0  0  0
  -31.8240  -16.3638   18.6596 H   0  0  0  0  0  0
  -32.1306  -18.6078   17.7638 H   0  0  0  0  0  0
  -28.5079  -17.7831   21.0723 H   0  0  0  0  0  0
  -27.3006  -22.8511   20.6488 H   0  0  0  0  0  0
  -28.6038  -24.5858   18.4786 H   0  0  0  0  0  0
  -28.0886  -19.5556   17.2877 H   0  0  0  0  0  0
  -26.4036  -20.0654   17.4013 H   0  0  0  0  0  0
  -27.0244  -18.8812   18.5291 H   0  0  0  0  0  0
  -29.0234  -21.1589   20.5664 H   0  0  0  0  0  0
  -27.7319  -20.0247   20.8502 H   0  0  0  0  0  0
  -29.3695  -25.2225   20.9948 H   0  0  0  0  0  0
  -27.6535  -25.2618   21.3263 H   0  0  0  0  0  0
  -29.0170  -15.4242   20.9500 H   0  0  0  0  0  0
  1 25  1  0  0  0
  1 30  2  0  0  0
  1 83  1  0  0  0
  2  3  1  0  0  0
  2 25  1  0  0  0
  2 87  1  0  0  0
  2 88  1  0  0  0
  3  4  1  0  0  0
  3 89  1  0  0  0
  3 90  1  0  0  0
  4  5  1  0  0  0
  4 91  1  0  0  0
  4 92  1  0  0  0
  5  6  1  0  0  0
  5 26  1  0  0  0
  5 93  1  0  0  0
  6 25  1  0  0  0
  6 94  1  0  0  0
  6 95  1  0  0  0
  7  8  2  0  0  0
  7 26  1  0  0  0
  7 29  1  0  0  0
  8  9  1  0  0  0
  8 22  1  0  0  0
  9 10  1  0  0  0
  9 27  2  0  0  0
 10 11  2  0  0  0
 10 15  1  0  0  0
 11 12  1  0  0  0
 11 96  1  0  0  0
 12 13  2  0  0  0
 12 97  1  0  0  0
 13 14  1  0  0  0
 13 31  1  0  0  0
 14 15  2  0  0  0
 14 98  1  0  0  0
 15 99  1  0  0  0
 16 17  2  0  0  0
 16 21  1  0  0  0
 16 31  1  0  0  0
 17 18  1  0  0  0
 17100  1  0  0  0
 18 19  2  0  0  0
 18101  1  0  0  0
 19 20  1  0  0  0
 19 24  1  0  0  0
 20 21  2  0  0  0
 20102  1  0  0  0
 21 23  1  0  0  0
 22 28  1  0  0  0
 22 32  2  0  0  0
 26 27  1  0  0  0
 28103  1  0  0  0
 28104  1  0  0  0
 29105  1  0  0  0
 29106  1  0  0  0
 33 34  1  0  0  0
 33 66  1  0  0  0
 33 70  2  0  0  0
 34 36  1  0  0  0
 34 59  1  0  0  0
 34107  1  0  0  0
 35 44  2  0  0  0
 35 45  1  0  0  0
 35 68  1  0  0  0
 36 56  1  0  0  0
 36108  1  0  0  0
 37 39  1  0  0  0
 37 47  1  0  0  0
 37 66  1  0  0  0
 37109  1  0  0  0
 38 43  2  0  0  0
 38 46  1  0  0  0
 38 47  1  0  0  0
 39 64  1  0  0  0
 39 67  2  0  0  0
 40 52  1  0  0  0
 40 53  2  0  0  0
 40 58  1  0  0  0
 41110  1  0  0  0
 41111  1  0  0  0
 41112  1  0  0  0
 41 48  1  0  0  0
 42 43  1  0  0  0
 42 66  1  0  0  0
 42113  1  0  0  0
 42114  1  0  0  0
 43 44  1  0  0  0
 44115  1  0  0  0
 45 46  2  0  0  0
 45116  1  0  0  0
 46117  1  0  0  0
 47118  1  0  0  0
 47119  1  0  0  0
 48 56  1  0  0  0
 48 65  1  0  0  0
 48120  1  0  0  0
 49 50  1  0  0  0
 49 53  1  0  0  0
 49 64  1  0  0  0
 49121  1  0  0  0
 50 51  1  0  0  0
 50122  1  0  0  0
 50123  1  0  0  0
 51 52  1  0  0  0
 51124  1  0  0  0
 51125  1  0  0  0
 52126  1  0  0  0
 52127  1  0  0  0
 53 54  1  0  0  0
 54 55  2  0  0  0
 54128  1  0  0  0
 55 57  1  0  0  0
 55129  1  0  0  0
 56 69  2  0  0  0
 57 58  2  0  0  0
 57130  1  0  0  0
 58131  1  0  0  0
 59 60  1  0  0  0
 59 61  1  0  0  0
 59 62  1  0  0  0
 60132  1  0  0  0
 60133  1  0  0  0
 60134  1  0  0  0
 61135  1  0  0  0
 61136  1  0  0  0
 61137  1  0  0  0
 62138  1  0  0  0
 62139  1  0  0  0
 62140  1  0  0  0
 63 65  1  0  0  0
 63141  1  0  0  0
 63142  1  0  0  0
 63143  1  0  0  0
 64144  1  0  0  0
 65145  1  0  0  0
 68 82  1  0  0  0
 71 72  2  0  0  0
 71 75  1  0  0  0
 71146  1  0  0  0
 72 76  1  0  0  0
 72147  1  0  0  0
 73 74  1  0  0  0
 73 75  2  0  0  0
 73148  1  0  0  0
 74 76  2  0  0  0
 74 81  1  0  0  0
 75 83  1  0  0  0
 76 86  1  0  0  0
 77 78  2  0  0  0
 77 79  1  0  0  0
 77149  1  0  0  0
 78 82  1  0  0  0
 78150  1  0  0  0
 79 84  1  0  0  0
 79 85  2  0  0  0
 80 84  1  0  0  0
 80151  1  0  0  0
 80152  1  0  0  0
 80153  1  0  0  0
 81 84  1  0  0  0
 81154  1  0  0  0
 81155  1  0  0  0
 82156  1  0  0  0
 82157  1  0  0  0
 83158  1  0  0  0
M  ISO  4   1 100  68 101  82 101  83 100
M  END
> <chiral flag>
0

> <version>
0

> <s_m_source_file>
/data/baiqing/PycharmProjects/Reinvent-master-3.2/result/LINK_invent/BTK/process_docking_weight1_custom_product_contain_oxygen_bond_distance_aromatic_linkinvent_7_9_3/rearranged_h_0058.sdf

> <i_m_source_file_index>
89

> <r_mmod_Potential_Energy-OPLS-2005>
-39.6001167297363

> <r_mmod_Stretch_Energy-OPLS-2005>
39.3895454406738

> <r_mmod_Bend_Energy-OPLS-2005>
96.8111953735352

> <r_mmod_Torsional_Energy-OPLS-2005>
267.130035400391

> <r_mmod_Improper_Torsional_Energy-OPLS-2005>
7.16986608505249

> <r_mmod_Van_der_Waal_Energy-OPLS-2005>
165.156127929688

> <r_mmod_Electrostatic_Energy-OPLS-2005>
-405.535400390625

> <r_mmod_Solvation_Energy-OPLS-2005>
-231.031463623047

> <b_mmod_Minimization_Converged-OPLS-2005>
0

> <r_mmod_RMS_Derivative-OPLS-2005>
5.28764629364014

$$$$
89
                    3D
 Structure written by MMmdl.
174182  0  0  1  0            999 V2000
  -30.7001  -14.4475   20.6408 C   0  0  0  0  0  0
  -30.4324  -12.3162   19.4092 C   0  0  0  0  0  0
  -29.4961  -12.5331   18.2019 C   0  0  0  0  0  0
  -28.0181  -12.3824   18.6119 C   0  0  0  0  0  0
  -27.6683  -13.2022   19.8815 C   0  0  2  0  0  0
  -28.7068  -12.9386   20.9956 C   0  0  0  0  0  0
  -25.2603  -13.8146   20.5641 C   0  0  0  0  0  0
  -24.1862  -13.0441   20.9186 C   0  0  0  0  0  0
  -24.6404  -11.6905   20.8735 C   0  0  0  0  0  0
  -23.9072  -10.4288   21.0405 C   0  0  0  0  0  0
  -24.3628   -9.4208   21.9188 C   0  0  0  0  0  0
  -23.6293   -8.2255   22.0771 C   0  0  0  0  0  0
  -22.4278   -8.0287   21.3560 C   0  0  0  0  0  0
  -21.9905   -9.0261   20.4669 C   0  0  0  0  0  0
  -22.7239  -10.2134   20.3059 C   0  0  0  0  0  0
  -21.6850   -6.0738   22.5275 C   0  0  0  0  0  0
  -21.4003   -6.5647   23.8204 C   0  0  0  0  0  0
  -21.3659   -5.6799   24.9168 C   0  0  0  0  0  0
  -21.6046   -4.3060   24.7211 C   0  0  0  0  0  0
  -21.8819   -3.8153   23.4329 C   0  0  0  0  0  0
  -21.9194   -4.6969   22.3384 C   0  0  0  0  0  0
  -22.7890  -13.5263   21.1831 C   0  0  0  0  0  0
  -22.1674   -4.2165   21.0960 F   0  0  0  0  0  0
  -21.5624   -3.4535   25.7717 F   0  0  0  0  0  0
  -30.0488  -13.2625   20.4691 N   0  0  0  0  0  0
  -26.3052  -12.9315   20.3355 N   0  0  0  0  0  0
  -25.9332  -11.6481   20.5756 N   0  0  0  0  0  0
  -22.0503  -12.8275   22.0381 N   0  0  0  0  0  0
  -25.4298  -15.1854   20.3954 N   0  0  0  0  0  0
  -31.7372  -14.7385   20.0386 O   0  0  0  0  0  0
  -21.6645   -6.8886   21.4243 O   0  0  0  0  0  0
  -22.3602  -14.5574   20.6667 O   0  0  0  0  0  0
  -24.6179  -31.8668   23.2098 C   0  0  0  0  0  0
  -25.9061  -32.4816   23.8395 C   0  0  1  0  0  0
  -27.2397  -27.4209   20.0662 C   0  0  0  0  0  0
  -25.5907  -33.8613   24.2327 N   0  0  0  0  0  0
  -23.4053  -30.4918   21.5517 C   0  0  2  0  0  0
  -24.8489  -28.9574   20.1161 C   0  0  0  0  0  0
  -22.7419  -29.4654   22.4990 C   0  0  0  0  0  0
  -18.0275  -28.1377   22.8492 C   0  0  0  0  0  0
  -24.1485  -36.7313   23.2637 C   0  0  0  0  0  0
  -25.9383  -30.8246   21.3662 C   0  0  0  0  0  0
  -26.0132  -29.4590   20.7092 C   0  0  0  0  0  0
  -27.2068  -28.6961   20.6861 C   0  0  0  0  0  0
  -26.0366  -26.9256   19.5061 C   0  0  0  0  0  0
  -24.8555  -27.6880   19.5184 C   0  0  0  0  0  0
  -23.6130  -29.8270   20.1663 C   0  0  0  0  0  0
  -25.4106  -36.3107   24.0338 C   0  0  1  0  0  0
  -20.5866  -28.3666   23.1312 C   0  0  2  0  0  0
  -20.6765  -26.9402   22.5411 C   0  0  0  0  0  0
  -19.5742  -26.6385   21.5210 C   0  0  0  0  0  0
  -18.1922  -26.7923   22.1624 C   0  0  0  0  0  0
  -19.1525  -28.8841   23.2899 C   0  0  0  0  0  0
  -18.9452  -30.1445   23.8913 C   0  0  0  0  0  0
  -17.6454  -30.6582   24.0564 C   0  0  0  0  0  0
  -25.9036  -34.9473   23.5130 C   0  0  0  0  0  0
  -16.5345  -29.9084   23.6325 C   0  0  0  0  0  0
  -16.7263  -28.6499   23.0349 C   0  0  0  0  0  0
  -26.4479  -31.6600   25.0731 C   0  0  0  0  0  0
  -25.3743  -31.3716   26.1480 C   0  0  0  0  0  0
  -27.0301  -30.3038   24.6118 C   0  0  0  0  0  0
  -27.6061  -32.4317   25.7485 C   0  0  0  0  0  0
  -27.5581  -37.1808   24.8464 C   0  0  0  0  0  0
  -21.4147  -29.3033   22.3721 N   0  0  0  0  0  0
  -26.4293  -37.3792   23.9409 N   0  0  0  0  0  0
  -24.6722  -31.0752   22.1005 N   0  0  0  0  0  0
  -23.4184  -28.8192   23.3033 O   0  0  0  0  0  0
  -28.4240  -26.6957   20.0670 O   0  0  0  0  0  0
  -26.5600  -34.8924   22.4693 O   0  0  0  0  0  0
  -23.5362  -32.1428   23.7479 O   0  0  0  0  0  0
  -27.5977  -17.9625   21.5080 C   0  0  0  0  0  0
  -28.3164  -19.0641   21.0120 C   0  0  0  0  0  0
  -28.2356  -16.7221   21.6727 C   0  0  0  0  0  0
  -29.6827  -18.9356   20.6786 C   0  0  0  0  0  0
  -29.5932  -16.5507   21.3226 C   0  0  0  0  0  0
  -30.3249  -17.6707   20.8345 C   0  0  0  0  0  0
  -30.3869  -20.1409   20.1991 C   0  0  0  0  0  0
  -33.2779  -20.9871   17.7180 C   0  0  0  0  0  0
  -29.6165  -21.0862   16.3131 C   0  0  0  0  0  0
  -31.3967  -22.8446   16.2952 C   0  0  0  0  0  0
  -31.9044  -20.5601   17.1689 C   0  0  0  0  0  0
  -29.2804  -24.3763   19.5656 C   0  0  0  0  0  0
  -29.2488  -23.2664   18.4784 C   0  0  0  0  0  0
  -28.6723  -25.7094   19.0424 C   0  0  0  0  0  0
  -30.3275  -22.1293   18.5444 C   0  0  2  0  0  0
  -30.8080  -21.6663   17.1109 C   0  0  0  0  0  0
  -31.5963  -20.4450   20.6677 N   0  0  0  0  0  0
  -30.1463  -15.2550   21.5610 N   0  0  0  0  0  0
  -29.7984  -20.9589   19.2953 N   0  3  0  0  0  0
  -31.6436  -17.5417   20.5499 F   0  0  0  0  0  0
  -31.4751  -12.4329   19.1071 H   0  0  0  0  0  0
  -30.3453  -11.2933   19.7783 H   0  0  0  0  0  0
  -29.7354  -11.8264   17.4066 H   0  0  0  0  0  0
  -29.6621  -13.5280   17.7856 H   0  0  0  0  0  0
  -27.8275  -11.3231   18.7896 H   0  0  0  0  0  0
  -27.3681  -12.6733   17.7855 H   0  0  0  0  0  0
  -27.7251  -14.2566   19.6100 H   0  0  0  0  0  0
  -28.6840  -11.8870   21.2856 H   0  0  0  0  0  0
  -28.4422  -13.4828   21.9028 H   0  0  0  0  0  0
  -25.2777   -9.5686   22.4757 H   0  0  0  0  0  0
  -23.9995   -7.4656   22.7501 H   0  0  0  0  0  0
  -21.0826   -8.8781   19.8994 H   0  0  0  0  0  0
  -22.3702  -10.9672   19.6162 H   0  0  0  0  0  0
  -21.1994   -7.6156   23.9700 H   0  0  0  0  0  0
  -21.1491   -6.0537   25.9072 H   0  0  0  0  0  0
  -22.0599   -2.7615   23.2817 H   0  0  0  0  0  0
  -22.4082  -11.9930   22.4786 H   0  0  0  0  0  0
  -21.1133  -13.1346   22.2576 H   0  0  0  0  0  0
  -24.6409  -15.8194   20.4557 H   0  0  0  0  0  0
  -26.2361  -15.5987   19.9455 H   0  0  0  0  0  0
  -26.7132  -32.5515   23.1155 H   0  0  0  0  0  0
  -25.0065  -33.9772   25.0478 H   0  0  0  0  0  0
  -22.6950  -31.3099   21.4137 H   0  0  0  0  0  0
  -23.3739  -35.9654   23.3313 H   0  0  0  0  0  0
  -24.3578  -36.8913   22.2048 H   0  0  0  0  0  0
  -23.7246  -37.6527   23.6640 H   0  0  0  0  0  0
  -26.0566  -31.5912   20.5991 H   0  0  0  0  0  0
  -26.8247  -30.8735   21.9873 H   0  0  0  0  0  0
  -28.1081  -29.0858   21.1392 H   0  0  0  0  0  0
  -25.9630  -25.9401   19.0747 H   0  0  0  0  0  0
  -23.9536  -27.2844   19.0786 H   0  0  0  0  0  0
  -23.7249  -30.6036   19.4086 H   0  0  0  0  0  0
  -22.7354  -29.2506   19.8678 H   0  0  0  0  0  0
  -25.1281  -36.1975   25.0832 H   0  0  0  0  0  0
  -20.9958  -28.3231   24.1432 H   0  0  0  0  0  0
  -20.5667  -26.2274   23.3598 H   0  0  0  0  0  0
  -21.6635  -26.7440   22.1203 H   0  0  0  0  0  0
  -19.6900  -25.6299   21.1228 H   0  0  0  0  0  0
  -19.6679  -27.3205   20.6749 H   0  0  0  0  0  0
  -17.4188  -26.6672   21.4029 H   0  0  0  0  0  0
  -18.0324  -26.0062   22.9018 H   0  0  0  0  0  0
  -19.7928  -30.7257   24.2291 H   0  0  0  0  0  0
  -17.5007  -31.6265   24.5158 H   0  0  0  0  0  0
  -15.5346  -30.2991   23.7639 H   0  0  0  0  0  0
  -15.8661  -28.0821   22.7060 H   0  0  0  0  0  0
  -24.5913  -30.7063   25.7821 H   0  0  0  0  0  0
  -24.8938  -32.2874   26.4934 H   0  0  0  0  0  0
  -25.8097  -30.8882   27.0235 H   0  0  0  0  0  0
  -26.2842  -29.6804   24.1171 H   0  0  0  0  0  0
  -27.4060  -29.7274   25.4582 H   0  0  0  0  0  0
  -27.8688  -30.4350   23.9276 H   0  0  0  0  0  0
  -27.2691  -33.3612   26.2088 H   0  0  0  0  0  0
  -28.3853  -32.6885   25.0295 H   0  0  0  0  0  0
  -28.0747  -31.8424   26.5377 H   0  0  0  0  0  0
  -28.2607  -38.0096   24.7504 H   0  0  0  0  0  0
  -28.1067  -36.2631   24.6296 H   0  0  0  0  0  0
  -27.2300  -37.1465   25.8868 H   0  0  0  0  0  0
  -20.9310  -29.8772   21.6958 H   0  0  0  0  0  0
  -26.0183  -38.2872   24.1405 H   0  0  0  0  0  0
  -26.5552  -18.0705   21.7750 H   0  0  0  0  0  0
  -27.8138  -20.0168   20.9155 H   0  0  0  0  0  0
  -27.6607  -15.8976   22.0698 H   0  0  0  0  0  0
  -33.9398  -20.1242   17.7967 H   0  0  0  0  0  0
  -33.2093  -21.4339   18.7070 H   0  0  0  0  0  0
  -33.7700  -21.7060   17.0629 H   0  0  0  0  0  0
  -29.9168  -20.8028   15.3038 H   0  0  0  0  0  0
  -28.8026  -21.8027   16.2068 H   0  0  0  0  0  0
  -29.2065  -20.1923   16.7824 H   0  0  0  0  0  0
  -31.9348  -22.4861   15.4166 H   0  0  0  0  0  0
  -32.0981  -23.4339   16.8870 H   0  0  0  0  0  0
  -30.6387  -23.5267   15.9128 H   0  0  0  0  0  0
  -31.5487  -19.6956   17.7271 H   0  0  0  0  0  0
  -32.0710  -20.1737   16.1620 H   0  0  0  0  0  0
  -30.3052  -24.5619   19.8880 H   0  0  0  0  0  0
  -28.7371  -24.0303   20.4457 H   0  0  0  0  0  0
  -29.2985  -23.7690   17.5170 H   0  0  0  0  0  0
  -28.2519  -22.8242   18.4783 H   0  0  0  0  0  0
  -27.8138  -25.4776   18.4202 H   0  0  0  0  0  0
  -29.3834  -26.1593   18.3480 H   0  0  0  0  0  0
  -31.1934  -22.5304   19.0722 H   0  0  0  0  0  0
  -32.0663  -19.7849   21.2701 H   0  0  0  0  0  0
  -32.0546  -21.3147   20.4638 H   0  0  0  0  0  0
  -29.5696  -14.7083   22.1811 H   0  0  0  0  0  0
  -28.9090  -20.6214   18.9537 H   0  0  0  0  0  0
  1 25  1  0  0  0
  1 30  2  0  0  0
  1 88  1  0  0  0
  2  3  1  0  0  0
  2 25  1  0  0  0
  2 91  1  0  0  0
  2 92  1  0  0  0
  3  4  1  0  0  0
  3 93  1  0  0  0
  3 94  1  0  0  0
  4  5  1  0  0  0
  4 95  1  0  0  0
  4 96  1  0  0  0
  5  6  1  0  0  0
  5 26  1  0  0  0
  5 97  1  0  0  0
  6 25  1  0  0  0
  6 98  1  0  0  0
  6 99  1  0  0  0
  7  8  2  0  0  0
  7 26  1  0  0  0
  7 29  1  0  0  0
  8  9  1  0  0  0
  8 22  1  0  0  0
  9 10  1  0  0  0
  9 27  2  0  0  0
 10 11  2  0  0  0
 10 15  1  0  0  0
 11 12  1  0  0  0
 11100  1  0  0  0
 12 13  2  0  0  0
 12101  1  0  0  0
 13 14  1  0  0  0
 13 31  1  0  0  0
 14 15  2  0  0  0
 14102  1  0  0  0
 15103  1  0  0  0
 16 17  2  0  0  0
 16 21  1  0  0  0
 16 31  1  0  0  0
 17 18  1  0  0  0
 17104  1  0  0  0
 18 19  2  0  0  0
 18105  1  0  0  0
 19 20  1  0  0  0
 19 24  1  0  0  0
 20 21  2  0  0  0
 20106  1  0  0  0
 21 23  1  0  0  0
 22 28  1  0  0  0
 22 32  2  0  0  0
 26 27  1  0  0  0
 28107  1  0  0  0
 28108  1  0  0  0
 29109  1  0  0  0
 29110  1  0  0  0
 33 34  1  0  0  0
 33 66  1  0  0  0
 33 70  2  0  0  0
 34 36  1  0  0  0
 34 59  1  0  0  0
 34111  1  0  0  0
 35 44  2  0  0  0
 35 45  1  0  0  0
 35 68  1  0  0  0
 36 56  1  0  0  0
 36112  1  0  0  0
 37 39  1  0  0  0
 37 47  1  0  0  0
 37 66  1  0  0  0
 37113  1  0  0  0
 38 43  2  0  0  0
 38 46  1  0  0  0
 38 47  1  0  0  0
 39 64  1  0  0  0
 39 67  2  0  0  0
 40 52  1  0  0  0
 40 53  2  0  0  0
 40 58  1  0  0  0
 41114  1  0  0  0
 41115  1  0  0  0
 41116  1  0  0  0
 41 48  1  0  0  0
 42 43  1  0  0  0
 42 66  1  0  0  0
 42117  1  0  0  0
 42118  1  0  0  0
 43 44  1  0  0  0
 44119  1  0  0  0
 45 46  2  0  0  0
 45120  1  0  0  0
 46121  1  0  0  0
 47122  1  0  0  0
 47123  1  0  0  0
 48 56  1  0  0  0
 48 65  1  0  0  0
 48124  1  0  0  0
 49 50  1  0  0  0
 49 53  1  0  0  0
 49 64  1  0  0  0
 49125  1  0  0  0
 50 51  1  0  0  0
 50126  1  0  0  0
 50127  1  0  0  0
 51 52  1  0  0  0
 51128  1  0  0  0
 51129  1  0  0  0
 52130  1  0  0  0
 52131  1  0  0  0
 53 54  1  0  0  0
 54 55  2  0  0  0
 54132  1  0  0  0
 55 57  1  0  0  0
 55133  1  0  0  0
 56 69  2  0  0  0
 57 58  2  0  0  0
 57134  1  0  0  0
 58135  1  0  0  0
 59 60  1  0  0  0
 59 61  1  0  0  0
 59 62  1  0  0  0
 60136  1  0  0  0
 60137  1  0  0  0
 60138  1  0  0  0
 61139  1  0  0  0
 61140  1  0  0  0
 61141  1  0  0  0
 62142  1  0  0  0
 62143  1  0  0  0
 62144  1  0  0  0
 63 65  1  0  0  0
 63145  1  0  0  0
 63146  1  0  0  0
 63147  1  0  0  0
 64148  1  0  0  0
 65149  1  0  0  0
 68 84  1  0  0  0
 71 72  2  0  0  0
 71 73  1  0  0  0
 71150  1  0  0  0
 72 74  1  0  0  0
 72151  1  0  0  0
 73 75  2  0  0  0
 73152  1  0  0  0
 74 76  2  0  0  0
 74 77  1  0  0  0
 75 76  1  0  0  0
 75 88  1  0  0  0
 76 90  1  0  0  0
 77 87  1  0  0  0
 77 89  2  0  0  0
 78 81  1  0  0  0
 78153  1  0  0  0
 78154  1  0  0  0
 78155  1  0  0  0
 79156  1  0  0  0
 79157  1  0  0  0
 79158  1  0  0  0
 79 86  1  0  0  0
 80 86  1  0  0  0
 80159  1  0  0  0
 80160  1  0  0  0
 80161  1  0  0  0
 81 86  1  0  0  0
 81162  1  0  0  0
 81163  1  0  0  0
 82 83  1  0  0  0
 82 84  1  0  0  0
 82164  1  0  0  0
 82165  1  0  0  0
 83166  1  0  0  0
 83167  1  0  0  0
 83 85  1  0  0  0
 84168  1  0  0  0
 84169  1  0  0  0
 85 86  1  0  0  0
 85 89  1  0  0  0
 85170  1  0  0  0
 87171  1  0  0  0
 87172  1  0  0  0
 88173  1  0  0  0
 89174  1  0  0  0
M  CHG  1  89   1
M  ISO  4   1 100  68 101  84 101  88 100
M  END
> <chiral flag>
0

> <version>
0

> <s_m_source_file>
/data/baiqing/PycharmProjects/Reinvent-master-3.2/result/LINK_invent/BTK/process_docking_weight1_custom_product_contain_oxygen_bond_distance_aromatic_linkinvent_7_9_3/rearranged_h_0058.sdf

> <i_m_source_file_index>
90

> <r_mmod_Potential_Energy-OPLS-2005>
-228.491073608398

> <r_mmod_Stretch_Energy-OPLS-2005>
48.1590309143066

> <r_mmod_Bend_Energy-OPLS-2005>
127.240417480469

> <r_mmod_Torsional_Energy-OPLS-2005>
278.460662841797

> <r_mmod_Improper_Torsional_Energy-OPLS-2005>
7.23159456253052

> <r_mmod_Van_der_Waal_Energy-OPLS-2005>
159.586166381836

> <r_mmod_Electrostatic_Energy-OPLS-2005>
-457.494445800781

> <r_mmod_Solvation_Energy-OPLS-2005>
-403.447387695312

> <b_mmod_Minimization_Converged-OPLS-2005>
0

> <r_mmod_RMS_Derivative-OPLS-2005>
1.32558655738831

$$$$
90
                    3D
 Structure written by MMmdl.
160168  0  0  1  0            999 V2000
  -30.7194  -14.4464   20.5599 C   0  0  0  0  0  0
  -30.4150  -12.2856   19.4292 C   0  0  0  0  0  0
  -29.4951  -12.4977   18.2102 C   0  0  0  0  0  0
  -28.0154  -12.3620   18.6194 C   0  0  0  0  0  0
  -27.6606  -13.2062   19.8733 C   0  0  2  0  0  0
  -28.7001  -12.9945   20.9983 C   0  0  0  0  0  0
  -25.2580  -13.8161   20.5669 C   0  0  0  0  0  0
  -24.1833  -13.0441   20.9176 C   0  0  0  0  0  0
  -24.6384  -11.6910   20.8739 C   0  0  0  0  0  0
  -23.9053  -10.4295   21.0405 C   0  0  0  0  0  0
  -24.3610   -9.4213   21.9184 C   0  0  0  0  0  0
  -23.6291   -8.2244   22.0753 C   0  0  0  0  0  0
  -22.4274   -8.0279   21.3543 C   0  0  0  0  0  0
  -21.9907   -9.0254   20.4648 C   0  0  0  0  0  0
  -22.7228  -10.2136   20.3054 C   0  0  0  0  0  0
  -21.6852   -6.0735   22.5282 C   0  0  0  0  0  0
  -21.4013   -6.5641   23.8217 C   0  0  0  0  0  0
  -21.3658   -5.6792   24.9179 C   0  0  0  0  0  0
  -21.6044   -4.3054   24.7227 C   0  0  0  0  0  0
  -21.8818   -3.8145   23.4347 C   0  0  0  0  0  0
  -21.9191   -4.6964   22.3403 C   0  0  0  0  0  0
  -22.7855  -13.5249   21.1838 C   0  0  0  0  0  0
  -22.1659   -4.2148   21.0979 F   0  0  0  0  0  0
  -21.5633   -3.4537   25.7738 F   0  0  0  0  0  0
  -30.0350  -13.2776   20.4462 N   0  0  0  0  0  0
  -26.3012  -12.9328   20.3350 N   0  0  0  0  0  0
  -25.9310  -11.6489   20.5764 N   0  0  0  0  0  0
  -22.0487  -12.8252   22.0397 N   0  0  0  0  0  0
  -25.4304  -15.1882   20.4059 N   0  0  0  0  0  0
  -31.8600  -14.5912   20.1115 O   0  0  0  0  0  0
  -21.6634   -6.8878   21.4245 O   0  0  0  0  0  0
  -22.3547  -14.5553   20.6679 O   0  0  0  0  0  0
  -24.6099  -31.8706   23.2132 C   0  0  0  0  0  0
  -25.9011  -32.4837   23.8415 C   0  0  1  0  0  0
  -27.2422  -27.4640   20.1009 C   0  0  0  0  0  0
  -25.5886  -33.8637   24.2350 N   0  0  0  0  0  0
  -23.3973  -30.4936   21.5512 C   0  0  2  0  0  0
  -24.8478  -28.9634   20.1155 C   0  0  0  0  0  0
  -22.7389  -29.4665   22.4994 C   0  0  0  0  0  0
  -18.0265  -28.1375   22.8492 C   0  0  0  0  0  0
  -24.1486  -36.7323   23.2641 C   0  0  0  0  0  0
  -25.9209  -30.8469   21.3609 C   0  0  0  0  0  0
  -26.0025  -29.4804   20.7168 C   0  0  0  0  0  0
  -27.2023  -28.7380   20.7153 C   0  0  0  0  0  0
  -26.0774  -26.9629   19.4876 C   0  0  0  0  0  0
  -24.8780  -27.7000   19.4995 C   0  0  0  0  0  0
  -23.6064  -29.8251   20.1652 C   0  0  0  0  0  0
  -25.4105  -36.3121   24.0344 C   0  0  1  0  0  0
  -20.5851  -28.3655   23.1328 C   0  0  2  0  0  0
  -20.6753  -26.9393   22.5421 C   0  0  0  0  0  0
  -19.5736  -26.6385   21.5212 C   0  0  0  0  0  0
  -18.1914  -26.7923   22.1622 C   0  0  0  0  0  0
  -19.1513  -28.8830   23.2909 C   0  0  0  0  0  0
  -18.9446  -30.1437   23.8918 C   0  0  0  0  0  0
  -17.6449  -30.6583   24.0565 C   0  0  0  0  0  0
  -25.9027  -34.9487   23.5143 C   0  0  0  0  0  0
  -16.5340  -29.9089   23.6321 C   0  0  0  0  0  0
  -16.7257  -28.6504   23.0346 C   0  0  0  0  0  0
  -26.4470  -31.6595   25.0715 C   0  0  0  0  0  0
  -25.3763  -31.3675   26.1480 C   0  0  0  0  0  0
  -27.0296  -30.3050   24.6037 C   0  0  0  0  0  0
  -27.6060  -32.4305   25.7463 C   0  0  0  0  0  0
  -27.5583  -37.1811   24.8467 C   0  0  0  0  0  0
  -21.4119  -29.3031   22.3740 N   0  0  0  0  0  0
  -26.4294  -37.3800   23.9414 N   0  0  0  0  0  0
  -24.6605  -31.0841   22.1011 N   0  0  0  0  0  0
  -23.4176  -28.8206   23.3023 O   0  0  0  0  0  0
  -28.3641  -26.6693   20.0527 O   0  0  0  0  0  0
  -26.5583  -34.8929   22.4700 O   0  0  0  0  0  0
  -23.5301  -32.1441   23.7548 O   0  0  0  0  0  0
  -31.8234  -18.7140   20.3636 C   0  0  0  0  0  0
  -29.5333  -18.8865   19.5614 C   0  0  0  0  0  0
  -31.5443  -17.4379   20.8934 C   0  0  0  0  0  0
  -29.2517  -17.6082   20.0929 C   0  0  0  0  0  0
  -30.8370  -19.4211   19.6435 C   0  0  0  0  0  0
  -30.2750  -16.8456   20.6993 C   0  0  0  0  0  0
  -31.6100  -22.5336   20.4055 C   0  0  0  0  0  0
  -31.2327  -20.6477   18.8234 C   0  0  0  0  0  0
  -31.9766  -24.0199   20.2846 C   0  0  0  0  0  0
  -30.8286  -25.0235   20.0325 C   0  0  0  0  0  0
  -30.0449  -25.4405   21.2906 C   0  0  0  0  0  0
  -29.2918  -26.7750   21.1268 C   0  0  0  0  0  0
  -30.0196  -15.4877   21.0512 N   0  0  0  0  0  0
  -30.9710  -21.9800   19.3679 N   0  0  0  0  0  0
  -32.0301  -21.8786   21.3591 O   0  0  0  0  0  0
  -31.4625  -12.3648   19.1346 H   0  0  0  0  0  0
  -30.2967  -11.2769   19.8284 H   0  0  0  0  0  0
  -29.7355  -11.7764   17.4282 H   0  0  0  0  0  0
  -29.6697  -13.4857   17.7807 H   0  0  0  0  0  0
  -27.8252  -11.3066   18.8178 H   0  0  0  0  0  0
  -27.3665  -12.6339   17.7862 H   0  0  0  0  0  0
  -27.7044  -14.2518   19.5690 H   0  0  0  0  0  0
  -28.6669  -11.9639   21.3553 H   0  0  0  0  0  0
  -28.4672  -13.6119   21.8671 H   0  0  0  0  0  0
  -25.2758   -9.5691   22.4755 H   0  0  0  0  0  0
  -24.0005   -7.4635   22.7470 H   0  0  0  0  0  0
  -21.0838   -8.8772   19.8957 H   0  0  0  0  0  0
  -22.3688  -10.9674   19.6160 H   0  0  0  0  0  0
  -21.2000   -7.6147   23.9724 H   0  0  0  0  0  0
  -21.1486   -6.0517   25.9084 H   0  0  0  0  0  0
  -22.0596   -2.7606   23.2844 H   0  0  0  0  0  0
  -22.4087  -11.9920   22.4809 H   0  0  0  0  0  0
  -21.1106  -13.1291   22.2586 H   0  0  0  0  0  0
  -24.6615  -15.8424   20.5043 H   0  0  0  0  0  0
  -26.2768  -15.6243   20.0641 H   0  0  0  0  0  0
  -26.7078  -32.5582   23.1187 H   0  0  0  0  0  0
  -25.0040  -33.9803   25.0496 H   0  0  0  0  0  0
  -22.6839  -31.3088   21.4132 H   0  0  0  0  0  0
  -23.3741  -35.9664   23.3318 H   0  0  0  0  0  0
  -24.3579  -36.8916   22.2050 H   0  0  0  0  0  0
  -23.7244  -37.6539   23.6637 H   0  0  0  0  0  0
  -26.0225  -31.6095   20.5875 H   0  0  0  0  0  0
  -26.8127  -30.9094   21.9719 H   0  0  0  0  0  0
  -28.0872  -29.1531   21.1765 H   0  0  0  0  0  0
  -26.0992  -25.9933   19.0103 H   0  0  0  0  0  0
  -23.9918  -27.2951   19.0302 H   0  0  0  0  0  0
  -23.7118  -30.6002   19.4054 H   0  0  0  0  0  0
  -22.7320  -29.2417   19.8701 H   0  0  0  0  0  0
  -25.1276  -36.1995   25.0836 H   0  0  0  0  0  0
  -20.9947  -28.3220   24.1449 H   0  0  0  0  0  0
  -20.5652  -26.2262   23.3603 H   0  0  0  0  0  0
  -21.6628  -26.7440   22.1219 H   0  0  0  0  0  0
  -19.6899  -25.6304   21.1224 H   0  0  0  0  0  0
  -19.6678  -27.3209   20.6754 H   0  0  0  0  0  0
  -17.4185  -26.6673   21.4022 H   0  0  0  0  0  0
  -18.0315  -26.0060   22.9014 H   0  0  0  0  0  0
  -19.7924  -30.7242   24.2302 H   0  0  0  0  0  0
  -17.5011  -31.6266   24.5164 H   0  0  0  0  0  0
  -15.5344  -30.3002   23.7637 H   0  0  0  0  0  0
  -15.8654  -28.0838   22.7047 H   0  0  0  0  0  0
  -24.5933  -30.7022   25.7825 H   0  0  0  0  0  0
  -24.8961  -32.2819   26.4971 H   0  0  0  0  0  0
  -25.8147  -30.8821   27.0209 H   0  0  0  0  0  0
  -26.2811  -29.6800   24.1150 H   0  0  0  0  0  0
  -27.4159  -29.7286   25.4454 H   0  0  0  0  0  0
  -27.8605  -30.4391   23.9106 H   0  0  0  0  0  0
  -27.2689  -33.3586   26.2090 H   0  0  0  0  0  0
  -28.3839  -32.6891   25.0268 H   0  0  0  0  0  0
  -28.0762  -31.8399   26.5334 H   0  0  0  0  0  0
  -28.2610  -38.0100   24.7510 H   0  0  0  0  0  0
  -28.1065  -36.2633   24.6293 H   0  0  0  0  0  0
  -27.2302  -37.1466   25.8870 H   0  0  0  0  0  0
  -20.9267  -29.8768   21.6983 H   0  0  0  0  0  0
  -26.0190  -38.2880   24.1415 H   0  0  0  0  0  0
  -32.8227  -19.1174   20.4519 H   0  0  0  0  0  0
  -28.7642  -19.4194   19.0204 H   0  0  0  0  0  0
  -32.3360  -16.8889   21.3846 H   0  0  0  0  0  0
  -28.2649  -17.1887   19.9575 H   0  0  0  0  0  0
  -30.7226  -20.5837   17.8614 H   0  0  0  0  0  0
  -32.2951  -20.5787   18.5804 H   0  0  0  0  0  0
  -32.6778  -24.0897   19.4519 H   0  0  0  0  0  0
  -32.5499  -24.3229   21.1617 H   0  0  0  0  0  0
  -30.1401  -24.6508   19.2729 H   0  0  0  0  0  0
  -31.2763  -25.9191   19.5989 H   0  0  0  0  0  0
  -30.7335  -25.5497   22.1297 H   0  0  0  0  0  0
  -29.3486  -24.6493   21.5715 H   0  0  0  0  0  0
  -29.9895  -27.5905   20.9300 H   0  0  0  0  0  0
  -28.7823  -26.9999   22.0658 H   0  0  0  0  0  0
  -29.0794  -15.2601   21.3364 H   0  0  0  0  0  0
  -30.5982  -22.6364   18.6948 H   0  0  0  0  0  0
  1 25  1  0  0  0
  1 30  2  0  0  0
  1 83  1  0  0  0
  2  3  1  0  0  0
  2 25  1  0  0  0
  2 86  1  0  0  0
  2 87  1  0  0  0
  3  4  1  0  0  0
  3 88  1  0  0  0
  3 89  1  0  0  0
  4  5  1  0  0  0
  4 90  1  0  0  0
  4 91  1  0  0  0
  5  6  1  0  0  0
  5 26  1  0  0  0
  5 92  1  0  0  0
  6 25  1  0  0  0
  6 93  1  0  0  0
  6 94  1  0  0  0
  7  8  2  0  0  0
  7 26  1  0  0  0
  7 29  1  0  0  0
  8  9  1  0  0  0
  8 22  1  0  0  0
  9 10  1  0  0  0
  9 27  2  0  0  0
 10 11  2  0  0  0
 10 15  1  0  0  0
 11 12  1  0  0  0
 11 95  1  0  0  0
 12 13  2  0  0  0
 12 96  1  0  0  0
 13 14  1  0  0  0
 13 31  1  0  0  0
 14 15  2  0  0  0
 14 97  1  0  0  0
 15 98  1  0  0  0
 16 17  2  0  0  0
 16 21  1  0  0  0
 16 31  1  0  0  0
 17 18  1  0  0  0
 17 99  1  0  0  0
 18 19  2  0  0  0
 18100  1  0  0  0
 19 20  1  0  0  0
 19 24  1  0  0  0
 20 21  2  0  0  0
 20101  1  0  0  0
 21 23  1  0  0  0
 22 28  1  0  0  0
 22 32  2  0  0  0
 26 27  1  0  0  0
 28102  1  0  0  0
 28103  1  0  0  0
 29104  1  0  0  0
 29105  1  0  0  0
 33 34  1  0  0  0
 33 66  1  0  0  0
 33 70  2  0  0  0
 34 36  1  0  0  0
 34 59  1  0  0  0
 34106  1  0  0  0
 35 44  2  0  0  0
 35 45  1  0  0  0
 35 68  1  0  0  0
 36 56  1  0  0  0
 36107  1  0  0  0
 37 39  1  0  0  0
 37 47  1  0  0  0
 37 66  1  0  0  0
 37108  1  0  0  0
 38 43  2  0  0  0
 38 46  1  0  0  0
 38 47  1  0  0  0
 39 64  1  0  0  0
 39 67  2  0  0  0
 40 52  1  0  0  0
 40 53  2  0  0  0
 40 58  1  0  0  0
 41109  1  0  0  0
 41110  1  0  0  0
 41111  1  0  0  0
 41 48  1  0  0  0
 42 43  1  0  0  0
 42 66  1  0  0  0
 42112  1  0  0  0
 42113  1  0  0  0
 43 44  1  0  0  0
 44114  1  0  0  0
 45 46  2  0  0  0
 45115  1  0  0  0
 46116  1  0  0  0
 47117  1  0  0  0
 47118  1  0  0  0
 48 56  1  0  0  0
 48 65  1  0  0  0
 48119  1  0  0  0
 49 50  1  0  0  0
 49 53  1  0  0  0
 49 64  1  0  0  0
 49120  1  0  0  0
 50 51  1  0  0  0
 50121  1  0  0  0
 50122  1  0  0  0
 51 52  1  0  0  0
 51123  1  0  0  0
 51124  1  0  0  0
 52125  1  0  0  0
 52126  1  0  0  0
 53 54  1  0  0  0
 54 55  2  0  0  0
 54127  1  0  0  0
 55 57  1  0  0  0
 55128  1  0  0  0
 56 69  2  0  0  0
 57 58  2  0  0  0
 57129  1  0  0  0
 58130  1  0  0  0
 59 60  1  0  0  0
 59 61  1  0  0  0
 59 62  1  0  0  0
 60131  1  0  0  0
 60132  1  0  0  0
 60133  1  0  0  0
 61134  1  0  0  0
 61135  1  0  0  0
 61136  1  0  0  0
 62137  1  0  0  0
 62138  1  0  0  0
 62139  1  0  0  0
 63 65  1  0  0  0
 63140  1  0  0  0
 63141  1  0  0  0
 63142  1  0  0  0
 64143  1  0  0  0
 65144  1  0  0  0
 68 82  1  0  0  0
 71 73  2  0  0  0
 71 75  1  0  0  0
 71145  1  0  0  0
 72 74  1  0  0  0
 72 75  2  0  0  0
 72146  1  0  0  0
 73 76  1  0  0  0
 73147  1  0  0  0
 74 76  2  0  0  0
 74148  1  0  0  0
 75 78  1  0  0  0
 76 83  1  0  0  0
 77 79  1  0  0  0
 77 84  1  0  0  0
 77 85  2  0  0  0
 78 84  1  0  0  0
 78149  1  0  0  0
 78150  1  0  0  0
 79 80  1  0  0  0
 79151  1  0  0  0
 79152  1  0  0  0
 80 81  1  0  0  0
 80153  1  0  0  0
 80154  1  0  0  0
 81 82  1  0  0  0
 81155  1  0  0  0
 81156  1  0  0  0
 82157  1  0  0  0
 82158  1  0  0  0
 83159  1  0  0  0
 84160  1  0  0  0
M  ISO  4   1 100  68 101  82 101  83 100
M  END
> <chiral flag>
0

> <version>
0

> <s_m_source_file>
/data/baiqing/PycharmProjects/Reinvent-master-3.2/result/LINK_invent/BTK/process_docking_weight1_custom_product_contain_oxygen_bond_distance_aromatic_linkinvent_7_9_3/rearranged_h_0058.sdf

> <i_m_source_file_index>
91

> <r_mmod_Potential_Energy-OPLS-2005>
-103.342330932617

> <r_mmod_Stretch_Energy-OPLS-2005>
33.2372741699219

> <r_mmod_Bend_Energy-OPLS-2005>
100.974159240723

> <r_mmod_Torsional_Energy-OPLS-2005>
259.017944335938

> <r_mmod_Improper_Torsional_Energy-OPLS-2005>
9.57670593261719

> <r_mmod_Van_der_Waal_Energy-OPLS-2005>
150.210876464844

> <r_mmod_Electrostatic_Energy-OPLS-2005>
-424.616790771484

> <r_mmod_Solvation_Energy-OPLS-2005>
-242.922943115234

> <b_mmod_Minimization_Converged-OPLS-2005>
0

> <r_mmod_RMS_Derivative-OPLS-2005>
1.03915452957153

$$$$
91
                    3D
 Structure written by MMmdl.
167176  0  0  1  0            999 V2000
  -30.6704  -14.5094   20.5760 C   0  0  0  0  0  0
  -30.4320  -12.3275   19.4285 C   0  0  0  0  0  0
  -29.5012  -12.5185   18.2114 C   0  0  0  0  0  0
  -28.0212  -12.3719   18.6198 C   0  0  0  0  0  0
  -27.6642  -13.2071   19.8786 C   0  0  2  0  0  0
  -28.7041  -12.9782   20.9987 C   0  0  0  0  0  0
  -25.2570  -13.8140   20.5633 C   0  0  0  0  0  0
  -24.1837  -13.0421   20.9189 C   0  0  0  0  0  0
  -24.6398  -11.6891   20.8748 C   0  0  0  0  0  0
  -23.9054  -10.4276   21.0415 C   0  0  0  0  0  0
  -24.3600   -9.4189   21.9198 C   0  0  0  0  0  0
  -23.6267   -8.2225   22.0763 C   0  0  0  0  0  0
  -22.4249   -8.0271   21.3550 C   0  0  0  0  0  0
  -21.9895   -9.0244   20.4654 C   0  0  0  0  0  0
  -22.7225  -10.2119   20.3067 C   0  0  0  0  0  0
  -21.6838   -6.0726   22.5284 C   0  0  0  0  0  0
  -21.4007   -6.5626   23.8218 C   0  0  0  0  0  0
  -21.3659   -5.6789   24.9183 C   0  0  0  0  0  0
  -21.6049   -4.3053   24.7234 C   0  0  0  0  0  0
  -21.8810   -3.8144   23.4353 C   0  0  0  0  0  0
  -21.9187   -4.6960   22.3408 C   0  0  0  0  0  0
  -22.7856  -13.5230   21.1854 C   0  0  0  0  0  0
  -22.1661   -4.2143   21.0986 F   0  0  0  0  0  0
  -21.5622   -3.4539   25.7752 F   0  0  0  0  0  0
  -30.0375  -13.3054   20.4572 N   0  0  0  0  0  0
  -26.3030  -12.9328   20.3365 N   0  0  0  0  0  0
  -25.9329  -11.6486   20.5770 N   0  0  0  0  0  0
  -22.0466  -12.8237   22.0399 N   0  0  0  0  0  0
  -25.4245  -15.1843   20.3930 N   0  0  0  0  0  0
  -31.7799  -14.7261   20.0775 O   0  0  0  0  0  0
  -21.6619   -6.8867   21.4246 O   0  0  0  0  0  0
  -22.3561  -14.5545   20.6701 O   0  0  0  0  0  0
  -24.6184  -31.8662   23.2084 C   0  0  0  0  0  0
  -25.9073  -32.4805   23.8383 C   0  0  1  0  0  0
  -27.2388  -27.4156   20.0689 C   0  0  0  0  0  0
  -25.5929  -33.8604   24.2324 N   0  0  0  0  0  0
  -23.4048  -30.4914   21.5510 C   0  0  2  0  0  0
  -24.8475  -28.9552   20.1163 C   0  0  0  0  0  0
  -22.7416  -29.4650   22.4979 C   0  0  0  0  0  0
  -18.0270  -28.1357   22.8470 C   0  0  0  0  0  0
  -24.1487  -36.7305   23.2632 C   0  0  0  0  0  0
  -25.9378  -30.8260   21.3615 C   0  0  0  0  0  0
  -26.0143  -29.4604   20.7036 C   0  0  0  0  0  0
  -27.2082  -28.6983   20.6757 C   0  0  0  0  0  0
  -26.0366  -26.9243   19.5042 C   0  0  0  0  0  0
  -24.8541  -27.6855   19.5205 C   0  0  0  0  0  0
  -23.6118  -29.8248   20.1662 C   0  0  0  0  0  0
  -25.4108  -36.3096   24.0329 C   0  0  1  0  0  0
  -20.5870  -28.3646   23.1300 C   0  0  2  0  0  0
  -20.6769  -26.9377   22.5407 C   0  0  0  0  0  0
  -19.5753  -26.6359   21.5194 C   0  0  0  0  0  0
  -18.1927  -26.7901   22.1603 C   0  0  0  0  0  0
  -19.1524  -28.8815   23.2886 C   0  0  0  0  0  0
  -18.9455  -30.1418   23.8897 C   0  0  0  0  0  0
  -17.6463  -30.6572   24.0547 C   0  0  0  0  0  0
  -25.9033  -34.9464   23.5118 C   0  0  0  0  0  0
  -16.5350  -29.9071   23.6322 C   0  0  0  0  0  0
  -16.7260  -28.6489   23.0339 C   0  0  0  0  0  0
  -26.4483  -31.6582   25.0720 C   0  0  0  0  0  0
  -25.3753  -31.3712   26.1474 C   0  0  0  0  0  0
  -27.0303  -30.3014   24.6110 C   0  0  0  0  0  0
  -27.6052  -32.4299   25.7500 C   0  0  0  0  0  0
  -27.5577  -37.1807   24.8456 C   0  0  0  0  0  0
  -21.4143  -29.3034   22.3727 N   0  0  0  0  0  0
  -26.4285  -37.3789   23.9408 N   0  0  0  0  0  0
  -24.6727  -31.0744   22.0994 N   0  0  0  0  0  0
  -23.4194  -28.8163   23.2995 O   0  0  0  0  0  0
  -28.4299  -26.6967   20.0755 O   0  0  0  0  0  0
  -26.5576  -34.8913   22.4662 O   0  0  0  0  0  0
  -23.5375  -32.1426   23.7476 O   0  0  0  0  0  0
  -30.6008  -19.0556   20.1269 C   0  0  0  0  0  0
  -30.7662  -17.6534   20.2601 C   0  0  0  0  0  0
  -28.7135  -18.9828   21.6388 C   0  0  0  0  0  0
  -28.8826  -17.5842   21.7911 C   0  0  0  0  0  0
  -29.5634  -19.7466   20.8052 C   0  0  0  0  0  0
  -29.9007  -16.8893   21.0857 C   0  0  0  0  0  0
  -30.3235  -22.0915   20.7874 C   0  0  0  0  0  0
  -28.1015  -24.4392   21.7660 C   0  0  0  0  0  0
  -30.0960  -23.5768   20.4026 C   0  0  0  0  0  0
  -27.7837  -22.9678   19.7130 C   0  0  0  0  0  0
  -27.9392  -21.6082   20.4351 C   0  0  0  0  0  0
  -28.6250  -24.1048   20.3472 C   0  0  1  0  0  0
  -27.9440  -16.8396   22.7263 C   0  0  0  0  0  0
  -26.2598  -25.4022   22.9417 C   0  0  0  0  0  0
  -28.5319  -25.3976   19.4351 C   0  0  0  0  0  0
  -29.3336  -21.1666   20.6240 N   0  0  0  0  0  0
  -29.9583  -15.4558   21.2284 N   0  0  0  0  0  0
  -31.4473  -21.7895   21.2033 O   0  0  0  0  0  0
  -28.8150  -24.3624   22.7703 O   0  0  0  0  0  0
  -26.8162  -24.8283   21.7715 O   0  0  0  0  0  0
  -31.4762  -12.4363   19.1289 H   0  0  0  0  0  0
  -30.3406  -11.3138   19.8219 H   0  0  0  0  0  0
  -29.7467  -11.7991   17.4287 H   0  0  0  0  0  0
  -29.6649  -13.5065   17.7778 H   0  0  0  0  0  0
  -27.8319  -11.3148   18.8101 H   0  0  0  0  0  0
  -27.3729  -12.6481   17.7870 H   0  0  0  0  0  0
  -27.7125  -14.2569   19.5883 H   0  0  0  0  0  0
  -28.6870  -11.9351   21.3184 H   0  0  0  0  0  0
  -28.4494  -13.5524   21.8903 H   0  0  0  0  0  0
  -25.2733   -9.5651   22.4792 H   0  0  0  0  0  0
  -23.9970   -7.4605   22.7472 H   0  0  0  0  0  0
  -21.0834   -8.8747   19.8954 H   0  0  0  0  0  0
  -22.3673  -10.9654   19.6179 H   0  0  0  0  0  0
  -21.1991   -7.6134   23.9720 H   0  0  0  0  0  0
  -21.1500   -6.0522   25.9090 H   0  0  0  0  0  0
  -22.0592   -2.7611   23.2855 H   0  0  0  0  0  0
  -22.4041  -11.9891   22.4811 H   0  0  0  0  0  0
  -21.1096  -13.1298   22.2607 H   0  0  0  0  0  0
  -24.6504  -15.8333   20.4764 H   0  0  0  0  0  0
  -26.2692  -15.6188   20.0436 H   0  0  0  0  0  0
  -26.7145  -32.5500   23.1142 H   0  0  0  0  0  0
  -25.0127  -33.9761   25.0502 H   0  0  0  0  0  0
  -22.6962  -31.3109   21.4123 H   0  0  0  0  0  0
  -23.3746  -35.9642   23.3293 H   0  0  0  0  0  0
  -24.3584  -36.8922   22.2048 H   0  0  0  0  0  0
  -23.7247  -37.6510   23.6647 H   0  0  0  0  0  0
  -26.0535  -31.5952   20.5964 H   0  0  0  0  0  0
  -26.8253  -30.8762   21.9811 H   0  0  0  0  0  0
  -28.1109  -29.0924   21.1221 H   0  0  0  0  0  0
  -25.9594  -25.9447   19.0622 H   0  0  0  0  0  0
  -23.9513  -27.2809   19.0844 H   0  0  0  0  0  0
  -23.7227  -30.5997   19.4066 H   0  0  0  0  0  0
  -22.7349  -29.2463   19.8695 H   0  0  0  0  0  0
  -25.1290  -36.1945   25.0824 H   0  0  0  0  0  0
  -20.9964  -28.3196   24.1419 H   0  0  0  0  0  0
  -20.5647  -26.2243   23.3587 H   0  0  0  0  0  0
  -21.6645  -26.7399   22.1222 H   0  0  0  0  0  0
  -19.6918  -25.6271   21.1209 H   0  0  0  0  0  0
  -19.6704  -27.3172   20.6728 H   0  0  0  0  0  0
  -17.4202  -26.6623   21.4003 H   0  0  0  0  0  0
  -18.0342  -26.0044   22.9007 H   0  0  0  0  0  0
  -19.7937  -30.7217   24.2284 H   0  0  0  0  0  0
  -17.5027  -31.6258   24.5132 H   0  0  0  0  0  0
  -15.5354  -30.2977   23.7652 H   0  0  0  0  0  0
  -15.8654  -28.0813   22.7058 H   0  0  0  0  0  0
  -24.5926  -30.7048   25.7835 H   0  0  0  0  0  0
  -24.8948  -32.2879   26.4903 H   0  0  0  0  0  0
  -25.8121  -30.8909   27.0239 H   0  0  0  0  0  0
  -26.2860  -29.6792   24.1133 H   0  0  0  0  0  0
  -27.4021  -29.7238   25.4581 H   0  0  0  0  0  0
  -27.8714  -30.4318   23.9302 H   0  0  0  0  0  0
  -27.2668  -33.3592   26.2099 H   0  0  0  0  0  0
  -28.3870  -32.6871   25.0342 H   0  0  0  0  0  0
  -28.0709  -31.8407   26.5410 H   0  0  0  0  0  0
  -28.2585  -38.0115   24.7522 H   0  0  0  0  0  0
  -28.1084  -36.2646   24.6261 H   0  0  0  0  0  0
  -27.2293  -37.1439   25.8858 H   0  0  0  0  0  0
  -20.9287  -29.8812   21.7009 H   0  0  0  0  0  0
  -26.0162  -38.2856   24.1425 H   0  0  0  0  0  0
  -31.2690  -19.5989   19.4732 H   0  0  0  0  0  0
  -31.5614  -17.1799   19.7028 H   0  0  0  0  0  0
  -27.9198  -19.4770   22.1809 H   0  0  0  0  0  0
  -30.5483  -23.6658   19.4155 H   0  0  0  0  0  0
  -30.7069  -24.2073   21.0498 H   0  0  0  0  0  0
  -26.7278  -23.2442   19.6859 H   0  0  0  0  0  0
  -28.0748  -22.8432   18.6695 H   0  0  0  0  0  0
  -27.3972  -20.8492   19.8693 H   0  0  0  0  0  0
  -27.4569  -21.6565   21.4117 H   0  0  0  0  0  0
  -28.5112  -16.2819   23.4720 H   0  0  0  0  0  0
  -27.3198  -16.1390   22.1733 H   0  0  0  0  0  0
  -27.2861  -17.5249   23.2616 H   0  0  0  0  0  0
  -25.2091  -25.6405   22.7741 H   0  0  0  0  0  0
  -26.7771  -26.3310   23.1885 H   0  0  0  0  0  0
  -26.3284  -24.7262   23.7940 H   0  0  0  0  0  0
  -27.8099  -25.2566   18.6353 H   0  0  0  0  0  0
  -29.4534  -25.4756   18.8604 H   0  0  0  0  0  0
  -29.1706  -15.0643   21.7201 H   0  0  0  0  0  0
  1 25  1  0  0  0
  1 30  2  0  0  0
  1 87  1  0  0  0
  2  3  1  0  0  0
  2 25  1  0  0  0
  2 91  1  0  0  0
  2 92  1  0  0  0
  3  4  1  0  0  0
  3 93  1  0  0  0
  3 94  1  0  0  0
  4  5  1  0  0  0
  4 95  1  0  0  0
  4 96  1  0  0  0
  5  6  1  0  0  0
  5 26  1  0  0  0
  5 97  1  0  0  0
  6 25  1  0  0  0
  6 98  1  0  0  0
  6 99  1  0  0  0
  7  8  2  0  0  0
  7 26  1  0  0  0
  7 29  1  0  0  0
  8  9  1  0  0  0
  8 22  1  0  0  0
  9 10  1  0  0  0
  9 27  2  0  0  0
 10 11  2  0  0  0
 10 15  1  0  0  0
 11 12  1  0  0  0
 11100  1  0  0  0
 12 13  2  0  0  0
 12101  1  0  0  0
 13 14  1  0  0  0
 13 31  1  0  0  0
 14 15  2  0  0  0
 14102  1  0  0  0
 15103  1  0  0  0
 16 17  2  0  0  0
 16 21  1  0  0  0
 16 31  1  0  0  0
 17 18  1  0  0  0
 17104  1  0  0  0
 18 19  2  0  0  0
 18105  1  0  0  0
 19 20  1  0  0  0
 19 24  1  0  0  0
 20 21  2  0  0  0
 20106  1  0  0  0
 21 23  1  0  0  0
 22 28  1  0  0  0
 22 32  2  0  0  0
 26 27  1  0  0  0
 28107  1  0  0  0
 28108  1  0  0  0
 29109  1  0  0  0
 29110  1  0  0  0
 33 34  1  0  0  0
 33 66  1  0  0  0
 33 70  2  0  0  0
 34 36  1  0  0  0
 34 59  1  0  0  0
 34111  1  0  0  0
 35 44  2  0  0  0
 35 45  1  0  0  0
 35 68  1  0  0  0
 36 56  1  0  0  0
 36112  1  0  0  0
 37 39  1  0  0  0
 37 47  1  0  0  0
 37 66  1  0  0  0
 37113  1  0  0  0
 38 43  2  0  0  0
 38 46  1  0  0  0
 38 47  1  0  0  0
 39 64  1  0  0  0
 39 67  2  0  0  0
 40 52  1  0  0  0
 40 53  2  0  0  0
 40 58  1  0  0  0
 41114  1  0  0  0
 41115  1  0  0  0
 41116  1  0  0  0
 41 48  1  0  0  0
 42 43  1  0  0  0
 42 66  1  0  0  0
 42117  1  0  0  0
 42118  1  0  0  0
 43 44  1  0  0  0
 44119  1  0  0  0
 45 46  2  0  0  0
 45120  1  0  0  0
 46121  1  0  0  0
 47122  1  0  0  0
 47123  1  0  0  0
 48 56  1  0  0  0
 48 65  1  0  0  0
 48124  1  0  0  0
 49 50  1  0  0  0
 49 53  1  0  0  0
 49 64  1  0  0  0
 49125  1  0  0  0
 50 51  1  0  0  0
 50126  1  0  0  0
 50127  1  0  0  0
 51 52  1  0  0  0
 51128  1  0  0  0
 51129  1  0  0  0
 52130  1  0  0  0
 52131  1  0  0  0
 53 54  1  0  0  0
 54 55  2  0  0  0
 54132  1  0  0  0
 55 57  1  0  0  0
 55133  1  0  0  0
 56 69  2  0  0  0
 57 58  2  0  0  0
 57134  1  0  0  0
 58135  1  0  0  0
 59 60  1  0  0  0
 59 61  1  0  0  0
 59 62  1  0  0  0
 60136  1  0  0  0
 60137  1  0  0  0
 60138  1  0  0  0
 61139  1  0  0  0
 61140  1  0  0  0
 61141  1  0  0  0
 62142  1  0  0  0
 62143  1  0  0  0
 62144  1  0  0  0
 63 65  1  0  0  0
 63145  1  0  0  0
 63146  1  0  0  0
 63147  1  0  0  0
 64148  1  0  0  0
 65149  1  0  0  0
 68 85  1  0  0  0
 71 72  2  0  0  0
 71 75  1  0  0  0
 71150  1  0  0  0
 72 76  1  0  0  0
 72151  1  0  0  0
 73 74  1  0  0  0
 73 75  2  0  0  0
 73152  1  0  0  0
 74 76  2  0  0  0
 74 83  1  0  0  0
 75 86  1  0  0  0
 76 87  1  0  0  0
 77 79  1  0  0  0
 77 86  1  0  0  0
 77 88  2  0  0  0
 78 89  2  0  0  0
 78 90  1  0  0  0
 78 82  1  0  0  0
 79 82  1  0  0  0
 79153  1  0  0  0
 79154  1  0  0  0
 80 81  1  0  0  0
 80 82  1  0  0  0
 80155  1  0  0  0
 80156  1  0  0  0
 81 86  1  0  0  0
 81157  1  0  0  0
 81158  1  0  0  0
 82 85  1  0  0  0
 83159  1  0  0  0
 83160  1  0  0  0
 83161  1  0  0  0
 84 90  1  0  0  0
 84162  1  0  0  0
 84163  1  0  0  0
 84164  1  0  0  0
 85165  1  0  0  0
 85166  1  0  0  0
 87167  1  0  0  0
M  ISO  4   1 100  68 101  85 101  87 100
M  END
> <chiral flag>
0

> <version>
0

> <s_m_source_file>
/data/baiqing/PycharmProjects/Reinvent-master-3.2/result/LINK_invent/BTK/process_docking_weight1_custom_product_contain_oxygen_bond_distance_aromatic_linkinvent_7_9_3/rearranged_h_0058.sdf

> <i_m_source_file_index>
92

> <r_mmod_Potential_Energy-OPLS-2005>
-18.7843151092529

> <r_mmod_Stretch_Energy-OPLS-2005>
55.947395324707

> <r_mmod_Bend_Energy-OPLS-2005>
136.756698608398

> <r_mmod_Torsional_Energy-OPLS-2005>
270.117370605469

> <r_mmod_Improper_Torsional_Energy-OPLS-2005>
3.74955987930298

> <r_mmod_Van_der_Waal_Energy-OPLS-2005>
170.082916259766

> <r_mmod_Electrostatic_Energy-OPLS-2005>
-440.413330078125

> <r_mmod_Solvation_Energy-OPLS-2005>
-230.582107543945

> <b_mmod_Minimization_Converged-OPLS-2005>
0

> <r_mmod_RMS_Derivative-OPLS-2005>
1.78068256378174

$$$$
92
                    3D
 Structure written by MMmdl.
161170  0  0  1  0            999 V2000
  -30.5306  -14.9009   20.4228 C   0  0  0  0  0  0
  -30.4508  -12.5539   19.4852 C   0  0  0  0  0  0
  -29.5207  -12.5091   18.2505 C   0  0  0  0  0  0
  -28.0536  -12.2930   18.6685 C   0  0  0  0  0  0
  -27.6328  -13.2267   19.8304 C   0  0  2  0  0  0
  -28.6761  -13.2336   20.9701 C   0  0  0  0  0  0
  -25.2532  -13.8163   20.5700 C   0  0  0  0  0  0
  -24.1816  -13.0432   20.9218 C   0  0  0  0  0  0
  -24.6373  -11.6896   20.8713 C   0  0  0  0  0  0
  -23.9031  -10.4283   21.0361 C   0  0  0  0  0  0
  -24.3582   -9.4199   21.9128 C   0  0  0  0  0  0
  -23.6277   -8.2228   22.0719 C   0  0  0  0  0  0
  -22.4275   -8.0247   21.3507 C   0  0  0  0  0  0
  -21.9875   -9.0215   20.4629 C   0  0  0  0  0  0
  -22.7192  -10.2109   20.3034 C   0  0  0  0  0  0
  -21.6852   -6.0723   22.5264 C   0  0  0  0  0  0
  -21.4031   -6.5642   23.8199 C   0  0  0  0  0  0
  -21.3660   -5.6802   24.9167 C   0  0  0  0  0  0
  -21.6031   -4.3058   24.7236 C   0  0  0  0  0  0
  -21.8818   -3.8142   23.4370 C   0  0  0  0  0  0
  -21.9213   -4.6943   22.3420 C   0  0  0  0  0  0
  -22.7862  -13.5231   21.1847 C   0  0  0  0  0  0
  -22.1667   -4.2127   21.0993 F   0  0  0  0  0  0
  -21.5607   -3.4546   25.7741 F   0  0  0  0  0  0
  -29.9654  -13.6312   20.3837 N   0  0  0  0  0  0
  -26.2901  -12.9344   20.3191 N   0  0  0  0  0  0
  -25.9295  -11.6503   20.5697 N   0  0  0  0  0  0
  -22.0505  -12.8254   22.0411 N   0  0  0  0  0  0
  -25.4244  -15.1880   20.4094 N   0  0  0  0  0  0
  -31.7320  -15.0219   20.1514 O   0  0  0  0  0  0
  -21.6650   -6.8844   21.4221 O   0  0  0  0  0  0
  -22.3534  -14.5514   20.6663 O   0  0  0  0  0  0
  -24.6405  -31.8444   23.1902 C   0  0  0  0  0  0
  -25.9159  -32.4713   23.8287 C   0  0  1  0  0  0
  -27.2298  -27.1485   20.1444 C   0  0  0  0  0  0
  -25.5912  -33.8517   24.2199 N   0  0  0  0  0  0
  -23.4484  -30.4630   21.5317 C   0  0  2  0  0  0
  -24.9013  -28.8933   20.1083 C   0  0  0  0  0  0
  -22.7591  -29.4524   22.4827 C   0  0  0  0  0  0
  -18.0320  -28.1358   22.8484 C   0  0  0  0  0  0
  -24.1484  -36.7269   23.2635 C   0  0  0  0  0  0
  -26.0021  -30.7228   21.3882 C   0  0  0  0  0  0
  -26.0736  -29.3334   20.7326 C   0  0  0  0  0  0
  -27.2325  -28.4724   20.7415 C   0  0  0  0  0  0
  -26.0313  -26.8152   19.4716 C   0  0  0  0  0  0
  -24.8920  -27.6482   19.4649 C   0  0  0  0  0  0
  -23.6806  -29.7961   20.1494 C   0  0  0  0  0  0
  -25.4113  -36.3042   24.0320 C   0  0  1  0  0  0
  -20.5936  -28.3691   23.1231 C   0  0  2  0  0  0
  -20.6783  -26.9390   22.5405 C   0  0  0  0  0  0
  -19.5767  -26.6359   21.5197 C   0  0  0  0  0  0
  -18.1954  -26.7893   22.1631 C   0  0  0  0  0  0
  -19.1575  -28.8843   23.2854 C   0  0  0  0  0  0
  -18.9480  -30.1427   23.8893 C   0  0  0  0  0  0
  -17.6482  -30.6565   24.0548 C   0  0  0  0  0  0
  -25.9063  -34.9422   23.5084 C   0  0  0  0  0  0
  -16.5377  -29.9064   23.6307 C   0  0  0  0  0  0
  -16.7307  -28.6470   23.0355 C   0  0  0  0  0  0
  -26.4502  -31.6578   25.0717 C   0  0  0  0  0  0
  -25.3733  -31.3750   26.1456 C   0  0  0  0  0  0
  -27.0316  -30.2974   24.6244 C   0  0  0  0  0  0
  -27.6052  -32.4330   25.7487 C   0  0  0  0  0  0
  -27.5577  -37.1783   24.8455 C   0  0  0  0  0  0
  -21.4276  -29.3030   22.3601 N   0  0  0  0  0  0
  -26.4269  -37.3764   23.9429 N   0  0  0  0  0  0
  -24.7165  -31.0335   22.0917 N   0  0  0  0  0  0
  -23.4247  -28.8068   23.2960 O   0  0  0  0  0  0
  -28.2987  -26.1874   20.2712 O   0  0  0  0  0  0
  -26.5674  -34.8928   22.4679 O   0  0  0  0  0  0
  -23.5529  -32.1260   23.7162 O   0  0  0  0  0  0
  -30.4062  -19.9253   20.6689 C   0  0  0  0  0  0
  -30.6011  -18.4863   20.8082 C   0  0  0  0  0  0
  -28.4762  -18.1420   19.8424 C   0  0  0  0  0  0
  -28.2734  -19.5659   19.6500 C   0  0  0  0  0  0
  -29.2432  -20.5542   20.0828 C   0  0  0  0  0  0
  -29.6395  -17.5088   20.3893 C   0  0  0  0  0  0
  -29.6763  -22.2849   18.4245 C   0  0  0  0  0  0
  -27.0100  -19.9661   18.9527 C   0  0  0  0  0  0
  -29.3460  -23.5918   17.6897 C   0  0  0  0  0  0
  -29.3356  -24.8497   18.5666 C   0  0  0  0  0  0
  -28.7445  -23.3080   20.4862 C   0  0  0  0  0  0
  -28.3323  -24.7379   19.7100 C   0  0  1  0  0  0
  -26.5381  -19.1051   17.7814 C   0  0  0  0  0  0
  -26.3335  -20.9834   19.2804 N   0  0  0  0  0  0
  -29.1847  -22.0355   19.6685 N   0  0  0  0  0  0
  -29.6542  -15.9931   20.5687 N   0  0  0  0  0  0
  -30.3716  -21.4659   17.8091 O   0  0  0  0  0  0
  -31.4802  -12.7277   19.1696 H   0  0  0  0  0  0
  -30.4477  -11.5982   20.0114 H   0  0  0  0  0  0
  -29.8355  -11.7061   17.5819 H   0  0  0  0  0  0
  -29.6080  -13.4380   17.6857 H   0  0  0  0  0  0
  -27.9580  -11.2526   18.9841 H   0  0  0  0  0  0
  -27.3877  -12.4107   17.8112 H   0  0  0  0  0  0
  -27.5996  -14.2270   19.3966 H   0  0  0  0  0  0
  -28.7537  -12.2543   21.4448 H   0  0  0  0  0  0
  -28.3737  -13.9256   21.7552 H   0  0  0  0  0  0
  -25.2709   -9.5692   22.4707 H   0  0  0  0  0  0
  -23.9967   -7.4651   22.7476 H   0  0  0  0  0  0
  -21.0775   -8.8735   19.8978 H   0  0  0  0  0  0
  -22.3589  -10.9635   19.6163 H   0  0  0  0  0  0
  -21.2020   -7.6154   23.9699 H   0  0  0  0  0  0
  -21.1476   -6.0533   25.9053 H   0  0  0  0  0  0
  -22.0595   -2.7611   23.2898 H   0  0  0  0  0  0
  -22.4173  -11.9986   22.4878 H   0  0  0  0  0  0
  -21.1086  -13.1214   22.2545 H   0  0  0  0  0  0
  -24.6518  -15.8376   20.5114 H   0  0  0  0  0  0
  -26.2547  -15.6123   20.0207 H   0  0  0  0  0  0
  -26.7228  -32.5322   23.1020 H   0  0  0  0  0  0
  -25.0023  -33.9623   25.0323 H   0  0  0  0  0  0
  -22.7480  -31.2859   21.3750 H   0  0  0  0  0  0
  -23.3757  -35.9589   23.3264 H   0  0  0  0  0  0
  -24.3559  -36.8937   22.2053 H   0  0  0  0  0  0
  -23.7235  -37.6458   23.6687 H   0  0  0  0  0  0
  -26.1553  -31.4743   20.6123 H   0  0  0  0  0  0
  -26.8744  -30.7787   22.0284 H   0  0  0  0  0  0
  -28.1210  -28.8008   21.2629 H   0  0  0  0  0  0
  -25.9175  -25.8736   18.9628 H   0  0  0  0  0  0
  -23.9981  -27.3078   18.9611 H   0  0  0  0  0  0
  -23.8354  -30.5707   19.3972 H   0  0  0  0  0  0
  -22.7975  -29.2435   19.8241 H   0  0  0  0  0  0
  -25.1314  -36.1856   25.0810 H   0  0  0  0  0  0
  -21.0037  -28.3249   24.1349 H   0  0  0  0  0  0
  -20.5628  -26.2309   23.3626 H   0  0  0  0  0  0
  -21.6651  -26.7356   22.1229 H   0  0  0  0  0  0
  -19.6926  -25.6273   21.1216 H   0  0  0  0  0  0
  -19.6694  -27.3173   20.6726 H   0  0  0  0  0  0
  -17.4223  -26.6632   21.4032 H   0  0  0  0  0  0
  -18.0377  -26.0026   22.9032 H   0  0  0  0  0  0
  -19.7951  -30.7217   24.2295 H   0  0  0  0  0  0
  -17.5040  -31.6240   24.5160 H   0  0  0  0  0  0
  -15.5373  -30.2973   23.7620 H   0  0  0  0  0  0
  -15.8707  -28.0775   22.7100 H   0  0  0  0  0  0
  -24.5883  -30.7121   25.7792 H   0  0  0  0  0  0
  -24.8963  -32.2932   26.4901 H   0  0  0  0  0  0
  -25.8077  -30.8910   27.0216 H   0  0  0  0  0  0
  -26.2865  -29.6746   24.1277 H   0  0  0  0  0  0
  -27.3956  -29.7236   25.4772 H   0  0  0  0  0  0
  -27.8791  -30.4215   23.9499 H   0  0  0  0  0  0
  -27.2637  -33.3633   26.2050 H   0  0  0  0  0  0
  -28.3865  -32.6896   25.0314 H   0  0  0  0  0  0
  -28.0709  -31.8458   26.5416 H   0  0  0  0  0  0
  -28.2580  -38.0095   24.7546 H   0  0  0  0  0  0
  -28.1091  -36.2642   24.6221 H   0  0  0  0  0  0
  -27.2314  -37.1364   25.8859 H   0  0  0  0  0  0
  -20.9479  -29.8757   21.6797 H   0  0  0  0  0  0
  -26.0131  -38.2819   24.1495 H   0  0  0  0  0  0
  -31.2240  -20.5634   20.9740 H   0  0  0  0  0  0
  -31.5215  -18.1369   21.2611 H   0  0  0  0  0  0
  -27.6855  -17.4790   19.5268 H   0  0  0  0  0  0
  -28.3779  -23.4601   17.2080 H   0  0  0  0  0  0
  -30.0650  -23.7285   16.8818 H   0  0  0  0  0  0
  -29.1004  -25.7165   17.9459 H   0  0  0  0  0  0
  -30.3330  -25.0189   18.9775 H   0  0  0  0  0  0
  -27.9381  -23.0121   21.1570 H   0  0  0  0  0  0
  -29.5915  -23.5266   21.1379 H   0  0  0  0  0  0
  -27.3701  -24.5152   19.2629 H   0  0  0  0  0  0
  -27.3842  -18.8017   17.1613 H   0  0  0  0  0  0
  -25.8336  -19.6417   17.1375 H   0  0  0  0  0  0
  -26.0331  -18.2047   18.1383 H   0  0  0  0  0  0
  -26.7495  -21.4627   20.0695 H   0  0  0  0  0  0
  -28.7226  -15.6278   20.6900 H   0  0  0  0  0  0
  1 25  1  0  0  0
  1 30  2  0  0  0
  1 86  1  0  0  0
  2  3  1  0  0  0
  2 25  1  0  0  0
  2 88  1  0  0  0
  2 89  1  0  0  0
  3  4  1  0  0  0
  3 90  1  0  0  0
  3 91  1  0  0  0
  4  5  1  0  0  0
  4 92  1  0  0  0
  4 93  1  0  0  0
  5  6  1  0  0  0
  5 26  1  0  0  0
  5 94  1  0  0  0
  6 25  1  0  0  0
  6 95  1  0  0  0
  6 96  1  0  0  0
  7  8  2  0  0  0
  7 26  1  0  0  0
  7 29  1  0  0  0
  8  9  1  0  0  0
  8 22  1  0  0  0
  9 10  1  0  0  0
  9 27  2  0  0  0
 10 11  2  0  0  0
 10 15  1  0  0  0
 11 12  1  0  0  0
 11 97  1  0  0  0
 12 13  2  0  0  0
 12 98  1  0  0  0
 13 14  1  0  0  0
 13 31  1  0  0  0
 14 15  2  0  0  0
 14 99  1  0  0  0
 15100  1  0  0  0
 16 17  2  0  0  0
 16 21  1  0  0  0
 16 31  1  0  0  0
 17 18  1  0  0  0
 17101  1  0  0  0
 18 19  2  0  0  0
 18102  1  0  0  0
 19 20  1  0  0  0
 19 24  1  0  0  0
 20 21  2  0  0  0
 20103  1  0  0  0
 21 23  1  0  0  0
 22 28  1  0  0  0
 22 32  2  0  0  0
 26 27  1  0  0  0
 28104  1  0  0  0
 28105  1  0  0  0
 29106  1  0  0  0
 29107  1  0  0  0
 33 34  1  0  0  0
 33 66  1  0  0  0
 33 70  2  0  0  0
 34 36  1  0  0  0
 34 59  1  0  0  0
 34108  1  0  0  0
 35 44  2  0  0  0
 35 45  1  0  0  0
 35 68  1  0  0  0
 36 56  1  0  0  0
 36109  1  0  0  0
 37 39  1  0  0  0
 37 47  1  0  0  0
 37 66  1  0  0  0
 37110  1  0  0  0
 38 43  2  0  0  0
 38 46  1  0  0  0
 38 47  1  0  0  0
 39 64  1  0  0  0
 39 67  2  0  0  0
 40 52  1  0  0  0
 40 53  2  0  0  0
 40 58  1  0  0  0
 41111  1  0  0  0
 41112  1  0  0  0
 41113  1  0  0  0
 41 48  1  0  0  0
 42 43  1  0  0  0
 42 66  1  0  0  0
 42114  1  0  0  0
 42115  1  0  0  0
 43 44  1  0  0  0
 44116  1  0  0  0
 45 46  2  0  0  0
 45117  1  0  0  0
 46118  1  0  0  0
 47119  1  0  0  0
 47120  1  0  0  0
 48 56  1  0  0  0
 48 65  1  0  0  0
 48121  1  0  0  0
 49 50  1  0  0  0
 49 53  1  0  0  0
 49 64  1  0  0  0
 49122  1  0  0  0
 50 51  1  0  0  0
 50123  1  0  0  0
 50124  1  0  0  0
 51 52  1  0  0  0
 51125  1  0  0  0
 51126  1  0  0  0
 52127  1  0  0  0
 52128  1  0  0  0
 53 54  1  0  0  0
 54 55  2  0  0  0
 54129  1  0  0  0
 55 57  1  0  0  0
 55130  1  0  0  0
 56 69  2  0  0  0
 57 58  2  0  0  0
 57131  1  0  0  0
 58132  1  0  0  0
 59 60  1  0  0  0
 59 61  1  0  0  0
 59 62  1  0  0  0
 60133  1  0  0  0
 60134  1  0  0  0
 60135  1  0  0  0
 61136  1  0  0  0
 61137  1  0  0  0
 61138  1  0  0  0
 62139  1  0  0  0
 62140  1  0  0  0
 62141  1  0  0  0
 63 65  1  0  0  0
 63142  1  0  0  0
 63143  1  0  0  0
 63144  1  0  0  0
 64145  1  0  0  0
 65146  1  0  0  0
 68 82  1  0  0  0
 71 72  2  0  0  0
 71 75  1  0  0  0
 71147  1  0  0  0
 72 76  1  0  0  0
 72148  1  0  0  0
 73 74  1  0  0  0
 73 76  2  0  0  0
 73149  1  0  0  0
 74 75  2  0  0  0
 74 78  1  0  0  0
 75 85  1  0  0  0
 76 86  1  0  0  0
 77 79  1  0  0  0
 77 85  1  0  0  0
 77 87  2  0  0  0
 78 83  1  0  0  0
 78 84  2  0  0  0
 79 80  1  0  0  0
 79150  1  0  0  0
 79151  1  0  0  0
 80 82  1  0  0  0
 80152  1  0  0  0
 80153  1  0  0  0
 81 82  1  0  0  0
 81 85  1  0  0  0
 81154  1  0  0  0
 81155  1  0  0  0
 82156  1  0  0  0
 83157  1  0  0  0
 83158  1  0  0  0
 83159  1  0  0  0
 84160  1  0  0  0
 86161  1  0  0  0
M  ISO  4   1 100  68 101  82 101  86 100
M  END
> <chiral flag>
0

> <version>
0

> <s_m_source_file>
/data/baiqing/PycharmProjects/Reinvent-master-3.2/result/LINK_invent/BTK/process_docking_weight1_custom_product_contain_oxygen_bond_distance_aromatic_linkinvent_7_9_3/rearranged_h_0058.sdf

> <i_m_source_file_index>
93

> <r_mmod_Potential_Energy-OPLS-2005>
492.328002929688

> <r_mmod_Stretch_Energy-OPLS-2005>
224.986602783203

> <r_mmod_Bend_Energy-OPLS-2005>
260.352630615234

> <r_mmod_Torsional_Energy-OPLS-2005>
318.1689453125

> <r_mmod_Improper_Torsional_Energy-OPLS-2005>
8.15058994293213

> <r_mmod_Van_der_Waal_Energy-OPLS-2005>
140.378814697266

> <r_mmod_Electrostatic_Energy-OPLS-2005>
-397.667510986328

> <r_mmod_Solvation_Energy-OPLS-2005>
-235.479232788086

> <b_mmod_Minimization_Converged-OPLS-2005>
0

> <r_mmod_RMS_Derivative-OPLS-2005>
4.87837934494019

$$$$
93
                    3D
 Structure written by MMmdl.
158166  0  0  1  0            999 V2000
  -30.6484  -14.4988   20.5114 C   0  0  0  0  0  0
  -30.4161  -12.3105   19.4045 C   0  0  0  0  0  0
  -29.4840  -12.5078   18.1906 C   0  0  0  0  0  0
  -28.0092  -12.3388   18.6146 C   0  0  0  0  0  0
  -27.6525  -13.1943   19.8609 C   0  0  2  0  0  0
  -28.6962  -12.9951   20.9859 C   0  0  0  0  0  0
  -25.2578  -13.8118   20.5719 C   0  0  0  0  0  0
  -24.1827  -13.0413   20.9199 C   0  0  0  0  0  0
  -24.6384  -11.6880   20.8760 C   0  0  0  0  0  0
  -23.9052  -10.4264   21.0415 C   0  0  0  0  0  0
  -24.3608   -9.4178   21.9203 C   0  0  0  0  0  0
  -23.6281   -8.2211   22.0756 C   0  0  0  0  0  0
  -22.4259   -8.0274   21.3529 C   0  0  0  0  0  0
  -21.9883   -9.0246   20.4628 C   0  0  0  0  0  0
  -22.7221  -10.2119   20.3051 C   0  0  0  0  0  0
  -21.6840   -6.0710   22.5274 C   0  0  0  0  0  0
  -21.4000   -6.5627   23.8211 C   0  0  0  0  0  0
  -21.3670   -5.6789   24.9190 C   0  0  0  0  0  0
  -21.6047   -4.3046   24.7244 C   0  0  0  0  0  0
  -21.8835   -3.8127   23.4365 C   0  0  0  0  0  0
  -21.9194   -4.6935   22.3408 C   0  0  0  0  0  0
  -22.7861  -13.5182   21.1900 C   0  0  0  0  0  0
  -22.1672   -4.2122   21.0991 F   0  0  0  0  0  0
  -21.5645   -3.4547   25.7756 F   0  0  0  0  0  0
  -30.0209  -13.2971   20.4166 N   0  0  0  0  0  0
  -26.2977  -12.9274   20.3283 N   0  0  0  0  0  0
  -25.9307  -11.6451   20.5729 N   0  0  0  0  0  0
  -22.0525  -12.8126   22.0429 N   0  0  0  0  0  0
  -25.4382  -15.1842   20.4241 N   0  0  0  0  0  0
  -31.8108  -14.6943   20.1419 O   0  0  0  0  0  0
  -21.6641   -6.8851   21.4226 O   0  0  0  0  0  0
  -22.3568  -14.5530   20.6801 O   0  0  0  0  0  0
  -24.6133  -31.8679   23.2090 C   0  0  0  0  0  0
  -25.9005  -32.4836   23.8404 C   0  0  1  0  0  0
  -27.2428  -27.4698   20.0921 C   0  0  0  0  0  0
  -25.5852  -33.8627   24.2336 N   0  0  0  0  0  0
  -23.3998  -30.4891   21.5515 C   0  0  2  0  0  0
  -24.8480  -28.9598   20.1151 C   0  0  0  0  0  0
  -22.7387  -29.4659   22.5007 C   0  0  0  0  0  0
  -18.0273  -28.1329   22.8533 C   0  0  0  0  0  0
  -24.1480  -36.7353   23.2638 C   0  0  0  0  0  0
  -25.9229  -30.8486   21.3539 C   0  0  0  0  0  0
  -26.0064  -29.4825   20.7064 C   0  0  0  0  0  0
  -27.2115  -28.7463   20.6911 C   0  0  0  0  0  0
  -26.0724  -26.9562   19.4881 C   0  0  0  0  0  0
  -24.8730  -27.6930   19.5035 C   0  0  0  0  0  0
  -23.6035  -29.8204   20.1657 C   0  0  0  0  0  0
  -25.4096  -36.3127   24.0330 C   0  0  1  0  0  0
  -20.5865  -28.3658   23.1345 C   0  0  2  0  0  0
  -20.6820  -26.9370   22.5455 C   0  0  0  0  0  0
  -19.5765  -26.6321   21.5249 C   0  0  0  0  0  0
  -18.1941  -26.7886   22.1647 C   0  0  0  0  0  0
  -19.1528  -28.8790   23.2945 C   0  0  0  0  0  0
  -18.9437  -30.1435   23.8906 C   0  0  0  0  0  0
  -17.6431  -30.6601   24.0500 C   0  0  0  0  0  0
  -25.9015  -34.9490   23.5139 C   0  0  0  0  0  0
  -16.5346  -29.9073   23.6306 C   0  0  0  0  0  0
  -16.7265  -28.6480   23.0369 C   0  0  0  0  0  0
  -26.4455  -31.6598   25.0717 C   0  0  0  0  0  0
  -25.3763  -31.3684   26.1503 C   0  0  0  0  0  0
  -27.0285  -30.3052   24.6050 C   0  0  0  0  0  0
  -27.6004  -32.4335   25.7493 C   0  0  0  0  0  0
  -27.5566  -37.1853   24.8470 C   0  0  0  0  0  0
  -21.4107  -29.3046   22.3767 N   0  0  0  0  0  0
  -26.4311  -37.3783   23.9366 N   0  0  0  0  0  0
  -24.6630  -31.0821   22.0983 N   0  0  0  0  0  0
  -23.4157  -28.8208   23.3031 O   0  0  0  0  0  0
  -28.3768  -26.6968   20.1367 O   0  0  0  0  0  0
  -26.5612  -34.8930   22.4723 O   0  0  0  0  0  0
  -23.5335  -32.1399   23.7546 O   0  0  0  0  0  0
  -31.0456  -18.2201   23.0048 C   0  0  0  0  0  0
  -30.8995  -16.9659   22.3896 C   0  0  0  0  0  0
  -30.4246  -19.3541   22.4416 C   0  0  0  0  0  0
  -29.5354  -17.9694   20.6297 C   0  0  0  0  0  0
  -30.1223  -16.8249   21.2270 C   0  0  0  0  0  0
  -29.7024  -19.2378   21.2348 C   0  0  0  0  0  0
  -26.1760  -20.7739   20.1450 C   0  0  0  0  0  0
  -27.1702  -20.4478   20.9934 C   0  0  0  0  0  0
  -29.1476  -24.4469   20.8678 C   0  0  0  0  0  0
  -28.4759  -23.1635   21.4012 C   0  0  0  0  0  0
  -28.2652  -25.6807   21.1383 C   0  0  0  0  0  0
  -29.3716  -22.0036   21.3251 N   0  0  0  0  0  0
  -29.8067  -15.5198   20.7630 N   0  0  0  0  0  0
  -28.9688  -20.6566   19.0647 O   0  0  0  0  0  0
  -28.9067  -20.7036   20.5376 S   0  0  1  0  0  0
  -31.4616  -12.4135   19.1100 H   0  0  0  0  0  0
  -30.3095  -11.3014   19.8034 H   0  0  0  0  0  0
  -29.7298  -11.7995   17.3966 H   0  0  0  0  0  0
  -29.6294  -13.5031   17.7674 H   0  0  0  0  0  0
  -27.8474  -11.2818   18.8330 H   0  0  0  0  0  0
  -27.3445  -12.5818   17.7821 H   0  0  0  0  0  0
  -27.6826  -14.2339   19.5325 H   0  0  0  0  0  0
  -28.6750  -11.9695   21.3595 H   0  0  0  0  0  0
  -28.4604  -13.6200   21.8486 H   0  0  0  0  0  0
  -25.2769   -9.5650   22.4764 H   0  0  0  0  0  0
  -24.0017   -7.4567   22.7427 H   0  0  0  0  0  0
  -21.0840   -8.8732   19.8899 H   0  0  0  0  0  0
  -22.3695  -10.9668   19.6130 H   0  0  0  0  0  0
  -21.1987   -7.6134   23.9696 H   0  0  0  0  0  0
  -21.1483   -6.0532   25.9078 H   0  0  0  0  0  0
  -22.0609   -2.7586   23.2885 H   0  0  0  0  0  0
  -22.4161  -11.9747   22.4723 H   0  0  0  0  0  0
  -21.1152  -13.1099   22.2692 H   0  0  0  0  0  0
  -24.6767  -15.8432   20.5382 H   0  0  0  0  0  0
  -26.3010  -15.6243   20.1327 H   0  0  0  0  0  0
  -26.7082  -32.5550   23.1173 H   0  0  0  0  0  0
  -24.9924  -33.9784   25.0435 H   0  0  0  0  0  0
  -22.6914  -31.3069   21.4118 H   0  0  0  0  0  0
  -23.3701  -35.9735   23.3368 H   0  0  0  0  0  0
  -24.3569  -36.8915   22.2044 H   0  0  0  0  0  0
  -23.7320  -37.6604   23.6630 H   0  0  0  0  0  0
  -26.0204  -31.6132   20.5833 H   0  0  0  0  0  0
  -26.8140  -30.9085   21.9647 H   0  0  0  0  0  0
  -28.1042  -29.1443   21.1553 H   0  0  0  0  0  0
  -26.0908  -25.9775   19.0287 H   0  0  0  0  0  0
  -23.9816  -27.2779   19.0509 H   0  0  0  0  0  0
  -23.6951  -30.5935   19.3994 H   0  0  0  0  0  0
  -22.7333  -29.2233   19.8840 H   0  0  0  0  0  0
  -25.1300  -36.2011   25.0833 H   0  0  0  0  0  0
  -20.9934  -28.3230   24.1466 H   0  0  0  0  0  0
  -21.6691  -26.7460   22.1206 H   0  0  0  0  0  0
  -20.5809  -26.2224   23.3626 H   0  0  0  0  0  0
  -19.6951  -25.6228   21.1347 H   0  0  0  0  0  0
  -19.6655  -27.3087   20.6743 H   0  0  0  0  0  0
  -17.4232  -26.6705   21.4028 H   0  0  0  0  0  0
  -18.0277  -25.9994   22.8987 H   0  0  0  0  0  0
  -19.7925  -30.7207   24.2279 H   0  0  0  0  0  0
  -17.4961  -31.6283   24.5102 H   0  0  0  0  0  0
  -15.5316  -30.2945   23.7606 H   0  0  0  0  0  0
  -15.8641  -28.0763   22.7140 H   0  0  0  0  0  0
  -24.5877  -30.7100   25.7848 H   0  0  0  0  0  0
  -24.9046  -32.2853   26.5036 H   0  0  0  0  0  0
  -25.8147  -30.8782   27.0212 H   0  0  0  0  0  0
  -26.2811  -29.6821   24.1129 H   0  0  0  0  0  0
  -27.4106  -29.7253   25.4461 H   0  0  0  0  0  0
  -27.8614  -30.4358   23.9139 H   0  0  0  0  0  0
  -27.2534  -33.3557   26.2151 H   0  0  0  0  0  0
  -28.3754  -32.7037   25.0321 H   0  0  0  0  0  0
  -28.0740  -31.8460   26.5365 H   0  0  0  0  0  0
  -28.2659  -38.0066   24.7407 H   0  0  0  0  0  0
  -28.0988  -36.2620   24.6442 H   0  0  0  0  0  0
  -27.2286  -37.1684   25.8871 H   0  0  0  0  0  0
  -20.9204  -29.8841   21.7102 H   0  0  0  0  0  0
  -26.0216  -38.2881   24.1299 H   0  0  0  0  0  0
  -31.6019  -18.2902   23.9318 H   0  0  0  0  0  0
  -31.3480  -16.0918   22.8470 H   0  0  0  0  0  0
  -30.4918  -20.3086   22.9409 H   0  0  0  0  0  0
  -28.9390  -17.8893   19.7370 H   0  0  0  0  0  0
  -25.1419  -20.6049   20.4004 H   0  0  0  0  0  0
  -26.3945  -21.2171   19.1860 H   0  0  0  0  0  0
  -27.0078  -20.0006   21.9637 H   0  0  0  0  0  0
  -29.3289  -24.3435   19.7998 H   0  0  0  0  0  0
  -30.1297  -24.6013   21.3175 H   0  0  0  0  0  0
  -27.5361  -23.0307   20.8634 H   0  0  0  0  0  0
  -28.1792  -23.3366   22.4369 H   0  0  0  0  0  0
  -28.5207  -26.1115   22.1072 H   0  0  0  0  0  0
  -27.2269  -25.3564   21.2317 H   0  0  0  0  0  0
  -28.8297  -15.2674   20.8048 H   0  0  0  0  0  0
  1 25  1  0  0  0
  1 30  2  0  0  0
  1 83  1  0  0  0
  2  3  1  0  0  0
  2 25  1  0  0  0
  2 86  1  0  0  0
  2 87  1  0  0  0
  3  4  1  0  0  0
  3 88  1  0  0  0
  3 89  1  0  0  0
  4  5  1  0  0  0
  4 90  1  0  0  0
  4 91  1  0  0  0
  5  6  1  0  0  0
  5 26  1  0  0  0
  5 92  1  0  0  0
  6 25  1  0  0  0
  6 93  1  0  0  0
  6 94  1  0  0  0
  7  8  2  0  0  0
  7 26  1  0  0  0
  7 29  1  0  0  0
  8  9  1  0  0  0
  8 22  1  0  0  0
  9 10  1  0  0  0
  9 27  2  0  0  0
 10 11  2  0  0  0
 10 15  1  0  0  0
 11 12  1  0  0  0
 11 95  1  0  0  0
 12 13  2  0  0  0
 12 96  1  0  0  0
 13 14  1  0  0  0
 13 31  1  0  0  0
 14 15  2  0  0  0
 14 97  1  0  0  0
 15 98  1  0  0  0
 16 17  2  0  0  0
 16 21  1  0  0  0
 16 31  1  0  0  0
 17 18  1  0  0  0
 17 99  1  0  0  0
 18 19  2  0  0  0
 18100  1  0  0  0
 19 20  1  0  0  0
 19 24  1  0  0  0
 20 21  2  0  0  0
 20101  1  0  0  0
 21 23  1  0  0  0
 22 28  1  0  0  0
 22 32  2  0  0  0
 26 27  1  0  0  0
 28102  1  0  0  0
 28103  1  0  0  0
 29104  1  0  0  0
 29105  1  0  0  0
 33 34  1  0  0  0
 33 66  1  0  0  0
 33 70  2  0  0  0
 34 36  1  0  0  0
 34 59  1  0  0  0
 34106  1  0  0  0
 35 44  2  0  0  0
 35 45  1  0  0  0
 35 68  1  0  0  0
 36 56  1  0  0  0
 36107  1  0  0  0
 37 39  1  0  0  0
 37 47  1  0  0  0
 37 66  1  0  0  0
 37108  1  0  0  0
 38 43  2  0  0  0
 38 46  1  0  0  0
 38 47  1  0  0  0
 39 64  1  0  0  0
 39 67  2  0  0  0
 40 52  1  0  0  0
 40 53  2  0  0  0
 40 58  1  0  0  0
 41109  1  0  0  0
 41110  1  0  0  0
 41111  1  0  0  0
 41 48  1  0  0  0
 42 43  1  0  0  0
 42 66  1  0  0  0
 42112  1  0  0  0
 42113  1  0  0  0
 43 44  1  0  0  0
 44114  1  0  0  0
 45 46  2  0  0  0
 45115  1  0  0  0
 46116  1  0  0  0
 47117  1  0  0  0
 47118  1  0  0  0
 48 56  1  0  0  0
 48 65  1  0  0  0
 48119  1  0  0  0
 49 50  1  0  0  0
 49 53  1  0  0  0
 49 64  1  0  0  0
 49120  1  0  0  0
 50 51  1  0  0  0
 50121  1  0  0  0
 50122  1  0  0  0
 51 52  1  0  0  0
 51123  1  0  0  0
 51124  1  0  0  0
 52125  1  0  0  0
 52126  1  0  0  0
 53 54  1  0  0  0
 54 55  2  0  0  0
 54127  1  0  0  0
 55 57  1  0  0  0
 55128  1  0  0  0
 56 69  2  0  0  0
 57 58  2  0  0  0
 57129  1  0  0  0
 58130  1  0  0  0
 59 60  1  0  0  0
 59 61  1  0  0  0
 59 62  1  0  0  0
 60131  1  0  0  0
 60132  1  0  0  0
 60133  1  0  0  0
 61134  1  0  0  0
 61135  1  0  0  0
 61136  1  0  0  0
 62137  1  0  0  0
 62138  1  0  0  0
 62139  1  0  0  0
 63 65  1  0  0  0
 63140  1  0  0  0
 63141  1  0  0  0
 63142  1  0  0  0
 64143  1  0  0  0
 65144  1  0  0  0
 68 81  1  0  0  0
 71 72  2  0  0  0
 71 73  1  0  0  0
 71145  1  0  0  0
 72 75  1  0  0  0
 72146  1  0  0  0
 73 76  2  0  0  0
 73147  1  0  0  0
 74 75  2  0  0  0
 74 76  1  0  0  0
 74148  1  0  0  0
 75 83  1  0  0  0
 76 85  1  0  0  0
 77 78  2  0  0  0
 77149  1  0  0  0
 77150  1  0  0  0
 78151  1  0  0  0
 78 85  1  0  0  0
 79 80  1  0  0  0
 79 81  1  0  0  0
 79152  1  0  0  0
 79153  1  0  0  0
 80 82  1  0  0  0
 80154  1  0  0  0
 80155  1  0  0  0
 81156  1  0  0  0
 81157  1  0  0  0
 82 85  2  0  0  0
 83158  1  0  0  0
 84 85  2  0  0  0
M  ISO  4   1 100  68 101  81 101  83 100
M  END
> <chiral flag>
0

> <version>
0

> <s_m_source_file>
/data/baiqing/PycharmProjects/Reinvent-master-3.2/result/LINK_invent/BTK/process_docking_weight1_custom_product_contain_oxygen_bond_distance_aromatic_linkinvent_7_9_3/rearranged_h_0058.sdf

> <i_m_source_file_index>
94

> <r_mmod_Potential_Energy-OPLS-2005>
-35.4436492919922

> <r_mmod_Stretch_Energy-OPLS-2005>
34.5992164611816

> <r_mmod_Bend_Energy-OPLS-2005>
92.2867889404297

> <r_mmod_Torsional_Energy-OPLS-2005>
259.323364257812

> <r_mmod_Improper_Torsional_Energy-OPLS-2005>
8.33298492431641

> <r_mmod_Van_der_Waal_Energy-OPLS-2005>
148.555572509766

> <r_mmod_Electrostatic_Energy-OPLS-2005>
-350.848846435547

> <r_mmod_Solvation_Energy-OPLS-2005>
-243.898101806641

> <b_mmod_Minimization_Converged-OPLS-2005>
0

> <r_mmod_RMS_Derivative-OPLS-2005>
6.87649917602539

$$$$
94
                    3D
 Structure written by MMmdl.
166175  0  0  1  0            999 V2000
  -30.7516  -14.4015   20.6231 C   0  0  0  0  0  0
  -30.4167  -12.2805   19.4203 C   0  0  0  0  0  0
  -29.4984  -12.5029   18.2025 C   0  0  0  0  0  0
  -28.0207  -12.3549   18.6157 C   0  0  0  0  0  0
  -27.6658  -13.1990   19.8697 C   0  0  2  0  0  0
  -28.6986  -12.9720   20.9943 C   0  0  0  0  0  0
  -25.2599  -13.8151   20.5653 C   0  0  0  0  0  0
  -24.1838  -13.0430   20.9135 C   0  0  0  0  0  0
  -24.6378  -11.6896   20.8690 C   0  0  0  0  0  0
  -23.9050  -10.4296   21.0396 C   0  0  0  0  0  0
  -24.3613   -9.4227   21.9173 C   0  0  0  0  0  0
  -23.6303   -8.2259   22.0742 C   0  0  0  0  0  0
  -22.4299   -8.0289   21.3542 C   0  0  0  0  0  0
  -21.9915   -9.0249   20.4655 C   0  0  0  0  0  0
  -22.7230  -10.2133   20.3050 C   0  0  0  0  0  0
  -21.6859   -6.0759   22.5287 C   0  0  0  0  0  0
  -21.4040   -6.5661   23.8226 C   0  0  0  0  0  0
  -21.3641   -5.6789   24.9169 C   0  0  0  0  0  0
  -21.6023   -4.3052   24.7206 C   0  0  0  0  0  0
  -21.8820   -3.8163   23.4317 C   0  0  0  0  0  0
  -21.9194   -4.6993   22.3387 C   0  0  0  0  0  0
  -22.7845  -13.5234   21.1765 C   0  0  0  0  0  0
  -22.1665   -4.2181   21.0962 F   0  0  0  0  0  0
  -21.5589   -3.4524   25.7713 F   0  0  0  0  0  0
  -30.0404  -13.2558   20.4539 N   0  0  0  0  0  0
  -26.3035  -12.9303   20.3297 N   0  0  0  0  0  0
  -25.9293  -11.6476   20.5689 N   0  0  0  0  0  0
  -22.0468  -12.8291   22.0377 N   0  0  0  0  0  0
  -25.4347  -15.1883   20.4112 N   0  0  0  0  0  0
  -31.8223  -14.6066   20.0457 O   0  0  0  0  0  0
  -21.6641   -6.8907   21.4257 O   0  0  0  0  0  0
  -22.3546  -14.5512   20.6552 O   0  0  0  0  0  0
  -24.6121  -31.8692   23.2106 C   0  0  0  0  0  0
  -25.9009  -32.4829   23.8423 C   0  0  1  0  0  0
  -27.2313  -27.4623   20.0918 C   0  0  0  0  0  0
  -25.5862  -33.8639   24.2347 N   0  0  0  0  0  0
  -23.3989  -30.4864   21.5527 C   0  0  2  0  0  0
  -24.8439  -28.9511   20.1255 C   0  0  0  0  0  0
  -22.7391  -29.4623   22.5041 C   0  0  0  0  0  0
  -18.0253  -28.1373   22.8485 C   0  0  0  0  0  0
  -24.1481  -36.7321   23.2645 C   0  0  0  0  0  0
  -25.9236  -30.8415   21.3592 C   0  0  0  0  0  0
  -26.0025  -29.4774   20.7092 C   0  0  0  0  0  0
  -27.2056  -28.7414   20.6843 C   0  0  0  0  0  0
  -26.0562  -26.9312   19.5260 C   0  0  0  0  0  0
  -24.8604  -27.6730   19.5384 C   0  0  0  0  0  0
  -23.6052  -29.8138   20.1714 C   0  0  0  0  0  0
  -25.4094  -36.3130   24.0353 C   0  0  1  0  0  0
  -20.5848  -28.3627   23.1351 C   0  0  2  0  0  0
  -20.6742  -26.9371   22.5423 C   0  0  0  0  0  0
  -19.5730  -26.6377   21.5200 C   0  0  0  0  0  0
  -18.1912  -26.7923   22.1613 C   0  0  0  0  0  0
  -19.1513  -28.8818   23.2909 C   0  0  0  0  0  0
  -18.9441  -30.1418   23.8901 C   0  0  0  0  0  0
  -17.6450  -30.6586   24.0558 C   0  0  0  0  0  0
  -25.9019  -34.9479   23.5159 C   0  0  0  0  0  0
  -16.5335  -29.9081   23.6343 C   0  0  0  0  0  0
  -16.7241  -28.6510   23.0353 C   0  0  0  0  0  0
  -26.4454  -31.6618   25.0751 C   0  0  0  0  0  0
  -25.3743  -31.3711   26.1525 C   0  0  0  0  0  0
  -27.0282  -30.3072   24.6104 C   0  0  0  0  0  0
  -27.6045  -32.4333   25.7493 C   0  0  0  0  0  0
  -27.5579  -37.1803   24.8464 C   0  0  0  0  0  0
  -21.4127  -29.3003   22.3782 N   0  0  0  0  0  0
  -26.4288  -37.3799   23.9416 N   0  0  0  0  0  0
  -24.6617  -31.0798   22.0993 N   0  0  0  0  0  0
  -23.4160  -28.8192   23.3108 O   0  0  0  0  0  0
  -28.4023  -26.7583   20.0381 O   0  0  0  0  0  0
  -26.5590  -34.8925   22.4720 O   0  0  0  0  0  0
  -23.5307  -32.1419   23.7496 O   0  0  0  0  0  0
  -32.4667  -18.2519   21.9995 C   0  0  0  0  0  0
  -32.0309  -16.9299   21.8230 C   0  0  0  0  0  0
  -29.7340  -17.7114   21.6910 C   0  0  0  0  0  0
  -31.5477  -19.3189   22.0219 C   0  0  0  0  0  0
  -30.1578  -19.0502   21.8741 C   0  0  0  0  0  0
  -30.6601  -16.6521   21.6344 C   0  0  0  0  0  0
  -29.0917  -21.1436   19.7228 C   0  0  0  0  0  0
  -29.4109  -22.5300   21.6767 C   0  0  0  0  0  0
  -29.0117  -22.3077   18.7030 C   0  0  0  0  0  0
  -30.1392  -23.6547   20.9383 C   0  0  0  0  0  0
  -28.2964  -23.5856   19.1895 C   0  0  0  0  0  0
  -29.2170  -24.4883   20.0389 C   0  0  1  0  0  0
  -32.1035  -20.7175   22.2162 C   0  0  0  0  0  0
  -29.0681  -20.1310   21.9453 C   0  0  0  0  0  0
  -28.4303  -25.5671   20.8164 C   0  0  0  0  0  0
  -29.2265  -21.3244   21.0726 N   0  0  0  0  0  0
  -30.1843  -15.3284   21.4133 N   0  0  0  0  0  0
  -28.9842  -20.0130   19.2361 O   0  0  0  0  0  0
  -29.0831  -22.7536   22.8458 O   0  0  0  0  0  0
  -31.4631  -12.3568   19.1245 H   0  0  0  0  0  0
  -30.2975  -11.2655   19.8040 H   0  0  0  0  0  0
  -29.7419  -11.7888   17.4164 H   0  0  0  0  0  0
  -29.6798  -13.4932   17.7818 H   0  0  0  0  0  0
  -27.8463  -11.2988   18.8271 H   0  0  0  0  0  0
  -27.3638  -12.6128   17.7846 H   0  0  0  0  0  0
  -27.7167  -14.2474   19.5677 H   0  0  0  0  0  0
  -28.6626  -11.9372   21.3388 H   0  0  0  0  0  0
  -28.4494  -13.5788   21.8653 H   0  0  0  0  0  0
  -25.2740   -9.5688   22.4750 H   0  0  0  0  0  0
  -24.0010   -7.4628   22.7432 H   0  0  0  0  0  0
  -21.0844   -8.8749   19.8963 H   0  0  0  0  0  0
  -22.3677  -10.9649   19.6137 H   0  0  0  0  0  0
  -21.2099   -7.6173   23.9750 H   0  0  0  0  0  0
  -21.1431   -6.0512   25.9070 H   0  0  0  0  0  0
  -22.0623   -2.7640   23.2790 H   0  0  0  0  0  0
  -22.4100  -12.0032   22.4914 H   0  0  0  0  0  0
  -21.1039  -13.1313   22.2447 H   0  0  0  0  0  0
  -24.6683  -15.8416   20.5304 H   0  0  0  0  0  0
  -26.2886  -15.6265   20.0894 H   0  0  0  0  0  0
  -26.7061  -32.5527   23.1176 H   0  0  0  0  0  0
  -25.0004  -33.9813   25.0489 H   0  0  0  0  0  0
  -22.6860  -31.2990   21.4105 H   0  0  0  0  0  0
  -23.3745  -35.9652   23.3324 H   0  0  0  0  0  0
  -24.3595  -36.8914   22.2061 H   0  0  0  0  0  0
  -23.7228  -37.6524   23.6643 H   0  0  0  0  0  0
  -26.0322  -31.6072   20.5905 H   0  0  0  0  0  0
  -26.8121  -30.8918   21.9788 H   0  0  0  0  0  0
  -28.1094  -29.1488   21.1172 H   0  0  0  0  0  0
  -26.0680  -25.9488   19.0792 H   0  0  0  0  0  0
  -23.9642  -27.2539   19.1011 H   0  0  0  0  0  0
  -23.7127  -30.5794   19.4022 H   0  0  0  0  0  0
  -22.7328  -29.2261   19.8841 H   0  0  0  0  0  0
  -25.1272  -36.2011   25.0846 H   0  0  0  0  0  0
  -20.9890  -28.3151   24.1490 H   0  0  0  0  0  0
  -20.5637  -26.2212   23.3583 H   0  0  0  0  0  0
  -21.6624  -26.7434   22.1231 H   0  0  0  0  0  0
  -19.6898  -25.6289   21.1227 H   0  0  0  0  0  0
  -19.6703  -27.3189   20.6735 H   0  0  0  0  0  0
  -17.4184  -26.6650   21.4017 H   0  0  0  0  0  0
  -18.0325  -26.0063   22.9013 H   0  0  0  0  0  0
  -19.7921  -30.7232   24.2286 H   0  0  0  0  0  0
  -17.5016  -31.6277   24.5128 H   0  0  0  0  0  0
  -15.5337  -30.2983   23.7680 H   0  0  0  0  0  0
  -15.8644  -28.0828   22.7068 H   0  0  0  0  0  0
  -24.5880  -30.7095   25.7885 H   0  0  0  0  0  0
  -24.8974  -32.2851   26.5058 H   0  0  0  0  0  0
  -25.8122  -30.8828   27.0238 H   0  0  0  0  0  0
  -26.2815  -29.6834   24.1171 H   0  0  0  0  0  0
  -27.4077  -29.7324   25.4561 H   0  0  0  0  0  0
  -27.8644  -30.4436   23.9244 H   0  0  0  0  0  0
  -27.2676  -33.3603   26.2144 H   0  0  0  0  0  0
  -28.3795  -32.6932   25.0278 H   0  0  0  0  0  0
  -28.0766  -31.8416   26.5335 H   0  0  0  0  0  0
  -28.2606  -38.0095   24.7517 H   0  0  0  0  0  0
  -28.1065  -36.2624   24.6280 H   0  0  0  0  0  0
  -27.2306  -37.1454   25.8873 H   0  0  0  0  0  0
  -20.9276  -29.8719   21.7022 H   0  0  0  0  0  0
  -26.0192  -38.2886   24.1410 H   0  0  0  0  0  0
  -33.5263  -18.4300   22.1240 H   0  0  0  0  0  0
  -32.7657  -16.1384   21.8317 H   0  0  0  0  0  0
  -28.6781  -17.5025   21.5763 H   0  0  0  0  0  0
  -28.4587  -21.9330   17.8390 H   0  0  0  0  0  0
  -30.0096  -22.5278   18.3219 H   0  0  0  0  0  0
  -30.9630  -23.2354   20.3626 H   0  0  0  0  0  0
  -30.6282  -24.2955   21.6701 H   0  0  0  0  0  0
  -27.4009  -23.3078   19.7522 H   0  0  0  0  0  0
  -27.9332  -24.1543   18.3320 H   0  0  0  0  0  0
  -29.8915  -25.0065   19.3562 H   0  0  0  0  0  0
  -33.1616  -20.6998   22.4768 H   0  0  0  0  0  0
  -31.5826  -21.2453   23.0156 H   0  0  0  0  0  0
  -32.0191  -21.2775   21.2867 H   0  0  0  0  0  0
  -28.9797  -20.3861   23.0017 H   0  0  0  0  0  0
  -28.1012  -19.6816   21.7132 H   0  0  0  0  0  0
  -28.9381  -25.8197   21.7490 H   0  0  0  0  0  0
  -27.4391  -25.2075   21.1052 H   0  0  0  0  0  0
  -29.2552  -15.1131   21.7420 H   0  0  0  0  0  0
  1 25  1  0  0  0
  1 30  2  0  0  0
  1 87  1  0  0  0
  2  3  1  0  0  0
  2 25  1  0  0  0
  2 90  1  0  0  0
  2 91  1  0  0  0
  3  4  1  0  0  0
  3 92  1  0  0  0
  3 93  1  0  0  0
  4  5  1  0  0  0
  4 94  1  0  0  0
  4 95  1  0  0  0
  5  6  1  0  0  0
  5 26  1  0  0  0
  5 96  1  0  0  0
  6 25  1  0  0  0
  6 97  1  0  0  0
  6 98  1  0  0  0
  7  8  2  0  0  0
  7 26  1  0  0  0
  7 29  1  0  0  0
  8  9  1  0  0  0
  8 22  1  0  0  0
  9 10  1  0  0  0
  9 27  2  0  0  0
 10 11  2  0  0  0
 10 15  1  0  0  0
 11 12  1  0  0  0
 11 99  1  0  0  0
 12 13  2  0  0  0
 12100  1  0  0  0
 13 14  1  0  0  0
 13 31  1  0  0  0
 14 15  2  0  0  0
 14101  1  0  0  0
 15102  1  0  0  0
 16 17  2  0  0  0
 16 21  1  0  0  0
 16 31  1  0  0  0
 17 18  1  0  0  0
 17103  1  0  0  0
 18 19  2  0  0  0
 18104  1  0  0  0
 19 20  1  0  0  0
 19 24  1  0  0  0
 20 21  2  0  0  0
 20105  1  0  0  0
 21 23  1  0  0  0
 22 28  1  0  0  0
 22 32  2  0  0  0
 26 27  1  0  0  0
 28106  1  0  0  0
 28107  1  0  0  0
 29108  1  0  0  0
 29109  1  0  0  0
 33 34  1  0  0  0
 33 66  1  0  0  0
 33 70  2  0  0  0
 34 36  1  0  0  0
 34 59  1  0  0  0
 34110  1  0  0  0
 35 44  2  0  0  0
 35 45  1  0  0  0
 35 68  1  0  0  0
 36 56  1  0  0  0
 36111  1  0  0  0
 37 39  1  0  0  0
 37 47  1  0  0  0
 37 66  1  0  0  0
 37112  1  0  0  0
 38 43  2  0  0  0
 38 46  1  0  0  0
 38 47  1  0  0  0
 39 64  1  0  0  0
 39 67  2  0  0  0
 40 52  1  0  0  0
 40 53  2  0  0  0
 40 58  1  0  0  0
 41113  1  0  0  0
 41114  1  0  0  0
 41115  1  0  0  0
 41 48  1  0  0  0
 42 43  1  0  0  0
 42 66  1  0  0  0
 42116  1  0  0  0
 42117  1  0  0  0
 43 44  1  0  0  0
 44118  1  0  0  0
 45 46  2  0  0  0
 45119  1  0  0  0
 46120  1  0  0  0
 47121  1  0  0  0
 47122  1  0  0  0
 48 56  1  0  0  0
 48 65  1  0  0  0
 48123  1  0  0  0
 49 50  1  0  0  0
 49 53  1  0  0  0
 49 64  1  0  0  0
 49124  1  0  0  0
 50 51  1  0  0  0
 50125  1  0  0  0
 50126  1  0  0  0
 51 52  1  0  0  0
 51127  1  0  0  0
 51128  1  0  0  0
 52129  1  0  0  0
 52130  1  0  0  0
 53 54  1  0  0  0
 54 55  2  0  0  0
 54131  1  0  0  0
 55 57  1  0  0  0
 55132  1  0  0  0
 56 69  2  0  0  0
 57 58  2  0  0  0
 57133  1  0  0  0
 58134  1  0  0  0
 59 60  1  0  0  0
 59 61  1  0  0  0
 59 62  1  0  0  0
 60135  1  0  0  0
 60136  1  0  0  0
 60137  1  0  0  0
 61138  1  0  0  0
 61139  1  0  0  0
 61140  1  0  0  0
 62141  1  0  0  0
 62142  1  0  0  0
 62143  1  0  0  0
 63 65  1  0  0  0
 63144  1  0  0  0
 63145  1  0  0  0
 63146  1  0  0  0
 64147  1  0  0  0
 65148  1  0  0  0
 68 85  1  0  0  0
 71 72  2  0  0  0
 71 74  1  0  0  0
 71149  1  0  0  0
 72 76  1  0  0  0
 72150  1  0  0  0
 73 75  1  0  0  0
 73 76  2  0  0  0
 73151  1  0  0  0
 74 75  2  0  0  0
 74 83  1  0  0  0
 75 84  1  0  0  0
 76 87  1  0  0  0
 77 79  1  0  0  0
 77 86  1  0  0  0
 77 88  2  0  0  0
 78 80  1  0  0  0
 78 86  1  0  0  0
 78 89  2  0  0  0
 79 81  1  0  0  0
 79152  1  0  0  0
 79153  1  0  0  0
 80 82  1  0  0  0
 80154  1  0  0  0
 80155  1  0  0  0
 81 82  1  0  0  0
 81156  1  0  0  0
 81157  1  0  0  0
 82 85  1  0  0  0
 82158  1  0  0  0
 83159  1  0  0  0
 83160  1  0  0  0
 83161  1  0  0  0
 84 86  1  0  0  0
 84162  1  0  0  0
 84163  1  0  0  0
 85164  1  0  0  0
 85165  1  0  0  0
 87166  1  0  0  0
M  ISO  4   1 100  68 101  85 101  87 100
M  END
> <chiral flag>
0

> <version>
0

> <s_m_source_file>
/data/baiqing/PycharmProjects/Reinvent-master-3.2/result/LINK_invent/BTK/process_docking_weight1_custom_product_contain_oxygen_bond_distance_aromatic_linkinvent_7_9_3/rearranged_h_0058.sdf

> <i_m_source_file_index>
95

> <r_mmod_Potential_Energy-OPLS-2005>
-69.9622573852539

> <r_mmod_Stretch_Energy-OPLS-2005>
40.0594215393066

> <r_mmod_Bend_Energy-OPLS-2005>
114.036483764648

> <r_mmod_Torsional_Energy-OPLS-2005>
258.801696777344

> <r_mmod_Improper_Torsional_Energy-OPLS-2005>
3.07704663276672

> <r_mmod_Van_der_Waal_Energy-OPLS-2005>
187.482452392578

> <r_mmod_Electrostatic_Energy-OPLS-2005>
-451.774688720703

> <r_mmod_Solvation_Energy-OPLS-2005>
-230.073669433594

> <b_mmod_Minimization_Converged-OPLS-2005>
0

> <r_mmod_RMS_Derivative-OPLS-2005>
4.45351839065552

$$$$
95
                    3D
 Structure written by MMmdl.
162170  0  0  1  0            999 V2000
  -30.7014  -14.5451   20.4464 C   0  0  0  0  0  0
  -30.4019  -12.3189   19.4492 C   0  0  0  0  0  0
  -29.4762  -12.4220   18.2192 C   0  0  0  0  0  0
  -27.9996  -12.3184   18.6334 C   0  0  0  0  0  0
  -27.6390  -13.2157   19.8471 C   0  0  2  0  0  0
  -28.6810  -13.0912   20.9706 C   0  0  0  0  0  0
  -25.2505  -13.8194   20.5720 C   0  0  0  0  0  0
  -24.1782  -13.0459   20.9185 C   0  0  0  0  0  0
  -24.6355  -11.6924   20.8759 C   0  0  0  0  0  0
  -23.9041  -10.4302   21.0417 C   0  0  0  0  0  0
  -24.3605   -9.4207   21.9184 C   0  0  0  0  0  0
  -23.6290   -8.2236   22.0750 C   0  0  0  0  0  0
  -22.4272   -8.0281   21.3536 C   0  0  0  0  0  0
  -21.9905   -9.0252   20.4637 C   0  0  0  0  0  0
  -22.7221  -10.2135   20.3057 C   0  0  0  0  0  0
  -21.6854   -6.0733   22.5271 C   0  0  0  0  0  0
  -21.4020   -6.5643   23.8206 C   0  0  0  0  0  0
  -21.3662   -5.6794   24.9171 C   0  0  0  0  0  0
  -21.6047   -4.3056   24.7222 C   0  0  0  0  0  0
  -21.8816   -3.8145   23.4343 C   0  0  0  0  0  0
  -21.9200   -4.6961   22.3398 C   0  0  0  0  0  0
  -22.7804  -13.5230   21.1871 C   0  0  0  0  0  0
  -22.1664   -4.2153   21.0970 F   0  0  0  0  0  0
  -21.5629   -3.4539   25.7730 F   0  0  0  0  0  0
  -29.9957  -13.3790   20.3874 N   0  0  0  0  0  0
  -26.2911  -12.9380   20.3306 N   0  0  0  0  0  0
  -25.9272  -11.6528   20.5776 N   0  0  0  0  0  0
  -22.0477  -12.8205   22.0425 N   0  0  0  0  0  0
  -25.4232  -15.1920   20.4171 N   0  0  0  0  0  0
  -31.9198  -14.5573   20.2433 O   0  0  0  0  0  0
  -21.6642   -6.8878   21.4231 O   0  0  0  0  0  0
  -22.3471  -14.5541   20.6732 O   0  0  0  0  0  0
  -24.6154  -31.8681   23.2070 C   0  0  0  0  0  0
  -25.9056  -32.4801   23.8341 C   0  0  1  0  0  0
  -27.2232  -27.4223   20.1090 C   0  0  0  0  0  0
  -25.5918  -33.8591   24.2284 N   0  0  0  0  0  0
  -23.4020  -30.4907   21.5485 C   0  0  2  0  0  0
  -24.8475  -28.9577   20.1096 C   0  0  0  0  0  0
  -22.7405  -29.4651   22.4969 C   0  0  0  0  0  0
  -18.0271  -28.1342   22.8472 C   0  0  0  0  0  0
  -24.1513  -36.7328   23.2633 C   0  0  0  0  0  0
  -25.9307  -30.8346   21.3573 C   0  0  0  0  0  0
  -26.0098  -29.4692   20.7007 C   0  0  0  0  0  0
  -27.2048  -28.7127   20.6890 C   0  0  0  0  0  0
  -26.0460  -26.9276   19.5099 C   0  0  0  0  0  0
  -24.8612  -27.6874   19.5088 C   0  0  0  0  0  0
  -23.6096  -29.8258   20.1624 C   0  0  0  0  0  0
  -25.4124  -36.3078   24.0314 C   0  0  1  0  0  0
  -20.5864  -28.3632   23.1314 C   0  0  2  0  0  0
  -20.6756  -26.9365   22.5412 C   0  0  0  0  0  0
  -19.5737  -26.6356   21.5212 C   0  0  0  0  0  0
  -18.1904  -26.7883   22.1621 C   0  0  0  0  0  0
  -19.1522  -28.8802   23.2874 C   0  0  0  0  0  0
  -18.9464  -30.1417   23.8861 C   0  0  0  0  0  0
  -17.6463  -30.6544   24.0562 C   0  0  0  0  0  0
  -25.9048  -34.9453   23.5088 C   0  0  0  0  0  0
  -16.5347  -29.9041   23.6331 C   0  0  0  0  0  0
  -16.7261  -28.6477   23.0305 C   0  0  0  0  0  0
  -26.4474  -31.6583   25.0669 C   0  0  0  0  0  0
  -25.3743  -31.3694   26.1435 C   0  0  0  0  0  0
  -27.0283  -30.2999   24.6019 C   0  0  0  0  0  0
  -27.6017  -32.4325   25.7456 C   0  0  0  0  0  0
  -27.5586  -37.1804   24.8437 C   0  0  0  0  0  0
  -21.4127  -29.3011   22.3740 N   0  0  0  0  0  0
  -26.4294  -37.3770   23.9391 N   0  0  0  0  0  0
  -24.6668  -31.0792   22.0960 N   0  0  0  0  0  0
  -23.4181  -28.8221   23.3018 O   0  0  0  0  0  0
  -28.3728  -26.6632   20.1277 O   0  0  0  0  0  0
  -26.5623  -34.8928   22.4659 O   0  0  0  0  0  0
  -23.5368  -32.1449   23.7503 O   0  0  0  0  0  0
  -27.7361  -18.0373   23.1570 C   0  0  0  0  0  0
  -28.4780  -16.9306   23.6039 C   0  0  0  0  0  0
  -28.4929  -17.5896   20.9064 C   0  0  0  0  0  0
  -27.8053  -18.4271   21.8104 C   0  0  0  0  0  0
  -29.2987  -16.1850   22.7266 C   0  0  0  0  0  0
  -29.2615  -16.4513   21.3207 C   0  0  0  0  0  0
  -30.6110  -16.2141   17.9460 C   0  0  0  0  0  0
  -27.2695  -19.7507   21.4157 C   0  0  0  0  0  0
  -27.9967  -20.6852   20.7598 C   0  0  0  0  0  0
  -30.4423  -16.5617   19.2350 C   0  0  0  0  0  0
  -27.4676  -21.9998   20.4074 C   0  0  0  0  0  0
  -30.2815  -15.2234   23.3816 C   0  0  0  0  0  0
  -28.3053  -24.2267   19.5437 C   0  0  0  0  0  0
  -28.2369  -25.3190   20.6399 C   0  0  0  0  0  0
  -28.4441  -22.8604   20.0749 N   0  0  0  0  0  0
  -30.0146  -15.7263   20.2998 N   0  0  0  0  0  0
  -26.2768  -22.3125   20.3893 O   0  0  0  0  0  0
  -31.4460  -12.3995   19.1406 H   0  0  0  0  0  0
  -30.3078  -11.3406   19.9248 H   0  0  0  0  0  0
  -29.7200  -11.6427   17.4967 H   0  0  0  0  0  0
  -29.6221  -13.3586   17.6972 H   0  0  0  0  0  0
  -27.8063  -11.2731   18.8738 H   0  0  0  0  0  0
  -27.3538  -12.5573   17.7881 H   0  0  0  0  0  0
  -27.6561  -14.2482   19.4946 H   0  0  0  0  0  0
  -28.6691  -12.0896   21.4029 H   0  0  0  0  0  0
  -28.4281  -13.7743   21.7776 H   0  0  0  0  0  0
  -25.2750   -9.5704   22.4761 H   0  0  0  0  0  0
  -24.0019   -7.4632   22.7468 H   0  0  0  0  0  0
  -21.0845   -8.8752   19.8946 H   0  0  0  0  0  0
  -22.3664  -10.9675   19.6179 H   0  0  0  0  0  0
  -21.2008   -7.6155   23.9711 H   0  0  0  0  0  0
  -21.1491   -6.0526   25.9077 H   0  0  0  0  0  0
  -22.0596   -2.7612   23.2829 H   0  0  0  0  0  0
  -22.4119  -11.9867   22.4800 H   0  0  0  0  0  0
  -21.1094  -13.1204   22.2661 H   0  0  0  0  0  0
  -24.6719  -15.8545   20.5734 H   0  0  0  0  0  0
  -26.3007  -15.6349   20.1773 H   0  0  0  0  0  0
  -26.7151  -32.5520   23.1127 H   0  0  0  0  0  0
  -24.9974  -33.9732   25.0367 H   0  0  0  0  0  0
  -22.6886  -31.3053   21.4149 H   0  0  0  0  0  0
  -23.3729  -35.9708   23.3295 H   0  0  0  0  0  0
  -24.3596  -36.8940   22.2044 H   0  0  0  0  0  0
  -23.7326  -37.6552   23.6679 H   0  0  0  0  0  0
  -26.0448  -31.6091   20.5973 H   0  0  0  0  0  0
  -26.8172  -30.8821   21.9780 H   0  0  0  0  0  0
  -28.1039  -29.1079   21.1444 H   0  0  0  0  0  0
  -26.0312  -25.9545   19.0430 H   0  0  0  0  0  0
  -23.9709  -27.2861   19.0445 H   0  0  0  0  0  0
  -23.7085  -30.6031   19.4026 H   0  0  0  0  0  0
  -22.7328  -29.2432   19.8738 H   0  0  0  0  0  0
  -25.1312  -36.1936   25.0806 H   0  0  0  0  0  0
  -20.9946  -28.3204   24.1449 H   0  0  0  0  0  0
  -20.5663  -26.2215   23.3577 H   0  0  0  0  0  0
  -21.6619  -26.7385   22.1214 H   0  0  0  0  0  0
  -19.6879  -25.6284   21.1197 H   0  0  0  0  0  0
  -19.6690  -27.3206   20.6780 H   0  0  0  0  0  0
  -17.4186  -26.6622   21.4015 H   0  0  0  0  0  0
  -18.0305  -26.0021   22.9018 H   0  0  0  0  0  0
  -19.7950  -30.7238   24.2177 H   0  0  0  0  0  0
  -17.5030  -31.6226   24.5164 H   0  0  0  0  0  0
  -15.5339  -30.2922   23.7702 H   0  0  0  0  0  0
  -15.8662  -28.0836   22.6957 H   0  0  0  0  0  0
  -24.5885  -30.7061   25.7803 H   0  0  0  0  0  0
  -24.8977  -32.2864   26.4907 H   0  0  0  0  0  0
  -25.8137  -30.8854   27.0170 H   0  0  0  0  0  0
  -26.2820  -29.6749   24.1115 H   0  0  0  0  0  0
  -27.4020  -29.7216   25.4477 H   0  0  0  0  0  0
  -27.8658  -30.4222   23.9144 H   0  0  0  0  0  0
  -27.2543  -33.3582   26.2077 H   0  0  0  0  0  0
  -28.3834  -32.6941   25.0307 H   0  0  0  0  0  0
  -28.0686  -31.8414   26.5348 H   0  0  0  0  0  0
  -28.2568  -38.0137   24.7507 H   0  0  0  0  0  0
  -28.1118  -36.2652   24.6254 H   0  0  0  0  0  0
  -27.2285  -37.1420   25.8831 H   0  0  0  0  0  0
  -20.9279  -29.8785   21.7028 H   0  0  0  0  0  0
  -26.0168  -38.2837   24.1415 H   0  0  0  0  0  0
  -27.1858  -18.6400   23.8673 H   0  0  0  0  0  0
  -28.4760  -16.7084   24.6620 H   0  0  0  0  0  0
  -28.4517  -17.8918   19.8698 H   0  0  0  0  0  0
  -30.9450  -16.9394   17.2181 H   0  0  0  0  0  0
  -30.4240  -15.2211   17.5852 H   0  0  0  0  0  0
  -26.2433  -19.9598   21.6875 H   0  0  0  0  0  0
  -29.0164  -20.4451   20.4983 H   0  0  0  0  0  0
  -30.6557  -17.5762   19.5402 H   0  0  0  0  0  0
  -30.2406  -15.3079   24.4675 H   0  0  0  0  0  0
  -31.2994  -15.4826   23.0882 H   0  0  0  0  0  0
  -30.0964  -14.1799   23.1411 H   0  0  0  0  0  0
  -29.1882  -24.4098   18.9302 H   0  0  0  0  0  0
  -27.4554  -24.2861   18.8651 H   0  0  0  0  0  0
  -29.0669  -25.1657   21.3312 H   0  0  0  0  0  0
  -27.3316  -25.1986   21.2406 H   0  0  0  0  0  0
  -29.3886  -22.5074   20.1435 H   0  0  0  0  0  0
  1 25  1  0  0  0
  1 30  2  0  0  0
  1 86  1  0  0  0
  2  3  1  0  0  0
  2 25  1  0  0  0
  2 88  1  0  0  0
  2 89  1  0  0  0
  3  4  1  0  0  0
  3 90  1  0  0  0
  3 91  1  0  0  0
  4  5  1  0  0  0
  4 92  1  0  0  0
  4 93  1  0  0  0
  5  6  1  0  0  0
  5 26  1  0  0  0
  5 94  1  0  0  0
  6 25  1  0  0  0
  6 95  1  0  0  0
  6 96  1  0  0  0
  7  8  2  0  0  0
  7 26  1  0  0  0
  7 29  1  0  0  0
  8  9  1  0  0  0
  8 22  1  0  0  0
  9 10  1  0  0  0
  9 27  2  0  0  0
 10 11  2  0  0  0
 10 15  1  0  0  0
 11 12  1  0  0  0
 11 97  1  0  0  0
 12 13  2  0  0  0
 12 98  1  0  0  0
 13 14  1  0  0  0
 13 31  1  0  0  0
 14 15  2  0  0  0
 14 99  1  0  0  0
 15100  1  0  0  0
 16 17  2  0  0  0
 16 21  1  0  0  0
 16 31  1  0  0  0
 17 18  1  0  0  0
 17101  1  0  0  0
 18 19  2  0  0  0
 18102  1  0  0  0
 19 20  1  0  0  0
 19 24  1  0  0  0
 20 21  2  0  0  0
 20103  1  0  0  0
 21 23  1  0  0  0
 22 28  1  0  0  0
 22 32  2  0  0  0
 26 27  1  0  0  0
 28104  1  0  0  0
 28105  1  0  0  0
 29106  1  0  0  0
 29107  1  0  0  0
 33 34  1  0  0  0
 33 66  1  0  0  0
 33 70  2  0  0  0
 34 36  1  0  0  0
 34 59  1  0  0  0
 34108  1  0  0  0
 35 44  2  0  0  0
 35 45  1  0  0  0
 35 68  1  0  0  0
 36 56  1  0  0  0
 36109  1  0  0  0
 37 39  1  0  0  0
 37 47  1  0  0  0
 37 66  1  0  0  0
 37110  1  0  0  0
 38 43  2  0  0  0
 38 46  1  0  0  0
 38 47  1  0  0  0
 39 64  1  0  0  0
 39 67  2  0  0  0
 40 52  1  0  0  0
 40 53  2  0  0  0
 40 58  1  0  0  0
 41111  1  0  0  0
 41112  1  0  0  0
 41113  1  0  0  0
 41 48  1  0  0  0
 42 43  1  0  0  0
 42 66  1  0  0  0
 42114  1  0  0  0
 42115  1  0  0  0
 43 44  1  0  0  0
 44116  1  0  0  0
 45 46  2  0  0  0
 45117  1  0  0  0
 46118  1  0  0  0
 47119  1  0  0  0
 47120  1  0  0  0
 48 56  1  0  0  0
 48 65  1  0  0  0
 48121  1  0  0  0
 49 50  1  0  0  0
 49 53  1  0  0  0
 49 64  1  0  0  0
 49122  1  0  0  0
 50 51  1  0  0  0
 50123  1  0  0  0
 50124  1  0  0  0
 51 52  1  0  0  0
 51125  1  0  0  0
 51126  1  0  0  0
 52127  1  0  0  0
 52128  1  0  0  0
 53 54  1  0  0  0
 54 55  2  0  0  0
 54129  1  0  0  0
 55 57  1  0  0  0
 55130  1  0  0  0
 56 69  2  0  0  0
 57 58  2  0  0  0
 57131  1  0  0  0
 58132  1  0  0  0
 59 60  1  0  0  0
 59 61  1  0  0  0
 59 62  1  0  0  0
 60133  1  0  0  0
 60134  1  0  0  0
 60135  1  0  0  0
 61136  1  0  0  0
 61137  1  0  0  0
 61138  1  0  0  0
 62139  1  0  0  0
 62140  1  0  0  0
 62141  1  0  0  0
 63 65  1  0  0  0
 63142  1  0  0  0
 63143  1  0  0  0
 63144  1  0  0  0
 64145  1  0  0  0
 65146  1  0  0  0
 68 84  1  0  0  0
 71 72  2  0  0  0
 71 74  1  0  0  0
 71147  1  0  0  0
 72 75  1  0  0  0
 72148  1  0  0  0
 73 74  2  0  0  0
 73 76  1  0  0  0
 73149  1  0  0  0
 74 78  1  0  0  0
 75 76  2  0  0  0
 75 82  1  0  0  0
 76 86  1  0  0  0
 77 80  2  0  0  0
 77150  1  0  0  0
 77151  1  0  0  0
 78 79  2  0  0  0
 78152  1  0  0  0
 79 81  1  0  0  0
 79153  1  0  0  0
 80 86  1  0  0  0
 80154  1  0  0  0
 81 85  1  0  0  0
 81 87  2  0  0  0
 82155  1  0  0  0
 82156  1  0  0  0
 82157  1  0  0  0
 83 84  1  0  0  0
 83 85  1  0  0  0
 83158  1  0  0  0
 83159  1  0  0  0
 84160  1  0  0  0
 84161  1  0  0  0
 85162  1  0  0  0
M  ISO  4   1 100  68 101  84 101  86 100
M  END
> <chiral flag>
0

> <version>
0

> <s_m_source_file>
/data/baiqing/PycharmProjects/Reinvent-master-3.2/result/LINK_invent/BTK/process_docking_weight1_custom_product_contain_oxygen_bond_distance_aromatic_linkinvent_7_9_3/rearranged_h_0058.sdf

> <i_m_source_file_index>
96

> <r_mmod_Potential_Energy-OPLS-2005>
118.259674072266

> <r_mmod_Stretch_Energy-OPLS-2005>
49.272518157959

> <r_mmod_Bend_Energy-OPLS-2005>
121.291748046875

> <r_mmod_Torsional_Energy-OPLS-2005>
330.369445800781

> <r_mmod_Improper_Torsional_Energy-OPLS-2005>
14.6686429977417

> <r_mmod_Van_der_Waal_Energy-OPLS-2005>
169.125854492188

> <r_mmod_Electrostatic_Energy-OPLS-2005>
-384.158721923828

> <r_mmod_Solvation_Energy-OPLS-2005>
-215.90885925293

> <b_mmod_Minimization_Converged-OPLS-2005>
0

> <r_mmod_RMS_Derivative-OPLS-2005>
3.99065899848938

$$$$
