0
                    3D
 Structure written by MMmdl.
158166  0  0  1  0            999 V2000
  -30.7515  -14.4742   20.5485 C   0  0  0  0  0  0
  -30.4026  -12.3024   19.4419 C   0  0  0  0  0  0
  -29.4889  -12.4903   18.2154 C   0  0  0  0  0  0
  -28.0114  -12.3616   18.6263 C   0  0  0  0  0  0
  -27.6558  -13.2194   19.8711 C   0  0  2  0  0  0
  -28.6985  -13.0524   21.0004 C   0  0  0  0  0  0
  -25.2545  -13.8195   20.5669 C   0  0  0  0  0  0
  -24.1810  -13.0451   20.9173 C   0  0  0  0  0  0
  -24.6389  -11.6925   20.8734 C   0  0  0  0  0  0
  -23.9061  -10.4300   21.0395 C   0  0  0  0  0  0
  -24.3611   -9.4216   21.9180 C   0  0  0  0  0  0
  -23.6283   -8.2252   22.0755 C   0  0  0  0  0  0
  -22.4269   -8.0280   21.3542 C   0  0  0  0  0  0
  -21.9904   -9.0253   20.4640 C   0  0  0  0  0  0
  -22.7231  -10.2135   20.3046 C   0  0  0  0  0  0
  -21.6859   -6.0727   22.5269 C   0  0  0  0  0  0
  -21.4015   -6.5628   23.8200 C   0  0  0  0  0  0
  -21.3657   -5.6783   24.9158 C   0  0  0  0  0  0
  -21.6041   -4.3048   24.7214 C   0  0  0  0  0  0
  -21.8826   -3.8137   23.4339 C   0  0  0  0  0  0
  -21.9192   -4.6952   22.3394 C   0  0  0  0  0  0
  -22.7825  -13.5235   21.1826 C   0  0  0  0  0  0
  -22.1661   -4.2141   21.0969 F   0  0  0  0  0  0
  -21.5630   -3.4537   25.7736 F   0  0  0  0  0  0
  -30.0295  -13.3235   20.4392 N   0  0  0  0  0  0
  -26.2997  -12.9393   20.3365 N   0  0  0  0  0  0
  -25.9324  -11.6546   20.5771 N   0  0  0  0  0  0
  -22.0478  -12.8213   22.0379 N   0  0  0  0  0  0
  -25.4257  -15.1911   20.4076 N   0  0  0  0  0  0
  -31.8792  -14.5541   20.0645 O   0  0  0  0  0  0
  -21.6640   -6.8873   21.4232 O   0  0  0  0  0  0
  -22.3508  -14.5542   20.6683 O   0  0  0  0  0  0
  -24.6157  -31.8653   23.2076 C   0  0  0  0  0  0
  -25.9048  -32.4808   23.8376 C   0  0  1  0  0  0
  -27.2200  -27.4224   20.1018 C   0  0  0  0  0  0
  -25.5910  -33.8607   24.2317 N   0  0  0  0  0  0
  -23.4065  -30.4882   21.5473 C   0  0  2  0  0  0
  -24.8564  -28.9673   20.0932 C   0  0  0  0  0  0
  -22.7442  -29.4631   22.4955 C   0  0  0  0  0  0
  -18.0283  -28.1377   22.8489 C   0  0  0  0  0  0
  -24.1495  -36.7296   23.2636 C   0  0  0  0  0  0
  -25.9351  -30.8318   21.3620 C   0  0  0  0  0  0
  -26.0159  -29.4699   20.7004 C   0  0  0  0  0  0
  -27.2060  -28.7037   20.7020 C   0  0  0  0  0  0
  -26.0634  -26.9589   19.4420 C   0  0  0  0  0  0
  -24.8783  -27.7156   19.4537 C   0  0  0  0  0  0
  -23.6141  -29.8260   20.1589 C   0  0  0  0  0  0
  -25.4113  -36.3095   24.0343 C   0  0  1  0  0  0
  -20.5876  -28.3665   23.1310 C   0  0  2  0  0  0
  -20.6771  -26.9398   22.5405 C   0  0  0  0  0  0
  -19.5743  -26.6386   21.5203 C   0  0  0  0  0  0
  -18.1913  -26.7920   22.1620 C   0  0  0  0  0  0
  -19.1534  -28.8835   23.2891 C   0  0  0  0  0  0
  -18.9463  -30.1432   23.8909 C   0  0  0  0  0  0
  -17.6461  -30.6581   24.0564 C   0  0  0  0  0  0
  -25.9043  -34.9467   23.5128 C   0  0  0  0  0  0
  -16.5351  -29.9080   23.6335 C   0  0  0  0  0  0
  -16.7272  -28.6504   23.0354 C   0  0  0  0  0  0
  -26.4486  -31.6583   25.0701 C   0  0  0  0  0  0
  -25.3754  -31.3648   26.1446 C   0  0  0  0  0  0
  -27.0329  -30.3042   24.6036 C   0  0  0  0  0  0
  -27.6060  -32.4295   25.7476 C   0  0  0  0  0  0
  -27.5577  -37.1795   24.8468 C   0  0  0  0  0  0
  -21.4160  -29.3027   22.3709 N   0  0  0  0  0  0
  -26.4292  -37.3782   23.9407 N   0  0  0  0  0  0
  -24.6707  -31.0752   22.0980 N   0  0  0  0  0  0
  -23.4215  -28.8180   23.3002 O   0  0  0  0  0  0
  -28.2976  -26.5693   20.2316 O   0  0  0  0  0  0
  -26.5595  -34.8917   22.4680 O   0  0  0  0  0  0
  -23.5340  -32.1405   23.7454 O   0  0  0  0  0  0
  -31.3368  -19.6922   20.9619 C   0  0  0  0  0  0
  -31.8944  -17.3421   20.6724 C   0  0  0  0  0  0
  -30.0274  -19.3449   21.3523 C   0  0  0  0  0  0
  -30.5789  -16.9406   21.0351 C   0  0  0  0  0  0
  -32.2634  -18.6965   20.6283 C   0  0  0  0  0  0
  -29.6561  -17.9653   21.3864 C   0  0  0  0  0  0
  -29.1537  -20.4450   21.8127 C   0  0  0  0  0  0
  -28.6387  -22.9146   21.6677 C   0  0  0  0  0  0
  -26.8150  -25.5063   22.0200 C   0  0  0  0  0  0
  -28.5523  -24.1019   20.6611 C   0  0  0  0  0  0
  -28.1733  -25.5127   21.2444 C   0  0  1  0  0  0
  -30.1400  -15.5584   21.0810 N   0  0  0  0  0  0
  -29.1459  -21.6510   21.1685 N   0  0  0  0  0  0
  -28.4372  -20.2481   22.9264 N   0  3  0  0  0  0
  -28.3151  -23.0249   22.8551 O   0  0  0  0  0  0
  -33.5259  -19.0434   20.2826 F   0  0  0  0  0  0
  -28.4127  -17.6022   21.7885 F   0  0  0  0  0  0
  -31.4496  -12.3545   19.1391 H   0  0  0  0  0  0
  -30.2736  -11.3056   19.8670 H   0  0  0  0  0  0
  -29.7281  -11.7461   17.4544 H   0  0  0  0  0  0
  -29.6637  -13.4656   17.7582 H   0  0  0  0  0  0
  -27.8171  -11.3082   18.8284 H   0  0  0  0  0  0
  -27.3658  -12.6300   17.7892 H   0  0  0  0  0  0
  -27.6864  -14.2605   19.5504 H   0  0  0  0  0  0
  -28.6692  -12.0359   21.3976 H   0  0  0  0  0  0
  -28.4654  -13.7080   21.8411 H   0  0  0  0  0  0
  -25.2762   -9.5685   22.4749 H   0  0  0  0  0  0
  -23.9988   -7.4646   22.7481 H   0  0  0  0  0  0
  -21.0844   -8.8770   19.8941 H   0  0  0  0  0  0
  -22.3700  -10.9667   19.6144 H   0  0  0  0  0  0
  -21.2014   -7.6140   23.9695 H   0  0  0  0  0  0
  -21.1470   -6.0516   25.9060 H   0  0  0  0  0  0
  -22.0611   -2.7599   23.2841 H   0  0  0  0  0  0
  -22.4116  -11.9862   22.4728 H   0  0  0  0  0  0
  -21.1089  -13.1210   22.2593 H   0  0  0  0  0  0
  -24.6635  -15.8494   20.5229 H   0  0  0  0  0  0
  -26.2827  -15.6316   20.0973 H   0  0  0  0  0  0
  -26.7136  -32.5543   23.1152 H   0  0  0  0  0  0
  -25.0109  -33.9780   25.0497 H   0  0  0  0  0  0
  -22.6961  -31.3049   21.4093 H   0  0  0  0  0  0
  -23.3768  -35.9620   23.3305 H   0  0  0  0  0  0
  -24.3589  -36.8907   22.2046 H   0  0  0  0  0  0
  -23.7240  -37.6496   23.6657 H   0  0  0  0  0  0
  -26.0464  -31.6023   20.5977 H   0  0  0  0  0  0
  -26.8221  -30.8834   21.9811 H   0  0  0  0  0  0
  -28.0910  -29.0670   21.2052 H   0  0  0  0  0  0
  -26.0684  -25.9853   18.9722 H   0  0  0  0  0  0
  -23.9918  -27.3322   18.9691 H   0  0  0  0  0  0
  -23.7096  -30.6042   19.4009 H   0  0  0  0  0  0
  -22.7409  -29.2382   19.8701 H   0  0  0  0  0  0
  -25.1284  -36.1958   25.0838 H   0  0  0  0  0  0
  -20.9960  -28.3223   24.1435 H   0  0  0  0  0  0
  -20.5692  -26.2256   23.3592 H   0  0  0  0  0  0
  -21.6627  -26.7445   22.1168 H   0  0  0  0  0  0
  -19.6910  -25.6310   21.1205 H   0  0  0  0  0  0
  -19.6686  -27.3224   20.6752 H   0  0  0  0  0  0
  -17.4184  -26.6696   21.4010 H   0  0  0  0  0  0
  -18.0293  -26.0055   22.9004 H   0  0  0  0  0  0
  -19.7941  -30.7233   24.2291 H   0  0  0  0  0  0
  -17.5026  -31.6266   24.5144 H   0  0  0  0  0  0
  -15.5351  -30.2981   23.7660 H   0  0  0  0  0  0
  -15.8672  -28.0824   22.7064 H   0  0  0  0  0  0
  -24.5954  -30.6977   25.7760 H   0  0  0  0  0  0
  -24.8914  -32.2780   26.4922 H   0  0  0  0  0  0
  -25.8102  -30.8796   27.0194 H   0  0  0  0  0  0
  -26.2851  -29.6782   24.1146 H   0  0  0  0  0  0
  -27.4210  -29.7289   25.4452 H   0  0  0  0  0  0
  -27.8641  -30.4411   23.9111 H   0  0  0  0  0  0
  -27.2713  -33.3621   26.2025 H   0  0  0  0  0  0
  -28.3893  -32.6790   25.0310 H   0  0  0  0  0  0
  -28.0696  -31.8428   26.5414 H   0  0  0  0  0  0
  -28.2567  -38.0109   24.7538 H   0  0  0  0  0  0
  -28.1097  -36.2645   24.6277 H   0  0  0  0  0  0
  -27.2291  -37.1426   25.8865 H   0  0  0  0  0  0
  -20.9318  -29.8783   21.6965 H   0  0  0  0  0  0
  -26.0190  -38.2858   24.1417 H   0  0  0  0  0  0
  -31.6668  -20.7213   20.9609 H   0  0  0  0  0  0
  -32.6798  -16.6497   20.4286 H   0  0  0  0  0  0
  -26.8156  -24.8654   22.8965 H   0  0  0  0  0  0
  -25.9898  -25.1664   21.3944 H   0  0  0  0  0  0
  -26.5625  -26.4906   22.4122 H   0  0  0  0  0  0
  -27.8360  -23.8335   19.8843 H   0  0  0  0  0  0
  -29.5194  -24.1846   20.1647 H   0  0  0  0  0  0
  -28.9370  -25.7612   21.9832 H   0  0  0  0  0  0
  -29.2092  -15.4088   21.4400 H   0  0  0  0  0  0
  -29.5075  -21.5760   20.2299 H   0  0  0  0  0  0
  -28.3775  -19.3297   23.3410 H   0  0  0  0  0  0
  -27.9939  -21.0387   23.3768 H   0  0  0  0  0  0
  1 25  1  0  0  0
  1 30  2  0  0  0
  1 82  1  0  0  0
  2  3  1  0  0  0
  2 25  1  0  0  0
  2 88  1  0  0  0
  2 89  1  0  0  0
  3  4  1  0  0  0
  3 90  1  0  0  0
  3 91  1  0  0  0
  4  5  1  0  0  0
  4 92  1  0  0  0
  4 93  1  0  0  0
  5  6  1  0  0  0
  5 26  1  0  0  0
  5 94  1  0  0  0
  6 25  1  0  0  0
  6 95  1  0  0  0
  6 96  1  0  0  0
  7  8  2  0  0  0
  7 26  1  0  0  0
  7 29  1  0  0  0
  8  9  1  0  0  0
  8 22  1  0  0  0
  9 10  1  0  0  0
  9 27  2  0  0  0
 10 11  2  0  0  0
 10 15  1  0  0  0
 11 12  1  0  0  0
 11 97  1  0  0  0
 12 13  2  0  0  0
 12 98  1  0  0  0
 13 14  1  0  0  0
 13 31  1  0  0  0
 14 15  2  0  0  0
 14 99  1  0  0  0
 15100  1  0  0  0
 16 17  2  0  0  0
 16 21  1  0  0  0
 16 31  1  0  0  0
 17 18  1  0  0  0
 17101  1  0  0  0
 18 19  2  0  0  0
 18102  1  0  0  0
 19 20  1  0  0  0
 19 24  1  0  0  0
 20 21  2  0  0  0
 20103  1  0  0  0
 21 23  1  0  0  0
 22 28  1  0  0  0
 22 32  2  0  0  0
 26 27  1  0  0  0
 28104  1  0  0  0
 28105  1  0  0  0
 29106  1  0  0  0
 29107  1  0  0  0
 33 34  1  0  0  0
 33 66  1  0  0  0
 33 70  2  0  0  0
 34 36  1  0  0  0
 34 59  1  0  0  0
 34108  1  0  0  0
 35 44  2  0  0  0
 35 45  1  0  0  0
 35 68  1  0  0  0
 36 56  1  0  0  0
 36109  1  0  0  0
 37 39  1  0  0  0
 37 47  1  0  0  0
 37 66  1  0  0  0
 37110  1  0  0  0
 38 43  2  0  0  0
 38 46  1  0  0  0
 38 47  1  0  0  0
 39 64  1  0  0  0
 39 67  2  0  0  0
 40 52  1  0  0  0
 40 53  2  0  0  0
 40 58  1  0  0  0
 41111  1  0  0  0
 41112  1  0  0  0
 41113  1  0  0  0
 41 48  1  0  0  0
 42 43  1  0  0  0
 42 66  1  0  0  0
 42114  1  0  0  0
 42115  1  0  0  0
 43 44  1  0  0  0
 44116  1  0  0  0
 45 46  2  0  0  0
 45117  1  0  0  0
 46118  1  0  0  0
 47119  1  0  0  0
 47120  1  0  0  0
 48 56  1  0  0  0
 48 65  1  0  0  0
 48121  1  0  0  0
 49 50  1  0  0  0
 49 53  1  0  0  0
 49 64  1  0  0  0
 49122  1  0  0  0
 50 51  1  0  0  0
 50123  1  0  0  0
 50124  1  0  0  0
 51 52  1  0  0  0
 51125  1  0  0  0
 51126  1  0  0  0
 52127  1  0  0  0
 52128  1  0  0  0
 53 54  1  0  0  0
 54 55  2  0  0  0
 54129  1  0  0  0
 55 57  1  0  0  0
 55130  1  0  0  0
 56 69  2  0  0  0
 57 58  2  0  0  0
 57131  1  0  0  0
 58132  1  0  0  0
 59 60  1  0  0  0
 59 61  1  0  0  0
 59 62  1  0  0  0
 60133  1  0  0  0
 60134  1  0  0  0
 60135  1  0  0  0
 61136  1  0  0  0
 61137  1  0  0  0
 61138  1  0  0  0
 62139  1  0  0  0
 62140  1  0  0  0
 62141  1  0  0  0
 63 65  1  0  0  0
 63142  1  0  0  0
 63143  1  0  0  0
 63144  1  0  0  0
 64145  1  0  0  0
 65146  1  0  0  0
 68 81  1  0  0  0
 71 73  2  0  0  0
 71 75  1  0  0  0
 71147  1  0  0  0
 72 74  1  0  0  0
 72 75  2  0  0  0
 72148  1  0  0  0
 73 76  1  0  0  0
 73 77  1  0  0  0
 74 76  2  0  0  0
 74 82  1  0  0  0
 75 86  1  0  0  0
 76 87  1  0  0  0
 77 83  1  0  0  0
 77 84  2  0  0  0
 78 80  1  0  0  0
 78 83  1  0  0  0
 78 85  2  0  0  0
 79149  1  0  0  0
 79150  1  0  0  0
 79151  1  0  0  0
 79 81  1  0  0  0
 80 81  1  0  0  0
 80152  1  0  0  0
 80153  1  0  0  0
 81154  1  0  0  0
 82155  1  0  0  0
 83156  1  0  0  0
 84157  1  0  0  0
 84158  1  0  0  0
M  CHG  1  84   1
M  ISO  4   1 100  68 101  81 101  82 100
M  END
> <chiral flag>
0

> <version>
0

> <s_m_source_file>
/data/baiqing/PycharmProjects/Reinvent-master-3.2/result/LINK_invent/BTK/process_docking_weight1_custom_product_contain_oxygen_bond_distance_aromatic_linkinvent_7_9_3/rearranged_h_0167.sdf

> <i_m_source_file_index>
1

> <r_mmod_Potential_Energy-OPLS-2005>
-319.799560546875

> <r_mmod_Stretch_Energy-OPLS-2005>
51.7258720397949

> <r_mmod_Bend_Energy-OPLS-2005>
119.663101196289

> <r_mmod_Torsional_Energy-OPLS-2005>
234.635299682617

> <r_mmod_Improper_Torsional_Energy-OPLS-2005>
4.29684209823608

> <r_mmod_Van_der_Waal_Energy-OPLS-2005>
187.262512207031

> <r_mmod_Electrostatic_Energy-OPLS-2005>
-488.407073974609

> <r_mmod_Solvation_Energy-OPLS-2005>
-454.253662109375

> <b_mmod_Minimization_Converged-OPLS-2005>
0

> <r_mmod_RMS_Derivative-OPLS-2005>
2.31668734550476

$$$$
1
                    3D
 Structure written by MMmdl.
139146  0  0  1  0            999 V2000
  -30.1316  -16.0824   20.3042 C   0  0  0  0  0  0
  -30.3855  -13.4321   19.5162 C   0  0  0  0  0  0
  -29.5623  -12.7734   18.3572 C   0  0  0  0  0  0
  -28.1777  -12.3160   18.8321 C   0  0  0  0  0  0
  -27.5822  -13.3523   19.8033 C   0  0  2  0  0  0
  -28.5724  -13.8774   20.8818 C   0  0  0  0  0  0
  -25.2269  -13.8343   20.5868 C   0  0  0  0  0  0
  -24.1699  -13.0435   20.9320 C   0  0  0  0  0  0
  -24.6462  -11.6966   20.8761 C   0  0  0  0  0  0
  -23.9167  -10.4296   21.0379 C   0  0  0  0  0  0
  -24.3683   -9.4207   21.9170 C   0  0  0  0  0  0
  -23.6330   -8.2255   22.0752 C   0  0  0  0  0  0
  -22.4309   -8.0297   21.3544 C   0  0  0  0  0  0
  -21.9966   -9.0275   20.4640 C   0  0  0  0  0  0
  -22.7324  -10.2139   20.3039 C   0  0  0  0  0  0
  -21.6864   -6.0749   22.5279 C   0  0  0  0  0  0
  -21.4023   -6.5647   23.8213 C   0  0  0  0  0  0
  -21.3662   -5.6797   24.9173 C   0  0  0  0  0  0
  -21.6044   -4.3059   24.7222 C   0  0  0  0  0  0
  -21.8818   -3.8154   23.4341 C   0  0  0  0  0  0
  -21.9196   -4.6974   22.3399 C   0  0  0  0  0  0
  -22.7697  -13.5131   21.1935 C   0  0  0  0  0  0
  -22.1662   -4.2159   21.0977 F   0  0  0  0  0  0
  -21.5627   -3.4541   25.7733 F   0  0  0  0  0  0
  -29.6552  -14.6462   20.1786 N   0  0  0  0  0  0
  -26.2775  -12.9762   20.3310 N   0  0  0  0  0  0
  -25.9429  -11.6781   20.5679 N   0  0  0  0  0  0
  -22.0372  -12.8098   22.0484 N   0  0  0  0  0  0
  -25.3792  -15.2093   20.4317 N   0  0  0  0  0  0
  -31.3797  -15.9353   20.2954 O   0  0  0  0  0  0
  -21.6656   -6.8901   21.4245 O   0  0  0  0  0  0
  -22.3360  -14.5424   20.6768 O   0  0  0  0  0  0
  -24.7138  -31.7644   23.1262 C   0  0  0  0  0  0
  -25.9570  -32.4293   23.7922 C   0  0  1  0  0  0
  -27.2386  -26.3877   20.2538 C   0  0  0  0  0  0
  -25.6019  -33.8135   24.1777 N   0  0  0  0  0  0
  -23.5539  -30.3525   21.4887 C   0  0  2  0  0  0
  -25.0130  -28.6244   20.1372 C   0  0  0  0  0  0
  -22.7900  -29.4130   22.4640 C   0  0  0  0  0  0
  -18.0359  -28.1438   22.8439 C   0  0  0  0  0  0
  -24.1497  -36.7078   23.2661 C   0  0  0  0  0  0
  -26.1475  -30.3943   21.4374 C   0  0  0  0  0  0
  -26.2100  -28.9218   20.7989 C   0  0  0  0  0  0
  -27.2958  -27.8454   20.8086 C   0  0  0  0  0  0
  -26.0018  -26.3802   19.5338 C   0  0  0  0  0  0
  -24.9663  -27.3815   19.4788 C   0  0  0  0  0  0
  -23.8259  -29.6194   20.1397 C   0  0  0  0  0  0
  -25.4159  -36.2793   24.0259 C   0  0  1  0  0  0
  -20.6008  -28.3812   23.1086 C   0  0  2  0  0  0
  -20.6810  -26.9443   22.5408 C   0  0  0  0  0  0
  -19.5790  -26.6361   21.5219 C   0  0  0  0  0  0
  -18.1973  -26.7959   22.1614 C   0  0  0  0  0  0
  -19.1632  -28.8956   23.2734 C   0  0  0  0  0  0
  -18.9531  -30.1531   23.8793 C   0  0  0  0  0  0
  -17.6517  -30.6611   24.0544 C   0  0  0  0  0  0
  -25.9158  -34.9192   23.4878 C   0  0  0  0  0  0
  -16.5405  -29.9086   23.6358 C   0  0  0  0  0  0
  -16.7336  -28.6512   23.0372 C   0  0  0  0  0  0
  -26.4647  -31.6457   25.0672 C   0  0  0  0  0  0
  -25.3629  -31.3860   26.1227 C   0  0  0  0  0  0
  -27.0628  -30.2763   24.6793 C   0  0  0  0  0  0
  -27.6034  -32.4391   25.7508 C   0  0  0  0  0  0
  -27.5555  -37.1693   24.8466 C   0  0  0  0  0  0
  -21.4520  -29.3000   22.3377 N   0  0  0  0  0  0
  -26.4258  -37.3588   23.9409 N   0  0  0  0  0  0
  -24.8325  -30.8777   22.0692 N   0  0  0  0  0  0
  -23.4197  -28.7778   23.3126 O   0  0  0  0  0  0
  -28.1816  -25.0398   20.2165 O   0  0  0  0  0  0
  -26.5841  -34.8830   22.4525 O   0  0  0  0  0  0
  -23.6091  -32.0862   23.6018 O   0  0  0  0  0  0
  -28.8095  -21.3267   19.9797 C   0  0  0  0  0  0
  -29.3183  -19.4706   20.6236 C   0  0  0  0  0  0
  -28.1406  -23.1509   20.5732 C   0  0  0  0  0  0
  -29.3847  -17.5685   20.2621 N   0  0  0  0  0  0
  -28.9660  -21.3494   18.7547 O   0  0  0  0  0  0
  -31.3297  -13.7738   19.0905 H   0  0  0  0  0  0
  -30.6760  -12.6860   20.2582 H   0  0  0  0  0  0
  -30.1102  -11.9354   17.9242 H   0  0  0  0  0  0
  -29.4401  -13.5045   17.5567 H   0  0  0  0  0  0
  -28.2917  -11.3620   19.3483 H   0  0  0  0  0  0
  -27.5130  -12.1372   17.9859 H   0  0  0  0  0  0
  -27.3807  -14.2080   19.1565 H   0  0  0  0  0  0
  -28.9453  -13.0761   21.5217 H   0  0  0  0  0  0
  -28.0565  -14.5705   21.5476 H   0  0  0  0  0  0
  -25.2820   -9.5676   22.4760 H   0  0  0  0  0  0
  -24.0023   -7.4649   22.7483 H   0  0  0  0  0  0
  -21.0893   -8.8811   19.8948 H   0  0  0  0  0  0
  -22.3784  -10.9681   19.6150 H   0  0  0  0  0  0
  -21.2020   -7.6156   23.9720 H   0  0  0  0  0  0
  -21.1484   -6.0525   25.9077 H   0  0  0  0  0  0
  -22.0593   -2.7616   23.2839 H   0  0  0  0  0  0
  -22.4029  -11.9783   22.4884 H   0  0  0  0  0  0
  -21.0970  -13.1073   22.2675 H   0  0  0  0  0  0
  -24.6061  -15.8555   20.5480 H   0  0  0  0  0  0
  -26.2254  -15.6568   20.1056 H   0  0  0  0  0  0
  -26.7685  -32.4694   23.0654 H   0  0  0  0  0  0
  -25.0026  -33.9119   24.9839 H   0  0  0  0  0  0
  -22.8974  -31.1974   21.2709 H   0  0  0  0  0  0
  -23.3787  -35.9376   23.3240 H   0  0  0  0  0  0
  -24.3555  -36.8843   22.2092 H   0  0  0  0  0  0
  -23.7231  -37.6211   23.6818 H   0  0  0  0  0  0
  -26.3796  -31.0950   20.6344 H   0  0  0  0  0  0
  -26.9881  -30.4772   22.1131 H   0  0  0  0  0  0
  -28.2004  -28.1025   21.3414 H   0  0  0  0  0  0
  -25.7852  -25.4660   18.9993 H   0  0  0  0  0  0
  -24.0741  -27.1379   18.9184 H   0  0  0  0  0  0
  -24.0304  -30.3646   19.3702 H   0  0  0  0  0  0
  -22.9241  -29.1030   19.8065 H   0  0  0  0  0  0
  -25.1383  -36.1510   25.0748 H   0  0  0  0  0  0
  -21.0076  -28.3458   24.1219 H   0  0  0  0  0  0
  -20.5646  -26.2444   23.3697 H   0  0  0  0  0  0
  -21.6668  -26.7339   22.1244 H   0  0  0  0  0  0
  -19.6941  -25.6244   21.1317 H   0  0  0  0  0  0
  -19.6743  -27.3114   20.6705 H   0  0  0  0  0  0
  -17.4245  -26.6704   21.4014 H   0  0  0  0  0  0
  -18.0349  -26.0126   22.9031 H   0  0  0  0  0  0
  -19.8007  -30.7373   24.2118 H   0  0  0  0  0  0
  -17.5066  -31.6280   24.5167 H   0  0  0  0  0  0
  -15.5401  -30.2956   23.7742 H   0  0  0  0  0  0
  -15.8737  -28.0796   22.7146 H   0  0  0  0  0  0
  -24.5863  -30.7164   25.7514 H   0  0  0  0  0  0
  -24.8770  -32.3107   26.4349 H   0  0  0  0  0  0
  -25.7734  -30.9220   27.0204 H   0  0  0  0  0  0
  -26.3404  -29.6281   24.1825 H   0  0  0  0  0  0
  -27.3974  -29.7334   25.5643 H   0  0  0  0  0  0
  -27.9412  -30.3821   24.0426 H   0  0  0  0  0  0
  -27.2536  -33.3802   26.1766 H   0  0  0  0  0  0
  -28.4005  -32.6779   25.0454 H   0  0  0  0  0  0
  -28.0527  -31.8741   26.5685 H   0  0  0  0  0  0
  -28.2518  -38.0037   24.7519 H   0  0  0  0  0  0
  -28.1104  -36.2555   24.6285 H   0  0  0  0  0  0
  -27.2270  -37.1312   25.8866 H   0  0  0  0  0  0
  -20.9900  -29.8609   21.6355 H   0  0  0  0  0  0
  -26.0057  -38.2621   24.1432 H   0  0  0  0  0  0
  -28.8029  -19.4666   21.5839 H   0  0  0  0  0  0
  -30.3568  -19.6515   20.9004 H   0  0  0  0  0  0
  -28.4061  -23.1314   21.6299 H   0  0  0  0  0  0
  -27.0658  -22.9711   20.5824 H   0  0  0  0  0  0
  -28.4288  -17.3277   20.0375 H   0  0  0  0  0  0
  1 25  1  0  0  0
  1 30  2  0  0  0
  1 74  1  0  0  0
  2  3  1  0  0  0
  2 25  1  0  0  0
  2 76  1  0  0  0
  2 77  1  0  0  0
  3  4  1  0  0  0
  3 78  1  0  0  0
  3 79  1  0  0  0
  4  5  1  0  0  0
  4 80  1  0  0  0
  4 81  1  0  0  0
  5  6  1  0  0  0
  5 26  1  0  0  0
  5 82  1  0  0  0
  6 25  1  0  0  0
  6 83  1  0  0  0
  6 84  1  0  0  0
  7  8  2  0  0  0
  7 26  1  0  0  0
  7 29  1  0  0  0
  8  9  1  0  0  0
  8 22  1  0  0  0
  9 10  1  0  0  0
  9 27  2  0  0  0
 10 11  2  0  0  0
 10 15  1  0  0  0
 11 12  1  0  0  0
 11 85  1  0  0  0
 12 13  2  0  0  0
 12 86  1  0  0  0
 13 14  1  0  0  0
 13 31  1  0  0  0
 14 15  2  0  0  0
 14 87  1  0  0  0
 15 88  1  0  0  0
 16 17  2  0  0  0
 16 21  1  0  0  0
 16 31  1  0  0  0
 17 18  1  0  0  0
 17 89  1  0  0  0
 18 19  2  0  0  0
 18 90  1  0  0  0
 19 20  1  0  0  0
 19 24  1  0  0  0
 20 21  2  0  0  0
 20 91  1  0  0  0
 21 23  1  0  0  0
 22 28  1  0  0  0
 22 32  2  0  0  0
 26 27  1  0  0  0
 28 92  1  0  0  0
 28 93  1  0  0  0
 29 94  1  0  0  0
 29 95  1  0  0  0
 33 34  1  0  0  0
 33 66  1  0  0  0
 33 70  2  0  0  0
 34 36  1  0  0  0
 34 59  1  0  0  0
 34 96  1  0  0  0
 35 44  2  0  0  0
 35 45  1  0  0  0
 35 68  1  0  0  0
 36 56  1  0  0  0
 36 97  1  0  0  0
 37 39  1  0  0  0
 37 47  1  0  0  0
 37 66  1  0  0  0
 37 98  1  0  0  0
 38 43  2  0  0  0
 38 46  1  0  0  0
 38 47  1  0  0  0
 39 64  1  0  0  0
 39 67  2  0  0  0
 40 52  1  0  0  0
 40 53  2  0  0  0
 40 58  1  0  0  0
 41 99  1  0  0  0
 41100  1  0  0  0
 41101  1  0  0  0
 41 48  1  0  0  0
 42 43  1  0  0  0
 42 66  1  0  0  0
 42102  1  0  0  0
 42103  1  0  0  0
 43 44  1  0  0  0
 44104  1  0  0  0
 45 46  2  0  0  0
 45105  1  0  0  0
 46106  1  0  0  0
 47107  1  0  0  0
 47108  1  0  0  0
 48 56  1  0  0  0
 48 65  1  0  0  0
 48109  1  0  0  0
 49 50  1  0  0  0
 49 53  1  0  0  0
 49 64  1  0  0  0
 49110  1  0  0  0
 50 51  1  0  0  0
 50111  1  0  0  0
 50112  1  0  0  0
 51 52  1  0  0  0
 51113  1  0  0  0
 51114  1  0  0  0
 52115  1  0  0  0
 52116  1  0  0  0
 53 54  1  0  0  0
 54 55  2  0  0  0
 54117  1  0  0  0
 55 57  1  0  0  0
 55118  1  0  0  0
 56 69  2  0  0  0
 57 58  2  0  0  0
 57119  1  0  0  0
 58120  1  0  0  0
 59 60  1  0  0  0
 59 61  1  0  0  0
 59 62  1  0  0  0
 60121  1  0  0  0
 60122  1  0  0  0
 60123  1  0  0  0
 61124  1  0  0  0
 61125  1  0  0  0
 61126  1  0  0  0
 62127  1  0  0  0
 62128  1  0  0  0
 62129  1  0  0  0
 63 65  1  0  0  0
 63130  1  0  0  0
 63131  1  0  0  0
 63132  1  0  0  0
 64133  1  0  0  0
 65134  1  0  0  0
 68 73  1  0  0  0
 71 72  1  0  0  0
 71 73  1  0  0  0
 71 75  2  0  0  0
 72 74  1  0  0  0
 72135  1  0  0  0
 72136  1  0  0  0
 73137  1  0  0  0
 73138  1  0  0  0
 74139  1  0  0  0
M  ISO  4   1 100  68 101  73 101  74 100
M  END
> <chiral flag>
0

> <version>
0

> <s_m_source_file>
/data/baiqing/PycharmProjects/Reinvent-master-3.2/result/LINK_invent/BTK/process_docking_weight1_custom_product_contain_oxygen_bond_distance_aromatic_linkinvent_7_9_3/rearranged_h_0167.sdf

> <i_m_source_file_index>
2

> <r_mmod_Potential_Energy-OPLS-2005>
4346.67431640625

> <r_mmod_Stretch_Energy-OPLS-2005>
1984.31225585938

> <r_mmod_Bend_Energy-OPLS-2005>
938.119995117188

> <r_mmod_Torsional_Energy-OPLS-2005>
240.130416870117

> <r_mmod_Improper_Torsional_Energy-OPLS-2005>
5.27561807632446

> <r_mmod_Van_der_Waal_Energy-OPLS-2005>
113.459976196289

> <r_mmod_Electrostatic_Energy-OPLS-2005>
-373.315643310547

> <r_mmod_Solvation_Energy-OPLS-2005>
-253.261703491211

> <b_mmod_Minimization_Converged-OPLS-2005>
1

> <r_mmod_RMS_Derivative-OPLS-2005>
0.0483134239912033

$$$$
2
                    3D
 Structure written by MMmdl.
153161  0  0  1  0            999 V2000
  -30.6990  -14.4805   20.5518 C   0  0  0  0  0  0
  -30.4312  -12.2974   19.4517 C   0  0  0  0  0  0
  -29.5094  -12.4686   18.2249 C   0  0  0  0  0  0
  -28.0255  -12.3513   18.6227 C   0  0  0  0  0  0
  -27.6615  -13.2078   19.8650 C   0  0  2  0  0  0
  -28.6971  -13.0097   20.9955 C   0  0  0  0  0  0
  -25.2588  -13.8158   20.5670 C   0  0  0  0  0  0
  -24.1828  -13.0438   20.9153 C   0  0  0  0  0  0
  -24.6371  -11.6901   20.8703 C   0  0  0  0  0  0
  -23.9044  -10.4294   21.0383 C   0  0  0  0  0  0
  -24.3588   -9.4207   21.9161 C   0  0  0  0  0  0
  -23.6256   -8.2252   22.0753 C   0  0  0  0  0  0
  -22.4240   -8.0267   21.3552 C   0  0  0  0  0  0
  -21.9879   -9.0250   20.4652 C   0  0  0  0  0  0
  -22.7219  -10.2113   20.3053 C   0  0  0  0  0  0
  -21.6819   -6.0711   22.5279 C   0  0  0  0  0  0
  -21.3991   -6.5615   23.8201 C   0  0  0  0  0  0
  -21.3694   -5.6774   24.9174 C   0  0  0  0  0  0
  -21.6069   -4.3042   24.7224 C   0  0  0  0  0  0
  -21.8828   -3.8133   23.4350 C   0  0  0  0  0  0
  -21.9181   -4.6952   22.3403 C   0  0  0  0  0  0
  -22.7851  -13.5252   21.1823 C   0  0  0  0  0  0
  -22.1662   -4.2145   21.0985 F   0  0  0  0  0  0
  -21.5653   -3.4531   25.7741 F   0  0  0  0  0  0
  -30.0360  -13.2963   20.4567 N   0  0  0  0  0  0
  -26.3003  -12.9330   20.3281 N   0  0  0  0  0  0
  -25.9287  -11.6486   20.5680 N   0  0  0  0  0  0
  -22.0448  -12.8279   22.0371 N   0  0  0  0  0  0
  -25.4325  -15.1877   20.4171 N   0  0  0  0  0  0
  -31.8561  -14.6339   20.1445 O   0  0  0  0  0  0
  -21.6617   -6.8849   21.4224 O   0  0  0  0  0  0
  -22.3577  -14.5564   20.6668 O   0  0  0  0  0  0
  -24.6153  -31.8698   23.2118 C   0  0  0  0  0  0
  -25.9043  -32.4834   23.8411 C   0  0  1  0  0  0
  -27.2185  -27.4322   20.0975 C   0  0  0  0  0  0
  -25.5892  -33.8628   24.2350 N   0  0  0  0  0  0
  -23.4005  -30.4997   21.5526 C   0  0  2  0  0  0
  -24.8435  -28.9734   20.1091 C   0  0  0  0  0  0
  -22.7404  -29.4686   22.4962 C   0  0  0  0  0  0
  -18.0268  -28.1376   22.8496 C   0  0  0  0  0  0
  -24.1481  -36.7334   23.2637 C   0  0  0  0  0  0
  -25.9309  -30.8414   21.3596 C   0  0  0  0  0  0
  -26.0063  -29.4756   20.7060 C   0  0  0  0  0  0
  -27.1997  -28.7141   20.6944 C   0  0  0  0  0  0
  -26.0375  -26.9567   19.4798 C   0  0  0  0  0  0
  -24.8542  -27.7138   19.4916 C   0  0  0  0  0  0
  -23.6081  -29.8429   20.1634 C   0  0  0  0  0  0
  -25.4089  -36.3124   24.0351 C   0  0  1  0  0  0
  -20.5859  -28.3672   23.1310 C   0  0  2  0  0  0
  -20.6753  -26.9395   22.5415 C   0  0  0  0  0  0
  -19.5723  -26.6383   21.5202 C   0  0  0  0  0  0
  -18.1913  -26.7921   22.1630 C   0  0  0  0  0  0
  -19.1521  -28.8832   23.2919 C   0  0  0  0  0  0
  -18.9455  -30.1438   23.8934 C   0  0  0  0  0  0
  -17.6466  -30.6582   24.0571 C   0  0  0  0  0  0
  -25.9010  -34.9479   23.5146 C   0  0  0  0  0  0
  -16.5358  -29.9094   23.6318 C   0  0  0  0  0  0
  -16.7264  -28.6508   23.0341 C   0  0  0  0  0  0
  -26.4466  -31.6602   25.0726 C   0  0  0  0  0  0
  -25.3771  -31.3716   26.1518 C   0  0  0  0  0  0
  -27.0275  -30.3049   24.6070 C   0  0  0  0  0  0
  -27.6069  -32.4292   25.7475 C   0  0  0  0  0  0
  -27.5575  -37.1818   24.8463 C   0  0  0  0  0  0
  -21.4119  -29.3057   22.3719 N   0  0  0  0  0  0
  -26.4284  -37.3807   23.9414 N   0  0  0  0  0  0
  -24.6682  -31.0832   22.1010 N   0  0  0  0  0  0
  -23.4204  -28.8176   23.2950 O   0  0  0  0  0  0
  -28.3595  -26.6559   20.1444 O   0  0  0  0  0  0
  -26.5572  -34.8931   22.4710 O   0  0  0  0  0  0
  -23.5354  -32.1430   23.7534 O   0  0  0  0  0  0
  -29.9782  -19.3463   19.0157 C   0  0  0  0  0  0
  -30.1423  -18.1680   18.2759 C   0  0  0  0  0  0
  -29.8023  -18.0322   21.0633 C   0  0  0  0  0  0
  -29.7813  -19.3012   20.4157 C   0  0  0  0  0  0
  -29.9925  -16.8285   20.3228 C   0  0  0  0  0  0
  -30.1246  -16.9190   18.9122 C   0  0  0  0  0  0
  -29.1078  -23.0145   21.2664 C   0  0  0  0  0  0
  -29.3397  -24.4269   20.6540 C   0  0  0  0  0  0
  -29.6025  -21.8032   20.4540 C   0  0  0  0  0  0
  -28.0899  -25.2486   20.3183 C   0  0  0  0  0  0
  -29.9688  -15.5390   20.9606 N   0  0  0  0  0  0
  -29.5524  -20.4918   21.1382 N   0  0  0  0  0  0
  -28.5636  -22.8681   22.3695 O   0  0  0  0  0  0
  -30.4822  -24.8553   20.4399 O   0  0  0  0  0  0
  -30.1874  -15.8124   18.1363 F   0  0  0  0  0  0
  -31.4781  -12.3925   19.1580 H   0  0  0  0  0  0
  -30.3337  -11.2947   19.8691 H   0  0  0  0  0  0
  -29.7493  -11.7123   17.4767 H   0  0  0  0  0  0
  -29.6926  -13.4311   17.7468 H   0  0  0  0  0  0
  -27.8184  -11.3000   18.8246 H   0  0  0  0  0  0
  -27.3949  -12.6282   17.7774 H   0  0  0  0  0  0
  -27.7023  -14.2496   19.5461 H   0  0  0  0  0  0
  -28.6640  -11.9845   21.3622 H   0  0  0  0  0  0
  -28.4549  -13.6342   21.8565 H   0  0  0  0  0  0
  -25.2747   -9.5691   22.4711 H   0  0  0  0  0  0
  -23.9976   -7.4662   22.7494 H   0  0  0  0  0  0
  -21.0813   -8.8780   19.8946 H   0  0  0  0  0  0
  -22.3698  -10.9642   19.6148 H   0  0  0  0  0  0
  -21.1935   -7.6113   23.9705 H   0  0  0  0  0  0
  -21.1518   -6.0493   25.9076 H   0  0  0  0  0  0
  -22.0566   -2.7587   23.2843 H   0  0  0  0  0  0
  -22.4016  -11.9969   22.4838 H   0  0  0  0  0  0
  -21.1066  -13.1382   22.2510 H   0  0  0  0  0  0
  -24.6700  -15.8449   20.5454 H   0  0  0  0  0  0
  -26.2927  -15.6298   20.1207 H   0  0  0  0  0  0
  -26.7122  -32.5557   23.1188 H   0  0  0  0  0  0
  -25.0058  -33.9781   25.0507 H   0  0  0  0  0  0
  -22.6900  -31.3189   21.4187 H   0  0  0  0  0  0
  -23.3723  -35.9687   23.3324 H   0  0  0  0  0  0
  -24.3591  -36.8920   22.2049 H   0  0  0  0  0  0
  -23.7259  -37.6559   23.6631 H   0  0  0  0  0  0
  -26.0342  -31.6065   20.5877 H   0  0  0  0  0  0
  -26.8248  -30.9024   21.9699 H   0  0  0  0  0  0
  -28.0942  -29.0955   21.1663 H   0  0  0  0  0  0
  -26.0049  -26.0010   18.9806 H   0  0  0  0  0  0
  -23.9611  -27.3250   19.0238 H   0  0  0  0  0  0
  -23.7233  -30.6231   19.4094 H   0  0  0  0  0  0
  -22.7290  -29.2710   19.8605 H   0  0  0  0  0  0
  -25.1254  -36.2001   25.0843 H   0  0  0  0  0  0
  -20.9979  -28.3240   24.1418 H   0  0  0  0  0  0
  -20.5618  -26.2266   23.3610 H   0  0  0  0  0  0
  -21.6638  -26.7411   22.1233 H   0  0  0  0  0  0
  -19.6871  -25.6294   21.1226 H   0  0  0  0  0  0
  -19.6646  -27.3192   20.6728 H   0  0  0  0  0  0
  -17.4163  -26.6677   21.4056 H   0  0  0  0  0  0
  -18.0316  -26.0069   22.9028 H   0  0  0  0  0  0
  -19.7930  -30.7236   24.2340 H   0  0  0  0  0  0
  -17.5015  -31.6268   24.5163 H   0  0  0  0  0  0
  -15.5354  -30.3015   23.7592 H   0  0  0  0  0  0
  -15.8664  -28.0829   22.7036 H   0  0  0  0  0  0
  -24.5861  -30.7147   25.7880 H   0  0  0  0  0  0
  -24.9061  -32.2882   26.5074 H   0  0  0  0  0  0
  -25.8148  -30.8797   27.0215 H   0  0  0  0  0  0
  -26.2798  -29.6816   24.1154 H   0  0  0  0  0  0
  -27.4089  -29.7268   25.4492 H   0  0  0  0  0  0
  -27.8610  -30.4364   23.9170 H   0  0  0  0  0  0
  -27.2716  -33.3576   26.2109 H   0  0  0  0  0  0
  -28.3851  -32.6880   25.0282 H   0  0  0  0  0  0
  -28.0773  -31.8382   26.5345 H   0  0  0  0  0  0
  -28.2608  -38.0099   24.7495 H   0  0  0  0  0  0
  -28.1057  -36.2635   24.6293 H   0  0  0  0  0  0
  -27.2315  -37.1500   25.8875 H   0  0  0  0  0  0
  -20.9225  -29.8882   21.7059 H   0  0  0  0  0  0
  -26.0175  -38.2889   24.1407 H   0  0  0  0  0  0
  -29.9890  -20.2710   18.4598 H   0  0  0  0  0  0
  -30.2544  -18.2224   17.2047 H   0  0  0  0  0  0
  -29.6704  -17.9780   22.1358 H   0  0  0  0  0  0
  -30.6194  -22.0036   20.1150 H   0  0  0  0  0  0
  -28.9663  -21.7718   19.5683 H   0  0  0  0  0  0
  -27.3474  -25.1054   21.1054 H   0  0  0  0  0  0
  -27.6849  -24.8273   19.3984 H   0  0  0  0  0  0
  -29.1438  -15.3301   21.5024 H   0  0  0  0  0  0
  -29.3836  -20.4916   22.1436 H   0  0  0  0  0  0
  1 25  1  0  0  0
  1 30  2  0  0  0
  1 81  1  0  0  0
  2  3  1  0  0  0
  2 25  1  0  0  0
  2 86  1  0  0  0
  2 87  1  0  0  0
  3  4  1  0  0  0
  3 88  1  0  0  0
  3 89  1  0  0  0
  4  5  1  0  0  0
  4 90  1  0  0  0
  4 91  1  0  0  0
  5  6  1  0  0  0
  5 26  1  0  0  0
  5 92  1  0  0  0
  6 25  1  0  0  0
  6 93  1  0  0  0
  6 94  1  0  0  0
  7  8  2  0  0  0
  7 26  1  0  0  0
  7 29  1  0  0  0
  8  9  1  0  0  0
  8 22  1  0  0  0
  9 10  1  0  0  0
  9 27  2  0  0  0
 10 11  2  0  0  0
 10 15  1  0  0  0
 11 12  1  0  0  0
 11 95  1  0  0  0
 12 13  2  0  0  0
 12 96  1  0  0  0
 13 14  1  0  0  0
 13 31  1  0  0  0
 14 15  2  0  0  0
 14 97  1  0  0  0
 15 98  1  0  0  0
 16 17  2  0  0  0
 16 21  1  0  0  0
 16 31  1  0  0  0
 17 18  1  0  0  0
 17 99  1  0  0  0
 18 19  2  0  0  0
 18100  1  0  0  0
 19 20  1  0  0  0
 19 24  1  0  0  0
 20 21  2  0  0  0
 20101  1  0  0  0
 21 23  1  0  0  0
 22 28  1  0  0  0
 22 32  2  0  0  0
 26 27  1  0  0  0
 28102  1  0  0  0
 28103  1  0  0  0
 29104  1  0  0  0
 29105  1  0  0  0
 33 34  1  0  0  0
 33 66  1  0  0  0
 33 70  2  0  0  0
 34 36  1  0  0  0
 34 59  1  0  0  0
 34106  1  0  0  0
 35 44  2  0  0  0
 35 45  1  0  0  0
 35 68  1  0  0  0
 36 56  1  0  0  0
 36107  1  0  0  0
 37 39  1  0  0  0
 37 47  1  0  0  0
 37 66  1  0  0  0
 37108  1  0  0  0
 38 43  2  0  0  0
 38 46  1  0  0  0
 38 47  1  0  0  0
 39 64  1  0  0  0
 39 67  2  0  0  0
 40 52  1  0  0  0
 40 53  2  0  0  0
 40 58  1  0  0  0
 41109  1  0  0  0
 41110  1  0  0  0
 41111  1  0  0  0
 41 48  1  0  0  0
 42 43  1  0  0  0
 42 66  1  0  0  0
 42112  1  0  0  0
 42113  1  0  0  0
 43 44  1  0  0  0
 44114  1  0  0  0
 45 46  2  0  0  0
 45115  1  0  0  0
 46116  1  0  0  0
 47117  1  0  0  0
 47118  1  0  0  0
 48 56  1  0  0  0
 48 65  1  0  0  0
 48119  1  0  0  0
 49 50  1  0  0  0
 49 53  1  0  0  0
 49 64  1  0  0  0
 49120  1  0  0  0
 50 51  1  0  0  0
 50121  1  0  0  0
 50122  1  0  0  0
 51 52  1  0  0  0
 51123  1  0  0  0
 51124  1  0  0  0
 52125  1  0  0  0
 52126  1  0  0  0
 53 54  1  0  0  0
 54 55  2  0  0  0
 54127  1  0  0  0
 55 57  1  0  0  0
 55128  1  0  0  0
 56 69  2  0  0  0
 57 58  2  0  0  0
 57129  1  0  0  0
 58130  1  0  0  0
 59 60  1  0  0  0
 59 61  1  0  0  0
 59 62  1  0  0  0
 60131  1  0  0  0
 60132  1  0  0  0
 60133  1  0  0  0
 61134  1  0  0  0
 61135  1  0  0  0
 61136  1  0  0  0
 62137  1  0  0  0
 62138  1  0  0  0
 62139  1  0  0  0
 63 65  1  0  0  0
 63140  1  0  0  0
 63141  1  0  0  0
 63142  1  0  0  0
 64143  1  0  0  0
 65144  1  0  0  0
 68 80  1  0  0  0
 71 72  2  0  0  0
 71 74  1  0  0  0
 71145  1  0  0  0
 72 76  1  0  0  0
 72146  1  0  0  0
 73 74  2  0  0  0
 73 75  1  0  0  0
 73147  1  0  0  0
 74 82  1  0  0  0
 75 76  2  0  0  0
 75 81  1  0  0  0
 76 85  1  0  0  0
 77 78  1  0  0  0
 77 79  1  0  0  0
 77 83  2  0  0  0
 78 80  1  0  0  0
 78 84  2  0  0  0
 79 82  1  0  0  0
 79148  1  0  0  0
 79149  1  0  0  0
 80150  1  0  0  0
 80151  1  0  0  0
 81152  1  0  0  0
 82153  1  0  0  0
M  ISO  4   1 100  68 101  80 101  81 100
M  END
> <chiral flag>
0

> <version>
0

> <s_m_source_file>
/data/baiqing/PycharmProjects/Reinvent-master-3.2/result/LINK_invent/BTK/process_docking_weight1_custom_product_contain_oxygen_bond_distance_aromatic_linkinvent_7_9_3/rearranged_h_0167.sdf

> <i_m_source_file_index>
3

> <r_mmod_Potential_Energy-OPLS-2005>
42.6359443664551

> <r_mmod_Stretch_Energy-OPLS-2005>
41.9319305419922

> <r_mmod_Bend_Energy-OPLS-2005>
101.135780334473

> <r_mmod_Torsional_Energy-OPLS-2005>
256.544891357422

> <r_mmod_Improper_Torsional_Energy-OPLS-2005>
5.26361608505249

> <r_mmod_Van_der_Waal_Energy-OPLS-2005>
162.011123657227

> <r_mmod_Electrostatic_Energy-OPLS-2005>
-287.267425537109

> <r_mmod_Solvation_Energy-OPLS-2005>
-254.415451049805

> <b_mmod_Minimization_Converged-OPLS-2005>
0

> <r_mmod_RMS_Derivative-OPLS-2005>
3.5086305141449

$$$$
3
                    3D
 Structure written by MMmdl.
159167  0  0  1  0            999 V2000
  -30.6607  -14.6010   20.4689 C   0  0  0  0  0  0
  -30.4255  -12.3583   19.4681 C   0  0  0  0  0  0
  -29.5080  -12.4914   18.2332 C   0  0  0  0  0  0
  -28.0293  -12.3432   18.6403 C   0  0  0  0  0  0
  -27.6528  -13.2195   19.8658 C   0  0  2  0  0  0
  -28.6962  -13.0933   21.0011 C   0  0  0  0  0  0
  -25.2552  -13.8182   20.5700 C   0  0  0  0  0  0
  -24.1819  -13.0438   20.9187 C   0  0  0  0  0  0
  -24.6393  -11.6912   20.8740 C   0  0  0  0  0  0
  -23.9064  -10.4291   21.0403 C   0  0  0  0  0  0
  -24.3616   -9.4205   21.9176 C   0  0  0  0  0  0
  -23.6289   -8.2241   22.0746 C   0  0  0  0  0  0
  -22.4268   -8.0281   21.3540 C   0  0  0  0  0  0
  -21.9908   -9.0255   20.4641 C   0  0  0  0  0  0
  -22.7235  -10.2133   20.3052 C   0  0  0  0  0  0
  -21.6856   -6.0731   22.5276 C   0  0  0  0  0  0
  -21.4015   -6.5636   23.8208 C   0  0  0  0  0  0
  -21.3659   -5.6789   24.9170 C   0  0  0  0  0  0
  -21.6048   -4.3053   24.7222 C   0  0  0  0  0  0
  -21.8821   -3.8141   23.4344 C   0  0  0  0  0  0
  -21.9191   -4.6958   22.3399 C   0  0  0  0  0  0
  -22.7841  -13.5225   21.1843 C   0  0  0  0  0  0
  -22.1661   -4.2143   21.0976 F   0  0  0  0  0  0
  -21.5626   -3.4538   25.7735 F   0  0  0  0  0  0
  -30.0177  -13.3952   20.4360 N   0  0  0  0  0  0
  -26.2987  -12.9369   20.3343 N   0  0  0  0  0  0
  -25.9328  -11.6520   20.5777 N   0  0  0  0  0  0
  -22.0490  -12.8220   22.0411 N   0  0  0  0  0  0
  -25.4261  -15.1900   20.4116 N   0  0  0  0  0  0
  -31.8333  -14.7116   20.1037 O   0  0  0  0  0  0
  -21.6640   -6.8875   21.4235 O   0  0  0  0  0  0
  -22.3520  -14.5527   20.6688 O   0  0  0  0  0  0
  -24.6216  -31.8620   23.2052 C   0  0  0  0  0  0
  -25.9087  -32.4788   23.8364 C   0  0  1  0  0  0
  -27.2325  -27.3767   20.1085 C   0  0  0  0  0  0
  -25.5923  -33.8584   24.2307 N   0  0  0  0  0  0
  -23.4143  -30.4845   21.5446 C   0  0  2  0  0  0
  -24.8670  -28.9512   20.1013 C   0  0  0  0  0  0
  -22.7461  -29.4623   22.4927 C   0  0  0  0  0  0
  -18.0292  -28.1379   22.8481 C   0  0  0  0  0  0
  -24.1484  -36.7293   23.2635 C   0  0  0  0  0  0
  -25.9491  -30.8111   21.3691 C   0  0  0  0  0  0
  -26.0298  -29.4444   20.7089 C   0  0  0  0  0  0
  -27.2192  -28.6651   20.7100 C   0  0  0  0  0  0
  -26.0587  -26.9204   19.4773 C   0  0  0  0  0  0
  -24.8809  -27.6927   19.4754 C   0  0  0  0  0  0
  -23.6283  -29.8212   20.1572 C   0  0  0  0  0  0
  -25.4104  -36.3086   24.0338 C   0  0  1  0  0  0
  -20.5884  -28.3679   23.1283 C   0  0  2  0  0  0
  -20.6773  -26.9399   22.5412 C   0  0  0  0  0  0
  -19.5756  -26.6379   21.5202 C   0  0  0  0  0  0
  -18.1934  -26.7927   22.1611 C   0  0  0  0  0  0
  -19.1542  -28.8849   23.2877 C   0  0  0  0  0  0
  -18.9463  -30.1451   23.8892 C   0  0  0  0  0  0
  -17.6463  -30.6580   24.0564 C   0  0  0  0  0  0
  -25.9041  -34.9457   23.5124 C   0  0  0  0  0  0
  -16.5356  -29.9074   23.6327 C   0  0  0  0  0  0
  -16.7279  -28.6493   23.0345 C   0  0  0  0  0  0
  -26.4500  -31.6579   25.0710 C   0  0  0  0  0  0
  -25.3767  -31.3711   26.1463 C   0  0  0  0  0  0
  -27.0321  -30.3001   24.6123 C   0  0  0  0  0  0
  -27.6079  -32.4291   25.7472 C   0  0  0  0  0  0
  -27.5583  -37.1795   24.8467 C   0  0  0  0  0  0
  -21.4177  -29.3031   22.3677 N   0  0  0  0  0  0
  -26.4287  -37.3778   23.9418 N   0  0  0  0  0  0
  -24.6799  -31.0668   22.0981 N   0  0  0  0  0  0
  -23.4209  -28.8169   23.2993 O   0  0  0  0  0  0
  -28.2887  -26.4806   20.2213 O   0  0  0  0  0  0
  -26.5585  -34.8922   22.4673 O   0  0  0  0  0  0
  -23.5393  -32.1400   23.7405 O   0  0  0  0  0  0
  -30.7138  -20.4842   21.0423 C   0  0  0  0  0  0
  -31.0327  -19.0989   20.7989 C   0  0  0  0  0  0
  -29.9592  -18.3487   20.3610 C   0  0  0  0  0  0
  -29.4002  -20.8366   20.8367 C   0  0  0  0  0  0
  -28.1532  -25.6531   21.3317 C   0  0  0  0  0  0
  -28.4024  -24.3223   21.5591 C   0  0  0  0  0  0
  -28.9895  -23.3054   20.6485 C   0  0  0  0  0  0
  -32.5640  -17.7486   22.2749 C   0  0  0  0  0  0
  -28.9700  -16.7937   18.5981 C   0  0  0  0  0  0
  -32.4250  -18.5614   20.9824 C   0  0  0  0  0  0
  -29.9848  -16.9275   19.7470 C   0  0  2  0  0  0
  -28.7930  -22.0388   21.1222 N   0  0  0  0  0  0
  -29.8759  -15.7105   20.6158 N   0  0  0  0  0  0
  -29.5785  -23.5395   19.5912 O   0  0  0  0  0  0
  -28.0684  -23.8858   22.7886 O   0  0  0  0  0  0
  -28.5166  -19.3788   20.3768 S   0  0  0  0  0  0
  -31.4719  -12.4505   19.1717 H   0  0  0  0  0  0
  -30.3302  -11.3684   19.9165 H   0  0  0  0  0  0
  -29.7684  -11.7384   17.4882 H   0  0  0  0  0  0
  -29.6650  -13.4600   17.7565 H   0  0  0  0  0  0
  -27.8585  -11.2912   18.8728 H   0  0  0  0  0  0
  -27.3797  -12.5754   17.7959 H   0  0  0  0  0  0
  -27.6661  -14.2513   19.5164 H   0  0  0  0  0  0
  -28.6930  -12.0860   21.4201 H   0  0  0  0  0  0
  -28.4573  -13.7654   21.8266 H   0  0  0  0  0  0
  -25.2766   -9.5678   22.4742 H   0  0  0  0  0  0
  -24.0004   -7.4635   22.7465 H   0  0  0  0  0  0
  -21.0838   -8.8771   19.8947 H   0  0  0  0  0  0
  -22.3695  -10.9667   19.6157 H   0  0  0  0  0  0
  -21.2012   -7.6146   23.9710 H   0  0  0  0  0  0
  -21.1479   -6.0520   25.9074 H   0  0  0  0  0  0
  -22.0600   -2.7603   23.2850 H   0  0  0  0  0  0
  -22.4112  -11.9890   22.4809 H   0  0  0  0  0  0
  -21.1106  -13.1237   22.2610 H   0  0  0  0  0  0
  -24.6592  -15.8443   20.5207 H   0  0  0  0  0  0
  -26.2761  -15.6303   20.0852 H   0  0  0  0  0  0
  -26.7148  -32.5494   23.1113 H   0  0  0  0  0  0
  -25.0134  -33.9734   25.0495 H   0  0  0  0  0  0
  -22.7063  -31.3041   21.4041 H   0  0  0  0  0  0
  -23.3751  -35.9621   23.3298 H   0  0  0  0  0  0
  -24.3583  -36.8903   22.2048 H   0  0  0  0  0  0
  -23.7224  -37.6496   23.6644 H   0  0  0  0  0  0
  -26.0740  -31.5789   20.6041 H   0  0  0  0  0  0
  -26.8308  -30.8591   21.9963 H   0  0  0  0  0  0
  -28.1067  -29.0264   21.2112 H   0  0  0  0  0  0
  -26.0480  -25.9396   19.0227 H   0  0  0  0  0  0
  -23.9890  -27.3077   19.0017 H   0  0  0  0  0  0
  -23.7397  -30.6003   19.4020 H   0  0  0  0  0  0
  -22.7515  -29.2453   19.8560 H   0  0  0  0  0  0
  -25.1271  -36.1949   25.0825 H   0  0  0  0  0  0
  -20.9978  -28.3253   24.1402 H   0  0  0  0  0  0
  -20.5652  -26.2283   23.3607 H   0  0  0  0  0  0
  -21.6645  -26.7419   22.1216 H   0  0  0  0  0  0
  -19.6913  -25.6289   21.1228 H   0  0  0  0  0  0
  -19.6693  -27.3192   20.6732 H   0  0  0  0  0  0
  -17.4200  -26.6679   21.4015 H   0  0  0  0  0  0
  -18.0330  -26.0063   22.9000 H   0  0  0  0  0  0
  -19.7940  -30.7268   24.2251 H   0  0  0  0  0  0
  -17.5019  -31.6261   24.5164 H   0  0  0  0  0  0
  -15.5356  -30.2973   23.7655 H   0  0  0  0  0  0
  -15.8677  -28.0812   22.7056 H   0  0  0  0  0  0
  -24.5945  -30.7035   25.7826 H   0  0  0  0  0  0
  -24.8964  -32.2880   26.4888 H   0  0  0  0  0  0
  -25.8138  -30.8914   27.0232 H   0  0  0  0  0  0
  -26.2866  -29.6758   24.1176 H   0  0  0  0  0  0
  -27.4067  -29.7237   25.4595 H   0  0  0  0  0  0
  -27.8724  -30.4287   23.9294 H   0  0  0  0  0  0
  -27.2709  -33.3591   26.2059 H   0  0  0  0  0  0
  -28.3892  -32.6839   25.0298 H   0  0  0  0  0  0
  -28.0740  -31.8402   26.5382 H   0  0  0  0  0  0
  -28.2601  -38.0093   24.7518 H   0  0  0  0  0  0
  -28.1079  -36.2628   24.6277 H   0  0  0  0  0  0
  -27.2316  -37.1432   25.8875 H   0  0  0  0  0  0
  -20.9345  -29.8761   21.6898 H   0  0  0  0  0  0
  -26.0181  -38.2856   24.1426 H   0  0  0  0  0  0
  -31.4690  -21.1754   21.3894 H   0  0  0  0  0  0
  -27.7413  -26.2335   22.1479 H   0  0  0  0  0  0
  -33.5819  -17.3758   22.3910 H   0  0  0  0  0  0
  -31.8950  -16.8884   22.2790 H   0  0  0  0  0  0
  -32.3297  -18.3563   23.1493 H   0  0  0  0  0  0
  -29.1180  -17.5772   17.8538 H   0  0  0  0  0  0
  -27.9422  -16.8660   18.9534 H   0  0  0  0  0  0
  -29.0747  -15.8403   18.0801 H   0  0  0  0  0  0
  -33.1425  -19.3829   21.0071 H   0  0  0  0  0  0
  -32.7214  -17.9470   20.1321 H   0  0  0  0  0  0
  -30.9481  -16.8589   19.2404 H   0  0  0  0  0  0
  -28.1780  -22.0373   21.9270 H   0  0  0  0  0  0
  -28.9625  -15.5392   21.0064 H   0  0  0  0  0  0
  -27.7268  -24.6241   23.2755 H   0  0  0  0  0  0
  1 25  1  0  0  0
  1 30  2  0  0  0
  1 83  1  0  0  0
  2  3  1  0  0  0
  2 25  1  0  0  0
  2 87  1  0  0  0
  2 88  1  0  0  0
  3  4  1  0  0  0
  3 89  1  0  0  0
  3 90  1  0  0  0
  4  5  1  0  0  0
  4 91  1  0  0  0
  4 92  1  0  0  0
  5  6  1  0  0  0
  5 26  1  0  0  0
  5 93  1  0  0  0
  6 25  1  0  0  0
  6 94  1  0  0  0
  6 95  1  0  0  0
  7  8  2  0  0  0
  7 26  1  0  0  0
  7 29  1  0  0  0
  8  9  1  0  0  0
  8 22  1  0  0  0
  9 10  1  0  0  0
  9 27  2  0  0  0
 10 11  2  0  0  0
 10 15  1  0  0  0
 11 12  1  0  0  0
 11 96  1  0  0  0
 12 13  2  0  0  0
 12 97  1  0  0  0
 13 14  1  0  0  0
 13 31  1  0  0  0
 14 15  2  0  0  0
 14 98  1  0  0  0
 15 99  1  0  0  0
 16 17  2  0  0  0
 16 21  1  0  0  0
 16 31  1  0  0  0
 17 18  1  0  0  0
 17100  1  0  0  0
 18 19  2  0  0  0
 18101  1  0  0  0
 19 20  1  0  0  0
 19 24  1  0  0  0
 20 21  2  0  0  0
 20102  1  0  0  0
 21 23  1  0  0  0
 22 28  1  0  0  0
 22 32  2  0  0  0
 26 27  1  0  0  0
 28103  1  0  0  0
 28104  1  0  0  0
 29105  1  0  0  0
 29106  1  0  0  0
 33 34  1  0  0  0
 33 66  1  0  0  0
 33 70  2  0  0  0
 34 36  1  0  0  0
 34 59  1  0  0  0
 34107  1  0  0  0
 35 44  2  0  0  0
 35 45  1  0  0  0
 35 68  1  0  0  0
 36 56  1  0  0  0
 36108  1  0  0  0
 37 39  1  0  0  0
 37 47  1  0  0  0
 37 66  1  0  0  0
 37109  1  0  0  0
 38 43  2  0  0  0
 38 46  1  0  0  0
 38 47  1  0  0  0
 39 64  1  0  0  0
 39 67  2  0  0  0
 40 52  1  0  0  0
 40 53  2  0  0  0
 40 58  1  0  0  0
 41110  1  0  0  0
 41111  1  0  0  0
 41112  1  0  0  0
 41 48  1  0  0  0
 42 43  1  0  0  0
 42 66  1  0  0  0
 42113  1  0  0  0
 42114  1  0  0  0
 43 44  1  0  0  0
 44115  1  0  0  0
 45 46  2  0  0  0
 45116  1  0  0  0
 46117  1  0  0  0
 47118  1  0  0  0
 47119  1  0  0  0
 48 56  1  0  0  0
 48 65  1  0  0  0
 48120  1  0  0  0
 49 50  1  0  0  0
 49 53  1  0  0  0
 49 64  1  0  0  0
 49121  1  0  0  0
 50 51  1  0  0  0
 50122  1  0  0  0
 50123  1  0  0  0
 51 52  1  0  0  0
 51124  1  0  0  0
 51125  1  0  0  0
 52126  1  0  0  0
 52127  1  0  0  0
 53 54  1  0  0  0
 54 55  2  0  0  0
 54128  1  0  0  0
 55 57  1  0  0  0
 55129  1  0  0  0
 56 69  2  0  0  0
 57 58  2  0  0  0
 57130  1  0  0  0
 58131  1  0  0  0
 59 60  1  0  0  0
 59 61  1  0  0  0
 59 62  1  0  0  0
 60132  1  0  0  0
 60133  1  0  0  0
 60134  1  0  0  0
 61135  1  0  0  0
 61136  1  0  0  0
 61137  1  0  0  0
 62138  1  0  0  0
 62139  1  0  0  0
 62140  1  0  0  0
 63 65  1  0  0  0
 63141  1  0  0  0
 63142  1  0  0  0
 63143  1  0  0  0
 64144  1  0  0  0
 65145  1  0  0  0
 68 75  1  0  0  0
 71 72  1  0  0  0
 71 74  2  0  0  0
 71146  1  0  0  0
 72 73  2  0  0  0
 72 80  1  0  0  0
 73 81  1  0  0  0
 73 86  1  0  0  0
 74 82  1  0  0  0
 74 86  1  0  0  0
 75 76  2  0  0  0
 75147  1  0  0  0
 76 77  1  0  0  0
 76 85  1  0  0  0
 77 82  1  0  0  0
 77 84  2  0  0  0
 78 80  1  0  0  0
 78148  1  0  0  0
 78149  1  0  0  0
 78150  1  0  0  0
 79151  1  0  0  0
 79152  1  0  0  0
 79153  1  0  0  0
 79 81  1  0  0  0
 80154  1  0  0  0
 80155  1  0  0  0
 81 83  1  0  0  0
 81156  1  0  0  0
 82157  1  0  0  0
 83158  1  0  0  0
 85159  1  0  0  0
M  ISO  4   1 100  68 101  75 101  83 100
M  END
> <chiral flag>
0

> <version>
0

> <s_m_source_file>
/data/baiqing/PycharmProjects/Reinvent-master-3.2/result/LINK_invent/BTK/process_docking_weight1_custom_product_contain_oxygen_bond_distance_aromatic_linkinvent_7_9_3/rearranged_h_0167.sdf

> <i_m_source_file_index>
4

> <r_mmod_Potential_Energy-OPLS-2005>
-15.5015535354614

> <r_mmod_Stretch_Energy-OPLS-2005>
56.8517570495605

> <r_mmod_Bend_Energy-OPLS-2005>
157.19367980957

> <r_mmod_Torsional_Energy-OPLS-2005>
258.77734375

> <r_mmod_Improper_Torsional_Energy-OPLS-2005>
12.0297651290894

> <r_mmod_Van_der_Waal_Energy-OPLS-2005>
119.122200012207

> <r_mmod_Electrostatic_Energy-OPLS-2005>
-431.925476074219

> <r_mmod_Solvation_Energy-OPLS-2005>
-229.862213134766

> <b_mmod_Minimization_Converged-OPLS-2005>
0

> <r_mmod_RMS_Derivative-OPLS-2005>
1.26447629928589

$$$$
4
                    3D
 Structure written by MMmdl.
165173  0  0  1  0            999 V2000
  -30.6917  -14.4473   20.5199 C   0  0  0  0  0  0
  -30.4202  -12.2628   19.4364 C   0  0  0  0  0  0
  -29.4997  -12.4666   18.2150 C   0  0  0  0  0  0
  -28.0168  -12.3506   18.6223 C   0  0  0  0  0  0
  -27.6628  -13.1933   19.8768 C   0  0  2  0  0  0
  -28.7043  -12.9806   21.0021 C   0  0  0  0  0  0
  -25.2647  -13.8184   20.5706 C   0  0  0  0  0  0
  -24.1859  -13.0481   20.9150 C   0  0  0  0  0  0
  -24.6385  -11.6937   20.8744 C   0  0  0  0  0  0
  -23.9065  -10.4327   21.0462 C   0  0  0  0  0  0
  -24.3632   -9.4221   21.9217 C   0  0  0  0  0  0
  -23.6300   -8.2260   22.0785 C   0  0  0  0  0  0
  -22.4275   -8.0323   21.3558 C   0  0  0  0  0  0
  -21.9918   -9.0310   20.4682 C   0  0  0  0  0  0
  -22.7250  -10.2160   20.3106 C   0  0  0  0  0  0
  -21.6835   -6.0740   22.5261 C   0  0  0  0  0  0
  -21.3998   -6.5644   23.8194 C   0  0  0  0  0  0
  -21.3665   -5.6790   24.9148 C   0  0  0  0  0  0
  -21.6055   -4.3063   24.7188 C   0  0  0  0  0  0
  -21.8843   -3.8152   23.4306 C   0  0  0  0  0  0
  -21.9199   -4.6986   22.3376 C   0  0  0  0  0  0
  -22.7869  -13.5312   21.1821 C   0  0  0  0  0  0
  -22.1705   -4.2190   21.0929 F   0  0  0  0  0  0
  -21.5610   -3.4536   25.7689 F   0  0  0  0  0  0
  -30.0439  -13.2546   20.4526 N   0  0  0  0  0  0
  -26.3047  -12.9291   20.3405 N   0  0  0  0  0  0
  -25.9305  -11.6475   20.5780 N   0  0  0  0  0  0
  -22.0506  -12.8278   22.0342 N   0  0  0  0  0  0
  -25.4505  -15.1906   20.4204 N   0  0  0  0  0  0
  -31.8142  -14.6470   20.0485 O   0  0  0  0  0  0
  -21.6660   -6.8907   21.4228 O   0  0  0  0  0  0
  -22.3569  -14.5651   20.6734 O   0  0  0  0  0  0
  -24.6149  -31.8670   23.2078 C   0  0  0  0  0  0
  -25.9056  -32.4792   23.8367 C   0  0  1  0  0  0
  -27.2514  -27.4534   20.1066 C   0  0  0  0  0  0
  -25.5900  -33.8584   24.2295 N   0  0  0  0  0  0
  -23.4021  -30.4913   21.5445 C   0  0  2  0  0  0
  -24.8524  -28.9563   20.1147 C   0  0  0  0  0  0
  -22.7398  -29.4670   22.4930 C   0  0  0  0  0  0
  -18.0275  -28.1413   22.8478 C   0  0  0  0  0  0
  -24.1475  -36.7300   23.2627 C   0  0  0  0  0  0
  -25.9283  -30.8450   21.3557 C   0  0  0  0  0  0
  -26.0109  -29.4809   20.7017 C   0  0  0  0  0  0
  -27.2113  -28.7408   20.6860 C   0  0  0  0  0  0
  -26.0749  -26.9353   19.5143 C   0  0  0  0  0  0
  -24.8793  -27.6810   19.5198 C   0  0  0  0  0  0
  -23.6114  -29.8181   20.1613 C   0  0  0  0  0  0
  -25.4091  -36.3077   24.0322 C   0  0  1  0  0  0
  -20.5861  -28.3698   23.1284 C   0  0  2  0  0  0
  -20.6770  -26.9423   22.5410 C   0  0  0  0  0  0
  -19.5746  -26.6396   21.5207 C   0  0  0  0  0  0
  -18.1921  -26.7966   22.1608 C   0  0  0  0  0  0
  -19.1526  -28.8869   23.2885 C   0  0  0  0  0  0
  -18.9459  -30.1475   23.8897 C   0  0  0  0  0  0
  -17.6463  -30.6611   24.0578 C   0  0  0  0  0  0
  -25.9029  -34.9447   23.5103 C   0  0  0  0  0  0
  -16.5354  -29.9109   23.6338 C   0  0  0  0  0  0
  -16.7263  -28.6531   23.0340 C   0  0  0  0  0  0
  -26.4501  -31.6579   25.0700 C   0  0  0  0  0  0
  -25.3783  -31.3702   26.1468 C   0  0  0  0  0  0
  -27.0342  -30.3011   24.6100 C   0  0  0  0  0  0
  -27.6082  -32.4300   25.7463 C   0  0  0  0  0  0
  -27.5565  -37.1779   24.8438 C   0  0  0  0  0  0
  -21.4125  -29.3054   22.3669 N   0  0  0  0  0  0
  -26.4257  -37.3780   23.9414 N   0  0  0  0  0  0
  -24.6659  -31.0811   22.0953 N   0  0  0  0  0  0
  -23.4162  -28.8203   23.2975 O   0  0  0  0  0  0
  -28.4385  -26.7535   20.1346 O   0  0  0  0  0  0
  -26.5600  -34.8908   22.4669 O   0  0  0  0  0  0
  -23.5357  -32.1395   23.7499 O   0  0  0  0  0  0
  -28.6177  -17.6238   18.2395 C   0  0  0  0  0  0
  -29.1370  -16.5012   18.9056 C   0  0  0  0  0  0
  -29.6065  -17.8800   20.8608 C   0  0  0  0  0  0
  -28.5835  -18.8870   18.8654 C   0  0  0  0  0  0
  -29.6030  -16.6123   20.2378 C   0  0  0  0  0  0
  -29.1412  -19.0268   20.1673 C   0  0  0  0  0  0
  -27.9626  -20.0244   18.1369 C   0  0  0  0  0  0
  -29.4863  -24.7725   21.1137 C   0  0  0  0  0  0
  -30.2960  -20.9008   21.2713 C   0  0  0  0  0  0
  -28.5925  -20.4308   16.8243 C   0  0  0  0  0  0
  -30.7095  -22.5404   19.4238 C   0  0  0  0  0  0
  -29.3950  -23.3002   21.5415 C   0  0  0  0  0  0
  -28.3600  -25.3249   20.2195 C   0  0  0  0  0  0
  -30.5089  -22.3912   20.9511 C   0  0  1  0  0  0
  -26.9748  -20.6724   18.5925 N   0  0  0  0  0  0
  -29.2077  -20.3342   20.7342 N   0  0  0  0  0  0
  -29.9512  -15.4579   20.9936 N   0  0  0  0  0  0
  -30.4387  -25.4733   21.4749 O   0  0  0  0  0  0
  -31.1086  -20.2960   21.9745 O   0  0  0  0  0  0
  -31.4674  -12.3389   19.1363 H   0  0  0  0  0  0
  -30.2998  -11.2588   19.8480 H   0  0  0  0  0  0
  -29.7279  -11.7314   17.4413 H   0  0  0  0  0  0
  -29.6871  -13.4428   17.7719 H   0  0  0  0  0  0
  -27.8067  -11.2963   18.8191 H   0  0  0  0  0  0
  -27.3767  -12.6333   17.7862 H   0  0  0  0  0  0
  -27.6945  -14.2377   19.5741 H   0  0  0  0  0  0
  -28.6690  -11.9549   21.3750 H   0  0  0  0  0  0
  -28.4680  -13.6067   21.8636 H   0  0  0  0  0  0
  -25.2816   -9.5640   22.4741 H   0  0  0  0  0  0
  -24.0022   -7.4630   22.7494 H   0  0  0  0  0  0
  -21.0842   -8.8834   19.8987 H   0  0  0  0  0  0
  -22.3773  -10.9703   19.6198 H   0  0  0  0  0  0
  -21.1997   -7.6150   23.9686 H   0  0  0  0  0  0
  -21.1464   -6.0529   25.9041 H   0  0  0  0  0  0
  -22.0630   -2.7638   23.2791 H   0  0  0  0  0  0
  -22.4150  -11.9927   22.4686 H   0  0  0  0  0  0
  -21.1207  -13.1398   22.2738 H   0  0  0  0  0  0
  -24.7190  -15.8723   20.5963 H   0  0  0  0  0  0
  -26.3292  -15.6226   20.1596 H   0  0  0  0  0  0
  -26.7123  -32.5512   23.1129 H   0  0  0  0  0  0
  -25.0044  -33.9741   25.0439 H   0  0  0  0  0  0
  -22.6903  -31.3076   21.4011 H   0  0  0  0  0  0
  -23.3723  -35.9643   23.3283 H   0  0  0  0  0  0
  -24.3567  -36.8940   22.2042 H   0  0  0  0  0  0
  -23.7257  -37.6500   23.6679 H   0  0  0  0  0  0
  -26.0409  -31.6159   20.5920 H   0  0  0  0  0  0
  -26.8151  -30.8943   21.9768 H   0  0  0  0  0  0
  -28.1073  -29.1496   21.1333 H   0  0  0  0  0  0
  -26.0706  -25.9611   19.0459 H   0  0  0  0  0  0
  -23.9879  -27.2671   19.0690 H   0  0  0  0  0  0
  -23.7174  -30.5890   19.3974 H   0  0  0  0  0  0
  -22.7370  -29.2352   19.8670 H   0  0  0  0  0  0
  -25.1266  -36.1909   25.0811 H   0  0  0  0  0  0
  -20.9969  -28.3308   24.1397 H   0  0  0  0  0  0
  -20.5672  -26.2310   23.3606 H   0  0  0  0  0  0
  -21.6652  -26.7467   22.1217 H   0  0  0  0  0  0
  -19.6917  -25.6312   21.1225 H   0  0  0  0  0  0
  -19.6692  -27.3197   20.6730 H   0  0  0  0  0  0
  -17.4196  -26.6709   21.4010 H   0  0  0  0  0  0
  -18.0303  -26.0109   22.8994 H   0  0  0  0  0  0
  -19.7938  -30.7296   24.2247 H   0  0  0  0  0  0
  -17.5029  -31.6285   24.5195 H   0  0  0  0  0  0
  -15.5368  -30.3018   23.7691 H   0  0  0  0  0  0
  -15.8653  -28.0870   22.7051 H   0  0  0  0  0  0
  -24.5931  -30.7071   25.7825 H   0  0  0  0  0  0
  -24.9019  -32.2874   26.4936 H   0  0  0  0  0  0
  -25.8160  -30.8858   27.0206 H   0  0  0  0  0  0
  -26.2891  -29.6720   24.1218 H   0  0  0  0  0  0
  -27.4162  -29.7303   25.4574 H   0  0  0  0  0  0
  -27.8695  -30.4292   23.9212 H   0  0  0  0  0  0
  -27.2692  -33.3562   26.2110 H   0  0  0  0  0  0
  -28.3869  -32.6917   25.0290 H   0  0  0  0  0  0
  -28.0784  -31.8386   26.5329 H   0  0  0  0  0  0
  -28.2552  -38.0107   24.7539 H   0  0  0  0  0  0
  -28.1095  -36.2646   24.6185 H   0  0  0  0  0  0
  -27.2300  -37.1344   25.8843 H   0  0  0  0  0  0
  -20.9281  -29.8747   21.6874 H   0  0  0  0  0  0
  -26.0123  -38.2828   24.1493 H   0  0  0  0  0  0
  -28.2208  -17.5107   17.2390 H   0  0  0  0  0  0
  -29.1284  -15.5538   18.3837 H   0  0  0  0  0  0
  -29.9684  -17.9696   21.8739 H   0  0  0  0  0  0
  -27.9199  -20.2177   15.9934 H   0  0  0  0  0  0
  -29.5222  -19.8866   16.6614 H   0  0  0  0  0  0
  -28.8155  -21.4981   16.8302 H   0  0  0  0  0  0
  -31.3365  -21.7444   19.0149 H   0  0  0  0  0  0
  -31.1955  -23.4812   19.1699 H   0  0  0  0  0  0
  -29.7584  -22.5103   18.8934 H   0  0  0  0  0  0
  -28.4074  -22.9259   21.2724 H   0  0  0  0  0  0
  -29.4460  -23.2697   22.6323 H   0  0  0  0  0  0
  -27.4088  -25.0025   20.6442 H   0  0  0  0  0  0
  -28.4458  -24.8949   19.2198 H   0  0  0  0  0  0
  -31.4527  -22.6677   21.4241 H   0  0  0  0  0  0
  -26.6393  -20.2871   19.4710 H   0  0  0  0  0  0
  -28.5895  -20.9991   20.2918 H   0  0  0  0  0  0
  -29.2124  -15.1417   21.6031 H   0  0  0  0  0  0
  1 25  1  0  0  0
  1 30  2  0  0  0
  1 87  1  0  0  0
  2  3  1  0  0  0
  2 25  1  0  0  0
  2 90  1  0  0  0
  2 91  1  0  0  0
  3  4  1  0  0  0
  3 92  1  0  0  0
  3 93  1  0  0  0
  4  5  1  0  0  0
  4 94  1  0  0  0
  4 95  1  0  0  0
  5  6  1  0  0  0
  5 26  1  0  0  0
  5 96  1  0  0  0
  6 25  1  0  0  0
  6 97  1  0  0  0
  6 98  1  0  0  0
  7  8  2  0  0  0
  7 26  1  0  0  0
  7 29  1  0  0  0
  8  9  1  0  0  0
  8 22  1  0  0  0
  9 10  1  0  0  0
  9 27  2  0  0  0
 10 11  2  0  0  0
 10 15  1  0  0  0
 11 12  1  0  0  0
 11 99  1  0  0  0
 12 13  2  0  0  0
 12100  1  0  0  0
 13 14  1  0  0  0
 13 31  1  0  0  0
 14 15  2  0  0  0
 14101  1  0  0  0
 15102  1  0  0  0
 16 17  2  0  0  0
 16 21  1  0  0  0
 16 31  1  0  0  0
 17 18  1  0  0  0
 17103  1  0  0  0
 18 19  2  0  0  0
 18104  1  0  0  0
 19 20  1  0  0  0
 19 24  1  0  0  0
 20 21  2  0  0  0
 20105  1  0  0  0
 21 23  1  0  0  0
 22 28  1  0  0  0
 22 32  2  0  0  0
 26 27  1  0  0  0
 28106  1  0  0  0
 28107  1  0  0  0
 29108  1  0  0  0
 29109  1  0  0  0
 33 34  1  0  0  0
 33 66  1  0  0  0
 33 70  2  0  0  0
 34 36  1  0  0  0
 34 59  1  0  0  0
 34110  1  0  0  0
 35 44  2  0  0  0
 35 45  1  0  0  0
 35 68  1  0  0  0
 36 56  1  0  0  0
 36111  1  0  0  0
 37 39  1  0  0  0
 37 47  1  0  0  0
 37 66  1  0  0  0
 37112  1  0  0  0
 38 43  2  0  0  0
 38 46  1  0  0  0
 38 47  1  0  0  0
 39 64  1  0  0  0
 39 67  2  0  0  0
 40 52  1  0  0  0
 40 53  2  0  0  0
 40 58  1  0  0  0
 41113  1  0  0  0
 41114  1  0  0  0
 41115  1  0  0  0
 41 48  1  0  0  0
 42 43  1  0  0  0
 42 66  1  0  0  0
 42116  1  0  0  0
 42117  1  0  0  0
 43 44  1  0  0  0
 44118  1  0  0  0
 45 46  2  0  0  0
 45119  1  0  0  0
 46120  1  0  0  0
 47121  1  0  0  0
 47122  1  0  0  0
 48 56  1  0  0  0
 48 65  1  0  0  0
 48123  1  0  0  0
 49 50  1  0  0  0
 49 53  1  0  0  0
 49 64  1  0  0  0
 49124  1  0  0  0
 50 51  1  0  0  0
 50125  1  0  0  0
 50126  1  0  0  0
 51 52  1  0  0  0
 51127  1  0  0  0
 51128  1  0  0  0
 52129  1  0  0  0
 52130  1  0  0  0
 53 54  1  0  0  0
 54 55  2  0  0  0
 54131  1  0  0  0
 55 57  1  0  0  0
 55132  1  0  0  0
 56 69  2  0  0  0
 57 58  2  0  0  0
 57133  1  0  0  0
 58134  1  0  0  0
 59 60  1  0  0  0
 59 61  1  0  0  0
 59 62  1  0  0  0
 60135  1  0  0  0
 60136  1  0  0  0
 60137  1  0  0  0
 61138  1  0  0  0
 61139  1  0  0  0
 61140  1  0  0  0
 62141  1  0  0  0
 62142  1  0  0  0
 62143  1  0  0  0
 63 65  1  0  0  0
 63144  1  0  0  0
 63145  1  0  0  0
 63146  1  0  0  0
 64147  1  0  0  0
 65148  1  0  0  0
 68 83  1  0  0  0
 71 72  2  0  0  0
 71 74  1  0  0  0
 71149  1  0  0  0
 72 75  1  0  0  0
 72150  1  0  0  0
 73 75  2  0  0  0
 73 76  1  0  0  0
 73151  1  0  0  0
 74 76  2  0  0  0
 74 77  1  0  0  0
 75 87  1  0  0  0
 76 86  1  0  0  0
 77 80  1  0  0  0
 77 85  2  0  0  0
 78 82  1  0  0  0
 78 83  1  0  0  0
 78 88  2  0  0  0
 79 84  1  0  0  0
 79 86  1  0  0  0
 79 89  2  0  0  0
 80152  1  0  0  0
 80153  1  0  0  0
 80154  1  0  0  0
 81155  1  0  0  0
 81156  1  0  0  0
 81157  1  0  0  0
 81 84  1  0  0  0
 82 84  1  0  0  0
 82158  1  0  0  0
 82159  1  0  0  0
 83160  1  0  0  0
 83161  1  0  0  0
 84162  1  0  0  0
 85163  1  0  0  0
 86164  1  0  0  0
 87165  1  0  0  0
M  ISO  4   1 100  68 101  83 101  87 100
M  END
> <chiral flag>
0

> <version>
0

> <s_m_source_file>
/data/baiqing/PycharmProjects/Reinvent-master-3.2/result/LINK_invent/BTK/process_docking_weight1_custom_product_contain_oxygen_bond_distance_aromatic_linkinvent_7_9_3/rearranged_h_0167.sdf

> <i_m_source_file_index>
5

> <r_mmod_Potential_Energy-OPLS-2005>
-27.7921142578125

> <r_mmod_Stretch_Energy-OPLS-2005>
37.3682556152344

> <r_mmod_Bend_Energy-OPLS-2005>
97.7373657226562

> <r_mmod_Torsional_Energy-OPLS-2005>
324.003509521484

> <r_mmod_Improper_Torsional_Energy-OPLS-2005>
9.68212223052979

> <r_mmod_Van_der_Waal_Energy-OPLS-2005>
151.507843017578

> <r_mmod_Electrostatic_Energy-OPLS-2005>
-396.803466796875

> <r_mmod_Solvation_Energy-OPLS-2005>
-264.333129882812

> <b_mmod_Minimization_Converged-OPLS-2005>
0

> <r_mmod_RMS_Derivative-OPLS-2005>
4.71297216415405

$$$$
5
                    3D
 Structure written by MMmdl.
155163  0  0  1  0            999 V2000
  -30.7500  -14.4340   20.5375 C   0  0  0  0  0  0
  -30.4054  -12.2833   19.3963 C   0  0  0  0  0  0
  -29.4714  -12.4887   18.1893 C   0  0  0  0  0  0
  -27.9977  -12.3467   18.6156 C   0  0  0  0  0  0
  -27.6491  -13.1943   19.8661 C   0  0  2  0  0  0
  -28.7072  -13.0184   20.9801 C   0  0  0  0  0  0
  -25.2558  -13.8122   20.5703 C   0  0  0  0  0  0
  -24.1805  -13.0411   20.9201 C   0  0  0  0  0  0
  -24.6354  -11.6878   20.8765 C   0  0  0  0  0  0
  -23.9029  -10.4276   21.0416 C   0  0  0  0  0  0
  -24.3594   -9.4194   21.9183 C   0  0  0  0  0  0
  -23.6266   -8.2233   22.0760 C   0  0  0  0  0  0
  -22.4252   -8.0274   21.3543 C   0  0  0  0  0  0
  -21.9880   -9.0248   20.4645 C   0  0  0  0  0  0
  -22.7213  -10.2126   20.3048 C   0  0  0  0  0  0
  -21.6855   -6.0718   22.5265 C   0  0  0  0  0  0
  -21.4018   -6.5629   23.8198 C   0  0  0  0  0  0
  -21.3644   -5.6784   24.9160 C   0  0  0  0  0  0
  -21.6037   -4.3044   24.7219 C   0  0  0  0  0  0
  -21.8834   -3.8131   23.4345 C   0  0  0  0  0  0
  -21.9197   -4.6941   22.3398 C   0  0  0  0  0  0
  -22.7829  -13.5215   21.1838 C   0  0  0  0  0  0
  -22.1672   -4.2123   21.0977 F   0  0  0  0  0  0
  -21.5612   -3.4534   25.7736 F   0  0  0  0  0  0
  -30.0324  -13.2876   20.3984 N   0  0  0  0  0  0
  -26.2965  -12.9249   20.3384 N   0  0  0  0  0  0
  -25.9270  -11.6438   20.5815 N   0  0  0  0  0  0
  -22.0475  -12.8214   22.0400 N   0  0  0  0  0  0
  -25.4281  -15.1841   20.4114 N   0  0  0  0  0  0
  -31.9213  -14.5480   20.1748 O   0  0  0  0  0  0
  -21.6632   -6.8856   21.4227 O   0  0  0  0  0  0
  -22.3519  -14.5517   20.6679 O   0  0  0  0  0  0
  -24.6085  -31.8709   23.2140 C   0  0  0  0  0  0
  -25.9007  -32.4830   23.8420 C   0  0  1  0  0  0
  -27.2458  -27.4784   20.1086 C   0  0  0  0  0  0
  -25.5908  -33.8628   24.2368 N   0  0  0  0  0  0
  -23.3947  -30.4935   21.5499 C   0  0  2  0  0  0
  -24.8460  -28.9638   20.1149 C   0  0  0  0  0  0
  -22.7379  -29.4654   22.4986 C   0  0  0  0  0  0
  -18.0263  -28.1373   22.8483 C   0  0  0  0  0  0
  -24.1487  -36.7299   23.2644 C   0  0  0  0  0  0
  -25.9159  -30.8531   21.3594 C   0  0  0  0  0  0
  -25.9969  -29.4877   20.7157 C   0  0  0  0  0  0
  -27.1976  -28.7515   20.7196 C   0  0  0  0  0  0
  -26.0862  -26.9672   19.4912 C   0  0  0  0  0  0
  -24.8826  -27.6978   19.5018 C   0  0  0  0  0  0
  -23.6033  -29.8227   20.1630 C   0  0  0  0  0  0
  -25.4101  -36.3112   24.0357 C   0  0  1  0  0  0
  -20.5853  -28.3637   23.1337 C   0  0  2  0  0  0
  -20.6741  -26.9373   22.5433 C   0  0  0  0  0  0
  -19.5737  -26.6369   21.5214 C   0  0  0  0  0  0
  -18.1905  -26.7926   22.1597 C   0  0  0  0  0  0
  -19.1513  -28.8814   23.2911 C   0  0  0  0  0  0
  -18.9440  -30.1424   23.8909 C   0  0  0  0  0  0
  -17.6448  -30.6570   24.0554 C   0  0  0  0  0  0
  -25.9024  -34.9481   23.5146 C   0  0  0  0  0  0
  -16.5338  -29.9065   23.6334 C   0  0  0  0  0  0
  -16.7251  -28.6498   23.0331 C   0  0  0  0  0  0
  -26.4473  -31.6579   25.0707 C   0  0  0  0  0  0
  -25.3779  -31.3645   26.1482 C   0  0  0  0  0  0
  -27.0270  -30.3026   24.6026 C   0  0  0  0  0  0
  -27.6080  -32.4264   25.7460 C   0  0  0  0  0  0
  -27.5582  -37.1805   24.8467 C   0  0  0  0  0  0
  -21.4112  -29.3010   22.3741 N   0  0  0  0  0  0
  -26.4285  -37.3798   23.9426 N   0  0  0  0  0  0
  -24.6568  -31.0868   22.0998 N   0  0  0  0  0  0
  -23.4183  -28.8200   23.3005 O   0  0  0  0  0  0
  -28.3814  -26.7066   20.0803 O   0  0  0  0  0  0
  -26.5548  -34.8931   22.4682 O   0  0  0  0  0  0
  -23.5303  -32.1422   23.7586 O   0  0  0  0  0  0
  -30.4589  -18.4794   20.9482 C   0  0  0  0  0  0
  -30.3431  -19.8471   21.2713 C   0  0  0  0  0  0
  -28.0353  -19.8232   20.4983 C   0  0  0  0  0  0
  -29.3659  -17.7770   20.3903 C   0  0  0  0  0  0
  -29.1288  -20.5370   21.0337 C   0  0  0  0  0  0
  -28.1498  -18.4593   20.1695 C   0  0  0  0  0  0
  -29.1880  -24.2088   21.3670 C   0  0  0  0  0  0
  -29.5246  -16.3502   19.9605 C   0  0  0  0  0  0
  -29.8517  -25.3829   21.4544 C   0  0  0  0  0  0
  -29.8153  -22.9044   21.5114 C   0  0  0  0  0  0
  -29.2024  -26.7397   21.2469 C   0  0  0  0  0  0
  -28.9265  -21.9260   21.2717 N   0  0  0  0  0  0
  -30.0686  -15.5326   20.8779 N   0  0  0  0  0  0
  -29.1800  -16.0102   18.8230 O   0  0  0  0  0  0
  -30.9981  -22.7219   21.8105 O   0  0  0  0  0  0
  -31.1633  -25.5151   21.7163 O   0  0  0  0  0  0
  -27.0800  -17.8155   19.6416 F   0  0  0  0  0  0
  -31.4475  -12.3625   19.0838 H   0  0  0  0  0  0
  -30.2895  -11.2778   19.8046 H   0  0  0  0  0  0
  -29.7034  -11.7674   17.4045 H   0  0  0  0  0  0
  -29.6358  -13.4766   17.7551 H   0  0  0  0  0  0
  -27.8128  -11.2915   18.8209 H   0  0  0  0  0  0
  -27.3373  -12.6153   17.7904 H   0  0  0  0  0  0
  -27.6589  -14.2287   19.5431 H   0  0  0  0  0  0
  -28.6826  -12.0009   21.3731 H   0  0  0  0  0  0
  -28.4917  -13.6767   21.8230 H   0  0  0  0  0  0
  -25.2758   -9.5665   22.4729 H   0  0  0  0  0  0
  -23.9978   -7.4633   22.7490 H   0  0  0  0  0  0
  -21.0807   -8.8770   19.8952 H   0  0  0  0  0  0
  -22.3689  -10.9657   19.6139 H   0  0  0  0  0  0
  -21.2030   -7.6140   23.9685 H   0  0  0  0  0  0
  -21.1431   -6.0515   25.9056 H   0  0  0  0  0  0
  -22.0622   -2.7590   23.2853 H   0  0  0  0  0  0
  -22.4101  -11.9860   22.4754 H   0  0  0  0  0  0
  -21.1100  -13.1235   22.2638 H   0  0  0  0  0  0
  -24.6596  -15.8366   20.5176 H   0  0  0  0  0  0
  -26.2741  -15.6291   20.0767 H   0  0  0  0  0  0
  -26.7074  -32.5584   23.1198 H   0  0  0  0  0  0
  -25.0133  -33.9797   25.0564 H   0  0  0  0  0  0
  -22.6815  -31.3091   21.4130 H   0  0  0  0  0  0
  -23.3764  -35.9619   23.3295 H   0  0  0  0  0  0
  -24.3610  -36.8904   22.2062 H   0  0  0  0  0  0
  -23.7219  -37.6503   23.6642 H   0  0  0  0  0  0
  -26.0206  -31.6189   20.5893 H   0  0  0  0  0  0
  -26.8065  -30.9111   21.9730 H   0  0  0  0  0  0
  -28.0777  -29.1717   21.1850 H   0  0  0  0  0  0
  -26.1144  -25.9967   19.0173 H   0  0  0  0  0  0
  -23.9999  -27.2859   19.0327 H   0  0  0  0  0  0
  -23.7121  -30.5956   19.4012 H   0  0  0  0  0  0
  -22.7294  -29.2391   19.8677 H   0  0  0  0  0  0
  -25.1272  -36.1986   25.0851 H   0  0  0  0  0  0
  -20.9962  -28.3197   24.1451 H   0  0  0  0  0  0
  -20.5615  -26.2243   23.3613 H   0  0  0  0  0  0
  -21.6621  -26.7402   22.1258 H   0  0  0  0  0  0
  -19.6893  -25.6287   21.1218 H   0  0  0  0  0  0
  -19.6697  -27.3194   20.6760 H   0  0  0  0  0  0
  -17.4203  -26.6706   21.3971 H   0  0  0  0  0  0
  -18.0256  -26.0061   22.8972 H   0  0  0  0  0  0
  -19.7920  -30.7221   24.2292 H   0  0  0  0  0  0
  -17.5008  -31.6259   24.5137 H   0  0  0  0  0  0
  -15.5334  -30.2951   23.7676 H   0  0  0  0  0  0
  -15.8657  -28.0824   22.7022 H   0  0  0  0  0  0
  -24.6013  -30.6908   25.7842 H   0  0  0  0  0  0
  -24.8900  -32.2768   26.4925 H   0  0  0  0  0  0
  -25.8202  -30.8862   27.0232 H   0  0  0  0  0  0
  -26.2753  -29.6808   24.1147 H   0  0  0  0  0  0
  -27.4108  -29.7253   25.4448 H   0  0  0  0  0  0
  -27.8580  -30.4337   23.9089 H   0  0  0  0  0  0
  -27.2734  -33.3557   26.2087 H   0  0  0  0  0  0
  -28.3877  -32.6818   25.0268 H   0  0  0  0  0  0
  -28.0761  -31.8341   26.5335 H   0  0  0  0  0  0
  -28.2604  -38.0097   24.7519 H   0  0  0  0  0  0
  -28.1060  -36.2631   24.6261 H   0  0  0  0  0  0
  -27.2314  -37.1435   25.8874 H   0  0  0  0  0  0
  -20.9255  -29.8733   21.6980 H   0  0  0  0  0  0
  -26.0171  -38.2876   24.1441 H   0  0  0  0  0  0
  -31.4066  -17.9824   21.1001 H   0  0  0  0  0  0
  -31.2104  -20.3421   21.6808 H   0  0  0  0  0  0
  -27.0951  -20.3210   20.3093 H   0  0  0  0  0  0
  -28.1270  -24.2560   21.1595 H   0  0  0  0  0  0
  -29.9521  -27.5264   21.1432 H   0  0  0  0  0  0
  -28.6232  -26.9568   22.1467 H   0  0  0  0  0  0
  -27.9862  -22.2566   21.1131 H   0  0  0  0  0  0
  -30.4493  -16.0486   21.6535 H   0  0  0  0  0  0
  -31.5171  -24.6380   21.8349 H   0  0  0  0  0  0
  1 25  1  0  0  0
  1 30  2  0  0  0
  1 83  1  0  0  0
  2  3  1  0  0  0
  2 25  1  0  0  0
  2 88  1  0  0  0
  2 89  1  0  0  0
  3  4  1  0  0  0
  3 90  1  0  0  0
  3 91  1  0  0  0
  4  5  1  0  0  0
  4 92  1  0  0  0
  4 93  1  0  0  0
  5  6  1  0  0  0
  5 26  1  0  0  0
  5 94  1  0  0  0
  6 25  1  0  0  0
  6 95  1  0  0  0
  6 96  1  0  0  0
  7  8  2  0  0  0
  7 26  1  0  0  0
  7 29  1  0  0  0
  8  9  1  0  0  0
  8 22  1  0  0  0
  9 10  1  0  0  0
  9 27  2  0  0  0
 10 11  2  0  0  0
 10 15  1  0  0  0
 11 12  1  0  0  0
 11 97  1  0  0  0
 12 13  2  0  0  0
 12 98  1  0  0  0
 13 14  1  0  0  0
 13 31  1  0  0  0
 14 15  2  0  0  0
 14 99  1  0  0  0
 15100  1  0  0  0
 16 17  2  0  0  0
 16 21  1  0  0  0
 16 31  1  0  0  0
 17 18  1  0  0  0
 17101  1  0  0  0
 18 19  2  0  0  0
 18102  1  0  0  0
 19 20  1  0  0  0
 19 24  1  0  0  0
 20 21  2  0  0  0
 20103  1  0  0  0
 21 23  1  0  0  0
 22 28  1  0  0  0
 22 32  2  0  0  0
 26 27  1  0  0  0
 28104  1  0  0  0
 28105  1  0  0  0
 29106  1  0  0  0
 29107  1  0  0  0
 33 34  1  0  0  0
 33 66  1  0  0  0
 33 70  2  0  0  0
 34 36  1  0  0  0
 34 59  1  0  0  0
 34108  1  0  0  0
 35 44  2  0  0  0
 35 45  1  0  0  0
 35 68  1  0  0  0
 36 56  1  0  0  0
 36109  1  0  0  0
 37 39  1  0  0  0
 37 47  1  0  0  0
 37 66  1  0  0  0
 37110  1  0  0  0
 38 43  2  0  0  0
 38 46  1  0  0  0
 38 47  1  0  0  0
 39 64  1  0  0  0
 39 67  2  0  0  0
 40 52  1  0  0  0
 40 53  2  0  0  0
 40 58  1  0  0  0
 41111  1  0  0  0
 41112  1  0  0  0
 41113  1  0  0  0
 41 48  1  0  0  0
 42 43  1  0  0  0
 42 66  1  0  0  0
 42114  1  0  0  0
 42115  1  0  0  0
 43 44  1  0  0  0
 44116  1  0  0  0
 45 46  2  0  0  0
 45117  1  0  0  0
 46118  1  0  0  0
 47119  1  0  0  0
 47120  1  0  0  0
 48 56  1  0  0  0
 48 65  1  0  0  0
 48121  1  0  0  0
 49 50  1  0  0  0
 49 53  1  0  0  0
 49 64  1  0  0  0
 49122  1  0  0  0
 50 51  1  0  0  0
 50123  1  0  0  0
 50124  1  0  0  0
 51 52  1  0  0  0
 51125  1  0  0  0
 51126  1  0  0  0
 52127  1  0  0  0
 52128  1  0  0  0
 53 54  1  0  0  0
 54 55  2  0  0  0
 54129  1  0  0  0
 55 57  1  0  0  0
 55130  1  0  0  0
 56 69  2  0  0  0
 57 58  2  0  0  0
 57131  1  0  0  0
 58132  1  0  0  0
 59 60  1  0  0  0
 59 61  1  0  0  0
 59 62  1  0  0  0
 60133  1  0  0  0
 60134  1  0  0  0
 60135  1  0  0  0
 61136  1  0  0  0
 61137  1  0  0  0
 61138  1  0  0  0
 62139  1  0  0  0
 62140  1  0  0  0
 62141  1  0  0  0
 63 65  1  0  0  0
 63142  1  0  0  0
 63143  1  0  0  0
 63144  1  0  0  0
 64145  1  0  0  0
 65146  1  0  0  0
 68 81  1  0  0  0
 71 72  2  0  0  0
 71 74  1  0  0  0
 71147  1  0  0  0
 72 75  1  0  0  0
 72148  1  0  0  0
 73 75  2  0  0  0
 73 76  1  0  0  0
 73149  1  0  0  0
 74 76  2  0  0  0
 74 78  1  0  0  0
 75 82  1  0  0  0
 76 87  1  0  0  0
 77 79  2  0  0  0
 77 80  1  0  0  0
 77150  1  0  0  0
 78 83  1  0  0  0
 78 84  2  0  0  0
 79 81  1  0  0  0
 79 86  1  0  0  0
 80 82  1  0  0  0
 80 85  2  0  0  0
 81151  1  0  0  0
 81152  1  0  0  0
 82153  1  0  0  0
 83154  1  0  0  0
 86155  1  0  0  0
M  ISO  4   1 100  68 101  81 101  83 100
M  END
> <chiral flag>
0

> <version>
0

> <s_m_source_file>
/data/baiqing/PycharmProjects/Reinvent-master-3.2/result/LINK_invent/BTK/process_docking_weight1_custom_product_contain_oxygen_bond_distance_aromatic_linkinvent_7_9_3/rearranged_h_0167.sdf

> <i_m_source_file_index>
6

> <r_mmod_Potential_Energy-OPLS-2005>
-44.482364654541

> <r_mmod_Stretch_Energy-OPLS-2005>
31.9334049224854

> <r_mmod_Bend_Energy-OPLS-2005>
105.736763000488

> <r_mmod_Torsional_Energy-OPLS-2005>
303.310913085938

> <r_mmod_Improper_Torsional_Energy-OPLS-2005>
8.66498184204102

> <r_mmod_Van_der_Waal_Energy-OPLS-2005>
165.291595458984

> <r_mmod_Electrostatic_Energy-OPLS-2005>
-451.483581542969

> <r_mmod_Solvation_Energy-OPLS-2005>
-222.9716796875

> <b_mmod_Minimization_Converged-OPLS-2005>
0

> <r_mmod_RMS_Derivative-OPLS-2005>
2.19277453422546

$$$$
6
                    3D
 Structure written by MMmdl.
158166  0  0  1  0            999 V2000
  -30.6603  -14.5987   20.4071 C   0  0  0  0  0  0
  -30.4306  -12.3056   19.5254 C   0  0  0  0  0  0
  -29.5192  -12.2338   18.2764 C   0  0  0  0  0  0
  -28.0155  -12.3282   18.6190 C   0  0  0  0  0  0
  -27.6538  -13.2332   19.8318 C   0  0  2  0  0  0
  -28.6910  -13.1450   20.9740 C   0  0  0  0  0  0
  -25.2567  -13.8253   20.5694 C   0  0  0  0  0  0
  -24.1855  -13.0431   20.9158 C   0  0  0  0  0  0
  -24.6499  -11.6965   20.8753 C   0  0  0  0  0  0
  -23.9151  -10.4319   21.0380 C   0  0  0  0  0  0
  -24.3685   -9.4234   21.9189 C   0  0  0  0  0  0
  -23.6324   -8.2300   22.0760 C   0  0  0  0  0  0
  -22.4309   -8.0347   21.3579 C   0  0  0  0  0  0
  -21.9944   -9.0280   20.4691 C   0  0  0  0  0  0
  -22.7282  -10.2159   20.3036 C   0  0  0  0  0  0
  -21.6900   -6.0760   22.5246 C   0  0  0  0  0  0
  -21.4018   -6.5663   23.8160 C   0  0  0  0  0  0
  -21.3615   -5.6807   24.9113 C   0  0  0  0  0  0
  -21.6015   -4.3075   24.7195 C   0  0  0  0  0  0
  -21.8789   -3.8160   23.4325 C   0  0  0  0  0  0
  -21.9200   -4.6975   22.3388 C   0  0  0  0  0  0
  -22.7862  -13.5182   21.1837 C   0  0  0  0  0  0
  -22.1665   -4.2140   21.0975 F   0  0  0  0  0  0
  -21.5660   -3.4585   25.7739 F   0  0  0  0  0  0
  -30.0014  -13.4098   20.3941 N   0  0  0  0  0  0
  -26.3031  -12.9486   20.3206 N   0  0  0  0  0  0
  -25.9429  -11.6639   20.5800 N   0  0  0  0  0  0
  -22.0619  -12.8100   22.0454 N   0  0  0  0  0  0
  -25.4110  -15.2011   20.4405 N   0  0  0  0  0  0
  -31.8596  -14.6888   20.1398 O   0  0  0  0  0  0
  -21.6737   -6.8909   21.4218 O   0  0  0  0  0  0
  -22.3405  -14.5399   20.6691 O   0  0  0  0  0  0
  -24.6189  -31.8602   23.2069 C   0  0  0  0  0  0
  -25.9043  -32.4814   23.8399 C   0  0  1  0  0  0
  -27.2422  -27.3778   20.1529 C   0  0  0  0  0  0
  -25.5878  -33.8618   24.2318 N   0  0  0  0  0  0
  -23.4145  -30.4832   21.5458 C   0  0  2  0  0  0
  -24.8681  -28.9454   20.1195 C   0  0  0  0  0  0
  -22.7450  -29.4628   22.4968 C   0  0  0  0  0  0
  -18.0237  -28.1399   22.8459 C   0  0  0  0  0  0
  -24.1491  -36.7323   23.2656 C   0  0  0  0  0  0
  -25.9519  -30.8172   21.3678 C   0  0  0  0  0  0
  -26.0311  -29.4471   20.7214 C   0  0  0  0  0  0
  -27.2226  -28.6786   20.7202 C   0  0  0  0  0  0
  -26.0632  -26.9140   19.5201 C   0  0  0  0  0  0
  -24.8883  -27.6836   19.5065 C   0  0  0  0  0  0
  -23.6294  -29.8126   20.1635 C   0  0  0  0  0  0
  -25.4105  -36.3113   24.0365 C   0  0  1  0  0  0
  -20.5831  -28.3644   23.1289 C   0  0  2  0  0  0
  -20.6745  -26.9371   22.5383 C   0  0  0  0  0  0
  -19.5757  -26.6379   21.5170 C   0  0  0  0  0  0
  -18.1928  -26.7928   22.1583 C   0  0  0  0  0  0
  -19.1500  -28.8842   23.2868 C   0  0  0  0  0  0
  -18.9459  -30.1461   23.8865 C   0  0  0  0  0  0
  -17.6477  -30.6601   24.0569 C   0  0  0  0  0  0
  -25.9025  -34.9475   23.5148 C   0  0  0  0  0  0
  -16.5340  -29.9117   23.6346 C   0  0  0  0  0  0
  -16.7250  -28.6536   23.0338 C   0  0  0  0  0  0
  -26.4433  -31.6623   25.0761 C   0  0  0  0  0  0
  -25.3685  -31.3704   26.1513 C   0  0  0  0  0  0
  -27.0258  -30.3092   24.6125 C   0  0  0  0  0  0
  -27.6081  -32.4308   25.7425 C   0  0  0  0  0  0
  -27.5592  -37.1794   24.8455 C   0  0  0  0  0  0
  -21.4159  -29.3022   22.3733 N   0  0  0  0  0  0
  -26.4290  -37.3809   23.9423 N   0  0  0  0  0  0
  -24.6808  -31.0688   22.0980 N   0  0  0  0  0  0
  -23.4192  -28.8166   23.3036 O   0  0  0  0  0  0
  -28.3694  -26.5702   20.2637 O   0  0  0  0  0  0
  -26.5606  -34.8920   22.4722 O   0  0  0  0  0  0
  -23.5360  -32.1324   23.7425 O   0  0  0  0  0  0
  -30.0765  -18.7150   17.9460 C   0  0  0  0  0  0
  -30.1816  -18.0258   16.7278 C   0  0  0  0  0  0
  -29.8845  -15.9535   17.9325 C   0  0  0  0  0  0
  -29.9284  -18.0550   19.1995 C   0  0  0  0  0  0
  -29.8896  -16.6052   19.1990 C   0  0  0  0  0  0
  -30.0596  -16.6345   16.7179 C   0  0  0  0  0  0
  -29.9363  -18.9876   20.3732 C   0  0  0  0  0  0
  -29.5742  -21.4590   21.0132 C   0  0  0  0  0  0
  -28.9519  -22.7132   20.3378 C   0  0  0  0  0  0
  -29.2227  -24.1601   20.8880 C   0  0  0  0  0  0
  -28.1076  -25.1394   20.3816 C   0  0  0  0  0  0
  -29.8782  -15.7199   20.3577 N   0  0  0  0  0  0
  -29.4848  -20.2667   20.1936 N   0  0  0  0  0  0
  -30.4866  -18.5846   21.5196 N   0  3  0  0  0  0
  -30.1028  -21.4618   22.1316 O   0  0  0  0  0  0
  -30.1431  -15.9412   15.5589 F   0  0  0  0  0  0
  -31.4805  -12.3811   19.2392 H   0  0  0  0  0  0
  -30.3554  -11.3759   20.0980 H   0  0  0  0  0  0
  -29.6769  -11.2381   17.8594 H   0  0  0  0  0  0
  -29.8082  -12.9076   17.4712 H   0  0  0  0  0  0
  -27.6964  -11.3045   18.8020 H   0  0  0  0  0  0
  -27.4483  -12.6371   17.7390 H   0  0  0  0  0  0
  -27.6656  -14.2545   19.4426 H   0  0  0  0  0  0
  -28.7048  -12.1604   21.4397 H   0  0  0  0  0  0
  -28.4638  -13.8585   21.7720 H   0  0  0  0  0  0
  -25.2827   -9.5640   22.4801 H   0  0  0  0  0  0
  -23.9976   -7.4675   22.7453 H   0  0  0  0  0  0
  -21.0833   -8.8698   19.9103 H   0  0  0  0  0  0
  -22.3625  -10.9641   19.6139 H   0  0  0  0  0  0
  -21.1999   -7.6175   23.9662 H   0  0  0  0  0  0
  -21.1489   -6.0587   25.9014 H   0  0  0  0  0  0
  -22.0643   -2.7637   23.2837 H   0  0  0  0  0  0
  -22.4331  -11.9751   22.4735 H   0  0  0  0  0  0
  -21.1274  -13.1166   22.2735 H   0  0  0  0  0  0
  -24.6197  -15.8120   20.6214 H   0  0  0  0  0  0
  -26.2962  -15.6784   20.5623 H   0  0  0  0  0  0
  -26.7118  -32.5444   23.1157 H   0  0  0  0  0  0
  -25.0003  -33.9779   25.0440 H   0  0  0  0  0  0
  -22.7097  -31.3014   21.3988 H   0  0  0  0  0  0
  -23.3766  -35.9641   23.3276 H   0  0  0  0  0  0
  -24.3614  -36.8961   22.2078 H   0  0  0  0  0  0
  -23.7199  -37.6526   23.6651 H   0  0  0  0  0  0
  -26.0645  -31.5789   20.5929 H   0  0  0  0  0  0
  -26.8473  -30.8780   21.9777 H   0  0  0  0  0  0
  -28.1196  -29.0602   21.1887 H   0  0  0  0  0  0
  -26.0185  -25.9469   19.0394 H   0  0  0  0  0  0
  -24.0027  -27.2924   19.0236 H   0  0  0  0  0  0
  -23.7386  -30.5849   19.4029 H   0  0  0  0  0  0
  -22.7563  -29.2314   19.8620 H   0  0  0  0  0  0
  -25.1257  -36.2033   25.0866 H   0  0  0  0  0  0
  -20.9894  -28.3192   24.1424 H   0  0  0  0  0  0
  -20.5616  -26.2240   23.3552 H   0  0  0  0  0  0
  -21.6623  -26.7408   22.1196 H   0  0  0  0  0  0
  -19.6917  -25.6285   21.1234 H   0  0  0  0  0  0
  -19.6749  -27.3153   20.6675 H   0  0  0  0  0  0
  -17.4164  -26.6606   21.4029 H   0  0  0  0  0  0
  -18.0394  -26.0093   22.9003 H   0  0  0  0  0  0
  -19.7953  -30.7289   24.2201 H   0  0  0  0  0  0
  -17.5036  -31.6278   24.5185 H   0  0  0  0  0  0
  -15.5360  -30.3042   23.7709 H   0  0  0  0  0  0
  -15.8612  -28.0916   22.7044 H   0  0  0  0  0  0
  -24.5918  -30.6981   25.7845 H   0  0  0  0  0  0
  -24.8773  -32.2817   26.4957 H   0  0  0  0  0  0
  -25.8057  -30.8906   27.0278 H   0  0  0  0  0  0
  -26.2783  -29.6870   24.1209 H   0  0  0  0  0  0
  -27.4076  -29.7361   25.4577 H   0  0  0  0  0  0
  -27.8586  -30.4483   23.9231 H   0  0  0  0  0  0
  -27.2845  -33.3638   26.2046 H   0  0  0  0  0  0
  -28.3816  -32.6817   25.0149 H   0  0  0  0  0  0
  -28.0818  -31.8370   26.5249 H   0  0  0  0  0  0
  -28.2594  -38.0114   24.7573 H   0  0  0  0  0  0
  -28.1108  -36.2660   24.6179 H   0  0  0  0  0  0
  -27.2324  -37.1329   25.8863 H   0  0  0  0  0  0
  -20.9320  -29.8779   21.6971 H   0  0  0  0  0  0
  -26.0198  -38.2886   24.1506 H   0  0  0  0  0  0
  -30.1593  -19.7895   17.8756 H   0  0  0  0  0  0
  -30.3621  -18.5669   15.8125 H   0  0  0  0  0  0
  -29.7884  -14.8904   17.8573 H   0  0  0  0  0  0
  -27.8754  -22.5383   20.3428 H   0  0  0  0  0  0
  -29.2508  -22.7127   19.2855 H   0  0  0  0  0  0
  -30.1976  -24.5024   20.5429 H   0  0  0  0  0  0
  -29.2694  -24.1792   21.9791 H   0  0  0  0  0  0
  -27.2450  -24.9889   21.0362 H   0  0  0  0  0  0
  -27.8079  -24.7872   19.3949 H   0  0  0  0  0  0
  -28.9869  -15.6454   20.8281 H   0  0  0  0  0  0
  -29.0765  -20.3512   19.2774 H   0  0  0  0  0  0
  -30.9287  -17.6795   21.5511 H   0  0  0  0  0  0
  -30.5851  -19.2171   22.2992 H   0  0  0  0  0  0
  1 25  1  0  0  0
  1 30  2  0  0  0
  1 82  1  0  0  0
  2  3  1  0  0  0
  2 25  1  0  0  0
  2 87  1  0  0  0
  2 88  1  0  0  0
  3  4  1  0  0  0
  3 89  1  0  0  0
  3 90  1  0  0  0
  4  5  1  0  0  0
  4 91  1  0  0  0
  4 92  1  0  0  0
  5  6  1  0  0  0
  5 26  1  0  0  0
  5 93  1  0  0  0
  6 25  1  0  0  0
  6 94  1  0  0  0
  6 95  1  0  0  0
  7  8  2  0  0  0
  7 26  1  0  0  0
  7 29  1  0  0  0
  8  9  1  0  0  0
  8 22  1  0  0  0
  9 10  1  0  0  0
  9 27  2  0  0  0
 10 11  2  0  0  0
 10 15  1  0  0  0
 11 12  1  0  0  0
 11 96  1  0  0  0
 12 13  2  0  0  0
 12 97  1  0  0  0
 13 14  1  0  0  0
 13 31  1  0  0  0
 14 15  2  0  0  0
 14 98  1  0  0  0
 15 99  1  0  0  0
 16 17  2  0  0  0
 16 21  1  0  0  0
 16 31  1  0  0  0
 17 18  1  0  0  0
 17100  1  0  0  0
 18 19  2  0  0  0
 18101  1  0  0  0
 19 20  1  0  0  0
 19 24  1  0  0  0
 20 21  2  0  0  0
 20102  1  0  0  0
 21 23  1  0  0  0
 22 28  1  0  0  0
 22 32  2  0  0  0
 26 27  1  0  0  0
 28103  1  0  0  0
 28104  1  0  0  0
 29105  1  0  0  0
 29106  1  0  0  0
 33 34  1  0  0  0
 33 66  1  0  0  0
 33 70  2  0  0  0
 34 36  1  0  0  0
 34 59  1  0  0  0
 34107  1  0  0  0
 35 44  2  0  0  0
 35 45  1  0  0  0
 35 68  1  0  0  0
 36 56  1  0  0  0
 36108  1  0  0  0
 37 39  1  0  0  0
 37 47  1  0  0  0
 37 66  1  0  0  0
 37109  1  0  0  0
 38 43  2  0  0  0
 38 46  1  0  0  0
 38 47  1  0  0  0
 39 64  1  0  0  0
 39 67  2  0  0  0
 40 52  1  0  0  0
 40 53  2  0  0  0
 40 58  1  0  0  0
 41110  1  0  0  0
 41111  1  0  0  0
 41112  1  0  0  0
 41 48  1  0  0  0
 42 43  1  0  0  0
 42 66  1  0  0  0
 42113  1  0  0  0
 42114  1  0  0  0
 43 44  1  0  0  0
 44115  1  0  0  0
 45 46  2  0  0  0
 45116  1  0  0  0
 46117  1  0  0  0
 47118  1  0  0  0
 47119  1  0  0  0
 48 56  1  0  0  0
 48 65  1  0  0  0
 48120  1  0  0  0
 49 50  1  0  0  0
 49 53  1  0  0  0
 49 64  1  0  0  0
 49121  1  0  0  0
 50 51  1  0  0  0
 50122  1  0  0  0
 50123  1  0  0  0
 51 52  1  0  0  0
 51124  1  0  0  0
 51125  1  0  0  0
 52126  1  0  0  0
 52127  1  0  0  0
 53 54  1  0  0  0
 54 55  2  0  0  0
 54128  1  0  0  0
 55 57  1  0  0  0
 55129  1  0  0  0
 56 69  2  0  0  0
 57 58  2  0  0  0
 57130  1  0  0  0
 58131  1  0  0  0
 59 60  1  0  0  0
 59 61  1  0  0  0
 59 62  1  0  0  0
 60132  1  0  0  0
 60133  1  0  0  0
 60134  1  0  0  0
 61135  1  0  0  0
 61136  1  0  0  0
 61137  1  0  0  0
 62138  1  0  0  0
 62139  1  0  0  0
 62140  1  0  0  0
 63 65  1  0  0  0
 63141  1  0  0  0
 63142  1  0  0  0
 63143  1  0  0  0
 64144  1  0  0  0
 65145  1  0  0  0
 68 81  1  0  0  0
 71 72  2  0  0  0
 71 74  1  0  0  0
 71146  1  0  0  0
 72 76  1  0  0  0
 72147  1  0  0  0
 73 75  1  0  0  0
 73 76  2  0  0  0
 73148  1  0  0  0
 74 75  2  0  0  0
 74 77  1  0  0  0
 75 82  1  0  0  0
 76 86  1  0  0  0
 77 83  1  0  0  0
 77 84  2  0  0  0
 78 79  1  0  0  0
 78 83  1  0  0  0
 78 85  2  0  0  0
 79 80  1  0  0  0
 79149  1  0  0  0
 79150  1  0  0  0
 80 81  1  0  0  0
 80151  1  0  0  0
 80152  1  0  0  0
 81153  1  0  0  0
 81154  1  0  0  0
 82155  1  0  0  0
 83156  1  0  0  0
 84157  1  0  0  0
 84158  1  0  0  0
M  CHG  1  84   1
M  ISO  4   1 100  68 101  81 101  82 100
M  END
> <chiral flag>
0

> <version>
0

> <s_m_source_file>
/data/baiqing/PycharmProjects/Reinvent-master-3.2/result/LINK_invent/BTK/process_docking_weight1_custom_product_contain_oxygen_bond_distance_aromatic_linkinvent_7_9_3/rearranged_h_0167.sdf

> <i_m_source_file_index>
7

> <r_mmod_Potential_Energy-OPLS-2005>
-64.0304260253906

> <r_mmod_Stretch_Energy-OPLS-2005>
60.8184204101562

> <r_mmod_Bend_Energy-OPLS-2005>
155.571273803711

> <r_mmod_Torsional_Energy-OPLS-2005>
282.842559814453

> <r_mmod_Improper_Torsional_Energy-OPLS-2005>
14.9984378814697

> <r_mmod_Van_der_Waal_Energy-OPLS-2005>
165.372512817383

> <r_mmod_Electrostatic_Energy-OPLS-2005>
-325.219879150391

> <r_mmod_Solvation_Energy-OPLS-2005>
-473.705291748047

> <b_mmod_Minimization_Converged-OPLS-2005>
0

> <r_mmod_RMS_Derivative-OPLS-2005>
9.00504684448242

$$$$
7
                    3D
 Structure written by MMmdl.
159167  0  0  1  0            999 V2000
  -30.7072  -14.4987   20.8193 C   0  0  0  0  0  0
  -30.7443  -12.4727   19.2189 C   0  0  0  0  0  0
  -29.7346  -12.5499   18.0088 C   0  0  0  0  0  0
  -28.2248  -12.6455   18.3452 C   0  0  0  0  0  0
  -28.0905  -13.6547   19.4808 C   0  0  2  0  0  0
  -29.0621  -12.9149   20.6017 C   0  0  0  0  0  0
  -25.0281  -14.2815   19.6527 C   0  0  0  0  0  0
  -23.9111  -13.5866   20.7092 C   0  0  0  0  0  0
  -24.6396  -12.5273   21.8282 C   0  0  0  0  0  0
  -23.7250  -11.0080   21.7723 C   0  0  0  0  0  0
  -23.9947   -9.8149   22.5543 C   0  0  0  0  0  0
  -23.4980   -8.4908   22.3622 C   0  0  0  0  0  0
  -22.4733   -8.2170   21.4418 C   0  0  0  0  0  0
  -22.1784   -9.2899   20.5668 C   0  0  0  0  0  0
  -22.8227  -10.5790   20.6886 C   0  0  0  0  0  0
  -21.7199   -6.1404   22.4937 C   0  0  0  0  0  0
  -21.4073   -6.5996   23.7971 C   0  0  0  0  0  0
  -21.3559   -5.7057   24.8887 C   0  0  0  0  0  0
  -21.5958   -4.3323   24.6918 C   0  0  0  0  0  0
  -21.8736   -3.8566   23.3987 C   0  0  0  0  0  0
  -21.9281   -4.7504   22.3091 C   0  0  0  0  0  0
  -22.5090  -13.9044   21.0019 C   0  0  0  0  0  0
  -22.1815   -4.2597   21.0721 F   0  0  0  0  0  0
  -21.5529   -3.4732   25.7388 F   0  0  0  0  0  0
  -30.3116  -13.2945   20.3647 N   0  0  0  0  0  0
  -26.7176  -13.7923   19.8766 N   0  0  0  0  0  0
  -26.8482  -12.8304   21.1036 N   0  0  0  0  0  0
  -21.8425  -13.1330   21.8668 N   0  0  0  0  0  0
  -24.9886  -15.5571   19.2161 N   0  0  0  0  0  0
  -31.7591  -14.9251   20.3336 O   0  0  0  0  0  0
  -21.7844   -7.0024   21.3987 O   0  0  0  0  0  0
  -22.0065  -14.8737   20.4859 O   0  0  0  0  0  0
  -24.7203  -31.7444   23.1279 C   0  0  0  0  0  0
  -25.9633  -32.4135   23.7895 C   0  0  1  0  0  0
  -26.6654  -25.9926   20.4759 C   0  0  0  0  0  0
  -25.6067  -33.8022   24.1692 N   0  0  0  0  0  0
  -23.5432  -30.3611   21.4893 C   0  0  2  0  0  0
  -24.9166  -28.5903   20.1144 C   0  0  0  0  0  0
  -22.7816  -29.4086   22.4541 C   0  0  0  0  0  0
  -18.0344  -28.1429   22.8438 C   0  0  0  0  0  0
  -24.1502  -36.6996   23.2658 C   0  0  0  0  0  0
  -26.1211  -30.2281   21.5050 C   0  0  0  0  0  0
  -26.0700  -28.7300   20.8845 C   0  0  0  0  0  0
  -26.9384  -27.4627   21.0236 C   0  0  0  0  0  0
  -25.6620  -26.2564   19.5055 C   0  0  0  0  0  0
  -24.8124  -27.4052   19.3708 C   0  0  0  0  0  0
  -23.8078  -29.6656   20.1167 C   0  0  0  0  0  0
  -25.4169  -36.2707   24.0242 C   0  0  1  0  0  0
  -20.5978  -28.3790   23.1067 C   0  0  2  0  0  0
  -20.6777  -26.9418   22.5405 C   0  0  0  0  0  0
  -19.5765  -26.6348   21.5209 C   0  0  0  0  0  0
  -18.1952  -26.7954   22.1605 C   0  0  0  0  0  0
  -19.1616  -28.8938   23.2737 C   0  0  0  0  0  0
  -18.9528  -30.1515   23.8798 C   0  0  0  0  0  0
  -17.6518  -30.6605   24.0547 C   0  0  0  0  0  0
  -25.9194  -34.9112   23.4834 C   0  0  0  0  0  0
  -16.5404  -29.9087   23.6360 C   0  0  0  0  0  0
  -16.7326  -28.6511   23.0374 C   0  0  0  0  0  0
  -26.4675  -31.6441   25.0749 C   0  0  0  0  0  0
  -25.3623  -31.3921   26.1281 C   0  0  0  0  0  0
  -27.0709  -30.2722   24.7119 C   0  0  0  0  0  0
  -27.6017  -32.4460   25.7559 C   0  0  0  0  0  0
  -27.5561  -37.1636   24.8448 C   0  0  0  0  0  0
  -21.4443  -29.2975   22.3312 N   0  0  0  0  0  0
  -26.4233  -37.3544   23.9435 N   0  0  0  0  0  0
  -24.8303  -30.8351   22.0854 N   0  0  0  0  0  0
  -23.4113  -28.7702   23.3012 O   0  0  0  0  0  0
  -27.1050  -24.3675   20.7261 O   0  0  0  0  0  0
  -26.5894  -34.8782   22.4500 O   0  0  0  0  0  0
  -23.6162  -32.0866   23.5932 O   0  0  0  0  0  0
  -26.5905  -12.1508   23.3804 C   0  0  0  0  0  0
  -26.5021  -10.8419   22.3348 C   0  0  0  0  0  0
  -25.3553  -12.0011   19.8822 C   0  0  0  0  0  0
  -26.4440  -13.8094   23.1599 C   0  0  0  0  0  0
  -25.7173  -14.4992   21.8072 C   0  0  0  0  0  0
  -26.0109  -10.6906   20.7297 C   0  0  0  0  0  0
  -26.5839  -20.3232   21.2497 C   0  0  0  0  0  0
  -28.7922  -15.4420   22.5030 C   0  0  0  0  0  0
  -28.8268  -13.6733   24.3966 C   0  0  0  0  0  0
  -25.8981  -18.2499   21.0772 C   0  0  0  0  0  0
  -26.3750  -22.4264   20.6840 C   0  0  0  0  0  0
  -27.8800  -14.5016   23.4994 C   0  0  2  0  0  0
  -25.9231  -16.3457   21.7195 N   0  0  0  0  0  0
  -29.9423  -15.2914   21.6948 N   0  0  0  0  0  0
  -27.5393  -20.2807   22.0318 O   0  0  0  0  0  0
  -28.5472  -16.6405   22.6582 O   0  0  0  0  0  0
  -26.1096   -9.4866   20.1160 F   0  0  0  0  0  0
  -31.7346  -12.7907   18.8890 H   0  0  0  0  0  0
  -30.8747  -11.4381   19.5425 H   0  0  0  0  0  0
  -29.9094  -11.7112   17.3341 H   0  0  0  0  0  0
  -29.9933  -13.4380   17.4292 H   0  0  0  0  0  0
  -27.8304  -11.6676   18.6212 H   0  0  0  0  0  0
  -27.6591  -12.9767   17.4718 H   0  0  0  0  0  0
  -28.4421  -14.6442   19.1859 H   0  0  0  0  0  0
  -28.9759  -11.8201   20.5555 H   0  0  0  0  0  0
  -28.9782  -13.0435   21.6790 H   0  0  0  0  0  0
  -24.6160   -9.9155   23.4303 H   0  0  0  0  0  0
  -23.8188   -7.7219   23.0498 H   0  0  0  0  0  0
  -21.4576   -9.1378   19.7770 H   0  0  0  0  0  0
  -22.5749  -11.2971   19.9207 H   0  0  0  0  0  0
  -21.2173   -7.6496   23.9667 H   0  0  0  0  0  0
  -21.1297   -6.0732   25.8795 H   0  0  0  0  0  0
  -22.0439   -2.8028   23.2386 H   0  0  0  0  0  0
  -22.2474  -12.2893   22.2453 H   0  0  0  0  0  0
  -20.8806  -13.3510   22.0867 H   0  0  0  0  0  0
  -25.1817  -16.0602   20.0947 H   0  0  0  0  0  0
  -25.8060  -15.7470   18.6493 H   0  0  0  0  0  0
  -26.7708  -32.4386   23.0563 H   0  0  0  0  0  0
  -25.0068  -33.8997   24.9748 H   0  0  0  0  0  0
  -22.8984  -31.2206   21.2931 H   0  0  0  0  0  0
  -23.3835  -35.9249   23.3156 H   0  0  0  0  0  0
  -24.3574  -36.8859   22.2111 H   0  0  0  0  0  0
  -23.7181  -37.6070   23.6885 H   0  0  0  0  0  0
  -26.4239  -30.8879   20.6911 H   0  0  0  0  0  0
  -26.9571  -30.2735   22.1873 H   0  0  0  0  0  0
  -27.7569  -27.5486   21.7244 H   0  0  0  0  0  0
  -25.3663  -25.4052   18.9086 H   0  0  0  0  0  0
  -23.9774  -27.3148   18.6902 H   0  0  0  0  0  0
  -24.0871  -30.4220   19.3818 H   0  0  0  0  0  0
  -22.8817  -29.2250   19.7427 H   0  0  0  0  0  0
  -25.1395  -36.1388   25.0724 H   0  0  0  0  0  0
  -21.0074  -28.3459   24.1189 H   0  0  0  0  0  0
  -20.5587  -26.2435   23.3702 H   0  0  0  0  0  0
  -21.6643  -26.7294   22.1263 H   0  0  0  0  0  0
  -19.6911  -25.6232   21.1306 H   0  0  0  0  0  0
  -19.6722  -27.3103   20.6697 H   0  0  0  0  0  0
  -17.4224  -26.6717   21.4005 H   0  0  0  0  0  0
  -18.0320  -26.0111   22.9012 H   0  0  0  0  0  0
  -19.8009  -30.7349   24.2125 H   0  0  0  0  0  0
  -17.5076  -31.6271   24.5174 H   0  0  0  0  0  0
  -15.5404  -30.2966   23.7727 H   0  0  0  0  0  0
  -15.8727  -28.0794   22.7146 H   0  0  0  0  0  0
  -24.5906  -30.7135   25.7624 H   0  0  0  0  0  0
  -24.8704  -32.3180   26.4272 H   0  0  0  0  0  0
  -25.7715  -30.9421   27.0337 H   0  0  0  0  0  0
  -26.3472  -29.6056   24.2421 H   0  0  0  0  0  0
  -27.4154  -29.7529   25.6073 H   0  0  0  0  0  0
  -27.9471  -30.3700   24.0707 H   0  0  0  0  0  0
  -27.2483  -33.3902   26.1718 H   0  0  0  0  0  0
  -28.4023  -32.6797   25.0528 H   0  0  0  0  0  0
  -28.0473  -31.8904   26.5822 H   0  0  0  0  0  0
  -28.2428  -38.0072   24.7635 H   0  0  0  0  0  0
  -28.1205  -36.2600   24.6101 H   0  0  0  0  0  0
  -27.2295  -37.1036   25.8843 H   0  0  0  0  0  0
  -20.9790  -29.8623   21.6340 H   0  0  0  0  0  0
  -26.0001  -38.2539   24.1557 H   0  0  0  0  0  0
  -27.0384  -11.8650   24.3187 H   0  0  0  0  0  0
  -26.8526   -9.9164   22.7703 H   0  0  0  0  0  0
  -25.0676  -11.9498   18.8362 H   0  0  0  0  0  0
  -28.3575  -13.4494   25.3543 H   0  0  0  0  0  0
  -29.7399  -14.2233   24.6265 H   0  0  0  0  0  0
  -29.1322  -12.7361   23.9337 H   0  0  0  0  0  0
  -26.0780  -18.1021   20.0125 H   0  0  0  0  0  0
  -24.8241  -18.4373   21.1159 H   0  0  0  0  0  0
  -25.3844  -22.6131   21.0988 H   0  0  0  0  0  0
  -26.1807  -22.3184   19.6167 H   0  0  0  0  0  0
  -27.5146  -15.2499   24.2060 H   0  0  0  0  0  0
  -26.4063  -16.5298   22.5959 H   0  0  0  0  0  0
  -30.3553  -16.2076   21.6562 H   0  0  0  0  0  0
  1 25  1  0  0  0
  1 30  2  0  0  0
  1 84  1  0  0  0
  2  3  1  0  0  0
  2 25  1  0  0  0
  2 88  1  0  0  0
  2 89  1  0  0  0
  3  4  1  0  0  0
  3 90  1  0  0  0
  3 91  1  0  0  0
  4  5  1  0  0  0
  4 92  1  0  0  0
  4 93  1  0  0  0
  5  6  1  0  0  0
  5 26  1  0  0  0
  5 94  1  0  0  0
  6 25  1  0  0  0
  6 95  1  0  0  0
  6 96  1  0  0  0
  7  8  2  0  0  0
  7 26  1  0  0  0
  7 29  1  0  0  0
  8  9  1  0  0  0
  8 22  1  0  0  0
  9 10  1  0  0  0
  9 27  2  0  0  0
 10 11  2  0  0  0
 10 15  1  0  0  0
 11 12  1  0  0  0
 11 97  1  0  0  0
 12 13  2  0  0  0
 12 98  1  0  0  0
 13 14  1  0  0  0
 13 31  1  0  0  0
 14 15  2  0  0  0
 14 99  1  0  0  0
 15100  1  0  0  0
 16 17  2  0  0  0
 16 21  1  0  0  0
 16 31  1  0  0  0
 17 18  1  0  0  0
 17101  1  0  0  0
 18 19  2  0  0  0
 18102  1  0  0  0
 19 20  1  0  0  0
 19 24  1  0  0  0
 20 21  2  0  0  0
 20103  1  0  0  0
 21 23  1  0  0  0
 22 28  1  0  0  0
 22 32  2  0  0  0
 26 27  1  0  0  0
 28104  1  0  0  0
 28105  1  0  0  0
 29106  1  0  0  0
 29107  1  0  0  0
 33 34  1  0  0  0
 33 66  1  0  0  0
 33 70  2  0  0  0
 34 36  1  0  0  0
 34 59  1  0  0  0
 34108  1  0  0  0
 35 44  2  0  0  0
 35 45  1  0  0  0
 35 68  1  0  0  0
 36 56  1  0  0  0
 36109  1  0  0  0
 37 39  1  0  0  0
 37 47  1  0  0  0
 37 66  1  0  0  0
 37110  1  0  0  0
 38 43  2  0  0  0
 38 46  1  0  0  0
 38 47  1  0  0  0
 39 64  1  0  0  0
 39 67  2  0  0  0
 40 52  1  0  0  0
 40 53  2  0  0  0
 40 58  1  0  0  0
 41111  1  0  0  0
 41112  1  0  0  0
 41113  1  0  0  0
 41 48  1  0  0  0
 42 43  1  0  0  0
 42 66  1  0  0  0
 42114  1  0  0  0
 42115  1  0  0  0
 43 44  1  0  0  0
 44116  1  0  0  0
 45 46  2  0  0  0
 45117  1  0  0  0
 46118  1  0  0  0
 47119  1  0  0  0
 47120  1  0  0  0
 48 56  1  0  0  0
 48 65  1  0  0  0
 48121  1  0  0  0
 49 50  1  0  0  0
 49 53  1  0  0  0
 49 64  1  0  0  0
 49122  1  0  0  0
 50 51  1  0  0  0
 50123  1  0  0  0
 50124  1  0  0  0
 51 52  1  0  0  0
 51125  1  0  0  0
 51126  1  0  0  0
 52127  1  0  0  0
 52128  1  0  0  0
 53 54  1  0  0  0
 54 55  2  0  0  0
 54129  1  0  0  0
 55 57  1  0  0  0
 55130  1  0  0  0
 56 69  2  0  0  0
 57 58  2  0  0  0
 57131  1  0  0  0
 58132  1  0  0  0
 59 60  1  0  0  0
 59 61  1  0  0  0
 59 62  1  0  0  0
 60133  1  0  0  0
 60134  1  0  0  0
 60135  1  0  0  0
 61136  1  0  0  0
 61137  1  0  0  0
 61138  1  0  0  0
 62139  1  0  0  0
 62140  1  0  0  0
 62141  1  0  0  0
 63 65  1  0  0  0
 63142  1  0  0  0
 63143  1  0  0  0
 63144  1  0  0  0
 64145  1  0  0  0
 65146  1  0  0  0
 68 81  1  0  0  0
 71 72  2  0  0  0
 71 74  1  0  0  0
 71147  1  0  0  0
 72 76  1  0  0  0
 72148  1  0  0  0
 73 75  1  0  0  0
 73 76  2  0  0  0
 73149  1  0  0  0
 74 75  2  0  0  0
 74 82  1  0  0  0
 75 83  1  0  0  0
 76 87  1  0  0  0
 77 80  1  0  0  0
 77 81  1  0  0  0
 77 85  2  0  0  0
 78 82  1  0  0  0
 78 84  1  0  0  0
 78 86  2  0  0  0
 79150  1  0  0  0
 79151  1  0  0  0
 79152  1  0  0  0
 79 82  1  0  0  0
 80 83  1  0  0  0
 80153  1  0  0  0
 80154  1  0  0  0
 81155  1  0  0  0
 81156  1  0  0  0
 82157  1  0  0  0
 83158  1  0  0  0
 84159  1  0  0  0
M  ISO  4   1 100  68 101  81 101  84 100
M  END
> <chiral flag>
0

> <version>
0

> <s_m_source_file>
/data/baiqing/PycharmProjects/Reinvent-master-3.2/result/LINK_invent/BTK/process_docking_weight1_custom_product_contain_oxygen_bond_distance_aromatic_linkinvent_7_9_3/rearranged_h_0167.sdf

> <i_m_source_file_index>
8

> <r_mmod_Potential_Energy-OPLS-2005>
21424.91015625

> <r_mmod_Stretch_Energy-OPLS-2005>
12896.2724609375

> <r_mmod_Bend_Energy-OPLS-2005>
1679.94274902344

> <r_mmod_Torsional_Energy-OPLS-2005>
500.056457519531

> <r_mmod_Improper_Torsional_Energy-OPLS-2005>
83.5145874023438

> <r_mmod_Van_der_Waal_Energy-OPLS-2005>
4192.95751953125

> <r_mmod_Electrostatic_Energy-OPLS-2005>
-483.924255371094

> <r_mmod_Solvation_Energy-OPLS-2005>
-241.284866333008

> <b_mmod_Minimization_Converged-OPLS-2005>
0

> <r_mmod_RMS_Derivative-OPLS-2005>
5.10764122009277

$$$$
8
                    3D
 Structure written by MMmdl.
163171  0  0  1  0            999 V2000
  -30.6517  -14.5389   20.4712 C   0  0  0  0  0  0
  -30.4222  -12.3184   19.4354 C   0  0  0  0  0  0
  -29.4941  -12.4816   18.2115 C   0  0  0  0  0  0
  -28.0068  -12.3938   18.6104 C   0  0  0  0  0  0
  -27.6576  -13.2184   19.8796 C   0  0  2  0  0  0
  -28.7013  -13.0172   21.0013 C   0  0  0  0  0  0
  -25.2583  -13.8199   20.5750 C   0  0  0  0  0  0
  -24.1811  -13.0437   20.9128 C   0  0  0  0  0  0
  -24.6382  -11.6898   20.8702 C   0  0  0  0  0  0
  -23.9029  -10.4281   21.0384 C   0  0  0  0  0  0
  -24.3578   -9.4200   21.9143 C   0  0  0  0  0  0
  -23.6262   -8.2212   22.0739 C   0  0  0  0  0  0
  -22.4255   -8.0244   21.3522 C   0  0  0  0  0  0
  -21.9893   -9.0226   20.4618 C   0  0  0  0  0  0
  -22.7201  -10.2108   20.3008 C   0  0  0  0  0  0
  -21.6822   -6.0719   22.5264 C   0  0  0  0  0  0
  -21.4002   -6.5628   23.8200 C   0  0  0  0  0  0
  -21.3675   -5.6791   24.9167 C   0  0  0  0  0  0
  -21.6035   -4.3050   24.7235 C   0  0  0  0  0  0
  -21.8828   -3.8135   23.4354 C   0  0  0  0  0  0
  -21.9188   -4.6941   22.3404 C   0  0  0  0  0  0
  -22.7840  -13.5210   21.1819 C   0  0  0  0  0  0
  -22.1703   -4.2110   21.0993 F   0  0  0  0  0  0
  -21.5633   -3.4544   25.7757 F   0  0  0  0  0  0
  -30.0214  -13.3272   20.4337 N   0  0  0  0  0  0
  -26.3000  -12.9376   20.3399 N   0  0  0  0  0  0
  -25.9309  -11.6514   20.5696 N   0  0  0  0  0  0
  -22.0501  -12.8195   22.0361 N   0  0  0  0  0  0
  -25.4387  -15.1915   20.4323 N   0  0  0  0  0  0
  -31.8136  -14.6880   20.0828 O   0  0  0  0  0  0
  -21.6616   -6.8836   21.4201 O   0  0  0  0  0  0
  -22.3529  -14.5552   20.6728 O   0  0  0  0  0  0
  -24.6180  -31.8630   23.2034 C   0  0  0  0  0  0
  -25.9045  -32.4793   23.8363 C   0  0  1  0  0  0
  -27.2425  -27.4104   20.0666 C   0  0  0  0  0  0
  -25.5912  -33.8608   24.2317 N   0  0  0  0  0  0
  -23.4084  -30.4789   21.5470 C   0  0  2  0  0  0
  -24.8580  -28.9481   20.1160 C   0  0  0  0  0  0
  -22.7446  -29.4576   22.4979 C   0  0  0  0  0  0
  -18.0289  -28.1404   22.8481 C   0  0  0  0  0  0
  -24.1507  -36.7316   23.2634 C   0  0  0  0  0  0
  -25.9406  -30.8214   21.3574 C   0  0  0  0  0  0
  -26.0225  -29.4542   20.7060 C   0  0  0  0  0  0
  -27.2216  -28.6951   20.6697 C   0  0  0  0  0  0
  -26.0480  -26.9257   19.4953 C   0  0  0  0  0  0
  -24.8674  -27.6830   19.5096 C   0  0  0  0  0  0
  -23.6181  -29.8090   20.1641 C   0  0  0  0  0  0
  -25.4133  -36.3113   24.0324 C   0  0  1  0  0  0
  -20.5866  -28.3670   23.1309 C   0  0  2  0  0  0
  -20.6774  -26.9388   22.5422 C   0  0  0  0  0  0
  -19.5756  -26.6368   21.5227 C   0  0  0  0  0  0
  -18.1932  -26.7947   22.1613 C   0  0  0  0  0  0
  -19.1523  -28.8862   23.2887 C   0  0  0  0  0  0
  -18.9462  -30.1483   23.8892 C   0  0  0  0  0  0
  -17.6452  -30.6608   24.0544 C   0  0  0  0  0  0
  -25.9080  -34.9463   23.5146 C   0  0  0  0  0  0
  -16.5354  -29.9095   23.6320 C   0  0  0  0  0  0
  -16.7263  -28.6507   23.0343 C   0  0  0  0  0  0
  -26.4456  -31.6554   25.0668 C   0  0  0  0  0  0
  -25.3712  -31.3640   26.1401 C   0  0  0  0  0  0
  -27.0269  -30.2986   24.6017 C   0  0  0  0  0  0
  -27.6072  -32.4205   25.7482 C   0  0  0  0  0  0
  -27.5595  -37.1806   24.8444 C   0  0  0  0  0  0
  -21.4181  -29.2989   22.3701 N   0  0  0  0  0  0
  -26.4297  -37.3800   23.9419 N   0  0  0  0  0  0
  -24.6754  -31.0663   22.0966 N   0  0  0  0  0  0
  -23.4180  -28.8155   23.3070 O   0  0  0  0  0  0
  -28.4213  -26.6780   20.0142 O   0  0  0  0  0  0
  -26.5624  -34.8893   22.4703 O   0  0  0  0  0  0
  -23.5350  -32.1392   23.7408 O   0  0  0  0  0  0
  -29.7003  -16.5845   18.4770 C   0  0  0  0  0  0
  -29.4040  -18.0836   20.3769 C   0  0  0  0  0  0
  -29.4140  -17.6487   17.5968 C   0  0  0  0  0  0
  -29.6907  -16.7679   19.8818 C   0  0  0  0  0  0
  -29.1595  -19.1857   19.4960 C   0  0  0  0  0  0
  -29.1256  -18.9281   18.1053 C   0  0  0  0  0  0
  -27.9960  -22.7567   19.5729 C   0  0  0  0  0  0
  -29.1048  -21.7040   19.4083 C   0  0  0  0  0  0
  -30.7043  -17.9190   15.4426 C   0  0  0  0  0  0
  -27.5967  -24.9866   21.6002 C   0  0  0  0  0  0
  -29.4090  -17.4221   16.0931 C   0  0  0  0  0  0
  -28.2293  -24.2388   19.1630 C   0  0  0  0  0  0
  -28.4388  -25.2594   20.3410 C   0  0  1  0  0  0
  -26.8346  -22.4365   19.9809 N   0  0  0  0  0  0
  -28.8146  -20.5016   19.9809 N   0  0  0  0  0  0
  -29.8771  -15.6237   20.7516 N   0  0  0  0  0  0
  -30.1660  -21.9584   18.8280 O   0  0  0  0  0  0
  -28.7635  -19.9034   17.2390 F   0  0  0  0  0  0
  -31.4666  -12.4204   19.1335 H   0  0  0  0  0  0
  -30.3319  -11.3122   19.8489 H   0  0  0  0  0  0
  -29.7241  -11.7222   17.4618 H   0  0  0  0  0  0
  -29.6858  -13.4390   17.7207 H   0  0  0  0  0  0
  -27.7560  -11.3409   18.7620 H   0  0  0  0  0  0
  -27.3837  -12.7243   17.7800 H   0  0  0  0  0  0
  -27.6943  -14.2657   19.5835 H   0  0  0  0  0  0
  -28.6744  -11.9869   21.3551 H   0  0  0  0  0  0
  -28.4761  -13.6400   21.8699 H   0  0  0  0  0  0
  -25.2716   -9.5704   22.4732 H   0  0  0  0  0  0
  -23.9975   -7.4604   22.7484 H   0  0  0  0  0  0
  -21.0860   -8.8735   19.8902 H   0  0  0  0  0  0
  -22.3641  -10.9668   19.6149 H   0  0  0  0  0  0
  -21.1968   -7.6125   23.9703 H   0  0  0  0  0  0
  -21.1537   -6.0525   25.9091 H   0  0  0  0  0  0
  -22.0587   -2.7575   23.2882 H   0  0  0  0  0  0
  -22.4196  -11.9883   22.4757 H   0  0  0  0  0  0
  -21.1114  -13.1196   22.2584 H   0  0  0  0  0  0
  -24.6885  -15.8639   20.5510 H   0  0  0  0  0  0
  -26.3258  -15.6252   20.2250 H   0  0  0  0  0  0
  -26.7123  -32.5514   23.1138 H   0  0  0  0  0  0
  -24.9995  -33.9774   25.0392 H   0  0  0  0  0  0
  -22.6976  -31.2938   21.3994 H   0  0  0  0  0  0
  -23.3786  -35.9638   23.3284 H   0  0  0  0  0  0
  -24.3578  -36.8963   22.2048 H   0  0  0  0  0  0
  -23.7223  -37.6495   23.6669 H   0  0  0  0  0  0
  -26.0385  -31.5822   20.5816 H   0  0  0  0  0  0
  -26.8360  -30.8912   21.9640 H   0  0  0  0  0  0
  -28.1239  -29.0863   21.1200 H   0  0  0  0  0  0
  -26.0012  -25.9648   19.0150 H   0  0  0  0  0  0
  -23.9760  -27.2768   19.0535 H   0  0  0  0  0  0
  -23.7243  -30.5752   19.3944 H   0  0  0  0  0  0
  -22.7507  -29.2105   19.8700 H   0  0  0  0  0  0
  -25.1305  -36.2002   25.0811 H   0  0  0  0  0  0
  -20.9959  -28.3273   24.1427 H   0  0  0  0  0  0
  -20.5743  -26.2264   23.3613 H   0  0  0  0  0  0
  -21.6646  -26.7462   22.1197 H   0  0  0  0  0  0
  -19.6919  -25.6283   21.1273 H   0  0  0  0  0  0
  -19.6738  -27.3168   20.6765 H   0  0  0  0  0  0
  -17.4211  -26.6716   21.4001 H   0  0  0  0  0  0
  -18.0300  -26.0105   22.9032 H   0  0  0  0  0  0
  -19.7938  -30.7299   24.2261 H   0  0  0  0  0  0
  -17.5010  -31.6293   24.5172 H   0  0  0  0  0  0
  -15.5362  -30.3002   23.7655 H   0  0  0  0  0  0
  -15.8660  -28.0839   22.7047 H   0  0  0  0  0  0
  -24.5842  -30.7081   25.7657 H   0  0  0  0  0  0
  -24.8934  -32.2796   26.4898 H   0  0  0  0  0  0
  -25.7998  -30.8680   27.0124 H   0  0  0  0  0  0
  -26.2790  -29.6770   24.1058 H   0  0  0  0  0  0
  -27.4051  -29.7161   25.4447 H   0  0  0  0  0  0
  -27.8635  -30.4313   23.9144 H   0  0  0  0  0  0
  -27.2711  -33.3441   26.2213 H   0  0  0  0  0  0
  -28.3822  -32.6866   25.0276 H   0  0  0  0  0  0
  -28.0811  -31.8200   26.5256 H   0  0  0  0  0  0
  -28.2586  -38.0130   24.7558 H   0  0  0  0  0  0
  -28.1126  -36.2666   24.6231 H   0  0  0  0  0  0
  -27.2296  -37.1391   25.8831 H   0  0  0  0  0  0
  -20.9416  -29.8585   21.6765 H   0  0  0  0  0  0
  -26.0200  -38.2882   24.1466 H   0  0  0  0  0  0
  -29.8886  -15.6116   18.0496 H   0  0  0  0  0  0
  -29.3706  -18.2498   21.4411 H   0  0  0  0  0  0
  -30.9793  -18.8971   15.8347 H   0  0  0  0  0  0
  -30.5796  -18.0196   14.3623 H   0  0  0  0  0  0
  -31.5382  -17.2435   15.6238 H   0  0  0  0  0  0
  -27.8236  -24.0088   22.0197 H   0  0  0  0  0  0
  -26.5291  -24.9971   21.3738 H   0  0  0  0  0  0
  -27.8029  -25.7197   22.3799 H   0  0  0  0  0  0
  -28.5500  -17.9326   15.6571 H   0  0  0  0  0  0
  -29.2580  -16.3665   15.8666 H   0  0  0  0  0  0
  -27.3697  -24.5239   18.5586 H   0  0  0  0  0  0
  -29.0662  -24.3164   18.4685 H   0  0  0  0  0  0
  -29.4727  -25.0956   20.6514 H   0  0  0  0  0  0
  -26.7644  -21.4429   20.1726 H   0  0  0  0  0  0
  -28.1309  -20.5446   20.7217 H   0  0  0  0  0  0
  -29.1265  -15.4524   21.4042 H   0  0  0  0  0  0
  1 25  1  0  0  0
  1 30  2  0  0  0
  1 86  1  0  0  0
  2  3  1  0  0  0
  2 25  1  0  0  0
  2 89  1  0  0  0
  2 90  1  0  0  0
  3  4  1  0  0  0
  3 91  1  0  0  0
  3 92  1  0  0  0
  4  5  1  0  0  0
  4 93  1  0  0  0
  4 94  1  0  0  0
  5  6  1  0  0  0
  5 26  1  0  0  0
  5 95  1  0  0  0
  6 25  1  0  0  0
  6 96  1  0  0  0
  6 97  1  0  0  0
  7  8  2  0  0  0
  7 26  1  0  0  0
  7 29  1  0  0  0
  8  9  1  0  0  0
  8 22  1  0  0  0
  9 10  1  0  0  0
  9 27  2  0  0  0
 10 11  2  0  0  0
 10 15  1  0  0  0
 11 12  1  0  0  0
 11 98  1  0  0  0
 12 13  2  0  0  0
 12 99  1  0  0  0
 13 14  1  0  0  0
 13 31  1  0  0  0
 14 15  2  0  0  0
 14100  1  0  0  0
 15101  1  0  0  0
 16 17  2  0  0  0
 16 21  1  0  0  0
 16 31  1  0  0  0
 17 18  1  0  0  0
 17102  1  0  0  0
 18 19  2  0  0  0
 18103  1  0  0  0
 19 20  1  0  0  0
 19 24  1  0  0  0
 20 21  2  0  0  0
 20104  1  0  0  0
 21 23  1  0  0  0
 22 28  1  0  0  0
 22 32  2  0  0  0
 26 27  1  0  0  0
 28105  1  0  0  0
 28106  1  0  0  0
 29107  1  0  0  0
 29108  1  0  0  0
 33 34  1  0  0  0
 33 66  1  0  0  0
 33 70  2  0  0  0
 34 36  1  0  0  0
 34 59  1  0  0  0
 34109  1  0  0  0
 35 44  2  0  0  0
 35 45  1  0  0  0
 35 68  1  0  0  0
 36 56  1  0  0  0
 36110  1  0  0  0
 37 39  1  0  0  0
 37 47  1  0  0  0
 37 66  1  0  0  0
 37111  1  0  0  0
 38 43  2  0  0  0
 38 46  1  0  0  0
 38 47  1  0  0  0
 39 64  1  0  0  0
 39 67  2  0  0  0
 40 52  1  0  0  0
 40 53  2  0  0  0
 40 58  1  0  0  0
 41112  1  0  0  0
 41113  1  0  0  0
 41114  1  0  0  0
 41 48  1  0  0  0
 42 43  1  0  0  0
 42 66  1  0  0  0
 42115  1  0  0  0
 42116  1  0  0  0
 43 44  1  0  0  0
 44117  1  0  0  0
 45 46  2  0  0  0
 45118  1  0  0  0
 46119  1  0  0  0
 47120  1  0  0  0
 47121  1  0  0  0
 48 56  1  0  0  0
 48 65  1  0  0  0
 48122  1  0  0  0
 49 50  1  0  0  0
 49 53  1  0  0  0
 49 64  1  0  0  0
 49123  1  0  0  0
 50 51  1  0  0  0
 50124  1  0  0  0
 50125  1  0  0  0
 51 52  1  0  0  0
 51126  1  0  0  0
 51127  1  0  0  0
 52128  1  0  0  0
 52129  1  0  0  0
 53 54  1  0  0  0
 54 55  2  0  0  0
 54130  1  0  0  0
 55 57  1  0  0  0
 55131  1  0  0  0
 56 69  2  0  0  0
 57 58  2  0  0  0
 57132  1  0  0  0
 58133  1  0  0  0
 59 60  1  0  0  0
 59 61  1  0  0  0
 59 62  1  0  0  0
 60134  1  0  0  0
 60135  1  0  0  0
 60136  1  0  0  0
 61137  1  0  0  0
 61138  1  0  0  0
 61139  1  0  0  0
 62140  1  0  0  0
 62141  1  0  0  0
 62142  1  0  0  0
 63 65  1  0  0  0
 63143  1  0  0  0
 63144  1  0  0  0
 63145  1  0  0  0
 64146  1  0  0  0
 65147  1  0  0  0
 68 83  1  0  0  0
 71 73  2  0  0  0
 71 74  1  0  0  0
 71148  1  0  0  0
 72 74  2  0  0  0
 72 75  1  0  0  0
 72149  1  0  0  0
 73 76  1  0  0  0
 73 81  1  0  0  0
 74 86  1  0  0  0
 75 76  2  0  0  0
 75 85  1  0  0  0
 76 88  1  0  0  0
 77 78  1  0  0  0
 77 82  1  0  0  0
 77 84  2  0  0  0
 78 85  1  0  0  0
 78 87  2  0  0  0
 79 81  1  0  0  0
 79150  1  0  0  0
 79151  1  0  0  0
 79152  1  0  0  0
 80153  1  0  0  0
 80154  1  0  0  0
 80155  1  0  0  0
 80 83  1  0  0  0
 81156  1  0  0  0
 81157  1  0  0  0
 82 83  1  0  0  0
 82158  1  0  0  0
 82159  1  0  0  0
 83160  1  0  0  0
 84161  1  0  0  0
 85162  1  0  0  0
 86163  1  0  0  0
M  ISO  4   1 100  68 101  83 101  86 100
M  END
> <chiral flag>
0

> <version>
0

> <s_m_source_file>
/data/baiqing/PycharmProjects/Reinvent-master-3.2/result/LINK_invent/BTK/process_docking_weight1_custom_product_contain_oxygen_bond_distance_aromatic_linkinvent_7_9_3/rearranged_h_0167.sdf

> <i_m_source_file_index>
9

> <r_mmod_Potential_Energy-OPLS-2005>
44.6237945556641

> <r_mmod_Stretch_Energy-OPLS-2005>
58.137809753418

> <r_mmod_Bend_Energy-OPLS-2005>
120.565605163574

> <r_mmod_Torsional_Energy-OPLS-2005>
302.896911621094

> <r_mmod_Improper_Torsional_Energy-OPLS-2005>
7.85620403289795

> <r_mmod_Van_der_Waal_Energy-OPLS-2005>
158.142196655273

> <r_mmod_Electrostatic_Energy-OPLS-2005>
-384.394470214844

> <r_mmod_Solvation_Energy-OPLS-2005>
-239.287536621094

> <b_mmod_Minimization_Converged-OPLS-2005>
0

> <r_mmod_RMS_Derivative-OPLS-2005>
7.42391777038574

$$$$
9
                    3D
 Structure written by MMmdl.
152160  0  0  1  0            999 V2000
  -30.6797  -14.4790   20.5483 C   0  0  0  0  0  0
  -30.4256  -12.3043   19.4238 C   0  0  0  0  0  0
  -29.4985  -12.5049   18.2056 C   0  0  0  0  0  0
  -28.0164  -12.3690   18.6127 C   0  0  0  0  0  0
  -27.6612  -13.2039   19.8724 C   0  0  2  0  0  0
  -28.7024  -12.9812   20.9940 C   0  0  0  0  0  0
  -25.2587  -13.8148   20.5654 C   0  0  0  0  0  0
  -24.1840  -13.0435   20.9177 C   0  0  0  0  0  0
  -24.6381  -11.6898   20.8726 C   0  0  0  0  0  0
  -23.9039  -10.4290   21.0404 C   0  0  0  0  0  0
  -24.3598   -9.4210   21.9179 C   0  0  0  0  0  0
  -23.6276   -8.2248   22.0755 C   0  0  0  0  0  0
  -22.4260   -8.0282   21.3545 C   0  0  0  0  0  0
  -21.9889   -9.0254   20.4652 C   0  0  0  0  0  0
  -22.7212  -10.2133   20.3056 C   0  0  0  0  0  0
  -21.6855   -6.0725   22.5276 C   0  0  0  0  0  0
  -21.4017   -6.5634   23.8210 C   0  0  0  0  0  0
  -21.3658   -5.6786   24.9173 C   0  0  0  0  0  0
  -21.6048   -4.3052   24.7224 C   0  0  0  0  0  0
  -21.8816   -3.8140   23.4348 C   0  0  0  0  0  0
  -21.9197   -4.6953   22.3400 C   0  0  0  0  0  0
  -22.7862  -13.5245   21.1828 C   0  0  0  0  0  0
  -22.1662   -4.2141   21.0978 F   0  0  0  0  0  0
  -21.5625   -3.4535   25.7736 F   0  0  0  0  0  0
  -30.0350  -13.2862   20.4455 N   0  0  0  0  0  0
  -26.3015  -12.9310   20.3326 N   0  0  0  0  0  0
  -25.9307  -11.6474   20.5738 N   0  0  0  0  0  0
  -22.0489  -12.8261   22.0400 N   0  0  0  0  0  0
  -25.4310  -15.1858   20.4009 N   0  0  0  0  0  0
  -31.8158  -14.6678   20.1072 O   0  0  0  0  0  0
  -21.6636   -6.8869   21.4236 O   0  0  0  0  0  0
  -22.3567  -14.5565   20.6681 O   0  0  0  0  0  0
  -24.6131  -31.8685   23.2105 C   0  0  0  0  0  0
  -25.9027  -32.4824   23.8403 C   0  0  1  0  0  0
  -27.2393  -27.4378   20.0800 C   0  0  0  0  0  0
  -25.5880  -33.8625   24.2335 N   0  0  0  0  0  0
  -23.4003  -30.4904   21.5521 C   0  0  2  0  0  0
  -24.8444  -28.9542   20.1151 C   0  0  0  0  0  0
  -22.7402  -29.4654   22.5014 C   0  0  0  0  0  0
  -18.0263  -28.1367   22.8487 C   0  0  0  0  0  0
  -24.1487  -36.7325   23.2642 C   0  0  0  0  0  0
  -25.9281  -30.8317   21.3632 C   0  0  0  0  0  0
  -26.0028  -29.4654   20.7105 C   0  0  0  0  0  0
  -27.1970  -28.7102   20.6969 C   0  0  0  0  0  0
  -26.0539  -26.9323   19.4967 C   0  0  0  0  0  0
  -24.8639  -27.6850   19.5100 C   0  0  0  0  0  0
  -23.6060  -29.8209   20.1665 C   0  0  0  0  0  0
  -25.4108  -36.3121   24.0342 C   0  0  1  0  0  0
  -20.5851  -28.3647   23.1324 C   0  0  2  0  0  0
  -20.6749  -26.9384   22.5417 C   0  0  0  0  0  0
  -19.5733  -26.6374   21.5206 C   0  0  0  0  0  0
  -18.1910  -26.7914   22.1617 C   0  0  0  0  0  0
  -19.1513  -28.8823   23.2904 C   0  0  0  0  0  0
  -18.9443  -30.1431   23.8913 C   0  0  0  0  0  0
  -17.6445  -30.6579   24.0554 C   0  0  0  0  0  0
  -25.9026  -34.9479   23.5140 C   0  0  0  0  0  0
  -16.5337  -29.9075   23.6324 C   0  0  0  0  0  0
  -16.7253  -28.6489   23.0352 C   0  0  0  0  0  0
  -26.4461  -31.6597   25.0727 C   0  0  0  0  0  0
  -25.3736  -31.3697   26.1489 C   0  0  0  0  0  0
  -27.0282  -30.3042   24.6084 C   0  0  0  0  0  0
  -27.6050  -32.4312   25.7474 C   0  0  0  0  0  0
  -27.5575  -37.1833   24.8478 C   0  0  0  0  0  0
  -21.4132  -29.3024   22.3749 N   0  0  0  0  0  0
  -26.4308  -37.3786   23.9386 N   0  0  0  0  0  0
  -24.6657  -31.0779   22.1002 N   0  0  0  0  0  0
  -23.4181  -28.8190   23.3047 O   0  0  0  0  0  0
  -28.4334  -26.7432   20.0963 O   0  0  0  0  0  0
  -26.5587  -34.8921   22.4701 O   0  0  0  0  0  0
  -23.5327  -32.1432   23.7507 O   0  0  0  0  0  0
  -28.9382  -17.6823   20.4800 C   0  0  0  0  0  0
  -31.3321  -17.5289   20.6887 C   0  0  0  0  0  0
  -30.0766  -16.8858   20.7295 C   0  0  0  0  0  0
  -29.0870  -19.0490   20.1589 C   0  0  0  0  0  0
  -30.3931  -19.5991   20.1188 C   0  0  0  0  0  0
  -30.6611  -21.0238   19.6568 C   0  0  0  0  0  0
  -28.7591  -24.3019   19.8529 C   0  0  0  0  0  0
  -29.8226  -23.3318   19.3084 C   0  0  0  0  0  0
  -28.6724  -25.6779   19.1613 C   0  0  0  0  0  0
  -31.4857  -18.8373   20.3936 N   0  0  0  0  0  0
  -29.9197  -15.4901   21.0158 N   0  0  0  0  0  0
  -29.7006  -21.9528   19.8108 N   0  0  0  0  0  0
  -31.7612  -21.3205   19.1707 O   0  0  0  0  0  0
  -28.0139  -23.9878   20.7893 O   0  0  0  0  0  0
  -27.9888  -19.7919   19.8721 F   0  0  0  0  0  0
  -31.4714  -12.4013   19.1263 H   0  0  0  0  0  0
  -30.3239  -11.2926   19.8185 H   0  0  0  0  0  0
  -29.7391  -11.7809   17.4256 H   0  0  0  0  0  0
  -29.6710  -13.4904   17.7693 H   0  0  0  0  0  0
  -27.8204  -11.3128   18.8005 H   0  0  0  0  0  0
  -27.3720  -12.6528   17.7799 H   0  0  0  0  0  0
  -27.7047  -14.2514   19.5751 H   0  0  0  0  0  0
  -28.6758  -11.9447   21.3332 H   0  0  0  0  0  0
  -28.4632  -13.5798   21.8745 H   0  0  0  0  0  0
  -25.2740   -9.5698   22.4752 H   0  0  0  0  0  0
  -23.9994   -7.4639   22.7478 H   0  0  0  0  0  0
  -21.0820   -8.8767   19.8966 H   0  0  0  0  0  0
  -22.3663  -10.9667   19.6170 H   0  0  0  0  0  0
  -21.2017   -7.6142   23.9707 H   0  0  0  0  0  0
  -21.1481   -6.0520   25.9073 H   0  0  0  0  0  0
  -22.0603   -2.7604   23.2847 H   0  0  0  0  0  0
  -22.4088  -11.9911   22.4794 H   0  0  0  0  0  0
  -21.1116  -13.1335   22.2605 H   0  0  0  0  0  0
  -24.6553  -15.8342   20.4792 H   0  0  0  0  0  0
  -26.2626  -15.6084   20.0112 H   0  0  0  0  0  0
  -26.7087  -32.5529   23.1162 H   0  0  0  0  0  0
  -25.0052  -33.9791   25.0490 H   0  0  0  0  0  0
  -22.6873  -31.3067   21.4150 H   0  0  0  0  0  0
  -23.3722  -35.9694   23.3383 H   0  0  0  0  0  0
  -24.3566  -36.8853   22.2042 H   0  0  0  0  0  0
  -23.7288  -37.6574   23.6600 H   0  0  0  0  0  0
  -26.0402  -31.5978   20.5952 H   0  0  0  0  0  0
  -26.8161  -30.8851   21.9814 H   0  0  0  0  0  0
  -28.0938  -29.1043   21.1535 H   0  0  0  0  0  0
  -26.0209  -25.9523   19.0457 H   0  0  0  0  0  0
  -23.9678  -27.2813   19.0593 H   0  0  0  0  0  0
  -23.7096  -30.5950   19.4046 H   0  0  0  0  0  0
  -22.7295  -29.2391   19.8766 H   0  0  0  0  0  0
  -25.1294  -36.2011   25.0837 H   0  0  0  0  0  0
  -20.9936  -28.3206   24.1449 H   0  0  0  0  0  0
  -20.5633  -26.2258   23.3601 H   0  0  0  0  0  0
  -21.6627  -26.7423   22.1229 H   0  0  0  0  0  0
  -19.6895  -25.6288   21.1229 H   0  0  0  0  0  0
  -19.6675  -27.3188   20.6735 H   0  0  0  0  0  0
  -17.4184  -26.6668   21.4012 H   0  0  0  0  0  0
  -18.0306  -26.0047   22.9002 H   0  0  0  0  0  0
  -19.7923  -30.7238   24.2293 H   0  0  0  0  0  0
  -17.5004  -31.6263   24.5150 H   0  0  0  0  0  0
  -15.5338  -30.2981   23.7636 H   0  0  0  0  0  0
  -15.8652  -28.0803   22.7073 H   0  0  0  0  0  0
  -24.5907  -30.7041   25.7839 H   0  0  0  0  0  0
  -24.8925  -32.2844   26.4959 H   0  0  0  0  0  0
  -25.8105  -30.8862   27.0236 H   0  0  0  0  0  0
  -26.2812  -29.6814   24.1150 H   0  0  0  0  0  0
  -27.4071  -29.7271   25.4526 H   0  0  0  0  0  0
  -27.8638  -30.4372   23.9213 H   0  0  0  0  0  0
  -27.2685  -33.3608   26.2079 H   0  0  0  0  0  0
  -28.3832  -32.6879   25.0275 H   0  0  0  0  0  0
  -28.0744  -31.8418   26.5359 H   0  0  0  0  0  0
  -28.2668  -38.0050   24.7419 H   0  0  0  0  0  0
  -28.0990  -36.2584   24.6447 H   0  0  0  0  0  0
  -27.2278  -37.1668   25.8877 H   0  0  0  0  0  0
  -20.9286  -29.8763   21.6990 H   0  0  0  0  0  0
  -26.0218  -38.2890   24.1299 H   0  0  0  0  0  0
  -27.9503  -17.2474   20.5023 H   0  0  0  0  0  0
  -32.2470  -16.9980   20.9020 H   0  0  0  0  0  0
  -30.7985  -23.7433   19.5700 H   0  0  0  0  0  0
  -29.7616  -23.3207   18.2203 H   0  0  0  0  0  0
  -27.9480  -25.6460   18.3492 H   0  0  0  0  0  0
  -29.6345  -25.8743   18.6900 H   0  0  0  0  0  0
  -29.0054  -15.1977   21.3266 H   0  0  0  0  0  0
  -28.8174  -21.6614   20.2113 H   0  0  0  0  0  0
  1 25  1  0  0  0
  1 30  2  0  0  0
  1 81  1  0  0  0
  2  3  1  0  0  0
  2 25  1  0  0  0
  2 86  1  0  0  0
  2 87  1  0  0  0
  3  4  1  0  0  0
  3 88  1  0  0  0
  3 89  1  0  0  0
  4  5  1  0  0  0
  4 90  1  0  0  0
  4 91  1  0  0  0
  5  6  1  0  0  0
  5 26  1  0  0  0
  5 92  1  0  0  0
  6 25  1  0  0  0
  6 93  1  0  0  0
  6 94  1  0  0  0
  7  8  2  0  0  0
  7 26  1  0  0  0
  7 29  1  0  0  0
  8  9  1  0  0  0
  8 22  1  0  0  0
  9 10  1  0  0  0
  9 27  2  0  0  0
 10 11  2  0  0  0
 10 15  1  0  0  0
 11 12  1  0  0  0
 11 95  1  0  0  0
 12 13  2  0  0  0
 12 96  1  0  0  0
 13 14  1  0  0  0
 13 31  1  0  0  0
 14 15  2  0  0  0
 14 97  1  0  0  0
 15 98  1  0  0  0
 16 17  2  0  0  0
 16 21  1  0  0  0
 16 31  1  0  0  0
 17 18  1  0  0  0
 17 99  1  0  0  0
 18 19  2  0  0  0
 18100  1  0  0  0
 19 20  1  0  0  0
 19 24  1  0  0  0
 20 21  2  0  0  0
 20101  1  0  0  0
 21 23  1  0  0  0
 22 28  1  0  0  0
 22 32  2  0  0  0
 26 27  1  0  0  0
 28102  1  0  0  0
 28103  1  0  0  0
 29104  1  0  0  0
 29105  1  0  0  0
 33 34  1  0  0  0
 33 66  1  0  0  0
 33 70  2  0  0  0
 34 36  1  0  0  0
 34 59  1  0  0  0
 34106  1  0  0  0
 35 44  2  0  0  0
 35 45  1  0  0  0
 35 68  1  0  0  0
 36 56  1  0  0  0
 36107  1  0  0  0
 37 39  1  0  0  0
 37 47  1  0  0  0
 37 66  1  0  0  0
 37108  1  0  0  0
 38 43  2  0  0  0
 38 46  1  0  0  0
 38 47  1  0  0  0
 39 64  1  0  0  0
 39 67  2  0  0  0
 40 52  1  0  0  0
 40 53  2  0  0  0
 40 58  1  0  0  0
 41109  1  0  0  0
 41110  1  0  0  0
 41111  1  0  0  0
 41 48  1  0  0  0
 42 43  1  0  0  0
 42 66  1  0  0  0
 42112  1  0  0  0
 42113  1  0  0  0
 43 44  1  0  0  0
 44114  1  0  0  0
 45 46  2  0  0  0
 45115  1  0  0  0
 46116  1  0  0  0
 47117  1  0  0  0
 47118  1  0  0  0
 48 56  1  0  0  0
 48 65  1  0  0  0
 48119  1  0  0  0
 49 50  1  0  0  0
 49 53  1  0  0  0
 49 64  1  0  0  0
 49120  1  0  0  0
 50 51  1  0  0  0
 50121  1  0  0  0
 50122  1  0  0  0
 51 52  1  0  0  0
 51123  1  0  0  0
 51124  1  0  0  0
 52125  1  0  0  0
 52126  1  0  0  0
 53 54  1  0  0  0
 54 55  2  0  0  0
 54127  1  0  0  0
 55 57  1  0  0  0
 55128  1  0  0  0
 56 69  2  0  0  0
 57 58  2  0  0  0
 57129  1  0  0  0
 58130  1  0  0  0
 59 60  1  0  0  0
 59 61  1  0  0  0
 59 62  1  0  0  0
 60131  1  0  0  0
 60132  1  0  0  0
 60133  1  0  0  0
 61134  1  0  0  0
 61135  1  0  0  0
 61136  1  0  0  0
 62137  1  0  0  0
 62138  1  0  0  0
 62139  1  0  0  0
 63 65  1  0  0  0
 63140  1  0  0  0
 63141  1  0  0  0
 63142  1  0  0  0
 64143  1  0  0  0
 65144  1  0  0  0
 68 79  1  0  0  0
 71 73  2  0  0  0
 71 74  1  0  0  0
 71145  1  0  0  0
 72 73  1  0  0  0
 72 80  2  0  0  0
 72146  1  0  0  0
 73 81  1  0  0  0
 74 75  2  0  0  0
 74 85  1  0  0  0
 75 76  1  0  0  0
 75 80  1  0  0  0
 76 82  1  0  0  0
 76 83  2  0  0  0
 77 78  1  0  0  0
 77 79  1  0  0  0
 77 84  2  0  0  0
 78 82  1  0  0  0
 78147  1  0  0  0
 78148  1  0  0  0
 79149  1  0  0  0
 79150  1  0  0  0
 81151  1  0  0  0
 82152  1  0  0  0
M  ISO  4   1 100  68 101  79 101  81 100
M  END
> <chiral flag>
0

> <version>
0

> <s_m_source_file>
/data/baiqing/PycharmProjects/Reinvent-master-3.2/result/LINK_invent/BTK/process_docking_weight1_custom_product_contain_oxygen_bond_distance_aromatic_linkinvent_7_9_3/rearranged_h_0167.sdf

> <i_m_source_file_index>
10

> <r_mmod_Potential_Energy-OPLS-2005>
-195.578948974609

> <r_mmod_Stretch_Energy-OPLS-2005>
39.0440979003906

> <r_mmod_Bend_Energy-OPLS-2005>
103.19669342041

> <r_mmod_Torsional_Energy-OPLS-2005>
228.037185668945

> <r_mmod_Improper_Torsional_Energy-OPLS-2005>
5.76430463790894

> <r_mmod_Van_der_Waal_Energy-OPLS-2005>
162.273651123047

> <r_mmod_Electrostatic_Energy-OPLS-2005>
-482.520965576172

> <r_mmod_Solvation_Energy-OPLS-2005>
-264.5126953125

> <b_mmod_Minimization_Converged-OPLS-2005>
0

> <r_mmod_RMS_Derivative-OPLS-2005>
1.99028980731964

$$$$
10
                    3D
 Structure written by MMmdl.
154162  0  0  1  0            999 V2000
  -30.5910  -14.7122   20.4827 C   0  0  0  0  0  0
  -30.4433  -12.4346   19.4652 C   0  0  0  0  0  0
  -29.5130  -12.5125   18.2328 C   0  0  0  0  0  0
  -28.0373  -12.3376   18.6440 C   0  0  0  0  0  0
  -27.6497  -13.2200   19.8596 C   0  0  2  0  0  0
  -28.6942  -13.1054   20.9930 C   0  0  0  0  0  0
  -25.2550  -13.8173   20.5685 C   0  0  0  0  0  0
  -24.1826  -13.0437   20.9208 C   0  0  0  0  0  0
  -24.6396  -11.6908   20.8748 C   0  0  0  0  0  0
  -23.9065  -10.4292   21.0409 C   0  0  0  0  0  0
  -24.3616   -9.4206   21.9186 C   0  0  0  0  0  0
  -23.6290   -8.2242   22.0754 C   0  0  0  0  0  0
  -22.4273   -8.0281   21.3544 C   0  0  0  0  0  0
  -21.9907   -9.0256   20.4648 C   0  0  0  0  0  0
  -22.7237  -10.2135   20.3059 C   0  0  0  0  0  0
  -21.6853   -6.0735   22.5278 C   0  0  0  0  0  0
  -21.4015   -6.5639   23.8211 C   0  0  0  0  0  0
  -21.3659   -5.6792   24.9173 C   0  0  0  0  0  0
  -21.6043   -4.3054   24.7224 C   0  0  0  0  0  0
  -21.8820   -3.8146   23.4346 C   0  0  0  0  0  0
  -21.9193   -4.6962   22.3401 C   0  0  0  0  0  0
  -22.7848  -13.5231   21.1863 C   0  0  0  0  0  0
  -22.1661   -4.2148   21.0979 F   0  0  0  0  0  0
  -21.5627   -3.4538   25.7737 F   0  0  0  0  0  0
  -30.0029  -13.4688   20.4275 N   0  0  0  0  0  0
  -26.2971  -12.9356   20.3296 N   0  0  0  0  0  0
  -25.9324  -11.6511   20.5754 N   0  0  0  0  0  0
  -22.0483  -12.8228   22.0417 N   0  0  0  0  0  0
  -25.4258  -15.1894   20.4074 N   0  0  0  0  0  0
  -31.7597  -14.8638   20.1105 O   0  0  0  0  0  0
  -21.6638   -6.8878   21.4240 O   0  0  0  0  0  0
  -22.3540  -14.5537   20.6704 O   0  0  0  0  0  0
  -24.6289  -31.8567   23.1997 C   0  0  0  0  0  0
  -25.9121  -32.4764   23.8340 C   0  0  1  0  0  0
  -27.2255  -27.2862   20.1297 C   0  0  0  0  0  0
  -25.5924  -33.8565   24.2264 N   0  0  0  0  0  0
  -23.4255  -30.4784   21.5423 C   0  0  2  0  0  0
  -24.8749  -28.9267   20.1121 C   0  0  0  0  0  0
  -22.7492  -29.4605   22.4920 C   0  0  0  0  0  0
  -18.0289  -28.1386   22.8484 C   0  0  0  0  0  0
  -24.1490  -36.7291   23.2640 C   0  0  0  0  0  0
  -25.9690  -30.7763   21.3774 C   0  0  0  0  0  0
  -26.0441  -29.3993   20.7231 C   0  0  0  0  0  0
  -27.2233  -28.5898   20.7241 C   0  0  0  0  0  0
  -26.0376  -26.8768   19.4858 C   0  0  0  0  0  0
  -24.8746  -27.6714   19.4837 C   0  0  0  0  0  0
  -23.6437  -29.8106   20.1588 C   0  0  0  0  0  0
  -25.4114  -36.3076   24.0327 C   0  0  1  0  0  0
  -20.5892  -28.3694   23.1274 C   0  0  2  0  0  0
  -20.6777  -26.9413   22.5409 C   0  0  0  0  0  0
  -19.5752  -26.6383   21.5213 C   0  0  0  0  0  0
  -18.1933  -26.7928   22.1625 C   0  0  0  0  0  0
  -19.1543  -28.8857   23.2874 C   0  0  0  0  0  0
  -18.9464  -30.1458   23.8893 C   0  0  0  0  0  0
  -17.6463  -30.6587   24.0562 C   0  0  0  0  0  0
  -25.9052  -34.9445   23.5098 C   0  0  0  0  0  0
  -16.5355  -29.9084   23.6329 C   0  0  0  0  0  0
  -16.7276  -28.6502   23.0352 C   0  0  0  0  0  0
  -26.4495  -31.6584   25.0722 C   0  0  0  0  0  0
  -25.3722  -31.3730   26.1445 C   0  0  0  0  0  0
  -27.0342  -30.3003   24.6199 C   0  0  0  0  0  0
  -27.6051  -32.4324   25.7494 C   0  0  0  0  0  0
  -27.5578  -37.1801   24.8463 C   0  0  0  0  0  0
  -21.4201  -29.3042   22.3664 N   0  0  0  0  0  0
  -26.4291  -37.3772   23.9406 N   0  0  0  0  0  0
  -24.6932  -31.0548   22.0965 N   0  0  0  0  0  0
  -23.4199  -28.8147   23.3017 O   0  0  0  0  0  0
  -28.3200  -26.3984   20.1504 O   0  0  0  0  0  0
  -26.5627  -34.8917   22.4669 O   0  0  0  0  0  0
  -23.5443  -32.1380   23.7303 O   0  0  0  0  0  0
  -28.6797  -17.9759   21.1242 C   0  0  0  0  0  0
  -30.6696  -19.3379   19.9772 C   0  0  0  0  0  0
  -29.8058  -17.2287   20.6591 C   0  0  0  0  0  0
  -29.5272  -20.0848   20.4366 C   0  0  0  0  0  0
  -28.0941  -25.0247   20.4495 C   0  0  0  0  0  0
  -28.9204  -23.9441   20.1950 C   0  0  0  0  0  0
  -28.5626  -22.5263   20.5736 C   0  0  0  0  0  0
  -31.7093  -20.0335   17.7694 C   0  0  0  0  0  0
  -31.8464  -20.0237   19.2972 C   0  0  0  0  0  0
  -28.5407  -19.3405   21.0197 N   0  0  0  0  0  0
  -30.7984  -17.9663   20.0787 N   0  0  0  0  0  0
  -29.4850  -21.5543   20.2478 N   0  0  0  0  0  0
  -29.7639  -15.7620   20.8264 N   0  0  0  0  0  0
  -27.5079  -22.2386   21.1442 O   0  0  0  0  0  0
  -30.0950  -24.1592   19.5841 O   0  0  0  0  0  0
  -31.4824  -12.5718   19.1614 H   0  0  0  0  0  0
  -30.3949  -11.4455   19.9234 H   0  0  0  0  0  0
  -29.7896  -11.7512   17.5022 H   0  0  0  0  0  0
  -29.6426  -13.4749   17.7349 H   0  0  0  0  0  0
  -27.8870  -11.2857   18.8902 H   0  0  0  0  0  0
  -27.3811  -12.5479   17.7986 H   0  0  0  0  0  0
  -27.6577  -14.2493   19.5013 H   0  0  0  0  0  0
  -28.7227  -12.0888   21.3882 H   0  0  0  0  0  0
  -28.4275  -13.7439   21.8364 H   0  0  0  0  0  0
  -25.2761   -9.5680   22.4760 H   0  0  0  0  0  0
  -23.9999   -7.4633   22.7473 H   0  0  0  0  0  0
  -21.0837   -8.8777   19.8955 H   0  0  0  0  0  0
  -22.3695  -10.9675   19.6169 H   0  0  0  0  0  0
  -21.2008   -7.6147   23.9714 H   0  0  0  0  0  0
  -21.1480   -6.0522   25.9076 H   0  0  0  0  0  0
  -22.0599   -2.7607   23.2847 H   0  0  0  0  0  0
  -22.4094  -11.9889   22.4812 H   0  0  0  0  0  0
  -21.1102  -13.1260   22.2617 H   0  0  0  0  0  0
  -24.6483  -15.8349   20.4973 H   0  0  0  0  0  0
  -26.2479  -15.6181   20.0037 H   0  0  0  0  0  0
  -26.7189  -32.5426   23.1086 H   0  0  0  0  0  0
  -25.0058  -33.9705   25.0400 H   0  0  0  0  0  0
  -22.7209  -31.2998   21.3959 H   0  0  0  0  0  0
  -23.3749  -35.9626   23.3302 H   0  0  0  0  0  0
  -24.3580  -36.8913   22.2054 H   0  0  0  0  0  0
  -23.7247  -37.6494   23.6664 H   0  0  0  0  0  0
  -26.1041  -31.5363   20.6065 H   0  0  0  0  0  0
  -26.8478  -30.8277   22.0084 H   0  0  0  0  0  0
  -28.1203  -28.9451   21.2116 H   0  0  0  0  0  0
  -25.9988  -25.9144   18.9954 H   0  0  0  0  0  0
  -23.9807  -27.3049   18.9980 H   0  0  0  0  0  0
  -23.7659  -30.5861   19.4017 H   0  0  0  0  0  0
  -22.7633  -29.2414   19.8552 H   0  0  0  0  0  0
  -25.1297  -36.1926   25.0820 H   0  0  0  0  0  0
  -20.9984  -28.3272   24.1395 H   0  0  0  0  0  0
  -20.5676  -26.2305   23.3613 H   0  0  0  0  0  0
  -21.6646  -26.7438   22.1205 H   0  0  0  0  0  0
  -19.6914  -25.6293   21.1245 H   0  0  0  0  0  0
  -19.6689  -27.3191   20.6741 H   0  0  0  0  0  0
  -17.4202  -26.6673   21.4029 H   0  0  0  0  0  0
  -18.0335  -26.0071   22.9023 H   0  0  0  0  0  0
  -19.7940  -30.7275   24.2262 H   0  0  0  0  0  0
  -17.5017  -31.6267   24.5163 H   0  0  0  0  0  0
  -15.5355  -30.2986   23.7654 H   0  0  0  0  0  0
  -15.8676  -28.0819   22.7069 H   0  0  0  0  0  0
  -24.5897  -30.7080   25.7773 H   0  0  0  0  0  0
  -24.8913  -32.2900   26.4864 H   0  0  0  0  0  0
  -25.8041  -30.8911   27.0225 H   0  0  0  0  0  0
  -26.2923  -29.6750   24.1217 H   0  0  0  0  0  0
  -27.4020  -29.7265   25.4715 H   0  0  0  0  0  0
  -27.8802  -30.4279   23.9442 H   0  0  0  0  0  0
  -27.2658  -33.3626   26.2064 H   0  0  0  0  0  0
  -28.3864  -32.6881   25.0325 H   0  0  0  0  0  0
  -28.0715  -31.8455   26.5417 H   0  0  0  0  0  0
  -28.2597  -38.0096   24.7507 H   0  0  0  0  0  0
  -28.1074  -36.2628   24.6293 H   0  0  0  0  0  0
  -27.2296  -37.1454   25.8866 H   0  0  0  0  0  0
  -20.9385  -29.8765   21.6870 H   0  0  0  0  0  0
  -26.0172  -38.2848   24.1402 H   0  0  0  0  0  0
  -27.8507  -17.4637   21.5912 H   0  0  0  0  0  0
  -27.1418  -24.8819   20.9447 H   0  0  0  0  0  0
  -32.5674  -20.5197   17.3050 H   0  0  0  0  0  0
  -30.8131  -20.5697   17.4560 H   0  0  0  0  0  0
  -31.6479  -19.0191   17.3739 H   0  0  0  0  0  0
  -32.7645  -19.5032   19.5733 H   0  0  0  0  0  0
  -31.9694  -21.0394   19.6727 H   0  0  0  0  0  0
  -30.2905  -21.9502   19.7838 H   0  0  0  0  0  0
  -28.8810  -15.4327   21.1828 H   0  0  0  0  0  0
  -30.1528  -25.0932   19.4243 H   0  0  0  0  0  0
  1 25  1  0  0  0
  1 30  2  0  0  0
  1 83  1  0  0  0
  2  3  1  0  0  0
  2 25  1  0  0  0
  2 86  1  0  0  0
  2 87  1  0  0  0
  3  4  1  0  0  0
  3 88  1  0  0  0
  3 89  1  0  0  0
  4  5  1  0  0  0
  4 90  1  0  0  0
  4 91  1  0  0  0
  5  6  1  0  0  0
  5 26  1  0  0  0
  5 92  1  0  0  0
  6 25  1  0  0  0
  6 93  1  0  0  0
  6 94  1  0  0  0
  7  8  2  0  0  0
  7 26  1  0  0  0
  7 29  1  0  0  0
  8  9  1  0  0  0
  8 22  1  0  0  0
  9 10  1  0  0  0
  9 27  2  0  0  0
 10 11  2  0  0  0
 10 15  1  0  0  0
 11 12  1  0  0  0
 11 95  1  0  0  0
 12 13  2  0  0  0
 12 96  1  0  0  0
 13 14  1  0  0  0
 13 31  1  0  0  0
 14 15  2  0  0  0
 14 97  1  0  0  0
 15 98  1  0  0  0
 16 17  2  0  0  0
 16 21  1  0  0  0
 16 31  1  0  0  0
 17 18  1  0  0  0
 17 99  1  0  0  0
 18 19  2  0  0  0
 18100  1  0  0  0
 19 20  1  0  0  0
 19 24  1  0  0  0
 20 21  2  0  0  0
 20101  1  0  0  0
 21 23  1  0  0  0
 22 28  1  0  0  0
 22 32  2  0  0  0
 26 27  1  0  0  0
 28102  1  0  0  0
 28103  1  0  0  0
 29104  1  0  0  0
 29105  1  0  0  0
 33 34  1  0  0  0
 33 66  1  0  0  0
 33 70  2  0  0  0
 34 36  1  0  0  0
 34 59  1  0  0  0
 34106  1  0  0  0
 35 44  2  0  0  0
 35 45  1  0  0  0
 35 68  1  0  0  0
 36 56  1  0  0  0
 36107  1  0  0  0
 37 39  1  0  0  0
 37 47  1  0  0  0
 37 66  1  0  0  0
 37108  1  0  0  0
 38 43  2  0  0  0
 38 46  1  0  0  0
 38 47  1  0  0  0
 39 64  1  0  0  0
 39 67  2  0  0  0
 40 52  1  0  0  0
 40 53  2  0  0  0
 40 58  1  0  0  0
 41109  1  0  0  0
 41110  1  0  0  0
 41111  1  0  0  0
 41 48  1  0  0  0
 42 43  1  0  0  0
 42 66  1  0  0  0
 42112  1  0  0  0
 42113  1  0  0  0
 43 44  1  0  0  0
 44114  1  0  0  0
 45 46  2  0  0  0
 45115  1  0  0  0
 46116  1  0  0  0
 47117  1  0  0  0
 47118  1  0  0  0
 48 56  1  0  0  0
 48 65  1  0  0  0
 48119  1  0  0  0
 49 50  1  0  0  0
 49 53  1  0  0  0
 49 64  1  0  0  0
 49120  1  0  0  0
 50 51  1  0  0  0
 50121  1  0  0  0
 50122  1  0  0  0
 51 52  1  0  0  0
 51123  1  0  0  0
 51124  1  0  0  0
 52125  1  0  0  0
 52126  1  0  0  0
 53 54  1  0  0  0
 54 55  2  0  0  0
 54127  1  0  0  0
 55 57  1  0  0  0
 55128  1  0  0  0
 56 69  2  0  0  0
 57 58  2  0  0  0
 57129  1  0  0  0
 58130  1  0  0  0
 59 60  1  0  0  0
 59 61  1  0  0  0
 59 62  1  0  0  0
 60131  1  0  0  0
 60132  1  0  0  0
 60133  1  0  0  0
 61134  1  0  0  0
 61135  1  0  0  0
 61136  1  0  0  0
 62137  1  0  0  0
 62138  1  0  0  0
 62139  1  0  0  0
 63 65  1  0  0  0
 63140  1  0  0  0
 63141  1  0  0  0
 63142  1  0  0  0
 64143  1  0  0  0
 65144  1  0  0  0
 68 75  1  0  0  0
 71 73  2  0  0  0
 71 80  1  0  0  0
 71145  1  0  0  0
 72 74  1  0  0  0
 72 79  1  0  0  0
 72 81  2  0  0  0
 73 81  1  0  0  0
 73 83  1  0  0  0
 74 80  2  0  0  0
 74 82  1  0  0  0
 75 76  2  0  0  0
 75146  1  0  0  0
 76 77  1  0  0  0
 76 85  1  0  0  0
 77 82  1  0  0  0
 77 84  2  0  0  0
 78 79  1  0  0  0
 78147  1  0  0  0
 78148  1  0  0  0
 78149  1  0  0  0
 79150  1  0  0  0
 79151  1  0  0  0
 82152  1  0  0  0
 83153  1  0  0  0
 85154  1  0  0  0
M  ISO  4   1 100  68 101  75 101  83 100
M  END
> <chiral flag>
0

> <version>
0

> <s_m_source_file>
/data/baiqing/PycharmProjects/Reinvent-master-3.2/result/LINK_invent/BTK/process_docking_weight1_custom_product_contain_oxygen_bond_distance_aromatic_linkinvent_7_9_3/rearranged_h_0167.sdf

> <i_m_source_file_index>
11

> <r_mmod_Potential_Energy-OPLS-2005>
-22.306453704834

> <r_mmod_Stretch_Energy-OPLS-2005>
100.045738220215

> <r_mmod_Bend_Energy-OPLS-2005>
149.958053588867

> <r_mmod_Torsional_Energy-OPLS-2005>
184.072235107422

> <r_mmod_Improper_Torsional_Energy-OPLS-2005>
3.92467451095581

> <r_mmod_Van_der_Waal_Energy-OPLS-2005>
145.204833984375

> <r_mmod_Electrostatic_Energy-OPLS-2005>
-421.637451171875

> <r_mmod_Solvation_Energy-OPLS-2005>
-254.084899902344

> <b_mmod_Minimization_Converged-OPLS-2005>
0

> <r_mmod_RMS_Derivative-OPLS-2005>
0.232108131051064

$$$$
11
                    3D
 Structure written by MMmdl.
163171  0  0  1  0            999 V2000
  -30.7365  -14.5235   20.5319 C   0  0  0  0  0  0
  -30.4017  -12.3335   19.4527 C   0  0  0  0  0  0
  -29.4907  -12.4997   18.2211 C   0  0  0  0  0  0
  -28.0153  -12.3543   18.6326 C   0  0  0  0  0  0
  -27.6491  -13.2279   19.8631 C   0  0  2  0  0  0
  -28.6908  -13.0978   20.9978 C   0  0  0  0  0  0
  -25.2522  -13.8209   20.5693 C   0  0  0  0  0  0
  -24.1810  -13.0455   20.9194 C   0  0  0  0  0  0
  -24.6392  -11.6934   20.8742 C   0  0  0  0  0  0
  -23.9076  -10.4304   21.0405 C   0  0  0  0  0  0
  -24.3627   -9.4214   21.9174 C   0  0  0  0  0  0
  -23.6300   -8.2249   22.0753 C   0  0  0  0  0  0
  -22.4282   -8.0279   21.3544 C   0  0  0  0  0  0
  -21.9917   -9.0258   20.4647 C   0  0  0  0  0  0
  -22.7252  -10.2135   20.3051 C   0  0  0  0  0  0
  -21.6856   -6.0736   22.5279 C   0  0  0  0  0  0
  -21.4024   -6.5645   23.8211 C   0  0  0  0  0  0
  -21.3656   -5.6795   24.9170 C   0  0  0  0  0  0
  -21.6041   -4.3058   24.7220 C   0  0  0  0  0  0
  -21.8814   -3.8152   23.4344 C   0  0  0  0  0  0
  -21.9194   -4.6967   22.3400 C   0  0  0  0  0  0
  -22.7824  -13.5228   21.1856 C   0  0  0  0  0  0
  -22.1658   -4.2155   21.0976 F   0  0  0  0  0  0
  -21.5621   -3.4538   25.7735 F   0  0  0  0  0  0
  -30.0163  -13.3702   20.4289 N   0  0  0  0  0  0
  -26.2965  -12.9427   20.3338 N   0  0  0  0  0  0
  -25.9321  -11.6566   20.5777 N   0  0  0  0  0  0
  -22.0485  -12.8203   22.0424 N   0  0  0  0  0  0
  -25.4228  -15.1925   20.4088 N   0  0  0  0  0  0
  -31.8941  -14.5913   20.1145 O   0  0  0  0  0  0
  -21.6639   -6.8878   21.4246 O   0  0  0  0  0  0
  -22.3496  -14.5531   20.6711 O   0  0  0  0  0  0
  -24.6177  -31.8656   23.2044 C   0  0  0  0  0  0
  -25.9050  -32.4810   23.8343 C   0  0  1  0  0  0
  -27.2257  -27.4020   20.1193 C   0  0  0  0  0  0
  -25.5887  -33.8608   24.2248 N   0  0  0  0  0  0
  -23.4065  -30.4880   21.5460 C   0  0  2  0  0  0
  -24.8546  -28.9575   20.1013 C   0  0  0  0  0  0
  -22.7433  -29.4633   22.4960 C   0  0  0  0  0  0
  -18.0281  -28.1392   22.8497 C   0  0  0  0  0  0
  -24.1504  -36.7337   23.2637 C   0  0  0  0  0  0
  -25.9371  -30.8304   21.3564 C   0  0  0  0  0  0
  -26.0163  -29.4671   20.6941 C   0  0  0  0  0  0
  -27.2096  -28.7036   20.6837 C   0  0  0  0  0  0
  -26.0528  -26.9247   19.4988 C   0  0  0  0  0  0
  -24.8730  -27.6925   19.4896 C   0  0  0  0  0  0
  -23.6119  -29.8199   20.1583 C   0  0  0  0  0  0
  -25.4125  -36.3105   24.0322 C   0  0  1  0  0  0
  -20.5881  -28.3673   23.1341 C   0  0  2  0  0  0
  -20.6785  -26.9402   22.5440 C   0  0  0  0  0  0
  -19.5751  -26.6376   21.5251 C   0  0  0  0  0  0
  -18.1920  -26.7942   22.1637 C   0  0  0  0  0  0
  -19.1532  -28.8850   23.2907 C   0  0  0  0  0  0
  -18.9452  -30.1463   23.8898 C   0  0  0  0  0  0
  -17.6454  -30.6590   24.0570 C   0  0  0  0  0  0
  -25.9041  -34.9473   23.5075 C   0  0  0  0  0  0
  -16.5345  -29.9087   23.6341 C   0  0  0  0  0  0
  -16.7269  -28.6516   23.0338 C   0  0  0  0  0  0
  -26.4464  -31.6633   25.0701 C   0  0  0  0  0  0
  -25.3710  -31.3746   26.1427 C   0  0  0  0  0  0
  -27.0314  -30.3106   24.6061 C   0  0  0  0  0  0
  -27.6005  -32.4385   25.7481 C   0  0  0  0  0  0
  -27.5586  -37.1810   24.8451 C   0  0  0  0  0  0
  -21.4153  -29.3048   22.3752 N   0  0  0  0  0  0
  -26.4297  -37.3799   23.9397 N   0  0  0  0  0  0
  -24.6723  -31.0744   22.0950 N   0  0  0  0  0  0
  -23.4201  -28.8159   23.2976 O   0  0  0  0  0  0
  -28.3254  -26.5626   20.2245 O   0  0  0  0  0  0
  -26.5615  -34.8927   22.4644 O   0  0  0  0  0  0
  -23.5363  -32.1410   23.7435 O   0  0  0  0  0  0
  -29.9997  -20.2664   21.9863 C   0  0  0  0  0  0
  -29.2928  -19.0799   20.2043 C   0  0  0  0  0  0
  -29.3033  -20.3897   20.8174 C   0  0  0  0  0  0
  -30.0925  -18.2849   21.0104 C   0  0  0  0  0  0
  -28.6966  -18.5478   18.9505 C   0  0  0  0  0  0
  -27.8219  -25.3403   22.2551 C   0  0  0  0  0  0
  -28.1349  -25.3668   20.9280 C   0  0  0  0  0  0
  -27.7806  -26.5370   23.1201 C   0  0  0  0  0  0
  -29.1216  -22.8906   20.5780 C   0  0  0  0  0  0
  -27.9968  -19.5373   18.0325 C   0  0  0  0  0  0
  -26.5361  -26.7504   23.9743 C   0  0  0  0  0  0
  -30.8274  -16.9589   20.8531 C   0  0  0  0  0  0
  -28.2560  -24.0820   20.0662 C   0  0  0  0  0  0
  -28.7070  -21.6174   20.3349 N   0  0  0  0  0  0
  -30.1149  -15.6581   20.9373 N   0  0  0  0  0  0
  -28.7382  -17.3545   18.6387 O   0  0  0  0  0  0
  -28.7009  -27.3552   23.1880 O   0  0  0  0  0  0
  -30.1572  -23.1402   21.1992 O   0  0  0  0  0  0
  -30.4839  -18.9996   22.1102 O   0  0  0  0  0  0
  -27.5351  -24.1942   22.8910 O   0  0  0  0  0  0
  -31.4502  -12.3922   19.1560 H   0  0  0  0  0  0
  -30.2776  -11.3434   19.8935 H   0  0  0  0  0  0
  -29.7430  -11.7583   17.4622 H   0  0  0  0  0  0
  -29.6539  -13.4777   17.7651 H   0  0  0  0  0  0
  -27.8418  -11.3020   18.8594 H   0  0  0  0  0  0
  -27.3628  -12.5945   17.7923 H   0  0  0  0  0  0
  -27.6691  -14.2630   19.5200 H   0  0  0  0  0  0
  -28.6716  -12.0960   21.4281 H   0  0  0  0  0  0
  -28.4574  -13.7824   21.8137 H   0  0  0  0  0  0
  -25.2765   -9.5678   22.4753 H   0  0  0  0  0  0
  -24.0006   -7.4632   22.7461 H   0  0  0  0  0  0
  -21.0850   -8.8770   19.8945 H   0  0  0  0  0  0
  -22.3704  -10.9672   19.6158 H   0  0  0  0  0  0
  -21.2028   -7.6151   23.9718 H   0  0  0  0  0  0
  -21.1481   -6.0522   25.9069 H   0  0  0  0  0  0
  -22.0599   -2.7617   23.2838 H   0  0  0  0  0  0
  -22.4129  -11.9863   22.4793 H   0  0  0  0  0  0
  -21.1099  -13.1208   22.2658 H   0  0  0  0  0  0
  -24.6553  -15.8476   20.5049 H   0  0  0  0  0  0
  -26.2742  -15.6270   20.0770 H   0  0  0  0  0  0
  -26.7127  -32.5508   23.1111 H   0  0  0  0  0  0
  -25.0098  -33.9767   25.0435 H   0  0  0  0  0  0
  -22.6957  -31.3055   21.4051 H   0  0  0  0  0  0
  -23.3743  -35.9689   23.3307 H   0  0  0  0  0  0
  -24.3602  -36.8959   22.2050 H   0  0  0  0  0  0
  -23.7275  -37.6542   23.6673 H   0  0  0  0  0  0
  -26.0494  -31.5999   20.5908 H   0  0  0  0  0  0
  -26.8256  -30.8819   21.9752 H   0  0  0  0  0  0
  -28.1007  -29.0852   21.1588 H   0  0  0  0  0  0
  -26.0467  -25.9431   19.0469 H   0  0  0  0  0  0
  -23.9814  -27.2975   19.0226 H   0  0  0  0  0  0
  -23.7097  -30.5959   19.3984 H   0  0  0  0  0  0
  -22.7365  -29.2358   19.8650 H   0  0  0  0  0  0
  -25.1305  -36.1957   25.0816 H   0  0  0  0  0  0
  -20.9970  -28.3229   24.1459 H   0  0  0  0  0  0
  -20.5750  -26.2256   23.3620 H   0  0  0  0  0  0
  -21.6646  -26.7475   22.1178 H   0  0  0  0  0  0
  -19.6916  -25.6290   21.1264 H   0  0  0  0  0  0
  -19.6693  -27.3204   20.6799 H   0  0  0  0  0  0
  -17.4206  -26.6719   21.4018 H   0  0  0  0  0  0
  -18.0269  -26.0076   22.9022 H   0  0  0  0  0  0
  -19.7925  -30.7296   24.2225 H   0  0  0  0  0  0
  -17.5004  -31.6262   24.5185 H   0  0  0  0  0  0
  -15.5345  -30.2979   23.7682 H   0  0  0  0  0  0
  -15.8672  -28.0848   22.7022 H   0  0  0  0  0  0
  -24.5864  -30.7114   25.7765 H   0  0  0  0  0  0
  -24.8915  -32.2914   26.4873 H   0  0  0  0  0  0
  -25.8039  -30.8907   27.0190 H   0  0  0  0  0  0
  -26.2890  -29.6964   24.0954 H   0  0  0  0  0  0
  -27.3971  -29.7255   25.4509 H   0  0  0  0  0  0
  -27.8773  -30.4445   23.9305 H   0  0  0  0  0  0
  -27.2570  -33.3667   26.2061 H   0  0  0  0  0  0
  -28.3807  -32.6992   25.0320 H   0  0  0  0  0  0
  -28.0679  -31.8517   26.5391 H   0  0  0  0  0  0
  -28.2583  -38.0130   24.7512 H   0  0  0  0  0  0
  -28.1086  -36.2644   24.6251 H   0  0  0  0  0  0
  -27.2290  -37.1450   25.8850 H   0  0  0  0  0  0
  -20.9315  -29.8775   21.6985 H   0  0  0  0  0  0
  -26.0173  -38.2873   24.1391 H   0  0  0  0  0  0
  -30.2613  -20.9459   22.7862 H   0  0  0  0  0  0
  -27.2186  -20.0730   18.5736 H   0  0  0  0  0  0
  -27.5347  -19.0142   17.1968 H   0  0  0  0  0  0
  -28.7179  -20.2509   17.6363 H   0  0  0  0  0  0
  -25.7343  -27.1693   23.3656 H   0  0  0  0  0  0
  -26.7455  -27.4372   24.7922 H   0  0  0  0  0  0
  -26.1915  -25.8074   24.4012 H   0  0  0  0  0  0
  -31.6475  -16.9285   21.5734 H   0  0  0  0  0  0
  -31.3222  -17.0071   19.8809 H   0  0  0  0  0  0
  -28.6395  -24.3694   19.0882 H   0  0  0  0  0  0
  -27.2448  -23.7207   19.8828 H   0  0  0  0  0  0
  -27.9064  -21.5225   19.7226 H   0  0  0  0  0  0
  -29.1539  -15.6311   21.2402 H   0  0  0  0  0  0
  -27.5841  -23.4953   22.2570 H   0  0  0  0  0  0
  1 25  1  0  0  0
  1 30  2  0  0  0
  1 85  1  0  0  0
  2  3  1  0  0  0
  2 25  1  0  0  0
  2 91  1  0  0  0
  2 92  1  0  0  0
  3  4  1  0  0  0
  3 93  1  0  0  0
  3 94  1  0  0  0
  4  5  1  0  0  0
  4 95  1  0  0  0
  4 96  1  0  0  0
  5  6  1  0  0  0
  5 26  1  0  0  0
  5 97  1  0  0  0
  6 25  1  0  0  0
  6 98  1  0  0  0
  6 99  1  0  0  0
  7  8  2  0  0  0
  7 26  1  0  0  0
  7 29  1  0  0  0
  8  9  1  0  0  0
  8 22  1  0  0  0
  9 10  1  0  0  0
  9 27  2  0  0  0
 10 11  2  0  0  0
 10 15  1  0  0  0
 11 12  1  0  0  0
 11100  1  0  0  0
 12 13  2  0  0  0
 12101  1  0  0  0
 13 14  1  0  0  0
 13 31  1  0  0  0
 14 15  2  0  0  0
 14102  1  0  0  0
 15103  1  0  0  0
 16 17  2  0  0  0
 16 21  1  0  0  0
 16 31  1  0  0  0
 17 18  1  0  0  0
 17104  1  0  0  0
 18 19  2  0  0  0
 18105  1  0  0  0
 19 20  1  0  0  0
 19 24  1  0  0  0
 20 21  2  0  0  0
 20106  1  0  0  0
 21 23  1  0  0  0
 22 28  1  0  0  0
 22 32  2  0  0  0
 26 27  1  0  0  0
 28107  1  0  0  0
 28108  1  0  0  0
 29109  1  0  0  0
 29110  1  0  0  0
 33 34  1  0  0  0
 33 66  1  0  0  0
 33 70  2  0  0  0
 34 36  1  0  0  0
 34 59  1  0  0  0
 34111  1  0  0  0
 35 44  2  0  0  0
 35 45  1  0  0  0
 35 68  1  0  0  0
 36 56  1  0  0  0
 36112  1  0  0  0
 37 39  1  0  0  0
 37 47  1  0  0  0
 37 66  1  0  0  0
 37113  1  0  0  0
 38 43  2  0  0  0
 38 46  1  0  0  0
 38 47  1  0  0  0
 39 64  1  0  0  0
 39 67  2  0  0  0
 40 52  1  0  0  0
 40 53  2  0  0  0
 40 58  1  0  0  0
 41114  1  0  0  0
 41115  1  0  0  0
 41116  1  0  0  0
 41 48  1  0  0  0
 42 43  1  0  0  0
 42 66  1  0  0  0
 42117  1  0  0  0
 42118  1  0  0  0
 43 44  1  0  0  0
 44119  1  0  0  0
 45 46  2  0  0  0
 45120  1  0  0  0
 46121  1  0  0  0
 47122  1  0  0  0
 47123  1  0  0  0
 48 56  1  0  0  0
 48 65  1  0  0  0
 48124  1  0  0  0
 49 50  1  0  0  0
 49 53  1  0  0  0
 49 64  1  0  0  0
 49125  1  0  0  0
 50 51  1  0  0  0
 50126  1  0  0  0
 50127  1  0  0  0
 51 52  1  0  0  0
 51128  1  0  0  0
 51129  1  0  0  0
 52130  1  0  0  0
 52131  1  0  0  0
 53 54  1  0  0  0
 54 55  2  0  0  0
 54132  1  0  0  0
 55 57  1  0  0  0
 55133  1  0  0  0
 56 69  2  0  0  0
 57 58  2  0  0  0
 57134  1  0  0  0
 58135  1  0  0  0
 59 60  1  0  0  0
 59 61  1  0  0  0
 59 62  1  0  0  0
 60136  1  0  0  0
 60137  1  0  0  0
 60138  1  0  0  0
 61139  1  0  0  0
 61140  1  0  0  0
 61141  1  0  0  0
 62142  1  0  0  0
 62143  1  0  0  0
 62144  1  0  0  0
 63 65  1  0  0  0
 63145  1  0  0  0
 63146  1  0  0  0
 63147  1  0  0  0
 64148  1  0  0  0
 65149  1  0  0  0
 68 77  1  0  0  0
 71 73  2  0  0  0
 71 89  1  0  0  0
 71150  1  0  0  0
 72 73  1  0  0  0
 72 74  2  0  0  0
 72 75  1  0  0  0
 73 84  1  0  0  0
 74 82  1  0  0  0
 74 89  1  0  0  0
 75 80  1  0  0  0
 75 86  2  0  0  0
 76 77  2  0  0  0
 76 78  1  0  0  0
 76 90  1  0  0  0
 77 83  1  0  0  0
 78 81  1  0  0  0
 78 87  2  0  0  0
 79 83  1  0  0  0
 79 84  1  0  0  0
 79 88  2  0  0  0
 80151  1  0  0  0
 80152  1  0  0  0
 80153  1  0  0  0
 81154  1  0  0  0
 81155  1  0  0  0
 81156  1  0  0  0
 82 85  1  0  0  0
 82157  1  0  0  0
 82158  1  0  0  0
 83159  1  0  0  0
 83160  1  0  0  0
 84161  1  0  0  0
 85162  1  0  0  0
 90163  1  0  0  0
M  ISO  4   1 100  68 101  77 101  85 100
M  END
> <chiral flag>
0

> <version>
0

> <s_m_source_file>
/data/baiqing/PycharmProjects/Reinvent-master-3.2/result/LINK_invent/BTK/process_docking_weight1_custom_product_contain_oxygen_bond_distance_aromatic_linkinvent_7_9_3/rearranged_h_0167.sdf

> <i_m_source_file_index>
12

> <r_mmod_Potential_Energy-OPLS-2005>
-122.227661132812

> <r_mmod_Stretch_Energy-OPLS-2005>
50.7847785949707

> <r_mmod_Bend_Energy-OPLS-2005>
122.122955322266

> <r_mmod_Torsional_Energy-OPLS-2005>
258.308410644531

> <r_mmod_Improper_Torsional_Energy-OPLS-2005>
5.4365668296814

> <r_mmod_Van_der_Waal_Energy-OPLS-2005>
122.730041503906

> <r_mmod_Electrostatic_Energy-OPLS-2005>
-451.211303710938

> <r_mmod_Solvation_Energy-OPLS-2005>
-260.138000488281

> <b_mmod_Minimization_Converged-OPLS-2005>
0

> <r_mmod_RMS_Derivative-OPLS-2005>
2.61961889266968

$$$$
12
                    3D
 Structure written by MMmdl.
157165  0  0  1  0            999 V2000
  -29.8437  -15.1179   20.8267 C   0  0  0  0  0  0
  -30.4058  -12.9434   19.6244 C   0  0  0  0  0  0
  -29.5465  -12.5900   18.4008 C   0  0  0  0  0  0
  -28.0956  -12.1802   18.7558 C   0  0  0  0  0  0
  -27.5337  -13.1441   19.8313 C   0  0  2  0  0  0
  -28.4196  -13.1108   21.0638 C   0  0  0  0  0  0
  -25.1763  -13.7648   20.5072 C   0  0  0  0  0  0
  -24.1137  -12.9773   20.9072 C   0  0  0  0  0  0
  -24.5916  -11.6507   20.8849 C   0  0  0  0  0  0
  -23.8815  -10.3879   21.0583 C   0  0  0  0  0  0
  -24.3508   -9.3870   21.9301 C   0  0  0  0  0  0
  -23.6190   -8.1914   22.0764 C   0  0  0  0  0  0
  -22.4163   -8.0112   21.3539 C   0  0  0  0  0  0
  -21.9781   -9.0016   20.4631 C   0  0  0  0  0  0
  -22.7078  -10.1878   20.3085 C   0  0  0  0  0  0
  -21.6711   -6.0665   22.5329 C   0  0  0  0  0  0
  -21.3893   -6.5586   23.8256 C   0  0  0  0  0  0
  -21.3638   -5.6750   24.9218 C   0  0  0  0  0  0
  -21.6056   -4.3016   24.7259 C   0  0  0  0  0  0
  -21.8839   -3.8117   23.4368 C   0  0  0  0  0  0
  -21.9141   -4.6931   22.3426 C   0  0  0  0  0  0
  -22.7278  -13.4956   21.1785 C   0  0  0  0  0  0
  -22.1651   -4.2191   21.0983 F   0  0  0  0  0  0
  -21.5667   -3.4475   25.7734 F   0  0  0  0  0  0
  -29.6359  -13.7655   20.6009 N   0  0  0  0  0  0
  -26.1967  -12.8651   20.2752 N   0  0  0  0  0  0
  -25.8720  -11.5939   20.5671 N   0  0  0  0  0  0
  -21.9996  -12.7930   22.0626 N   0  0  0  0  0  0
  -25.3031  -15.1118   20.3221 N   0  0  0  0  0  0
  -31.0587  -15.5000   20.5899 O   0  0  0  0  0  0
  -21.6414   -6.8798   21.4302 O   0  0  0  0  0  0
  -22.3000  -14.5150   20.6775 O   0  0  0  0  0  0
  -24.6325  -31.8269   23.2891 C   0  0  0  0  0  0
  -25.8773  -32.4894   23.8876 C   0  0  1  0  0  0
  -26.7911  -26.9944   20.1175 C   0  0  0  0  0  0
  -25.5152  -33.8697   24.2538 N   0  0  0  0  0  0
  -23.5167  -30.4384   21.6222 C   0  0  2  0  0  0
  -24.9533  -29.0096   20.1328 C   0  0  0  0  0  0
  -22.6828  -29.5262   22.5705 C   0  0  0  0  0  0
  -17.9729  -28.3143   22.7606 C   0  0  0  0  0  0
  -24.1395  -36.7327   23.2713 C   0  0  0  0  0  0
  -26.0555  -30.6317   21.5620 C   0  0  0  0  0  0
  -26.1321  -29.2850   20.8284 C   0  0  0  0  0  0
  -27.0808  -28.2111   20.8088 C   0  0  0  0  0  0
  -25.8367  -27.0153   19.0747 C   0  0  0  0  0  0
  -24.9113  -28.0430   19.1810 C   0  0  0  0  0  0
  -23.6933  -29.7428   20.3098 C   0  0  0  0  0  0
  -25.3956  -36.3185   24.0481 C   0  0  1  0  0  0
  -20.5344  -28.5231   23.2079 C   0  0  2  0  0  0
  -20.6017  -27.0442   22.7768 C   0  0  0  0  0  0
  -19.7395  -26.7455   21.4663 C   0  0  0  0  0  0
  -18.2368  -27.0661   21.8577 C   0  0  0  0  0  0
  -19.0948  -29.0437   23.2976 C   0  0  0  0  0  0
  -18.8792  -30.3234   23.9720 C   0  0  0  0  0  0
  -17.5967  -30.8613   24.1194 C   0  0  0  0  0  0
  -25.8753  -34.9407   23.5450 C   0  0  0  0  0  0
  -16.4732  -30.0866   23.7021 C   0  0  0  0  0  0
  -16.6283  -28.8184   23.0435 C   0  0  0  0  0  0
  -26.4292  -31.6349   25.0871 C   0  0  0  0  0  0
  -25.3544  -31.3273   26.1674 C   0  0  0  0  0  0
  -27.0104  -30.2865   24.5787 C   0  0  0  0  0  0
  -27.6026  -32.3977   25.7125 C   0  0  0  0  0  0
  -27.5604  -37.1634   24.8392 C   0  0  0  0  0  0
  -21.3509  -29.5470   22.4562 N   0  0  0  0  0  0
  -26.4191  -37.3798   23.9547 N   0  0  0  0  0  0
  -24.7836  -30.9358   22.2832 N   0  0  0  0  0  0
  -23.3321  -28.7321   23.2837 O   0  0  0  0  0  0
  -27.1352  -25.7832   20.6723 O   0  0  0  0  0  0
  -26.5692  -34.8691   22.5264 O   0  0  0  0  0  0
  -23.5072  -32.1239   23.7158 O   0  0  0  0  0  0
  -26.9862  -18.0954   21.1217 C   0  0  0  0  0  0
  -25.3803  -18.4403   22.9508 C   0  0  0  0  0  0
  -27.0635  -16.5417   22.9279 C   0  0  0  0  0  0
  -25.9563  -18.9217   21.7901 C   0  0  0  0  0  0
  -27.6372  -16.8703   21.6139 C   0  0  0  0  0  0
  -25.9528  -17.2970   23.5065 C   0  0  0  0  0  0
  -24.1453  -22.5349   21.9001 C   0  0  0  0  0  0
  -27.0316  -23.1012   20.9123 C   0  0  0  0  0  0
  -25.3797  -20.2223   21.1320 C   0  0  0  0  0  0
  -24.8609  -24.0401   21.6936 C   0  0  0  0  0  0
  -26.1830  -24.4197   20.7844 C   0  0  1  0  0  0
  -28.6859  -16.0374   20.7880 N   0  0  0  0  0  0
  -24.5758  -21.1497   21.9576 N   0  0  0  0  0  0
  -22.9644  -22.6827   22.1205 O   0  0  0  0  0  0
  -25.4713  -16.9315   24.7184 F   0  0  0  0  0  0
  -31.2161  -13.5913   19.2977 H   0  0  0  0  0  0
  -30.8719  -12.1629   20.1866 H   0  0  0  0  0  0
  -30.0547  -11.8016   17.8612 H   0  0  0  0  0  0
  -29.4858  -13.4592   17.7470 H   0  0  0  0  0  0
  -28.1075  -11.1624   19.1633 H   0  0  0  0  0  0
  -27.4485  -12.1210   17.8721 H   0  0  0  0  0  0
  -27.5188  -14.1382   19.3886 H   0  0  0  0  0  0
  -28.6330  -12.1127   21.4301 H   0  0  0  0  0  0
  -27.9343  -13.6538   21.8893 H   0  0  0  0  0  0
  -25.2670   -9.5275   22.4871 H   0  0  0  0  0  0
  -23.9830   -7.4237   22.7368 H   0  0  0  0  0  0
  -21.0775   -8.8590   19.8930 H   0  0  0  0  0  0
  -22.3662  -10.9441   19.6204 H   0  0  0  0  0  0
  -21.1834   -7.6087   23.9809 H   0  0  0  0  0  0
  -21.1455   -6.0428   25.9143 H   0  0  0  0  0  0
  -22.0658   -2.7608   23.2789 H   0  0  0  0  0  0
  -22.3594  -11.9661   22.4987 H   0  0  0  0  0  0
  -21.0726  -13.1143   22.2997 H   0  0  0  0  0  0
  -24.5281  -15.6770   20.6565 H   0  0  0  0  0  0
  -26.1824  -15.6181   20.2549 H   0  0  0  0  0  0
  -26.6508  -32.5713   23.1266 H   0  0  0  0  0  0
  -24.8394  -34.0073   24.9971 H   0  0  0  0  0  0
  -22.8091  -31.2922   21.4528 H   0  0  0  0  0  0
  -23.3787  -35.9510   23.3135 H   0  0  0  0  0  0
  -24.3366  -36.9347   22.2149 H   0  0  0  0  0  0
  -23.6910  -37.6316   23.6968 H   0  0  0  0  0  0
  -25.8905  -31.2544   20.7064 H   0  0  0  0  0  0
  -26.9894  -31.0498   21.8856 H   0  0  0  0  0  0
  -27.6233  -27.9773   21.6899 H   0  0  0  0  0  0
  -25.4799  -26.1471   18.5235 H   0  0  0  0  0  0
  -23.9363  -27.9299   18.7376 H   0  0  0  0  0  0
  -23.7463  -30.4648   19.5171 H   0  0  0  0  0  0
  -22.8225  -29.1258   20.1133 H   0  0  0  0  0  0
  -25.1117  -36.2107   25.0982 H   0  0  0  0  0  0
  -20.9371  -28.5758   24.2613 H   0  0  0  0  0  0
  -20.1394  -26.6806   23.7057 H   0  0  0  0  0  0
  -21.6118  -26.6333   22.9287 H   0  0  0  0  0  0
  -19.6897  -25.6852   21.2050 H   0  0  0  0  0  0
  -19.9348  -27.1252   20.4551 H   0  0  0  0  0  0
  -17.6198  -27.1479   20.9253 H   0  0  0  0  0  0
  -17.8196  -26.2021   22.3549 H   0  0  0  0  0  0
  -19.7073  -30.9432   24.4639 H   0  0  0  0  0  0
  -17.4455  -31.7783   24.6330 H   0  0  0  0  0  0
  -15.5377  -30.5583   23.9695 H   0  0  0  0  0  0
  -15.6656  -28.3501   22.7942 H   0  0  0  0  0  0
  -24.5563  -30.6817   25.8039 H   0  0  0  0  0  0
  -24.8830  -32.2383   26.5324 H   0  0  0  0  0  0
  -25.7846  -30.8167   27.0255 H   0  0  0  0  0  0
  -26.2642  -29.6456   24.1118 H   0  0  0  0  0  0
  -27.4448  -29.7028   25.3869 H   0  0  0  0  0  0
  -27.8048  -30.4586   23.8495 H   0  0  0  0  0  0
  -27.2910  -33.3361   26.1483 H   0  0  0  0  0  0
  -28.3395  -32.6130   24.9448 H   0  0  0  0  0  0
  -28.0818  -31.8066   26.4848 H   0  0  0  0  0  0
  -28.2363  -38.0195   24.7902 H   0  0  0  0  0  0
  -28.1377  -36.2784   24.5670 H   0  0  0  0  0  0
  -27.2372  -37.0539   25.8761 H   0  0  0  0  0  0
  -20.9077  -30.1247   21.6795 H   0  0  0  0  0  0
  -26.0196  -38.2893   24.1772 H   0  0  0  0  0  0
  -27.2565  -18.4658   20.2040 H   0  0  0  0  0  0
  -24.5861  -19.0129   23.4603 H   0  0  0  0  0  0
  -27.3962  -15.7382   23.6313 H   0  0  0  0  0  0
  -28.0520  -23.2209   20.5888 H   0  0  0  0  0  0
  -26.6594  -22.5798   20.0659 H   0  0  0  0  0  0
  -26.8521  -22.5236   21.9392 H   0  0  0  0  0  0
  -24.4806  -19.9001   20.7174 H   0  0  0  0  0  0
  -25.9816  -20.5400   20.3114 H   0  0  0  0  0  0
  -24.5936  -24.6765   22.5925 H   0  0  0  0  0  0
  -24.1028  -24.6632   21.2056 H   0  0  0  0  0  0
  -25.6168  -24.4034   19.8622 H   0  0  0  0  0  0
  -28.6891  -16.4476   19.8786 H   0  0  0  0  0  0
  -23.9417  -20.4921   22.5236 H   0  0  0  0  0  0
  1 25  1  0  0  0
  1 30  2  0  0  0
  1 82  1  0  0  0
  2  3  1  0  0  0
  2 25  1  0  0  0
  2 86  1  0  0  0
  2 87  1  0  0  0
  3  4  1  0  0  0
  3 88  1  0  0  0
  3 89  1  0  0  0
  4  5  1  0  0  0
  4 90  1  0  0  0
  4 91  1  0  0  0
  5  6  1  0  0  0
  5 26  1  0  0  0
  5 92  1  0  0  0
  6 25  1  0  0  0
  6 93  1  0  0  0
  6 94  1  0  0  0
  7  8  2  0  0  0
  7 26  1  0  0  0
  7 29  1  0  0  0
  8  9  1  0  0  0
  8 22  1  0  0  0
  9 10  1  0  0  0
  9 27  2  0  0  0
 10 11  2  0  0  0
 10 15  1  0  0  0
 11 12  1  0  0  0
 11 95  1  0  0  0
 12 13  2  0  0  0
 12 96  1  0  0  0
 13 14  1  0  0  0
 13 31  1  0  0  0
 14 15  2  0  0  0
 14 97  1  0  0  0
 15 98  1  0  0  0
 16 17  2  0  0  0
 16 21  1  0  0  0
 16 31  1  0  0  0
 17 18  1  0  0  0
 17 99  1  0  0  0
 18 19  2  0  0  0
 18100  1  0  0  0
 19 20  1  0  0  0
 19 24  1  0  0  0
 20 21  2  0  0  0
 20101  1  0  0  0
 21 23  1  0  0  0
 22 28  1  0  0  0
 22 32  2  0  0  0
 26 27  1  0  0  0
 28102  1  0  0  0
 28103  1  0  0  0
 29104  1  0  0  0
 29105  1  0  0  0
 33 34  1  0  0  0
 33 66  1  0  0  0
 33 70  2  0  0  0
 34 36  1  0  0  0
 34 59  1  0  0  0
 34106  1  0  0  0
 35 44  2  0  0  0
 35 45  1  0  0  0
 35 68  1  0  0  0
 36 56  1  0  0  0
 36107  1  0  0  0
 37 39  1  0  0  0
 37 47  1  0  0  0
 37 66  1  0  0  0
 37108  1  0  0  0
 38 43  2  0  0  0
 38 46  1  0  0  0
 38 47  1  0  0  0
 39 64  1  0  0  0
 39 67  2  0  0  0
 40 52  1  0  0  0
 40 53  2  0  0  0
 40 58  1  0  0  0
 41109  1  0  0  0
 41110  1  0  0  0
 41111  1  0  0  0
 41 48  1  0  0  0
 42 43  1  0  0  0
 42 66  1  0  0  0
 42112  1  0  0  0
 42113  1  0  0  0
 43 44  1  0  0  0
 44114  1  0  0  0
 45 46  2  0  0  0
 45115  1  0  0  0
 46116  1  0  0  0
 47117  1  0  0  0
 47118  1  0  0  0
 48 56  1  0  0  0
 48 65  1  0  0  0
 48119  1  0  0  0
 49 50  1  0  0  0
 49 53  1  0  0  0
 49 64  1  0  0  0
 49120  1  0  0  0
 50 51  1  0  0  0
 50121  1  0  0  0
 50122  1  0  0  0
 51 52  1  0  0  0
 51123  1  0  0  0
 51124  1  0  0  0
 52125  1  0  0  0
 52126  1  0  0  0
 53 54  1  0  0  0
 54 55  2  0  0  0
 54127  1  0  0  0
 55 57  1  0  0  0
 55128  1  0  0  0
 56 69  2  0  0  0
 57 58  2  0  0  0
 57129  1  0  0  0
 58130  1  0  0  0
 59 60  1  0  0  0
 59 61  1  0  0  0
 59 62  1  0  0  0
 60131  1  0  0  0
 60132  1  0  0  0
 60133  1  0  0  0
 61134  1  0  0  0
 61135  1  0  0  0
 61136  1  0  0  0
 62137  1  0  0  0
 62138  1  0  0  0
 62139  1  0  0  0
 63 65  1  0  0  0
 63140  1  0  0  0
 63141  1  0  0  0
 63142  1  0  0  0
 64143  1  0  0  0
 65144  1  0  0  0
 68 81  1  0  0  0
 71 74  2  0  0  0
 71 75  1  0  0  0
 71145  1  0  0  0
 72 74  1  0  0  0
 72 76  2  0  0  0
 72146  1  0  0  0
 73 75  2  0  0  0
 73 76  1  0  0  0
 73147  1  0  0  0
 74 79  1  0  0  0
 75 82  1  0  0  0
 76 85  1  0  0  0
 77 80  1  0  0  0
 77 83  1  0  0  0
 77 84  2  0  0  0
 78148  1  0  0  0
 78149  1  0  0  0
 78150  1  0  0  0
 78 81  1  0  0  0
 79 83  1  0  0  0
 79151  1  0  0  0
 79152  1  0  0  0
 80 81  1  0  0  0
 80153  1  0  0  0
 80154  1  0  0  0
 81155  1  0  0  0
 82156  1  0  0  0
 83157  1  0  0  0
M  ISO  4   1 100  68 101  81 101  82 100
M  END
> <chiral flag>
0

> <version>
0

> <s_m_source_file>
/data/baiqing/PycharmProjects/Reinvent-master-3.2/result/LINK_invent/BTK/process_docking_weight1_custom_product_contain_oxygen_bond_distance_aromatic_linkinvent_7_9_3/rearranged_h_0167.sdf

> <i_m_source_file_index>
13

> <r_mmod_Potential_Energy-OPLS-2005>
2082.12768554688

> <r_mmod_Stretch_Energy-OPLS-2005>
458.795837402344

> <r_mmod_Bend_Energy-OPLS-2005>
658.301391601562

> <r_mmod_Torsional_Energy-OPLS-2005>
449.184997558594

> <r_mmod_Improper_Torsional_Energy-OPLS-2005>
36.8259315490723

> <r_mmod_Van_der_Waal_Energy-OPLS-2005>
171.288528442383

> <r_mmod_Electrostatic_Energy-OPLS-2005>
-429.987915039062

> <r_mmod_Solvation_Energy-OPLS-2005>
-227.324203491211

> <b_mmod_Minimization_Converged-OPLS-2005>
0

> <r_mmod_RMS_Derivative-OPLS-2005>
99.9990005493164

$$$$
13
                    3D
 Structure written by MMmdl.
160168  0  0  1  0            999 V2000
  -30.6229  -14.7508   20.4386 C   0  0  0  0  0  0
  -30.4235  -12.4556   19.4782 C   0  0  0  0  0  0
  -29.5099  -12.5003   18.2331 C   0  0  0  0  0  0
  -28.0333  -12.3299   18.6422 C   0  0  0  0  0  0
  -27.6350  -13.2366   19.8392 C   0  0  2  0  0  0
  -28.6780  -13.1899   20.9766 C   0  0  0  0  0  0
  -25.2471  -13.8207   20.5670 C   0  0  0  0  0  0
  -24.1778  -13.0437   20.9192 C   0  0  0  0  0  0
  -24.6380  -11.6919   20.8710 C   0  0  0  0  0  0
  -23.9068  -10.4294   21.0385 C   0  0  0  0  0  0
  -24.3617   -9.4207   21.9166 C   0  0  0  0  0  0
  -23.6288   -8.2247   22.0755 C   0  0  0  0  0  0
  -22.4269   -8.0287   21.3549 C   0  0  0  0  0  0
  -21.9906   -9.0256   20.4643 C   0  0  0  0  0  0
  -22.7235  -10.2130   20.3038 C   0  0  0  0  0  0
  -21.6854   -6.0724   22.5271 C   0  0  0  0  0  0
  -21.4022   -6.5626   23.8207 C   0  0  0  0  0  0
  -21.3661   -5.6778   24.9168 C   0  0  0  0  0  0
  -21.6053   -4.3043   24.7220 C   0  0  0  0  0  0
  -21.8817   -3.8133   23.4338 C   0  0  0  0  0  0
  -21.9194   -4.6953   22.3395 C   0  0  0  0  0  0
  -22.7798  -13.5222   21.1863 C   0  0  0  0  0  0
  -22.1657   -4.2139   21.0974 F   0  0  0  0  0  0
  -21.5639   -3.4526   25.7733 F   0  0  0  0  0  0
  -29.9781  -13.5352   20.3915 N   0  0  0  0  0  0
  -26.2893  -12.9421   20.3200 N   0  0  0  0  0  0
  -25.9300  -11.6555   20.5679 N   0  0  0  0  0  0
  -22.0433  -12.8215   22.0407 N   0  0  0  0  0  0
  -25.4135  -15.1944   20.4142 N   0  0  0  0  0  0
  -31.8188  -14.8083   20.1415 O   0  0  0  0  0  0
  -21.6641   -6.8870   21.4238 O   0  0  0  0  0  0
  -22.3478  -14.5530   20.6717 O   0  0  0  0  0  0
  -24.6334  -31.8581   23.1977 C   0  0  0  0  0  0
  -25.9159  -32.4770   23.8332 C   0  0  1  0  0  0
  -27.2115  -27.2493   20.1336 C   0  0  0  0  0  0
  -25.5951  -33.8570   24.2267 N   0  0  0  0  0  0
  -23.4301  -30.4792   21.5445 C   0  0  2  0  0  0
  -24.8764  -28.9284   20.1094 C   0  0  0  0  0  0
  -22.7542  -29.4610   22.4928 C   0  0  0  0  0  0
  -18.0319  -28.1349   22.8501 C   0  0  0  0  0  0
  -24.1491  -36.7284   23.2641 C   0  0  0  0  0  0
  -25.9766  -30.7651   21.3802 C   0  0  0  0  0  0
  -26.0507  -29.3881   20.7198 C   0  0  0  0  0  0
  -27.2236  -28.5621   20.7206 C   0  0  0  0  0  0
  -26.0212  -26.8744   19.4710 C   0  0  0  0  0  0
  -24.8681  -27.6810   19.4701 C   0  0  0  0  0  0
  -23.6475  -29.8162   20.1599 C   0  0  0  0  0  0
  -25.4119  -36.3084   24.0331 C   0  0  1  0  0  0
  -20.5918  -28.3668   23.1223 C   0  0  2  0  0  0
  -20.6813  -26.9419   22.5291 C   0  0  0  0  0  0
  -19.5696  -26.6333   21.5206 C   0  0  0  0  0  0
  -18.1936  -26.7867   22.1717 C   0  0  0  0  0  0
  -19.1570  -28.8831   23.2856 C   0  0  0  0  0  0
  -18.9497  -30.1441   23.8860 C   0  0  0  0  0  0
  -17.6496  -30.6558   24.0555 C   0  0  0  0  0  0
  -25.9065  -34.9452   23.5108 C   0  0  0  0  0  0
  -16.5381  -29.9058   23.6316 C   0  0  0  0  0  0
  -16.7304  -28.6459   23.0370 C   0  0  0  0  0  0
  -26.4501  -31.6593   25.0733 C   0  0  0  0  0  0
  -25.3689  -31.3746   26.1428 C   0  0  0  0  0  0
  -27.0336  -30.3003   24.6220 C   0  0  0  0  0  0
  -27.6054  -32.4329   25.7500 C   0  0  0  0  0  0
  -27.5587  -37.1802   24.8476 C   0  0  0  0  0  0
  -21.4241  -29.3073   22.3680 N   0  0  0  0  0  0
  -26.4301  -37.3777   23.9419 N   0  0  0  0  0  0
  -24.6990  -31.0510   22.0969 N   0  0  0  0  0  0
  -23.4222  -28.8143   23.3030 O   0  0  0  0  0  0
  -28.2834  -26.3212   20.1950 O   0  0  0  0  0  0
  -26.5634  -34.8926   22.4673 O   0  0  0  0  0  0
  -23.5478  -32.1430   23.7259 O   0  0  0  0  0  0
  -29.4979  -20.5480   21.7601 C   0  0  0  0  0  0
  -29.1408  -19.7543   19.7063 C   0  0  0  0  0  0
  -29.0243  -20.9531   20.5439 C   0  0  0  0  0  0
  -29.7222  -18.7176   20.4661 C   0  0  0  0  0  0
  -28.7769  -19.5305   18.2779 C   0  0  0  0  0  0
  -27.7532  -20.3790   16.0685 C   0  0  0  0  0  0
  -27.6569  -24.8727   22.0477 C   0  0  0  0  0  0
  -30.4217  -17.3146   20.1838 C   0  0  0  0  0  0
  -28.2000  -20.7219   17.5017 C   0  0  0  0  0  0
  -28.9841  -23.6343   20.2384 C   0  0  0  0  0  0
  -27.9749  -24.8773   20.5421 C   0  0  2  0  0  0
  -28.3848  -22.2363   20.2874 N   0  0  0  0  0  0
  -29.8949  -15.9289   20.5685 N   0  0  0  0  0  0
  -28.9104  -18.4359   17.7210 O   0  0  0  0  0  0
  -29.9210  -19.2319   21.7262 O   0  0  0  0  0  0
  -31.4692  -12.5613   19.1818 H   0  0  0  0  0  0
  -30.3543  -11.4876   19.9761 H   0  0  0  0  0  0
  -29.7933  -11.7191   17.5259 H   0  0  0  0  0  0
  -29.6422  -13.4502   17.7092 H   0  0  0  0  0  0
  -27.8847  -11.2821   18.9067 H   0  0  0  0  0  0
  -27.3816  -12.5183   17.7883 H   0  0  0  0  0  0
  -27.6243  -14.2538   19.4487 H   0  0  0  0  0  0
  -28.7116  -12.1980   21.4283 H   0  0  0  0  0  0
  -28.4116  -13.8839   21.7746 H   0  0  0  0  0  0
  -25.2755   -9.5681   22.4737 H   0  0  0  0  0  0
  -23.9985   -7.4644   22.7487 H   0  0  0  0  0  0
  -21.0827   -8.8777   19.8954 H   0  0  0  0  0  0
  -22.3688  -10.9670   19.6149 H   0  0  0  0  0  0
  -21.2009   -7.6134   23.9712 H   0  0  0  0  0  0
  -21.1488   -6.0500   25.9073 H   0  0  0  0  0  0
  -22.0592   -2.7594   23.2839 H   0  0  0  0  0  0
  -22.4056  -11.9904   22.4839 H   0  0  0  0  0  0
  -21.1058  -13.1268   22.2608 H   0  0  0  0  0  0
  -24.6429  -15.8430   20.5384 H   0  0  0  0  0  0
  -26.2527  -15.6403   20.0660 H   0  0  0  0  0  0
  -26.7227  -32.5414   23.1067 H   0  0  0  0  0  0
  -25.0097  -33.9700   25.0414 H   0  0  0  0  0  0
  -22.7280  -31.3028   21.4012 H   0  0  0  0  0  0
  -23.3767  -35.9607   23.3312 H   0  0  0  0  0  0
  -24.3586  -36.8892   22.2057 H   0  0  0  0  0  0
  -23.7215  -37.6474   23.6654 H   0  0  0  0  0  0
  -26.1151  -31.5266   20.6112 H   0  0  0  0  0  0
  -26.8509  -30.8167   22.0161 H   0  0  0  0  0  0
  -28.1203  -28.9051   21.2171 H   0  0  0  0  0  0
  -25.9563  -25.9328   18.9464 H   0  0  0  0  0  0
  -23.9738  -27.3307   18.9721 H   0  0  0  0  0  0
  -23.7740  -30.5922   19.4045 H   0  0  0  0  0  0
  -22.7641  -29.2519   19.8538 H   0  0  0  0  0  0
  -25.1285  -36.1946   25.0818 H   0  0  0  0  0  0
  -20.9989  -28.3158   24.1345 H   0  0  0  0  0  0
  -20.5899  -26.2305   23.3517 H   0  0  0  0  0  0
  -21.6623  -26.7537   22.0914 H   0  0  0  0  0  0
  -19.6802  -25.6217   21.1285 H   0  0  0  0  0  0
  -19.6531  -27.3078   20.6670 H   0  0  0  0  0  0
  -17.4131  -26.6503   21.4225 H   0  0  0  0  0  0
  -18.0469  -26.0082   22.9217 H   0  0  0  0  0  0
  -19.7993  -30.7264   24.2199 H   0  0  0  0  0  0
  -17.5053  -31.6237   24.5170 H   0  0  0  0  0  0
  -15.5369  -30.2950   23.7633 H   0  0  0  0  0  0
  -15.8717  -28.0744   22.7115 H   0  0  0  0  0  0
  -24.5875  -30.7093   25.7737 H   0  0  0  0  0  0
  -24.8856  -32.2909   26.4830 H   0  0  0  0  0  0
  -25.7970  -30.8928   27.0226 H   0  0  0  0  0  0
  -26.2922  -29.6758   24.1215 H   0  0  0  0  0  0
  -27.3983  -29.7261   25.4750 H   0  0  0  0  0  0
  -27.8818  -30.4281   23.9485 H   0  0  0  0  0  0
  -27.2680  -33.3646   26.2049 H   0  0  0  0  0  0
  -28.3860  -32.6858   25.0315 H   0  0  0  0  0  0
  -28.0726  -31.8470   26.5420 H   0  0  0  0  0  0
  -28.2598  -38.0105   24.7509 H   0  0  0  0  0  0
  -28.1071  -36.2622   24.6299 H   0  0  0  0  0  0
  -27.2305  -37.1455   25.8881 H   0  0  0  0  0  0
  -20.9442  -29.8876   21.6939 H   0  0  0  0  0  0
  -26.0189  -38.2860   24.1397 H   0  0  0  0  0  0
  -29.5799  -21.0298   22.7251 H   0  0  0  0  0  0
  -27.2889  -21.2423   15.5910 H   0  0  0  0  0  0
  -27.0197  -19.5706   16.0675 H   0  0  0  0  0  0
  -28.5993  -20.0698   15.4518 H   0  0  0  0  0  0
  -26.8476  -25.5617   22.2937 H   0  0  0  0  0  0
  -28.5322  -25.1670   22.6278 H   0  0  0  0  0  0
  -27.3607  -23.8818   22.3917 H   0  0  0  0  0  0
  -31.4116  -17.3809   20.6367 H   0  0  0  0  0  0
  -30.6465  -17.2570   19.1184 H   0  0  0  0  0  0
  -28.9493  -21.5127   17.4810 H   0  0  0  0  0  0
  -27.3516  -21.1116   18.0630 H   0  0  0  0  0  0
  -29.8489  -23.6895   20.9012 H   0  0  0  0  0  0
  -29.3771  -23.7665   19.2299 H   0  0  0  0  0  0
  -27.0647  -24.5846   20.0279 H   0  0  0  0  0  0
  -27.4155  -22.2653   20.5974 H   0  0  0  0  0  0
  -28.9062  -15.8481   20.7500 H   0  0  0  0  0  0
  1 25  1  0  0  0
  1 30  2  0  0  0
  1 83  1  0  0  0
  2  3  1  0  0  0
  2 25  1  0  0  0
  2 86  1  0  0  0
  2 87  1  0  0  0
  3  4  1  0  0  0
  3 88  1  0  0  0
  3 89  1  0  0  0
  4  5  1  0  0  0
  4 90  1  0  0  0
  4 91  1  0  0  0
  5  6  1  0  0  0
  5 26  1  0  0  0
  5 92  1  0  0  0
  6 25  1  0  0  0
  6 93  1  0  0  0
  6 94  1  0  0  0
  7  8  2  0  0  0
  7 26  1  0  0  0
  7 29  1  0  0  0
  8  9  1  0  0  0
  8 22  1  0  0  0
  9 10  1  0  0  0
  9 27  2  0  0  0
 10 11  2  0  0  0
 10 15  1  0  0  0
 11 12  1  0  0  0
 11 95  1  0  0  0
 12 13  2  0  0  0
 12 96  1  0  0  0
 13 14  1  0  0  0
 13 31  1  0  0  0
 14 15  2  0  0  0
 14 97  1  0  0  0
 15 98  1  0  0  0
 16 17  2  0  0  0
 16 21  1  0  0  0
 16 31  1  0  0  0
 17 18  1  0  0  0
 17 99  1  0  0  0
 18 19  2  0  0  0
 18100  1  0  0  0
 19 20  1  0  0  0
 19 24  1  0  0  0
 20 21  2  0  0  0
 20101  1  0  0  0
 21 23  1  0  0  0
 22 28  1  0  0  0
 22 32  2  0  0  0
 26 27  1  0  0  0
 28102  1  0  0  0
 28103  1  0  0  0
 29104  1  0  0  0
 29105  1  0  0  0
 33 34  1  0  0  0
 33 66  1  0  0  0
 33 70  2  0  0  0
 34 36  1  0  0  0
 34 59  1  0  0  0
 34106  1  0  0  0
 35 44  2  0  0  0
 35 45  1  0  0  0
 35 68  1  0  0  0
 36 56  1  0  0  0
 36107  1  0  0  0
 37 39  1  0  0  0
 37 47  1  0  0  0
 37 66  1  0  0  0
 37108  1  0  0  0
 38 43  2  0  0  0
 38 46  1  0  0  0
 38 47  1  0  0  0
 39 64  1  0  0  0
 39 67  2  0  0  0
 40 52  1  0  0  0
 40 53  2  0  0  0
 40 58  1  0  0  0
 41109  1  0  0  0
 41110  1  0  0  0
 41111  1  0  0  0
 41 48  1  0  0  0
 42 43  1  0  0  0
 42 66  1  0  0  0
 42112  1  0  0  0
 42113  1  0  0  0
 43 44  1  0  0  0
 44114  1  0  0  0
 45 46  2  0  0  0
 45115  1  0  0  0
 46116  1  0  0  0
 47117  1  0  0  0
 47118  1  0  0  0
 48 56  1  0  0  0
 48 65  1  0  0  0
 48119  1  0  0  0
 49 50  1  0  0  0
 49 53  1  0  0  0
 49 64  1  0  0  0
 49120  1  0  0  0
 50 51  1  0  0  0
 50121  1  0  0  0
 50122  1  0  0  0
 51 52  1  0  0  0
 51123  1  0  0  0
 51124  1  0  0  0
 52125  1  0  0  0
 52126  1  0  0  0
 53 54  1  0  0  0
 54 55  2  0  0  0
 54127  1  0  0  0
 55 57  1  0  0  0
 55128  1  0  0  0
 56 69  2  0  0  0
 57 58  2  0  0  0
 57129  1  0  0  0
 58130  1  0  0  0
 59 60  1  0  0  0
 59 61  1  0  0  0
 59 62  1  0  0  0
 60131  1  0  0  0
 60132  1  0  0  0
 60133  1  0  0  0
 61134  1  0  0  0
 61135  1  0  0  0
 61136  1  0  0  0
 62137  1  0  0  0
 62138  1  0  0  0
 62139  1  0  0  0
 63 65  1  0  0  0
 63140  1  0  0  0
 63141  1  0  0  0
 63142  1  0  0  0
 64143  1  0  0  0
 65144  1  0  0  0
 68 81  1  0  0  0
 71 73  2  0  0  0
 71 85  1  0  0  0
 71145  1  0  0  0
 72 73  1  0  0  0
 72 74  2  0  0  0
 72 75  1  0  0  0
 73 82  1  0  0  0
 74 78  1  0  0  0
 74 85  1  0  0  0
 75 79  1  0  0  0
 75 84  2  0  0  0
 76 79  1  0  0  0
 76146  1  0  0  0
 76147  1  0  0  0
 76148  1  0  0  0
 77149  1  0  0  0
 77150  1  0  0  0
 77151  1  0  0  0
 77 81  1  0  0  0
 78 83  1  0  0  0
 78152  1  0  0  0
 78153  1  0  0  0
 79154  1  0  0  0
 79155  1  0  0  0
 80 81  1  0  0  0
 80 82  1  0  0  0
 80156  1  0  0  0
 80157  1  0  0  0
 81158  1  0  0  0
 82159  1  0  0  0
 83160  1  0  0  0
M  ISO  4   1 100  68 101  81 101  83 100
M  END
> <chiral flag>
0

> <version>
0

> <s_m_source_file>
/data/baiqing/PycharmProjects/Reinvent-master-3.2/result/LINK_invent/BTK/process_docking_weight1_custom_product_contain_oxygen_bond_distance_aromatic_linkinvent_7_9_3/rearranged_h_0167.sdf

> <i_m_source_file_index>
14

> <r_mmod_Potential_Energy-OPLS-2005>
211.037811279297

> <r_mmod_Stretch_Energy-OPLS-2005>
127.410171508789

> <r_mmod_Bend_Energy-OPLS-2005>
194.048187255859

> <r_mmod_Torsional_Energy-OPLS-2005>
280.464630126953

> <r_mmod_Improper_Torsional_Energy-OPLS-2005>
10.4537038803101

> <r_mmod_Van_der_Waal_Energy-OPLS-2005>
122.315948486328

> <r_mmod_Electrostatic_Energy-OPLS-2005>
-402.561614990234

> <r_mmod_Solvation_Energy-OPLS-2005>
-215.513412475586

> <b_mmod_Minimization_Converged-OPLS-2005>
0

> <r_mmod_RMS_Derivative-OPLS-2005>
2.64721345901489

$$$$
14
                    3D
 Structure written by MMmdl.
156164  0  0  1  0            999 V2000
  -30.5664  -14.6241   20.5844 C   0  0  0  0  0  0
  -30.4062  -12.3855   19.4843 C   0  0  0  0  0  0
  -29.4907  -12.5028   18.2382 C   0  0  0  0  0  0
  -28.0010  -12.3669   18.6101 C   0  0  0  0  0  0
  -27.6357  -13.2063   19.8617 C   0  0  2  0  0  0
  -28.6521  -13.0067   21.0003 C   0  0  0  0  0  0
  -25.2432  -13.8170   20.5680 C   0  0  0  0  0  0
  -24.1709  -13.0431   20.9235 C   0  0  0  0  0  0
  -24.6278  -11.6863   20.8757 C   0  0  0  0  0  0
  -23.8971  -10.4237   21.0400 C   0  0  0  0  0  0
  -24.3523   -9.4207   21.9226 C   0  0  0  0  0  0
  -23.6247   -8.2221   22.0735 C   0  0  0  0  0  0
  -22.4260   -8.0231   21.3512 C   0  0  0  0  0  0
  -21.9863   -9.0200   20.4646 C   0  0  0  0  0  0
  -22.7123  -10.2117   20.3090 C   0  0  0  0  0  0
  -21.6824   -6.0718   22.5283 C   0  0  0  0  0  0
  -21.3990   -6.5623   23.8216 C   0  0  0  0  0  0
  -21.3665   -5.6786   24.9177 C   0  0  0  0  0  0
  -21.6048   -4.3046   24.7237 C   0  0  0  0  0  0
  -21.8821   -3.8137   23.4355 C   0  0  0  0  0  0
  -21.9172   -4.6946   22.3407 C   0  0  0  0  0  0
  -22.7777  -13.5292   21.1911 C   0  0  0  0  0  0
  -22.1648   -4.2131   21.0987 F   0  0  0  0  0  0
  -21.5640   -3.4526   25.7750 F   0  0  0  0  0  0
  -29.9592  -13.3953   20.4731 N   0  0  0  0  0  0
  -26.2781  -12.9290   20.3217 N   0  0  0  0  0  0
  -25.9166  -11.6441   20.5682 N   0  0  0  0  0  0
  -22.0416  -12.8266   22.0423 N   0  0  0  0  0  0
  -25.4486  -15.1855   20.4187 N   0  0  0  0  0  0
  -31.7283  -14.7490   20.1831 O   0  0  0  0  0  0
  -21.6592   -6.8865   21.4249 O   0  0  0  0  0  0
  -22.3432  -14.5587   20.6754 O   0  0  0  0  0  0
  -24.6333  -31.8658   23.2102 C   0  0  0  0  0  0
  -25.9164  -32.4808   23.8411 C   0  0  1  0  0  0
  -27.1790  -27.2673   20.1460 C   0  0  0  0  0  0
  -25.6027  -33.8611   24.2366 N   0  0  0  0  0  0
  -23.4175  -30.4791   21.5642 C   0  0  2  0  0  0
  -24.8498  -28.9193   20.1388 C   0  0  0  0  0  0
  -22.7391  -29.4680   22.5276 C   0  0  0  0  0  0
  -18.0428  -28.1367   22.7874 C   0  0  0  0  0  0
  -24.1476  -36.7275   23.2656 C   0  0  0  0  0  0
  -25.9645  -30.7754   21.3893 C   0  0  0  0  0  0
  -26.0269  -29.3889   20.7430 C   0  0  0  0  0  0
  -27.2031  -28.5689   20.7430 C   0  0  0  0  0  0
  -25.9829  -26.8632   19.5230 C   0  0  0  0  0  0
  -24.8233  -27.6540   19.5532 C   0  0  0  0  0  0
  -23.6228  -29.7912   20.1880 C   0  0  0  0  0  0
  -25.4109  -36.3124   24.0361 C   0  0  1  0  0  0
  -20.5900  -28.3421   23.1479 C   0  0  2  0  0  0
  -20.6640  -26.9252   22.5563 C   0  0  0  0  0  0
  -19.6186  -26.6492   21.4832 C   0  0  0  0  0  0
  -18.1990  -26.8119   22.0488 C   0  0  0  0  0  0
  -19.1530  -28.8616   23.2871 C   0  0  0  0  0  0
  -18.9432  -30.0866   23.9353 C   0  0  0  0  0  0
  -17.6646  -30.6366   24.0766 C   0  0  0  0  0  0
  -25.9059  -34.9493   23.5166 C   0  0  0  0  0  0
  -16.5646  -29.9169   23.5848 C   0  0  0  0  0  0
  -16.7436  -28.6737   22.9574 C   0  0  0  0  0  0
  -26.4480  -31.6582   25.0800 C   0  0  0  0  0  0
  -25.3676  -31.3729   26.1523 C   0  0  0  0  0  0
  -27.0340  -30.3022   24.6244 C   0  0  0  0  0  0
  -27.6022  -32.4310   25.7541 C   0  0  0  0  0  0
  -27.5577  -37.1815   24.8477 C   0  0  0  0  0  0
  -21.4106  -29.3056   22.4091 N   0  0  0  0  0  0
  -26.4308  -37.3805   23.9400 N   0  0  0  0  0  0
  -24.6990  -31.0496   22.1136 N   0  0  0  0  0  0
  -23.4184  -28.8114   23.3316 O   0  0  0  0  0  0
  -28.2065  -26.3147   20.1851 O   0  0  0  0  0  0
  -26.5579  -34.8960   22.4713 O   0  0  0  0  0  0
  -23.5423  -32.1627   23.7403 O   0  0  0  0  0  0
  -26.3498  -18.6238   22.4343 C   0  0  0  0  0  0
  -27.3682  -17.7207   22.0825 C   0  0  0  0  0  0
  -26.2832  -19.9095   21.8439 C   0  0  0  0  0  0
  -28.2033  -19.3254   20.4503 C   0  0  0  0  0  0
  -28.3850  -18.0829   21.1686 C   0  0  0  0  0  0
  -27.1202  -20.2360   20.7376 C   0  0  0  0  0  0
  -29.6028  -17.1730   20.9904 C   0  0  0  0  0  0
  -29.6842  -15.7927   21.0346 C   0  0  0  0  0  0
  -28.1715  -23.6084   20.0594 C   0  0  0  0  0  0
  -25.1851  -20.9884   19.5642 C   0  0  0  0  0  0
  -27.0319  -22.6693   19.4636 C   0  0  0  0  0  0
  -27.7945  -24.9933   20.7807 C   0  0  0  0  0  0
  -26.6176  -21.2575   19.8637 N   0  0  0  0  0  0
  -29.3524  -23.2652   19.9266 O   0  0  0  0  0  0
  -31.4507  -12.5093   19.1970 H   0  0  0  0  0  0
  -30.3251  -11.3780   19.8930 H   0  0  0  0  0  0
  -29.7483  -11.7459   17.4951 H   0  0  0  0  0  0
  -29.6470  -13.4650   17.7491 H   0  0  0  0  0  0
  -27.7868  -11.3165   18.7813 H   0  0  0  0  0  0
  -27.3666  -12.6597   17.7714 H   0  0  0  0  0  0
  -27.6717  -14.2591   19.5664 H   0  0  0  0  0  0
  -28.6380  -11.9532   21.2884 H   0  0  0  0  0  0
  -28.3646  -13.5699   21.8904 H   0  0  0  0  0  0
  -25.2678   -9.5655   22.4779 H   0  0  0  0  0  0
  -23.9956   -7.4584   22.7419 H   0  0  0  0  0  0
  -21.0799   -8.8713   19.8917 H   0  0  0  0  0  0
  -22.3614  -10.9643   19.6173 H   0  0  0  0  0  0
  -21.1980   -7.6121   23.9724 H   0  0  0  0  0  0
  -21.1493   -6.0505   25.9092 H   0  0  0  0  0  0
  -22.0602   -2.7587   23.2852 H   0  0  0  0  0  0
  -22.3931  -11.9932   22.4836 H   0  0  0  0  0  0
  -21.1080  -13.1319   22.2699 H   0  0  0  0  0  0
  -24.7352  -15.8879   20.5719 H   0  0  0  0  0  0
  -26.3540  -15.5759   20.1907 H   0  0  0  0  0  0
  -26.7360  -32.5414   23.1214 H   0  0  0  0  0  0
  -25.0158  -33.9747   25.0517 H   0  0  0  0  0  0
  -22.7439  -31.3244   21.4081 H   0  0  0  0  0  0
  -23.3775  -35.9566   23.3311 H   0  0  0  0  0  0
  -24.3567  -36.8856   22.2070 H   0  0  0  0  0  0
  -23.7191  -37.6480   23.6634 H   0  0  0  0  0  0
  -26.1041  -31.5167   20.5988 H   0  0  0  0  0  0
  -26.8709  -30.8317   21.9959 H   0  0  0  0  0  0
  -28.0997  -28.8574   21.2731 H   0  0  0  0  0  0
  -25.8961  -25.8900   19.0738 H   0  0  0  0  0  0
  -23.9031  -27.2639   19.1425 H   0  0  0  0  0  0
  -23.7202  -30.5489   19.4120 H   0  0  0  0  0  0
  -22.7336  -29.2019   19.9373 H   0  0  0  0  0  0
  -25.1275  -36.2003   25.0852 H   0  0  0  0  0  0
  -21.0004  -28.2585   24.1531 H   0  0  0  0  0  0
  -20.4870  -26.2280   23.3782 H   0  0  0  0  0  0
  -21.6646  -26.6697   22.1977 H   0  0  0  0  0  0
  -19.7730  -25.6797   20.9977 H   0  0  0  0  0  0
  -19.7743  -27.3658   20.6656 H   0  0  0  0  0  0
  -17.4734  -26.7572   21.2292 H   0  0  0  0  0  0
  -17.9708  -25.9775   22.7099 H   0  0  0  0  0  0
  -19.7834  -30.6247   24.3619 H   0  0  0  0  0  0
  -17.5304  -31.6108   24.5434 H   0  0  0  0  0  0
  -15.5825  -30.3559   23.6208 H   0  0  0  0  0  0
  -15.8856  -28.1665   22.5327 H   0  0  0  0  0  0
  -24.5865  -30.7048   25.7874 H   0  0  0  0  0  0
  -24.8837  -32.2880   26.4933 H   0  0  0  0  0  0
  -25.7948  -30.8950   27.0349 H   0  0  0  0  0  0
  -26.2988  -29.6823   24.1123 H   0  0  0  0  0  0
  -27.3937  -29.7166   25.4708 H   0  0  0  0  0  0
  -27.8855  -30.4364   23.9583 H   0  0  0  0  0  0
  -27.2674  -33.3647   26.2055 H   0  0  0  0  0  0
  -28.3810  -32.6812   25.0332 H   0  0  0  0  0  0
  -28.0740  -31.8516   26.5479 H   0  0  0  0  0  0
  -28.2627  -38.0097   24.7527 H   0  0  0  0  0  0
  -28.1052  -36.2615   24.6289 H   0  0  0  0  0  0
  -27.2299  -37.1470   25.8899 H   0  0  0  0  0  0
  -20.9087  -29.9207   21.7856 H   0  0  0  0  0  0
  -26.0180  -38.2880   24.1380 H   0  0  0  0  0  0
  -25.5904  -18.3550   23.1592 H   0  0  0  0  0  0
  -27.3657  -16.7557   22.5715 H   0  0  0  0  0  0
  -25.4679  -20.5719   22.1163 H   0  0  0  0  0  0
  -28.8640  -19.5393   19.6206 H   0  0  0  0  0  0
  -30.4994  -17.7688   20.8502 H   0  0  0  0  0  0
  -30.6415  -16.0381   21.4508 H   0  0  0  0  0  0
  -24.9258  -21.3307   18.5760 H   0  0  0  0  0  0
  -24.8735  -19.9273   19.5874 H   0  0  0  0  0  0
  -24.5251  -21.5530   20.2385 H   0  0  0  0  0  0
  -27.1877  -22.6495   18.3748 H   0  0  0  0  0  0
  -26.1432  -23.2851   19.5547 H   0  0  0  0  0  0
  -28.3130  -24.9843   21.7442 H   0  0  0  0  0  0
  -26.7366  -25.0021   21.0318 H   0  0  0  0  0  0
  1 25  1  0  0  0
  1 30  2  0  0  0
  1 78  1  0  0  0
  2  3  1  0  0  0
  2 25  1  0  0  0
  2 85  1  0  0  0
  2 86  1  0  0  0
  3  4  1  0  0  0
  3 87  1  0  0  0
  3 88  1  0  0  0
  4  5  1  0  0  0
  4 89  1  0  0  0
  4 90  1  0  0  0
  5  6  1  0  0  0
  5 26  1  0  0  0
  5 91  1  0  0  0
  6 25  1  0  0  0
  6 92  1  0  0  0
  6 93  1  0  0  0
  7  8  2  0  0  0
  7 26  1  0  0  0
  7 29  1  0  0  0
  8  9  1  0  0  0
  8 22  1  0  0  0
  9 10  1  0  0  0
  9 27  2  0  0  0
 10 11  2  0  0  0
 10 15  1  0  0  0
 11 12  1  0  0  0
 11 94  1  0  0  0
 12 13  2  0  0  0
 12 95  1  0  0  0
 13 14  1  0  0  0
 13 31  1  0  0  0
 14 15  2  0  0  0
 14 96  1  0  0  0
 15 97  1  0  0  0
 16 17  2  0  0  0
 16 21  1  0  0  0
 16 31  1  0  0  0
 17 18  1  0  0  0
 17 98  1  0  0  0
 18 19  2  0  0  0
 18 99  1  0  0  0
 19 20  1  0  0  0
 19 24  1  0  0  0
 20 21  2  0  0  0
 20100  1  0  0  0
 21 23  1  0  0  0
 22 28  1  0  0  0
 22 32  2  0  0  0
 26 27  1  0  0  0
 28101  1  0  0  0
 28102  1  0  0  0
 29103  1  0  0  0
 29104  1  0  0  0
 33 34  1  0  0  0
 33 66  1  0  0  0
 33 70  2  0  0  0
 34 36  1  0  0  0
 34 59  1  0  0  0
 34105  1  0  0  0
 35 44  2  0  0  0
 35 45  1  0  0  0
 35 68  1  0  0  0
 36 56  1  0  0  0
 36106  1  0  0  0
 37 39  1  0  0  0
 37 47  1  0  0  0
 37 66  1  0  0  0
 37107  1  0  0  0
 38 43  2  0  0  0
 38 46  1  0  0  0
 38 47  1  0  0  0
 39 64  1  0  0  0
 39 67  2  0  0  0
 40 52  1  0  0  0
 40 53  2  0  0  0
 40 58  1  0  0  0
 41108  1  0  0  0
 41109  1  0  0  0
 41110  1  0  0  0
 41 48  1  0  0  0
 42 43  1  0  0  0
 42 66  1  0  0  0
 42111  1  0  0  0
 42112  1  0  0  0
 43 44  1  0  0  0
 44113  1  0  0  0
 45 46  2  0  0  0
 45114  1  0  0  0
 46115  1  0  0  0
 47116  1  0  0  0
 47117  1  0  0  0
 48 56  1  0  0  0
 48 65  1  0  0  0
 48118  1  0  0  0
 49 50  1  0  0  0
 49 53  1  0  0  0
 49 64  1  0  0  0
 49119  1  0  0  0
 50 51  1  0  0  0
 50120  1  0  0  0
 50121  1  0  0  0
 51 52  1  0  0  0
 51122  1  0  0  0
 51123  1  0  0  0
 52124  1  0  0  0
 52125  1  0  0  0
 53 54  1  0  0  0
 54 55  2  0  0  0
 54126  1  0  0  0
 55 57  1  0  0  0
 55127  1  0  0  0
 56 69  2  0  0  0
 57 58  2  0  0  0
 57128  1  0  0  0
 58129  1  0  0  0
 59 60  1  0  0  0
 59 61  1  0  0  0
 59 62  1  0  0  0
 60130  1  0  0  0
 60131  1  0  0  0
 60132  1  0  0  0
 61133  1  0  0  0
 61134  1  0  0  0
 61135  1  0  0  0
 62136  1  0  0  0
 62137  1  0  0  0
 62138  1  0  0  0
 63 65  1  0  0  0
 63139  1  0  0  0
 63140  1  0  0  0
 63141  1  0  0  0
 64142  1  0  0  0
 65143  1  0  0  0
 68 82  1  0  0  0
 71 72  2  0  0  0
 71 73  1  0  0  0
 71144  1  0  0  0
 72 75  1  0  0  0
 72145  1  0  0  0
 73 76  2  0  0  0
 73146  1  0  0  0
 74 75  2  0  0  0
 74 76  1  0  0  0
 74147  1  0  0  0
 75 77  1  0  0  0
 76 83  1  0  0  0
 77 78  2  0  0  0
 77148  1  0  0  0
 78149  1  0  0  0
 79 81  1  0  0  0
 79 82  1  0  0  0
 79 84  2  0  0  0
 80 83  1  0  0  0
 80150  1  0  0  0
 80151  1  0  0  0
 80152  1  0  0  0
 81 83  1  0  0  0
 81153  1  0  0  0
 81154  1  0  0  0
 82155  1  0  0  0
 82156  1  0  0  0
M  ISO  4   1 100  68 101  78 100  82 101
M  END
> <chiral flag>
0

> <version>
0

> <s_m_source_file>
/data/baiqing/PycharmProjects/Reinvent-master-3.2/result/LINK_invent/BTK/process_docking_weight1_custom_product_contain_oxygen_bond_distance_aromatic_linkinvent_7_9_3/rearranged_h_0167.sdf

> <i_m_source_file_index>
15

> <r_mmod_Potential_Energy-OPLS-2005>
625.513305664062

> <r_mmod_Stretch_Energy-OPLS-2005>
120.966651916504

> <r_mmod_Bend_Energy-OPLS-2005>
417.379425048828

> <r_mmod_Torsional_Energy-OPLS-2005>
314.869262695312

> <r_mmod_Improper_Torsional_Energy-OPLS-2005>
41.6037750244141

> <r_mmod_Van_der_Waal_Energy-OPLS-2005>
156.091293334961

> <r_mmod_Electrostatic_Energy-OPLS-2005>
-274.818023681641

> <r_mmod_Solvation_Energy-OPLS-2005>
-225.208892822266

> <b_mmod_Minimization_Converged-OPLS-2005>
0

> <r_mmod_RMS_Derivative-OPLS-2005>
25.6553821563721

$$$$
15
                    3D
 Structure written by MMmdl.
155163  0  0  1  0            999 V2000
  -30.1662  -14.2703   20.9153 C   0  0  0  0  0  0
  -30.6849  -12.4142   19.2481 C   0  0  0  0  0  0
  -29.7716  -12.5195   17.9743 C   0  0  0  0  0  0
  -28.2596  -12.3500   18.2133 C   0  0  0  0  0  0
  -28.0004  -13.1420   19.4411 C   0  0  2  0  0  0
  -28.7991  -12.4176   20.5719 C   0  0  0  0  0  0
  -25.1468  -14.2802   19.9450 C   0  0  0  0  0  0
  -24.0302  -13.4873   21.0780 C   0  0  0  0  0  0
  -24.7400  -11.8938   21.6860 C   0  0  0  0  0  0
  -23.9655  -10.5808   21.4849 C   0  0  0  0  0  0
  -24.3952   -9.4321   22.1734 C   0  0  0  0  0  0
  -23.6739   -8.2160   22.1430 C   0  0  0  0  0  0
  -22.4914   -8.0811   21.3835 C   0  0  0  0  0  0
  -22.1302   -9.1599   20.5467 C   0  0  0  0  0  0
  -22.8680  -10.3791   20.5788 C   0  0  0  0  0  0
  -21.6951   -6.1013   22.5066 C   0  0  0  0  0  0
  -21.4041   -6.5809   23.8046 C   0  0  0  0  0  0
  -21.3619   -5.6936   24.9001 C   0  0  0  0  0  0
  -21.6000   -4.3198   24.7078 C   0  0  0  0  0  0
  -21.8764   -3.8344   23.4171 C   0  0  0  0  0  0
  -21.9192   -4.7187   22.3230 C   0  0  0  0  0  0
  -22.6067  -13.7786   21.2280 C   0  0  0  0  0  0
  -22.1693   -4.2315   21.0849 F   0  0  0  0  0  0
  -21.5581   -3.4657   25.7581 F   0  0  0  0  0  0
  -30.0399  -13.0322   20.4151 N   0  0  0  0  0  0
  -26.7229  -13.1061   19.8071 N   0  0  0  0  0  0
  -26.3610  -11.6733   21.0027 N   0  0  0  0  0  0
  -21.9149  -12.9840   22.0377 N   0  0  0  0  0  0
  -25.1997  -15.5781   19.5549 N   0  0  0  0  0  0
  -31.1915  -14.9148   20.5898 O   0  0  0  0  0  0
  -21.7119   -6.9383   21.4049 O   0  0  0  0  0  0
  -22.1197  -14.7134   20.6167 O   0  0  0  0  0  0
  -24.6489  -31.8435   23.1905 C   0  0  0  0  0  0
  -25.9245  -32.4694   23.8295 C   0  0  1  0  0  0
  -27.0612  -27.0204   20.2548 C   0  0  0  0  0  0
  -25.5977  -33.8507   24.2204 N   0  0  0  0  0  0
  -23.4506  -30.4723   21.5356 C   0  0  2  0  0  0
  -24.8809  -28.9046   20.0938 C   0  0  0  0  0  0
  -22.7596  -29.4536   22.4797 C   0  0  0  0  0  0
  -18.0300  -28.1404   22.8463 C   0  0  0  0  0  0
  -24.1482  -36.7249   23.2644 C   0  0  0  0  0  0
  -26.0119  -30.6877   21.4042 C   0  0  0  0  0  0
  -26.0589  -29.2938   20.7473 C   0  0  0  0  0  0
  -27.1694  -28.3658   20.8081 C   0  0  0  0  0  0
  -25.9085  -26.7764   19.4942 C   0  0  0  0  0  0
  -24.8300  -27.6741   19.4303 C   0  0  0  0  0  0
  -23.6765  -29.8277   20.1428 C   0  0  0  0  0  0
  -25.4119  -36.3054   24.0328 C   0  0  1  0  0  0
  -20.5925  -28.3732   23.1205 C   0  0  2  0  0  0
  -20.6794  -26.9424   22.5394 C   0  0  0  0  0  0
  -19.5764  -26.6378   21.5209 C   0  0  0  0  0  0
  -18.1942  -26.7935   22.1616 C   0  0  0  0  0  0
  -19.1565  -28.8883   23.2827 C   0  0  0  0  0  0
  -18.9474  -30.1479   23.8862 C   0  0  0  0  0  0
  -17.6473  -30.6594   24.0551 C   0  0  0  0  0  0
  -25.9076  -34.9423   23.5074 C   0  0  0  0  0  0
  -16.5359  -29.9086   23.6343 C   0  0  0  0  0  0
  -16.7287  -28.6506   23.0358 C   0  0  0  0  0  0
  -26.4542  -31.6589   25.0763 C   0  0  0  0  0  0
  -25.3695  -31.3785   26.1434 C   0  0  0  0  0  0
  -27.0423  -30.2981   24.6408 C   0  0  0  0  0  0
  -27.6071  -32.4366   25.7537 C   0  0  0  0  0  0
  -27.5582  -37.1789   24.8471 C   0  0  0  0  0  0
  -21.4281  -29.3049   22.3561 N   0  0  0  0  0  0
  -26.4289  -37.3770   23.9416 N   0  0  0  0  0  0
  -24.7246  -31.0258   22.0958 N   0  0  0  0  0  0
  -23.4228  -28.8044   23.2933 O   0  0  0  0  0  0
  -27.9017  -25.8627   20.4377 O   0  0  0  0  0  0
  -26.5661  -34.8920   22.4657 O   0  0  0  0  0  0
  -23.5599  -32.1342   23.7083 O   0  0  0  0  0  0
  -27.4797  -16.2637   21.5058 C   0  0  0  0  0  0
  -26.2360  -13.8346   21.8779 C   0  0  0  0  0  0
  -27.5276  -14.8022   21.6676 C   0  0  0  0  0  0
  -26.4849  -17.1401   22.0012 C   0  0  0  0  0  0
  -25.5809  -16.2939   22.7553 C   0  0  0  0  0  0
  -25.5365  -14.8069   22.7763 C   0  0  0  0  0  0
  -26.9061  -21.5109   21.4906 C   0  0  0  0  0  0
  -27.5843  -22.9294   20.7013 C   0  0  0  0  0  0
  -27.1784  -19.8587   21.2105 C   0  0  0  0  0  0
  -27.2311  -24.5444   21.0518 C   0  0  0  0  0  0
  -24.6737  -16.9740   23.5719 N   0  0  0  0  0  0
  -29.0763  -14.6498   21.7679 N   0  0  0  0  0  0
  -26.4445  -18.6570   21.9676 N   0  0  0  0  0  0
  -26.1012  -21.7428   22.4016 O   0  0  0  0  0  0
  -28.3885  -22.7189   19.7824 O   0  0  0  0  0  0
  -24.6045  -14.2816   23.6152 F   0  0  0  0  0  0
  -31.6502  -12.8821   19.0476 H   0  0  0  0  0  0
  -30.9123  -11.3682   19.4624 H   0  0  0  0  0  0
  -30.1094  -11.8171   17.2108 H   0  0  0  0  0  0
  -29.9270  -13.5071   17.5370 H   0  0  0  0  0  0
  -27.9899  -11.2997   18.3340 H   0  0  0  0  0  0
  -27.6908  -12.7366   17.3662 H   0  0  0  0  0  0
  -28.2222  -14.1901   19.2333 H   0  0  0  0  0  0
  -28.8670  -11.3422   20.3894 H   0  0  0  0  0  0
  -28.4877  -12.4203   21.6175 H   0  0  0  0  0  0
  -25.2682   -9.5001   22.8074 H   0  0  0  0  0  0
  -24.0283   -7.3942   22.7466 H   0  0  0  0  0  0
  -21.2679   -9.0733   19.9014 H   0  0  0  0  0  0
  -22.5425  -11.1943   19.9491 H   0  0  0  0  0  0
  -21.2109   -7.6322   23.9612 H   0  0  0  0  0  0
  -21.1422   -6.0660   25.8898 H   0  0  0  0  0  0
  -22.0527   -2.7816   23.2645 H   0  0  0  0  0  0
  -20.9281  -13.1494   22.1750 H   0  0  0  0  0  0
  -22.3559  -12.2326   22.5460 H   0  0  0  0  0  0
  -24.4189  -16.2140   19.6606 H   0  0  0  0  0  0
  -25.9491  -15.9653   18.9945 H   0  0  0  0  0  0
  -26.7298  -32.5262   23.0999 H   0  0  0  0  0  0
  -25.0115  -33.9623   25.0346 H   0  0  0  0  0  0
  -22.7556  -31.3015   21.3929 H   0  0  0  0  0  0
  -23.3783  -35.9544   23.3303 H   0  0  0  0  0  0
  -24.3555  -36.8886   22.2058 H   0  0  0  0  0  0
  -23.7188  -37.6428   23.6671 H   0  0  0  0  0  0
  -26.1893  -31.4366   20.6306 H   0  0  0  0  0  0
  -26.8772  -30.7261   22.0542 H   0  0  0  0  0  0
  -28.0501  -28.6284   21.3778 H   0  0  0  0  0  0
  -25.7882  -25.8187   19.0065 H   0  0  0  0  0  0
  -23.9384  -27.3945   18.8859 H   0  0  0  0  0  0
  -23.8331  -30.6150   19.4040 H   0  0  0  0  0  0
  -22.7849  -29.2919   19.8142 H   0  0  0  0  0  0
  -25.1299  -36.1906   25.0824 H   0  0  0  0  0  0
  -21.0014  -28.3340   24.1329 H   0  0  0  0  0  0
  -20.5699  -26.2339   23.3620 H   0  0  0  0  0  0
  -21.6654  -26.7427   22.1178 H   0  0  0  0  0  0
  -19.6929  -25.6282   21.1264 H   0  0  0  0  0  0
  -19.6716  -27.3166   20.6723 H   0  0  0  0  0  0
  -17.4210  -26.6663   21.4022 H   0  0  0  0  0  0
  -18.0339  -26.0090   22.9028 H   0  0  0  0  0  0
  -19.7951  -30.7301   24.2223 H   0  0  0  0  0  0
  -17.5021  -31.6271   24.5155 H   0  0  0  0  0  0
  -15.5357  -30.2970   23.7702 H   0  0  0  0  0  0
  -15.8681  -28.0819   22.7103 H   0  0  0  0  0  0
  -24.5874  -30.7144   25.7729 H   0  0  0  0  0  0
  -24.8878  -32.2964   26.4818 H   0  0  0  0  0  0
  -25.7944  -30.8969   27.0249 H   0  0  0  0  0  0
  -26.3066  -29.6677   24.1402 H   0  0  0  0  0  0
  -27.3982  -29.7331   25.5035 H   0  0  0  0  0  0
  -27.8999  -30.4208   23.9785 H   0  0  0  0  0  0
  -27.2680  -33.3686   26.2074 H   0  0  0  0  0  0
  -28.3893  -32.6904   25.0365 H   0  0  0  0  0  0
  -28.0738  -31.8534   26.5490 H   0  0  0  0  0  0
  -28.2601  -38.0089   24.7546 H   0  0  0  0  0  0
  -28.1082  -36.2627   24.6269 H   0  0  0  0  0  0
  -27.2303  -37.1398   25.8876 H   0  0  0  0  0  0
  -20.9496  -29.8789   21.6762 H   0  0  0  0  0  0
  -26.0175  -38.2849   24.1419 H   0  0  0  0  0  0
  -28.3533  -16.7806   21.1303 H   0  0  0  0  0  0
  -25.1037  -12.4996   20.0389 H   0  0  0  0  0  0
  -28.2541  -19.7018   21.3195 H   0  0  0  0  0  0
  -26.9812  -19.7173   20.1465 H   0  0  0  0  0  0
  -27.3844  -24.6319   22.1269 H   0  0  0  0  0  0
  -26.1528  -24.6304   20.9317 H   0  0  0  0  0  0
  -23.7465  -16.9475   23.1648 H   0  0  0  0  0  0
  -24.5624  -16.4659   24.4428 H   0  0  0  0  0  0
  -29.4419  -15.4033   22.3309 H   0  0  0  0  0  0
  -25.6811  -18.9933   22.5522 H   0  0  0  0  0  0
  1 25  1  0  0  0
  1 30  2  0  0  0
  1 82  1  0  0  0
  2  3  1  0  0  0
  2 25  1  0  0  0
  2 87  1  0  0  0
  2 88  1  0  0  0
  3  4  1  0  0  0
  3 89  1  0  0  0
  3 90  1  0  0  0
  4  5  1  0  0  0
  4 91  1  0  0  0
  4 92  1  0  0  0
  5  6  1  0  0  0
  5 26  1  0  0  0
  5 93  1  0  0  0
  6 25  1  0  0  0
  6 94  1  0  0  0
  6 95  1  0  0  0
  7  8  2  0  0  0
  7 26  1  0  0  0
  7 29  1  0  0  0
  8  9  1  0  0  0
  8 22  1  0  0  0
  9 10  1  0  0  0
  9 27  2  0  0  0
 10 11  2  0  0  0
 10 15  1  0  0  0
 11 12  1  0  0  0
 11 96  1  0  0  0
 12 13  2  0  0  0
 12 97  1  0  0  0
 13 14  1  0  0  0
 13 31  1  0  0  0
 14 15  2  0  0  0
 14 98  1  0  0  0
 15 99  1  0  0  0
 16 17  2  0  0  0
 16 21  1  0  0  0
 16 31  1  0  0  0
 17 18  1  0  0  0
 17100  1  0  0  0
 18 19  2  0  0  0
 18101  1  0  0  0
 19 20  1  0  0  0
 19 24  1  0  0  0
 20 21  2  0  0  0
 20102  1  0  0  0
 21 23  1  0  0  0
 22 28  1  0  0  0
 22 32  2  0  0  0
 26 27  1  0  0  0
 28103  1  0  0  0
 28104  1  0  0  0
 29105  1  0  0  0
 29106  1  0  0  0
 33 34  1  0  0  0
 33 66  1  0  0  0
 33 70  2  0  0  0
 34 36  1  0  0  0
 34 59  1  0  0  0
 34107  1  0  0  0
 35 44  2  0  0  0
 35 45  1  0  0  0
 35 68  1  0  0  0
 36 56  1  0  0  0
 36108  1  0  0  0
 37 39  1  0  0  0
 37 47  1  0  0  0
 37 66  1  0  0  0
 37109  1  0  0  0
 38 43  2  0  0  0
 38 46  1  0  0  0
 38 47  1  0  0  0
 39 64  1  0  0  0
 39 67  2  0  0  0
 40 52  1  0  0  0
 40 53  2  0  0  0
 40 58  1  0  0  0
 41110  1  0  0  0
 41111  1  0  0  0
 41112  1  0  0  0
 41 48  1  0  0  0
 42 43  1  0  0  0
 42 66  1  0  0  0
 42113  1  0  0  0
 42114  1  0  0  0
 43 44  1  0  0  0
 44115  1  0  0  0
 45 46  2  0  0  0
 45116  1  0  0  0
 46117  1  0  0  0
 47118  1  0  0  0
 47119  1  0  0  0
 48 56  1  0  0  0
 48 65  1  0  0  0
 48120  1  0  0  0
 49 50  1  0  0  0
 49 53  1  0  0  0
 49 64  1  0  0  0
 49121  1  0  0  0
 50 51  1  0  0  0
 50122  1  0  0  0
 50123  1  0  0  0
 51 52  1  0  0  0
 51124  1  0  0  0
 51125  1  0  0  0
 52126  1  0  0  0
 52127  1  0  0  0
 53 54  1  0  0  0
 54 55  2  0  0  0
 54128  1  0  0  0
 55 57  1  0  0  0
 55129  1  0  0  0
 56 69  2  0  0  0
 57 58  2  0  0  0
 57130  1  0  0  0
 58131  1  0  0  0
 59 60  1  0  0  0
 59 61  1  0  0  0
 59 62  1  0  0  0
 60132  1  0  0  0
 60133  1  0  0  0
 60134  1  0  0  0
 61135  1  0  0  0
 61136  1  0  0  0
 61137  1  0  0  0
 62138  1  0  0  0
 62139  1  0  0  0
 62140  1  0  0  0
 63 65  1  0  0  0
 63141  1  0  0  0
 63142  1  0  0  0
 63143  1  0  0  0
 64144  1  0  0  0
 65145  1  0  0  0
 68 80  1  0  0  0
 71 73  2  0  0  0
 71 74  1  0  0  0
 71146  1  0  0  0
 72 73  1  0  0  0
 72 76  2  0  0  0
 72147  1  0  0  0
 73 82  1  0  0  0
 74 75  2  0  0  0
 74 83  1  0  0  0
 75 76  1  0  0  0
 75 81  1  0  0  0
 76 86  1  0  0  0
 77 78  1  0  0  0
 77 79  1  0  0  0
 77 84  2  0  0  0
 78 80  1  0  0  0
 78 85  2  0  0  0
 79 83  1  0  0  0
 79148  1  0  0  0
 79149  1  0  0  0
 80150  1  0  0  0
 80151  1  0  0  0
 81152  1  0  0  0
 81153  1  0  0  0
 82154  1  0  0  0
 83155  1  0  0  0
M  ISO  4   1 100  68 101  80 101  82 100
M  END
> <chiral flag>
0

> <version>
0

> <s_m_source_file>
/data/baiqing/PycharmProjects/Reinvent-master-3.2/result/LINK_invent/BTK/process_docking_weight1_custom_product_contain_oxygen_bond_distance_aromatic_linkinvent_7_9_3/rearranged_h_0167.sdf

> <i_m_source_file_index>
16

> <r_mmod_Potential_Energy-OPLS-2005>
10090.501953125

> <r_mmod_Stretch_Energy-OPLS-2005>
6051.1142578125

> <r_mmod_Bend_Energy-OPLS-2005>
570.027526855469

> <r_mmod_Torsional_Energy-OPLS-2005>
559.950439453125

> <r_mmod_Improper_Torsional_Energy-OPLS-2005>
52.3679847717285

> <r_mmod_Van_der_Waal_Energy-OPLS-2005>
2574.58935546875

> <r_mmod_Electrostatic_Energy-OPLS-2005>
-320.615020751953

> <r_mmod_Solvation_Energy-OPLS-2005>
-246.369491577148

> <b_mmod_Minimization_Converged-OPLS-2005>
0

> <r_mmod_RMS_Derivative-OPLS-2005>
5.49858236312866

$$$$
16
                    3D
 Structure written by MMmdl.
164172  0  0  1  0            999 V2000
  -30.7364  -14.4483   20.5206 C   0  0  0  0  0  0
  -30.4104  -12.2783   19.4335 C   0  0  0  0  0  0
  -29.4973  -12.4946   18.2111 C   0  0  0  0  0  0
  -28.0159  -12.3697   18.6161 C   0  0  0  0  0  0
  -27.6613  -13.2155   19.8715 C   0  0  2  0  0  0
  -28.7052  -13.0272   20.9978 C   0  0  0  0  0  0
  -25.2584  -13.8169   20.5716 C   0  0  0  0  0  0
  -24.1836  -13.0436   20.9178 C   0  0  0  0  0  0
  -24.6402  -11.6903   20.8716 C   0  0  0  0  0  0
  -23.9065  -10.4287   21.0349 C   0  0  0  0  0  0
  -24.3618   -9.4219   21.9144 C   0  0  0  0  0  0
  -23.6292   -8.2250   22.0738 C   0  0  0  0  0  0
  -22.4270   -8.0268   21.3542 C   0  0  0  0  0  0
  -21.9908   -9.0222   20.4629 C   0  0  0  0  0  0
  -22.7225  -10.2104   20.3013 C   0  0  0  0  0  0
  -21.6870   -6.0724   22.5267 C   0  0  0  0  0  0
  -21.4020   -6.5625   23.8199 C   0  0  0  0  0  0
  -21.3664   -5.6787   24.9159 C   0  0  0  0  0  0
  -21.6037   -4.3041   24.7221 C   0  0  0  0  0  0
  -21.8823   -3.8139   23.4341 C   0  0  0  0  0  0
  -21.9204   -4.6958   22.3400 C   0  0  0  0  0  0
  -22.7848  -13.5227   21.1824 C   0  0  0  0  0  0
  -22.1662   -4.2137   21.0982 F   0  0  0  0  0  0
  -21.5643   -3.4534   25.7743 F   0  0  0  0  0  0
  -30.0399  -13.2852   20.4388 N   0  0  0  0  0  0
  -26.3037  -12.9371   20.3377 N   0  0  0  0  0  0
  -25.9337  -11.6523   20.5760 N   0  0  0  0  0  0
  -22.0489  -12.8223   22.0377 N   0  0  0  0  0  0
  -25.4291  -15.1898   20.4135 N   0  0  0  0  0  0
  -31.9031  -14.5575   20.1358 O   0  0  0  0  0  0
  -21.6651   -6.8852   21.4229 O   0  0  0  0  0  0
  -22.3511  -14.5512   20.6630 O   0  0  0  0  0  0
  -24.6146  -31.8676   23.2117 C   0  0  0  0  0  0
  -25.9068  -32.4814   23.8400 C   0  0  1  0  0  0
  -27.2388  -27.4637   20.0868 C   0  0  0  0  0  0
  -25.5941  -33.8612   24.2330 N   0  0  0  0  0  0
  -23.4010  -30.4896   21.5529 C   0  0  2  0  0  0
  -24.8469  -28.9503   20.1242 C   0  0  0  0  0  0
  -22.7392  -29.4665   22.5025 C   0  0  0  0  0  0
  -18.0273  -28.1392   22.8511 C   0  0  0  0  0  0
  -24.1470  -36.7282   23.2642 C   0  0  0  0  0  0
  -25.9257  -30.8386   21.3618 C   0  0  0  0  0  0
  -26.0053  -29.4741   20.7137 C   0  0  0  0  0  0
  -27.2071  -28.7342   20.6967 C   0  0  0  0  0  0
  -26.0680  -26.9417   19.5009 C   0  0  0  0  0  0
  -24.8687  -27.6786   19.5244 C   0  0  0  0  0  0
  -23.6076  -29.8123   20.1710 C   0  0  0  0  0  0
  -25.4117  -36.3094   24.0322 C   0  0  1  0  0  0
  -20.5863  -28.3670   23.1312 C   0  0  2  0  0  0
  -20.6765  -26.9407   22.5407 C   0  0  0  0  0  0
  -19.5726  -26.6400   21.5221 C   0  0  0  0  0  0
  -18.1904  -26.7949   22.1628 C   0  0  0  0  0  0
  -19.1519  -28.8855   23.2908 C   0  0  0  0  0  0
  -18.9447  -30.1468   23.8907 C   0  0  0  0  0  0
  -17.6447  -30.6594   24.0588 C   0  0  0  0  0  0
  -25.9046  -34.9451   23.5115 C   0  0  0  0  0  0
  -16.5340  -29.9094   23.6340 C   0  0  0  0  0  0
  -16.7260  -28.6513   23.0364 C   0  0  0  0  0  0
  -26.4525  -31.6603   25.0718 C   0  0  0  0  0  0
  -25.3797  -31.3696   26.1463 C   0  0  0  0  0  0
  -27.0404  -30.3053   24.6121 C   0  0  0  0  0  0
  -27.6079  -32.4364   25.7507 C   0  0  0  0  0  0
  -27.5575  -37.1800   24.8472 C   0  0  0  0  0  0
  -21.4127  -29.3026   22.3711 N   0  0  0  0  0  0
  -26.4293  -37.3786   23.9403 N   0  0  0  0  0  0
  -24.6657  -31.0790   22.1020 N   0  0  0  0  0  0
  -23.4130  -28.8244   23.3116 O   0  0  0  0  0  0
  -28.4037  -26.7444   20.0223 O   0  0  0  0  0  0
  -26.5565  -34.8905   22.4649 O   0  0  0  0  0  0
  -23.5350  -32.1435   23.7520 O   0  0  0  0  0  0
  -30.2806  -16.8846   18.7865 C   0  0  0  0  0  0
  -30.5501  -17.9652   20.9435 C   0  0  0  0  0  0
  -30.9409  -19.2467   18.8686 C   0  0  0  0  0  0
  -30.6189  -18.0784   18.1192 C   0  0  0  0  0  0
  -30.2775  -16.8039   20.1940 C   0  0  0  0  0  0
  -30.9003  -19.1757   20.2968 C   0  0  0  0  0  0
  -31.3852  -20.4987   18.1717 C   0  0  0  0  0  0
  -30.2391  -22.5516   21.4829 C   0  0  0  0  0  0
  -28.7226  -24.4421   20.7677 C   0  0  0  0  0  0
  -30.6516  -18.0321   16.5950 C   0  0  0  0  0  0
  -30.4314  -21.1123   17.1516 C   0  0  0  0  0  0
  -29.0750  -23.4544   21.8837 C   0  0  0  0  0  0
  -29.9828  -21.0393   21.4657 C   0  0  0  0  0  0
  -28.6461  -25.9226   21.1654 C   0  0  0  0  0  0
  -30.0289  -15.5503   20.8295 N   0  0  0  0  0  0
  -31.1831  -20.2849   21.1088 N   0  0  0  0  0  0
  -32.4478  -21.0765   18.4212 O   0  0  0  0  0  0
  -31.3555  -23.0064   21.2018 O   0  0  0  0  0  0
  -28.4752  -24.0644   19.6153 O   0  0  0  0  0  0
  -31.4581  -12.3442   19.1370 H   0  0  0  0  0  0
  -30.2816  -11.2749   19.8404 H   0  0  0  0  0  0
  -29.7337  -11.7700   17.4303 H   0  0  0  0  0  0
  -29.6791  -13.4793   17.7774 H   0  0  0  0  0  0
  -27.8153  -11.3145   18.8057 H   0  0  0  0  0  0
  -27.3711  -12.6529   17.7816 H   0  0  0  0  0  0
  -27.6954  -14.2602   19.5616 H   0  0  0  0  0  0
  -28.6671  -12.0078   21.3841 H   0  0  0  0  0  0
  -28.4869  -13.6784   21.8450 H   0  0  0  0  0  0
  -25.2753   -9.5707   22.4728 H   0  0  0  0  0  0
  -24.0004   -7.4659   22.7460 H   0  0  0  0  0  0
  -21.0852   -8.8704   19.8940 H   0  0  0  0  0  0
  -22.3653  -10.9623   19.6116 H   0  0  0  0  0  0
  -21.1994   -7.6124   23.9711 H   0  0  0  0  0  0
  -21.1490   -6.0503   25.9069 H   0  0  0  0  0  0
  -22.0608   -2.7600   23.2850 H   0  0  0  0  0  0
  -22.4128  -11.9912   22.4806 H   0  0  0  0  0  0
  -21.1069  -13.1186   22.2520 H   0  0  0  0  0  0
  -24.6572  -15.8402   20.5109 H   0  0  0  0  0  0
  -26.2862  -15.6360   20.1108 H   0  0  0  0  0  0
  -26.7147  -32.5539   23.1180 H   0  0  0  0  0  0
  -25.0207  -33.9792   25.0555 H   0  0  0  0  0  0
  -22.6907  -31.3066   21.4079 H   0  0  0  0  0  0
  -23.3730  -35.9613   23.3325 H   0  0  0  0  0  0
  -24.3564  -36.8898   22.2054 H   0  0  0  0  0  0
  -23.7202  -37.6476   23.6662 H   0  0  0  0  0  0
  -26.0270  -31.6009   20.5872 H   0  0  0  0  0  0
  -26.8189  -30.9001   21.9726 H   0  0  0  0  0  0
  -28.1092  -29.1399   21.1333 H   0  0  0  0  0  0
  -26.0866  -25.9721   19.0236 H   0  0  0  0  0  0
  -23.9750  -27.2647   19.0782 H   0  0  0  0  0  0
  -23.7145  -30.5784   19.4019 H   0  0  0  0  0  0
  -22.7326  -29.2243   19.8833 H   0  0  0  0  0  0
  -25.1308  -36.1963   25.0814 H   0  0  0  0  0  0
  -20.9957  -28.3250   24.1429 H   0  0  0  0  0  0
  -20.5691  -26.2294   23.3607 H   0  0  0  0  0  0
  -21.6636  -26.7462   22.1179 H   0  0  0  0  0  0
  -19.6868  -25.6305   21.1243 H   0  0  0  0  0  0
  -19.6654  -27.3235   20.6761 H   0  0  0  0  0  0
  -17.4187  -26.6734   21.4002 H   0  0  0  0  0  0
  -18.0254  -26.0083   22.8998 H   0  0  0  0  0  0
  -19.7925  -30.7305   24.2229 H   0  0  0  0  0  0
  -17.4996  -31.6270   24.5191 H   0  0  0  0  0  0
  -15.5328  -30.3008   23.7637 H   0  0  0  0  0  0
  -15.8671  -28.0830   22.7059 H   0  0  0  0  0  0
  -24.5942  -30.7101   25.7780 H   0  0  0  0  0  0
  -24.9021  -32.2845   26.4954 H   0  0  0  0  0  0
  -25.8122  -30.8799   27.0193 H   0  0  0  0  0  0
  -26.2955  -29.6730   24.1269 H   0  0  0  0  0  0
  -27.4298  -29.7381   25.4593 H   0  0  0  0  0  0
  -27.8727  -30.4393   23.9207 H   0  0  0  0  0  0
  -27.2663  -33.3661   26.2074 H   0  0  0  0  0  0
  -28.3885  -32.6948   25.0338 H   0  0  0  0  0  0
  -28.0751  -31.8513   26.5442 H   0  0  0  0  0  0
  -28.2600  -38.0096   24.7544 H   0  0  0  0  0  0
  -28.1069  -36.2628   24.6292 H   0  0  0  0  0  0
  -27.2280  -37.1433   25.8872 H   0  0  0  0  0  0
  -20.9309  -29.8699   21.6875 H   0  0  0  0  0  0
  -26.0169  -38.2843   24.1469 H   0  0  0  0  0  0
  -30.0593  -16.0009   18.2054 H   0  0  0  0  0  0
  -30.5424  -17.9160   22.0233 H   0  0  0  0  0  0
  -30.6033  -17.0058   16.2257 H   0  0  0  0  0  0
  -31.5677  -18.4691   16.1978 H   0  0  0  0  0  0
  -29.7978  -18.5633   16.1744 H   0  0  0  0  0  0
  -29.4144  -20.7609   17.3177 H   0  0  0  0  0  0
  -30.7376  -20.8539   16.1378 H   0  0  0  0  0  0
  -30.4359  -22.1987   17.2418 H   0  0  0  0  0  0
  -29.3534  -24.0021   22.7829 H   0  0  0  0  0  0
  -28.2012  -22.8476   22.1184 H   0  0  0  0  0  0
  -29.1751  -20.8400   20.7583 H   0  0  0  0  0  0
  -29.6358  -20.7332   22.4545 H   0  0  0  0  0  0
  -29.5917  -26.2174   21.6191 H   0  0  0  0  0  0
  -27.8652  -26.0400   21.9175 H   0  0  0  0  0  0
  -29.1234  -15.4168   21.2542 H   0  0  0  0  0  0
  -31.8337  -20.9465   20.6805 H   0  0  0  0  0  0
  1 25  1  0  0  0
  1 30  2  0  0  0
  1 85  1  0  0  0
  2  3  1  0  0  0
  2 25  1  0  0  0
  2 90  1  0  0  0
  2 91  1  0  0  0
  3  4  1  0  0  0
  3 92  1  0  0  0
  3 93  1  0  0  0
  4  5  1  0  0  0
  4 94  1  0  0  0
  4 95  1  0  0  0
  5  6  1  0  0  0
  5 26  1  0  0  0
  5 96  1  0  0  0
  6 25  1  0  0  0
  6 97  1  0  0  0
  6 98  1  0  0  0
  7  8  2  0  0  0
  7 26  1  0  0  0
  7 29  1  0  0  0
  8  9  1  0  0  0
  8 22  1  0  0  0
  9 10  1  0  0  0
  9 27  2  0  0  0
 10 11  2  0  0  0
 10 15  1  0  0  0
 11 12  1  0  0  0
 11 99  1  0  0  0
 12 13  2  0  0  0
 12100  1  0  0  0
 13 14  1  0  0  0
 13 31  1  0  0  0
 14 15  2  0  0  0
 14101  1  0  0  0
 15102  1  0  0  0
 16 17  2  0  0  0
 16 21  1  0  0  0
 16 31  1  0  0  0
 17 18  1  0  0  0
 17103  1  0  0  0
 18 19  2  0  0  0
 18104  1  0  0  0
 19 20  1  0  0  0
 19 24  1  0  0  0
 20 21  2  0  0  0
 20105  1  0  0  0
 21 23  1  0  0  0
 22 28  1  0  0  0
 22 32  2  0  0  0
 26 27  1  0  0  0
 28106  1  0  0  0
 28107  1  0  0  0
 29108  1  0  0  0
 29109  1  0  0  0
 33 34  1  0  0  0
 33 66  1  0  0  0
 33 70  2  0  0  0
 34 36  1  0  0  0
 34 59  1  0  0  0
 34110  1  0  0  0
 35 44  2  0  0  0
 35 45  1  0  0  0
 35 68  1  0  0  0
 36 56  1  0  0  0
 36111  1  0  0  0
 37 39  1  0  0  0
 37 47  1  0  0  0
 37 66  1  0  0  0
 37112  1  0  0  0
 38 43  2  0  0  0
 38 46  1  0  0  0
 38 47  1  0  0  0
 39 64  1  0  0  0
 39 67  2  0  0  0
 40 52  1  0  0  0
 40 53  2  0  0  0
 40 58  1  0  0  0
 41113  1  0  0  0
 41114  1  0  0  0
 41115  1  0  0  0
 41 48  1  0  0  0
 42 43  1  0  0  0
 42 66  1  0  0  0
 42116  1  0  0  0
 42117  1  0  0  0
 43 44  1  0  0  0
 44118  1  0  0  0
 45 46  2  0  0  0
 45119  1  0  0  0
 46120  1  0  0  0
 47121  1  0  0  0
 47122  1  0  0  0
 48 56  1  0  0  0
 48 65  1  0  0  0
 48123  1  0  0  0
 49 50  1  0  0  0
 49 53  1  0  0  0
 49 64  1  0  0  0
 49124  1  0  0  0
 50 51  1  0  0  0
 50125  1  0  0  0
 50126  1  0  0  0
 51 52  1  0  0  0
 51127  1  0  0  0
 51128  1  0  0  0
 52129  1  0  0  0
 52130  1  0  0  0
 53 54  1  0  0  0
 54 55  2  0  0  0
 54131  1  0  0  0
 55 57  1  0  0  0
 55132  1  0  0  0
 56 69  2  0  0  0
 57 58  2  0  0  0
 57133  1  0  0  0
 58134  1  0  0  0
 59 60  1  0  0  0
 59 61  1  0  0  0
 59 62  1  0  0  0
 60135  1  0  0  0
 60136  1  0  0  0
 60137  1  0  0  0
 61138  1  0  0  0
 61139  1  0  0  0
 61140  1  0  0  0
 62141  1  0  0  0
 62142  1  0  0  0
 62143  1  0  0  0
 63 65  1  0  0  0
 63144  1  0  0  0
 63145  1  0  0  0
 63146  1  0  0  0
 64147  1  0  0  0
 65148  1  0  0  0
 68 84  1  0  0  0
 71 74  2  0  0  0
 71 75  1  0  0  0
 71149  1  0  0  0
 72 75  2  0  0  0
 72 76  1  0  0  0
 72150  1  0  0  0
 73 74  1  0  0  0
 73 76  2  0  0  0
 73 77  1  0  0  0
 74 80  1  0  0  0
 75 85  1  0  0  0
 76 86  1  0  0  0
 77 81  1  0  0  0
 77 87  2  0  0  0
 78 82  1  0  0  0
 78 83  1  0  0  0
 78 88  2  0  0  0
 79 82  1  0  0  0
 79 84  1  0  0  0
 79 89  2  0  0  0
 80151  1  0  0  0
 80152  1  0  0  0
 80153  1  0  0  0
 81154  1  0  0  0
 81155  1  0  0  0
 81156  1  0  0  0
 82157  1  0  0  0
 82158  1  0  0  0
 83 86  1  0  0  0
 83159  1  0  0  0
 83160  1  0  0  0
 84161  1  0  0  0
 84162  1  0  0  0
 85163  1  0  0  0
 86164  1  0  0  0
M  ISO  4   1 100  68 101  84 101  85 100
M  END
> <chiral flag>
0

> <version>
0

> <s_m_source_file>
/data/baiqing/PycharmProjects/Reinvent-master-3.2/result/LINK_invent/BTK/process_docking_weight1_custom_product_contain_oxygen_bond_distance_aromatic_linkinvent_7_9_3/rearranged_h_0167.sdf

> <i_m_source_file_index>
17

> <r_mmod_Potential_Energy-OPLS-2005>
80.8774108886719

> <r_mmod_Stretch_Energy-OPLS-2005>
37.2599449157715

> <r_mmod_Bend_Energy-OPLS-2005>
89.0195388793945

> <r_mmod_Torsional_Energy-OPLS-2005>
336.941711425781

> <r_mmod_Improper_Torsional_Energy-OPLS-2005>
12.8502635955811

> <r_mmod_Van_der_Waal_Energy-OPLS-2005>
151.410339355469

> <r_mmod_Electrostatic_Energy-OPLS-2005>
-295.016082763672

> <r_mmod_Solvation_Energy-OPLS-2005>
-265.842987060547

> <b_mmod_Minimization_Converged-OPLS-2005>
0

> <r_mmod_RMS_Derivative-OPLS-2005>
3.27822399139404

$$$$
17
                    3D
 Structure written by MMmdl.
165173  0  0  1  0            999 V2000
  -30.6571  -14.7865   20.4380 C   0  0  0  0  0  0
  -30.4317  -12.4794   19.4720 C   0  0  0  0  0  0
  -29.5110  -12.5120   18.2334 C   0  0  0  0  0  0
  -28.0403  -12.3410   18.6552 C   0  0  0  0  0  0
  -27.6492  -13.2458   19.8533 C   0  0  2  0  0  0
  -28.7061  -13.2238   20.9833 C   0  0  0  0  0  0
  -25.2582  -13.8216   20.5783 C   0  0  0  0  0  0
  -24.1878  -13.0478   20.9228 C   0  0  0  0  0  0
  -24.6459  -11.6938   20.8769 C   0  0  0  0  0  0
  -23.9106  -10.4302   21.0406 C   0  0  0  0  0  0
  -24.3639   -9.4209   21.9197 C   0  0  0  0  0  0
  -23.6311   -8.2246   22.0760 C   0  0  0  0  0  0
  -22.4296   -8.0297   21.3546 C   0  0  0  0  0  0
  -21.9930   -9.0264   20.4651 C   0  0  0  0  0  0
  -22.7257  -10.2146   20.3056 C   0  0  0  0  0  0
  -21.6866   -6.0754   22.5279 C   0  0  0  0  0  0
  -21.4032   -6.5658   23.8223 C   0  0  0  0  0  0
  -21.3641   -5.6804   24.9181 C   0  0  0  0  0  0
  -21.6023   -4.3064   24.7240 C   0  0  0  0  0  0
  -21.8819   -3.8163   23.4364 C   0  0  0  0  0  0
  -21.9206   -4.6972   22.3425 C   0  0  0  0  0  0
  -22.7869  -13.5229   21.1886 C   0  0  0  0  0  0
  -22.1677   -4.2164   21.1000 F   0  0  0  0  0  0
  -21.5595   -3.4550   25.7750 F   0  0  0  0  0  0
  -29.9992  -13.5716   20.3839 N   0  0  0  0  0  0
  -26.3048  -12.9465   20.3387 N   0  0  0  0  0  0
  -25.9419  -11.6588   20.5788 N   0  0  0  0  0  0
  -22.0494  -12.8227   22.0409 N   0  0  0  0  0  0
  -25.4259  -15.1958   20.4251 N   0  0  0  0  0  0
  -31.8524  -14.7937   20.1369 O   0  0  0  0  0  0
  -21.6651   -6.8908   21.4248 O   0  0  0  0  0  0
  -22.3568  -14.5540   20.6707 O   0  0  0  0  0  0
  -24.6373  -31.8509   23.2038 C   0  0  0  0  0  0
  -25.9182  -32.4746   23.8343 C   0  0  1  0  0  0
  -27.1537  -27.2031   20.0801 C   0  0  0  0  0  0
  -25.5958  -33.8560   24.2246 N   0  0  0  0  0  0
  -23.4293  -30.4860   21.5536 C   0  0  2  0  0  0
  -24.8511  -28.9351   20.1059 C   0  0  0  0  0  0
  -22.7494  -29.4585   22.4929 C   0  0  0  0  0  0
  -18.0297  -28.1305   22.8465 C   0  0  0  0  0  0
  -24.1489  -36.7333   23.2610 C   0  0  0  0  0  0
  -25.9809  -30.7330   21.3932 C   0  0  0  0  0  0
  -26.0350  -29.3573   20.7245 C   0  0  0  0  0  0
  -27.1871  -28.4986   20.7096 C   0  0  0  0  0  0
  -25.9480  -26.8799   19.4098 C   0  0  0  0  0  0
  -24.8141  -27.7059   19.4443 C   0  0  0  0  0  0
  -23.6418  -29.8466   20.1623 C   0  0  0  0  0  0
  -25.4096  -36.3077   24.0295 C   0  0  1  0  0  0
  -20.5890  -28.3627   23.1238 C   0  0  2  0  0  0
  -20.6764  -26.9340   22.5376 C   0  0  0  0  0  0
  -19.5746  -26.6318   21.5152 C   0  0  0  0  0  0
  -18.1936  -26.7842   22.1576 C   0  0  0  0  0  0
  -19.1563  -28.8791   23.2831 C   0  0  0  0  0  0
  -18.9465  -30.1385   23.8849 C   0  0  0  0  0  0
  -17.6476  -30.6515   24.0531 C   0  0  0  0  0  0
  -25.9049  -34.9440   23.5082 C   0  0  0  0  0  0
  -16.5361  -29.9019   23.6293 C   0  0  0  0  0  0
  -16.7302  -28.6443   23.0308 C   0  0  0  0  0  0
  -26.4498  -31.6568   25.0759 C   0  0  0  0  0  0
  -25.3706  -31.3764   26.1505 C   0  0  0  0  0  0
  -27.0281  -30.2935   24.6257 C   0  0  0  0  0  0
  -27.6031  -32.4325   25.7563 C   0  0  0  0  0  0
  -27.5585  -37.1804   24.8436 C   0  0  0  0  0  0
  -21.4215  -29.3030   22.3682 N   0  0  0  0  0  0
  -26.4282  -37.3782   23.9419 N   0  0  0  0  0  0
  -24.7043  -31.0405   22.1071 N   0  0  0  0  0  0
  -23.4182  -28.8026   23.2987 O   0  0  0  0  0  0
  -28.2142  -26.2608   20.1469 O   0  0  0  0  0  0
  -26.5591  -34.8899   22.4641 O   0  0  0  0  0  0
  -23.5519  -32.1446   23.7256 O   0  0  0  0  0  0
  -31.6561  -17.7754   20.2775 C   0  0  0  0  0  0
  -31.1847  -20.1754   20.4667 C   0  0  0  0  0  0
  -32.0859  -19.1079   20.2736 C   0  0  0  0  0  0
  -30.3083  -17.4319   20.5172 C   0  0  0  0  0  0
  -29.8049  -19.8625   20.5870 C   0  0  0  0  0  0
  -28.2960  -23.5661   20.5048 C   0  0  0  0  0  0
  -32.1383  -20.7994   23.1014 C   0  0  0  0  0  0
  -33.7624  -22.3617   22.0272 C   0  0  0  0  0  0
  -31.4744  -23.1608   22.6300 C   0  0  0  0  0  0
  -31.7924  -21.5813   20.6311 C   0  0  0  0  0  0
  -28.6108  -22.1217   19.8806 C   0  0  0  0  0  0
  -28.0953  -24.8570   19.5669 C   0  0  0  0  0  0
  -32.2732  -21.9566   22.0814 C   0  0  0  0  0  0
  -29.4181  -18.5149   20.6449 N   0  0  0  0  0  0
  -29.9363  -15.9771   20.6256 N   0  0  0  0  0  0
  -28.8321  -20.9147   20.7833 N   0  0  0  0  0  0
  -28.1010  -23.6535   21.7211 O   0  0  0  0  0  0
  -33.4087  -19.3547   20.1242 F   0  0  0  0  0  0
  -31.4747  -12.5739   19.1667 H   0  0  0  0  0  0
  -30.3579  -11.5130   19.9702 H   0  0  0  0  0  0
  -29.7860  -11.7235   17.5310 H   0  0  0  0  0  0
  -29.6385  -13.4540   17.6985 H   0  0  0  0  0  0
  -27.8971  -11.2934   18.9228 H   0  0  0  0  0  0
  -27.3752  -12.5328   17.8106 H   0  0  0  0  0  0
  -27.6290  -14.2607   19.4563 H   0  0  0  0  0  0
  -28.7594  -12.2439   21.4576 H   0  0  0  0  0  0
  -28.4529  -13.9341   21.7728 H   0  0  0  0  0  0
  -25.2770   -9.5705   22.4785 H   0  0  0  0  0  0
  -24.0014   -7.4653   22.7488 H   0  0  0  0  0  0
  -21.0848   -8.8801   19.8975 H   0  0  0  0  0  0
  -22.3705  -10.9707   19.6170 H   0  0  0  0  0  0
  -21.2038   -7.6174   23.9740 H   0  0  0  0  0  0
  -21.1439   -6.0539   25.9089 H   0  0  0  0  0  0
  -22.0609   -2.7630   23.2872 H   0  0  0  0  0  0
  -22.4113  -11.9875   22.4780 H   0  0  0  0  0  0
  -21.1106  -13.1266   22.2593 H   0  0  0  0  0  0
  -24.6528  -15.8423   20.5356 H   0  0  0  0  0  0
  -26.2747  -15.6455   20.1088 H   0  0  0  0  0  0
  -26.7213  -32.5312   23.1019 H   0  0  0  0  0  0
  -25.0126  -33.9691   25.0394 H   0  0  0  0  0  0
  -22.7319  -31.3164   21.4254 H   0  0  0  0  0  0
  -23.3743  -35.9685   23.3277 H   0  0  0  0  0  0
  -24.3597  -36.9011   22.2046 H   0  0  0  0  0  0
  -23.7285  -37.6529   23.6678 H   0  0  0  0  0  0
  -26.1222  -31.4836   20.6160 H   0  0  0  0  0  0
  -26.8638  -30.7841   22.0179 H   0  0  0  0  0  0
  -28.0946  -28.7959   21.2126 H   0  0  0  0  0  0
  -25.7941  -25.9821   18.8363 H   0  0  0  0  0  0
  -23.9086  -27.3955   18.9369 H   0  0  0  0  0  0
  -23.7917  -30.6449   19.4334 H   0  0  0  0  0  0
  -22.7442  -29.3206   19.8319 H   0  0  0  0  0  0
  -25.1272  -36.1936   25.0783 H   0  0  0  0  0  0
  -20.9956  -28.3187   24.1365 H   0  0  0  0  0  0
  -20.5595  -26.2235   23.3593 H   0  0  0  0  0  0
  -21.6628  -26.7295   22.1201 H   0  0  0  0  0  0
  -19.6889  -25.6224   21.1204 H   0  0  0  0  0  0
  -19.6674  -27.3078   20.6636 H   0  0  0  0  0  0
  -17.4174  -26.6546   21.4015 H   0  0  0  0  0  0
  -18.0383  -25.9950   22.8946 H   0  0  0  0  0  0
  -19.7964  -30.7164   24.2211 H   0  0  0  0  0  0
  -17.5065  -31.6208   24.5090 H   0  0  0  0  0  0
  -15.5369  -30.2896   23.7680 H   0  0  0  0  0  0
  -15.8685  -28.0781   22.6986 H   0  0  0  0  0  0
  -24.5900  -30.7052   25.7936 H   0  0  0  0  0  0
  -24.8842  -32.2937   26.4828 H   0  0  0  0  0  0
  -25.8040  -30.9085   27.0359 H   0  0  0  0  0  0
  -26.2813  -29.6742   24.1261 H   0  0  0  0  0  0
  -27.3915  -29.7159   25.4784 H   0  0  0  0  0  0
  -27.8768  -30.4202   23.9523 H   0  0  0  0  0  0
  -27.2606  -33.3672   26.2013 H   0  0  0  0  0  0
  -28.3892  -32.6794   25.0428 H   0  0  0  0  0  0
  -28.0587  -31.8511   26.5593 H   0  0  0  0  0  0
  -28.2506  -38.0179   24.7543 H   0  0  0  0  0  0
  -28.1178  -36.2716   24.6178 H   0  0  0  0  0  0
  -27.2330  -37.1343   25.8836 H   0  0  0  0  0  0
  -20.9377  -29.8993   21.7108 H   0  0  0  0  0  0
  -26.0163  -38.2852   24.1482 H   0  0  0  0  0  0
  -32.4305  -17.0419   20.1256 H   0  0  0  0  0  0
  -32.3757  -21.1391   24.1105 H   0  0  0  0  0  0
  -32.8304  -19.9882   22.8776 H   0  0  0  0  0  0
  -31.1276  -20.3835   23.1345 H   0  0  0  0  0  0
  -34.2039  -22.4390   23.0214 H   0  0  0  0  0  0
  -33.8979  -23.3237   21.5334 H   0  0  0  0  0  0
  -34.3582  -21.6353   21.4750 H   0  0  0  0  0  0
  -31.8996  -23.5391   23.5602 H   0  0  0  0  0  0
  -30.4394  -22.8969   22.8459 H   0  0  0  0  0  0
  -31.4570  -23.9981   21.9329 H   0  0  0  0  0  0
  -31.1729  -22.3619   20.2011 H   0  0  0  0  0  0
  -32.6507  -21.6061   19.9565 H   0  0  0  0  0  0
  -29.3709  -22.1962   19.1029 H   0  0  0  0  0  0
  -27.6975  -21.8654   19.3402 H   0  0  0  0  0  0
  -27.1275  -24.6763   19.1178 H   0  0  0  0  0  0
  -28.7769  -24.7685   18.7213 H   0  0  0  0  0  0
  -28.9669  -15.8296   20.8494 H   0  0  0  0  0  0
  -27.9555  -20.6221   21.1993 H   0  0  0  0  0  0
  1 25  1  0  0  0
  1 30  2  0  0  0
  1 85  1  0  0  0
  2  3  1  0  0  0
  2 25  1  0  0  0
  2 89  1  0  0  0
  2 90  1  0  0  0
  3  4  1  0  0  0
  3 91  1  0  0  0
  3 92  1  0  0  0
  4  5  1  0  0  0
  4 93  1  0  0  0
  4 94  1  0  0  0
  5  6  1  0  0  0
  5 26  1  0  0  0
  5 95  1  0  0  0
  6 25  1  0  0  0
  6 96  1  0  0  0
  6 97  1  0  0  0
  7  8  2  0  0  0
  7 26  1  0  0  0
  7 29  1  0  0  0
  8  9  1  0  0  0
  8 22  1  0  0  0
  9 10  1  0  0  0
  9 27  2  0  0  0
 10 11  2  0  0  0
 10 15  1  0  0  0
 11 12  1  0  0  0
 11 98  1  0  0  0
 12 13  2  0  0  0
 12 99  1  0  0  0
 13 14  1  0  0  0
 13 31  1  0  0  0
 14 15  2  0  0  0
 14100  1  0  0  0
 15101  1  0  0  0
 16 17  2  0  0  0
 16 21  1  0  0  0
 16 31  1  0  0  0
 17 18  1  0  0  0
 17102  1  0  0  0
 18 19  2  0  0  0
 18103  1  0  0  0
 19 20  1  0  0  0
 19 24  1  0  0  0
 20 21  2  0  0  0
 20104  1  0  0  0
 21 23  1  0  0  0
 22 28  1  0  0  0
 22 32  2  0  0  0
 26 27  1  0  0  0
 28105  1  0  0  0
 28106  1  0  0  0
 29107  1  0  0  0
 29108  1  0  0  0
 33 34  1  0  0  0
 33 66  1  0  0  0
 33 70  2  0  0  0
 34 36  1  0  0  0
 34 59  1  0  0  0
 34109  1  0  0  0
 35 44  2  0  0  0
 35 45  1  0  0  0
 35 68  1  0  0  0
 36 56  1  0  0  0
 36110  1  0  0  0
 37 39  1  0  0  0
 37 47  1  0  0  0
 37 66  1  0  0  0
 37111  1  0  0  0
 38 43  2  0  0  0
 38 46  1  0  0  0
 38 47  1  0  0  0
 39 64  1  0  0  0
 39 67  2  0  0  0
 40 52  1  0  0  0
 40 53  2  0  0  0
 40 58  1  0  0  0
 41112  1  0  0  0
 41113  1  0  0  0
 41114  1  0  0  0
 41 48  1  0  0  0
 42 43  1  0  0  0
 42 66  1  0  0  0
 42115  1  0  0  0
 42116  1  0  0  0
 43 44  1  0  0  0
 44117  1  0  0  0
 45 46  2  0  0  0
 45118  1  0  0  0
 46119  1  0  0  0
 47120  1  0  0  0
 47121  1  0  0  0
 48 56  1  0  0  0
 48 65  1  0  0  0
 48122  1  0  0  0
 49 50  1  0  0  0
 49 53  1  0  0  0
 49 64  1  0  0  0
 49123  1  0  0  0
 50 51  1  0  0  0
 50124  1  0  0  0
 50125  1  0  0  0
 51 52  1  0  0  0
 51126  1  0  0  0
 51127  1  0  0  0
 52128  1  0  0  0
 52129  1  0  0  0
 53 54  1  0  0  0
 54 55  2  0  0  0
 54130  1  0  0  0
 55 57  1  0  0  0
 55131  1  0  0  0
 56 69  2  0  0  0
 57 58  2  0  0  0
 57132  1  0  0  0
 58133  1  0  0  0
 59 60  1  0  0  0
 59 61  1  0  0  0
 59 62  1  0  0  0
 60134  1  0  0  0
 60135  1  0  0  0
 60136  1  0  0  0
 61137  1  0  0  0
 61138  1  0  0  0
 61139  1  0  0  0
 62140  1  0  0  0
 62141  1  0  0  0
 62142  1  0  0  0
 63 65  1  0  0  0
 63143  1  0  0  0
 63144  1  0  0  0
 63145  1  0  0  0
 64146  1  0  0  0
 65147  1  0  0  0
 68 82  1  0  0  0
 71 73  2  0  0  0
 71 74  1  0  0  0
 71148  1  0  0  0
 72 73  1  0  0  0
 72 75  2  0  0  0
 72 80  1  0  0  0
 73 88  1  0  0  0
 74 84  2  0  0  0
 74 85  1  0  0  0
 75 84  1  0  0  0
 75 86  1  0  0  0
 76 81  1  0  0  0
 76 82  1  0  0  0
 76 87  2  0  0  0
 77149  1  0  0  0
 77150  1  0  0  0
 77151  1  0  0  0
 77 83  1  0  0  0
 78 83  1  0  0  0
 78152  1  0  0  0
 78153  1  0  0  0
 78154  1  0  0  0
 79 83  1  0  0  0
 79155  1  0  0  0
 79156  1  0  0  0
 79157  1  0  0  0
 80 83  1  0  0  0
 80158  1  0  0  0
 80159  1  0  0  0
 81 86  1  0  0  0
 81160  1  0  0  0
 81161  1  0  0  0
 82162  1  0  0  0
 82163  1  0  0  0
 85164  1  0  0  0
 86165  1  0  0  0
M  ISO  4   1 100  68 101  82 101  85 100
M  END
> <chiral flag>
0

> <version>
0

> <s_m_source_file>
/data/baiqing/PycharmProjects/Reinvent-master-3.2/result/LINK_invent/BTK/process_docking_weight1_custom_product_contain_oxygen_bond_distance_aromatic_linkinvent_7_9_3/rearranged_h_0167.sdf

> <i_m_source_file_index>
18

> <r_mmod_Potential_Energy-OPLS-2005>
-13.8318881988525

> <r_mmod_Stretch_Energy-OPLS-2005>
147.510147094727

> <r_mmod_Bend_Energy-OPLS-2005>
210.025375366211

> <r_mmod_Torsional_Energy-OPLS-2005>
218.295394897461

> <r_mmod_Improper_Torsional_Energy-OPLS-2005>
8.57340526580811

> <r_mmod_Van_der_Waal_Energy-OPLS-2005>
153.383087158203

> <r_mmod_Electrostatic_Energy-OPLS-2005>
-630.45947265625

> <r_mmod_Solvation_Energy-OPLS-2005>
-240.147033691406

> <b_mmod_Minimization_Converged-OPLS-2005>
0

> <r_mmod_RMS_Derivative-OPLS-2005>
8.0534029006958

$$$$
18
                    3D
 Structure written by MMmdl.
168176  0  0  1  0            999 V2000
  -30.7445  -14.4204   20.6185 C   0  0  0  0  0  0
  -30.4117  -12.2972   19.4060 C   0  0  0  0  0  0
  -29.4821  -12.5152   18.1974 C   0  0  0  0  0  0
  -28.0062  -12.3769   18.6145 C   0  0  0  0  0  0
  -27.6602  -13.2089   19.8785 C   0  0  2  0  0  0
  -28.7024  -12.9788   20.9950 C   0  0  0  0  0  0
  -25.2574  -13.8171   20.5682 C   0  0  0  0  0  0
  -24.1828  -13.0445   20.9174 C   0  0  0  0  0  0
  -24.6393  -11.6916   20.8737 C   0  0  0  0  0  0
  -23.9067  -10.4296   21.0408 C   0  0  0  0  0  0
  -24.3610   -9.4215   21.9197 C   0  0  0  0  0  0
  -23.6286   -8.2251   22.0771 C   0  0  0  0  0  0
  -22.4272   -8.0285   21.3548 C   0  0  0  0  0  0
  -21.9920   -9.0252   20.4638 C   0  0  0  0  0  0
  -22.7252  -10.2132   20.3047 C   0  0  0  0  0  0
  -21.6851   -6.0736   22.5279 C   0  0  0  0  0  0
  -21.4009   -6.5635   23.8213 C   0  0  0  0  0  0
  -21.3656   -5.6789   24.9172 C   0  0  0  0  0  0
  -21.6044   -4.3053   24.7222 C   0  0  0  0  0  0
  -21.8821   -3.8145   23.4345 C   0  0  0  0  0  0
  -21.9188   -4.6963   22.3400 C   0  0  0  0  0  0
  -22.7845  -13.5233   21.1821 C   0  0  0  0  0  0
  -22.1657   -4.2151   21.0981 F   0  0  0  0  0  0
  -21.5635   -3.4544   25.7734 F   0  0  0  0  0  0
  -30.0350  -13.2740   20.4401 N   0  0  0  0  0  0
  -26.3017  -12.9344   20.3393 N   0  0  0  0  0  0
  -25.9319  -11.6499   20.5781 N   0  0  0  0  0  0
  -22.0462  -12.8199   22.0339 N   0  0  0  0  0  0
  -25.4295  -15.1890   20.4089 N   0  0  0  0  0  0
  -31.8384  -14.6122   20.0781 O   0  0  0  0  0  0
  -21.6636   -6.8881   21.4244 O   0  0  0  0  0  0
  -22.3541  -14.5554   20.6697 O   0  0  0  0  0  0
  -24.6135  -31.8688   23.2102 C   0  0  0  0  0  0
  -25.9036  -32.4830   23.8393 C   0  0  1  0  0  0
  -27.2376  -27.4475   20.1070 C   0  0  0  0  0  0
  -25.5901  -33.8622   24.2347 N   0  0  0  0  0  0
  -23.4015  -30.4899   21.5503 C   0  0  2  0  0  0
  -24.8496  -28.9520   20.1202 C   0  0  0  0  0  0
  -22.7402  -29.4668   22.5017 C   0  0  0  0  0  0
  -18.0262  -28.1375   22.8488 C   0  0  0  0  0  0
  -24.1481  -36.7294   23.2638 C   0  0  0  0  0  0
  -25.9256  -30.8417   21.3557 C   0  0  0  0  0  0
  -26.0079  -29.4723   20.7132 C   0  0  0  0  0  0
  -27.2064  -28.7255   20.7063 C   0  0  0  0  0  0
  -26.0678  -26.9345   19.5110 C   0  0  0  0  0  0
  -24.8739  -27.6815   19.5164 C   0  0  0  0  0  0
  -23.6088  -29.8154   20.1679 C   0  0  0  0  0  0
  -25.4110  -36.3111   24.0342 C   0  0  1  0  0  0
  -20.5865  -28.3668   23.1323 C   0  0  2  0  0  0
  -20.6767  -26.9422   22.5392 C   0  0  0  0  0  0
  -19.5735  -26.6411   21.5191 C   0  0  0  0  0  0
  -18.1910  -26.7918   22.1609 C   0  0  0  0  0  0
  -19.1515  -28.8831   23.2895 C   0  0  0  0  0  0
  -18.9449  -30.1428   23.8918 C   0  0  0  0  0  0
  -17.6459  -30.6581   24.0578 C   0  0  0  0  0  0
  -25.9048  -34.9480   23.5143 C   0  0  0  0  0  0
  -16.5352  -29.9097   23.6336 C   0  0  0  0  0  0
  -16.7256  -28.6515   23.0356 C   0  0  0  0  0  0
  -26.4483  -31.6585   25.0696 C   0  0  0  0  0  0
  -25.3737  -31.3585   26.1411 C   0  0  0  0  0  0
  -27.0387  -30.3092   24.5993 C   0  0  0  0  0  0
  -27.6032  -32.4311   25.7504 C   0  0  0  0  0  0
  -27.5566  -37.1826   24.8471 C   0  0  0  0  0  0
  -21.4142  -29.3036   22.3745 N   0  0  0  0  0  0
  -26.4291  -37.3795   23.9398 N   0  0  0  0  0  0
  -24.6658  -31.0800   22.0983 N   0  0  0  0  0  0
  -23.4166  -28.8214   23.3068 O   0  0  0  0  0  0
  -28.4005  -26.7170   20.0735 O   0  0  0  0  0  0
  -26.5617  -34.8921   22.4708 O   0  0  0  0  0  0
  -23.5342  -32.1418   23.7515 O   0  0  0  0  0  0
  -32.0462  -16.6110   22.3113 C   0  0  0  0  0  0
  -31.9590  -19.0220   22.5797 C   0  0  0  0  0  0
  -30.0437  -17.8415   21.6402 C   0  0  0  0  0  0
  -32.6648  -17.8104   22.7211 C   0  0  0  0  0  0
  -30.7475  -16.6143   21.7529 C   0  0  0  0  0  0
  -30.6555  -19.0572   22.0459 C   0  0  0  0  0  0
  -34.0317  -17.8261   23.2861 C   0  0  0  0  0  0
  -28.4790  -24.2754   20.3949 C   0  0  0  0  0  0
  -27.7536  -22.1566   23.0605 C   0  0  0  0  0  0
  -26.6003  -21.1910   25.1491 C   0  0  0  0  0  0
  -29.1695  -23.1292   21.1453 C   0  0  0  0  0  0
  -26.7443  -21.1439   23.6182 C   0  0  0  0  0  0
  -28.4795  -25.6689   21.0502 C   0  0  0  0  0  0
  -28.7835  -20.5820   21.2802 C   0  0  0  0  0  0
  -28.1995  -21.9943   21.5893 C   0  0  1  0  0  0
  -34.7678  -16.8109   23.4600 N   0  0  0  0  0  0
  -30.1451  -15.3874   21.3397 N   0  0  0  0  0  0
  -30.0507  -20.3247   21.9632 N   0  0  0  0  0  0
  -27.9474  -24.0709   19.2992 O   0  0  0  0  0  0
  -28.1482  -23.1020   23.7516 O   0  0  0  0  0  0
  -31.4549  -12.3868   19.0978 H   0  0  0  0  0  0
  -30.3056  -11.2820   19.7934 H   0  0  0  0  0  0
  -29.7136  -11.8003   17.4070 H   0  0  0  0  0  0
  -29.6509  -13.5062   17.7739 H   0  0  0  0  0  0
  -27.8126  -11.3193   18.7991 H   0  0  0  0  0  0
  -27.3541  -12.6642   17.7885 H   0  0  0  0  0  0
  -27.7071  -14.2587   19.5900 H   0  0  0  0  0  0
  -28.6742  -11.9407   21.3281 H   0  0  0  0  0  0
  -28.4647  -13.5747   21.8760 H   0  0  0  0  0  0
  -25.2748   -9.5696   22.4782 H   0  0  0  0  0  0
  -23.9984   -7.4647   22.7498 H   0  0  0  0  0  0
  -21.0865   -8.8769   19.8921 H   0  0  0  0  0  0
  -22.3730  -10.9669   19.6144 H   0  0  0  0  0  0
  -21.2002   -7.6143   23.9719 H   0  0  0  0  0  0
  -21.1475   -6.0517   25.9072 H   0  0  0  0  0  0
  -22.0601   -2.7611   23.2845 H   0  0  0  0  0  0
  -22.4037  -11.9814   22.4658 H   0  0  0  0  0  0
  -21.1079  -13.1229   22.2531 H   0  0  0  0  0  0
  -24.6633  -15.8460   20.5086 H   0  0  0  0  0  0
  -26.2835  -15.6253   20.0852 H   0  0  0  0  0  0
  -26.7103  -32.5584   23.1163 H   0  0  0  0  0  0
  -25.0076  -33.9773   25.0514 H   0  0  0  0  0  0
  -22.6920  -31.3074   21.4081 H   0  0  0  0  0  0
  -23.3753  -35.9611   23.3320 H   0  0  0  0  0  0
  -24.3558  -36.8903   22.2042 H   0  0  0  0  0  0
  -23.7221  -37.6497   23.6650 H   0  0  0  0  0  0
  -26.0208  -31.6001   20.5772 H   0  0  0  0  0  0
  -26.8202  -30.9134   21.9625 H   0  0  0  0  0  0
  -28.1037  -29.1232   21.1598 H   0  0  0  0  0  0
  -26.0847  -25.9632   19.0370 H   0  0  0  0  0  0
  -23.9842  -27.2754   19.0556 H   0  0  0  0  0  0
  -23.7095  -30.5847   19.4018 H   0  0  0  0  0  0
  -22.7357  -29.2270   19.8802 H   0  0  0  0  0  0
  -25.1276  -36.1983   25.0833 H   0  0  0  0  0  0
  -20.9950  -28.3234   24.1446 H   0  0  0  0  0  0
  -20.5724  -26.2262   23.3555 H   0  0  0  0  0  0
  -21.6629  -26.7501   22.1147 H   0  0  0  0  0  0
  -19.6930  -25.6341   21.1171 H   0  0  0  0  0  0
  -19.6671  -27.3256   20.6749 H   0  0  0  0  0  0
  -17.4180  -26.6673   21.4009 H   0  0  0  0  0  0
  -18.0321  -26.0043   22.8988 H   0  0  0  0  0  0
  -19.7930  -30.7221   24.2324 H   0  0  0  0  0  0
  -17.5013  -31.6268   24.5165 H   0  0  0  0  0  0
  -15.5353  -30.3009   23.7647 H   0  0  0  0  0  0
  -15.8646  -28.0840   22.7087 H   0  0  0  0  0  0
  -24.5952  -30.6934   25.7662 H   0  0  0  0  0  0
  -24.8868  -32.2680   26.4931 H   0  0  0  0  0  0
  -25.8055  -30.8664   27.0134 H   0  0  0  0  0  0
  -26.2945  -29.6811   24.1093 H   0  0  0  0  0  0
  -27.4317  -29.7348   25.4389 H   0  0  0  0  0  0
  -27.8669  -30.4527   23.9055 H   0  0  0  0  0  0
  -27.2660  -33.3632   26.2050 H   0  0  0  0  0  0
  -28.3887  -32.6838   25.0369 H   0  0  0  0  0  0
  -28.0641  -31.8434   26.5451 H   0  0  0  0  0  0
  -28.2578  -38.0133   24.7553 H   0  0  0  0  0  0
  -28.1082  -36.2661   24.6299 H   0  0  0  0  0  0
  -27.2252  -37.1476   25.8866 H   0  0  0  0  0  0
  -20.9302  -29.8741   21.6954 H   0  0  0  0  0  0
  -26.0187  -38.2878   24.1382 H   0  0  0  0  0  0
  -32.5766  -15.6759   22.4197 H   0  0  0  0  0  0
  -32.4319  -19.9429   22.8923 H   0  0  0  0  0  0
  -29.0463  -17.8401   21.2250 H   0  0  0  0  0  0
  -34.4198  -18.8088   23.5669 H   0  0  0  0  0  0
  -25.8546  -20.4692   25.4845 H   0  0  0  0  0  0
  -26.2888  -22.1765   25.4983 H   0  0  0  0  0  0
  -27.5424  -20.9431   25.6397 H   0  0  0  0  0  0
  -29.7350  -23.5353   21.9836 H   0  0  0  0  0  0
  -29.9183  -22.7194   20.4684 H   0  0  0  0  0  0
  -27.0432  -20.1382   23.3284 H   0  0  0  0  0  0
  -25.7787  -21.3335   23.1496 H   0  0  0  0  0  0
  -29.3997  -25.7949   21.6204 H   0  0  0  0  0  0
  -27.6558  -25.7256   21.7647 H   0  0  0  0  0  0
  -28.9413  -20.4850   20.2056 H   0  0  0  0  0  0
  -28.0552  -19.8129   21.5356 H   0  0  0  0  0  0
  -27.2831  -22.0849   21.0045 H   0  0  0  0  0  0
  -34.3076  -15.9588   23.1606 H   0  0  0  0  0  0
  -29.1818  -15.2302   21.5965 H   0  0  0  0  0  0
  -30.6338  -21.1325   22.1675 H   0  0  0  0  0  0
  1 25  1  0  0  0
  1 30  2  0  0  0
  1 87  1  0  0  0
  2  3  1  0  0  0
  2 25  1  0  0  0
  2 91  1  0  0  0
  2 92  1  0  0  0
  3  4  1  0  0  0
  3 93  1  0  0  0
  3 94  1  0  0  0
  4  5  1  0  0  0
  4 95  1  0  0  0
  4 96  1  0  0  0
  5  6  1  0  0  0
  5 26  1  0  0  0
  5 97  1  0  0  0
  6 25  1  0  0  0
  6 98  1  0  0  0
  6 99  1  0  0  0
  7  8  2  0  0  0
  7 26  1  0  0  0
  7 29  1  0  0  0
  8  9  1  0  0  0
  8 22  1  0  0  0
  9 10  1  0  0  0
  9 27  2  0  0  0
 10 11  2  0  0  0
 10 15  1  0  0  0
 11 12  1  0  0  0
 11100  1  0  0  0
 12 13  2  0  0  0
 12101  1  0  0  0
 13 14  1  0  0  0
 13 31  1  0  0  0
 14 15  2  0  0  0
 14102  1  0  0  0
 15103  1  0  0  0
 16 17  2  0  0  0
 16 21  1  0  0  0
 16 31  1  0  0  0
 17 18  1  0  0  0
 17104  1  0  0  0
 18 19  2  0  0  0
 18105  1  0  0  0
 19 20  1  0  0  0
 19 24  1  0  0  0
 20 21  2  0  0  0
 20106  1  0  0  0
 21 23  1  0  0  0
 22 28  1  0  0  0
 22 32  2  0  0  0
 26 27  1  0  0  0
 28107  1  0  0  0
 28108  1  0  0  0
 29109  1  0  0  0
 29110  1  0  0  0
 33 34  1  0  0  0
 33 66  1  0  0  0
 33 70  2  0  0  0
 34 36  1  0  0  0
 34 59  1  0  0  0
 34111  1  0  0  0
 35 44  2  0  0  0
 35 45  1  0  0  0
 35 68  1  0  0  0
 36 56  1  0  0  0
 36112  1  0  0  0
 37 39  1  0  0  0
 37 47  1  0  0  0
 37 66  1  0  0  0
 37113  1  0  0  0
 38 43  2  0  0  0
 38 46  1  0  0  0
 38 47  1  0  0  0
 39 64  1  0  0  0
 39 67  2  0  0  0
 40 52  1  0  0  0
 40 53  2  0  0  0
 40 58  1  0  0  0
 41114  1  0  0  0
 41115  1  0  0  0
 41116  1  0  0  0
 41 48  1  0  0  0
 42 43  1  0  0  0
 42 66  1  0  0  0
 42117  1  0  0  0
 42118  1  0  0  0
 43 44  1  0  0  0
 44119  1  0  0  0
 45 46  2  0  0  0
 45120  1  0  0  0
 46121  1  0  0  0
 47122  1  0  0  0
 47123  1  0  0  0
 48 56  1  0  0  0
 48 65  1  0  0  0
 48124  1  0  0  0
 49 50  1  0  0  0
 49 53  1  0  0  0
 49 64  1  0  0  0
 49125  1  0  0  0
 50 51  1  0  0  0
 50126  1  0  0  0
 50127  1  0  0  0
 51 52  1  0  0  0
 51128  1  0  0  0
 51129  1  0  0  0
 52130  1  0  0  0
 52131  1  0  0  0
 53 54  1  0  0  0
 54 55  2  0  0  0
 54132  1  0  0  0
 55 57  1  0  0  0
 55133  1  0  0  0
 56 69  2  0  0  0
 57 58  2  0  0  0
 57134  1  0  0  0
 58135  1  0  0  0
 59 60  1  0  0  0
 59 61  1  0  0  0
 59 62  1  0  0  0
 60136  1  0  0  0
 60137  1  0  0  0
 60138  1  0  0  0
 61139  1  0  0  0
 61140  1  0  0  0
 61141  1  0  0  0
 62142  1  0  0  0
 62143  1  0  0  0
 62144  1  0  0  0
 63 65  1  0  0  0
 63145  1  0  0  0
 63146  1  0  0  0
 63147  1  0  0  0
 64148  1  0  0  0
 65149  1  0  0  0
 68 83  1  0  0  0
 71 74  2  0  0  0
 71 75  1  0  0  0
 71150  1  0  0  0
 72 74  1  0  0  0
 72 76  2  0  0  0
 72151  1  0  0  0
 73 75  2  0  0  0
 73 76  1  0  0  0
 73152  1  0  0  0
 74 77  1  0  0  0
 75 87  1  0  0  0
 76 88  1  0  0  0
 77 86  2  0  0  0
 77153  1  0  0  0
 78 81  1  0  0  0
 78 83  1  0  0  0
 78 89  2  0  0  0
 79 82  1  0  0  0
 79 85  1  0  0  0
 79 90  2  0  0  0
 80 82  1  0  0  0
 80154  1  0  0  0
 80155  1  0  0  0
 80156  1  0  0  0
 81157  1  0  0  0
 81158  1  0  0  0
 81 85  1  0  0  0
 82159  1  0  0  0
 82160  1  0  0  0
 83161  1  0  0  0
 83162  1  0  0  0
 84 85  1  0  0  0
 84 88  1  0  0  0
 84163  1  0  0  0
 84164  1  0  0  0
 85165  1  0  0  0
 86166  1  0  0  0
 87167  1  0  0  0
 88168  1  0  0  0
M  ISO  4   1 100  68 101  83 101  87 100
M  END
> <chiral flag>
0

> <version>
0

> <s_m_source_file>
/data/baiqing/PycharmProjects/Reinvent-master-3.2/result/LINK_invent/BTK/process_docking_weight1_custom_product_contain_oxygen_bond_distance_aromatic_linkinvent_7_9_3/rearranged_h_0167.sdf

> <i_m_source_file_index>
19

> <r_mmod_Potential_Energy-OPLS-2005>
-73.3079833984375

> <r_mmod_Stretch_Energy-OPLS-2005>
38.0777931213379

> <r_mmod_Bend_Energy-OPLS-2005>
106.426979064941

> <r_mmod_Torsional_Energy-OPLS-2005>
240.949661254883

> <r_mmod_Improper_Torsional_Energy-OPLS-2005>
3.32170057296753

> <r_mmod_Van_der_Waal_Energy-OPLS-2005>
157.324935913086

> <r_mmod_Electrostatic_Energy-OPLS-2005>
-372.415618896484

> <r_mmod_Solvation_Energy-OPLS-2005>
-255.439743041992

> <b_mmod_Minimization_Converged-OPLS-2005>
0

> <r_mmod_RMS_Derivative-OPLS-2005>
2.19191551208496

$$$$
19
                    3D
 Structure written by MMmdl.
160168  0  0  1  0            999 V2000
  -30.7210  -14.4368   20.5284 C   0  0  0  0  0  0
  -30.4117  -12.2720   19.4298 C   0  0  0  0  0  0
  -29.4923  -12.4919   18.2112 C   0  0  0  0  0  0
  -28.0122  -12.3622   18.6211 C   0  0  0  0  0  0
  -27.6611  -13.2054   19.8765 C   0  0  2  0  0  0
  -28.7036  -12.9993   21.0026 C   0  0  0  0  0  0
  -25.2581  -13.8166   20.5679 C   0  0  0  0  0  0
  -24.1827  -13.0452   20.9173 C   0  0  0  0  0  0
  -24.6375  -11.6915   20.8735 C   0  0  0  0  0  0
  -23.9041  -10.4304   21.0404 C   0  0  0  0  0  0
  -24.3603   -9.4221   21.9183 C   0  0  0  0  0  0
  -23.6291   -8.2243   22.0748 C   0  0  0  0  0  0
  -22.4273   -8.0277   21.3542 C   0  0  0  0  0  0
  -21.9904   -9.0246   20.4630 C   0  0  0  0  0  0
  -22.7225  -10.2127   20.3040 C   0  0  0  0  0  0
  -21.6847   -6.0735   22.5272 C   0  0  0  0  0  0
  -21.4012   -6.5640   23.8213 C   0  0  0  0  0  0
  -21.3655   -5.6793   24.9167 C   0  0  0  0  0  0
  -21.6040   -4.3054   24.7218 C   0  0  0  0  0  0
  -21.8819   -3.8144   23.4338 C   0  0  0  0  0  0
  -21.9194   -4.6962   22.3393 C   0  0  0  0  0  0
  -22.7856  -13.5252   21.1840 C   0  0  0  0  0  0
  -22.1661   -4.2156   21.0967 F   0  0  0  0  0  0
  -21.5623   -3.4533   25.7729 F   0  0  0  0  0  0
  -30.0411  -13.2646   20.4489 N   0  0  0  0  0  0
  -26.3018  -12.9335   20.3380 N   0  0  0  0  0  0
  -25.9308  -11.6497   20.5791 N   0  0  0  0  0  0
  -22.0479  -12.8238   22.0372 N   0  0  0  0  0  0
  -25.4330  -15.1876   20.4080 N   0  0  0  0  0  0
  -31.8708  -14.5784   20.1062 O   0  0  0  0  0  0
  -21.6633   -6.8878   21.4234 O   0  0  0  0  0  0
  -22.3560  -14.5571   20.6702 O   0  0  0  0  0  0
  -24.6116  -31.8698   23.2106 C   0  0  0  0  0  0
  -25.9019  -32.4833   23.8411 C   0  0  1  0  0  0
  -27.2438  -27.4737   20.0979 C   0  0  0  0  0  0
  -25.5892  -33.8631   24.2349 N   0  0  0  0  0  0
  -23.3992  -30.4901   21.5504 C   0  0  2  0  0  0
  -24.8486  -28.9573   20.1178 C   0  0  0  0  0  0
  -22.7392  -29.4671   22.5015 C   0  0  0  0  0  0
  -18.0266  -28.1379   22.8499 C   0  0  0  0  0  0
  -24.1482  -36.7313   23.2645 C   0  0  0  0  0  0
  -25.9213  -30.8497   21.3546 C   0  0  0  0  0  0
  -26.0039  -29.4840   20.7093 C   0  0  0  0  0  0
  -27.2079  -28.7492   20.6958 C   0  0  0  0  0  0
  -26.0784  -26.9485   19.5032 C   0  0  0  0  0  0
  -24.8790  -27.6868   19.5119 C   0  0  0  0  0  0
  -23.6056  -29.8170   20.1669 C   0  0  0  0  0  0
  -25.4106  -36.3122   24.0348 C   0  0  1  0  0  0
  -20.5855  -28.3666   23.1324 C   0  0  2  0  0  0
  -20.6764  -26.9408   22.5409 C   0  0  0  0  0  0
  -19.5736  -26.6399   21.5205 C   0  0  0  0  0  0
  -18.1911  -26.7932   22.1611 C   0  0  0  0  0  0
  -19.1514  -28.8837   23.2907 C   0  0  0  0  0  0
  -18.9446  -30.1447   23.8909 C   0  0  0  0  0  0
  -17.6452  -30.6584   24.0578 C   0  0  0  0  0  0
  -25.9026  -34.9484   23.5140 C   0  0  0  0  0  0
  -16.5341  -29.9088   23.6338 C   0  0  0  0  0  0
  -16.7260  -28.6510   23.0343 C   0  0  0  0  0  0
  -26.4469  -31.6592   25.0714 C   0  0  0  0  0  0
  -25.3749  -31.3605   26.1455 C   0  0  0  0  0  0
  -27.0346  -30.3082   24.6017 C   0  0  0  0  0  0
  -27.6027  -32.4322   25.7503 C   0  0  0  0  0  0
  -27.5572  -37.1826   24.8477 C   0  0  0  0  0  0
  -21.4126  -29.3044   22.3751 N   0  0  0  0  0  0
  -26.4293  -37.3801   23.9409 N   0  0  0  0  0  0
  -24.6623  -31.0833   22.0978 N   0  0  0  0  0  0
  -23.4175  -28.8222   23.3054 O   0  0  0  0  0  0
  -28.4060  -26.7510   20.0940 O   0  0  0  0  0  0
  -26.5587  -34.8932   22.4701 O   0  0  0  0  0  0
  -23.5319  -32.1420   23.7532 O   0  0  0  0  0  0
  -30.4153  -18.2585   22.0326 C   0  0  0  0  0  0
  -30.3247  -19.5097   22.6759 C   0  0  0  0  0  0
  -29.0261  -20.3666   20.8117 C   0  0  0  0  0  0
  -29.0913  -19.1134   20.1675 C   0  0  0  0  0  0
  -29.8253  -18.0509   20.7662 C   0  0  0  0  0  0
  -29.6594  -20.5855   22.0552 C   0  0  0  0  0  0
  -30.0775  -22.8303   22.0318 C   0  0  0  0  0  0
  -28.4275  -19.0126   18.8426 C   0  0  0  0  0  0
  -29.8225  -25.2181   21.3463 C   0  0  0  0  0  0
  -27.2753  -18.0246   18.7342 C   0  0  0  0  0  0
  -30.1191  -16.7456   20.0265 C   0  0  0  0  0  0
  -30.0140  -24.2599   22.5231 C   0  0  0  0  0  0
  -28.3963  -25.7043   21.0633 C   0  0  0  0  0  0
  -29.6156  -21.8349   22.6808 N   0  0  0  0  0  0
  -29.9638  -15.5101   20.8001 N   0  0  0  0  0  0
  -28.7195  -19.7234   17.8779 O   0  0  0  0  0  0
  -30.7845  -25.5852   20.6600 O   0  0  0  0  0  0
  -31.4593  -12.3447   19.1309 H   0  0  0  0  0  0
  -30.2856  -11.2639   19.8283 H   0  0  0  0  0  0
  -29.7260  -11.7678   17.4297 H   0  0  0  0  0  0
  -29.6702  -13.4784   17.7800 H   0  0  0  0  0  0
  -27.8174  -11.3064   18.8177 H   0  0  0  0  0  0
  -27.3628  -12.6383   17.7885 H   0  0  0  0  0  0
  -27.7025  -14.2513   19.5716 H   0  0  0  0  0  0
  -28.6607  -11.9744   21.3743 H   0  0  0  0  0  0
  -28.4821  -13.6345   21.8615 H   0  0  0  0  0  0
  -25.2741   -9.5687   22.4769 H   0  0  0  0  0  0
  -23.9995   -7.4630   22.7475 H   0  0  0  0  0  0
  -21.0832   -8.8754   19.8940 H   0  0  0  0  0  0
  -22.3689  -10.9659   19.6140 H   0  0  0  0  0  0
  -21.2005   -7.6144   23.9713 H   0  0  0  0  0  0
  -21.1478   -6.0520   25.9076 H   0  0  0  0  0  0
  -22.0602   -2.7615   23.2835 H   0  0  0  0  0  0
  -22.4104  -11.9887   22.4733 H   0  0  0  0  0  0
  -21.1092  -13.1254   22.2570 H   0  0  0  0  0  0
  -24.6664  -15.8445   20.5008 H   0  0  0  0  0  0
  -26.2857  -15.6170   20.0768 H   0  0  0  0  0  0
  -26.7095  -32.5576   23.1193 H   0  0  0  0  0  0
  -25.0078  -33.9803   25.0519 H   0  0  0  0  0  0
  -22.6870  -31.3051   21.4095 H   0  0  0  0  0  0
  -23.3751  -35.9637   23.3296 H   0  0  0  0  0  0
  -24.3587  -36.8933   22.2068 H   0  0  0  0  0  0
  -23.7217  -37.6505   23.6665 H   0  0  0  0  0  0
  -26.0168  -31.6121   20.5799 H   0  0  0  0  0  0
  -26.8148  -30.9158   21.9628 H   0  0  0  0  0  0
  -28.1038  -29.1540   21.1457 H   0  0  0  0  0  0
  -26.1017  -25.9763   19.0315 H   0  0  0  0  0  0
  -23.9919  -27.2736   19.0522 H   0  0  0  0  0  0
  -23.7075  -30.5876   19.4022 H   0  0  0  0  0  0
  -22.7315  -29.2323   19.8756 H   0  0  0  0  0  0
  -25.1285  -36.2001   25.0849 H   0  0  0  0  0  0
  -20.9944  -28.3208   24.1447 H   0  0  0  0  0  0
  -20.5693  -26.2265   23.3574 H   0  0  0  0  0  0
  -21.6626  -26.7467   22.1181 H   0  0  0  0  0  0
  -19.6902  -25.6317   21.1216 H   0  0  0  0  0  0
  -19.6670  -27.3227   20.6748 H   0  0  0  0  0  0
  -17.4189  -26.6708   21.3998 H   0  0  0  0  0  0
  -18.0287  -26.0049   22.8979 H   0  0  0  0  0  0
  -19.7918  -30.7280   24.2254 H   0  0  0  0  0  0
  -17.4996  -31.6262   24.5185 H   0  0  0  0  0  0
  -15.5340  -30.2998   23.7647 H   0  0  0  0  0  0
  -15.8653  -28.0851   22.7026 H   0  0  0  0  0  0
  -24.5951  -30.6944   25.7753 H   0  0  0  0  0  0
  -24.8912  -32.2716   26.4984 H   0  0  0  0  0  0
  -25.8126  -30.8709   27.0164 H   0  0  0  0  0  0
  -26.2884  -29.6798   24.1145 H   0  0  0  0  0  0
  -27.4274  -29.7347   25.4424 H   0  0  0  0  0  0
  -27.8628  -30.4488   23.9065 H   0  0  0  0  0  0
  -27.2643  -33.3629   26.2074 H   0  0  0  0  0  0
  -28.3851  -32.6866   25.0338 H   0  0  0  0  0  0
  -28.0675  -31.8444   26.5428 H   0  0  0  0  0  0
  -28.2584  -38.0129   24.7527 H   0  0  0  0  0  0
  -28.1073  -36.2655   24.6312 H   0  0  0  0  0  0
  -27.2283  -37.1491   25.8877 H   0  0  0  0  0  0
  -20.9289  -29.8774   21.6985 H   0  0  0  0  0  0
  -26.0178  -38.2886   24.1380 H   0  0  0  0  0  0
  -30.9880  -17.4690   22.4987 H   0  0  0  0  0  0
  -30.8036  -19.6471   23.6354 H   0  0  0  0  0  0
  -28.4824  -21.1737   20.3382 H   0  0  0  0  0  0
  -30.5646  -22.7120   21.0580 H   0  0  0  0  0  0
  -27.0589  -17.5846   19.7065 H   0  0  0  0  0  0
  -27.5183  -17.2302   18.0303 H   0  0  0  0  0  0
  -26.3803  -18.5360   18.3810 H   0  0  0  0  0  0
  -31.1372  -16.8546   19.6441 H   0  0  0  0  0  0
  -29.5053  -16.6200   19.1369 H   0  0  0  0  0  0
  -30.9344  -24.5087   23.0509 H   0  0  0  0  0  0
  -29.1898  -24.3700   23.2283 H   0  0  0  0  0  0
  -27.9619  -26.0575   21.9994 H   0  0  0  0  0  0
  -27.7878  -24.8719   20.7096 H   0  0  0  0  0  0
  -29.0551  -15.3321   21.1983 H   0  0  0  0  0  0
  1 25  1  0  0  0
  1 30  2  0  0  0
  1 85  1  0  0  0
  2  3  1  0  0  0
  2 25  1  0  0  0
  2 88  1  0  0  0
  2 89  1  0  0  0
  3  4  1  0  0  0
  3 90  1  0  0  0
  3 91  1  0  0  0
  4  5  1  0  0  0
  4 92  1  0  0  0
  4 93  1  0  0  0
  5  6  1  0  0  0
  5 26  1  0  0  0
  5 94  1  0  0  0
  6 25  1  0  0  0
  6 95  1  0  0  0
  6 96  1  0  0  0
  7  8  2  0  0  0
  7 26  1  0  0  0
  7 29  1  0  0  0
  8  9  1  0  0  0
  8 22  1  0  0  0
  9 10  1  0  0  0
  9 27  2  0  0  0
 10 11  2  0  0  0
 10 15  1  0  0  0
 11 12  1  0  0  0
 11 97  1  0  0  0
 12 13  2  0  0  0
 12 98  1  0  0  0
 13 14  1  0  0  0
 13 31  1  0  0  0
 14 15  2  0  0  0
 14 99  1  0  0  0
 15100  1  0  0  0
 16 17  2  0  0  0
 16 21  1  0  0  0
 16 31  1  0  0  0
 17 18  1  0  0  0
 17101  1  0  0  0
 18 19  2  0  0  0
 18102  1  0  0  0
 19 20  1  0  0  0
 19 24  1  0  0  0
 20 21  2  0  0  0
 20103  1  0  0  0
 21 23  1  0  0  0
 22 28  1  0  0  0
 22 32  2  0  0  0
 26 27  1  0  0  0
 28104  1  0  0  0
 28105  1  0  0  0
 29106  1  0  0  0
 29107  1  0  0  0
 33 34  1  0  0  0
 33 66  1  0  0  0
 33 70  2  0  0  0
 34 36  1  0  0  0
 34 59  1  0  0  0
 34108  1  0  0  0
 35 44  2  0  0  0
 35 45  1  0  0  0
 35 68  1  0  0  0
 36 56  1  0  0  0
 36109  1  0  0  0
 37 39  1  0  0  0
 37 47  1  0  0  0
 37 66  1  0  0  0
 37110  1  0  0  0
 38 43  2  0  0  0
 38 46  1  0  0  0
 38 47  1  0  0  0
 39 64  1  0  0  0
 39 67  2  0  0  0
 40 52  1  0  0  0
 40 53  2  0  0  0
 40 58  1  0  0  0
 41111  1  0  0  0
 41112  1  0  0  0
 41113  1  0  0  0
 41 48  1  0  0  0
 42 43  1  0  0  0
 42 66  1  0  0  0
 42114  1  0  0  0
 42115  1  0  0  0
 43 44  1  0  0  0
 44116  1  0  0  0
 45 46  2  0  0  0
 45117  1  0  0  0
 46118  1  0  0  0
 47119  1  0  0  0
 47120  1  0  0  0
 48 56  1  0  0  0
 48 65  1  0  0  0
 48121  1  0  0  0
 49 50  1  0  0  0
 49 53  1  0  0  0
 49 64  1  0  0  0
 49122  1  0  0  0
 50 51  1  0  0  0
 50123  1  0  0  0
 50124  1  0  0  0
 51 52  1  0  0  0
 51125  1  0  0  0
 51126  1  0  0  0
 52127  1  0  0  0
 52128  1  0  0  0
 53 54  1  0  0  0
 54 55  2  0  0  0
 54129  1  0  0  0
 55 57  1  0  0  0
 55130  1  0  0  0
 56 69  2  0  0  0
 57 58  2  0  0  0
 57131  1  0  0  0
 58132  1  0  0  0
 59 60  1  0  0  0
 59 61  1  0  0  0
 59 62  1  0  0  0
 60133  1  0  0  0
 60134  1  0  0  0
 60135  1  0  0  0
 61136  1  0  0  0
 61137  1  0  0  0
 61138  1  0  0  0
 62139  1  0  0  0
 62140  1  0  0  0
 62141  1  0  0  0
 63 65  1  0  0  0
 63142  1  0  0  0
 63143  1  0  0  0
 63144  1  0  0  0
 64145  1  0  0  0
 65146  1  0  0  0
 68 83  1  0  0  0
 71 72  2  0  0  0
 71 75  1  0  0  0
 71147  1  0  0  0
 72 76  1  0  0  0
 72148  1  0  0  0
 73 74  1  0  0  0
 73 76  2  0  0  0
 73149  1  0  0  0
 74 75  2  0  0  0
 74 78  1  0  0  0
 75 81  1  0  0  0
 76 84  1  0  0  0
 77 82  1  0  0  0
 77 84  2  0  0  0
 77150  1  0  0  0
 78 80  1  0  0  0
 78 86  2  0  0  0
 79 82  1  0  0  0
 79 83  1  0  0  0
 79 87  2  0  0  0
 80151  1  0  0  0
 80152  1  0  0  0
 80153  1  0  0  0
 81 85  1  0  0  0
 81154  1  0  0  0
 81155  1  0  0  0
 82156  1  0  0  0
 82157  1  0  0  0
 83158  1  0  0  0
 83159  1  0  0  0
 85160  1  0  0  0
M  ISO  4   1 100  68 101  83 101  85 100
M  END
> <chiral flag>
0

> <version>
0

> <s_m_source_file>
/data/baiqing/PycharmProjects/Reinvent-master-3.2/result/LINK_invent/BTK/process_docking_weight1_custom_product_contain_oxygen_bond_distance_aromatic_linkinvent_7_9_3/rearranged_h_0167.sdf

> <i_m_source_file_index>
20

> <r_mmod_Potential_Energy-OPLS-2005>
-111.600730895996

> <r_mmod_Stretch_Energy-OPLS-2005>
33.2337379455566

> <r_mmod_Bend_Energy-OPLS-2005>
86.8883285522461

> <r_mmod_Torsional_Energy-OPLS-2005>
307.796783447266

> <r_mmod_Improper_Torsional_Energy-OPLS-2005>
10.6553792953491

> <r_mmod_Van_der_Waal_Energy-OPLS-2005>
155.023025512695

> <r_mmod_Electrostatic_Energy-OPLS-2005>
-466.677459716797

> <r_mmod_Solvation_Energy-OPLS-2005>
-250.221237182617

> <b_mmod_Minimization_Converged-OPLS-2005>
0

> <r_mmod_RMS_Derivative-OPLS-2005>
2.04877090454102

$$$$
20
                    3D
 Structure written by MMmdl.
157166  0  0  1  0            999 V2000
  -30.6292  -14.5325   20.5751 C   0  0  0  0  0  0
  -30.4451  -12.3443   19.4223 C   0  0  0  0  0  0
  -29.5043  -12.5192   18.2086 C   0  0  0  0  0  0
  -28.0248  -12.3672   18.6184 C   0  0  0  0  0  0
  -27.6652  -13.1979   19.8781 C   0  0  2  0  0  0
  -28.7062  -12.9566   20.9943 C   0  0  0  0  0  0
  -25.2617  -13.8137   20.5667 C   0  0  0  0  0  0
  -24.1852  -13.0433   20.9168 C   0  0  0  0  0  0
  -24.6390  -11.6893   20.8719 C   0  0  0  0  0  0
  -23.9045  -10.4290   21.0397 C   0  0  0  0  0  0
  -24.3603   -9.4209   21.9177 C   0  0  0  0  0  0
  -23.6283   -8.2243   22.0756 C   0  0  0  0  0  0
  -22.4264   -8.0279   21.3546 C   0  0  0  0  0  0
  -21.9888   -9.0252   20.4649 C   0  0  0  0  0  0
  -22.7214  -10.2135   20.3053 C   0  0  0  0  0  0
  -21.6854   -6.0727   22.5273 C   0  0  0  0  0  0
  -21.4017   -6.5633   23.8207 C   0  0  0  0  0  0
  -21.3656   -5.6788   24.9168 C   0  0  0  0  0  0
  -21.6043   -4.3051   24.7222 C   0  0  0  0  0  0
  -21.8821   -3.8142   23.4344 C   0  0  0  0  0  0
  -21.9198   -4.6956   22.3397 C   0  0  0  0  0  0
  -22.7880  -13.5246   21.1837 C   0  0  0  0  0  0
  -22.1666   -4.2140   21.0975 F   0  0  0  0  0  0
  -21.5623   -3.4539   25.7737 F   0  0  0  0  0  0
  -30.0344  -13.3097   20.4557 N   0  0  0  0  0  0
  -26.3040  -12.9281   20.3347 N   0  0  0  0  0  0
  -25.9314  -11.6455   20.5739 N   0  0  0  0  0  0
  -22.0515  -12.8255   22.0399 N   0  0  0  0  0  0
  -25.4376  -15.1853   20.4073 N   0  0  0  0  0  0
  -31.7397  -14.7839   20.0930 O   0  0  0  0  0  0
  -21.6636   -6.8873   21.4236 O   0  0  0  0  0  0
  -22.3571  -14.5552   20.6683 O   0  0  0  0  0  0
  -24.6180  -31.8657   23.2072 C   0  0  0  0  0  0
  -25.9054  -32.4815   23.8384 C   0  0  1  0  0  0
  -27.2308  -27.3963   20.1110 C   0  0  0  0  0  0
  -25.5891  -33.8613   24.2310 N   0  0  0  0  0  0
  -23.4089  -30.4883   21.5482 C   0  0  2  0  0  0
  -24.8575  -28.9492   20.1154 C   0  0  0  0  0  0
  -22.7434  -29.4648   22.4969 C   0  0  0  0  0  0
  -18.0280  -28.1379   22.8491 C   0  0  0  0  0  0
  -24.1484  -36.7316   23.2638 C   0  0  0  0  0  0
  -25.9418  -30.8208   21.3659 C   0  0  0  0  0  0
  -26.0210  -29.4520   20.7131 C   0  0  0  0  0  0
  -27.2150  -28.6855   20.7037 C   0  0  0  0  0  0
  -26.0521  -26.9214   19.4984 C   0  0  0  0  0  0
  -24.8698  -27.6848   19.5026 C   0  0  0  0  0  0
  -23.6211  -29.8204   20.1638 C   0  0  0  0  0  0
  -25.4104  -36.3108   24.0336 C   0  0  1  0  0  0
  -20.5874  -28.3674   23.1308 C   0  0  2  0  0  0
  -20.6769  -26.9406   22.5416 C   0  0  0  0  0  0
  -19.5745  -26.6387   21.5212 C   0  0  0  0  0  0
  -18.1926  -26.7926   22.1625 C   0  0  0  0  0  0
  -19.1531  -28.8840   23.2897 C   0  0  0  0  0  0
  -18.9457  -30.1444   23.8911 C   0  0  0  0  0  0
  -17.6460  -30.6584   24.0565 C   0  0  0  0  0  0
  -25.9034  -34.9475   23.5125 C   0  0  0  0  0  0
  -16.5352  -29.9088   23.6323 C   0  0  0  0  0  0
  -16.7269  -28.6503   23.0349 C   0  0  0  0  0  0
  -26.4463  -31.6603   25.0727 C   0  0  0  0  0  0
  -25.3722  -31.3737   26.1476 C   0  0  0  0  0  0
  -27.0292  -30.3037   24.6125 C   0  0  0  0  0  0
  -27.6040  -32.4326   25.7485 C   0  0  0  0  0  0
  -27.5577  -37.1814   24.8463 C   0  0  0  0  0  0
  -21.4157  -29.3039   22.3711 N   0  0  0  0  0  0
  -26.4290  -37.3793   23.9405 N   0  0  0  0  0  0
  -24.6746  -31.0729   22.0989 N   0  0  0  0  0  0
  -23.4189  -28.8189   23.3024 O   0  0  0  0  0  0
  -28.3584  -26.5913   20.1158 O   0  0  0  0  0  0
  -26.5610  -34.8930   22.4694 O   0  0  0  0  0  0
  -23.5362  -32.1423   23.7441 O   0  0  0  0  0  0
  -30.3677  -19.1697   20.4214 C   0  0  0  0  0  0
  -30.6524  -17.7769   20.5230 C   0  0  0  0  0  0
  -28.4295  -17.4075   21.4014 C   0  0  0  0  0  0
  -29.1057  -19.7035   20.8005 C   0  0  0  0  0  0
  -29.6806  -16.8702   21.0205 C   0  0  0  0  0  0
  -28.1416  -18.7867   21.2897 C   0  0  0  0  0  0
  -29.4814  -23.2650   21.7207 C   0  0  0  0  0  0
  -28.9749  -21.9091   19.3444 C   0  0  0  0  0  0
  -28.7580  -21.2198   20.7191 C   0  0  2  0  0  0
  -29.1196  -24.1518   20.5071 C   0  0  2  0  0  0
  -28.2338  -25.3860   20.9210 C   0  0  0  0  0  0
  -29.3960  -21.9827   21.7975 N   0  0  0  0  0  0
  -29.8579  -15.4513   21.2055 N   0  0  0  0  0  0
  -28.5109  -23.3265   19.4165 N   0  3  0  0  0  0
  -26.9154  -19.2214   21.6698 F   0  0  0  0  0  0
  -31.4849  -12.4834   19.1192 H   0  0  0  0  0  0
  -30.3823  -11.3272   19.8125 H   0  0  0  0  0  0
  -29.7517  -11.7933   17.4333 H   0  0  0  0  0  0
  -29.6608  -13.5038   17.7640 H   0  0  0  0  0  0
  -27.8385  -11.3094   18.8084 H   0  0  0  0  0  0
  -27.3752  -12.6437   17.7877 H   0  0  0  0  0  0
  -27.7133  -14.2479   19.5909 H   0  0  0  0  0  0
  -28.7003  -11.9067   21.2910 H   0  0  0  0  0  0
  -28.4481  -13.5053   21.9015 H   0  0  0  0  0  0
  -25.2753   -9.5685   22.4744 H   0  0  0  0  0  0
  -23.9993   -7.4632   22.7476 H   0  0  0  0  0  0
  -21.0814   -8.8769   19.8961 H   0  0  0  0  0  0
  -22.3668  -10.9671   19.6160 H   0  0  0  0  0  0
  -21.2014   -7.6141   23.9706 H   0  0  0  0  0  0
  -21.1473   -6.0520   25.9070 H   0  0  0  0  0  0
  -22.0605   -2.7603   23.2851 H   0  0  0  0  0  0
  -22.4125  -11.9915   22.4787 H   0  0  0  0  0  0
  -21.1137  -13.1297   22.2600 H   0  0  0  0  0  0
  -24.6714  -15.8422   20.5087 H   0  0  0  0  0  0
  -26.2806  -15.6133   20.0479 H   0  0  0  0  0  0
  -26.7129  -32.5519   23.1152 H   0  0  0  0  0  0
  -25.0012  -33.9769   25.0435 H   0  0  0  0  0  0
  -22.6992  -31.3060   21.4068 H   0  0  0  0  0  0
  -23.3736  -35.9661   23.3320 H   0  0  0  0  0  0
  -24.3574  -36.8913   22.2048 H   0  0  0  0  0  0
  -23.7251  -37.6532   23.6643 H   0  0  0  0  0  0
  -26.0578  -31.5843   20.5953 H   0  0  0  0  0  0
  -26.8281  -30.8760   21.9867 H   0  0  0  0  0  0
  -28.1116  -29.0685   21.1717 H   0  0  0  0  0  0
  -26.0419  -25.9517   19.0218 H   0  0  0  0  0  0
  -23.9772  -27.2923   19.0354 H   0  0  0  0  0  0
  -23.7348  -30.5956   19.4052 H   0  0  0  0  0  0
  -22.7438  -29.2446   19.8639 H   0  0  0  0  0  0
  -25.1279  -36.1976   25.0829 H   0  0  0  0  0  0
  -20.9963  -28.3243   24.1430 H   0  0  0  0  0  0
  -20.5666  -26.2281   23.3605 H   0  0  0  0  0  0
  -21.6642  -26.7444   22.1212 H   0  0  0  0  0  0
  -19.6908  -25.6303   21.1226 H   0  0  0  0  0  0
  -19.6676  -27.3207   20.6749 H   0  0  0  0  0  0
  -17.4192  -26.6673   21.4033 H   0  0  0  0  0  0
  -18.0327  -26.0065   22.9016 H   0  0  0  0  0  0
  -19.7935  -30.7256   24.2289 H   0  0  0  0  0  0
  -17.5017  -31.6266   24.5166 H   0  0  0  0  0  0
  -15.5353  -30.2998   23.7639 H   0  0  0  0  0  0
  -15.8669  -28.0826   22.7061 H   0  0  0  0  0  0
  -24.5871  -30.7109   25.7820 H   0  0  0  0  0  0
  -24.8943  -32.2908   26.4934 H   0  0  0  0  0  0
  -25.8061  -30.8891   27.0231 H   0  0  0  0  0  0
  -26.2849  -29.6815   24.1141 H   0  0  0  0  0  0
  -27.4007  -29.7263   25.4601 H   0  0  0  0  0  0
  -27.8709  -30.4347   23.9321 H   0  0  0  0  0  0
  -27.2653  -33.3608   26.2102 H   0  0  0  0  0  0
  -28.3825  -32.6917   25.0297 H   0  0  0  0  0  0
  -28.0737  -31.8431   26.5369 H   0  0  0  0  0  0
  -28.2610  -38.0096   24.7496 H   0  0  0  0  0  0
  -28.1058  -36.2631   24.6299 H   0  0  0  0  0  0
  -27.2300  -37.1483   25.8869 H   0  0  0  0  0  0
  -20.9320  -29.8765   21.6936 H   0  0  0  0  0  0
  -26.0181  -38.2874   24.1397 H   0  0  0  0  0  0
  -31.1359  -19.8356   20.0558 H   0  0  0  0  0  0
  -31.6290  -17.4182   20.2283 H   0  0  0  0  0  0
  -27.6577  -16.7591   21.7908 H   0  0  0  0  0  0
  -29.8931  -23.8321   22.5603 H   0  0  0  0  0  0
  -28.4134  -21.3856   18.5695 H   0  0  0  0  0  0
  -30.0254  -21.8753   19.0516 H   0  0  0  0  0  0
  -27.6818  -21.2754   20.8933 H   0  0  0  0  0  0
  -30.0688  -24.5366   20.1339 H   0  0  0  0  0  0
  -28.5183  -25.7040   21.9255 H   0  0  0  0  0  0
  -27.1958  -25.0637   21.0193 H   0  0  0  0  0  0
  -29.0742  -15.0031   21.6543 H   0  0  0  0  0  0
  -27.5141  -23.2948   19.5575 H   0  0  0  0  0  0
  -28.6722  -23.7757   18.5291 H   0  0  0  0  0  0
  1 25  1  0  0  0
  1 30  2  0  0  0
  1 83  1  0  0  0
  2  3  1  0  0  0
  2 25  1  0  0  0
  2 86  1  0  0  0
  2 87  1  0  0  0
  3  4  1  0  0  0
  3 88  1  0  0  0
  3 89  1  0  0  0
  4  5  1  0  0  0
  4 90  1  0  0  0
  4 91  1  0  0  0
  5  6  1  0  0  0
  5 26  1  0  0  0
  5 92  1  0  0  0
  6 25  1  0  0  0
  6 93  1  0  0  0
  6 94  1  0  0  0
  7  8  2  0  0  0
  7 26  1  0  0  0
  7 29  1  0  0  0
  8  9  1  0  0  0
  8 22  1  0  0  0
  9 10  1  0  0  0
  9 27  2  0  0  0
 10 11  2  0  0  0
 10 15  1  0  0  0
 11 12  1  0  0  0
 11 95  1  0  0  0
 12 13  2  0  0  0
 12 96  1  0  0  0
 13 14  1  0  0  0
 13 31  1  0  0  0
 14 15  2  0  0  0
 14 97  1  0  0  0
 15 98  1  0  0  0
 16 17  2  0  0  0
 16 21  1  0  0  0
 16 31  1  0  0  0
 17 18  1  0  0  0
 17 99  1  0  0  0
 18 19  2  0  0  0
 18100  1  0  0  0
 19 20  1  0  0  0
 19 24  1  0  0  0
 20 21  2  0  0  0
 20101  1  0  0  0
 21 23  1  0  0  0
 22 28  1  0  0  0
 22 32  2  0  0  0
 26 27  1  0  0  0
 28102  1  0  0  0
 28103  1  0  0  0
 29104  1  0  0  0
 29105  1  0  0  0
 33 34  1  0  0  0
 33 66  1  0  0  0
 33 70  2  0  0  0
 34 36  1  0  0  0
 34 59  1  0  0  0
 34106  1  0  0  0
 35 44  2  0  0  0
 35 45  1  0  0  0
 35 68  1  0  0  0
 36 56  1  0  0  0
 36107  1  0  0  0
 37 39  1  0  0  0
 37 47  1  0  0  0
 37 66  1  0  0  0
 37108  1  0  0  0
 38 43  2  0  0  0
 38 46  1  0  0  0
 38 47  1  0  0  0
 39 64  1  0  0  0
 39 67  2  0  0  0
 40 52  1  0  0  0
 40 53  2  0  0  0
 40 58  1  0  0  0
 41109  1  0  0  0
 41110  1  0  0  0
 41111  1  0  0  0
 41 48  1  0  0  0
 42 43  1  0  0  0
 42 66  1  0  0  0
 42112  1  0  0  0
 42113  1  0  0  0
 43 44  1  0  0  0
 44114  1  0  0  0
 45 46  2  0  0  0
 45115  1  0  0  0
 46116  1  0  0  0
 47117  1  0  0  0
 47118  1  0  0  0
 48 56  1  0  0  0
 48 65  1  0  0  0
 48119  1  0  0  0
 49 50  1  0  0  0
 49 53  1  0  0  0
 49 64  1  0  0  0
 49120  1  0  0  0
 50 51  1  0  0  0
 50121  1  0  0  0
 50122  1  0  0  0
 51 52  1  0  0  0
 51123  1  0  0  0
 51124  1  0  0  0
 52125  1  0  0  0
 52126  1  0  0  0
 53 54  1  0  0  0
 54 55  2  0  0  0
 54127  1  0  0  0
 55 57  1  0  0  0
 55128  1  0  0  0
 56 69  2  0  0  0
 57 58  2  0  0  0
 57129  1  0  0  0
 58130  1  0  0  0
 59 60  1  0  0  0
 59 61  1  0  0  0
 59 62  1  0  0  0
 60131  1  0  0  0
 60132  1  0  0  0
 60133  1  0  0  0
 61134  1  0  0  0
 61135  1  0  0  0
 61136  1  0  0  0
 62137  1  0  0  0
 62138  1  0  0  0
 62139  1  0  0  0
 63 65  1  0  0  0
 63140  1  0  0  0
 63141  1  0  0  0
 63142  1  0  0  0
 64143  1  0  0  0
 65144  1  0  0  0
 68 81  1  0  0  0
 71 72  2  0  0  0
 71 74  1  0  0  0
 71145  1  0  0  0
 72 75  1  0  0  0
 72146  1  0  0  0
 73 75  2  0  0  0
 73 76  1  0  0  0
 73147  1  0  0  0
 74 76  2  0  0  0
 74 79  1  0  0  0
 75 83  1  0  0  0
 76 85  1  0  0  0
 77 80  1  0  0  0
 77 82  2  0  0  0
 77148  1  0  0  0
 78 79  1  0  0  0
 78 84  1  0  0  0
 78149  1  0  0  0
 78150  1  0  0  0
 79 82  1  0  0  0
 79151  1  0  0  0
 80 81  1  0  0  0
 80 84  1  0  0  0
 80152  1  0  0  0
 81153  1  0  0  0
 81154  1  0  0  0
 83155  1  0  0  0
 84156  1  0  0  0
 84157  1  0  0  0
M  CHG  1  84   1
M  ISO  4   1 100  68 101  81 101  83 100
M  END
> <chiral flag>
0

> <version>
0

> <s_m_source_file>
/data/baiqing/PycharmProjects/Reinvent-master-3.2/result/LINK_invent/BTK/process_docking_weight1_custom_product_contain_oxygen_bond_distance_aromatic_linkinvent_7_9_3/rearranged_h_0167.sdf

> <i_m_source_file_index>
21

> <r_mmod_Potential_Energy-OPLS-2005>
-153.602127075195

> <r_mmod_Stretch_Energy-OPLS-2005>
54.0624122619629

> <r_mmod_Bend_Energy-OPLS-2005>
121.10814666748

> <r_mmod_Torsional_Energy-OPLS-2005>
252.041213989258

> <r_mmod_Improper_Torsional_Energy-OPLS-2005>
4.1228985786438

> <r_mmod_Van_der_Waal_Energy-OPLS-2005>
158.611740112305

> <r_mmod_Electrostatic_Energy-OPLS-2005>
-289.100494384766

> <r_mmod_Solvation_Energy-OPLS-2005>
-476.300598144531

> <b_mmod_Minimization_Converged-OPLS-2005>
0

> <r_mmod_RMS_Derivative-OPLS-2005>
1.14408481121063

$$$$
21
                    3D
 Structure written by MMmdl.
163172  0  0  1  0            999 V2000
  -30.6048  -14.6315   20.5153 C   0  0  0  0  0  0
  -30.4464  -12.3904   19.4452 C   0  0  0  0  0  0
  -29.5097  -12.5100   18.2213 C   0  0  0  0  0  0
  -28.0316  -12.3476   18.6326 C   0  0  0  0  0  0
  -27.6566  -13.2096   19.8672 C   0  0  2  0  0  0
  -28.7014  -13.0391   20.9936 C   0  0  0  0  0  0
  -25.2575  -13.8150   20.5664 C   0  0  0  0  0  0
  -24.1838  -13.0430   20.9188 C   0  0  0  0  0  0
  -24.6395  -11.6897   20.8739 C   0  0  0  0  0  0
  -23.9057  -10.4287   21.0407 C   0  0  0  0  0  0
  -24.3610   -9.4204   21.9185 C   0  0  0  0  0  0
  -23.6287   -8.2239   22.0754 C   0  0  0  0  0  0
  -22.4271   -8.0276   21.3543 C   0  0  0  0  0  0
  -21.9904   -9.0250   20.4647 C   0  0  0  0  0  0
  -22.7230  -10.2130   20.3055 C   0  0  0  0  0  0
  -21.6852   -6.0731   22.5278 C   0  0  0  0  0  0
  -21.4014   -6.5635   23.8211 C   0  0  0  0  0  0
  -21.3657   -5.6788   24.9173 C   0  0  0  0  0  0
  -21.6045   -4.3050   24.7224 C   0  0  0  0  0  0
  -21.8820   -3.8142   23.4346 C   0  0  0  0  0  0
  -21.9194   -4.6959   22.3402 C   0  0  0  0  0  0
  -22.7863  -13.5233   21.1852 C   0  0  0  0  0  0
  -22.1663   -4.2146   21.0980 F   0  0  0  0  0  0
  -21.5628   -3.4534   25.7735 F   0  0  0  0  0  0
  -30.0184  -13.3952   20.4373 N   0  0  0  0  0  0
  -26.3002  -12.9318   20.3322 N   0  0  0  0  0  0
  -25.9321  -11.6480   20.5756 N   0  0  0  0  0  0
  -22.0498  -12.8230   22.0405 N   0  0  0  0  0  0
  -25.4283  -15.1869   20.4038 N   0  0  0  0  0  0
  -31.7582  -14.8272   20.1179 O   0  0  0  0  0  0
  -21.6637   -6.8874   21.4239 O   0  0  0  0  0  0
  -22.3551  -14.5536   20.6693 O   0  0  0  0  0  0
  -24.6251  -31.8606   23.2026 C   0  0  0  0  0  0
  -25.9097  -32.4785   23.8358 C   0  0  1  0  0  0
  -27.2291  -27.3291   20.1176 C   0  0  0  0  0  0
  -25.5911  -33.8585   24.2286 N   0  0  0  0  0  0
  -23.4183  -30.4845   21.5444 C   0  0  2  0  0  0
  -24.8660  -28.9407   20.1115 C   0  0  0  0  0  0
  -22.7465  -29.4631   22.4931 C   0  0  0  0  0  0
  -18.0275  -28.1392   22.8498 C   0  0  0  0  0  0
  -24.1480  -36.7297   23.2638 C   0  0  0  0  0  0
  -25.9587  -30.7963   21.3709 C   0  0  0  0  0  0
  -26.0340  -29.4241   20.7140 C   0  0  0  0  0  0
  -27.2183  -28.6302   20.7062 C   0  0  0  0  0  0
  -26.0360  -26.8969   19.4906 C   0  0  0  0  0  0
  -24.8689  -27.6827   19.4907 C   0  0  0  0  0  0
  -23.6328  -29.8187   20.1598 C   0  0  0  0  0  0
  -25.4106  -36.3092   24.0333 C   0  0  1  0  0  0
  -20.5879  -28.3691   23.1285 C   0  0  2  0  0  0
  -20.6765  -26.9413   22.5415 C   0  0  0  0  0  0
  -19.5740  -26.6391   21.5216 C   0  0  0  0  0  0
  -18.1919  -26.7938   22.1626 C   0  0  0  0  0  0
  -19.1532  -28.8858   23.2888 C   0  0  0  0  0  0
  -18.9460  -30.1460   23.8906 C   0  0  0  0  0  0
  -17.6463  -30.6600   24.0568 C   0  0  0  0  0  0
  -25.9047  -34.9460   23.5115 C   0  0  0  0  0  0
  -16.5351  -29.9103   23.6336 C   0  0  0  0  0  0
  -16.7266  -28.6514   23.0367 C   0  0  0  0  0  0
  -26.4483  -31.6590   25.0724 C   0  0  0  0  0  0
  -25.3719  -31.3728   26.1451 C   0  0  0  0  0  0
  -27.0312  -30.3014   24.6164 C   0  0  0  0  0  0
  -27.6045  -32.4319   25.7497 C   0  0  0  0  0  0
  -27.5578  -37.1801   24.8463 C   0  0  0  0  0  0
  -21.4178  -29.3048   22.3680 N   0  0  0  0  0  0
  -26.4284  -37.3787   23.9416 N   0  0  0  0  0  0
  -24.6861  -31.0634   22.0965 N   0  0  0  0  0  0
  -23.4195  -28.8158   23.2993 O   0  0  0  0  0  0
  -28.3567  -26.4956   20.1718 O   0  0  0  0  0  0
  -26.5620  -34.8926   22.4683 O   0  0  0  0  0  0
  -23.5416  -32.1390   23.7368 O   0  0  0  0  0  0
  -28.5391  -19.2035   21.3169 C   0  0  0  0  0  0
  -30.7710  -19.3435   20.4376 C   0  0  0  0  0  0
  -28.6190  -17.7838   21.2768 C   0  0  0  0  0  0
  -30.8527  -17.9139   20.3956 C   0  0  0  0  0  0
  -29.6220  -20.0326   20.9289 C   0  0  0  0  0  0
  -29.7814  -17.0939   20.8442 C   0  0  0  0  0  0
  -30.8425  -23.4571   22.4973 C   0  0  0  0  0  0
  -30.9319  -22.0510   21.8679 C   0  0  0  0  0  0
  -29.6675  -24.3012   21.9598 C   0  0  0  0  0  0
  -29.5974  -21.5809   21.2535 C   0  0  1  0  0  0
  -29.3733  -24.0736   20.4555 C   0  0  2  0  0  0
  -30.5944  -24.5074   19.6099 C   0  0  0  0  0  0
  -28.1676  -25.0326   20.0301 C   0  0  0  0  0  0
  -29.7639  -15.6344   20.9144 N   0  0  0  0  0  0
  -29.1092  -22.5760   20.2135 N   0  3  0  0  0  0
  -31.4847  -12.5330   19.1401 H   0  0  0  0  0  0
  -30.3962  -11.3885   19.8746 H   0  0  0  0  0  0
  -29.7732  -11.7632   17.4709 H   0  0  0  0  0  0
  -29.6514  -13.4818   17.7458 H   0  0  0  0  0  0
  -27.8654  -11.2930   18.8562 H   0  0  0  0  0  0
  -27.3774  -12.5854   17.7930 H   0  0  0  0  0  0
  -27.6811  -14.2485   19.5380 H   0  0  0  0  0  0
  -28.7128  -12.0079   21.3498 H   0  0  0  0  0  0
  -28.4437  -13.6442   21.8641 H   0  0  0  0  0  0
  -25.2756   -9.5676   22.4759 H   0  0  0  0  0  0
  -23.9995   -7.4627   22.7469 H   0  0  0  0  0  0
  -21.0835   -8.8765   19.8953 H   0  0  0  0  0  0
  -22.3688  -10.9666   19.6159 H   0  0  0  0  0  0
  -21.2005   -7.6145   23.9711 H   0  0  0  0  0  0
  -21.1479   -6.0520   25.9076 H   0  0  0  0  0  0
  -22.0602   -2.7606   23.2844 H   0  0  0  0  0  0
  -22.4112  -11.9894   22.4800 H   0  0  0  0  0  0
  -21.1116  -13.1257   22.2604 H   0  0  0  0  0  0
  -24.6501  -15.8320   20.4870 H   0  0  0  0  0  0
  -26.2604  -15.6184   20.0224 H   0  0  0  0  0  0
  -26.7167  -32.5461   23.1113 H   0  0  0  0  0  0
  -25.0047  -33.9730   25.0422 H   0  0  0  0  0  0
  -22.7122  -31.3052   21.4017 H   0  0  0  0  0  0
  -23.3749  -35.9621   23.3300 H   0  0  0  0  0  0
  -24.3573  -36.8921   22.2053 H   0  0  0  0  0  0
  -23.7226  -37.6497   23.6658 H   0  0  0  0  0  0
  -26.0885  -31.5596   20.6023 H   0  0  0  0  0  0
  -26.8403  -30.8468   21.9983 H   0  0  0  0  0  0
  -28.1152  -28.9988   21.1843 H   0  0  0  0  0  0
  -25.9750  -25.9383   18.9984 H   0  0  0  0  0  0
  -23.9731  -27.3089   19.0134 H   0  0  0  0  0  0
  -23.7498  -30.5945   19.4021 H   0  0  0  0  0  0
  -22.7537  -29.2458   19.8589 H   0  0  0  0  0  0
  -25.1286  -36.1945   25.0826 H   0  0  0  0  0  0
  -20.9979  -28.3268   24.1403 H   0  0  0  0  0  0
  -20.5660  -26.2303   23.3618 H   0  0  0  0  0  0
  -21.6634  -26.7441   22.1209 H   0  0  0  0  0  0
  -19.6896  -25.6299   21.1250 H   0  0  0  0  0  0
  -19.6681  -27.3200   20.6745 H   0  0  0  0  0  0
  -17.4191  -26.6698   21.4024 H   0  0  0  0  0  0
  -18.0308  -26.0078   22.9019 H   0  0  0  0  0  0
  -19.7937  -30.7274   24.2279 H   0  0  0  0  0  0
  -17.5023  -31.6281   24.5168 H   0  0  0  0  0  0
  -15.5356  -30.3019   23.7655 H   0  0  0  0  0  0
  -15.8660  -28.0840   22.7092 H   0  0  0  0  0  0
  -24.5900  -30.7067   25.7789 H   0  0  0  0  0  0
  -24.8899  -32.2892   26.4865 H   0  0  0  0  0  0
  -25.8050  -30.8923   27.0234 H   0  0  0  0  0  0
  -26.2875  -29.6781   24.1185 H   0  0  0  0  0  0
  -27.4010  -29.7253   25.4657 H   0  0  0  0  0  0
  -27.8748  -30.4303   23.9378 H   0  0  0  0  0  0
  -27.2656  -33.3622   26.2068 H   0  0  0  0  0  0
  -28.3857  -32.6876   25.0327 H   0  0  0  0  0  0
  -28.0702  -31.8445   26.5419 H   0  0  0  0  0  0
  -28.2592  -38.0104   24.7529 H   0  0  0  0  0  0
  -28.1079  -36.2641   24.6262 H   0  0  0  0  0  0
  -27.2305  -37.1419   25.8868 H   0  0  0  0  0  0
  -20.9347  -29.8794   21.6920 H   0  0  0  0  0  0
  -26.0169  -38.2860   24.1432 H   0  0  0  0  0  0
  -27.6402  -19.6530   21.7161 H   0  0  0  0  0  0
  -31.6420  -19.9088   20.1372 H   0  0  0  0  0  0
  -27.7642  -17.2192   21.6240 H   0  0  0  0  0  0
  -31.7668  -17.4569   20.0438 H   0  0  0  0  0  0
  -31.7845  -23.9799   22.3264 H   0  0  0  0  0  0
  -30.7466  -23.3730   23.5807 H   0  0  0  0  0  0
  -31.2519  -21.3462   22.6366 H   0  0  0  0  0  0
  -31.7138  -22.0317   21.1096 H   0  0  0  0  0  0
  -29.8625  -25.3574   22.1567 H   0  0  0  0  0  0
  -28.7713  -24.0660   22.5369 H   0  0  0  0  0  0
  -28.8680  -21.6631   22.0612 H   0  0  0  0  0  0
  -30.8575  -25.5480   19.8060 H   0  0  0  0  0  0
  -30.3898  -24.4271   18.5418 H   0  0  0  0  0  0
  -31.4853  -23.9151   19.8130 H   0  0  0  0  0  0
  -27.2895  -24.7421   20.6093 H   0  0  0  0  0  0
  -27.9281  -24.8314   18.9852 H   0  0  0  0  0  0
  -28.8875  -15.2577   21.2408 H   0  0  0  0  0  0
  -28.1166  -22.4228   20.1249 H   0  0  0  0  0  0
  -29.5103  -22.3185   19.3258 H   0  0  0  0  0  0
  1 25  1  0  0  0
  1 30  2  0  0  0
  1 84  1  0  0  0
  2  3  1  0  0  0
  2 25  1  0  0  0
  2 86  1  0  0  0
  2 87  1  0  0  0
  3  4  1  0  0  0
  3 88  1  0  0  0
  3 89  1  0  0  0
  4  5  1  0  0  0
  4 90  1  0  0  0
  4 91  1  0  0  0
  5  6  1  0  0  0
  5 26  1  0  0  0
  5 92  1  0  0  0
  6 25  1  0  0  0
  6 93  1  0  0  0
  6 94  1  0  0  0
  7  8  2  0  0  0
  7 26  1  0  0  0
  7 29  1  0  0  0
  8  9  1  0  0  0
  8 22  1  0  0  0
  9 10  1  0  0  0
  9 27  2  0  0  0
 10 11  2  0  0  0
 10 15  1  0  0  0
 11 12  1  0  0  0
 11 95  1  0  0  0
 12 13  2  0  0  0
 12 96  1  0  0  0
 13 14  1  0  0  0
 13 31  1  0  0  0
 14 15  2  0  0  0
 14 97  1  0  0  0
 15 98  1  0  0  0
 16 17  2  0  0  0
 16 21  1  0  0  0
 16 31  1  0  0  0
 17 18  1  0  0  0
 17 99  1  0  0  0
 18 19  2  0  0  0
 18100  1  0  0  0
 19 20  1  0  0  0
 19 24  1  0  0  0
 20 21  2  0  0  0
 20101  1  0  0  0
 21 23  1  0  0  0
 22 28  1  0  0  0
 22 32  2  0  0  0
 26 27  1  0  0  0
 28102  1  0  0  0
 28103  1  0  0  0
 29104  1  0  0  0
 29105  1  0  0  0
 33 34  1  0  0  0
 33 66  1  0  0  0
 33 70  2  0  0  0
 34 36  1  0  0  0
 34 59  1  0  0  0
 34106  1  0  0  0
 35 44  2  0  0  0
 35 45  1  0  0  0
 35 68  1  0  0  0
 36 56  1  0  0  0
 36107  1  0  0  0
 37 39  1  0  0  0
 37 47  1  0  0  0
 37 66  1  0  0  0
 37108  1  0  0  0
 38 43  2  0  0  0
 38 46  1  0  0  0
 38 47  1  0  0  0
 39 64  1  0  0  0
 39 67  2  0  0  0
 40 52  1  0  0  0
 40 53  2  0  0  0
 40 58  1  0  0  0
 41109  1  0  0  0
 41110  1  0  0  0
 41111  1  0  0  0
 41 48  1  0  0  0
 42 43  1  0  0  0
 42 66  1  0  0  0
 42112  1  0  0  0
 42113  1  0  0  0
 43 44  1  0  0  0
 44114  1  0  0  0
 45 46  2  0  0  0
 45115  1  0  0  0
 46116  1  0  0  0
 47117  1  0  0  0
 47118  1  0  0  0
 48 56  1  0  0  0
 48 65  1  0  0  0
 48119  1  0  0  0
 49 50  1  0  0  0
 49 53  1  0  0  0
 49 64  1  0  0  0
 49120  1  0  0  0
 50 51  1  0  0  0
 50121  1  0  0  0
 50122  1  0  0  0
 51 52  1  0  0  0
 51123  1  0  0  0
 51124  1  0  0  0
 52125  1  0  0  0
 52126  1  0  0  0
 53 54  1  0  0  0
 54 55  2  0  0  0
 54127  1  0  0  0
 55 57  1  0  0  0
 55128  1  0  0  0
 56 69  2  0  0  0
 57 58  2  0  0  0
 57129  1  0  0  0
 58130  1  0  0  0
 59 60  1  0  0  0
 59 61  1  0  0  0
 59 62  1  0  0  0
 60131  1  0  0  0
 60132  1  0  0  0
 60133  1  0  0  0
 61134  1  0  0  0
 61135  1  0  0  0
 61136  1  0  0  0
 62137  1  0  0  0
 62138  1  0  0  0
 62139  1  0  0  0
 63 65  1  0  0  0
 63140  1  0  0  0
 63141  1  0  0  0
 63142  1  0  0  0
 64143  1  0  0  0
 65144  1  0  0  0
 68 83  1  0  0  0
 71 73  2  0  0  0
 71 75  1  0  0  0
 71145  1  0  0  0
 72 74  1  0  0  0
 72 75  2  0  0  0
 72146  1  0  0  0
 73 76  1  0  0  0
 73147  1  0  0  0
 74 76  2  0  0  0
 74148  1  0  0  0
 75 80  1  0  0  0
 76 84  1  0  0  0
 77 78  1  0  0  0
 77 79  1  0  0  0
 77149  1  0  0  0
 77150  1  0  0  0
 78 80  1  0  0  0
 78151  1  0  0  0
 78152  1  0  0  0
 79 81  1  0  0  0
 79153  1  0  0  0
 79154  1  0  0  0
 80 85  1  0  0  0
 80155  1  0  0  0
 81 82  1  0  0  0
 81 83  1  0  0  0
 81 85  1  0  0  0
 82156  1  0  0  0
 82157  1  0  0  0
 82158  1  0  0  0
 83159  1  0  0  0
 83160  1  0  0  0
 84161  1  0  0  0
 85162  1  0  0  0
 85163  1  0  0  0
M  CHG  1  85   1
M  ISO  4   1 100  68 101  83 101  84 100
M  END
> <chiral flag>
0

> <version>
0

> <s_m_source_file>
/data/baiqing/PycharmProjects/Reinvent-master-3.2/result/LINK_invent/BTK/process_docking_weight1_custom_product_contain_oxygen_bond_distance_aromatic_linkinvent_7_9_3/rearranged_h_0167.sdf

> <i_m_source_file_index>
22

> <r_mmod_Potential_Energy-OPLS-2005>
3.4012598991394

> <r_mmod_Stretch_Energy-OPLS-2005>
82.9174194335938

> <r_mmod_Bend_Energy-OPLS-2005>
147.458938598633

> <r_mmod_Torsional_Energy-OPLS-2005>
265.084747314453

> <r_mmod_Improper_Torsional_Energy-OPLS-2005>
5.12587738037109

> <r_mmod_Van_der_Waal_Energy-OPLS-2005>
151.779937744141

> <r_mmod_Electrostatic_Energy-OPLS-2005>
-251.703125

> <r_mmod_Solvation_Energy-OPLS-2005>
-442.232604980469

> <b_mmod_Minimization_Converged-OPLS-2005>
0

> <r_mmod_RMS_Derivative-OPLS-2005>
0.828481435775757

$$$$
22
                    3D
 Structure written by MMmdl.
150158  0  0  1  0            999 V2000
  -30.6038  -14.6530   20.5061 C   0  0  0  0  0  0
  -30.4453  -12.4026   19.4531 C   0  0  0  0  0  0
  -29.5116  -12.5133   18.2261 C   0  0  0  0  0  0
  -28.0342  -12.3462   18.6367 C   0  0  0  0  0  0
  -27.6557  -13.2137   19.8662 C   0  0  2  0  0  0
  -28.7003  -13.0594   20.9952 C   0  0  0  0  0  0
  -25.2574  -13.8161   20.5685 C   0  0  0  0  0  0
  -24.1834  -13.0433   20.9186 C   0  0  0  0  0  0
  -24.6395  -11.6902   20.8732 C   0  0  0  0  0  0
  -23.9060  -10.4289   21.0401 C   0  0  0  0  0  0
  -24.3611   -9.4205   21.9180 C   0  0  0  0  0  0
  -23.6286   -8.2241   22.0752 C   0  0  0  0  0  0
  -22.4269   -8.0278   21.3543 C   0  0  0  0  0  0
  -21.9902   -9.0253   20.4647 C   0  0  0  0  0  0
  -22.7230  -10.2132   20.3054 C   0  0  0  0  0  0
  -21.6853   -6.0731   22.5276 C   0  0  0  0  0  0
  -21.4015   -6.5637   23.8210 C   0  0  0  0  0  0
  -21.3660   -5.6790   24.9173 C   0  0  0  0  0  0
  -21.6045   -4.3052   24.7225 C   0  0  0  0  0  0
  -21.8819   -3.8143   23.4347 C   0  0  0  0  0  0
  -21.9193   -4.6959   22.3401 C   0  0  0  0  0  0
  -22.7858  -13.5232   21.1849 C   0  0  0  0  0  0
  -22.1662   -4.2145   21.0979 F   0  0  0  0  0  0
  -21.5629   -3.4537   25.7739 F   0  0  0  0  0  0
  -30.0156  -13.4160   20.4373 N   0  0  0  0  0  0
  -26.3000  -12.9335   20.3322 N   0  0  0  0  0  0
  -25.9323  -11.6493   20.5749 N   0  0  0  0  0  0
  -22.0496  -12.8230   22.0407 N   0  0  0  0  0  0
  -25.4293  -15.1882   20.4100 N   0  0  0  0  0  0
  -31.7531  -14.8456   20.0991 O   0  0  0  0  0  0
  -21.6636   -6.8873   21.4238 O   0  0  0  0  0  0
  -22.3548  -14.5541   20.6697 O   0  0  0  0  0  0
  -24.6265  -31.8597   23.2024 C   0  0  0  0  0  0
  -25.9110  -32.4779   23.8358 C   0  0  1  0  0  0
  -27.2247  -27.3159   20.1223 C   0  0  0  0  0  0
  -25.5925  -33.8580   24.2283 N   0  0  0  0  0  0
  -23.4211  -30.4829   21.5449 C   0  0  2  0  0  0
  -24.8694  -28.9377   20.1121 C   0  0  0  0  0  0
  -22.7481  -29.4622   22.4933 C   0  0  0  0  0  0
  -18.0289  -28.1386   22.8486 C   0  0  0  0  0  0
  -24.1489  -36.7295   23.2638 C   0  0  0  0  0  0
  -25.9628  -30.7895   21.3751 C   0  0  0  0  0  0
  -26.0384  -29.4161   20.7184 C   0  0  0  0  0  0
  -27.2214  -28.6174   20.7130 C   0  0  0  0  0  0
  -26.0382  -26.8973   19.4800 C   0  0  0  0  0  0
  -24.8714  -27.6840   19.4827 C   0  0  0  0  0  0
  -23.6373  -29.8180   20.1604 C   0  0  0  0  0  0
  -25.4112  -36.3084   24.0330 C   0  0  1  0  0  0
  -20.5889  -28.3691   23.1281 C   0  0  2  0  0  0
  -20.6777  -26.9413   22.5409 C   0  0  0  0  0  0
  -19.5752  -26.6385   21.5211 C   0  0  0  0  0  0
  -18.1933  -26.7928   22.1625 C   0  0  0  0  0  0
  -19.1540  -28.8856   23.2879 C   0  0  0  0  0  0
  -18.9462  -30.1457   23.8896 C   0  0  0  0  0  0
  -17.6461  -30.6585   24.0566 C   0  0  0  0  0  0
  -25.9051  -34.9453   23.5108 C   0  0  0  0  0  0
  -16.5353  -29.9084   23.6329 C   0  0  0  0  0  0
  -16.7276  -28.6503   23.0347 C   0  0  0  0  0  0
  -26.4494  -31.6587   25.0727 C   0  0  0  0  0  0
  -25.3730  -31.3728   26.1458 C   0  0  0  0  0  0
  -27.0334  -30.3009   24.6182 C   0  0  0  0  0  0
  -27.6060  -32.4318   25.7491 C   0  0  0  0  0  0
  -27.5582  -37.1799   24.8461 C   0  0  0  0  0  0
  -21.4193  -29.3042   22.3674 N   0  0  0  0  0  0
  -26.4288  -37.3780   23.9413 N   0  0  0  0  0  0
  -24.6889  -31.0606   22.0977 N   0  0  0  0  0  0
  -23.4202  -28.8159   23.3014 O   0  0  0  0  0  0
  -28.3267  -26.4482   20.1545 O   0  0  0  0  0  0
  -26.5620  -34.8919   22.4675 O   0  0  0  0  0  0
  -23.5426  -32.1397   23.7345 O   0  0  0  0  0  0
  -28.7453  -17.9097   21.2533 C   0  0  0  0  0  0
  -28.7045  -19.3220   21.0804 C   0  0  0  0  0  0
  -30.8164  -17.8795   20.0698 C   0  0  0  0  0  0
  -29.8170  -17.1297   20.7435 C   0  0  0  0  0  0
  -29.7423  -19.9792   20.3893 C   0  0  0  0  0  0
  -29.0652  -23.9211   20.1702 C   0  0  0  0  0  0
  -28.7840  -22.4145   20.5792 C   0  0  0  0  0  0
  -28.0410  -25.0526   20.5870 C   0  0  0  0  0  0
  -30.7745  -19.2425   19.9032 N   0  0  0  0  0  0
  -29.7852  -15.6722   20.9180 N   0  0  0  0  0  0
  -29.7897  -21.3886   20.1534 N   0  0  0  0  0  0
  -30.0838  -24.1969   19.5257 O   0  0  0  0  0  0
  -31.4849  -12.5399   19.1507 H   0  0  0  0  0  0
  -30.3910  -11.4046   19.8908 H   0  0  0  0  0  0
  -29.7784  -11.7634   17.4802 H   0  0  0  0  0  0
  -29.6501  -13.4834   17.7463 H   0  0  0  0  0  0
  -27.8729  -11.2923   18.8665 H   0  0  0  0  0  0
  -27.3799  -12.5770   17.7954 H   0  0  0  0  0  0
  -27.6762  -14.2502   19.5293 H   0  0  0  0  0  0
  -28.7161  -12.0324   21.3631 H   0  0  0  0  0  0
  -28.4399  -13.6755   21.8570 H   0  0  0  0  0  0
  -25.2757   -9.5683   22.4753 H   0  0  0  0  0  0
  -23.9996   -7.4635   22.7473 H   0  0  0  0  0  0
  -21.0830   -8.8770   19.8956 H   0  0  0  0  0  0
  -22.3684  -10.9670   19.6165 H   0  0  0  0  0  0
  -21.2007   -7.6145   23.9712 H   0  0  0  0  0  0
  -21.1483   -6.0521   25.9075 H   0  0  0  0  0  0
  -22.0598   -2.7605   23.2848 H   0  0  0  0  0  0
  -22.4105  -11.9891   22.4800 H   0  0  0  0  0  0
  -21.1116  -13.1265   22.2611 H   0  0  0  0  0  0
  -24.6580  -15.8394   20.5093 H   0  0  0  0  0  0
  -26.2698  -15.6235   20.0522 H   0  0  0  0  0  0
  -26.7180  -32.5450   23.1109 H   0  0  0  0  0  0
  -25.0071  -33.9726   25.0427 H   0  0  0  0  0  0
  -22.7150  -31.3033   21.4009 H   0  0  0  0  0  0
  -23.3752  -35.9626   23.3293 H   0  0  0  0  0  0
  -24.3585  -36.8922   22.2054 H   0  0  0  0  0  0
  -23.7239  -37.6493   23.6664 H   0  0  0  0  0  0
  -26.0942  -31.5519   20.6061 H   0  0  0  0  0  0
  -26.8431  -30.8393   22.0042 H   0  0  0  0  0  0
  -28.1181  -28.9789   21.1968 H   0  0  0  0  0  0
  -25.9968  -25.9472   18.9679 H   0  0  0  0  0  0
  -23.9788  -27.3161   18.9954 H   0  0  0  0  0  0
  -23.7578  -30.5943   19.4039 H   0  0  0  0  0  0
  -22.7576  -29.2474   19.8571 H   0  0  0  0  0  0
  -25.1288  -36.1938   25.0822 H   0  0  0  0  0  0
  -20.9981  -28.3266   24.1400 H   0  0  0  0  0  0
  -20.5673  -26.2301   23.3610 H   0  0  0  0  0  0
  -21.6645  -26.7440   22.1205 H   0  0  0  0  0  0
  -19.6913  -25.6296   21.1239 H   0  0  0  0  0  0
  -19.6685  -27.3197   20.6741 H   0  0  0  0  0  0
  -17.4200  -26.6672   21.4030 H   0  0  0  0  0  0
  -18.0337  -26.0071   22.9023 H   0  0  0  0  0  0
  -19.7938  -30.7275   24.2263 H   0  0  0  0  0  0
  -17.5014  -31.6263   24.5172 H   0  0  0  0  0  0
  -15.5353  -30.2984   23.7652 H   0  0  0  0  0  0
  -15.8677  -28.0823   22.7057 H   0  0  0  0  0  0
  -24.5897  -30.7084   25.7789 H   0  0  0  0  0  0
  -24.8929  -32.2894   26.4894 H   0  0  0  0  0  0
  -25.8055  -30.8896   27.0228 H   0  0  0  0  0  0
  -26.2905  -29.6760   24.1210 H   0  0  0  0  0  0
  -27.4034  -29.7268   25.4686 H   0  0  0  0  0  0
  -27.8776  -30.4294   23.9404 H   0  0  0  0  0  0
  -27.2682  -33.3622   26.2068 H   0  0  0  0  0  0
  -28.3868  -32.6869   25.0313 H   0  0  0  0  0  0
  -28.0731  -31.8441   26.5405 H   0  0  0  0  0  0
  -28.2590  -38.0105   24.7526 H   0  0  0  0  0  0
  -28.1088  -36.2639   24.6261 H   0  0  0  0  0  0
  -27.2308  -37.1420   25.8866 H   0  0  0  0  0  0
  -20.9373  -29.8767   21.6885 H   0  0  0  0  0  0
  -26.0170  -38.2853   24.1422 H   0  0  0  0  0  0
  -27.9341  -17.4267   21.7787 H   0  0  0  0  0  0
  -27.8683  -19.8778   21.4807 H   0  0  0  0  0  0
  -31.6733  -17.3898   19.6330 H   0  0  0  0  0  0
  -27.8107  -22.1355   20.1750 H   0  0  0  0  0  0
  -28.6886  -22.3762   21.6646 H   0  0  0  0  0  0
  -27.9859  -25.0536   21.6757 H   0  0  0  0  0  0
  -27.0640  -24.7170   20.2463 H   0  0  0  0  0  0
  -28.9217  -15.3214   21.3051 H   0  0  0  0  0  0
  -30.5816  -21.7636   19.6401 H   0  0  0  0  0  0
  1 25  1  0  0  0
  1 30  2  0  0  0
  1 80  1  0  0  0
  2  3  1  0  0  0
  2 25  1  0  0  0
  2 83  1  0  0  0
  2 84  1  0  0  0
  3  4  1  0  0  0
  3 85  1  0  0  0
  3 86  1  0  0  0
  4  5  1  0  0  0
  4 87  1  0  0  0
  4 88  1  0  0  0
  5  6  1  0  0  0
  5 26  1  0  0  0
  5 89  1  0  0  0
  6 25  1  0  0  0
  6 90  1  0  0  0
  6 91  1  0  0  0
  7  8  2  0  0  0
  7 26  1  0  0  0
  7 29  1  0  0  0
  8  9  1  0  0  0
  8 22  1  0  0  0
  9 10  1  0  0  0
  9 27  2  0  0  0
 10 11  2  0  0  0
 10 15  1  0  0  0
 11 12  1  0  0  0
 11 92  1  0  0  0
 12 13  2  0  0  0
 12 93  1  0  0  0
 13 14  1  0  0  0
 13 31  1  0  0  0
 14 15  2  0  0  0
 14 94  1  0  0  0
 15 95  1  0  0  0
 16 17  2  0  0  0
 16 21  1  0  0  0
 16 31  1  0  0  0
 17 18  1  0  0  0
 17 96  1  0  0  0
 18 19  2  0  0  0
 18 97  1  0  0  0
 19 20  1  0  0  0
 19 24  1  0  0  0
 20 21  2  0  0  0
 20 98  1  0  0  0
 21 23  1  0  0  0
 22 28  1  0  0  0
 22 32  2  0  0  0
 26 27  1  0  0  0
 28 99  1  0  0  0
 28100  1  0  0  0
 29101  1  0  0  0
 29102  1  0  0  0
 33 34  1  0  0  0
 33 66  1  0  0  0
 33 70  2  0  0  0
 34 36  1  0  0  0
 34 59  1  0  0  0
 34103  1  0  0  0
 35 44  2  0  0  0
 35 45  1  0  0  0
 35 68  1  0  0  0
 36 56  1  0  0  0
 36104  1  0  0  0
 37 39  1  0  0  0
 37 47  1  0  0  0
 37 66  1  0  0  0
 37105  1  0  0  0
 38 43  2  0  0  0
 38 46  1  0  0  0
 38 47  1  0  0  0
 39 64  1  0  0  0
 39 67  2  0  0  0
 40 52  1  0  0  0
 40 53  2  0  0  0
 40 58  1  0  0  0
 41106  1  0  0  0
 41107  1  0  0  0
 41108  1  0  0  0
 41 48  1  0  0  0
 42 43  1  0  0  0
 42 66  1  0  0  0
 42109  1  0  0  0
 42110  1  0  0  0
 43 44  1  0  0  0
 44111  1  0  0  0
 45 46  2  0  0  0
 45112  1  0  0  0
 46113  1  0  0  0
 47114  1  0  0  0
 47115  1  0  0  0
 48 56  1  0  0  0
 48 65  1  0  0  0
 48116  1  0  0  0
 49 50  1  0  0  0
 49 53  1  0  0  0
 49 64  1  0  0  0
 49117  1  0  0  0
 50 51  1  0  0  0
 50118  1  0  0  0
 50119  1  0  0  0
 51 52  1  0  0  0
 51120  1  0  0  0
 51121  1  0  0  0
 52122  1  0  0  0
 52123  1  0  0  0
 53 54  1  0  0  0
 54 55  2  0  0  0
 54124  1  0  0  0
 55 57  1  0  0  0
 55125  1  0  0  0
 56 69  2  0  0  0
 57 58  2  0  0  0
 57126  1  0  0  0
 58127  1  0  0  0
 59 60  1  0  0  0
 59 61  1  0  0  0
 59 62  1  0  0  0
 60128  1  0  0  0
 60129  1  0  0  0
 60130  1  0  0  0
 61131  1  0  0  0
 61132  1  0  0  0
 61133  1  0  0  0
 62134  1  0  0  0
 62135  1  0  0  0
 62136  1  0  0  0
 63 65  1  0  0  0
 63137  1  0  0  0
 63138  1  0  0  0
 63139  1  0  0  0
 64140  1  0  0  0
 65141  1  0  0  0
 68 78  1  0  0  0
 71 72  2  0  0  0
 71 74  1  0  0  0
 71142  1  0  0  0
 72 75  1  0  0  0
 72143  1  0  0  0
 73 74  2  0  0  0
 73 79  1  0  0  0
 73144  1  0  0  0
 74 80  1  0  0  0
 75 79  2  0  0  0
 75 81  1  0  0  0
 76 77  1  0  0  0
 76 78  1  0  0  0
 76 82  2  0  0  0
 77 81  1  0  0  0
 77145  1  0  0  0
 77146  1  0  0  0
 78147  1  0  0  0
 78148  1  0  0  0
 80149  1  0  0  0
 81150  1  0  0  0
M  ISO  4   1 100  68 101  78 101  80 100
M  END
> <chiral flag>
0

> <version>
0

> <s_m_source_file>
/data/baiqing/PycharmProjects/Reinvent-master-3.2/result/LINK_invent/BTK/process_docking_weight1_custom_product_contain_oxygen_bond_distance_aromatic_linkinvent_7_9_3/rearranged_h_0167.sdf

> <i_m_source_file_index>
23

> <r_mmod_Potential_Energy-OPLS-2005>
-244.110107421875

> <r_mmod_Stretch_Energy-OPLS-2005>
77.8118362426758

> <r_mmod_Bend_Energy-OPLS-2005>
146.542221069336

> <r_mmod_Torsional_Energy-OPLS-2005>
212.51432800293

> <r_mmod_Improper_Torsional_Energy-OPLS-2005>
3.72336101531982

> <r_mmod_Van_der_Waal_Energy-OPLS-2005>
143.465225219727

> <r_mmod_Electrostatic_Energy-OPLS-2005>
-620.239685058594

> <r_mmod_Solvation_Energy-OPLS-2005>
-260.41552734375

> <b_mmod_Minimization_Converged-OPLS-2005>
0

> <r_mmod_RMS_Derivative-OPLS-2005>
0.327361106872559

$$$$
23
                    3D
 Structure written by MMmdl.
153161  0  0  1  0            999 V2000
  -30.6800  -14.4899   20.5845 C   0  0  0  0  0  0
  -30.4266  -12.3171   19.4312 C   0  0  0  0  0  0
  -29.4955  -12.5011   18.2147 C   0  0  0  0  0  0
  -28.0182  -12.3505   18.6286 C   0  0  0  0  0  0
  -27.6608  -13.2028   19.8746 C   0  0  2  0  0  0
  -28.6994  -12.9875   20.9985 C   0  0  0  0  0  0
  -25.2585  -13.8167   20.5674 C   0  0  0  0  0  0
  -24.1820  -13.0429   20.9161 C   0  0  0  0  0  0
  -24.6385  -11.6900   20.8718 C   0  0  0  0  0  0
  -23.9043  -10.4289   21.0389 C   0  0  0  0  0  0
  -24.3598   -9.4213   21.9176 C   0  0  0  0  0  0
  -23.6283   -8.2242   22.0753 C   0  0  0  0  0  0
  -22.4263   -8.0277   21.3547 C   0  0  0  0  0  0
  -21.9891   -9.0238   20.4638 C   0  0  0  0  0  0
  -22.7210  -10.2124   20.3046 C   0  0  0  0  0  0
  -21.6846   -6.0724   22.5275 C   0  0  0  0  0  0
  -21.4012   -6.5635   23.8207 C   0  0  0  0  0  0
  -21.3656   -5.6793   24.9169 C   0  0  0  0  0  0
  -21.6041   -4.3054   24.7230 C   0  0  0  0  0  0
  -21.8820   -3.8140   23.4354 C   0  0  0  0  0  0
  -21.9194   -4.6952   22.3407 C   0  0  0  0  0  0
  -22.7859  -13.5238   21.1835 C   0  0  0  0  0  0
  -22.1660   -4.2142   21.0983 F   0  0  0  0  0  0
  -21.5626   -3.4542   25.7745 F   0  0  0  0  0  0
  -30.0277  -13.3029   20.4497 N   0  0  0  0  0  0
  -26.3015  -12.9318   20.3356 N   0  0  0  0  0  0
  -25.9308  -11.6486   20.5757 N   0  0  0  0  0  0
  -22.0502  -12.8221   22.0404 N   0  0  0  0  0  0
  -25.4365  -15.1883   20.4154 N   0  0  0  0  0  0
  -31.8065  -14.6781   20.1150 O   0  0  0  0  0  0
  -21.6633   -6.8862   21.4237 O   0  0  0  0  0  0
  -22.3539  -14.5536   20.6686 O   0  0  0  0  0  0
  -24.6159  -31.8660   23.2094 C   0  0  0  0  0  0
  -25.9059  -32.4818   23.8379 C   0  0  1  0  0  0
  -27.2312  -27.4132   20.1159 C   0  0  0  0  0  0
  -25.5920  -33.8620   24.2310 N   0  0  0  0  0  0
  -23.4024  -30.4864   21.5496 C   0  0  2  0  0  0
  -24.8527  -28.9500   20.1163 C   0  0  0  0  0  0
  -22.7416  -29.4628   22.4998 C   0  0  0  0  0  0
  -18.0265  -28.1369   22.8506 C   0  0  0  0  0  0
  -24.1488  -36.7299   23.2637 C   0  0  0  0  0  0
  -25.9325  -30.8283   21.3631 C   0  0  0  0  0  0
  -26.0145  -29.4607   20.7111 C   0  0  0  0  0  0
  -27.2110  -28.7027   20.7002 C   0  0  0  0  0  0
  -26.0520  -26.9172   19.5208 C   0  0  0  0  0  0
  -24.8670  -27.6784   19.5169 C   0  0  0  0  0  0
  -23.6134  -29.8164   20.1651 C   0  0  0  0  0  0
  -25.4116  -36.3100   24.0326 C   0  0  1  0  0  0
  -20.5854  -28.3665   23.1330 C   0  0  2  0  0  0
  -20.6753  -26.9397   22.5428 C   0  0  0  0  0  0
  -19.5742  -26.6376   21.5214 C   0  0  0  0  0  0
  -18.1901  -26.7920   22.1613 C   0  0  0  0  0  0
  -19.1518  -28.8834   23.2893 C   0  0  0  0  0  0
  -18.9457  -30.1438   23.8899 C   0  0  0  0  0  0
  -17.6469  -30.6595   24.0552 C   0  0  0  0  0  0
  -25.9050  -34.9476   23.5115 C   0  0  0  0  0  0
  -16.5353  -29.9092   23.6334 C   0  0  0  0  0  0
  -16.7254  -28.6497   23.0367 C   0  0  0  0  0  0
  -26.4484  -31.6614   25.0721 C   0  0  0  0  0  0
  -25.3762  -31.3744   26.1483 C   0  0  0  0  0  0
  -27.0315  -30.3051   24.6113 C   0  0  0  0  0  0
  -27.6039  -32.4345   25.7487 C   0  0  0  0  0  0
  -27.5574  -37.1807   24.8471 C   0  0  0  0  0  0
  -21.4147  -29.3016   22.3742 N   0  0  0  0  0  0
  -26.4303  -37.3783   23.9391 N   0  0  0  0  0  0
  -24.6669  -31.0768   22.0974 N   0  0  0  0  0  0
  -23.4199  -28.8179   23.3031 O   0  0  0  0  0  0
  -28.3752  -26.6405   20.1244 O   0  0  0  0  0  0
  -26.5604  -34.8926   22.4668 O   0  0  0  0  0  0
  -23.5349  -32.1414   23.7514 O   0  0  0  0  0  0
  -31.5641  -17.3531   21.5083 C   0  0  0  0  0  0
  -30.8738  -19.6709   21.1294 C   0  0  0  0  0  0
  -30.2809  -16.8920   21.1373 C   0  0  0  0  0  0
  -29.5801  -19.2442   20.7575 C   0  0  0  0  0  0
  -31.8527  -18.7312   21.5069 C   0  0  0  0  0  0
  -29.2881  -17.8486   20.7893 C   0  0  0  0  0  0
  -28.6759  -22.7401   20.6208 C   0  0  0  0  0  0
  -28.6089  -24.1487   19.9275 C   0  0  0  0  0  0
  -28.9144  -21.4784   19.7477 C   0  0  0  0  0  0
  -28.2411  -25.3666   20.8059 C   0  0  0  0  0  0
  -29.9610  -15.4914   21.1410 N   0  0  0  0  0  0
  -28.5840  -20.1692   20.3678 N   0  0  0  0  0  0
  -28.5711  -22.6349   21.8503 O   0  0  0  0  0  0
  -28.8390  -24.2770   18.7166 O   0  0  0  0  0  0
  -33.0866  -19.1576   21.8690 F   0  0  0  0  0  0
  -28.0440  -17.4211   20.4545 F   0  0  0  0  0  0
  -31.4714  -12.4217   19.1296 H   0  0  0  0  0  0
  -30.3380  -11.3048   19.8303 H   0  0  0  0  0  0
  -29.7383  -11.7755   17.4361 H   0  0  0  0  0  0
  -29.6552  -13.4873   17.7741 H   0  0  0  0  0  0
  -27.8430  -11.2964   18.8456 H   0  0  0  0  0  0
  -27.3624  -12.6015   17.7948 H   0  0  0  0  0  0
  -27.7040  -14.2479   19.5680 H   0  0  0  0  0  0
  -28.6789  -11.9481   21.3323 H   0  0  0  0  0  0
  -28.4584  -13.5785   21.8837 H   0  0  0  0  0  0
  -25.2732   -9.5691   22.4754 H   0  0  0  0  0  0
  -23.9983   -7.4638   22.7481 H   0  0  0  0  0  0
  -21.0818   -8.8749   19.8952 H   0  0  0  0  0  0
  -22.3653  -10.9659   19.6164 H   0  0  0  0  0  0
  -21.2007   -7.6139   23.9706 H   0  0  0  0  0  0
  -21.1473   -6.0523   25.9071 H   0  0  0  0  0  0
  -22.0606   -2.7604   23.2859 H   0  0  0  0  0  0
  -22.4108  -11.9870   22.4759 H   0  0  0  0  0  0
  -21.1141  -13.1262   22.2640 H   0  0  0  0  0  0
  -24.6805  -15.8505   20.5464 H   0  0  0  0  0  0
  -26.3079  -15.6325   20.1504 H   0  0  0  0  0  0
  -26.7139  -32.5528   23.1144 H   0  0  0  0  0  0
  -25.0098  -33.9764   25.0471 H   0  0  0  0  0  0
  -22.6912  -31.3013   21.4079 H   0  0  0  0  0  0
  -23.3745  -35.9641   23.3352 H   0  0  0  0  0  0
  -24.3571  -36.8882   22.2043 H   0  0  0  0  0  0
  -23.7275  -37.6522   23.6645 H   0  0  0  0  0  0
  -26.0499  -31.5942   20.5963 H   0  0  0  0  0  0
  -26.8156  -30.8811   21.9885 H   0  0  0  0  0  0
  -28.1072  -29.0884   21.1657 H   0  0  0  0  0  0
  -26.0469  -25.9374   19.0655 H   0  0  0  0  0  0
  -23.9737  -27.2757   19.0605 H   0  0  0  0  0  0
  -23.7157  -30.5892   19.4019 H   0  0  0  0  0  0
  -22.7414  -29.2305   19.8724 H   0  0  0  0  0  0
  -25.1296  -36.1966   25.0824 H   0  0  0  0  0  0
  -20.9892  -28.3230   24.1476 H   0  0  0  0  0  0
  -20.5662  -26.2250   23.3602 H   0  0  0  0  0  0
  -21.6609  -26.7439   22.1209 H   0  0  0  0  0  0
  -19.6890  -25.6284   21.1252 H   0  0  0  0  0  0
  -19.6709  -27.3174   20.6738 H   0  0  0  0  0  0
  -17.4161  -26.6686   21.4012 H   0  0  0  0  0  0
  -18.0303  -26.0036   22.8989 H   0  0  0  0  0  0
  -19.7938  -30.7235   24.2283 H   0  0  0  0  0  0
  -17.5027  -31.6281   24.5149 H   0  0  0  0  0  0
  -15.5351  -30.2993   23.7675 H   0  0  0  0  0  0
  -15.8640  -28.0826   22.7106 H   0  0  0  0  0  0
  -24.5903  -30.7127   25.7825 H   0  0  0  0  0  0
  -24.8998  -32.2914   26.4952 H   0  0  0  0  0  0
  -25.8096  -30.8891   27.0233 H   0  0  0  0  0  0
  -26.2843  -29.6815   24.1187 H   0  0  0  0  0  0
  -27.4099  -29.7318   25.4586 H   0  0  0  0  0  0
  -27.8684  -30.4351   23.9249 H   0  0  0  0  0  0
  -27.2632  -33.3635   26.2061 H   0  0  0  0  0  0
  -28.3837  -32.6928   25.0314 H   0  0  0  0  0  0
  -28.0704  -31.8490   26.5414 H   0  0  0  0  0  0
  -28.2617  -38.0076   24.7482 H   0  0  0  0  0  0
  -28.1043  -36.2615   24.6337 H   0  0  0  0  0  0
  -27.2289  -37.1511   25.8877 H   0  0  0  0  0  0
  -20.9329  -29.8754   21.6974 H   0  0  0  0  0  0
  -26.0205  -38.2867   24.1382 H   0  0  0  0  0  0
  -32.3366  -16.6588   21.8033 H   0  0  0  0  0  0
  -31.1355  -20.7191   21.1434 H   0  0  0  0  0  0
  -29.9462  -21.4905   19.3948 H   0  0  0  0  0  0
  -28.3013  -21.5888   18.8519 H   0  0  0  0  0  0
  -28.8983  -25.3729   21.6754 H   0  0  0  0  0  0
  -27.2311  -25.2204   21.1898 H   0  0  0  0  0  0
  -29.0145  -15.2569   21.4036 H   0  0  0  0  0  0
  -27.6943  -19.7581   20.0990 H   0  0  0  0  0  0
  1 25  1  0  0  0
  1 30  2  0  0  0
  1 81  1  0  0  0
  2  3  1  0  0  0
  2 25  1  0  0  0
  2 87  1  0  0  0
  2 88  1  0  0  0
  3  4  1  0  0  0
  3 89  1  0  0  0
  3 90  1  0  0  0
  4  5  1  0  0  0
  4 91  1  0  0  0
  4 92  1  0  0  0
  5  6  1  0  0  0
  5 26  1  0  0  0
  5 93  1  0  0  0
  6 25  1  0  0  0
  6 94  1  0  0  0
  6 95  1  0  0  0
  7  8  2  0  0  0
  7 26  1  0  0  0
  7 29  1  0  0  0
  8  9  1  0  0  0
  8 22  1  0  0  0
  9 10  1  0  0  0
  9 27  2  0  0  0
 10 11  2  0  0  0
 10 15  1  0  0  0
 11 12  1  0  0  0
 11 96  1  0  0  0
 12 13  2  0  0  0
 12 97  1  0  0  0
 13 14  1  0  0  0
 13 31  1  0  0  0
 14 15  2  0  0  0
 14 98  1  0  0  0
 15 99  1  0  0  0
 16 17  2  0  0  0
 16 21  1  0  0  0
 16 31  1  0  0  0
 17 18  1  0  0  0
 17100  1  0  0  0
 18 19  2  0  0  0
 18101  1  0  0  0
 19 20  1  0  0  0
 19 24  1  0  0  0
 20 21  2  0  0  0
 20102  1  0  0  0
 21 23  1  0  0  0
 22 28  1  0  0  0
 22 32  2  0  0  0
 26 27  1  0  0  0
 28103  1  0  0  0
 28104  1  0  0  0
 29105  1  0  0  0
 29106  1  0  0  0
 33 34  1  0  0  0
 33 66  1  0  0  0
 33 70  2  0  0  0
 34 36  1  0  0  0
 34 59  1  0  0  0
 34107  1  0  0  0
 35 44  2  0  0  0
 35 45  1  0  0  0
 35 68  1  0  0  0
 36 56  1  0  0  0
 36108  1  0  0  0
 37 39  1  0  0  0
 37 47  1  0  0  0
 37 66  1  0  0  0
 37109  1  0  0  0
 38 43  2  0  0  0
 38 46  1  0  0  0
 38 47  1  0  0  0
 39 64  1  0  0  0
 39 67  2  0  0  0
 40 52  1  0  0  0
 40 53  2  0  0  0
 40 58  1  0  0  0
 41110  1  0  0  0
 41111  1  0  0  0
 41112  1  0  0  0
 41 48  1  0  0  0
 42 43  1  0  0  0
 42 66  1  0  0  0
 42113  1  0  0  0
 42114  1  0  0  0
 43 44  1  0  0  0
 44115  1  0  0  0
 45 46  2  0  0  0
 45116  1  0  0  0
 46117  1  0  0  0
 47118  1  0  0  0
 47119  1  0  0  0
 48 56  1  0  0  0
 48 65  1  0  0  0
 48120  1  0  0  0
 49 50  1  0  0  0
 49 53  1  0  0  0
 49 64  1  0  0  0
 49121  1  0  0  0
 50 51  1  0  0  0
 50122  1  0  0  0
 50123  1  0  0  0
 51 52  1  0  0  0
 51124  1  0  0  0
 51125  1  0  0  0
 52126  1  0  0  0
 52127  1  0  0  0
 53 54  1  0  0  0
 54 55  2  0  0  0
 54128  1  0  0  0
 55 57  1  0  0  0
 55129  1  0  0  0
 56 69  2  0  0  0
 57 58  2  0  0  0
 57130  1  0  0  0
 58131  1  0  0  0
 59 60  1  0  0  0
 59 61  1  0  0  0
 59 62  1  0  0  0
 60132  1  0  0  0
 60133  1  0  0  0
 60134  1  0  0  0
 61135  1  0  0  0
 61136  1  0  0  0
 61137  1  0  0  0
 62138  1  0  0  0
 62139  1  0  0  0
 62140  1  0  0  0
 63 65  1  0  0  0
 63141  1  0  0  0
 63142  1  0  0  0
 63143  1  0  0  0
 64144  1  0  0  0
 65145  1  0  0  0
 68 80  1  0  0  0
 71 73  2  0  0  0
 71 75  1  0  0  0
 71146  1  0  0  0
 72 74  1  0  0  0
 72 75  2  0  0  0
 72147  1  0  0  0
 73 76  1  0  0  0
 73 81  1  0  0  0
 74 76  2  0  0  0
 74 82  1  0  0  0
 75 85  1  0  0  0
 76 86  1  0  0  0
 77 78  1  0  0  0
 77 79  1  0  0  0
 77 83  2  0  0  0
 78 80  1  0  0  0
 78 84  2  0  0  0
 79 82  1  0  0  0
 79148  1  0  0  0
 79149  1  0  0  0
 80150  1  0  0  0
 80151  1  0  0  0
 81152  1  0  0  0
 82153  1  0  0  0
M  ISO  4   1 100  68 101  80 101  81 100
M  END
> <chiral flag>
0

> <version>
0

> <s_m_source_file>
/data/baiqing/PycharmProjects/Reinvent-master-3.2/result/LINK_invent/BTK/process_docking_weight1_custom_product_contain_oxygen_bond_distance_aromatic_linkinvent_7_9_3/rearranged_h_0167.sdf

> <i_m_source_file_index>
24

> <r_mmod_Potential_Energy-OPLS-2005>
94.5646209716797

> <r_mmod_Stretch_Energy-OPLS-2005>
46.0425148010254

> <r_mmod_Bend_Energy-OPLS-2005>
101.664581298828

> <r_mmod_Torsional_Energy-OPLS-2005>
230.973007202148

> <r_mmod_Improper_Torsional_Energy-OPLS-2005>
5.55808401107788

> <r_mmod_Van_der_Waal_Energy-OPLS-2005>
147.568862915039

> <r_mmod_Electrostatic_Energy-OPLS-2005>
-221.047348022461

> <r_mmod_Solvation_Energy-OPLS-2005>
-231.852767944336

> <b_mmod_Minimization_Converged-OPLS-2005>
0

> <r_mmod_RMS_Derivative-OPLS-2005>
3.6215968132019

$$$$
24
                    3D
 Structure written by MMmdl.
158166  0  0  1  0            999 V2000
  -30.7247  -14.4528   20.5450 C   0  0  0  0  0  0
  -30.4174  -12.2880   19.4343 C   0  0  0  0  0  0
  -29.4946  -12.4854   18.2133 C   0  0  0  0  0  0
  -28.0126  -12.3729   18.6226 C   0  0  0  0  0  0
  -27.6615  -13.2149   19.8798 C   0  0  2  0  0  0
  -28.7039  -13.0106   21.0027 C   0  0  0  0  0  0
  -25.2592  -13.8204   20.5733 C   0  0  0  0  0  0
  -24.1835  -13.0437   20.9184 C   0  0  0  0  0  0
  -24.6410  -11.6926   20.8766 C   0  0  0  0  0  0
  -23.9083  -10.4298   21.0446 C   0  0  0  0  0  0
  -24.3639   -9.4203   21.9202 C   0  0  0  0  0  0
  -23.6322   -8.2231   22.0747 C   0  0  0  0  0  0
  -22.4298   -8.0286   21.3541 C   0  0  0  0  0  0
  -21.9945   -9.0247   20.4624 C   0  0  0  0  0  0
  -22.7273  -10.2132   20.3058 C   0  0  0  0  0  0
  -21.6856   -6.0738   22.5289 C   0  0  0  0  0  0
  -21.4000   -6.5636   23.8220 C   0  0  0  0  0  0
  -21.3668   -5.6791   24.9188 C   0  0  0  0  0  0
  -21.6051   -4.3045   24.7241 C   0  0  0  0  0  0
  -21.8819   -3.8138   23.4354 C   0  0  0  0  0  0
  -21.9196   -4.6964   22.3417 C   0  0  0  0  0  0
  -22.7854  -13.5227   21.1837 C   0  0  0  0  0  0
  -22.1655   -4.2151   21.0990 F   0  0  0  0  0  0
  -21.5645   -3.4531   25.7752 F   0  0  0  0  0  0
  -30.0377  -13.2856   20.4453 N   0  0  0  0  0  0
  -26.3037  -12.9373   20.3425 N   0  0  0  0  0  0
  -25.9348  -11.6521   20.5838 N   0  0  0  0  0  0
  -22.0476  -12.8216   22.0383 N   0  0  0  0  0  0
  -25.4365  -15.1935   20.4219 N   0  0  0  0  0  0
  -31.8738  -14.5968   20.1166 O   0  0  0  0  0  0
  -21.6639   -6.8886   21.4260 O   0  0  0  0  0  0
  -22.3555  -14.5528   20.6707 O   0  0  0  0  0  0
  -24.6080  -31.8702   23.2113 C   0  0  0  0  0  0
  -25.8986  -32.4839   23.8382 C   0  0  1  0  0  0
  -27.2436  -27.4595   20.1075 C   0  0  0  0  0  0
  -25.5875  -33.8629   24.2330 N   0  0  0  0  0  0
  -23.3972  -30.4881   21.5522 C   0  0  2  0  0  0
  -24.8499  -28.9556   20.1166 C   0  0  0  0  0  0
  -22.7386  -29.4609   22.5015 C   0  0  0  0  0  0
  -18.0265  -28.1321   22.8498 C   0  0  0  0  0  0
  -24.1478  -36.7294   23.2629 C   0  0  0  0  0  0
  -25.9201  -30.8416   21.3622 C   0  0  0  0  0  0
  -26.0026  -29.4726   20.7230 C   0  0  0  0  0  0
  -27.2025  -28.7274   20.7260 C   0  0  0  0  0  0
  -26.0844  -26.9517   19.4915 C   0  0  0  0  0  0
  -24.8839  -27.6903   19.5001 C   0  0  0  0  0  0
  -23.6071  -29.8161   20.1671 C   0  0  0  0  0  0
  -25.4085  -36.3122   24.0368 C   0  0  1  0  0  0
  -20.5842  -28.3571   23.1333 C   0  0  2  0  0  0
  -20.6743  -26.9307   22.5406 C   0  0  0  0  0  0
  -19.5733  -26.6344   21.5187 C   0  0  0  0  0  0
  -18.1912  -26.7877   22.1594 C   0  0  0  0  0  0
  -19.1514  -28.8765   23.2926 C   0  0  0  0  0  0
  -18.9441  -30.1397   23.8908 C   0  0  0  0  0  0
  -17.6435  -30.6547   24.0527 C   0  0  0  0  0  0
  -25.9040  -34.9504   23.5159 C   0  0  0  0  0  0
  -16.5328  -29.9043   23.6310 C   0  0  0  0  0  0
  -16.7247  -28.6455   23.0338 C   0  0  0  0  0  0
  -26.4430  -31.6582   25.0677 C   0  0  0  0  0  0
  -25.3708  -31.3671   26.1430 C   0  0  0  0  0  0
  -27.0218  -30.3029   24.5974 C   0  0  0  0  0  0
  -27.6024  -32.4244   25.7470 C   0  0  0  0  0  0
  -27.5629  -37.1717   24.8406 C   0  0  0  0  0  0
  -21.4110  -29.2966   22.3777 N   0  0  0  0  0  0
  -26.4243  -37.3845   23.9520 N   0  0  0  0  0  0
  -24.6602  -31.0822   22.1018 N   0  0  0  0  0  0
  -23.4180  -28.8156   23.3045 O   0  0  0  0  0  0
  -28.3988  -26.7211   20.0631 O   0  0  0  0  0  0
  -26.5605  -34.8970   22.4717 O   0  0  0  0  0  0
  -23.5290  -32.1402   23.7551 O   0  0  0  0  0  0
  -30.5862  -17.9090   21.2230 C   0  0  0  0  0  0
  -30.2261  -18.2455   18.4427 C   0  0  0  0  0  0
  -30.8413  -19.1676   20.6229 C   0  0  0  0  0  0
  -30.1987  -16.8056   20.4248 C   0  0  0  0  0  0
  -30.6741  -19.3265   19.2251 C   0  0  0  0  0  0
  -29.9872  -16.9918   19.0372 C   0  0  0  0  0  0
  -30.5811  -22.6139   21.7131 C   0  0  0  0  0  0
  -29.0800  -24.5294   20.9069 C   0  0  0  0  0  0
  -29.5148  -23.6508   22.0911 C   0  0  0  0  0  0
  -30.2089  -21.1280   21.8452 C   0  0  0  0  0  0
  -28.6664  -25.9728   21.2552 C   0  0  0  0  0  0
  -30.9487  -20.5522   18.6100 N   0  0  0  0  0  0
  -30.0313  -15.5113   20.9954 N   0  0  0  0  0  0
  -31.2885  -20.2449   21.3976 N   0  0  0  0  0  0
  -31.7180  -22.9452   21.3562 O   0  0  0  0  0  0
  -29.0100  -24.0984   19.7467 O   0  0  0  0  0  0
  -29.5633  -15.9613   18.2650 F   0  0  0  0  0  0
  -31.4654  -12.3674   19.1362 H   0  0  0  0  0  0
  -30.2993  -11.2879   19.8497 H   0  0  0  0  0  0
  -29.7185  -11.7401   17.4482 H   0  0  0  0  0  0
  -29.6819  -13.4611   17.7603 H   0  0  0  0  0  0
  -27.8055  -11.3189   18.8122 H   0  0  0  0  0  0
  -27.3698  -12.6635   17.7907 H   0  0  0  0  0  0
  -27.6986  -14.2614   19.5768 H   0  0  0  0  0  0
  -28.6716  -11.9827   21.3631 H   0  0  0  0  0  0
  -28.4823  -13.6365   21.8691 H   0  0  0  0  0  0
  -25.2790   -9.5669   22.4770 H   0  0  0  0  0  0
  -24.0027   -7.4622   22.7458 H   0  0  0  0  0  0
  -21.0854   -8.8764   19.8919 H   0  0  0  0  0  0
  -22.3744  -10.9666   19.6148 H   0  0  0  0  0  0
  -21.1945   -7.6133   23.9734 H   0  0  0  0  0  0
  -21.1504   -6.0508   25.9099 H   0  0  0  0  0  0
  -22.0584   -2.7597   23.2876 H   0  0  0  0  0  0
  -22.4082  -11.9873   22.4779 H   0  0  0  0  0  0
  -21.1076  -13.1234   22.2534 H   0  0  0  0  0  0
  -24.6775  -15.8614   20.5056 H   0  0  0  0  0  0
  -26.3078  -15.6237   20.1383 H   0  0  0  0  0  0
  -26.7058  -32.5595   23.1163 H   0  0  0  0  0  0
  -25.0114  -33.9772   25.0535 H   0  0  0  0  0  0
  -22.6838  -31.3038   21.4136 H   0  0  0  0  0  0
  -23.3860  -35.9484   23.3072 H   0  0  0  0  0  0
  -24.3664  -36.9113   22.2095 H   0  0  0  0  0  0
  -23.7045  -37.6368   23.6742 H   0  0  0  0  0  0
  -26.0178  -31.6026   20.5870 H   0  0  0  0  0  0
  -26.8148  -30.9049   21.9695 H   0  0  0  0  0  0
  -28.0929  -29.1194   21.1980 H   0  0  0  0  0  0
  -26.1147  -25.9848   19.0064 H   0  0  0  0  0  0
  -23.9987  -27.2877   19.0289 H   0  0  0  0  0  0
  -23.7041  -30.5867   19.4028 H   0  0  0  0  0  0
  -22.7335  -29.2305   19.8797 H   0  0  0  0  0  0
  -25.1222  -36.1976   25.0838 H   0  0  0  0  0  0
  -20.9916  -28.3090   24.1445 H   0  0  0  0  0  0
  -20.5620  -26.2150   23.3564 H   0  0  0  0  0  0
  -21.6632  -26.7344   22.1226 H   0  0  0  0  0  0
  -19.6904  -25.6268   21.1183 H   0  0  0  0  0  0
  -19.6710  -27.3187   20.6739 H   0  0  0  0  0  0
  -17.4190  -26.6641   21.3973 H   0  0  0  0  0  0
  -18.0301  -25.9990   22.8956 H   0  0  0  0  0  0
  -19.7920  -30.7221   24.2267 H   0  0  0  0  0  0
  -17.4990  -31.6235   24.5104 H   0  0  0  0  0  0
  -15.5336  -30.2945   23.7625 H   0  0  0  0  0  0
  -15.8650  -28.0797   22.7015 H   0  0  0  0  0  0
  -24.5885  -30.7004   25.7765 H   0  0  0  0  0  0
  -24.8914  -32.2833   26.4880 H   0  0  0  0  0  0
  -25.8088  -30.8848   27.0167 H   0  0  0  0  0  0
  -26.2701  -29.6862   24.1024 H   0  0  0  0  0  0
  -27.4012  -29.7192   25.4371 H   0  0  0  0  0  0
  -27.8532  -30.4396   23.9053 H   0  0  0  0  0  0
  -27.2650  -33.3528   26.2083 H   0  0  0  0  0  0
  -28.3854  -32.6775   25.0309 H   0  0  0  0  0  0
  -28.0624  -31.8305   26.5380 H   0  0  0  0  0  0
  -28.2376  -38.0273   24.7936 H   0  0  0  0  0  0
  -28.1404  -36.2880   24.5641 H   0  0  0  0  0  0
  -27.2450  -37.0664   25.8791 H   0  0  0  0  0  0
  -20.9221  -29.8732   21.7064 H   0  0  0  0  0  0
  -26.0141  -38.2850   24.1792 H   0  0  0  0  0  0
  -30.7389  -17.7771   22.2850 H   0  0  0  0  0  0
  -30.0777  -18.3548   17.3771 H   0  0  0  0  0  0
  -29.9126  -24.2902   22.8791 H   0  0  0  0  0  0
  -28.6391  -23.1438   22.4998 H   0  0  0  0  0  0
  -29.2963  -20.9521   21.2755 H   0  0  0  0  0  0
  -29.9836  -20.9225   22.8917 H   0  0  0  0  0  0
  -29.4733  -26.4569   21.8087 H   0  0  0  0  0  0
  -27.7976  -25.9492   21.9183 H   0  0  0  0  0  0
  -31.0054  -20.5950   17.5966 H   0  0  0  0  0  0
  -31.5425  -21.2262   19.0783 H   0  0  0  0  0  0
  -29.1355  -15.3098   21.4095 H   0  0  0  0  0  0
  -31.9435  -20.8286   20.8824 H   0  0  0  0  0  0
  1 25  1  0  0  0
  1 30  2  0  0  0
  1 83  1  0  0  0
  2  3  1  0  0  0
  2 25  1  0  0  0
  2 88  1  0  0  0
  2 89  1  0  0  0
  3  4  1  0  0  0
  3 90  1  0  0  0
  3 91  1  0  0  0
  4  5  1  0  0  0
  4 92  1  0  0  0
  4 93  1  0  0  0
  5  6  1  0  0  0
  5 26  1  0  0  0
  5 94  1  0  0  0
  6 25  1  0  0  0
  6 95  1  0  0  0
  6 96  1  0  0  0
  7  8  2  0  0  0
  7 26  1  0  0  0
  7 29  1  0  0  0
  8  9  1  0  0  0
  8 22  1  0  0  0
  9 10  1  0  0  0
  9 27  2  0  0  0
 10 11  2  0  0  0
 10 15  1  0  0  0
 11 12  1  0  0  0
 11 97  1  0  0  0
 12 13  2  0  0  0
 12 98  1  0  0  0
 13 14  1  0  0  0
 13 31  1  0  0  0
 14 15  2  0  0  0
 14 99  1  0  0  0
 15100  1  0  0  0
 16 17  2  0  0  0
 16 21  1  0  0  0
 16 31  1  0  0  0
 17 18  1  0  0  0
 17101  1  0  0  0
 18 19  2  0  0  0
 18102  1  0  0  0
 19 20  1  0  0  0
 19 24  1  0  0  0
 20 21  2  0  0  0
 20103  1  0  0  0
 21 23  1  0  0  0
 22 28  1  0  0  0
 22 32  2  0  0  0
 26 27  1  0  0  0
 28104  1  0  0  0
 28105  1  0  0  0
 29106  1  0  0  0
 29107  1  0  0  0
 33 34  1  0  0  0
 33 66  1  0  0  0
 33 70  2  0  0  0
 34 36  1  0  0  0
 34 59  1  0  0  0
 34108  1  0  0  0
 35 44  2  0  0  0
 35 45  1  0  0  0
 35 68  1  0  0  0
 36 56  1  0  0  0
 36109  1  0  0  0
 37 39  1  0  0  0
 37 47  1  0  0  0
 37 66  1  0  0  0
 37110  1  0  0  0
 38 43  2  0  0  0
 38 46  1  0  0  0
 38 47  1  0  0  0
 39 64  1  0  0  0
 39 67  2  0  0  0
 40 52  1  0  0  0
 40 53  2  0  0  0
 40 58  1  0  0  0
 41111  1  0  0  0
 41112  1  0  0  0
 41113  1  0  0  0
 41 48  1  0  0  0
 42 43  1  0  0  0
 42 66  1  0  0  0
 42114  1  0  0  0
 42115  1  0  0  0
 43 44  1  0  0  0
 44116  1  0  0  0
 45 46  2  0  0  0
 45117  1  0  0  0
 46118  1  0  0  0
 47119  1  0  0  0
 47120  1  0  0  0
 48 56  1  0  0  0
 48 65  1  0  0  0
 48121  1  0  0  0
 49 50  1  0  0  0
 49 53  1  0  0  0
 49 64  1  0  0  0
 49122  1  0  0  0
 50 51  1  0  0  0
 50123  1  0  0  0
 50124  1  0  0  0
 51 52  1  0  0  0
 51125  1  0  0  0
 51126  1  0  0  0
 52127  1  0  0  0
 52128  1  0  0  0
 53 54  1  0  0  0
 54 55  2  0  0  0
 54129  1  0  0  0
 55 57  1  0  0  0
 55130  1  0  0  0
 56 69  2  0  0  0
 57 58  2  0  0  0
 57131  1  0  0  0
 58132  1  0  0  0
 59 60  1  0  0  0
 59 61  1  0  0  0
 59 62  1  0  0  0
 60133  1  0  0  0
 60134  1  0  0  0
 60135  1  0  0  0
 61136  1  0  0  0
 61137  1  0  0  0
 61138  1  0  0  0
 62139  1  0  0  0
 62140  1  0  0  0
 62141  1  0  0  0
 63 65  1  0  0  0
 63142  1  0  0  0
 63143  1  0  0  0
 63144  1  0  0  0
 64145  1  0  0  0
 65146  1  0  0  0
 68 81  1  0  0  0
 71 73  2  0  0  0
 71 74  1  0  0  0
 71147  1  0  0  0
 72 75  2  0  0  0
 72 76  1  0  0  0
 72148  1  0  0  0
 73 75  1  0  0  0
 73 84  1  0  0  0
 74 76  2  0  0  0
 74 83  1  0  0  0
 75 82  1  0  0  0
 76 87  1  0  0  0
 77 79  1  0  0  0
 77 80  1  0  0  0
 77 85  2  0  0  0
 78 79  1  0  0  0
 78 81  1  0  0  0
 78 86  2  0  0  0
 79149  1  0  0  0
 79150  1  0  0  0
 80 84  1  0  0  0
 80151  1  0  0  0
 80152  1  0  0  0
 81153  1  0  0  0
 81154  1  0  0  0
 82155  1  0  0  0
 82156  1  0  0  0
 83157  1  0  0  0
 84158  1  0  0  0
M  ISO  4   1 100  68 101  81 101  83 100
M  END
> <chiral flag>
0

> <version>
0

> <s_m_source_file>
/data/baiqing/PycharmProjects/Reinvent-master-3.2/result/LINK_invent/BTK/process_docking_weight1_custom_product_contain_oxygen_bond_distance_aromatic_linkinvent_7_9_3/rearranged_h_0167.sdf

> <i_m_source_file_index>
25

> <r_mmod_Potential_Energy-OPLS-2005>
-172.42366027832

> <r_mmod_Stretch_Energy-OPLS-2005>
35.0420570373535

> <r_mmod_Bend_Energy-OPLS-2005>
91.1027450561523

> <r_mmod_Torsional_Energy-OPLS-2005>
296.002777099609

> <r_mmod_Improper_Torsional_Energy-OPLS-2005>
14.2492542266846

> <r_mmod_Van_der_Waal_Energy-OPLS-2005>
150.905715942383

> <r_mmod_Electrostatic_Energy-OPLS-2005>
-512.043762207031

> <r_mmod_Solvation_Energy-OPLS-2005>
-259.755737304688

> <b_mmod_Minimization_Converged-OPLS-2005>
0

> <r_mmod_RMS_Derivative-OPLS-2005>
4.66253232955933

$$$$
25
                    3D
 Structure written by MMmdl.
151160  0  0  1  0            999 V2000
  -30.5304  -14.8443   20.4472 C   0  0  0  0  0  0
  -30.4544  -12.5169   19.4786 C   0  0  0  0  0  0
  -29.5232  -12.5263   18.2428 C   0  0  0  0  0  0
  -28.0491  -12.3341   18.6539 C   0  0  0  0  0  0
  -27.6443  -13.2306   19.8528 C   0  0  2  0  0  0
  -28.6906  -13.1681   20.9873 C   0  0  0  0  0  0
  -25.2524  -13.8176   20.5687 C   0  0  0  0  0  0
  -24.1821  -13.0426   20.9225 C   0  0  0  0  0  0
  -24.6404  -11.6905   20.8748 C   0  0  0  0  0  0
  -23.9082  -10.4289   21.0419 C   0  0  0  0  0  0
  -24.3625   -9.4197   21.9188 C   0  0  0  0  0  0
  -23.6303   -8.2238   22.0747 C   0  0  0  0  0  0
  -22.4284   -8.0279   21.3547 C   0  0  0  0  0  0
  -21.9929   -9.0253   20.4644 C   0  0  0  0  0  0
  -22.7261  -10.2138   20.3057 C   0  0  0  0  0  0
  -21.6858   -6.0741   22.5278 C   0  0  0  0  0  0
  -21.4013   -6.5641   23.8212 C   0  0  0  0  0  0
  -21.3654   -5.6788   24.9170 C   0  0  0  0  0  0
  -21.6053   -4.3054   24.7226 C   0  0  0  0  0  0
  -21.8815   -3.8149   23.4343 C   0  0  0  0  0  0
  -21.9195   -4.6967   22.3398 C   0  0  0  0  0  0
  -22.7846  -13.5216   21.1895 C   0  0  0  0  0  0
  -22.1666   -4.2154   21.0975 F   0  0  0  0  0  0
  -21.5632   -3.4533   25.7736 F   0  0  0  0  0  0
  -29.9826  -13.5710   20.4108 N   0  0  0  0  0  0
  -26.2954  -12.9379   20.3277 N   0  0  0  0  0  0
  -25.9332  -11.6523   20.5742 N   0  0  0  0  0  0
  -22.0484  -12.8187   22.0429 N   0  0  0  0  0  0
  -25.4176  -15.1887   20.4018 N   0  0  0  0  0  0
  -31.7092  -15.0064   20.1155 O   0  0  0  0  0  0
  -21.6640   -6.8882   21.4240 O   0  0  0  0  0  0
  -22.3528  -14.5531   20.6751 O   0  0  0  0  0  0
  -24.6354  -31.8509   23.1902 C   0  0  0  0  0  0
  -25.9149  -32.4739   23.8300 C   0  0  1  0  0  0
  -27.2257  -27.2075   20.1466 C   0  0  0  0  0  0
  -25.5921  -33.8534   24.2231 N   0  0  0  0  0  0
  -23.4378  -30.4693   21.5354 C   0  0  2  0  0  0
  -24.8844  -28.8967   20.1190 C   0  0  0  0  0  0
  -22.7520  -29.4585   22.4879 C   0  0  0  0  0  0
  -18.0299  -28.1424   22.8507 C   0  0  0  0  0  0
  -24.1480  -36.7262   23.2645 C   0  0  0  0  0  0
  -25.9862  -30.7470   21.3735 C   0  0  0  0  0  0
  -26.0605  -29.3595   20.7243 C   0  0  0  0  0  0
  -27.2354  -28.5322   20.7194 C   0  0  0  0  0  0
  -26.0255  -26.8177   19.5173 C   0  0  0  0  0  0
  -24.8732  -27.6345   19.5020 C   0  0  0  0  0  0
  -23.6593  -29.7945   20.1564 C   0  0  0  0  0  0
  -25.4116  -36.3059   24.0334 C   0  0  1  0  0  0
  -20.5919  -28.3732   23.1278 C   0  0  2  0  0  0
  -20.6798  -26.9447   22.5418 C   0  0  0  0  0  0
  -19.5759  -26.6423   21.5228 C   0  0  0  0  0  0
  -18.1937  -26.7970   22.1643 C   0  0  0  0  0  0
  -19.1558  -28.8894   23.2898 C   0  0  0  0  0  0
  -18.9473  -30.1501   23.8911 C   0  0  0  0  0  0
  -17.6472  -30.6620   24.0587 C   0  0  0  0  0  0
  -25.9070  -34.9436   23.5098 C   0  0  0  0  0  0
  -16.5363  -29.9120   23.6355 C   0  0  0  0  0  0
  -16.7290  -28.6545   23.0368 C   0  0  0  0  0  0
  -26.4496  -31.6575   25.0700 C   0  0  0  0  0  0
  -25.3698  -31.3769   26.1409 C   0  0  0  0  0  0
  -27.0312  -30.2983   24.6188 C   0  0  0  0  0  0
  -27.6065  -32.4303   25.7459 C   0  0  0  0  0  0
  -27.5584  -37.1786   24.8470 C   0  0  0  0  0  0
  -21.4221  -29.3065   22.3636 N   0  0  0  0  0  0
  -26.4275  -37.3770   23.9432 N   0  0  0  0  0  0
  -24.7068  -31.0437   22.0883 N   0  0  0  0  0  0
  -23.4186  -28.8133   23.3012 O   0  0  0  0  0  0
  -28.3176  -26.2912   20.1374 O   0  0  0  0  0  0
  -26.5641  -34.8905   22.4665 O   0  0  0  0  0  0
  -23.5489  -32.1340   23.7160 O   0  0  0  0  0  0
  -30.2560  -19.8352   20.2678 C   0  0  0  0  0  0
  -27.9927  -19.3958   20.7745 C   0  0  0  0  0  0
  -30.5361  -18.4000   20.2939 C   0  0  0  0  0  0
  -28.2640  -17.9874   20.8101 C   0  0  0  0  0  0
  -28.9591  -20.4121   20.5202 C   0  0  0  0  0  0
  -29.5422  -17.4012   20.5839 C   0  0  0  0  0  0
  -27.6481  -22.4882   19.5375 C   0  0  0  0  0  0
  -28.4810  -21.9593   20.6818 C   0  0  2  0  0  0
  -28.6879  -23.4567   20.0350 C   0  0  2  0  0  0
  -28.1485  -24.8697   20.6666 C   0  0  0  0  0  0
  -29.6428  -15.8966   20.7050 N   0  0  0  0  0  0
  -31.4873  -12.6863   19.1700 H   0  0  0  0  0  0
  -30.4402  -11.5414   19.9667 H   0  0  0  0  0  0
  -29.8194  -11.7452   17.5422 H   0  0  0  0  0  0
  -29.6328  -13.4704   17.7064 H   0  0  0  0  0  0
  -27.9182  -11.2864   18.9218 H   0  0  0  0  0  0
  -27.3908  -12.5166   17.8040 H   0  0  0  0  0  0
  -27.6330  -14.2519   19.4710 H   0  0  0  0  0  0
  -28.7495  -12.1619   21.4038 H   0  0  0  0  0  0
  -28.4053  -13.8191   21.8152 H   0  0  0  0  0  0
  -25.2770   -9.5678   22.4766 H   0  0  0  0  0  0
  -24.0016   -7.4621   22.7456 H   0  0  0  0  0  0
  -21.0866   -8.8771   19.8938 H   0  0  0  0  0  0
  -22.3715  -10.9675   19.6164 H   0  0  0  0  0  0
  -21.1993   -7.6148   23.9717 H   0  0  0  0  0  0
  -21.1489   -6.0521   25.9080 H   0  0  0  0  0  0
  -22.0599   -2.7614   23.2837 H   0  0  0  0  0  0
  -22.4117  -11.9842   22.4797 H   0  0  0  0  0  0
  -21.1101  -13.1193   22.2640 H   0  0  0  0  0  0
  -24.6278  -15.8230   20.4676 H   0  0  0  0  0  0
  -26.2245  -15.6078   19.9604 H   0  0  0  0  0  0
  -26.7206  -32.5384   23.1033 H   0  0  0  0  0  0
  -25.0068  -33.9685   25.0378 H   0  0  0  0  0  0
  -22.7412  -31.2963   21.3829 H   0  0  0  0  0  0
  -23.3756  -35.9575   23.3291 H   0  0  0  0  0  0
  -24.3582  -36.8890   22.2064 H   0  0  0  0  0  0
  -23.7180  -37.6439   23.6664 H   0  0  0  0  0  0
  -26.1269  -31.4983   20.5960 H   0  0  0  0  0  0
  -26.8644  -30.8082   22.0047 H   0  0  0  0  0  0
  -28.1380  -28.8877   21.1983 H   0  0  0  0  0  0
  -25.9723  -25.8491   19.0394 H   0  0  0  0  0  0
  -23.9710  -27.2769   19.0222 H   0  0  0  0  0  0
  -23.7884  -30.5668   19.3961 H   0  0  0  0  0  0
  -22.7745  -29.2308   19.8561 H   0  0  0  0  0  0
  -25.1290  -36.1909   25.0821 H   0  0  0  0  0  0
  -21.0053  -28.3304   24.1387 H   0  0  0  0  0  0
  -20.5730  -26.2336   23.3618 H   0  0  0  0  0  0
  -21.6659  -26.7489   22.1192 H   0  0  0  0  0  0
  -19.6918  -25.6335   21.1258 H   0  0  0  0  0  0
  -19.6690  -27.3254   20.6769 H   0  0  0  0  0  0
  -17.4218  -26.6755   21.4022 H   0  0  0  0  0  0
  -18.0315  -26.0117   22.9048 H   0  0  0  0  0  0
  -19.7944  -30.7339   24.2261 H   0  0  0  0  0  0
  -17.5019  -31.6295   24.5202 H   0  0  0  0  0  0
  -15.5370  -30.3027   23.7669 H   0  0  0  0  0  0
  -15.8696  -28.0871   22.7063 H   0  0  0  0  0  0
  -24.5892  -30.7077   25.7765 H   0  0  0  0  0  0
  -24.8851  -32.2946   26.4761 H   0  0  0  0  0  0
  -25.8008  -30.9017   27.0230 H   0  0  0  0  0  0
  -26.2882  -29.6748   24.1196 H   0  0  0  0  0  0
  -27.3964  -29.7229   25.4707 H   0  0  0  0  0  0
  -27.8780  -30.4253   23.9432 H   0  0  0  0  0  0
  -27.2730  -33.3668   26.1940 H   0  0  0  0  0  0
  -28.3920  -32.6755   25.0297 H   0  0  0  0  0  0
  -28.0654  -31.8455   26.5437 H   0  0  0  0  0  0
  -28.2602  -38.0096   24.7575 H   0  0  0  0  0  0
  -28.1082  -36.2637   24.6227 H   0  0  0  0  0  0
  -27.2328  -37.1358   25.8878 H   0  0  0  0  0  0
  -20.9393  -29.8736   21.6805 H   0  0  0  0  0  0
  -26.0155  -38.2829   24.1462 H   0  0  0  0  0  0
  -31.0809  -20.5071   20.0750 H   0  0  0  0  0  0
  -26.9798  -19.7105   20.9865 H   0  0  0  0  0  0
  -31.5516  -18.0767   20.1099 H   0  0  0  0  0  0
  -27.4328  -17.3379   21.0431 H   0  0  0  0  0  0
  -26.6032  -22.6984   19.7549 H   0  0  0  0  0  0
  -27.8255  -22.0664   18.5496 H   0  0  0  0  0  0
  -28.0295  -22.0079   21.6717 H   0  0  0  0  0  0
  -29.5984  -23.5682   19.4494 H   0  0  0  0  0  0
  -28.6414  -24.9241   21.6371 H   0  0  0  0  0  0
  -27.0996  -24.7255   20.9287 H   0  0  0  0  0  0
  -28.7601  -15.4947   20.9803 H   0  0  0  0  0  0
  1 25  1  0  0  0
  1 30  2  0  0  0
  1 81  1  0  0  0
  2  3  1  0  0  0
  2 25  1  0  0  0
  2 82  1  0  0  0
  2 83  1  0  0  0
  3  4  1  0  0  0
  3 84  1  0  0  0
  3 85  1  0  0  0
  4  5  1  0  0  0
  4 86  1  0  0  0
  4 87  1  0  0  0
  5  6  1  0  0  0
  5 26  1  0  0  0
  5 88  1  0  0  0
  6 25  1  0  0  0
  6 89  1  0  0  0
  6 90  1  0  0  0
  7  8  2  0  0  0
  7 26  1  0  0  0
  7 29  1  0  0  0
  8  9  1  0  0  0
  8 22  1  0  0  0
  9 10  1  0  0  0
  9 27  2  0  0  0
 10 11  2  0  0  0
 10 15  1  0  0  0
 11 12  1  0  0  0
 11 91  1  0  0  0
 12 13  2  0  0  0
 12 92  1  0  0  0
 13 14  1  0  0  0
 13 31  1  0  0  0
 14 15  2  0  0  0
 14 93  1  0  0  0
 15 94  1  0  0  0
 16 17  2  0  0  0
 16 21  1  0  0  0
 16 31  1  0  0  0
 17 18  1  0  0  0
 17 95  1  0  0  0
 18 19  2  0  0  0
 18 96  1  0  0  0
 19 20  1  0  0  0
 19 24  1  0  0  0
 20 21  2  0  0  0
 20 97  1  0  0  0
 21 23  1  0  0  0
 22 28  1  0  0  0
 22 32  2  0  0  0
 26 27  1  0  0  0
 28 98  1  0  0  0
 28 99  1  0  0  0
 29100  1  0  0  0
 29101  1  0  0  0
 33 34  1  0  0  0
 33 66  1  0  0  0
 33 70  2  0  0  0
 34 36  1  0  0  0
 34 59  1  0  0  0
 34102  1  0  0  0
 35 44  2  0  0  0
 35 45  1  0  0  0
 35 68  1  0  0  0
 36 56  1  0  0  0
 36103  1  0  0  0
 37 39  1  0  0  0
 37 47  1  0  0  0
 37 66  1  0  0  0
 37104  1  0  0  0
 38 43  2  0  0  0
 38 46  1  0  0  0
 38 47  1  0  0  0
 39 64  1  0  0  0
 39 67  2  0  0  0
 40 52  1  0  0  0
 40 53  2  0  0  0
 40 58  1  0  0  0
 41105  1  0  0  0
 41106  1  0  0  0
 41107  1  0  0  0
 41 48  1  0  0  0
 42 43  1  0  0  0
 42 66  1  0  0  0
 42108  1  0  0  0
 42109  1  0  0  0
 43 44  1  0  0  0
 44110  1  0  0  0
 45 46  2  0  0  0
 45111  1  0  0  0
 46112  1  0  0  0
 47113  1  0  0  0
 47114  1  0  0  0
 48 56  1  0  0  0
 48 65  1  0  0  0
 48115  1  0  0  0
 49 50  1  0  0  0
 49 53  1  0  0  0
 49 64  1  0  0  0
 49116  1  0  0  0
 50 51  1  0  0  0
 50117  1  0  0  0
 50118  1  0  0  0
 51 52  1  0  0  0
 51119  1  0  0  0
 51120  1  0  0  0
 52121  1  0  0  0
 52122  1  0  0  0
 53 54  1  0  0  0
 54 55  2  0  0  0
 54123  1  0  0  0
 55 57  1  0  0  0
 55124  1  0  0  0
 56 69  2  0  0  0
 57 58  2  0  0  0
 57125  1  0  0  0
 58126  1  0  0  0
 59 60  1  0  0  0
 59 61  1  0  0  0
 59 62  1  0  0  0
 60127  1  0  0  0
 60128  1  0  0  0
 60129  1  0  0  0
 61130  1  0  0  0
 61131  1  0  0  0
 61132  1  0  0  0
 62133  1  0  0  0
 62134  1  0  0  0
 62135  1  0  0  0
 63 65  1  0  0  0
 63136  1  0  0  0
 63137  1  0  0  0
 63138  1  0  0  0
 64139  1  0  0  0
 65140  1  0  0  0
 68 80  1  0  0  0
 71 73  2  0  0  0
 71 75  1  0  0  0
 71141  1  0  0  0
 72 74  1  0  0  0
 72 75  2  0  0  0
 72142  1  0  0  0
 73 76  1  0  0  0
 73143  1  0  0  0
 74 76  2  0  0  0
 74144  1  0  0  0
 75 78  1  0  0  0
 76 81  1  0  0  0
 77 78  1  0  0  0
 77 79  1  0  0  0
 77145  1  0  0  0
 77146  1  0  0  0
 78 79  1  0  0  0
 78147  1  0  0  0
 79 80  1  0  0  0
 79148  1  0  0  0
 80149  1  0  0  0
 80150  1  0  0  0
 81151  1  0  0  0
M  ISO  4   1 100  68 101  80 101  81 100
M  END
> <chiral flag>
0

> <version>
0

> <s_m_source_file>
/data/baiqing/PycharmProjects/Reinvent-master-3.2/result/LINK_invent/BTK/process_docking_weight1_custom_product_contain_oxygen_bond_distance_aromatic_linkinvent_7_9_3/rearranged_h_0167.sdf

> <i_m_source_file_index>
26

> <r_mmod_Potential_Energy-OPLS-2005>
387.141479492188

> <r_mmod_Stretch_Energy-OPLS-2005>
174.974639892578

> <r_mmod_Bend_Energy-OPLS-2005>
257.824157714844

> <r_mmod_Torsional_Energy-OPLS-2005>
266.104125976562

> <r_mmod_Improper_Torsional_Energy-OPLS-2005>
4.97429847717285

> <r_mmod_Van_der_Waal_Energy-OPLS-2005>
127.488746643066

> <r_mmod_Electrostatic_Energy-OPLS-2005>
-367.362640380859

> <r_mmod_Solvation_Energy-OPLS-2005>
-203.638305664062

> <b_mmod_Minimization_Converged-OPLS-2005>
0

> <r_mmod_RMS_Derivative-OPLS-2005>
2.86081457138062

$$$$
26
                    3D
 Structure written by MMmdl.
153161  0  0  1  0            999 V2000
  -30.6930  -14.4802   20.5546 C   0  0  0  0  0  0
  -30.4238  -12.3041   19.4236 C   0  0  0  0  0  0
  -29.4968  -12.5039   18.2069 C   0  0  0  0  0  0
  -28.0172  -12.3637   18.6173 C   0  0  0  0  0  0
  -27.6613  -13.2048   19.8723 C   0  0  2  0  0  0
  -28.7030  -12.9878   20.9940 C   0  0  0  0  0  0
  -25.2589  -13.8157   20.5672 C   0  0  0  0  0  0
  -24.1838  -13.0435   20.9169 C   0  0  0  0  0  0
  -24.6387  -11.6900   20.8715 C   0  0  0  0  0  0
  -23.9051  -10.4286   21.0384 C   0  0  0  0  0  0
  -24.3602   -9.4207   21.9165 C   0  0  0  0  0  0
  -23.6274   -8.2246   22.0749 C   0  0  0  0  0  0
  -22.4257   -8.0279   21.3541 C   0  0  0  0  0  0
  -21.9884   -9.0252   20.4646 C   0  0  0  0  0  0
  -22.7217  -10.2125   20.3043 C   0  0  0  0  0  0
  -21.6859   -6.0722   22.5270 C   0  0  0  0  0  0
  -21.4021   -6.5627   23.8202 C   0  0  0  0  0  0
  -21.3661   -5.6783   24.9166 C   0  0  0  0  0  0
  -21.6044   -4.3045   24.7222 C   0  0  0  0  0  0
  -21.8822   -3.8134   23.4346 C   0  0  0  0  0  0
  -21.9194   -4.6947   22.3397 C   0  0  0  0  0  0
  -22.7861  -13.5239   21.1829 C   0  0  0  0  0  0
  -22.1661   -4.2130   21.0978 F   0  0  0  0  0  0
  -21.5624   -3.4533   25.7736 F   0  0  0  0  0  0
  -30.0363  -13.2915   20.4435 N   0  0  0  0  0  0
  -26.3018  -12.9318   20.3338 N   0  0  0  0  0  0
  -25.9309  -11.6482   20.5741 N   0  0  0  0  0  0
  -22.0503  -12.8247   22.0393 N   0  0  0  0  0  0
  -25.4317  -15.1880   20.4088 N   0  0  0  0  0  0
  -31.8264  -14.6522   20.0955 O   0  0  0  0  0  0
  -21.6637   -6.8865   21.4230 O   0  0  0  0  0  0
  -22.3555  -14.5545   20.6674 O   0  0  0  0  0  0
  -24.6130  -31.8676   23.2097 C   0  0  0  0  0  0
  -25.9022  -32.4822   23.8395 C   0  0  1  0  0  0
  -27.2409  -27.4422   20.0987 C   0  0  0  0  0  0
  -25.5875  -33.8621   24.2326 N   0  0  0  0  0  0
  -23.4027  -30.4883   21.5489 C   0  0  2  0  0  0
  -24.8536  -28.9516   20.1178 C   0  0  0  0  0  0
  -22.7409  -29.4638   22.4985 C   0  0  0  0  0  0
  -18.0276  -28.1375   22.8488 C   0  0  0  0  0  0
  -24.1484  -36.7317   23.2642 C   0  0  0  0  0  0
  -25.9302  -30.8345   21.3633 C   0  0  0  0  0  0
  -26.0120  -29.4677   20.7142 C   0  0  0  0  0  0
  -27.2114  -28.7191   20.7036 C   0  0  0  0  0  0
  -26.0705  -26.9357   19.4999 C   0  0  0  0  0  0
  -24.8767  -27.6835   19.5093 C   0  0  0  0  0  0
  -23.6138  -29.8169   20.1648 C   0  0  0  0  0  0
  -25.4104  -36.3112   24.0340 C   0  0  1  0  0  0
  -20.5864  -28.3656   23.1319 C   0  0  2  0  0  0
  -20.6761  -26.9390   22.5420 C   0  0  0  0  0  0
  -19.5747  -26.6379   21.5208 C   0  0  0  0  0  0
  -18.1924  -26.7922   22.1618 C   0  0  0  0  0  0
  -19.1525  -28.8833   23.2901 C   0  0  0  0  0  0
  -18.9453  -30.1437   23.8915 C   0  0  0  0  0  0
  -17.6454  -30.6578   24.0568 C   0  0  0  0  0  0
  -25.9020  -34.9474   23.5130 C   0  0  0  0  0  0
  -16.5346  -29.9081   23.6320 C   0  0  0  0  0  0
  -16.7265  -28.6497   23.0343 C   0  0  0  0  0  0
  -26.4459  -31.6606   25.0724 C   0  0  0  0  0  0
  -25.3732  -31.3727   26.1485 C   0  0  0  0  0  0
  -27.0288  -30.3047   24.6094 C   0  0  0  0  0  0
  -27.6037  -32.4331   25.7481 C   0  0  0  0  0  0
  -27.5573  -37.1821   24.8469 C   0  0  0  0  0  0
  -21.4138  -29.3022   22.3723 N   0  0  0  0  0  0
  -26.4299  -37.3785   23.9393 N   0  0  0  0  0  0
  -24.6662  -31.0779   22.0994 N   0  0  0  0  0  0
  -23.4183  -28.8181   23.3025 O   0  0  0  0  0  0
  -28.3913  -26.6898   20.0680 O   0  0  0  0  0  0
  -26.5586  -34.8922   22.4695 O   0  0  0  0  0  0
  -23.5319  -32.1426   23.7488 O   0  0  0  0  0  0
  -29.1116  -17.6826   21.5923 C   0  0  0  0  0  0
  -30.1772  -19.6656   20.9969 C   0  0  0  0  0  0
  -30.1324  -16.8942   21.0048 C   0  0  0  0  0  0
  -31.2114  -18.8768   20.3952 C   0  0  0  0  0  0
  -30.2335  -21.1857   21.1222 C   0  0  0  0  0  0
  -28.7669  -24.2930   20.6149 C   0  0  0  0  0  0
  -28.8599  -23.2000   21.6981 C   0  0  0  0  0  0
  -28.4743  -25.7215   21.1266 C   0  0  0  0  0  0
  -29.1232  -19.0395   21.5873 N   0  0  0  0  0  0
  -31.1755  -17.5202   20.3950 N   0  0  0  0  0  0
  -32.3381  -19.3997   19.7665 N   0  0  0  0  0  0
  -29.9625  -15.4768   21.0950 N   0  0  0  0  0  0
  -29.0544  -21.8262   21.1962 N   0  0  0  0  0  0
  -31.3053  -21.7945   21.2011 O   0  0  0  0  0  0
  -28.9136  -24.0379   19.4133 O   0  0  0  0  0  0
  -31.4690  -12.3970   19.1242 H   0  0  0  0  0  0
  -30.3189  -11.2942   19.8232 H   0  0  0  0  0  0
  -29.7374  -11.7807   17.4266 H   0  0  0  0  0  0
  -29.6675  -13.4910   17.7731 H   0  0  0  0  0  0
  -27.8268  -11.3076   18.8135 H   0  0  0  0  0  0
  -27.3698  -12.6383   17.7841 H   0  0  0  0  0  0
  -27.7049  -14.2515   19.5716 H   0  0  0  0  0  0
  -28.6780  -11.9520   21.3357 H   0  0  0  0  0  0
  -28.4613  -13.5854   21.8735 H   0  0  0  0  0  0
  -25.2743   -9.5684   22.4741 H   0  0  0  0  0  0
  -23.9982   -7.4639   22.7471 H   0  0  0  0  0  0
  -21.0810   -8.8768   19.8957 H   0  0  0  0  0  0
  -22.3669  -10.9658   19.6154 H   0  0  0  0  0  0
  -21.2024   -7.6135   23.9700 H   0  0  0  0  0  0
  -21.1478   -6.0514   25.9068 H   0  0  0  0  0  0
  -22.0602   -2.7592   23.2856 H   0  0  0  0  0  0
  -22.4110  -11.9914   22.4798 H   0  0  0  0  0  0
  -21.1125  -13.1285   22.2595 H   0  0  0  0  0  0
  -24.6604  -15.8385   20.5107 H   0  0  0  0  0  0
  -26.2720  -15.6249   20.0518 H   0  0  0  0  0  0
  -26.7098  -32.5543   23.1167 H   0  0  0  0  0  0
  -25.0034  -33.9786   25.0476 H   0  0  0  0  0  0
  -22.6894  -31.3028   21.4069 H   0  0  0  0  0  0
  -23.3723  -35.9677   23.3356 H   0  0  0  0  0  0
  -24.3568  -36.8877   22.2046 H   0  0  0  0  0  0
  -23.7273  -37.6554   23.6623 H   0  0  0  0  0  0
  -26.0410  -31.5987   20.5929 H   0  0  0  0  0  0
  -26.8181  -30.8915   21.9811 H   0  0  0  0  0  0
  -28.1086  -29.1145   21.1596 H   0  0  0  0  0  0
  -26.0858  -25.9639   19.0261 H   0  0  0  0  0  0
  -23.9862  -27.2801   19.0471 H   0  0  0  0  0  0
  -23.7208  -30.5901   19.4029 H   0  0  0  0  0  0
  -22.7398  -29.2337   19.8692 H   0  0  0  0  0  0
  -25.1288  -36.1984   25.0836 H   0  0  0  0  0  0
  -20.9955  -28.3224   24.1440 H   0  0  0  0  0  0
  -20.5653  -26.2259   23.3604 H   0  0  0  0  0  0
  -21.6637  -26.7423   22.1220 H   0  0  0  0  0  0
  -19.6901  -25.6293   21.1228 H   0  0  0  0  0  0
  -19.6690  -27.3198   20.6747 H   0  0  0  0  0  0
  -17.4191  -26.6668   21.4022 H   0  0  0  0  0  0
  -18.0325  -26.0062   22.9012 H   0  0  0  0  0  0
  -19.7930  -30.7247   24.2291 H   0  0  0  0  0  0
  -17.5012  -31.6259   24.5166 H   0  0  0  0  0  0
  -15.5349  -30.2989   23.7634 H   0  0  0  0  0  0
  -15.8664  -28.0819   22.7053 H   0  0  0  0  0  0
  -24.5874  -30.7106   25.7833 H   0  0  0  0  0  0
  -24.8962  -32.2898   26.4955 H   0  0  0  0  0  0
  -25.8086  -30.8878   27.0230 H   0  0  0  0  0  0
  -26.2829  -29.6821   24.1137 H   0  0  0  0  0  0
  -27.4053  -29.7273   25.4547 H   0  0  0  0  0  0
  -27.8665  -30.4376   23.9245 H   0  0  0  0  0  0
  -27.2646  -33.3611   26.2098 H   0  0  0  0  0  0
  -28.3818  -32.6928   25.0291 H   0  0  0  0  0  0
  -28.0736  -31.8438   26.5366 H   0  0  0  0  0  0
  -28.2634  -38.0072   24.7448 H   0  0  0  0  0  0
  -28.1024  -36.2603   24.6379 H   0  0  0  0  0  0
  -27.2285  -37.1580   25.8873 H   0  0  0  0  0  0
  -20.9291  -29.8742   21.6949 H   0  0  0  0  0  0
  -26.0194  -38.2874   24.1354 H   0  0  0  0  0  0
  -28.2700  -17.2171   22.0855 H   0  0  0  0  0  0
  -27.9348  -23.2188   22.2735 H   0  0  0  0  0  0
  -29.6557  -23.4704   22.3940 H   0  0  0  0  0  0
  -29.2731  -26.0167   21.8072 H   0  0  0  0  0  0
  -27.5551  -25.6962   21.7136 H   0  0  0  0  0  0
  -32.5839  -20.3598   19.9936 H   0  0  0  0  0  0
  -33.1378  -18.7911   19.6353 H   0  0  0  0  0  0
  -29.0885  -15.1762   21.4959 H   0  0  0  0  0  0
  -28.2338  -21.2442   21.0945 H   0  0  0  0  0  0
  1 25  1  0  0  0
  1 30  2  0  0  0
  1 82  1  0  0  0
  2  3  1  0  0  0
  2 25  1  0  0  0
  2 86  1  0  0  0
  2 87  1  0  0  0
  3  4  1  0  0  0
  3 88  1  0  0  0
  3 89  1  0  0  0
  4  5  1  0  0  0
  4 90  1  0  0  0
  4 91  1  0  0  0
  5  6  1  0  0  0
  5 26  1  0  0  0
  5 92  1  0  0  0
  6 25  1  0  0  0
  6 93  1  0  0  0
  6 94  1  0  0  0
  7  8  2  0  0  0
  7 26  1  0  0  0
  7 29  1  0  0  0
  8  9  1  0  0  0
  8 22  1  0  0  0
  9 10  1  0  0  0
  9 27  2  0  0  0
 10 11  2  0  0  0
 10 15  1  0  0  0
 11 12  1  0  0  0
 11 95  1  0  0  0
 12 13  2  0  0  0
 12 96  1  0  0  0
 13 14  1  0  0  0
 13 31  1  0  0  0
 14 15  2  0  0  0
 14 97  1  0  0  0
 15 98  1  0  0  0
 16 17  2  0  0  0
 16 21  1  0  0  0
 16 31  1  0  0  0
 17 18  1  0  0  0
 17 99  1  0  0  0
 18 19  2  0  0  0
 18100  1  0  0  0
 19 20  1  0  0  0
 19 24  1  0  0  0
 20 21  2  0  0  0
 20101  1  0  0  0
 21 23  1  0  0  0
 22 28  1  0  0  0
 22 32  2  0  0  0
 26 27  1  0  0  0
 28102  1  0  0  0
 28103  1  0  0  0
 29104  1  0  0  0
 29105  1  0  0  0
 33 34  1  0  0  0
 33 66  1  0  0  0
 33 70  2  0  0  0
 34 36  1  0  0  0
 34 59  1  0  0  0
 34106  1  0  0  0
 35 44  2  0  0  0
 35 45  1  0  0  0
 35 68  1  0  0  0
 36 56  1  0  0  0
 36107  1  0  0  0
 37 39  1  0  0  0
 37 47  1  0  0  0
 37 66  1  0  0  0
 37108  1  0  0  0
 38 43  2  0  0  0
 38 46  1  0  0  0
 38 47  1  0  0  0
 39 64  1  0  0  0
 39 67  2  0  0  0
 40 52  1  0  0  0
 40 53  2  0  0  0
 40 58  1  0  0  0
 41109  1  0  0  0
 41110  1  0  0  0
 41111  1  0  0  0
 41 48  1  0  0  0
 42 43  1  0  0  0
 42 66  1  0  0  0
 42112  1  0  0  0
 42113  1  0  0  0
 43 44  1  0  0  0
 44114  1  0  0  0
 45 46  2  0  0  0
 45115  1  0  0  0
 46116  1  0  0  0
 47117  1  0  0  0
 47118  1  0  0  0
 48 56  1  0  0  0
 48 65  1  0  0  0
 48119  1  0  0  0
 49 50  1  0  0  0
 49 53  1  0  0  0
 49 64  1  0  0  0
 49120  1  0  0  0
 50 51  1  0  0  0
 50121  1  0  0  0
 50122  1  0  0  0
 51 52  1  0  0  0
 51123  1  0  0  0
 51124  1  0  0  0
 52125  1  0  0  0
 52126  1  0  0  0
 53 54  1  0  0  0
 54 55  2  0  0  0
 54127  1  0  0  0
 55 57  1  0  0  0
 55128  1  0  0  0
 56 69  2  0  0  0
 57 58  2  0  0  0
 57129  1  0  0  0
 58130  1  0  0  0
 59 60  1  0  0  0
 59 61  1  0  0  0
 59 62  1  0  0  0
 60131  1  0  0  0
 60132  1  0  0  0
 60133  1  0  0  0
 61134  1  0  0  0
 61135  1  0  0  0
 61136  1  0  0  0
 62137  1  0  0  0
 62138  1  0  0  0
 62139  1  0  0  0
 63 65  1  0  0  0
 63140  1  0  0  0
 63141  1  0  0  0
 63142  1  0  0  0
 64143  1  0  0  0
 65144  1  0  0  0
 68 78  1  0  0  0
 71 73  2  0  0  0
 71 79  1  0  0  0
 71145  1  0  0  0
 72 74  1  0  0  0
 72 75  1  0  0  0
 72 79  2  0  0  0
 73 80  1  0  0  0
 73 82  1  0  0  0
 74 80  2  0  0  0
 74 81  1  0  0  0
 75 83  1  0  0  0
 75 84  2  0  0  0
 76 77  1  0  0  0
 76 78  1  0  0  0
 76 85  2  0  0  0
 77 83  1  0  0  0
 77146  1  0  0  0
 77147  1  0  0  0
 78148  1  0  0  0
 78149  1  0  0  0
 81150  1  0  0  0
 81151  1  0  0  0
 82152  1  0  0  0
 83153  1  0  0  0
M  ISO  4   1 100  68 101  78 101  82 100
M  END
> <chiral flag>
0

> <version>
0

> <s_m_source_file>
/data/baiqing/PycharmProjects/Reinvent-master-3.2/result/LINK_invent/BTK/process_docking_weight1_custom_product_contain_oxygen_bond_distance_aromatic_linkinvent_7_9_3/rearranged_h_0167.sdf

> <i_m_source_file_index>
27

> <r_mmod_Potential_Energy-OPLS-2005>
-0.648414492607117

> <r_mmod_Stretch_Energy-OPLS-2005>
42.9887619018555

> <r_mmod_Bend_Energy-OPLS-2005>
106.755104064941

> <r_mmod_Torsional_Energy-OPLS-2005>
248.127136230469

> <r_mmod_Improper_Torsional_Energy-OPLS-2005>
7.47780799865723

> <r_mmod_Van_der_Waal_Energy-OPLS-2005>
157.479278564453

> <r_mmod_Electrostatic_Energy-OPLS-2005>
-290.433776855469

> <r_mmod_Solvation_Energy-OPLS-2005>
-285.307708740234

> <b_mmod_Minimization_Converged-OPLS-2005>
0

> <r_mmod_RMS_Derivative-OPLS-2005>
1.30595910549164

$$$$
27
                    3D
 Structure written by MMmdl.
153161  0  0  1  0            999 V2000
  -30.6775  -14.5289   20.5391 C   0  0  0  0  0  0
  -30.4288  -12.3276   19.4418 C   0  0  0  0  0  0
  -29.5025  -12.4977   18.2181 C   0  0  0  0  0  0
  -28.0236  -12.3513   18.6285 C   0  0  0  0  0  0
  -27.6590  -13.2080   19.8700 C   0  0  2  0  0  0
  -28.7012  -13.0214   20.9972 C   0  0  0  0  0  0
  -25.2581  -13.8160   20.5677 C   0  0  0  0  0  0
  -24.1837  -13.0436   20.9183 C   0  0  0  0  0  0
  -24.6394  -11.6903   20.8740 C   0  0  0  0  0  0
  -23.9057  -10.4291   21.0410 C   0  0  0  0  0  0
  -24.3607   -9.4208   21.9191 C   0  0  0  0  0  0
  -23.6285   -8.2244   22.0763 C   0  0  0  0  0  0
  -22.4270   -8.0278   21.3548 C   0  0  0  0  0  0
  -21.9902   -9.0256   20.4655 C   0  0  0  0  0  0
  -22.7229  -10.2136   20.3065 C   0  0  0  0  0  0
  -21.6852   -6.0736   22.5284 C   0  0  0  0  0  0
  -21.4014   -6.5641   23.8216 C   0  0  0  0  0  0
  -21.3662   -5.6795   24.9180 C   0  0  0  0  0  0
  -21.6043   -4.3057   24.7231 C   0  0  0  0  0  0
  -21.8816   -3.8148   23.4353 C   0  0  0  0  0  0
  -21.9191   -4.6964   22.3408 C   0  0  0  0  0  0
  -22.7859  -13.5238   21.1844 C   0  0  0  0  0  0
  -22.1659   -4.2148   21.0987 F   0  0  0  0  0  0
  -21.5628   -3.4542   25.7744 F   0  0  0  0  0  0
  -30.0306  -13.3310   20.4437 N   0  0  0  0  0  0
  -26.3011  -12.9330   20.3342 N   0  0  0  0  0  0
  -25.9320  -11.6491   20.5766 N   0  0  0  0  0  0
  -22.0493  -12.8244   22.0404 N   0  0  0  0  0  0
  -25.4293  -15.1881   20.4083 N   0  0  0  0  0  0
  -31.8242  -14.6873   20.1070 O   0  0  0  0  0  0
  -21.6637   -6.8875   21.4242 O   0  0  0  0  0  0
  -22.3556  -14.5553   20.6696 O   0  0  0  0  0  0
  -24.6195  -31.8664   23.2101 C   0  0  0  0  0  0
  -25.9083  -32.4806   23.8391 C   0  0  1  0  0  0
  -27.2224  -27.3861   20.0936 C   0  0  0  0  0  0
  -25.5924  -33.8605   24.2323 N   0  0  0  0  0  0
  -23.4079  -30.4936   21.5529 C   0  0  2  0  0  0
  -24.8523  -28.9638   20.1109 C   0  0  0  0  0  0
  -22.7440  -29.4656   22.4983 C   0  0  0  0  0  0
  -18.0278  -28.1383   22.8491 C   0  0  0  0  0  0
  -24.1492  -36.7300   23.2634 C   0  0  0  0  0  0
  -25.9447  -30.8142   21.3750 C   0  0  0  0  0  0
  -26.0180  -29.4485   20.7166 C   0  0  0  0  0  0
  -27.2046  -28.6673   20.7079 C   0  0  0  0  0  0
  -26.0335  -26.9476   19.4575 C   0  0  0  0  0  0
  -24.8580  -27.7144   19.4772 C   0  0  0  0  0  0
  -23.6176  -29.8351   20.1648 C   0  0  0  0  0  0
  -25.4112  -36.3097   24.0335 C   0  0  1  0  0  0
  -20.5873  -28.3674   23.1308 C   0  0  2  0  0  0
  -20.6765  -26.9406   22.5416 C   0  0  0  0  0  0
  -19.5740  -26.6388   21.5215 C   0  0  0  0  0  0
  -18.1923  -26.7926   22.1629 C   0  0  0  0  0  0
  -19.1528  -28.8847   23.2892 C   0  0  0  0  0  0
  -18.9453  -30.1454   23.8902 C   0  0  0  0  0  0
  -17.6453  -30.6583   24.0566 C   0  0  0  0  0  0
  -25.9043  -34.9465   23.5123 C   0  0  0  0  0  0
  -16.5343  -29.9084   23.6328 C   0  0  0  0  0  0
  -16.7267  -28.6505   23.0345 C   0  0  0  0  0  0
  -26.4499  -31.6585   25.0724 C   0  0  0  0  0  0
  -25.3762  -31.3694   26.1470 C   0  0  0  0  0  0
  -27.0331  -30.3018   24.6121 C   0  0  0  0  0  0
  -27.6070  -32.4308   25.7487 C   0  0  0  0  0  0
  -27.5583  -37.1810   24.8470 C   0  0  0  0  0  0
  -21.4166  -29.3034   22.3714 N   0  0  0  0  0  0
  -26.4299  -37.3783   23.9405 N   0  0  0  0  0  0
  -24.6756  -31.0727   22.1031 N   0  0  0  0  0  0
  -23.4203  -28.8190   23.3028 O   0  0  0  0  0  0
  -28.3597  -26.5813   20.1398 O   0  0  0  0  0  0
  -26.5598  -34.8921   22.4680 O   0  0  0  0  0  0
  -23.5377  -32.1450   23.7464 O   0  0  0  0  0  0
  -29.2393  -17.8851   21.1879 C   0  0  0  0  0  0
  -29.8919  -19.0898   20.7865 C   0  0  0  0  0  0
  -30.1345  -16.9012   20.8424 C   0  0  0  0  0  0
  -29.0092  -22.6982   19.8413 C   0  0  0  0  0  0
  -29.2127  -24.1706   20.2958 C   0  0  0  0  0  0
  -27.9663  -21.0865   18.3875 C   0  0  0  0  0  0
  -29.9646  -21.6159   20.4429 C   0  0  0  0  0  0
  -28.1568  -25.1839   19.7756 C   0  0  0  0  0  0
  -31.0805  -18.8545   20.2516 N   0  0  0  0  0  0
  -28.1007  -22.4060   18.9796 N   0  0  0  0  0  0
  -29.3253  -20.3702   20.9351 N   0  0  0  0  0  0
  -29.9284  -15.5572   21.0017 N   0  0  0  0  0  0
  -30.1424  -24.5442   21.0226 O   0  0  0  0  0  0
  -31.2473  -17.4569   20.2804 O   0  0  0  0  0  0
  -31.4743  -12.4275   19.1437 H   0  0  0  0  0  0
  -30.3337  -11.3236   19.8594 H   0  0  0  0  0  0
  -29.7505  -11.7619   17.4517 H   0  0  0  0  0  0
  -29.6644  -13.4768   17.7647 H   0  0  0  0  0  0
  -27.8454  -11.2971   18.8445 H   0  0  0  0  0  0
  -27.3719  -12.6028   17.7910 H   0  0  0  0  0  0
  -27.6921  -14.2492   19.5496 H   0  0  0  0  0  0
  -28.6859  -11.9941   21.3631 H   0  0  0  0  0  0
  -28.4576  -13.6389   21.8629 H   0  0  0  0  0  0
  -25.2752   -9.5688   22.4767 H   0  0  0  0  0  0
  -23.9996   -7.4637   22.7485 H   0  0  0  0  0  0
  -21.0830   -8.8773   19.8967 H   0  0  0  0  0  0
  -22.3684  -10.9674   19.6178 H   0  0  0  0  0  0
  -21.2005   -7.6149   23.9720 H   0  0  0  0  0  0
  -21.1487   -6.0528   25.9083 H   0  0  0  0  0  0
  -22.0591   -2.7608   23.2857 H   0  0  0  0  0  0
  -22.4090  -11.9896   22.4790 H   0  0  0  0  0  0
  -21.1123  -13.1304   22.2621 H   0  0  0  0  0  0
  -24.6562  -15.8370   20.5087 H   0  0  0  0  0  0
  -26.2712  -15.6288   20.0600 H   0  0  0  0  0  0
  -26.7147  -32.5508   23.1138 H   0  0  0  0  0  0
  -25.0088  -33.9760   25.0479 H   0  0  0  0  0  0
  -22.6978  -31.3119   21.4171 H   0  0  0  0  0  0
  -23.3750  -35.9638   23.3310 H   0  0  0  0  0  0
  -24.3581  -36.8900   22.2044 H   0  0  0  0  0  0
  -23.7257  -37.6511   23.6644 H   0  0  0  0  0  0
  -26.0692  -31.5803   20.6083 H   0  0  0  0  0  0
  -26.8285  -30.8605   21.9994 H   0  0  0  0  0  0
  -28.0990  -29.0312   21.1943 H   0  0  0  0  0  0
  -25.9729  -26.0054   18.9331 H   0  0  0  0  0  0
  -23.9661  -27.3410   18.9926 H   0  0  0  0  0  0
  -23.7299  -30.6148   19.4108 H   0  0  0  0  0  0
  -22.7394  -29.2609   19.8640 H   0  0  0  0  0  0
  -25.1291  -36.1953   25.0829 H   0  0  0  0  0  0
  -20.9960  -28.3241   24.1431 H   0  0  0  0  0  0
  -20.5677  -26.2278   23.3603 H   0  0  0  0  0  0
  -21.6634  -26.7450   22.1201 H   0  0  0  0  0  0
  -19.6896  -25.6305   21.1227 H   0  0  0  0  0  0
  -19.6670  -27.3218   20.6759 H   0  0  0  0  0  0
  -17.4190  -26.6681   21.4032 H   0  0  0  0  0  0
  -18.0322  -26.0067   22.9024 H   0  0  0  0  0  0
  -19.7928  -30.7270   24.2274 H   0  0  0  0  0  0
  -17.5005  -31.6263   24.5167 H   0  0  0  0  0  0
  -15.5346  -30.2982   23.7649 H   0  0  0  0  0  0
  -15.8669  -28.0826   22.7047 H   0  0  0  0  0  0
  -24.5941  -30.7029   25.7817 H   0  0  0  0  0  0
  -24.8945  -32.2844   26.4927 H   0  0  0  0  0  0
  -25.8119  -30.8865   27.0225 H   0  0  0  0  0  0
  -26.2883  -29.6771   24.1175 H   0  0  0  0  0  0
  -27.4090  -29.7260   25.4589 H   0  0  0  0  0  0
  -27.8731  -30.4315   23.9290 H   0  0  0  0  0  0
  -27.2690  -33.3599   26.2084 H   0  0  0  0  0  0
  -28.3869  -32.6881   25.0308 H   0  0  0  0  0  0
  -28.0748  -31.8415   26.5382 H   0  0  0  0  0  0
  -28.2615  -38.0092   24.7493 H   0  0  0  0  0  0
  -28.1065  -36.2623   24.6328 H   0  0  0  0  0  0
  -27.2293  -37.1497   25.8872 H   0  0  0  0  0  0
  -20.9341  -29.8757   21.6928 H   0  0  0  0  0  0
  -26.0183  -38.2862   24.1394 H   0  0  0  0  0  0
  -28.2672  -17.7633   21.6418 H   0  0  0  0  0  0
  -27.4536  -21.1599   17.4276 H   0  0  0  0  0  0
  -27.3677  -20.4252   19.0159 H   0  0  0  0  0  0
  -28.9270  -20.6076   18.1880 H   0  0  0  0  0  0
  -30.5172  -22.0494   21.2771 H   0  0  0  0  0  0
  -30.7148  -21.3803   19.6874 H   0  0  0  0  0  0
  -28.0981  -25.1064   18.6893 H   0  0  0  0  0  0
  -27.2099  -24.8301   20.1845 H   0  0  0  0  0  0
  -28.4092  -20.4517   21.3599 H   0  0  0  0  0  0
  -29.0311  -15.2925   21.3727 H   0  0  0  0  0  0
  1 25  1  0  0  0
  1 30  2  0  0  0
  1 82  1  0  0  0
  2  3  1  0  0  0
  2 25  1  0  0  0
  2 85  1  0  0  0
  2 86  1  0  0  0
  3  4  1  0  0  0
  3 87  1  0  0  0
  3 88  1  0  0  0
  4  5  1  0  0  0
  4 89  1  0  0  0
  4 90  1  0  0  0
  5  6  1  0  0  0
  5 26  1  0  0  0
  5 91  1  0  0  0
  6 25  1  0  0  0
  6 92  1  0  0  0
  6 93  1  0  0  0
  7  8  2  0  0  0
  7 26  1  0  0  0
  7 29  1  0  0  0
  8  9  1  0  0  0
  8 22  1  0  0  0
  9 10  1  0  0  0
  9 27  2  0  0  0
 10 11  2  0  0  0
 10 15  1  0  0  0
 11 12  1  0  0  0
 11 94  1  0  0  0
 12 13  2  0  0  0
 12 95  1  0  0  0
 13 14  1  0  0  0
 13 31  1  0  0  0
 14 15  2  0  0  0
 14 96  1  0  0  0
 15 97  1  0  0  0
 16 17  2  0  0  0
 16 21  1  0  0  0
 16 31  1  0  0  0
 17 18  1  0  0  0
 17 98  1  0  0  0
 18 19  2  0  0  0
 18 99  1  0  0  0
 19 20  1  0  0  0
 19 24  1  0  0  0
 20 21  2  0  0  0
 20100  1  0  0  0
 21 23  1  0  0  0
 22 28  1  0  0  0
 22 32  2  0  0  0
 26 27  1  0  0  0
 28101  1  0  0  0
 28102  1  0  0  0
 29103  1  0  0  0
 29104  1  0  0  0
 33 34  1  0  0  0
 33 66  1  0  0  0
 33 70  2  0  0  0
 34 36  1  0  0  0
 34 59  1  0  0  0
 34105  1  0  0  0
 35 44  2  0  0  0
 35 45  1  0  0  0
 35 68  1  0  0  0
 36 56  1  0  0  0
 36106  1  0  0  0
 37 39  1  0  0  0
 37 47  1  0  0  0
 37 66  1  0  0  0
 37107  1  0  0  0
 38 43  2  0  0  0
 38 46  1  0  0  0
 38 47  1  0  0  0
 39 64  1  0  0  0
 39 67  2  0  0  0
 40 52  1  0  0  0
 40 53  2  0  0  0
 40 58  1  0  0  0
 41108  1  0  0  0
 41109  1  0  0  0
 41110  1  0  0  0
 41 48  1  0  0  0
 42 43  1  0  0  0
 42 66  1  0  0  0
 42111  1  0  0  0
 42112  1  0  0  0
 43 44  1  0  0  0
 44113  1  0  0  0
 45 46  2  0  0  0
 45114  1  0  0  0
 46115  1  0  0  0
 47116  1  0  0  0
 47117  1  0  0  0
 48 56  1  0  0  0
 48 65  1  0  0  0
 48118  1  0  0  0
 49 50  1  0  0  0
 49 53  1  0  0  0
 49 64  1  0  0  0
 49119  1  0  0  0
 50 51  1  0  0  0
 50120  1  0  0  0
 50121  1  0  0  0
 51 52  1  0  0  0
 51122  1  0  0  0
 51123  1  0  0  0
 52124  1  0  0  0
 52125  1  0  0  0
 53 54  1  0  0  0
 54 55  2  0  0  0
 54126  1  0  0  0
 55 57  1  0  0  0
 55127  1  0  0  0
 56 69  2  0  0  0
 57 58  2  0  0  0
 57128  1  0  0  0
 58129  1  0  0  0
 59 60  1  0  0  0
 59 61  1  0  0  0
 59 62  1  0  0  0
 60130  1  0  0  0
 60131  1  0  0  0
 60132  1  0  0  0
 61133  1  0  0  0
 61134  1  0  0  0
 61135  1  0  0  0
 62136  1  0  0  0
 62137  1  0  0  0
 62138  1  0  0  0
 63 65  1  0  0  0
 63139  1  0  0  0
 63140  1  0  0  0
 63141  1  0  0  0
 64142  1  0  0  0
 65143  1  0  0  0
 68 78  1  0  0  0
 71 72  1  0  0  0
 71 73  2  0  0  0
 71144  1  0  0  0
 72 79  2  0  0  0
 72 81  1  0  0  0
 73 82  1  0  0  0
 73 84  1  0  0  0
 74 75  1  0  0  0
 74 77  1  0  0  0
 74 80  2  0  0  0
 75 78  1  0  0  0
 75 83  2  0  0  0
 76 80  1  0  0  0
 76145  1  0  0  0
 76146  1  0  0  0
 76147  1  0  0  0
 77 81  1  0  0  0
 77148  1  0  0  0
 77149  1  0  0  0
 78150  1  0  0  0
 78151  1  0  0  0
 79 84  1  0  0  0
 81152  1  0  0  0
 82153  1  0  0  0
M  ISO  4   1 100  68 101  78 101  82 100
M  END
> <chiral flag>
0

> <version>
0

> <s_m_source_file>
/data/baiqing/PycharmProjects/Reinvent-master-3.2/result/LINK_invent/BTK/process_docking_weight1_custom_product_contain_oxygen_bond_distance_aromatic_linkinvent_7_9_3/rearranged_h_0167.sdf

> <i_m_source_file_index>
28

> <r_mmod_Potential_Energy-OPLS-2005>
-100.826995849609

> <r_mmod_Stretch_Energy-OPLS-2005>
51.654411315918

> <r_mmod_Bend_Energy-OPLS-2005>
133.048980712891

> <r_mmod_Torsional_Energy-OPLS-2005>
184.66032409668

> <r_mmod_Improper_Torsional_Energy-OPLS-2005>
3.83463263511658

> <r_mmod_Van_der_Waal_Energy-OPLS-2005>
147.538101196289

> <r_mmod_Electrostatic_Energy-OPLS-2005>
-377.684661865234

> <r_mmod_Solvation_Energy-OPLS-2005>
-267.371459960938

> <b_mmod_Minimization_Converged-OPLS-2005>
0

> <r_mmod_RMS_Derivative-OPLS-2005>
1.04144752025604

$$$$
28
                    3D
 Structure written by MMmdl.
155163  0  0  1  0            999 V2000
  -30.6842  -14.4800   20.5039 C   0  0  0  0  0  0
  -30.4235  -12.2884   19.4352 C   0  0  0  0  0  0
  -29.5014  -12.4900   18.2136 C   0  0  0  0  0  0
  -28.0197  -12.3592   18.6215 C   0  0  0  0  0  0
  -27.6629  -13.2033   19.8739 C   0  0  2  0  0  0
  -28.7059  -13.0018   21.0001 C   0  0  0  0  0  0
  -25.2614  -13.8156   20.5682 C   0  0  0  0  0  0
  -24.1857  -13.0438   20.9176 C   0  0  0  0  0  0
  -24.6407  -11.6902   20.8737 C   0  0  0  0  0  0
  -23.9067  -10.4292   21.0409 C   0  0  0  0  0  0
  -24.3617   -9.4204   21.9184 C   0  0  0  0  0  0
  -23.6290   -8.2247   22.0761 C   0  0  0  0  0  0
  -22.4276   -8.0284   21.3551 C   0  0  0  0  0  0
  -21.9910   -9.0256   20.4650 C   0  0  0  0  0  0
  -22.7240  -10.2135   20.3054 C   0  0  0  0  0  0
  -21.6856   -6.0733   22.5277 C   0  0  0  0  0  0
  -21.4014   -6.5634   23.8206 C   0  0  0  0  0  0
  -21.3665   -5.6788   24.9169 C   0  0  0  0  0  0
  -21.6046   -4.3051   24.7219 C   0  0  0  0  0  0
  -21.8818   -3.8145   23.4339 C   0  0  0  0  0  0
  -21.9194   -4.6962   22.3397 C   0  0  0  0  0  0
  -22.7881  -13.5241   21.1835 C   0  0  0  0  0  0
  -22.1666   -4.2148   21.0975 F   0  0  0  0  0  0
  -21.5633   -3.4533   25.7735 F   0  0  0  0  0  0
  -30.0384  -13.2861   20.4453 N   0  0  0  0  0  0
  -26.3038  -12.9313   20.3364 N   0  0  0  0  0  0
  -25.9331  -11.6475   20.5776 N   0  0  0  0  0  0
  -22.0517  -12.8241   22.0393 N   0  0  0  0  0  0
  -25.4360  -15.1874   20.4091 N   0  0  0  0  0  0
  -31.8440  -14.6363   20.1125 O   0  0  0  0  0  0
  -21.6640   -6.8883   21.4243 O   0  0  0  0  0  0
  -22.3569  -14.5547   20.6676 O   0  0  0  0  0  0
  -24.6140  -31.8686   23.2111 C   0  0  0  0  0  0
  -25.9038  -32.4822   23.8399 C   0  0  1  0  0  0
  -27.2305  -27.4279   20.0973 C   0  0  0  0  0  0
  -25.5897  -33.8620   24.2333 N   0  0  0  0  0  0
  -23.4015  -30.4929   21.5516 C   0  0  2  0  0  0
  -24.8464  -28.9616   20.1138 C   0  0  0  0  0  0
  -22.7406  -29.4654   22.4986 C   0  0  0  0  0  0
  -18.0275  -28.1367   22.8490 C   0  0  0  0  0  0
  -24.1484  -36.7311   23.2639 C   0  0  0  0  0  0
  -25.9313  -30.8310   21.3670 C   0  0  0  0  0  0
  -26.0060  -29.4660   20.7135 C   0  0  0  0  0  0
  -27.1980  -28.7052   20.7049 C   0  0  0  0  0  0
  -26.0528  -26.9505   19.4725 C   0  0  0  0  0  0
  -24.8653  -27.7031   19.4915 C   0  0  0  0  0  0
  -23.6094  -29.8283   20.1652 C   0  0  0  0  0  0
  -25.4105  -36.3110   24.0339 C   0  0  1  0  0  0
  -20.5863  -28.3649   23.1319 C   0  0  2  0  0  0
  -20.6759  -26.9385   22.5416 C   0  0  0  0  0  0
  -19.5740  -26.6375   21.5208 C   0  0  0  0  0  0
  -18.1920  -26.7914   22.1622 C   0  0  0  0  0  0
  -19.1523  -28.8827   23.2900 C   0  0  0  0  0  0
  -18.9451  -30.1437   23.8905 C   0  0  0  0  0  0
  -17.6454  -30.6578   24.0561 C   0  0  0  0  0  0
  -25.9034  -34.9474   23.5133 C   0  0  0  0  0  0
  -16.5346  -29.9080   23.6325 C   0  0  0  0  0  0
  -16.7264  -28.6496   23.0346 C   0  0  0  0  0  0
  -26.4465  -31.6597   25.0725 C   0  0  0  0  0  0
  -25.3738  -31.3710   26.1482 C   0  0  0  0  0  0
  -27.0296  -30.3040   24.6098 C   0  0  0  0  0  0
  -27.6043  -32.4309   25.7488 C   0  0  0  0  0  0
  -27.5578  -37.1811   24.8466 C   0  0  0  0  0  0
  -21.4132  -29.3025   22.3731 N   0  0  0  0  0  0
  -26.4292  -37.3792   23.9409 N   0  0  0  0  0  0
  -24.6670  -31.0787   22.1013 N   0  0  0  0  0  0
  -23.4184  -28.8191   23.3019 O   0  0  0  0  0  0
  -28.4058  -26.7007   20.1353 O   0  0  0  0  0  0
  -26.5593  -34.8925   22.4695 O   0  0  0  0  0  0
  -23.5334  -32.1436   23.7508 O   0  0  0  0  0  0
  -30.8339  -19.1182   20.5516 C   0  0  0  0  0  0
  -29.3143  -20.1088   22.0296 C   0  0  0  0  0  0
  -30.4641  -20.2748   21.3026 C   0  0  0  0  0  0
  -29.9452  -18.0776   20.6801 C   0  0  0  0  0  0
  -30.9871  -22.5829   20.9993 C   0  0  0  0  0  0
  -29.2106  -24.4956   20.8816 C   0  0  0  0  0  0
  -32.0916  -23.6282   21.0260 C   0  0  0  0  0  0
  -29.9818  -16.7774   19.9215 C   0  0  0  0  0  0
  -29.6199  -23.0607   20.4713 C   0  0  0  0  0  0
  -28.3472  -25.2828   19.8825 C   0  0  0  0  0  0
  -31.3048  -21.3918   21.3532 N   0  0  0  0  0  0
  -29.8794  -15.5388   20.7112 N   0  0  0  0  0  0
  -29.4923  -24.9716   21.9886 O   0  0  0  0  0  0
  -28.6349  -18.5180   21.7560 S   0  0  0  0  0  0
  -31.4704  -12.3737   19.1379 H   0  0  0  0  0  0
  -30.3117  -11.2807   19.8394 H   0  0  0  0  0  0
  -29.7397  -11.7608   17.4378 H   0  0  0  0  0  0
  -29.6793  -13.4726   17.7737 H   0  0  0  0  0  0
  -27.8253  -11.3048   18.8194 H   0  0  0  0  0  0
  -27.3735  -12.6338   17.7866 H   0  0  0  0  0  0
  -27.6988  -14.2465   19.5616 H   0  0  0  0  0  0
  -28.6754  -11.9762   21.3692 H   0  0  0  0  0  0
  -28.4825  -13.6337   21.8621 H   0  0  0  0  0  0
  -25.2766   -9.5678   22.4749 H   0  0  0  0  0  0
  -24.0000   -7.4637   22.7474 H   0  0  0  0  0  0
  -21.0850   -8.8770   19.8945 H   0  0  0  0  0  0
  -22.3708  -10.9671   19.6153 H   0  0  0  0  0  0
  -21.2004   -7.6141   23.9711 H   0  0  0  0  0  0
  -21.1493   -6.0516   25.9073 H   0  0  0  0  0  0
  -22.0597   -2.7609   23.2834 H   0  0  0  0  0  0
  -22.4137  -11.9902   22.4786 H   0  0  0  0  0  0
  -21.1143  -13.1282   22.2597 H   0  0  0  0  0  0
  -24.6719  -15.8448   20.5185 H   0  0  0  0  0  0
  -26.2859  -15.6250   20.0768 H   0  0  0  0  0  0
  -26.7109  -32.5530   23.1162 H   0  0  0  0  0  0
  -25.0057  -33.9786   25.0483 H   0  0  0  0  0  0
  -22.6899  -31.3092   21.4137 H   0  0  0  0  0  0
  -23.3741  -35.9650   23.3316 H   0  0  0  0  0  0
  -24.3574  -36.8910   22.2050 H   0  0  0  0  0  0
  -23.7242  -37.6523   23.6643 H   0  0  0  0  0  0
  -26.0481  -31.5975   20.5994 H   0  0  0  0  0  0
  -26.8180  -30.8818   21.9867 H   0  0  0  0  0  0
  -28.0911  -29.0891   21.1783 H   0  0  0  0  0  0
  -26.0253  -26.0048   18.9522 H   0  0  0  0  0  0
  -23.9755  -27.3135   19.0161 H   0  0  0  0  0  0
  -23.7183  -30.6038   19.4065 H   0  0  0  0  0  0
  -22.7336  -29.2483   19.8689 H   0  0  0  0  0  0
  -25.1282  -36.1976   25.0831 H   0  0  0  0  0  0
  -20.9954  -28.3209   24.1437 H   0  0  0  0  0  0
  -20.5651  -26.2254   23.3597 H   0  0  0  0  0  0
  -21.6631  -26.7421   22.1213 H   0  0  0  0  0  0
  -19.6899  -25.6287   21.1232 H   0  0  0  0  0  0
  -19.6688  -27.3191   20.6741 H   0  0  0  0  0  0
  -17.4187  -26.6659   21.4027 H   0  0  0  0  0  0
  -18.0329  -26.0056   22.9018 H   0  0  0  0  0  0
  -19.7929  -30.7250   24.2271 H   0  0  0  0  0  0
  -17.5013  -31.6260   24.5155 H   0  0  0  0  0  0
  -15.5349  -30.2985   23.7644 H   0  0  0  0  0  0
  -15.8660  -28.0823   22.7051 H   0  0  0  0  0  0
  -24.5897  -30.7068   25.7829 H   0  0  0  0  0  0
  -24.8945  -32.2872   26.4944 H   0  0  0  0  0  0
  -25.8096  -30.8871   27.0233 H   0  0  0  0  0  0
  -26.2850  -29.6814   24.1125 H   0  0  0  0  0  0
  -27.4044  -29.7257   25.4552 H   0  0  0  0  0  0
  -27.8692  -30.4363   23.9269 H   0  0  0  0  0  0
  -27.2661  -33.3592   26.2105 H   0  0  0  0  0  0
  -28.3837  -32.6897   25.0310 H   0  0  0  0  0  0
  -28.0728  -31.8411   26.5376 H   0  0  0  0  0  0
  -28.2603  -38.0100   24.7503 H   0  0  0  0  0  0
  -28.1066  -36.2632   24.6304 H   0  0  0  0  0  0
  -27.2296  -37.1477   25.8869 H   0  0  0  0  0  0
  -20.9281  -29.8766   21.6974 H   0  0  0  0  0  0
  -26.0182  -38.2871   24.1405 H   0  0  0  0  0  0
  -31.7242  -19.0906   19.9376 H   0  0  0  0  0  0
  -28.8281  -20.7938   22.7155 H   0  0  0  0  0  0
  -32.0913  -24.1597   21.9781 H   0  0  0  0  0  0
  -31.9707  -24.3510   20.2188 H   0  0  0  0  0  0
  -33.0678  -23.1586   20.9007 H   0  0  0  0  0  0
  -30.8671  -16.7678   19.2822 H   0  0  0  0  0  0
  -29.1435  -16.7669   19.2229 H   0  0  0  0  0  0
  -28.8320  -22.3851   20.7974 H   0  0  0  0  0  0
  -29.6404  -23.0071   19.3835 H   0  0  0  0  0  0
  -27.3450  -24.8766   20.0001 H   0  0  0  0  0  0
  -28.6716  -25.0783   18.8625 H   0  0  0  0  0  0
  -28.9622  -15.3194   21.0671 H   0  0  0  0  0  0
  1 25  1  0  0  0
  1 30  2  0  0  0
  1 82  1  0  0  0
  2  3  1  0  0  0
  2 25  1  0  0  0
  2 85  1  0  0  0
  2 86  1  0  0  0
  3  4  1  0  0  0
  3 87  1  0  0  0
  3 88  1  0  0  0
  4  5  1  0  0  0
  4 89  1  0  0  0
  4 90  1  0  0  0
  5  6  1  0  0  0
  5 26  1  0  0  0
  5 91  1  0  0  0
  6 25  1  0  0  0
  6 92  1  0  0  0
  6 93  1  0  0  0
  7  8  2  0  0  0
  7 26  1  0  0  0
  7 29  1  0  0  0
  8  9  1  0  0  0
  8 22  1  0  0  0
  9 10  1  0  0  0
  9 27  2  0  0  0
 10 11  2  0  0  0
 10 15  1  0  0  0
 11 12  1  0  0  0
 11 94  1  0  0  0
 12 13  2  0  0  0
 12 95  1  0  0  0
 13 14  1  0  0  0
 13 31  1  0  0  0
 14 15  2  0  0  0
 14 96  1  0  0  0
 15 97  1  0  0  0
 16 17  2  0  0  0
 16 21  1  0  0  0
 16 31  1  0  0  0
 17 18  1  0  0  0
 17 98  1  0  0  0
 18 19  2  0  0  0
 18 99  1  0  0  0
 19 20  1  0  0  0
 19 24  1  0  0  0
 20 21  2  0  0  0
 20100  1  0  0  0
 21 23  1  0  0  0
 22 28  1  0  0  0
 22 32  2  0  0  0
 26 27  1  0  0  0
 28101  1  0  0  0
 28102  1  0  0  0
 29103  1  0  0  0
 29104  1  0  0  0
 33 34  1  0  0  0
 33 66  1  0  0  0
 33 70  2  0  0  0
 34 36  1  0  0  0
 34 59  1  0  0  0
 34105  1  0  0  0
 35 44  2  0  0  0
 35 45  1  0  0  0
 35 68  1  0  0  0
 36 56  1  0  0  0
 36106  1  0  0  0
 37 39  1  0  0  0
 37 47  1  0  0  0
 37 66  1  0  0  0
 37107  1  0  0  0
 38 43  2  0  0  0
 38 46  1  0  0  0
 38 47  1  0  0  0
 39 64  1  0  0  0
 39 67  2  0  0  0
 40 52  1  0  0  0
 40 53  2  0  0  0
 40 58  1  0  0  0
 41108  1  0  0  0
 41109  1  0  0  0
 41110  1  0  0  0
 41 48  1  0  0  0
 42 43  1  0  0  0
 42 66  1  0  0  0
 42111  1  0  0  0
 42112  1  0  0  0
 43 44  1  0  0  0
 44113  1  0  0  0
 45 46  2  0  0  0
 45114  1  0  0  0
 46115  1  0  0  0
 47116  1  0  0  0
 47117  1  0  0  0
 48 56  1  0  0  0
 48 65  1  0  0  0
 48118  1  0  0  0
 49 50  1  0  0  0
 49 53  1  0  0  0
 49 64  1  0  0  0
 49119  1  0  0  0
 50 51  1  0  0  0
 50120  1  0  0  0
 50121  1  0  0  0
 51 52  1  0  0  0
 51122  1  0  0  0
 51123  1  0  0  0
 52124  1  0  0  0
 52125  1  0  0  0
 53 54  1  0  0  0
 54 55  2  0  0  0
 54126  1  0  0  0
 55 57  1  0  0  0
 55127  1  0  0  0
 56 69  2  0  0  0
 57 58  2  0  0  0
 57128  1  0  0  0
 58129  1  0  0  0
 59 60  1  0  0  0
 59 61  1  0  0  0
 59 62  1  0  0  0
 60130  1  0  0  0
 60131  1  0  0  0
 60132  1  0  0  0
 61133  1  0  0  0
 61134  1  0  0  0
 61135  1  0  0  0
 62136  1  0  0  0
 62137  1  0  0  0
 62138  1  0  0  0
 63 65  1  0  0  0
 63139  1  0  0  0
 63140  1  0  0  0
 63141  1  0  0  0
 64142  1  0  0  0
 65143  1  0  0  0
 68 80  1  0  0  0
 71 73  1  0  0  0
 71 74  2  0  0  0
 71144  1  0  0  0
 72 73  2  0  0  0
 72 84  1  0  0  0
 72145  1  0  0  0
 73 81  1  0  0  0
 74 78  1  0  0  0
 74 84  1  0  0  0
 75 77  1  0  0  0
 75 79  1  0  0  0
 75 81  2  0  0  0
 76 79  1  0  0  0
 76 80  1  0  0  0
 76 83  2  0  0  0
 77146  1  0  0  0
 77147  1  0  0  0
 77148  1  0  0  0
 78 82  1  0  0  0
 78149  1  0  0  0
 78150  1  0  0  0
 79151  1  0  0  0
 79152  1  0  0  0
 80153  1  0  0  0
 80154  1  0  0  0
 82155  1  0  0  0
M  ISO  4   1 100  68 101  80 101  82 100
M  END
> <chiral flag>
0

> <version>
0

> <s_m_source_file>
/data/baiqing/PycharmProjects/Reinvent-master-3.2/result/LINK_invent/BTK/process_docking_weight1_custom_product_contain_oxygen_bond_distance_aromatic_linkinvent_7_9_3/rearranged_h_0167.sdf

> <i_m_source_file_index>
29

> <r_mmod_Potential_Energy-OPLS-2005>
-112.968017578125

> <r_mmod_Stretch_Energy-OPLS-2005>
36.6122093200684

> <r_mmod_Bend_Energy-OPLS-2005>
116.792922973633

> <r_mmod_Torsional_Energy-OPLS-2005>
234.692153930664

> <r_mmod_Improper_Torsional_Energy-OPLS-2005>
11.6070337295532

> <r_mmod_Van_der_Waal_Energy-OPLS-2005>
138.205261230469

> <r_mmod_Electrostatic_Energy-OPLS-2005>
-424.729309082031

> <r_mmod_Solvation_Energy-OPLS-2005>
-242.366287231445

> <b_mmod_Minimization_Converged-OPLS-2005>
0

> <r_mmod_RMS_Derivative-OPLS-2005>
1.11198079586029

$$$$
29
                    3D
 Structure written by MMmdl.
163172  0  0  1  0            999 V2000
  -30.6851  -14.6281   20.5019 C   0  0  0  0  0  0
  -30.4238  -12.3905   19.4824 C   0  0  0  0  0  0
  -29.5242  -12.4932   18.2330 C   0  0  0  0  0  0
  -28.0449  -12.3187   18.6459 C   0  0  0  0  0  0
  -27.6431  -13.2281   19.8430 C   0  0  2  0  0  0
  -28.6714  -13.1504   20.9906 C   0  0  0  0  0  0
  -25.2427  -13.8192   20.5658 C   0  0  0  0  0  0
  -24.1737  -13.0456   20.9171 C   0  0  0  0  0  0
  -24.6338  -11.6941   20.8722 C   0  0  0  0  0  0
  -23.9032  -10.4298   21.0402 C   0  0  0  0  0  0
  -24.3574   -9.4211   21.9177 C   0  0  0  0  0  0
  -23.6240   -8.2254   22.0798 C   0  0  0  0  0  0
  -22.4200   -8.0298   21.3604 C   0  0  0  0  0  0
  -21.9802   -9.0270   20.4715 C   0  0  0  0  0  0
  -22.7179  -10.2121   20.3093 C   0  0  0  0  0  0
  -21.6824   -6.0711   22.5278 C   0  0  0  0  0  0
  -21.4029   -6.5611   23.8200 C   0  0  0  0  0  0
  -21.3672   -5.6774   24.9183 C   0  0  0  0  0  0
  -21.6013   -4.3037   24.7217 C   0  0  0  0  0  0
  -21.8797   -3.8131   23.4362 C   0  0  0  0  0  0
  -21.9190   -4.6950   22.3403 C   0  0  0  0  0  0
  -22.7718  -13.5285   21.1837 C   0  0  0  0  0  0
  -22.1643   -4.2155   21.0980 F   0  0  0  0  0  0
  -21.5623   -3.4524   25.7748 F   0  0  0  0  0  0
  -29.9973  -13.4436   20.4269 N   0  0  0  0  0  0
  -26.2878  -12.9416   20.3189 N   0  0  0  0  0  0
  -25.9228  -11.6560   20.5598 N   0  0  0  0  0  0
  -22.0348  -12.8290   22.0453 N   0  0  0  0  0  0
  -25.4120  -15.1916   20.4057 N   0  0  0  0  0  0
  -31.8459  -14.6652   20.0984 O   0  0  0  0  0  0
  -21.6621   -6.8866   21.4244 O   0  0  0  0  0  0
  -22.3412  -14.5576   20.6692 O   0  0  0  0  0  0
  -24.6137  -31.8634   23.2177 C   0  0  0  0  0  0
  -25.8979  -32.4840   23.8460 C   0  0  1  0  0  0
  -27.1617  -27.3224   20.0881 C   0  0  0  0  0  0
  -25.5836  -33.8648   24.2373 N   0  0  0  0  0  0
  -23.4029  -30.4965   21.5646 C   0  0  2  0  0  0
  -24.8332  -28.9643   20.1091 C   0  0  0  0  0  0
  -22.7371  -29.4594   22.5021 C   0  0  0  0  0  0
  -18.0249  -28.1281   22.8494 C   0  0  0  0  0  0
  -24.1451  -36.7257   23.2647 C   0  0  0  0  0  0
  -25.9485  -30.7890   21.3930 C   0  0  0  0  0  0
  -26.0085  -29.4255   20.7169 C   0  0  0  0  0  0
  -27.1751  -28.6081   20.7046 C   0  0  0  0  0  0
  -25.9485  -26.8918   19.5050 C   0  0  0  0  0  0
  -24.8029  -27.7036   19.5049 C   0  0  0  0  0  0
  -23.6093  -29.8537   20.1708 C   0  0  0  0  0  0
  -25.4071  -36.3105   24.0349 C   0  0  1  0  0  0
  -20.5838  -28.3485   23.1315 C   0  0  2  0  0  0
  -20.6662  -26.9233   22.5366 C   0  0  0  0  0  0
  -19.5670  -26.6304   21.5113 C   0  0  0  0  0  0
  -18.1876  -26.7844   22.1602 C   0  0  0  0  0  0
  -19.1506  -28.8698   23.2933 C   0  0  0  0  0  0
  -18.9458  -30.1315   23.8906 C   0  0  0  0  0  0
  -17.6459  -30.6514   24.0528 C   0  0  0  0  0  0
  -25.8983  -34.9474   23.5152 C   0  0  0  0  0  0
  -16.5344  -29.8999   23.6335 C   0  0  0  0  0  0
  -16.7229  -28.6426   23.0351 C   0  0  0  0  0  0
  -26.4360  -31.6692   25.0836 C   0  0  0  0  0  0
  -25.3635  -31.3826   26.1623 C   0  0  0  0  0  0
  -27.0172  -30.3142   24.6263 C   0  0  0  0  0  0
  -27.5994  -32.4381   25.7509 C   0  0  0  0  0  0
  -27.5579  -37.1766   24.8452 C   0  0  0  0  0  0
  -21.4089  -29.2929   22.3771 N   0  0  0  0  0  0
  -26.4255  -37.3803   23.9434 N   0  0  0  0  0  0
  -24.6754  -31.0657   22.1154 N   0  0  0  0  0  0
  -23.4165  -28.8040   23.2970 O   0  0  0  0  0  0
  -28.2757  -26.4832   20.1130 O   0  0  0  0  0  0
  -26.5615  -34.8908   22.4752 O   0  0  0  0  0  0
  -23.5287  -32.1425   23.7517 O   0  0  0  0  0  0
  -31.3374  -19.7949   20.4067 C   0  0  0  0  0  0
  -31.8016  -17.4750   20.8314 C   0  0  0  0  0  0
  -32.2656  -18.7842   20.6271 C   0  0  0  0  0  0
  -29.9630  -19.5017   20.4237 C   0  0  0  0  0  0
  -30.4180  -17.1630   20.7506 C   0  0  0  0  0  0
  -28.2609  -23.8465   19.6988 C   0  0  0  0  0  0
  -29.6275  -23.1938   19.9460 C   0  0  0  0  0  0
  -29.0816  -20.7273   20.0292 C   0  0  1  0  0  0
  -27.5276  -20.7223   19.9761 C   0  0  2  0  0  0
  -33.7386  -19.1228   20.5894 C   0  0  0  0  0  0
  -26.9174  -19.4733   19.2620 C   0  0  0  0  0  0
  -28.3450  -25.3389   19.1899 C   0  0  0  0  0  0
  -29.5202  -18.2054   20.5888 N   0  0  0  0  0  0
  -27.1545  -23.1740   19.7556 N   0  0  0  0  0  0
  -29.9978  -15.7662   20.8528 N   0  0  0  0  0  0
  -29.5338  -21.9452   20.7601 N   0  3  0  0  0  0
  -27.1736  -21.8609   19.1385 O   0  0  0  0  0  0
  -31.4768  -12.4698   19.1975 H   0  0  0  0  0  0
  -30.3266  -11.4117   19.9609 H   0  0  0  0  0  0
  -29.8001  -11.7243   17.5041 H   0  0  0  0  0  0
  -29.6697  -13.4522   17.7314 H   0  0  0  0  0  0
  -27.8949  -11.2715   18.9064 H   0  0  0  0  0  0
  -27.3963  -12.5075   17.7970 H   0  0  0  0  0  0
  -27.6461  -14.2488   19.4555 H   0  0  0  0  0  0
  -28.6700  -12.1591   21.4510 H   0  0  0  0  0  0
  -28.4069  -13.8554   21.7852 H   0  0  0  0  0  0
  -25.2764   -9.5662   22.4679 H   0  0  0  0  0  0
  -24.0013   -7.4596   22.7408 H   0  0  0  0  0  0
  -21.0786   -8.8722   19.8961 H   0  0  0  0  0  0
  -22.3694  -10.9582   19.6135 H   0  0  0  0  0  0
  -21.2062   -7.6117   23.9711 H   0  0  0  0  0  0
  -21.1492   -6.0514   25.9062 H   0  0  0  0  0  0
  -22.0588   -2.7604   23.2827 H   0  0  0  0  0  0
  -22.3964  -12.0091   22.5060 H   0  0  0  0  0  0
  -21.0933  -13.1305   22.2569 H   0  0  0  0  0  0
  -24.6288  -15.8287   20.4832 H   0  0  0  0  0  0
  -26.2547  -15.6399   20.0640 H   0  0  0  0  0  0
  -26.7030  -32.5426   23.1167 H   0  0  0  0  0  0
  -24.9941  -33.9890   25.0482 H   0  0  0  0  0  0
  -22.6866  -31.3137   21.4397 H   0  0  0  0  0  0
  -23.3787  -35.9518   23.3275 H   0  0  0  0  0  0
  -24.3568  -36.8923   22.2076 H   0  0  0  0  0  0
  -23.7108  -37.6387   23.6701 H   0  0  0  0  0  0
  -26.0947  -31.5738   20.6498 H   0  0  0  0  0  0
  -26.8180  -30.8121   22.0373 H   0  0  0  0  0  0
  -28.0705  -28.9505   21.2007 H   0  0  0  0  0  0
  -25.8220  -25.9104   19.0728 H   0  0  0  0  0  0
  -23.8862  -27.3363   19.0639 H   0  0  0  0  0  0
  -23.7288  -30.6438   19.4280 H   0  0  0  0  0  0
  -22.7204  -29.2962   19.8664 H   0  0  0  0  0  0
  -25.1256  -36.1977   25.0848 H   0  0  0  0  0  0
  -20.9935  -28.2958   24.1432 H   0  0  0  0  0  0
  -20.5319  -26.2093   23.3509 H   0  0  0  0  0  0
  -21.6559  -26.7092   22.1319 H   0  0  0  0  0  0
  -19.6784  -25.6202   21.1147 H   0  0  0  0  0  0
  -19.6641  -27.3089   20.6617 H   0  0  0  0  0  0
  -17.4092  -26.6515   21.4087 H   0  0  0  0  0  0
  -18.0386  -25.9974   22.9003 H   0  0  0  0  0  0
  -19.7900  -30.7146   24.2299 H   0  0  0  0  0  0
  -17.4982  -31.6220   24.5057 H   0  0  0  0  0  0
  -15.5326  -30.2861   23.7631 H   0  0  0  0  0  0
  -15.8649  -28.0682   22.7088 H   0  0  0  0  0  0
  -24.5793  -30.7173   25.8006 H   0  0  0  0  0  0
  -24.8802  -32.2968   26.5072 H   0  0  0  0  0  0
  -25.7990  -30.9025   27.0395 H   0  0  0  0  0  0
  -26.2753  -29.6986   24.1186 H   0  0  0  0  0  0
  -27.3767  -29.7318   25.4738 H   0  0  0  0  0  0
  -27.8652  -30.4482   23.9564 H   0  0  0  0  0  0
  -27.2734  -33.3704   26.2108 H   0  0  0  0  0  0
  -28.3731  -32.6914   25.0265 H   0  0  0  0  0  0
  -28.0721  -31.8501   26.5373 H   0  0  0  0  0  0
  -28.2577  -38.0089   24.7603 H   0  0  0  0  0  0
  -28.1126  -36.2657   24.6152 H   0  0  0  0  0  0
  -27.2367  -37.1255   25.8873 H   0  0  0  0  0  0
  -20.9135  -29.8863   21.7258 H   0  0  0  0  0  0
  -26.0161  -38.2857   24.1559 H   0  0  0  0  0  0
  -31.7089  -20.7884   20.1773 H   0  0  0  0  0  0
  -32.5521  -16.7124   21.0034 H   0  0  0  0  0  0
  -30.2645  -23.9199   20.4651 H   0  0  0  0  0  0
  -30.1232  -23.0072   18.9873 H   0  0  0  0  0  0
  -29.3777  -20.8489   18.9888 H   0  0  0  0  0  0
  -27.0825  -20.7797   20.9736 H   0  0  0  0  0  0
  -33.8906  -20.1830   20.8102 H   0  0  0  0  0  0
  -34.1319  -18.9224   19.5916 H   0  0  0  0  0  0
  -34.2985  -18.5508   21.3263 H   0  0  0  0  0  0
  -27.3371  -19.3169   18.2608 H   0  0  0  0  0  0
  -25.8387  -19.5706   19.1390 H   0  0  0  0  0  0
  -27.0553  -18.5400   19.8176 H   0  0  0  0  0  0
  -27.6871  -25.4402   18.3265 H   0  0  0  0  0  0
  -29.3276  -25.4444   18.7310 H   0  0  0  0  0  0
  -29.0316  -15.6269   21.1004 H   0  0  0  0  0  0
  -28.9346  -22.1061   21.5533 H   0  0  0  0  0  0
  -30.4492  -21.7255   21.1196 H   0  0  0  0  0  0
  1 25  1  0  0  0
  1 30  2  0  0  0
  1 85  1  0  0  0
  2  3  1  0  0  0
  2 25  1  0  0  0
  2 88  1  0  0  0
  2 89  1  0  0  0
  3  4  1  0  0  0
  3 90  1  0  0  0
  3 91  1  0  0  0
  4  5  1  0  0  0
  4 92  1  0  0  0
  4 93  1  0  0  0
  5  6  1  0  0  0
  5 26  1  0  0  0
  5 94  1  0  0  0
  6 25  1  0  0  0
  6 95  1  0  0  0
  6 96  1  0  0  0
  7  8  2  0  0  0
  7 26  1  0  0  0
  7 29  1  0  0  0
  8  9  1  0  0  0
  8 22  1  0  0  0
  9 10  1  0  0  0
  9 27  2  0  0  0
 10 11  2  0  0  0
 10 15  1  0  0  0
 11 12  1  0  0  0
 11 97  1  0  0  0
 12 13  2  0  0  0
 12 98  1  0  0  0
 13 14  1  0  0  0
 13 31  1  0  0  0
 14 15  2  0  0  0
 14 99  1  0  0  0
 15100  1  0  0  0
 16 17  2  0  0  0
 16 21  1  0  0  0
 16 31  1  0  0  0
 17 18  1  0  0  0
 17101  1  0  0  0
 18 19  2  0  0  0
 18102  1  0  0  0
 19 20  1  0  0  0
 19 24  1  0  0  0
 20 21  2  0  0  0
 20103  1  0  0  0
 21 23  1  0  0  0
 22 28  1  0  0  0
 22 32  2  0  0  0
 26 27  1  0  0  0
 28104  1  0  0  0
 28105  1  0  0  0
 29106  1  0  0  0
 29107  1  0  0  0
 33 34  1  0  0  0
 33 66  1  0  0  0
 33 70  2  0  0  0
 34 36  1  0  0  0
 34 59  1  0  0  0
 34108  1  0  0  0
 35 44  2  0  0  0
 35 45  1  0  0  0
 35 68  1  0  0  0
 36 56  1  0  0  0
 36109  1  0  0  0
 37 39  1  0  0  0
 37 47  1  0  0  0
 37 66  1  0  0  0
 37110  1  0  0  0
 38 43  2  0  0  0
 38 46  1  0  0  0
 38 47  1  0  0  0
 39 64  1  0  0  0
 39 67  2  0  0  0
 40 52  1  0  0  0
 40 53  2  0  0  0
 40 58  1  0  0  0
 41111  1  0  0  0
 41112  1  0  0  0
 41113  1  0  0  0
 41 48  1  0  0  0
 42 43  1  0  0  0
 42 66  1  0  0  0
 42114  1  0  0  0
 42115  1  0  0  0
 43 44  1  0  0  0
 44116  1  0  0  0
 45 46  2  0  0  0
 45117  1  0  0  0
 46118  1  0  0  0
 47119  1  0  0  0
 47120  1  0  0  0
 48 56  1  0  0  0
 48 65  1  0  0  0
 48121  1  0  0  0
 49 50  1  0  0  0
 49 53  1  0  0  0
 49 64  1  0  0  0
 49122  1  0  0  0
 50 51  1  0  0  0
 50123  1  0  0  0
 50124  1  0  0  0
 51 52  1  0  0  0
 51125  1  0  0  0
 51126  1  0  0  0
 52127  1  0  0  0
 52128  1  0  0  0
 53 54  1  0  0  0
 54 55  2  0  0  0
 54129  1  0  0  0
 55 57  1  0  0  0
 55130  1  0  0  0
 56 69  2  0  0  0
 57 58  2  0  0  0
 57131  1  0  0  0
 58132  1  0  0  0
 59 60  1  0  0  0
 59 61  1  0  0  0
 59 62  1  0  0  0
 60133  1  0  0  0
 60134  1  0  0  0
 60135  1  0  0  0
 61136  1  0  0  0
 61137  1  0  0  0
 61138  1  0  0  0
 62139  1  0  0  0
 62140  1  0  0  0
 62141  1  0  0  0
 63 65  1  0  0  0
 63142  1  0  0  0
 63143  1  0  0  0
 63144  1  0  0  0
 64145  1  0  0  0
 65146  1  0  0  0
 68 82  1  0  0  0
 71 73  2  0  0  0
 71 74  1  0  0  0
 71147  1  0  0  0
 72 73  1  0  0  0
 72 75  2  0  0  0
 72148  1  0  0  0
 73 80  1  0  0  0
 74 83  2  0  0  0
 74 78  1  0  0  0
 75 83  1  0  0  0
 75 85  1  0  0  0
 76 77  1  0  0  0
 76 82  1  0  0  0
 76 84  2  0  0  0
 77 86  1  0  0  0
 77149  1  0  0  0
 77150  1  0  0  0
 78 79  1  0  0  0
 78 86  1  0  0  0
 78151  1  0  0  0
 79 81  1  0  0  0
 79 87  1  0  0  0
 79152  1  0  0  0
 80153  1  0  0  0
 80154  1  0  0  0
 80155  1  0  0  0
 81156  1  0  0  0
 81157  1  0  0  0
 81158  1  0  0  0
 82159  1  0  0  0
 82160  1  0  0  0
 84 87  1  0  0  0
 85161  1  0  0  0
 86162  1  0  0  0
 86163  1  0  0  0
M  CHG  1  86   1
M  ISO  4   1 100  68 101  82 101  85 100
M  END
> <chiral flag>
0

> <version>
0

> <s_m_source_file>
/data/baiqing/PycharmProjects/Reinvent-master-3.2/result/LINK_invent/BTK/process_docking_weight1_custom_product_contain_oxygen_bond_distance_aromatic_linkinvent_7_9_3/rearranged_h_0167.sdf

> <i_m_source_file_index>
30

> <r_mmod_Potential_Energy-OPLS-2005>
-221.060974121094

> <r_mmod_Stretch_Energy-OPLS-2005>
81.4312515258789

> <r_mmod_Bend_Energy-OPLS-2005>
189.406173706055

> <r_mmod_Torsional_Energy-OPLS-2005>
299.186309814453

> <r_mmod_Improper_Torsional_Energy-OPLS-2005>
7.08913040161133

> <r_mmod_Van_der_Waal_Energy-OPLS-2005>
170.837585449219

> <r_mmod_Electrostatic_Energy-OPLS-2005>
-532.352661132812

> <r_mmod_Solvation_Energy-OPLS-2005>
-490.299987792969

> <b_mmod_Minimization_Converged-OPLS-2005>
0

> <r_mmod_RMS_Derivative-OPLS-2005>
10.0116987228394

$$$$
30
                    3D
 Structure written by MMmdl.
171179  0  0  1  0            999 V2000
  -30.7229  -14.4881   20.5878 C   0  0  0  0  0  0
  -30.4116  -12.3213   19.4371 C   0  0  0  0  0  0
  -29.4930  -12.5081   18.2139 C   0  0  0  0  0  0
  -28.0160  -12.3656   18.6246 C   0  0  0  0  0  0
  -27.6575  -13.2137   19.8738 C   0  0  2  0  0  0
  -28.6967  -13.0274   21.0027 C   0  0  0  0  0  0
  -25.2537  -13.8120   20.5574 C   0  0  0  0  0  0
  -24.1823  -13.0420   20.9190 C   0  0  0  0  0  0
  -24.6400  -11.6897   20.8775 C   0  0  0  0  0  0
  -23.9064  -10.4287   21.0429 C   0  0  0  0  0  0
  -24.3610   -9.4200   21.9205 C   0  0  0  0  0  0
  -23.6284   -8.2235   22.0762 C   0  0  0  0  0  0
  -22.4270   -8.0280   21.3544 C   0  0  0  0  0  0
  -21.9910   -9.0258   20.4652 C   0  0  0  0  0  0
  -22.7238  -10.2139   20.3071 C   0  0  0  0  0  0
  -21.6848   -6.0738   22.5278 C   0  0  0  0  0  0
  -21.4009   -6.5640   23.8214 C   0  0  0  0  0  0
  -21.3658   -5.6793   24.9176 C   0  0  0  0  0  0
  -21.6042   -4.3055   24.7225 C   0  0  0  0  0  0
  -21.8820   -3.8148   23.4347 C   0  0  0  0  0  0
  -21.9193   -4.6965   22.3401 C   0  0  0  0  0  0
  -22.7856  -13.5238   21.1854 C   0  0  0  0  0  0
  -22.1663   -4.2152   21.0977 F   0  0  0  0  0  0
  -21.5633   -3.4540   25.7737 F   0  0  0  0  0  0
  -30.0259  -13.3246   20.4469 N   0  0  0  0  0  0
  -26.3003  -12.9329   20.3355 N   0  0  0  0  0  0
  -25.9336  -11.6490   20.5818 N   0  0  0  0  0  0
  -22.0489  -12.8235   22.0410 N   0  0  0  0  0  0
  -25.4192  -15.1773   20.3693 N   0  0  0  0  0  0
  -31.8342  -14.6335   20.0709 O   0  0  0  0  0  0
  -21.6631   -6.8880   21.4236 O   0  0  0  0  0  0
  -22.3546  -14.5546   20.6706 O   0  0  0  0  0  0
  -24.6149  -31.8664   23.2095 C   0  0  0  0  0  0
  -25.9045  -32.4809   23.8395 C   0  0  1  0  0  0
  -27.2339  -27.4278   20.1074 C   0  0  0  0  0  0
  -25.5902  -33.8608   24.2327 N   0  0  0  0  0  0
  -23.4044  -30.4887   21.5489 C   0  0  2  0  0  0
  -24.8533  -28.9518   20.1158 C   0  0  0  0  0  0
  -22.7413  -29.4649   22.4978 C   0  0  0  0  0  0
  -18.0271  -28.1379   22.8491 C   0  0  0  0  0  0
  -24.1478  -36.7310   23.2643 C   0  0  0  0  0  0
  -25.9327  -30.8323   21.3617 C   0  0  0  0  0  0
  -26.0131  -29.4651   20.7115 C   0  0  0  0  0  0
  -27.2107  -28.7116   20.7011 C   0  0  0  0  0  0
  -26.0617  -26.9276   19.5058 C   0  0  0  0  0  0
  -24.8725  -27.6830   19.5085 C   0  0  0  0  0  0
  -23.6144  -29.8186   20.1643 C   0  0  0  0  0  0
  -25.4103  -36.3100   24.0339 C   0  0  1  0  0  0
  -20.5860  -28.3669   23.1313 C   0  0  2  0  0  0
  -20.6755  -26.9403   22.5416 C   0  0  0  0  0  0
  -19.5739  -26.6388   21.5208 C   0  0  0  0  0  0
  -18.1916  -26.7929   22.1617 C   0  0  0  0  0  0
  -19.1519  -28.8839   23.2898 C   0  0  0  0  0  0
  -18.9450  -30.1443   23.8910 C   0  0  0  0  0  0
  -17.6455  -30.6587   24.0563 C   0  0  0  0  0  0
  -25.9030  -34.9466   23.5129 C   0  0  0  0  0  0
  -16.5345  -29.9089   23.6329 C   0  0  0  0  0  0
  -16.7261  -28.6502   23.0355 C   0  0  0  0  0  0
  -26.4489  -31.6591   25.0720 C   0  0  0  0  0  0
  -25.3763  -31.3663   26.1465 C   0  0  0  0  0  0
  -27.0348  -30.3043   24.6096 C   0  0  0  0  0  0
  -27.6058  -32.4319   25.7485 C   0  0  0  0  0  0
  -27.5576  -37.1804   24.8468 C   0  0  0  0  0  0
  -21.4137  -29.3034   22.3716 N   0  0  0  0  0  0
  -26.4289  -37.3785   23.9414 N   0  0  0  0  0  0
  -24.6689  -31.0763   22.0991 N   0  0  0  0  0  0
  -23.4178  -28.8191   23.3029 O   0  0  0  0  0  0
  -28.3758  -26.6593   20.1050 O   0  0  0  0  0  0
  -26.5593  -34.8920   22.4690 O   0  0  0  0  0  0
  -23.5340  -32.1415   23.7487 O   0  0  0  0  0  0
  -32.4832  -18.3114   21.9948 C   0  0  0  0  0  0
  -31.6337  -19.4242   22.0308 C   0  0  0  0  0  0
  -31.9637  -17.0397   21.7188 C   0  0  0  0  0  0
  -30.2486  -19.2997   21.7899 C   0  0  0  0  0  0
  -29.7175  -17.9925   21.5090 C   0  0  0  0  0  0
  -30.5862  -16.8499   21.4526 C   0  0  0  0  0  0
  -28.5976  -24.1852   20.3941 C   0  0  0  0  0  0
  -25.2963  -17.2477   23.8647 C   0  0  0  0  0  0
  -25.5863  -19.3573   22.5017 C   0  0  0  0  0  0
  -29.3839  -20.5748   21.9913 C   0  0  0  0  0  0
  -28.2122  -17.8103   21.3284 C   0  0  0  0  0  0
  -28.6021  -22.9588   21.3410 C   0  0  0  0  0  0
  -28.3416  -25.5652   21.0453 C   0  0  0  0  0  0
  -27.4995  -17.6689   22.6887 C   0  0  0  0  0  0
  -25.9722  -17.8750   22.6366 C   0  0  0  0  0  0
  -29.6097  -21.8029   21.0401 C   0  0  1  0  0  0
  -30.0864  -15.5162   21.2054 N   0  0  0  0  0  0
  -28.7557  -24.0633   19.1742 O   0  0  0  0  0  0
  -30.9187  -22.3261   21.2263 O   0  0  0  0  0  0
  -31.4579  -12.4013   19.1379 H   0  0  0  0  0  0
  -30.3011  -11.3170   19.8491 H   0  0  0  0  0  0
  -29.7379  -11.7767   17.4426 H   0  0  0  0  0  0
  -29.6604  -13.4905   17.7696 H   0  0  0  0  0  0
  -27.8309  -11.3103   18.8284 H   0  0  0  0  0  0
  -27.3653  -12.6306   17.7905 H   0  0  0  0  0  0
  -27.6930  -14.2582   19.5633 H   0  0  0  0  0  0
  -28.6766  -12.0027   21.3760 H   0  0  0  0  0  0
  -28.4524  -13.6564   21.8597 H   0  0  0  0  0  0
  -25.2750   -9.5674   22.4787 H   0  0  0  0  0  0
  -23.9991   -7.4623   22.7480 H   0  0  0  0  0  0
  -21.0845   -8.8787   19.8951 H   0  0  0  0  0  0
  -22.3705  -10.9687   19.6187 H   0  0  0  0  0  0
  -21.2000   -7.6149   23.9715 H   0  0  0  0  0  0
  -21.1480   -6.0524   25.9079 H   0  0  0  0  0  0
  -22.0602   -2.7613   23.2843 H   0  0  0  0  0  0
  -22.4094  -11.9886   22.4787 H   0  0  0  0  0  0
  -21.1117  -13.1283   22.2627 H   0  0  0  0  0  0
  -24.6408  -15.8215   20.4478 H   0  0  0  0  0  0
  -26.2543  -15.6034   19.9914 H   0  0  0  0  0  0
  -26.7115  -32.5529   23.1160 H   0  0  0  0  0  0
  -25.0058  -33.9764   25.0475 H   0  0  0  0  0  0
  -22.6927  -31.3046   21.4076 H   0  0  0  0  0  0
  -23.3737  -35.9649   23.3306 H   0  0  0  0  0  0
  -24.3568  -36.8933   22.2062 H   0  0  0  0  0  0
  -23.7235  -37.6515   23.6663 H   0  0  0  0  0  0
  -26.0417  -31.5971   20.5911 H   0  0  0  0  0  0
  -26.8217  -30.8904   21.9779 H   0  0  0  0  0  0
  -28.1077  -29.1033   21.1600 H   0  0  0  0  0  0
  -26.0691  -25.9525   19.0389 H   0  0  0  0  0  0
  -23.9814  -27.2826   19.0451 H   0  0  0  0  0  0
  -23.7213  -30.5919   19.4027 H   0  0  0  0  0  0
  -22.7391  -29.2364   19.8706 H   0  0  0  0  0  0
  -25.1277  -36.1966   25.0832 H   0  0  0  0  0  0
  -20.9951  -28.3240   24.1434 H   0  0  0  0  0  0
  -20.5659  -26.2273   23.3606 H   0  0  0  0  0  0
  -21.6628  -26.7441   22.1215 H   0  0  0  0  0  0
  -19.6896  -25.6302   21.1235 H   0  0  0  0  0  0
  -19.6680  -27.3198   20.6742 H   0  0  0  0  0  0
  -17.4190  -26.6686   21.4015 H   0  0  0  0  0  0
  -18.0300  -26.0066   22.9004 H   0  0  0  0  0  0
  -19.7927  -30.7249   24.2291 H   0  0  0  0  0  0
  -17.5015  -31.6268   24.5166 H   0  0  0  0  0  0
  -15.5346  -30.2998   23.7646 H   0  0  0  0  0  0
  -15.8655  -28.0824   22.7074 H   0  0  0  0  0  0
  -24.5951  -30.6998   25.7793 H   0  0  0  0  0  0
  -24.8934  -32.2802   26.4936 H   0  0  0  0  0  0
  -25.8135  -30.8821   27.0206 H   0  0  0  0  0  0
  -26.2894  -29.6753   24.1214 H   0  0  0  0  0  0
  -27.4204  -29.7325   25.4548 H   0  0  0  0  0  0
  -27.8683  -30.4381   23.9194 H   0  0  0  0  0  0
  -27.2684  -33.3619   26.2071 H   0  0  0  0  0  0
  -28.3862  -32.6880   25.0306 H   0  0  0  0  0  0
  -28.0733  -31.8440   26.5391 H   0  0  0  0  0  0
  -28.2589  -38.0106   24.7527 H   0  0  0  0  0  0
  -28.1075  -36.2637   24.6280 H   0  0  0  0  0  0
  -27.2291  -37.1445   25.8869 H   0  0  0  0  0  0
  -20.9295  -29.8759   21.6944 H   0  0  0  0  0  0
  -26.0173  -38.2860   24.1432 H   0  0  0  0  0  0
  -33.5376  -18.4304   22.2028 H   0  0  0  0  0  0
  -32.0641  -20.3808   22.2878 H   0  0  0  0  0  0
  -32.6533  -16.2087   21.7372 H   0  0  0  0  0  0
  -24.2131  -17.3661   23.8242 H   0  0  0  0  0  0
  -25.6479  -17.7035   24.7910 H   0  0  0  0  0  0
  -25.5012  -16.1775   23.9214 H   0  0  0  0  0  0
  -24.5028  -19.4801   22.4882 H   0  0  0  0  0  0
  -25.9654  -19.7898   21.5759 H   0  0  0  0  0  0
  -25.9742  -19.9501   23.3309 H   0  0  0  0  0  0
  -29.5394  -20.8962   23.0223 H   0  0  0  0  0  0
  -28.3267  -20.3275   21.9623 H   0  0  0  0  0  0
  -27.9985  -16.9403   20.7086 H   0  0  0  0  0  0
  -27.8143  -18.6423   20.7497 H   0  0  0  0  0  0
  -27.5904  -22.5532   21.3190 H   0  0  0  0  0  0
  -28.7496  -23.3184   22.3593 H   0  0  0  0  0  0
  -29.1113  -25.7365   21.7976 H   0  0  0  0  0  0
  -27.3895  -25.5279   21.5774 H   0  0  0  0  0  0
  -27.9180  -18.3768   23.4058 H   0  0  0  0  0  0
  -27.7336  -16.6812   23.0882 H   0  0  0  0  0  0
  -25.5846  -17.3598   21.7610 H   0  0  0  0  0  0
  -29.4949  -21.4813   20.0035 H   0  0  0  0  0  0
  -29.1293  -15.3376   21.4662 H   0  0  0  0  0  0
  -31.0445  -22.4983   22.1542 H   0  0  0  0  0  0
  1 25  1  0  0  0
  1 30  2  0  0  0
  1 87  1  0  0  0
  2  3  1  0  0  0
  2 25  1  0  0  0
  2 90  1  0  0  0
  2 91  1  0  0  0
  3  4  1  0  0  0
  3 92  1  0  0  0
  3 93  1  0  0  0
  4  5  1  0  0  0
  4 94  1  0  0  0
  4 95  1  0  0  0
  5  6  1  0  0  0
  5 26  1  0  0  0
  5 96  1  0  0  0
  6 25  1  0  0  0
  6 97  1  0  0  0
  6 98  1  0  0  0
  7  8  2  0  0  0
  7 26  1  0  0  0
  7 29  1  0  0  0
  8  9  1  0  0  0
  8 22  1  0  0  0
  9 10  1  0  0  0
  9 27  2  0  0  0
 10 11  2  0  0  0
 10 15  1  0  0  0
 11 12  1  0  0  0
 11 99  1  0  0  0
 12 13  2  0  0  0
 12100  1  0  0  0
 13 14  1  0  0  0
 13 31  1  0  0  0
 14 15  2  0  0  0
 14101  1  0  0  0
 15102  1  0  0  0
 16 17  2  0  0  0
 16 21  1  0  0  0
 16 31  1  0  0  0
 17 18  1  0  0  0
 17103  1  0  0  0
 18 19  2  0  0  0
 18104  1  0  0  0
 19 20  1  0  0  0
 19 24  1  0  0  0
 20 21  2  0  0  0
 20105  1  0  0  0
 21 23  1  0  0  0
 22 28  1  0  0  0
 22 32  2  0  0  0
 26 27  1  0  0  0
 28106  1  0  0  0
 28107  1  0  0  0
 29108  1  0  0  0
 29109  1  0  0  0
 33 34  1  0  0  0
 33 66  1  0  0  0
 33 70  2  0  0  0
 34 36  1  0  0  0
 34 59  1  0  0  0
 34110  1  0  0  0
 35 44  2  0  0  0
 35 45  1  0  0  0
 35 68  1  0  0  0
 36 56  1  0  0  0
 36111  1  0  0  0
 37 39  1  0  0  0
 37 47  1  0  0  0
 37 66  1  0  0  0
 37112  1  0  0  0
 38 43  2  0  0  0
 38 46  1  0  0  0
 38 47  1  0  0  0
 39 64  1  0  0  0
 39 67  2  0  0  0
 40 52  1  0  0  0
 40 53  2  0  0  0
 40 58  1  0  0  0
 41113  1  0  0  0
 41114  1  0  0  0
 41115  1  0  0  0
 41 48  1  0  0  0
 42 43  1  0  0  0
 42 66  1  0  0  0
 42116  1  0  0  0
 42117  1  0  0  0
 43 44  1  0  0  0
 44118  1  0  0  0
 45 46  2  0  0  0
 45119  1  0  0  0
 46120  1  0  0  0
 47121  1  0  0  0
 47122  1  0  0  0
 48 56  1  0  0  0
 48 65  1  0  0  0
 48123  1  0  0  0
 49 50  1  0  0  0
 49 53  1  0  0  0
 49 64  1  0  0  0
 49124  1  0  0  0
 50 51  1  0  0  0
 50125  1  0  0  0
 50126  1  0  0  0
 51 52  1  0  0  0
 51127  1  0  0  0
 51128  1  0  0  0
 52129  1  0  0  0
 52130  1  0  0  0
 53 54  1  0  0  0
 54 55  2  0  0  0
 54131  1  0  0  0
 55 57  1  0  0  0
 55132  1  0  0  0
 56 69  2  0  0  0
 57 58  2  0  0  0
 57133  1  0  0  0
 58134  1  0  0  0
 59 60  1  0  0  0
 59 61  1  0  0  0
 59 62  1  0  0  0
 60135  1  0  0  0
 60136  1  0  0  0
 60137  1  0  0  0
 61138  1  0  0  0
 61139  1  0  0  0
 61140  1  0  0  0
 62141  1  0  0  0
 62142  1  0  0  0
 62143  1  0  0  0
 63 65  1  0  0  0
 63144  1  0  0  0
 63145  1  0  0  0
 63146  1  0  0  0
 64147  1  0  0  0
 65148  1  0  0  0
 68 83  1  0  0  0
 71 72  2  0  0  0
 71 73  1  0  0  0
 71149  1  0  0  0
 72 74  1  0  0  0
 72150  1  0  0  0
 73 76  2  0  0  0
 73151  1  0  0  0
 74 75  2  0  0  0
 74 80  1  0  0  0
 75 76  1  0  0  0
 75 81  1  0  0  0
 76 87  1  0  0  0
 77 82  1  0  0  0
 77 83  1  0  0  0
 77 88  2  0  0  0
 78152  1  0  0  0
 78153  1  0  0  0
 78154  1  0  0  0
 78 85  1  0  0  0
 79 85  1  0  0  0
 79155  1  0  0  0
 79156  1  0  0  0
 79157  1  0  0  0
 80 86  1  0  0  0
 80158  1  0  0  0
 80159  1  0  0  0
 81 84  1  0  0  0
 81160  1  0  0  0
 81161  1  0  0  0
 82 86  1  0  0  0
 82162  1  0  0  0
 82163  1  0  0  0
 83164  1  0  0  0
 83165  1  0  0  0
 84 85  1  0  0  0
 84166  1  0  0  0
 84167  1  0  0  0
 85168  1  0  0  0
 86 89  1  0  0  0
 86169  1  0  0  0
 87170  1  0  0  0
 89171  1  0  0  0
M  ISO  4   1 100  68 101  83 101  87 100
M  END
> <chiral flag>
0

> <version>
0

> <s_m_source_file>
/data/baiqing/PycharmProjects/Reinvent-master-3.2/result/LINK_invent/BTK/process_docking_weight1_custom_product_contain_oxygen_bond_distance_aromatic_linkinvent_7_9_3/rearranged_h_0167.sdf

> <i_m_source_file_index>
31

> <r_mmod_Potential_Energy-OPLS-2005>
-0.302882373332977

> <r_mmod_Stretch_Energy-OPLS-2005>
50.1623764038086

> <r_mmod_Bend_Energy-OPLS-2005>
106.582641601562

> <r_mmod_Torsional_Energy-OPLS-2005>
233.904190063477

> <r_mmod_Improper_Torsional_Energy-OPLS-2005>
3.82971334457397

> <r_mmod_Van_der_Waal_Energy-OPLS-2005>
145.867584228516

> <r_mmod_Electrostatic_Energy-OPLS-2005>
-312.435974121094

> <r_mmod_Solvation_Energy-OPLS-2005>
-242.746627807617

> <b_mmod_Minimization_Converged-OPLS-2005>
0

> <r_mmod_RMS_Derivative-OPLS-2005>
0.839100420475006

$$$$
31
                    3D
 Structure written by MMmdl.
153161  0  0  1  0            999 V2000
  -30.6669  -14.5457   20.5423 C   0  0  0  0  0  0
  -30.4292  -12.3466   19.4289 C   0  0  0  0  0  0
  -29.4964  -12.4959   18.2086 C   0  0  0  0  0  0
  -28.0191  -12.3455   18.6251 C   0  0  0  0  0  0
  -27.6531  -13.2080   19.8625 C   0  0  2  0  0  0
  -28.6984  -13.0357   20.9870 C   0  0  0  0  0  0
  -25.2562  -13.8157   20.5674 C   0  0  0  0  0  0
  -24.1825  -13.0434   20.9190 C   0  0  0  0  0  0
  -24.6382  -11.6901   20.8745 C   0  0  0  0  0  0
  -23.9052  -10.4289   21.0410 C   0  0  0  0  0  0
  -24.3608   -9.4205   21.9187 C   0  0  0  0  0  0
  -23.6285   -8.2240   22.0754 C   0  0  0  0  0  0
  -22.4268   -8.0278   21.3543 C   0  0  0  0  0  0
  -21.9904   -9.0251   20.4647 C   0  0  0  0  0  0
  -22.7228  -10.2131   20.3058 C   0  0  0  0  0  0
  -21.6852   -6.0733   22.5278 C   0  0  0  0  0  0
  -21.4012   -6.5637   23.8211 C   0  0  0  0  0  0
  -21.3658   -5.6792   24.9175 C   0  0  0  0  0  0
  -21.6044   -4.3054   24.7226 C   0  0  0  0  0  0
  -21.8820   -3.8145   23.4348 C   0  0  0  0  0  0
  -21.9192   -4.6961   22.3403 C   0  0  0  0  0  0
  -22.7849  -13.5233   21.1854 C   0  0  0  0  0  0
  -22.1661   -4.2146   21.0980 F   0  0  0  0  0  0
  -21.5629   -3.4539   25.7740 F   0  0  0  0  0  0
  -30.0167  -13.3542   20.4191 N   0  0  0  0  0  0
  -26.2983  -12.9324   20.3316 N   0  0  0  0  0  0
  -25.9305  -11.6487   20.5759 N   0  0  0  0  0  0
  -22.0490  -12.8228   22.0409 N   0  0  0  0  0  0
  -25.4276  -15.1879   20.4065 N   0  0  0  0  0  0
  -31.8358  -14.6990   20.1764 O   0  0  0  0  0  0
  -21.6636   -6.8874   21.4239 O   0  0  0  0  0  0
  -22.3540  -14.5544   20.6703 O   0  0  0  0  0  0
  -24.6187  -31.8651   23.2071 C   0  0  0  0  0  0
  -25.9066  -32.4807   23.8377 C   0  0  1  0  0  0
  -27.2295  -27.3898   20.1118 C   0  0  0  0  0  0
  -25.5907  -33.8603   24.2312 N   0  0  0  0  0  0
  -23.4088  -30.4877   21.5487 C   0  0  2  0  0  0
  -24.8553  -28.9445   20.1193 C   0  0  0  0  0  0
  -22.7430  -29.4647   22.4979 C   0  0  0  0  0  0
  -18.0275  -28.1380   22.8489 C   0  0  0  0  0  0
  -24.1486  -36.7307   23.2639 C   0  0  0  0  0  0
  -25.9412  -30.8179   21.3656 C   0  0  0  0  0  0
  -26.0185  -29.4471   20.7165 C   0  0  0  0  0  0
  -27.2115  -28.6794   20.7045 C   0  0  0  0  0  0
  -26.0489  -26.9118   19.5077 C   0  0  0  0  0  0
  -24.8674  -27.6775   19.5105 C   0  0  0  0  0  0
  -23.6201  -29.8178   20.1649 C   0  0  0  0  0  0
  -25.4108  -36.3100   24.0335 C   0  0  1  0  0  0
  -20.5871  -28.3672   23.1308 C   0  0  2  0  0  0
  -20.6768  -26.9406   22.5415 C   0  0  0  0  0  0
  -19.5745  -26.6388   21.5212 C   0  0  0  0  0  0
  -18.1923  -26.7924   22.1624 C   0  0  0  0  0  0
  -19.1527  -28.8841   23.2895 C   0  0  0  0  0  0
  -18.9455  -30.1447   23.8907 C   0  0  0  0  0  0
  -17.6457  -30.6586   24.0563 C   0  0  0  0  0  0
  -25.9038  -34.9466   23.5122 C   0  0  0  0  0  0
  -16.5347  -29.9087   23.6328 C   0  0  0  0  0  0
  -16.7264  -28.6505   23.0347 C   0  0  0  0  0  0
  -26.4479  -31.6592   25.0717 C   0  0  0  0  0  0
  -25.3738  -31.3702   26.1463 C   0  0  0  0  0  0
  -27.0317  -30.3031   24.6107 C   0  0  0  0  0  0
  -27.6053  -32.4312   25.7481 C   0  0  0  0  0  0
  -27.5579  -37.1806   24.8464 C   0  0  0  0  0  0
  -21.4155  -29.3037   22.3715 N   0  0  0  0  0  0
  -26.4291  -37.3789   23.9409 N   0  0  0  0  0  0
  -24.6747  -31.0720   22.0988 N   0  0  0  0  0  0
  -23.4184  -28.8192   23.3038 O   0  0  0  0  0  0
  -28.3817  -26.6223   20.0707 O   0  0  0  0  0  0
  -26.5606  -34.8923   22.4686 O   0  0  0  0  0  0
  -23.5370  -32.1420   23.7443 O   0  0  0  0  0  0
  -29.6166  -18.1000   20.6470 C   0  0  0  0  0  0
  -30.9888  -19.5826   22.0112 C   0  0  0  0  0  0
  -31.2991  -17.1620   22.1471 C   0  0  0  0  0  0
  -29.9660  -19.4297   21.0448 C   0  0  0  0  0  0
  -30.2808  -16.9544   21.1905 C   0  0  0  0  0  0
  -31.6464  -18.4631   22.5548 C   0  0  0  0  0  0
  -28.8864  -22.9599   19.8953 C   0  0  0  0  0  0
  -29.1710  -21.8310   20.9568 C   0  0  0  0  0  0
  -27.8612  -24.0799   20.2221 C   0  0  0  0  0  0
  -28.3997  -25.4045   20.8636 C   0  0  0  0  0  0
  -29.3740  -20.5948   20.4226 N   0  0  0  0  0  0
  -29.8813  -15.6094   20.8559 N   0  0  0  0  0  0
  -29.4460  -22.9479   18.7927 O   0  0  0  0  0  0
  -29.1849  -22.0738   22.1685 O   0  0  0  0  0  0
  -32.6239  -18.6398   23.4758 F   0  0  0  0  0  0
  -31.4707  -12.4643   19.1248 H   0  0  0  0  0  0
  -30.3520  -11.3455   19.8556 H   0  0  0  0  0  0
  -29.7472  -11.7531   17.4501 H   0  0  0  0  0  0
  -29.6490  -13.4713   17.7436 H   0  0  0  0  0  0
  -27.8457  -11.2917   18.8463 H   0  0  0  0  0  0
  -27.3642  -12.5905   17.7880 H   0  0  0  0  0  0
  -27.6801  -14.2464   19.5326 H   0  0  0  0  0  0
  -28.6936  -12.0113   21.3622 H   0  0  0  0  0  0
  -28.4592  -13.6670   21.8444 H   0  0  0  0  0  0
  -25.2755   -9.5682   22.4761 H   0  0  0  0  0  0
  -23.9997   -7.4631   22.7473 H   0  0  0  0  0  0
  -21.0837   -8.8769   19.8953 H   0  0  0  0  0  0
  -22.3689  -10.9670   19.6167 H   0  0  0  0  0  0
  -21.2004   -7.6146   23.9714 H   0  0  0  0  0  0
  -21.1479   -6.0522   25.9077 H   0  0  0  0  0  0
  -22.0601   -2.7607   23.2850 H   0  0  0  0  0  0
  -22.4101  -11.9883   22.4791 H   0  0  0  0  0  0
  -21.1112  -13.1259   22.2619 H   0  0  0  0  0  0
  -24.6575  -15.8400   20.5097 H   0  0  0  0  0  0
  -26.2700  -15.6269   20.0581 H   0  0  0  0  0  0
  -26.7135  -32.5512   23.1138 H   0  0  0  0  0  0
  -25.0049  -33.9752   25.0450 H   0  0  0  0  0  0
  -22.6997  -31.3059   21.4071 H   0  0  0  0  0  0
  -23.3743  -35.9646   23.3308 H   0  0  0  0  0  0
  -24.3580  -36.8920   22.2053 H   0  0  0  0  0  0
  -23.7241  -37.6512   23.6655 H   0  0  0  0  0  0
  -26.0566  -31.5801   20.5938 H   0  0  0  0  0  0
  -26.8277  -30.8741   21.9857 H   0  0  0  0  0  0
  -28.1124  -29.0666   21.1604 H   0  0  0  0  0  0
  -26.0353  -25.9493   19.0202 H   0  0  0  0  0  0
  -23.9747  -27.2867   19.0415 H   0  0  0  0  0  0
  -23.7339  -30.5914   19.4045 H   0  0  0  0  0  0
  -22.7425  -29.2408   19.8674 H   0  0  0  0  0  0
  -25.1284  -36.1961   25.0826 H   0  0  0  0  0  0
  -20.9959  -28.3244   24.1431 H   0  0  0  0  0  0
  -20.5675  -26.2280   23.3606 H   0  0  0  0  0  0
  -21.6639  -26.7450   22.1208 H   0  0  0  0  0  0
  -19.6910  -25.6303   21.1233 H   0  0  0  0  0  0
  -19.6687  -27.3207   20.6749 H   0  0  0  0  0  0
  -17.4196  -26.6673   21.4023 H   0  0  0  0  0  0
  -18.0321  -26.0063   22.9017 H   0  0  0  0  0  0
  -19.7934  -30.7253   24.2286 H   0  0  0  0  0  0
  -17.5016  -31.6267   24.5164 H   0  0  0  0  0  0
  -15.5351  -30.2992   23.7649 H   0  0  0  0  0  0
  -15.8663  -28.0828   22.7056 H   0  0  0  0  0  0
  -24.5914  -30.7048   25.7797 H   0  0  0  0  0  0
  -24.8927  -32.2855   26.4916 H   0  0  0  0  0  0
  -25.8086  -30.8866   27.0219 H   0  0  0  0  0  0
  -26.2865  -29.6786   24.1165 H   0  0  0  0  0  0
  -27.4083  -29.7277   25.4574 H   0  0  0  0  0  0
  -27.8702  -30.4344   23.9264 H   0  0  0  0  0  0
  -27.2673  -33.3604   26.2079 H   0  0  0  0  0  0
  -28.3853  -32.6882   25.0300 H   0  0  0  0  0  0
  -28.0731  -31.8420   26.5380 H   0  0  0  0  0  0
  -28.2599  -38.0102   24.7512 H   0  0  0  0  0  0
  -28.1071  -36.2633   24.6286 H   0  0  0  0  0  0
  -27.2297  -37.1454   25.8868 H   0  0  0  0  0  0
  -20.9323  -29.8756   21.6930 H   0  0  0  0  0  0
  -26.0178  -38.2864   24.1415 H   0  0  0  0  0  0
  -28.8365  -17.9572   19.9121 H   0  0  0  0  0  0
  -31.3040  -20.5636   22.3343 H   0  0  0  0  0  0
  -31.8137  -16.3238   22.5939 H   0  0  0  0  0  0
  -27.1205  -23.6451   20.8932 H   0  0  0  0  0  0
  -27.3278  -24.3021   19.3009 H   0  0  0  0  0  0
  -29.4332  -25.2531   21.1774 H   0  0  0  0  0  0
  -27.8550  -25.5867   21.7919 H   0  0  0  0  0  0
  -29.1710  -20.5308   19.4331 H   0  0  0  0  0  0
  -28.8929  -15.4146   20.8963 H   0  0  0  0  0  0
  1 25  1  0  0  0
  1 30  2  0  0  0
  1 82  1  0  0  0
  2  3  1  0  0  0
  2 25  1  0  0  0
  2 86  1  0  0  0
  2 87  1  0  0  0
  3  4  1  0  0  0
  3 88  1  0  0  0
  3 89  1  0  0  0
  4  5  1  0  0  0
  4 90  1  0  0  0
  4 91  1  0  0  0
  5  6  1  0  0  0
  5 26  1  0  0  0
  5 92  1  0  0  0
  6 25  1  0  0  0
  6 93  1  0  0  0
  6 94  1  0  0  0
  7  8  2  0  0  0
  7 26  1  0  0  0
  7 29  1  0  0  0
  8  9  1  0  0  0
  8 22  1  0  0  0
  9 10  1  0  0  0
  9 27  2  0  0  0
 10 11  2  0  0  0
 10 15  1  0  0  0
 11 12  1  0  0  0
 11 95  1  0  0  0
 12 13  2  0  0  0
 12 96  1  0  0  0
 13 14  1  0  0  0
 13 31  1  0  0  0
 14 15  2  0  0  0
 14 97  1  0  0  0
 15 98  1  0  0  0
 16 17  2  0  0  0
 16 21  1  0  0  0
 16 31  1  0  0  0
 17 18  1  0  0  0
 17 99  1  0  0  0
 18 19  2  0  0  0
 18100  1  0  0  0
 19 20  1  0  0  0
 19 24  1  0  0  0
 20 21  2  0  0  0
 20101  1  0  0  0
 21 23  1  0  0  0
 22 28  1  0  0  0
 22 32  2  0  0  0
 26 27  1  0  0  0
 28102  1  0  0  0
 28103  1  0  0  0
 29104  1  0  0  0
 29105  1  0  0  0
 33 34  1  0  0  0
 33 66  1  0  0  0
 33 70  2  0  0  0
 34 36  1  0  0  0
 34 59  1  0  0  0
 34106  1  0  0  0
 35 44  2  0  0  0
 35 45  1  0  0  0
 35 68  1  0  0  0
 36 56  1  0  0  0
 36107  1  0  0  0
 37 39  1  0  0  0
 37 47  1  0  0  0
 37 66  1  0  0  0
 37108  1  0  0  0
 38 43  2  0  0  0
 38 46  1  0  0  0
 38 47  1  0  0  0
 39 64  1  0  0  0
 39 67  2  0  0  0
 40 52  1  0  0  0
 40 53  2  0  0  0
 40 58  1  0  0  0
 41109  1  0  0  0
 41110  1  0  0  0
 41111  1  0  0  0
 41 48  1  0  0  0
 42 43  1  0  0  0
 42 66  1  0  0  0
 42112  1  0  0  0
 42113  1  0  0  0
 43 44  1  0  0  0
 44114  1  0  0  0
 45 46  2  0  0  0
 45115  1  0  0  0
 46116  1  0  0  0
 47117  1  0  0  0
 47118  1  0  0  0
 48 56  1  0  0  0
 48 65  1  0  0  0
 48119  1  0  0  0
 49 50  1  0  0  0
 49 53  1  0  0  0
 49 64  1  0  0  0
 49120  1  0  0  0
 50 51  1  0  0  0
 50121  1  0  0  0
 50122  1  0  0  0
 51 52  1  0  0  0
 51123  1  0  0  0
 51124  1  0  0  0
 52125  1  0  0  0
 52126  1  0  0  0
 53 54  1  0  0  0
 54 55  2  0  0  0
 54127  1  0  0  0
 55 57  1  0  0  0
 55128  1  0  0  0
 56 69  2  0  0  0
 57 58  2  0  0  0
 57129  1  0  0  0
 58130  1  0  0  0
 59 60  1  0  0  0
 59 61  1  0  0  0
 59 62  1  0  0  0
 60131  1  0  0  0
 60132  1  0  0  0
 60133  1  0  0  0
 61134  1  0  0  0
 61135  1  0  0  0
 61136  1  0  0  0
 62137  1  0  0  0
 62138  1  0  0  0
 62139  1  0  0  0
 63 65  1  0  0  0
 63140  1  0  0  0
 63141  1  0  0  0
 63142  1  0  0  0
 64143  1  0  0  0
 65144  1  0  0  0
 68 80  1  0  0  0
 71 74  2  0  0  0
 71 75  1  0  0  0
 71145  1  0  0  0
 72 74  1  0  0  0
 72 76  2  0  0  0
 72146  1  0  0  0
 73 75  2  0  0  0
 73 76  1  0  0  0
 73147  1  0  0  0
 74 81  1  0  0  0
 75 82  1  0  0  0
 76 85  1  0  0  0
 77 78  1  0  0  0
 77 79  1  0  0  0
 77 83  2  0  0  0
 78 81  1  0  0  0
 78 84  2  0  0  0
 79 80  1  0  0  0
 79148  1  0  0  0
 79149  1  0  0  0
 80150  1  0  0  0
 80151  1  0  0  0
 81152  1  0  0  0
 82153  1  0  0  0
M  ISO  4   1 100  68 101  80 101  82 100
M  END
> <chiral flag>
0

> <version>
0

> <s_m_source_file>
/data/baiqing/PycharmProjects/Reinvent-master-3.2/result/LINK_invent/BTK/process_docking_weight1_custom_product_contain_oxygen_bond_distance_aromatic_linkinvent_7_9_3/rearranged_h_0167.sdf

> <i_m_source_file_index>
32

> <r_mmod_Potential_Energy-OPLS-2005>
32.5722770690918

> <r_mmod_Stretch_Energy-OPLS-2005>
52.0129470825195

> <r_mmod_Bend_Energy-OPLS-2005>
108.620376586914

> <r_mmod_Torsional_Energy-OPLS-2005>
276.145568847656

> <r_mmod_Improper_Torsional_Energy-OPLS-2005>
6.15871238708496

> <r_mmod_Van_der_Waal_Energy-OPLS-2005>
143.513763427734

> <r_mmod_Electrostatic_Energy-OPLS-2005>
-336.976409912109

> <r_mmod_Solvation_Energy-OPLS-2005>
-240.199783325195

> <b_mmod_Minimization_Converged-OPLS-2005>
0

> <r_mmod_RMS_Derivative-OPLS-2005>
0.484956711530685

$$$$
32
                    3D
 Structure written by MMmdl.
153161  0  0  1  0            999 V2000
  -30.3277  -13.9975   21.1345 C   0  0  0  0  0  0
  -30.7353  -12.4307   19.1677 C   0  0  0  0  0  0
  -29.7541  -12.5870   17.9327 C   0  0  0  0  0  0
  -28.2209  -12.6060   18.2109 C   0  0  0  0  0  0
  -28.0551  -13.2869   19.5496 C   0  0  2  0  0  0
  -28.8772  -12.2775   20.4323 C   0  0  0  0  0  0
  -25.9170  -14.2303   20.2482 C   0  0  0  0  0  0
  -24.3639  -13.6208   21.1540 C   0  0  0  0  0  0
  -24.3631  -12.3478   21.5825 C   0  0  0  0  0  0
  -23.8259  -10.8399   21.2772 C   0  0  0  0  0  0
  -24.3097   -9.7173   22.0397 C   0  0  0  0  0  0
  -23.6805   -8.4309   22.0854 C   0  0  0  0  0  0
  -22.5060   -8.1674   21.3453 C   0  0  0  0  0  0
  -22.0921   -9.1959   20.4654 C   0  0  0  0  0  0
  -22.7379  -10.4747   20.4194 C   0  0  0  0  0  0
  -21.7459   -6.1353   22.5004 C   0  0  0  0  0  0
  -21.4462   -6.6054   23.8005 C   0  0  0  0  0  0
  -21.3817   -5.7111   24.8928 C   0  0  0  0  0  0
  -21.6027   -4.3348   24.6991 C   0  0  0  0  0  0
  -21.8714   -3.8514   23.4078 C   0  0  0  0  0  0
  -21.9349   -4.7424   22.3172 C   0  0  0  0  0  0
  -22.7408  -13.9620   21.3745 C   0  0  0  0  0  0
  -22.1740   -4.2467   21.0798 F   0  0  0  0  0  0
  -21.5523   -3.4782   25.7484 F   0  0  0  0  0  0
  -30.1362  -12.8677   20.4359 N   0  0  0  0  0  0
  -26.6088  -13.7333   19.7757 N   0  0  0  0  0  0
  -25.0801  -13.4880   20.8851 N   0  0  0  0  0  0
  -21.9850  -13.1644   22.1528 N   0  0  0  0  0  0
  -26.6333  -15.3523   19.6060 N   0  0  0  0  0  0
  -31.2772  -14.7314   20.7640 O   0  0  0  0  0  0
  -21.7801   -6.9762   21.3958 O   0  0  0  0  0  0
  -22.1389  -14.8472   20.7827 O   0  0  0  0  0  0
  -24.6971  -31.7835   23.1553 C   0  0  0  0  0  0
  -25.9546  -32.4335   23.8023 C   0  0  1  0  0  0
  -26.6569  -26.3367   20.3145 C   0  0  0  0  0  0
  -25.6107  -33.8196   24.1873 N   0  0  0  0  0  0
  -23.5034  -30.4246   21.5158 C   0  0  2  0  0  0
  -24.8660  -28.7495   20.0840 C   0  0  0  0  0  0
  -22.7733  -29.4301   22.4613 C   0  0  0  0  0  0
  -18.0349  -28.1418   22.8457 C   0  0  0  0  0  0
  -24.1513  -36.7113   23.2642 C   0  0  0  0  0  0
  -26.0863  -30.3808   21.4726 C   0  0  0  0  0  0
  -26.0409  -28.9290   20.8151 C   0  0  0  0  0  0
  -26.9594  -27.7344   20.9019 C   0  0  0  0  0  0
  -25.6130  -26.4919   19.4050 C   0  0  0  0  0  0
  -24.7255  -27.5841   19.3296 C   0  0  0  0  0  0
  -23.7430  -29.7849   20.1233 C   0  0  0  0  0  0
  -25.4169  -36.2829   24.0251 C   0  0  1  0  0  0
  -20.5977  -28.3788   23.1119 C   0  0  2  0  0  0
  -20.6805  -26.9433   22.5398 C   0  0  0  0  0  0
  -19.5763  -26.6355   21.5227 C   0  0  0  0  0  0
  -18.1953  -26.7951   22.1629 C   0  0  0  0  0  0
  -19.1610  -28.8927   23.2780 C   0  0  0  0  0  0
  -18.9513  -30.1514   23.8819 C   0  0  0  0  0  0
  -17.6498  -30.6596   24.0549 C   0  0  0  0  0  0
  -25.9172  -34.9220   23.4893 C   0  0  0  0  0  0
  -16.5393  -29.9068   23.6348 C   0  0  0  0  0  0
  -16.7330  -28.6495   23.0361 C   0  0  0  0  0  0
  -26.4643  -31.6498   25.0756 C   0  0  0  0  0  0
  -25.3635  -31.3940   26.1330 C   0  0  0  0  0  0
  -27.0584  -30.2785   24.6915 C   0  0  0  0  0  0
  -27.6070  -32.4412   25.7551 C   0  0  0  0  0  0
  -27.5572  -37.1709   24.8445 C   0  0  0  0  0  0
  -21.4384  -29.3031   22.3409 N   0  0  0  0  0  0
  -26.4267  -37.3623   23.9405 N   0  0  0  0  0  0
  -24.7943  -30.9094   22.0935 N   0  0  0  0  0  0
  -23.4184  -28.7831   23.2902 O   0  0  0  0  0  0
  -27.0963  -24.8084   20.4202 O   0  0  0  0  0  0
  -26.5806  -34.8820   22.4507 O   0  0  0  0  0  0
  -23.5999  -32.1084   23.6444 O   0  0  0  0  0  0
  -25.9513  -15.2037   22.2443 C   0  0  0  0  0  0
  -26.3188  -11.6909   20.5275 C   0  0  0  0  0  0
  -24.1195  -14.6259   19.0283 C   0  0  0  0  0  0
  -26.8965  -13.2599   22.1327 C   0  0  0  0  0  0
  -24.6731  -16.0404   20.7286 C   0  0  0  0  0  0
  -24.8686  -12.5078   18.9258 C   0  0  0  0  0  0
  -28.3061  -13.5270   22.8341 C   0  0  0  0  0  0
  -26.1175  -21.2149   20.2863 C   0  0  0  0  0  0
  -25.4065  -19.4461   20.9332 C   0  0  0  0  0  0
  -26.1622  -23.1755   20.7137 C   0  0  0  0  0  0
  -24.8981  -17.7295   20.4341 N   0  0  0  0  0  0
  -29.4483  -14.1624   22.2412 N   0  0  0  0  0  0
  -28.3226  -13.3591   24.0549 O   0  0  0  0  0  0
  -26.7576  -21.0158   19.2484 O   0  0  0  0  0  0
  -24.5350  -11.7304   17.8671 F   0  0  0  0  0  0
  -31.6625  -12.9729   18.9721 H   0  0  0  0  0  0
  -31.0397  -11.3866   19.2681 H   0  0  0  0  0  0
  -29.9810  -11.8262   17.1833 H   0  0  0  0  0  0
  -30.0063  -13.5345   17.4545 H   0  0  0  0  0  0
  -27.7851  -11.6069   18.1757 H   0  0  0  0  0  0
  -27.7190  -13.1713   17.4252 H   0  0  0  0  0  0
  -28.6133  -14.2076   19.3627 H   0  0  0  0  0  0
  -28.9344  -11.2954   19.9498 H   0  0  0  0  0  0
  -28.6038  -11.7594   21.3399 H   0  0  0  0  0  0
  -25.1464   -9.8846   22.7030 H   0  0  0  0  0  0
  -24.0826   -7.6712   22.7407 H   0  0  0  0  0  0
  -21.2273   -9.0274   19.8386 H   0  0  0  0  0  0
  -22.3105  -11.2379   19.7840 H   0  0  0  0  0  0
  -21.2700   -7.6589   23.9637 H   0  0  0  0  0  0
  -21.1671   -6.0840   25.8839 H   0  0  0  0  0  0
  -22.0270   -2.7956   23.2511 H   0  0  0  0  0  0
  -22.3785  -12.4040   22.6851 H   0  0  0  0  0  0
  -20.9988  -13.3651   22.2457 H   0  0  0  0  0  0
  -26.2227  -16.2813   19.6795 H   0  0  0  0  0  0
  -27.2358  -15.2427   18.8044 H   0  0  0  0  0  0
  -26.7567  -32.4615   23.0641 H   0  0  0  0  0  0
  -25.0171  -33.9196   24.9978 H   0  0  0  0  0  0
  -22.8408  -31.2785   21.3610 H   0  0  0  0  0  0
  -23.3807  -35.9406   23.3193 H   0  0  0  0  0  0
  -24.3578  -36.8912   22.2079 H   0  0  0  0  0  0
  -23.7235  -37.6234   23.6812 H   0  0  0  0  0  0
  -26.3644  -31.0793   20.6829 H   0  0  0  0  0  0
  -26.9276  -30.4015   22.1511 H   0  0  0  0  0  0
  -27.8165  -27.8220   21.5543 H   0  0  0  0  0  0
  -25.3415  -25.6221   18.8240 H   0  0  0  0  0  0
  -23.8578  -27.4805   18.6925 H   0  0  0  0  0  0
  -23.9967  -30.5664   19.4066 H   0  0  0  0  0  0
  -22.8200  -29.3364   19.7534 H   0  0  0  0  0  0
  -25.1377  -36.1557   25.0737 H   0  0  0  0  0  0
  -21.0080  -28.3427   24.1240 H   0  0  0  0  0  0
  -20.5678  -26.2397   23.3664 H   0  0  0  0  0  0
  -21.6657  -26.7361   22.1196 H   0  0  0  0  0  0
  -19.6882  -25.6240   21.1305 H   0  0  0  0  0  0
  -19.6698  -27.3123   20.6721 H   0  0  0  0  0  0
  -17.4219  -26.6737   21.4030 H   0  0  0  0  0  0
  -18.0312  -26.0117   22.9040 H   0  0  0  0  0  0
  -19.7988  -30.7364   24.2134 H   0  0  0  0  0  0
  -17.5042  -31.6257   24.5181 H   0  0  0  0  0  0
  -15.5382  -30.2924   23.7719 H   0  0  0  0  0  0
  -15.8749  -28.0777   22.7099 H   0  0  0  0  0  0
  -24.5842  -30.7264   25.7642 H   0  0  0  0  0  0
  -24.8794  -32.3204   26.4434 H   0  0  0  0  0  0
  -25.7726  -30.9305   27.0315 H   0  0  0  0  0  0
  -26.3286  -29.6286   24.2080 H   0  0  0  0  0  0
  -27.4004  -29.7404   25.5768 H   0  0  0  0  0  0
  -27.9317  -30.3811   24.0471 H   0  0  0  0  0  0
  -27.2612  -33.3819   26.1851 H   0  0  0  0  0  0
  -28.4015  -32.6815   25.0473 H   0  0  0  0  0  0
  -28.0599  -31.8738   26.5692 H   0  0  0  0  0  0
  -28.2498  -38.0092   24.7558 H   0  0  0  0  0  0
  -28.1159  -36.2609   24.6194 H   0  0  0  0  0  0
  -27.2282  -37.1246   25.8842 H   0  0  0  0  0  0
  -20.9655  -29.8771   21.6570 H   0  0  0  0  0  0
  -26.0067  -38.2647   24.1474 H   0  0  0  0  0  0
  -26.4037  -15.9075   22.9266 H   0  0  0  0  0  0
  -26.7807  -10.7204   20.4208 H   0  0  0  0  0  0
  -23.5720  -15.0143   18.1832 H   0  0  0  0  0  0
  -24.5203  -19.7804   21.4734 H   0  0  0  0  0  0
  -26.1150  -19.2257   21.7312 H   0  0  0  0  0  0
  -26.1641  -23.1367   21.8026 H   0  0  0  0  0  0
  -25.1395  -23.4678   20.4763 H   0  0  0  0  0  0
  -24.4674  -17.8851   19.5240 H   0  0  0  0  0  0
  -29.8603  -14.8135   22.8879 H   0  0  0  0  0  0
  1 25  1  0  0  0
  1 30  2  0  0  0
  1 82  1  0  0  0
  2  3  1  0  0  0
  2 25  1  0  0  0
  2 86  1  0  0  0
  2 87  1  0  0  0
  3  4  1  0  0  0
  3 88  1  0  0  0
  3 89  1  0  0  0
  4  5  1  0  0  0
  4 90  1  0  0  0
  4 91  1  0  0  0
  5  6  1  0  0  0
  5 26  1  0  0  0
  5 92  1  0  0  0
  6 25  1  0  0  0
  6 93  1  0  0  0
  6 94  1  0  0  0
  7  8  2  0  0  0
  7 26  1  0  0  0
  7 29  1  0  0  0
  8  9  1  0  0  0
  8 22  1  0  0  0
  9 10  1  0  0  0
  9 27  2  0  0  0
 10 11  2  0  0  0
 10 15  1  0  0  0
 11 12  1  0  0  0
 11 95  1  0  0  0
 12 13  2  0  0  0
 12 96  1  0  0  0
 13 14  1  0  0  0
 13 31  1  0  0  0
 14 15  2  0  0  0
 14 97  1  0  0  0
 15 98  1  0  0  0
 16 17  2  0  0  0
 16 21  1  0  0  0
 16 31  1  0  0  0
 17 18  1  0  0  0
 17 99  1  0  0  0
 18 19  2  0  0  0
 18100  1  0  0  0
 19 20  1  0  0  0
 19 24  1  0  0  0
 20 21  2  0  0  0
 20101  1  0  0  0
 21 23  1  0  0  0
 22 28  1  0  0  0
 22 32  2  0  0  0
 26 27  1  0  0  0
 28102  1  0  0  0
 28103  1  0  0  0
 29104  1  0  0  0
 29105  1  0  0  0
 33 34  1  0  0  0
 33 66  1  0  0  0
 33 70  2  0  0  0
 34 36  1  0  0  0
 34 59  1  0  0  0
 34106  1  0  0  0
 35 44  2  0  0  0
 35 45  1  0  0  0
 35 68  1  0  0  0
 36 56  1  0  0  0
 36107  1  0  0  0
 37 39  1  0  0  0
 37 47  1  0  0  0
 37 66  1  0  0  0
 37108  1  0  0  0
 38 43  2  0  0  0
 38 46  1  0  0  0
 38 47  1  0  0  0
 39 64  1  0  0  0
 39 67  2  0  0  0
 40 52  1  0  0  0
 40 53  2  0  0  0
 40 58  1  0  0  0
 41109  1  0  0  0
 41110  1  0  0  0
 41111  1  0  0  0
 41 48  1  0  0  0
 42 43  1  0  0  0
 42 66  1  0  0  0
 42112  1  0  0  0
 42113  1  0  0  0
 43 44  1  0  0  0
 44114  1  0  0  0
 45 46  2  0  0  0
 45115  1  0  0  0
 46116  1  0  0  0
 47117  1  0  0  0
 47118  1  0  0  0
 48 56  1  0  0  0
 48 65  1  0  0  0
 48119  1  0  0  0
 49 50  1  0  0  0
 49 53  1  0  0  0
 49 64  1  0  0  0
 49120  1  0  0  0
 50 51  1  0  0  0
 50121  1  0  0  0
 50122  1  0  0  0
 51 52  1  0  0  0
 51123  1  0  0  0
 51124  1  0  0  0
 52125  1  0  0  0
 52126  1  0  0  0
 53 54  1  0  0  0
 54 55  2  0  0  0
 54127  1  0  0  0
 55 57  1  0  0  0
 55128  1  0  0  0
 56 69  2  0  0  0
 57 58  2  0  0  0
 57129  1  0  0  0
 58130  1  0  0  0
 59 60  1  0  0  0
 59 61  1  0  0  0
 59 62  1  0  0  0
 60131  1  0  0  0
 60132  1  0  0  0
 60133  1  0  0  0
 61134  1  0  0  0
 61135  1  0  0  0
 61136  1  0  0  0
 62137  1  0  0  0
 62138  1  0  0  0
 62139  1  0  0  0
 63 65  1  0  0  0
 63140  1  0  0  0
 63141  1  0  0  0
 63142  1  0  0  0
 64143  1  0  0  0
 65144  1  0  0  0
 68 80  1  0  0  0
 71 74  2  0  0  0
 71 75  1  0  0  0
 71145  1  0  0  0
 72 74  1  0  0  0
 72 76  2  0  0  0
 72146  1  0  0  0
 73 75  2  0  0  0
 73 76  1  0  0  0
 73147  1  0  0  0
 74 77  1  0  0  0
 75 81  1  0  0  0
 76 85  1  0  0  0
 77 82  1  0  0  0
 77 83  2  0  0  0
 78 79  1  0  0  0
 78 80  1  0  0  0
 78 84  2  0  0  0
 79 81  1  0  0  0
 79148  1  0  0  0
 79149  1  0  0  0
 80150  1  0  0  0
 80151  1  0  0  0
 81152  1  0  0  0
 82153  1  0  0  0
M  ISO  4   1 100  68 101  80 101  82 100
M  END
> <chiral flag>
0

> <version>
0

> <s_m_source_file>
/data/baiqing/PycharmProjects/Reinvent-master-3.2/result/LINK_invent/BTK/process_docking_weight1_custom_product_contain_oxygen_bond_distance_aromatic_linkinvent_7_9_3/rearranged_h_0167.sdf

> <i_m_source_file_index>
33

> <r_mmod_Potential_Energy-OPLS-2005>
21066.96484375

> <r_mmod_Stretch_Energy-OPLS-2005>
11874.7373046875

> <r_mmod_Bend_Energy-OPLS-2005>
2565.81591796875

> <r_mmod_Torsional_Energy-OPLS-2005>
559.314331054688

> <r_mmod_Improper_Torsional_Energy-OPLS-2005>
79.475830078125

> <r_mmod_Van_der_Waal_Energy-OPLS-2005>
4331.7861328125

> <r_mmod_Electrostatic_Energy-OPLS-2005>
-463.892181396484

> <r_mmod_Solvation_Energy-OPLS-2005>
-247.25212097168

> <b_mmod_Minimization_Converged-OPLS-2005>
0

> <r_mmod_RMS_Derivative-OPLS-2005>
3.52106857299805

$$$$
33
                    3D
 Structure written by MMmdl.
154162  0  0  1  0            999 V2000
  -29.5016  -13.8719   21.3767 C   0  0  0  0  0  0
  -30.5990  -12.6072   19.3587 C   0  0  0  0  0  0
  -29.8017  -12.7322   17.9889 C   0  0  0  0  0  0
  -28.2381  -12.7202   18.0341 C   0  0  0  0  0  0
  -27.8270  -13.3238   19.3524 C   0  0  2  0  0  0
  -28.5839  -12.2291   20.2422 C   0  0  0  0  0  0
  -25.4323  -14.5200   19.6170 C   0  0  0  0  0  0
  -24.2265  -13.9128   19.8034 C   0  0  0  0  0  0
  -25.0507  -12.8952   20.4184 C   0  0  0  0  0  0
  -24.3832  -11.1049   22.6391 C   0  0  0  0  0  0
  -24.7788   -9.6182   22.7749 C   0  0  0  0  0  0
  -24.1406   -8.3328   22.3248 C   0  0  0  0  0  0
  -22.8163   -8.2241   21.8046 C   0  0  0  0  0  0
  -22.2253   -9.4631   21.9107 C   0  0  0  0  0  0
  -22.9324  -10.4726   22.7647 C   0  0  0  0  0  0
  -21.8225   -6.1555   22.5464 C   0  0  0  0  0  0
  -21.4724   -6.5948   23.8446 C   0  0  0  0  0  0
  -21.3653   -5.6816   24.9143 C   0  0  0  0  0  0
  -21.5793   -4.3094   24.7009 C   0  0  0  0  0  0
  -21.8475   -3.8472   23.3999 C   0  0  0  0  0  0
  -21.9533   -4.7596   22.3286 C   0  0  0  0  0  0
  -22.7489  -14.4878   20.1394 C   0  0  0  0  0  0
  -22.2004   -4.2806   21.0858 F   0  0  0  0  0  0
  -21.5325   -3.4412   25.7414 F   0  0  0  0  0  0
  -29.7404  -12.8570   20.5264 N   0  0  0  0  0  0
  -26.4251  -13.5352   19.5111 N   0  0  0  0  0  0
  -25.7523  -12.5436   19.3248 N   0  0  0  0  0  0
  -21.6503  -13.8345   20.6294 N   0  0  0  0  0  0
  -25.7727  -15.8102   19.4901 N   0  0  0  0  0  0
  -30.4554  -14.7163   21.2476 O   0  0  0  0  0  0
  -22.0679   -7.0670   21.5212 O   0  0  0  0  0  0
  -22.5742  -15.6571   20.2458 O   0  0  0  0  0  0
  -24.7222  -31.7351   23.1227 C   0  0  0  0  0  0
  -25.9638  -32.4092   23.7870 C   0  0  1  0  0  0
  -26.5747  -25.8534   20.6549 C   0  0  0  0  0  0
  -25.6050  -33.7992   24.1640 N   0  0  0  0  0  0
  -23.5483  -30.3419   21.4833 C   0  0  2  0  0  0
  -24.9215  -28.5351   20.1410 C   0  0  0  0  0  0
  -22.7789  -29.4018   22.4528 C   0  0  0  0  0  0
  -18.0318  -28.1437   22.8420 C   0  0  0  0  0  0
  -24.1504  -36.7002   23.2661 C   0  0  0  0  0  0
  -26.1172  -30.1756   21.5300 C   0  0  0  0  0  0
  -26.0478  -28.6567   20.9491 C   0  0  0  0  0  0
  -26.8604  -27.3522   21.1603 C   0  0  0  0  0  0
  -25.6544  -26.1634   19.5998 C   0  0  0  0  0  0
  -24.8414  -27.3406   19.4023 C   0  0  0  0  0  0
  -23.8228  -29.6277   20.1178 C   0  0  0  0  0  0
  -25.4176  -36.2686   24.0230 C   0  0  1  0  0  0
  -20.5947  -28.3797   23.1060 C   0  0  2  0  0  0
  -20.6767  -26.9426   22.5415 C   0  0  0  0  0  0
  -19.5770  -26.6340   21.5212 C   0  0  0  0  0  0
  -18.1940  -26.7951   22.1586 C   0  0  0  0  0  0
  -19.1591  -28.8945   23.2717 C   0  0  0  0  0  0
  -18.9510  -30.1518   23.8785 C   0  0  0  0  0  0
  -17.6507  -30.6617   24.0540 C   0  0  0  0  0  0
  -25.9193  -34.9092   23.4806 C   0  0  0  0  0  0
  -16.5386  -29.9106   23.6372 C   0  0  0  0  0  0
  -16.7298  -28.6532   23.0372 C   0  0  0  0  0  0
  -26.4668  -31.6436   25.0751 C   0  0  0  0  0  0
  -25.3591  -31.3970   26.1262 C   0  0  0  0  0  0
  -27.0718  -30.2708   24.7199 C   0  0  0  0  0  0
  -27.6000  -32.4479   25.7547 C   0  0  0  0  0  0
  -27.5545  -37.1657   24.8461 C   0  0  0  0  0  0
  -21.4412  -29.2958   22.3290 N   0  0  0  0  0  0
  -26.4243  -37.3522   23.9404 N   0  0  0  0  0  0
  -24.8330  -30.8135   22.0893 N   0  0  0  0  0  0
  -23.4052  -28.7650   23.3040 O   0  0  0  0  0  0
  -26.9720  -24.1913   20.9944 O   0  0  0  0  0  0
  -26.5907  -34.8770   22.4478 O   0  0  0  0  0  0
  -23.6177  -32.0860   23.5796 O   0  0  0  0  0  0
  -26.3227  -11.2824   21.3948 C   0  0  0  0  0  0
  -24.7032  -10.6769   20.4630 C   0  0  0  0  0  0
  -23.6806  -13.2905   22.2086 C   0  0  0  0  0  0
  -25.2752  -14.2285   22.4110 C   0  0  0  0  0  0
  -26.6034  -12.9970   22.1792 C   0  0  0  0  0  0
  -23.2038  -11.8034   20.8521 C   0  0  0  0  0  0
  -26.3306  -22.4098   21.1401 C   0  0  0  0  0  0
  -26.5173  -20.7650   21.7387 C   0  0  0  0  0  0
  -26.1943  -18.6081   22.1558 C   0  0  0  0  0  0
  -28.2418  -14.7546   23.2760 C   0  0  0  0  0  0
  -25.4280  -16.4874   22.1187 C   0  0  0  0  0  0
  -28.1559  -13.7756   22.1935 N   0  0  0  0  0  0
  -27.0423  -18.4488   23.0422 O   0  0  0  0  0  0
  -27.6157  -20.8912   22.4925 O   0  0  0  0  0  0
  -21.9703  -11.4800   20.3625 F   0  0  0  0  0  0
  -31.4486  -13.2904   19.3649 H   0  0  0  0  0  0
  -31.0173  -11.6047   19.4546 H   0  0  0  0  0  0
  -30.1684  -11.9851   17.2838 H   0  0  0  0  0  0
  -30.0869  -13.6914   17.5531 H   0  0  0  0  0  0
  -27.8425  -11.7155   17.8723 H   0  0  0  0  0  0
  -27.8412  -13.3129   17.2088 H   0  0  0  0  0  0
  -28.2259  -14.3420   19.3298 H   0  0  0  0  0  0
  -28.6997  -11.2596   19.7435 H   0  0  0  0  0  0
  -28.4889  -11.7890   21.2151 H   0  0  0  0  0  0
  -25.8036   -9.4607   23.0819 H   0  0  0  0  0  0
  -24.7100   -7.4279   22.4592 H   0  0  0  0  0  0
  -21.1549   -9.5240   21.7784 H   0  0  0  0  0  0
  -22.2190  -11.2120   23.1105 H   0  0  0  0  0  0
  -21.3284   -7.6464   24.0416 H   0  0  0  0  0  0
  -21.1439   -6.0380   25.9089 H   0  0  0  0  0  0
  -21.9825   -2.7902   23.2282 H   0  0  0  0  0  0
  -21.6078  -12.8155   20.6093 H   0  0  0  0  0  0
  -20.8223  -14.3544   20.8733 H   0  0  0  0  0  0
  -25.0675  -16.5030   19.2812 H   0  0  0  0  0  0
  -26.6762  -16.0599   19.1071 H   0  0  0  0  0  0
  -26.7719  -32.4343   23.0548 H   0  0  0  0  0  0
  -25.0027  -33.8975   24.9674 H   0  0  0  0  0  0
  -22.9089  -31.2033   21.2796 H   0  0  0  0  0  0
  -23.3795  -35.9298   23.3218 H   0  0  0  0  0  0
  -24.3544  -36.8811   22.2094 H   0  0  0  0  0  0
  -23.7234  -37.6117   23.6862 H   0  0  0  0  0  0
  -26.4219  -30.8096   20.6967 H   0  0  0  0  0  0
  -26.9529  -30.2393   22.2080 H   0  0  0  0  0  0
  -27.6459  -27.4359   21.8968 H   0  0  0  0  0  0
  -25.3714  -25.3184   18.9882 H   0  0  0  0  0  0
  -24.0456  -27.2585   18.6761 H   0  0  0  0  0  0
  -24.1167  -30.3755   19.3810 H   0  0  0  0  0  0
  -22.8963  -29.1925   19.7402 H   0  0  0  0  0  0
  -25.1410  -36.1369   25.0717 H   0  0  0  0  0  0
  -21.0035  -28.3492   24.1179 H   0  0  0  0  0  0
  -20.5585  -26.2444   23.3713 H   0  0  0  0  0  0
  -21.6633  -26.7306   22.1267 H   0  0  0  0  0  0
  -19.6937  -25.6221   21.1325 H   0  0  0  0  0  0
  -19.6755  -27.3075   20.6689 H   0  0  0  0  0  0
  -17.4221  -26.6675   21.3981 H   0  0  0  0  0  0
  -18.0320  -26.0121   22.9007 H   0  0  0  0  0  0
  -19.7996  -30.7346   24.2107 H   0  0  0  0  0  0
  -17.5071  -31.6283   24.5161 H   0  0  0  0  0  0
  -15.5392  -30.2986   23.7769 H   0  0  0  0  0  0
  -15.8677  -28.0827   22.7162 H   0  0  0  0  0  0
  -24.5841  -30.7231   25.7593 H   0  0  0  0  0  0
  -24.8714  -32.3259   26.4234 H   0  0  0  0  0  0
  -25.7634  -30.9459   27.0329 H   0  0  0  0  0  0
  -26.3499  -29.6010   24.2527 H   0  0  0  0  0  0
  -27.4132  -29.7564   25.6190 H   0  0  0  0  0  0
  -27.9506  -30.3659   24.0820 H   0  0  0  0  0  0
  -27.2466  -33.3942   26.1660 H   0  0  0  0  0  0
  -28.4014  -32.6780   25.0512 H   0  0  0  0  0  0
  -28.0446  -31.8959   26.5837 H   0  0  0  0  0  0
  -28.2482  -38.0023   24.7517 H   0  0  0  0  0  0
  -28.1118  -36.2534   24.6279 H   0  0  0  0  0  0
  -27.2258  -37.1263   25.8861 H   0  0  0  0  0  0
  -20.9787  -29.8578   21.6274 H   0  0  0  0  0  0
  -26.0011  -38.2542   24.1435 H   0  0  0  0  0  0
  -27.0876  -10.5246   21.3260 H   0  0  0  0  0  0
  -24.6273   -9.7646   19.8897 H   0  0  0  0  0  0
  -22.8562  -13.8393   22.6406 H   0  0  0  0  0  0
  -25.4266  -22.4403   20.5460 H   0  0  0  0  0  0
  -28.2845  -15.7774   22.8969 H   0  0  0  0  0  0
  -29.1435  -14.5737   23.8641 H   0  0  0  0  0  0
  -27.4025  -14.6808   23.9689 H   0  0  0  0  0  0
  -24.6008  -16.6436   21.4297 H   0  0  0  0  0  0
  -26.3696  -16.2957   21.6129 H   0  0  0  0  0  0
  -27.7095  -20.0463   22.9357 H   0  0  0  0  0  0
  1 25  1  0  0  0
  1 30  2  0  0  0
  1 82  1  0  0  0
  2  3  1  0  0  0
  2 25  1  0  0  0
  2 86  1  0  0  0
  2 87  1  0  0  0
  3  4  1  0  0  0
  3 88  1  0  0  0
  3 89  1  0  0  0
  4  5  1  0  0  0
  4 90  1  0  0  0
  4 91  1  0  0  0
  5  6  1  0  0  0
  5 26  1  0  0  0
  5 92  1  0  0  0
  6 25  1  0  0  0
  6 93  1  0  0  0
  6 94  1  0  0  0
  7  8  2  0  0  0
  7 26  1  0  0  0
  7 29  1  0  0  0
  8  9  1  0  0  0
  8 22  1  0  0  0
  9 10  1  0  0  0
  9 27  2  0  0  0
 10 11  2  0  0  0
 10 15  1  0  0  0
 11 12  1  0  0  0
 11 95  1  0  0  0
 12 13  2  0  0  0
 12 96  1  0  0  0
 13 14  1  0  0  0
 13 31  1  0  0  0
 14 15  2  0  0  0
 14 97  1  0  0  0
 15 98  1  0  0  0
 16 17  2  0  0  0
 16 21  1  0  0  0
 16 31  1  0  0  0
 17 18  1  0  0  0
 17 99  1  0  0  0
 18 19  2  0  0  0
 18100  1  0  0  0
 19 20  1  0  0  0
 19 24  1  0  0  0
 20 21  2  0  0  0
 20101  1  0  0  0
 21 23  1  0  0  0
 22 28  1  0  0  0
 22 32  2  0  0  0
 26 27  1  0  0  0
 28102  1  0  0  0
 28103  1  0  0  0
 29104  1  0  0  0
 29105  1  0  0  0
 33 34  1  0  0  0
 33 66  1  0  0  0
 33 70  2  0  0  0
 34 36  1  0  0  0
 34 59  1  0  0  0
 34106  1  0  0  0
 35 44  2  0  0  0
 35 45  1  0  0  0
 35 68  1  0  0  0
 36 56  1  0  0  0
 36107  1  0  0  0
 37 39  1  0  0  0
 37 47  1  0  0  0
 37 66  1  0  0  0
 37108  1  0  0  0
 38 43  2  0  0  0
 38 46  1  0  0  0
 38 47  1  0  0  0
 39 64  1  0  0  0
 39 67  2  0  0  0
 40 52  1  0  0  0
 40 53  2  0  0  0
 40 58  1  0  0  0
 41109  1  0  0  0
 41110  1  0  0  0
 41111  1  0  0  0
 41 48  1  0  0  0
 42 43  1  0  0  0
 42 66  1  0  0  0
 42112  1  0  0  0
 42113  1  0  0  0
 43 44  1  0  0  0
 44114  1  0  0  0
 45 46  2  0  0  0
 45115  1  0  0  0
 46116  1  0  0  0
 47117  1  0  0  0
 47118  1  0  0  0
 48 56  1  0  0  0
 48 65  1  0  0  0
 48119  1  0  0  0
 49 50  1  0  0  0
 49 53  1  0  0  0
 49 64  1  0  0  0
 49120  1  0  0  0
 50 51  1  0  0  0
 50121  1  0  0  0
 50122  1  0  0  0
 51 52  1  0  0  0
 51123  1  0  0  0
 51124  1  0  0  0
 52125  1  0  0  0
 52126  1  0  0  0
 53 54  1  0  0  0
 54 55  2  0  0  0
 54127  1  0  0  0
 55 57  1  0  0  0
 55128  1  0  0  0
 56 69  2  0  0  0
 57 58  2  0  0  0
 57129  1  0  0  0
 58130  1  0  0  0
 59 60  1  0  0  0
 59 61  1  0  0  0
 59 62  1  0  0  0
 60131  1  0  0  0
 60132  1  0  0  0
 60133  1  0  0  0
 61134  1  0  0  0
 61135  1  0  0  0
 61136  1  0  0  0
 62137  1  0  0  0
 62138  1  0  0  0
 62139  1  0  0  0
 63 65  1  0  0  0
 63140  1  0  0  0
 63141  1  0  0  0
 63142  1  0  0  0
 64143  1  0  0  0
 65144  1  0  0  0
 68 77  1  0  0  0
 71 72  2  0  0  0
 71 75  1  0  0  0
 71145  1  0  0  0
 72 76  1  0  0  0
 72146  1  0  0  0
 73 74  1  0  0  0
 73 76  2  0  0  0
 73147  1  0  0  0
 74 75  2  0  0  0
 74 81  1  0  0  0
 75 82  1  0  0  0
 76 85  1  0  0  0
 77 78  2  0  0  0
 77148  1  0  0  0
 78 79  1  0  0  0
 78 84  1  0  0  0
 79 81  1  0  0  0
 79 83  2  0  0  0
 80 82  1  0  0  0
 80149  1  0  0  0
 80150  1  0  0  0
 80151  1  0  0  0
 81152  1  0  0  0
 81153  1  0  0  0
 84154  1  0  0  0
M  ISO  4   1 100  68 101  77 101  82 100
M  END
> <chiral flag>
0

> <version>
0

> <s_m_source_file>
/data/baiqing/PycharmProjects/Reinvent-master-3.2/result/LINK_invent/BTK/process_docking_weight1_custom_product_contain_oxygen_bond_distance_aromatic_linkinvent_7_9_3/rearranged_h_0167.sdf

> <i_m_source_file_index>
34

> <r_mmod_Potential_Energy-OPLS-2005>
21801.97265625

> <r_mmod_Stretch_Energy-OPLS-2005>
10541.3837890625

> <r_mmod_Bend_Energy-OPLS-2005>
1948.9189453125

> <r_mmod_Torsional_Energy-OPLS-2005>
745.665100097656

> <r_mmod_Improper_Torsional_Energy-OPLS-2005>
85.4447174072266

> <r_mmod_Van_der_Waal_Energy-OPLS-2005>
3397.37475585938

> <r_mmod_Electrostatic_Energy-OPLS-2005>
-373.558197021484

> <r_mmod_Solvation_Energy-OPLS-2005>
-199.762390136719

> <b_mmod_Minimization_Converged-OPLS-2005>
0

> <r_mmod_RMS_Derivative-OPLS-2005>
8.28050994873047

$$$$
34
                    3D
 Structure written by MMmdl.
159167  0  0  1  0            999 V2000
  -30.7081  -14.5690   20.6062 C   0  0  0  0  0  0
  -30.4190  -12.3909   19.4366 C   0  0  0  0  0  0
  -29.4853  -12.5150   18.2174 C   0  0  0  0  0  0
  -28.0169  -12.3438   18.6427 C   0  0  0  0  0  0
  -27.6513  -13.2146   19.8749 C   0  0  2  0  0  0
  -28.6981  -13.0495   21.0003 C   0  0  0  0  0  0
  -25.2466  -13.8066   20.5572 C   0  0  0  0  0  0
  -24.1766  -13.0357   20.9194 C   0  0  0  0  0  0
  -24.6377  -11.6857   20.8789 C   0  0  0  0  0  0
  -23.9056  -10.4257   21.0422 C   0  0  0  0  0  0
  -24.3604   -9.4180   21.9202 C   0  0  0  0  0  0
  -23.6279   -8.2213   22.0765 C   0  0  0  0  0  0
  -22.4264   -8.0259   21.3536 C   0  0  0  0  0  0
  -21.9898   -9.0245   20.4648 C   0  0  0  0  0  0
  -22.7228  -10.2123   20.3074 C   0  0  0  0  0  0
  -21.6846   -6.0721   22.5286 C   0  0  0  0  0  0
  -21.4005   -6.5630   23.8218 C   0  0  0  0  0  0
  -21.3658   -5.6787   24.9177 C   0  0  0  0  0  0
  -21.6041   -4.3053   24.7235 C   0  0  0  0  0  0
  -21.8816   -3.8138   23.4361 C   0  0  0  0  0  0
  -21.9191   -4.6949   22.3407 C   0  0  0  0  0  0
  -22.7809  -13.5198   21.1893 C   0  0  0  0  0  0
  -22.1668   -4.2133   21.0992 F   0  0  0  0  0  0
  -21.5628   -3.4547   25.7752 F   0  0  0  0  0  0
  -30.0118  -13.3989   20.4409 N   0  0  0  0  0  0
  -26.2955  -12.9299   20.3372 N   0  0  0  0  0  0
  -25.9322  -11.6461   20.5841 N   0  0  0  0  0  0
  -22.0460  -12.8227   22.0494 N   0  0  0  0  0  0
  -25.4107  -15.1712   20.3759 N   0  0  0  0  0  0
  -31.7958  -14.7303   20.0413 O   0  0  0  0  0  0
  -21.6623   -6.8855   21.4243 O   0  0  0  0  0  0
  -22.3468  -14.5479   20.6722 O   0  0  0  0  0  0
  -24.6212  -31.8627   23.2054 C   0  0  0  0  0  0
  -25.9070  -32.4793   23.8377 C   0  0  1  0  0  0
  -27.2263  -27.3759   20.1016 C   0  0  0  0  0  0
  -25.5901  -33.8590   24.2303 N   0  0  0  0  0  0
  -23.4127  -30.4868   21.5491 C   0  0  2  0  0  0
  -24.8583  -28.9422   20.1150 C   0  0  0  0  0  0
  -22.7449  -29.4643   22.4980 C   0  0  0  0  0  0
  -18.0289  -28.1368   22.8461 C   0  0  0  0  0  0
  -24.1483  -36.7314   23.2642 C   0  0  0  0  0  0
  -25.9495  -30.8117   21.3634 C   0  0  0  0  0  0
  -26.0248  -29.4420   20.7090 C   0  0  0  0  0  0
  -27.2163  -28.6695   20.6908 C   0  0  0  0  0  0
  -26.0417  -26.9053   19.5014 C   0  0  0  0  0  0
  -24.8633  -27.6749   19.5076 C   0  0  0  0  0  0
  -23.6232  -29.8161   20.1659 C   0  0  0  0  0  0
  -25.4104  -36.3097   24.0334 C   0  0  1  0  0  0
  -20.5876  -28.3676   23.1315 C   0  0  2  0  0  0
  -20.6778  -26.9365   22.5494 C   0  0  0  0  0  0
  -19.5809  -26.6332   21.5238 C   0  0  0  0  0  0
  -18.1953  -26.7921   22.1567 C   0  0  0  0  0  0
  -19.1540  -28.8837   23.2870 C   0  0  0  0  0  0
  -18.9442  -30.1436   23.8889 C   0  0  0  0  0  0
  -17.6439  -30.6562   24.0546 C   0  0  0  0  0  0
  -25.9032  -34.9467   23.5121 C   0  0  0  0  0  0
  -16.5339  -29.9053   23.6308 C   0  0  0  0  0  0
  -16.7279  -28.6481   23.0312 C   0  0  0  0  0  0
  -26.4472  -31.6595   25.0735 C   0  0  0  0  0  0
  -25.3739  -31.3726   26.1486 C   0  0  0  0  0  0
  -27.0297  -30.3032   24.6151 C   0  0  0  0  0  0
  -27.6033  -32.4328   25.7496 C   0  0  0  0  0  0
  -27.5575  -37.1812   24.8462 C   0  0  0  0  0  0
  -21.4173  -29.3003   22.3682 N   0  0  0  0  0  0
  -26.4289  -37.3789   23.9405 N   0  0  0  0  0  0
  -24.6813  -31.0691   22.0974 N   0  0  0  0  0  0
  -23.4195  -28.8190   23.3038 O   0  0  0  0  0  0
  -28.3593  -26.5761   20.0692 O   0  0  0  0  0  0
  -26.5608  -34.8922   22.4688 O   0  0  0  0  0  0
  -23.5381  -32.1393   23.7404 O   0  0  0  0  0  0
  -27.6027  -18.8823   21.2511 C   0  0  0  0  0  0
  -28.0381  -16.5135   21.6218 C   0  0  0  0  0  0
  -29.8372  -17.9742   20.8480 C   0  0  0  0  0  0
  -28.9432  -19.1057   20.8801 C   0  0  0  0  0  0
  -29.3879  -16.6505   21.2252 C   0  0  0  0  0  0
  -27.1588  -17.6096   21.6315 C   0  0  0  0  0  0
  -28.8184  -22.8213   20.6972 C   0  0  0  0  0  0
  -28.3247  -23.9859   20.1679 C   0  0  0  0  0  0
  -28.6887  -21.4797   20.0936 C   0  0  0  0  0  0
  -31.2795  -18.1998   20.4294 C   0  0  0  0  0  0
  -31.1662  -15.7301   22.6359 C   0  0  0  0  0  0
  -28.3244  -25.3676   20.8843 C   0  0  0  0  0  0
  -29.3630  -20.4891   20.7408 N   0  0  0  0  0  0
  -30.2635  -15.5145   21.5012 N   0  0  0  0  0  0
  -28.0182  -21.2487   19.0826 O   0  0  0  0  0  0
  -27.7472  -24.0815   18.9559 O   0  0  0  0  0  0
  -25.8842  -17.4525   22.0632 F   0  0  0  0  0  0
  -31.4565  -12.5051   19.1177 H   0  0  0  0  0  0
  -30.3551  -11.3888   19.8630 H   0  0  0  0  0  0
  -29.7425  -11.7635   17.4696 H   0  0  0  0  0  0
  -29.6154  -13.4862   17.7374 H   0  0  0  0  0  0
  -27.8657  -11.2898   18.8805 H   0  0  0  0  0  0
  -27.3504  -12.5622   17.8082 H   0  0  0  0  0  0
  -27.6766  -14.2522   19.5433 H   0  0  0  0  0  0
  -28.7094  -12.0197   21.3581 H   0  0  0  0  0  0
  -28.4554  -13.6453   21.8759 H   0  0  0  0  0  0
  -25.2742   -9.5652   22.4785 H   0  0  0  0  0  0
  -23.9982   -7.4605   22.7492 H   0  0  0  0  0  0
  -21.0824   -8.8777   19.8957 H   0  0  0  0  0  0
  -22.3691  -10.9672   19.6195 H   0  0  0  0  0  0
  -21.1989   -7.6146   23.9712 H   0  0  0  0  0  0
  -21.1489   -6.0528   25.9079 H   0  0  0  0  0  0
  -22.0593   -2.7608   23.2877 H   0  0  0  0  0  0
  -22.4062  -11.9914   22.4925 H   0  0  0  0  0  0
  -21.1123  -13.1311   22.2745 H   0  0  0  0  0  0
  -24.6924  -15.8410   20.6274 H   0  0  0  0  0  0
  -26.2966  -15.6087   20.1615 H   0  0  0  0  0  0
  -26.7155  -32.5479   23.1139 H   0  0  0  0  0  0
  -25.0035  -33.9759   25.0440 H   0  0  0  0  0  0
  -22.7048  -31.3064   21.4056 H   0  0  0  0  0  0
  -23.3735  -35.9657   23.3309 H   0  0  0  0  0  0
  -24.3582  -36.8929   22.2057 H   0  0  0  0  0  0
  -23.7244  -37.6525   23.6659 H   0  0  0  0  0  0
  -26.0709  -31.5764   20.5935 H   0  0  0  0  0  0
  -26.8348  -30.8650   21.9870 H   0  0  0  0  0  0
  -28.1179  -29.0574   21.1418 H   0  0  0  0  0  0
  -26.0244  -25.9381   19.0222 H   0  0  0  0  0  0
  -23.9629  -27.2891   19.0489 H   0  0  0  0  0  0
  -23.7391  -30.5904   19.4061 H   0  0  0  0  0  0
  -22.7437  -29.2415   19.8689 H   0  0  0  0  0  0
  -25.1278  -36.1964   25.0829 H   0  0  0  0  0  0
  -20.9967  -28.3298   24.1435 H   0  0  0  0  0  0
  -20.5632  -26.2274   23.3699 H   0  0  0  0  0  0
  -21.6674  -26.7362   22.1353 H   0  0  0  0  0  0
  -19.6962  -25.6219   21.1326 H   0  0  0  0  0  0
  -19.6843  -27.3089   20.6741 H   0  0  0  0  0  0
  -17.4256  -26.6730   21.3922 H   0  0  0  0  0  0
  -18.0277  -26.0054   22.8934 H   0  0  0  0  0  0
  -19.7923  -30.7247   24.2254 H   0  0  0  0  0  0
  -17.4992  -31.6239   24.5137 H   0  0  0  0  0  0
  -15.5333  -30.2939   23.7618 H   0  0  0  0  0  0
  -15.8689  -28.0800   22.6993 H   0  0  0  0  0  0
  -24.5880  -30.7101   25.7842 H   0  0  0  0  0  0
  -24.8959  -32.2887   26.4971 H   0  0  0  0  0  0
  -25.8085  -30.8872   27.0230 H   0  0  0  0  0  0
  -26.2852  -29.6805   24.1174 H   0  0  0  0  0  0
  -27.4015  -29.7264   25.4628 H   0  0  0  0  0  0
  -27.8711  -30.4336   23.9339 H   0  0  0  0  0  0
  -27.2639  -33.3612   26.2101 H   0  0  0  0  0  0
  -28.3823  -32.6919   25.0317 H   0  0  0  0  0  0
  -28.0726  -31.8446   26.5393 H   0  0  0  0  0  0
  -28.2597  -38.0110   24.7497 H   0  0  0  0  0  0
  -28.1069  -36.2634   24.6287 H   0  0  0  0  0  0
  -27.2303  -37.1463   25.8875 H   0  0  0  0  0  0
  -20.9349  -29.8669   21.6846 H   0  0  0  0  0  0
  -26.0172  -38.2868   24.1400 H   0  0  0  0  0  0
  -26.9025  -19.7022   21.3182 H   0  0  0  0  0  0
  -27.6622  -15.5777   21.9977 H   0  0  0  0  0  0
  -29.3028  -22.8793   21.6628 H   0  0  0  0  0  0
  -31.3693  -19.0574   19.7617 H   0  0  0  0  0  0
  -31.6661  -17.3424   19.8820 H   0  0  0  0  0  0
  -31.9066  -18.3726   21.3028 H   0  0  0  0  0  0
  -30.7421  -16.4293   23.3579 H   0  0  0  0  0  0
  -32.1304  -16.1315   22.3167 H   0  0  0  0  0  0
  -31.3521  -14.7934   23.1643 H   0  0  0  0  0  0
  -27.4802  -25.3983   21.5786 H   0  0  0  0  0  0
  -29.2148  -25.4000   21.5114 H   0  0  0  0  0  0
  -30.0702  -20.7983   21.3945 H   0  0  0  0  0  0
  -27.7317  -23.2134   18.5655 H   0  0  0  0  0  0
  1 25  1  0  0  0
  1 30  2  0  0  0
  1 84  1  0  0  0
  2  3  1  0  0  0
  2 25  1  0  0  0
  2 88  1  0  0  0
  2 89  1  0  0  0
  3  4  1  0  0  0
  3 90  1  0  0  0
  3 91  1  0  0  0
  4  5  1  0  0  0
  4 92  1  0  0  0
  4 93  1  0  0  0
  5  6  1  0  0  0
  5 26  1  0  0  0
  5 94  1  0  0  0
  6 25  1  0  0  0
  6 95  1  0  0  0
  6 96  1  0  0  0
  7  8  2  0  0  0
  7 26  1  0  0  0
  7 29  1  0  0  0
  8  9  1  0  0  0
  8 22  1  0  0  0
  9 10  1  0  0  0
  9 27  2  0  0  0
 10 11  2  0  0  0
 10 15  1  0  0  0
 11 12  1  0  0  0
 11 97  1  0  0  0
 12 13  2  0  0  0
 12 98  1  0  0  0
 13 14  1  0  0  0
 13 31  1  0  0  0
 14 15  2  0  0  0
 14 99  1  0  0  0
 15100  1  0  0  0
 16 17  2  0  0  0
 16 21  1  0  0  0
 16 31  1  0  0  0
 17 18  1  0  0  0
 17101  1  0  0  0
 18 19  2  0  0  0
 18102  1  0  0  0
 19 20  1  0  0  0
 19 24  1  0  0  0
 20 21  2  0  0  0
 20103  1  0  0  0
 21 23  1  0  0  0
 22 28  1  0  0  0
 22 32  2  0  0  0
 26 27  1  0  0  0
 28104  1  0  0  0
 28105  1  0  0  0
 29106  1  0  0  0
 29107  1  0  0  0
 33 34  1  0  0  0
 33 66  1  0  0  0
 33 70  2  0  0  0
 34 36  1  0  0  0
 34 59  1  0  0  0
 34108  1  0  0  0
 35 44  2  0  0  0
 35 45  1  0  0  0
 35 68  1  0  0  0
 36 56  1  0  0  0
 36109  1  0  0  0
 37 39  1  0  0  0
 37 47  1  0  0  0
 37 66  1  0  0  0
 37110  1  0  0  0
 38 43  2  0  0  0
 38 46  1  0  0  0
 38 47  1  0  0  0
 39 64  1  0  0  0
 39 67  2  0  0  0
 40 52  1  0  0  0
 40 53  2  0  0  0
 40 58  1  0  0  0
 41111  1  0  0  0
 41112  1  0  0  0
 41113  1  0  0  0
 41 48  1  0  0  0
 42 43  1  0  0  0
 42 66  1  0  0  0
 42114  1  0  0  0
 42115  1  0  0  0
 43 44  1  0  0  0
 44116  1  0  0  0
 45 46  2  0  0  0
 45117  1  0  0  0
 46118  1  0  0  0
 47119  1  0  0  0
 47120  1  0  0  0
 48 56  1  0  0  0
 48 65  1  0  0  0
 48121  1  0  0  0
 49 50  1  0  0  0
 49 53  1  0  0  0
 49 64  1  0  0  0
 49122  1  0  0  0
 50 51  1  0  0  0
 50123  1  0  0  0
 50124  1  0  0  0
 51 52  1  0  0  0
 51125  1  0  0  0
 51126  1  0  0  0
 52127  1  0  0  0
 52128  1  0  0  0
 53 54  1  0  0  0
 54 55  2  0  0  0
 54129  1  0  0  0
 55 57  1  0  0  0
 55130  1  0  0  0
 56 69  2  0  0  0
 57 58  2  0  0  0
 57131  1  0  0  0
 58132  1  0  0  0
 59 60  1  0  0  0
 59 61  1  0  0  0
 59 62  1  0  0  0
 60133  1  0  0  0
 60134  1  0  0  0
 60135  1  0  0  0
 61136  1  0  0  0
 61137  1  0  0  0
 61138  1  0  0  0
 62139  1  0  0  0
 62140  1  0  0  0
 62141  1  0  0  0
 63 65  1  0  0  0
 63142  1  0  0  0
 63143  1  0  0  0
 63144  1  0  0  0
 64145  1  0  0  0
 65146  1  0  0  0
 68 82  1  0  0  0
 71 74  2  0  0  0
 71 76  1  0  0  0
 71147  1  0  0  0
 72 75  1  0  0  0
 72 76  2  0  0  0
 72148  1  0  0  0
 73 74  1  0  0  0
 73 75  2  0  0  0
 73 80  1  0  0  0
 74 83  1  0  0  0
 75 84  1  0  0  0
 76 87  1  0  0  0
 77 78  2  0  0  0
 77 79  1  0  0  0
 77149  1  0  0  0
 78 82  1  0  0  0
 78 86  1  0  0  0
 79 83  1  0  0  0
 79 85  2  0  0  0
 80150  1  0  0  0
 80151  1  0  0  0
 80152  1  0  0  0
 81 84  1  0  0  0
 81153  1  0  0  0
 81154  1  0  0  0
 81155  1  0  0  0
 82156  1  0  0  0
 82157  1  0  0  0
 83158  1  0  0  0
 86159  1  0  0  0
M  ISO  4   1 100  68 101  82 101  84 100
M  END
> <chiral flag>
0

> <version>
0

> <s_m_source_file>
/data/baiqing/PycharmProjects/Reinvent-master-3.2/result/LINK_invent/BTK/process_docking_weight1_custom_product_contain_oxygen_bond_distance_aromatic_linkinvent_7_9_3/rearranged_h_0167.sdf

> <i_m_source_file_index>
35

> <r_mmod_Potential_Energy-OPLS-2005>
200.442108154297

> <r_mmod_Stretch_Energy-OPLS-2005>
66.0690078735352

> <r_mmod_Bend_Energy-OPLS-2005>
129.115463256836

> <r_mmod_Torsional_Energy-OPLS-2005>
352.961486816406

> <r_mmod_Improper_Torsional_Energy-OPLS-2005>
8.70418167114258

> <r_mmod_Van_der_Waal_Energy-OPLS-2005>
146.643585205078

> <r_mmod_Electrostatic_Energy-OPLS-2005>
-320.345123291016

> <r_mmod_Solvation_Energy-OPLS-2005>
-209.685623168945

> <b_mmod_Minimization_Converged-OPLS-2005>
0

> <r_mmod_RMS_Derivative-OPLS-2005>
3.84798884391785

$$$$
35
                    3D
 Structure written by MMmdl.
151159  0  0  1  0            999 V2000
  -30.5754  -14.8005   20.4305 C   0  0  0  0  0  0
  -30.4485  -12.4948   19.4563 C   0  0  0  0  0  0
  -29.5249  -12.5341   18.2169 C   0  0  0  0  0  0
  -28.0533  -12.3207   18.6402 C   0  0  0  0  0  0
  -27.6446  -13.2246   19.8365 C   0  0  2  0  0  0
  -28.6920  -13.1727   20.9699 C   0  0  0  0  0  0
  -25.2580  -13.8152   20.5656 C   0  0  0  0  0  0
  -24.1856  -13.0428   20.9177 C   0  0  0  0  0  0
  -24.6446  -11.6907   20.8670 C   0  0  0  0  0  0
  -23.9083  -10.4296   21.0326 C   0  0  0  0  0  0
  -24.3617   -9.4237   21.9144 C   0  0  0  0  0  0
  -23.6311   -8.2264   22.0730 C   0  0  0  0  0  0
  -22.4303   -8.0273   21.3510 C   0  0  0  0  0  0
  -21.9914   -9.0244   20.4620 C   0  0  0  0  0  0
  -22.7216  -10.2137   20.3024 C   0  0  0  0  0  0
  -21.6871   -6.0725   22.5272 C   0  0  0  0  0  0
  -21.4025   -6.5631   23.8193 C   0  0  0  0  0  0
  -21.3653   -5.6777   24.9142 C   0  0  0  0  0  0
  -21.6053   -4.3031   24.7194 C   0  0  0  0  0  0
  -21.8819   -3.8137   23.4297 C   0  0  0  0  0  0
  -21.9212   -4.6960   22.3371 C   0  0  0  0  0  0
  -22.7889  -13.5233   21.1826 C   0  0  0  0  0  0
  -22.1675   -4.2153   21.0938 F   0  0  0  0  0  0
  -21.5653   -3.4519   25.7697 F   0  0  0  0  0  0
  -29.9833  -13.5528   20.3840 N   0  0  0  0  0  0
  -26.2976  -12.9337   20.3165 N   0  0  0  0  0  0
  -25.9365  -11.6493   20.5639 N   0  0  0  0  0  0
  -22.0505  -12.8238   22.0357 N   0  0  0  0  0  0
  -25.4287  -15.1869   20.4068 N   0  0  0  0  0  0
  -31.7779  -14.9137   20.1713 O   0  0  0  0  0  0
  -21.6646   -6.8876   21.4235 O   0  0  0  0  0  0
  -22.3607  -14.5534   20.6627 O   0  0  0  0  0  0
  -24.6278  -31.8549   23.1929 C   0  0  0  0  0  0
  -25.9090  -32.4779   23.8313 C   0  0  1  0  0  0
  -27.2072  -27.2406   20.1527 C   0  0  0  0  0  0
  -25.5891  -33.8580   24.2245 N   0  0  0  0  0  0
  -23.4259  -30.4703   21.5395 C   0  0  2  0  0  0
  -24.8777  -28.9141   20.1130 C   0  0  0  0  0  0
  -22.7473  -29.4538   22.4924 C   0  0  0  0  0  0
  -18.0275  -28.1354   22.8482 C   0  0  0  0  0  0
  -24.1517  -36.7330   23.2619 C   0  0  0  0  0  0
  -25.9690  -30.7695   21.3641 C   0  0  0  0  0  0
  -26.0470  -29.3831   20.7247 C   0  0  0  0  0  0
  -27.2194  -28.5570   20.7294 C   0  0  0  0  0  0
  -26.0262  -26.8547   19.4883 C   0  0  0  0  0  0
  -24.8714  -27.6618   19.4828 C   0  0  0  0  0  0
  -23.6438  -29.7966   20.1589 C   0  0  0  0  0  0
  -25.4140  -36.3104   24.0308 C   0  0  1  0  0  0
  -20.5868  -28.3653   23.1310 C   0  0  2  0  0  0
  -20.6757  -26.9392   22.5407 C   0  0  0  0  0  0
  -19.5745  -26.6380   21.5184 C   0  0  0  0  0  0
  -18.1925  -26.7907   22.1603 C   0  0  0  0  0  0
  -19.1529  -28.8823   23.2886 C   0  0  0  0  0  0
  -18.9438  -30.1420   23.8903 C   0  0  0  0  0  0
  -17.6447  -30.6577   24.0534 C   0  0  0  0  0  0
  -25.9046  -34.9459   23.5097 C   0  0  0  0  0  0
  -16.5343  -29.9082   23.6294 C   0  0  0  0  0  0
  -16.7257  -28.6477   23.0361 C   0  0  0  0  0  0
  -26.4427  -31.6567   25.0677 C   0  0  0  0  0  0
  -25.3603  -31.3716   26.1362 C   0  0  0  0  0  0
  -27.0187  -30.3000   24.6035 C   0  0  0  0  0  0
  -27.6030  -32.4228   25.7444 C   0  0  0  0  0  0
  -27.5613  -37.1809   24.8434 C   0  0  0  0  0  0
  -21.4170  -29.3014   22.3696 N   0  0  0  0  0  0
  -26.4314  -37.3799   23.9388 N   0  0  0  0  0  0
  -24.6949  -31.0493   22.0921 N   0  0  0  0  0  0
  -23.4180  -28.8075   23.3003 O   0  0  0  0  0  0
  -28.3016  -26.3402   20.1811 O   0  0  0  0  0  0
  -26.5651  -34.8903   22.4679 O   0  0  0  0  0  0
  -23.5413  -32.1371   23.7234 O   0  0  0  0  0  0
  -28.9919  -18.4455   20.1596 C   0  0  0  0  0  0
  -31.1374  -18.0776   20.6208 C   0  0  0  0  0  0
  -29.9641  -17.3898   20.4411 C   0  0  0  0  0  0
  -29.6162  -19.7043   20.1671 C   0  0  0  0  0  0
  -29.2468  -21.1150   19.6055 C   0  0  0  0  0  0
  -26.8332  -24.4855   21.2584 C   0  0  0  0  0  0
  -28.8210  -23.6887   19.8003 C   0  0  0  0  0  0
  -28.2017  -24.9048   20.6806 C   0  0  1  0  0  0
  -29.7357  -15.9115   20.5232 N   0  0  0  0  0  0
  -28.9419  -22.2512   20.3493 N   0  0  0  0  0  0
  -29.2949  -21.2255   18.3777 O   0  0  0  0  0  0
  -30.9417  -19.4408   20.4602 O   0  0  0  0  0  0
  -31.4890  -12.6357   19.1600 H   0  0  0  0  0  0
  -30.3996  -11.5180   19.9391 H   0  0  0  0  0  0
  -29.8382  -11.7776   17.4951 H   0  0  0  0  0  0
  -29.6212  -13.4957   17.7079 H   0  0  0  0  0  0
  -27.9466  -11.2709   18.9197 H   0  0  0  0  0  0
  -27.3861  -12.4755   17.7894 H   0  0  0  0  0  0
  -27.6319  -14.2400   19.4464 H   0  0  0  0  0  0
  -28.7507  -12.1724   21.4034 H   0  0  0  0  0  0
  -28.4170  -13.8489   21.7810 H   0  0  0  0  0  0
  -25.2790   -9.5760   22.4676 H   0  0  0  0  0  0
  -24.0040   -7.4685   22.7470 H   0  0  0  0  0  0
  -21.0841   -8.8737   19.8937 H   0  0  0  0  0  0
  -22.3657  -10.9654   19.6096 H   0  0  0  0  0  0
  -21.2003   -7.6141   23.9696 H   0  0  0  0  0  0
  -21.1489   -6.0492   25.9052 H   0  0  0  0  0  0
  -22.0613   -2.7605   23.2772 H   0  0  0  0  0  0
  -22.4149  -11.9948   22.4821 H   0  0  0  0  0  0
  -21.1083  -13.1253   22.2429 H   0  0  0  0  0  0
  -24.6589  -15.8361   20.5343 H   0  0  0  0  0  0
  -26.2516  -15.6219   20.0129 H   0  0  0  0  0  0
  -26.7135  -32.5428   23.1026 H   0  0  0  0  0  0
  -24.9911  -33.9703   25.0314 H   0  0  0  0  0  0
  -22.7180  -31.2884   21.3878 H   0  0  0  0  0  0
  -23.3781  -35.9653   23.3221 H   0  0  0  0  0  0
  -24.3634  -36.9019   22.2044 H   0  0  0  0  0  0
  -23.7224  -37.6491   23.6692 H   0  0  0  0  0  0
  -26.0716  -31.5170   20.5759 H   0  0  0  0  0  0
  -26.8620  -30.8530   21.9728 H   0  0  0  0  0  0
  -28.1218  -28.9069   21.2097 H   0  0  0  0  0  0
  -25.9845  -25.8991   18.9857 H   0  0  0  0  0  0
  -23.9765  -27.3070   18.9920 H   0  0  0  0  0  0
  -23.7538  -30.5641   19.3902 H   0  0  0  0  0  0
  -22.7659  -29.2156   19.8657 H   0  0  0  0  0  0
  -25.1307  -36.1955   25.0792 H   0  0  0  0  0  0
  -20.9951  -28.3206   24.1432 H   0  0  0  0  0  0
  -20.5646  -26.2234   23.3572 H   0  0  0  0  0  0
  -21.6624  -26.7417   22.1207 H   0  0  0  0  0  0
  -19.6910  -25.6288   21.1218 H   0  0  0  0  0  0
  -19.6715  -27.3164   20.6690 H   0  0  0  0  0  0
  -17.4193  -26.6637   21.4005 H   0  0  0  0  0  0
  -18.0361  -26.0037   22.8996 H   0  0  0  0  0  0
  -19.7902  -30.7214   24.2320 H   0  0  0  0  0  0
  -17.4990  -31.6265   24.5129 H   0  0  0  0  0  0
  -15.5328  -30.2999   23.7589 H   0  0  0  0  0  0
  -15.8643  -28.0779   22.7129 H   0  0  0  0  0  0
  -24.5860  -30.6980   25.7648 H   0  0  0  0  0  0
  -24.8665  -32.2870   26.4651 H   0  0  0  0  0  0
  -25.7882  -30.8981   27.0208 H   0  0  0  0  0  0
  -26.2687  -29.6831   24.1074 H   0  0  0  0  0  0
  -27.3899  -29.7160   25.4446 H   0  0  0  0  0  0
  -27.8560  -30.4275   23.9181 H   0  0  0  0  0  0
  -27.2744  -33.3567   26.2003 H   0  0  0  0  0  0
  -28.3881  -32.6694   25.0289 H   0  0  0  0  0  0
  -28.0634  -31.8316   26.5353 H   0  0  0  0  0  0
  -28.2565  -38.0172   24.7579 H   0  0  0  0  0  0
  -28.1183  -36.2705   24.6166 H   0  0  0  0  0  0
  -27.2338  -37.1311   25.8832 H   0  0  0  0  0  0
  -20.9350  -29.8742   21.6928 H   0  0  0  0  0  0
  -26.0207  -38.2867   24.1431 H   0  0  0  0  0  0
  -27.9486  -18.3002   19.9065 H   0  0  0  0  0  0
  -32.1605  -17.7940   20.8364 H   0  0  0  0  0  0
  -26.4221  -25.2480   21.9176 H   0  0  0  0  0  0
  -26.9234  -23.5841   21.8647 H   0  0  0  0  0  0
  -26.1027  -24.2619   20.4815 H   0  0  0  0  0  0
  -29.8275  -23.9869   19.5012 H   0  0  0  0  0  0
  -28.2471  -23.6481   18.8726 H   0  0  0  0  0  0
  -28.8380  -24.9487   21.5641 H   0  0  0  0  0  0
  -28.7635  -15.6470   20.5821 H   0  0  0  0  0  0
  -28.8174  -22.1295   21.3463 H   0  0  0  0  0  0
  1 25  1  0  0  0
  1 30  2  0  0  0
  1 79  1  0  0  0
  2  3  1  0  0  0
  2 25  1  0  0  0
  2 83  1  0  0  0
  2 84  1  0  0  0
  3  4  1  0  0  0
  3 85  1  0  0  0
  3 86  1  0  0  0
  4  5  1  0  0  0
  4 87  1  0  0  0
  4 88  1  0  0  0
  5  6  1  0  0  0
  5 26  1  0  0  0
  5 89  1  0  0  0
  6 25  1  0  0  0
  6 90  1  0  0  0
  6 91  1  0  0  0
  7  8  2  0  0  0
  7 26  1  0  0  0
  7 29  1  0  0  0
  8  9  1  0  0  0
  8 22  1  0  0  0
  9 10  1  0  0  0
  9 27  2  0  0  0
 10 11  2  0  0  0
 10 15  1  0  0  0
 11 12  1  0  0  0
 11 92  1  0  0  0
 12 13  2  0  0  0
 12 93  1  0  0  0
 13 14  1  0  0  0
 13 31  1  0  0  0
 14 15  2  0  0  0
 14 94  1  0  0  0
 15 95  1  0  0  0
 16 17  2  0  0  0
 16 21  1  0  0  0
 16 31  1  0  0  0
 17 18  1  0  0  0
 17 96  1  0  0  0
 18 19  2  0  0  0
 18 97  1  0  0  0
 19 20  1  0  0  0
 19 24  1  0  0  0
 20 21  2  0  0  0
 20 98  1  0  0  0
 21 23  1  0  0  0
 22 28  1  0  0  0
 22 32  2  0  0  0
 26 27  1  0  0  0
 28 99  1  0  0  0
 28100  1  0  0  0
 29101  1  0  0  0
 29102  1  0  0  0
 33 34  1  0  0  0
 33 66  1  0  0  0
 33 70  2  0  0  0
 34 36  1  0  0  0
 34 59  1  0  0  0
 34103  1  0  0  0
 35 44  2  0  0  0
 35 45  1  0  0  0
 35 68  1  0  0  0
 36 56  1  0  0  0
 36104  1  0  0  0
 37 39  1  0  0  0
 37 47  1  0  0  0
 37 66  1  0  0  0
 37105  1  0  0  0
 38 43  2  0  0  0
 38 46  1  0  0  0
 38 47  1  0  0  0
 39 64  1  0  0  0
 39 67  2  0  0  0
 40 52  1  0  0  0
 40 53  2  0  0  0
 40 58  1  0  0  0
 41106  1  0  0  0
 41107  1  0  0  0
 41108  1  0  0  0
 41 48  1  0  0  0
 42 43  1  0  0  0
 42 66  1  0  0  0
 42109  1  0  0  0
 42110  1  0  0  0
 43 44  1  0  0  0
 44111  1  0  0  0
 45 46  2  0  0  0
 45112  1  0  0  0
 46113  1  0  0  0
 47114  1  0  0  0
 47115  1  0  0  0
 48 56  1  0  0  0
 48 65  1  0  0  0
 48116  1  0  0  0
 49 50  1  0  0  0
 49 53  1  0  0  0
 49 64  1  0  0  0
 49117  1  0  0  0
 50 51  1  0  0  0
 50118  1  0  0  0
 50119  1  0  0  0
 51 52  1  0  0  0
 51120  1  0  0  0
 51121  1  0  0  0
 52122  1  0  0  0
 52123  1  0  0  0
 53 54  1  0  0  0
 54 55  2  0  0  0
 54124  1  0  0  0
 55 57  1  0  0  0
 55125  1  0  0  0
 56 69  2  0  0  0
 57 58  2  0  0  0
 57126  1  0  0  0
 58127  1  0  0  0
 59 60  1  0  0  0
 59 61  1  0  0  0
 59 62  1  0  0  0
 60128  1  0  0  0
 60129  1  0  0  0
 60130  1  0  0  0
 61131  1  0  0  0
 61132  1  0  0  0
 61133  1  0  0  0
 62134  1  0  0  0
 62135  1  0  0  0
 62136  1  0  0  0
 63 65  1  0  0  0
 63137  1  0  0  0
 63138  1  0  0  0
 63139  1  0  0  0
 64140  1  0  0  0
 65141  1  0  0  0
 68 78  1  0  0  0
 71 73  1  0  0  0
 71 74  2  0  0  0
 71142  1  0  0  0
 72 73  2  0  0  0
 72 82  1  0  0  0
 72143  1  0  0  0
 73 79  1  0  0  0
 74 75  1  0  0  0
 74 82  1  0  0  0
 75 80  1  0  0  0
 75 81  2  0  0  0
 76144  1  0  0  0
 76145  1  0  0  0
 76146  1  0  0  0
 76 78  1  0  0  0
 77 78  1  0  0  0
 77 80  1  0  0  0
 77147  1  0  0  0
 77148  1  0  0  0
 78149  1  0  0  0
 79150  1  0  0  0
 80151  1  0  0  0
M  ISO  4   1 100  68 101  78 101  79 100
M  END
> <chiral flag>
0

> <version>
0

> <s_m_source_file>
/data/baiqing/PycharmProjects/Reinvent-master-3.2/result/LINK_invent/BTK/process_docking_weight1_custom_product_contain_oxygen_bond_distance_aromatic_linkinvent_7_9_3/rearranged_h_0167.sdf

> <i_m_source_file_index>
36

> <r_mmod_Potential_Energy-OPLS-2005>
176.037170410156

> <r_mmod_Stretch_Energy-OPLS-2005>
133.871292114258

> <r_mmod_Bend_Energy-OPLS-2005>
192.80339050293

> <r_mmod_Torsional_Energy-OPLS-2005>
279.979370117188

> <r_mmod_Improper_Torsional_Energy-OPLS-2005>
8.43420886993408

> <r_mmod_Van_der_Waal_Energy-OPLS-2005>
114.470062255859

> <r_mmod_Electrostatic_Energy-OPLS-2005>
-419.9765625

> <r_mmod_Solvation_Energy-OPLS-2005>
-238.669631958008

> <b_mmod_Minimization_Converged-OPLS-2005>
0

> <r_mmod_RMS_Derivative-OPLS-2005>
5.41189384460449

$$$$
36
                    3D
 Structure written by MMmdl.
164172  0  0  1  0            999 V2000
  -30.7638  -14.3994   20.6389 C   0  0  0  0  0  0
  -30.4085  -12.2898   19.4133 C   0  0  0  0  0  0
  -29.4910  -12.5190   18.1977 C   0  0  0  0  0  0
  -28.0132  -12.3771   18.6092 C   0  0  0  0  0  0
  -27.6634  -13.2062   19.8749 C   0  0  2  0  0  0
  -28.7016  -12.9783   20.9984 C   0  0  0  0  0  0
  -25.2593  -13.8156   20.5670 C   0  0  0  0  0  0
  -24.1839  -13.0439   20.9155 C   0  0  0  0  0  0
  -24.6381  -11.6898   20.8695 C   0  0  0  0  0  0
  -23.9030  -10.4286   21.0371 C   0  0  0  0  0  0
  -24.3597   -9.4221   21.9171 C   0  0  0  0  0  0
  -23.6275   -8.2259   22.0760 C   0  0  0  0  0  0
  -22.4259   -8.0293   21.3545 C   0  0  0  0  0  0
  -21.9869   -9.0251   20.4649 C   0  0  0  0  0  0
  -22.7183  -10.2133   20.3032 C   0  0  0  0  0  0
  -21.6852   -6.0735   22.5272 C   0  0  0  0  0  0
  -21.4028   -6.5634   23.8211 C   0  0  0  0  0  0
  -21.3657   -5.6784   24.9173 C   0  0  0  0  0  0
  -21.6036   -4.3048   24.7215 C   0  0  0  0  0  0
  -21.8819   -3.8138   23.4338 C   0  0  0  0  0  0
  -21.9196   -4.6960   22.3397 C   0  0  0  0  0  0
  -22.7868  -13.5255   21.1802 C   0  0  0  0  0  0
  -22.1666   -4.2153   21.0973 F   0  0  0  0  0  0
  -21.5623   -3.4534   25.7731 F   0  0  0  0  0  0
  -30.0367  -13.2666   20.4488 N   0  0  0  0  0  0
  -26.3028  -12.9323   20.3321 N   0  0  0  0  0  0
  -25.9310  -11.6486   20.5705 N   0  0  0  0  0  0
  -22.0476  -12.8300   22.0368 N   0  0  0  0  0  0
  -25.4318  -15.1879   20.4139 N   0  0  0  0  0  0
  -31.8344  -14.6046   20.0559 O   0  0  0  0  0  0
  -21.6637   -6.8883   21.4235 O   0  0  0  0  0  0
  -22.3572  -14.5550   20.6633 O   0  0  0  0  0  0
  -24.6114  -31.8709   23.2094 C   0  0  0  0  0  0
  -25.9022  -32.4846   23.8394 C   0  0  1  0  0  0
  -27.2270  -27.4401   20.0855 C   0  0  0  0  0  0
  -25.5882  -33.8641   24.2323 N   0  0  0  0  0  0
  -23.3993  -30.4956   21.5538 C   0  0  2  0  0  0
  -24.8417  -28.9620   20.1178 C   0  0  0  0  0  0
  -22.7407  -29.4695   22.5018 C   0  0  0  0  0  0
  -18.0291  -28.1397   22.8521 C   0  0  0  0  0  0
  -24.1493  -36.7316   23.2637 C   0  0  0  0  0  0
  -25.9253  -30.8355   21.3613 C   0  0  0  0  0  0
  -25.9994  -29.4681   20.7159 C   0  0  0  0  0  0
  -27.1931  -28.7128   20.7034 C   0  0  0  0  0  0
  -26.0516  -26.9579   19.4630 C   0  0  0  0  0  0
  -24.8612  -27.7070   19.4877 C   0  0  0  0  0  0
  -23.6047  -29.8268   20.1694 C   0  0  0  0  0  0
  -25.4110  -36.3115   24.0343 C   0  0  1  0  0  0
  -20.5877  -28.3671   23.1344 C   0  0  2  0  0  0
  -20.6776  -26.9426   22.5421 C   0  0  0  0  0  0
  -19.5746  -26.6409   21.5219 C   0  0  0  0  0  0
  -18.1928  -26.7946   22.1632 C   0  0  0  0  0  0
  -19.1548  -28.8859   23.2920 C   0  0  0  0  0  0
  -18.9447  -30.1464   23.8925 C   0  0  0  0  0  0
  -17.6442  -30.6597   24.0613 C   0  0  0  0  0  0
  -25.9031  -34.9483   23.5129 C   0  0  0  0  0  0
  -16.5341  -29.9105   23.6346 C   0  0  0  0  0  0
  -16.7277  -28.6526   23.0353 C   0  0  0  0  0  0
  -26.4468  -31.6605   25.0705 C   0  0  0  0  0  0
  -25.3742  -31.3686   26.1461 C   0  0  0  0  0  0
  -27.0295  -30.3055   24.6020 C   0  0  0  0  0  0
  -27.6063  -32.4298   25.7468 C   0  0  0  0  0  0
  -27.5591  -37.1815   24.8471 C   0  0  0  0  0  0
  -21.4145  -29.3022   22.3738 N   0  0  0  0  0  0
  -26.4292  -37.3793   23.9417 N   0  0  0  0  0  0
  -24.6651  -31.0803   22.1013 N   0  0  0  0  0  0
  -23.4196  -28.8255   23.3064 O   0  0  0  0  0  0
  -28.4129  -26.7325   20.0987 O   0  0  0  0  0  0
  -26.5597  -34.8915   22.4698 O   0  0  0  0  0  0
  -23.5297  -32.1449   23.7471 O   0  0  0  0  0  0
  -32.5210  -18.7421   22.5245 C   0  0  0  0  0  0
  -32.1674  -16.3470   22.5592 C   0  0  0  0  0  0
  -31.2884  -18.9354   21.8630 C   0  0  0  0  0  0
  -30.4629  -17.8088   21.5500 C   0  0  0  0  0  0
  -30.9449  -16.5037   21.8625 C   0  0  0  0  0  0
  -32.9504  -17.4622   22.8904 C   0  0  0  0  0  0
  -30.9874  -20.3382   21.5449 C   0  0  0  0  0  0
  -29.2904  -23.1092   20.8895 C   0  0  0  0  0  0
  -29.1260  -17.9745   20.8242 C   0  0  0  0  0  0
  -28.6375  -22.6992   23.3073 C   0  0  0  0  0  0
  -29.3455  -24.6455   20.8876 C   0  0  0  0  0  0
  -28.3867  -25.3129   19.8896 C   0  0  0  0  0  0
  -29.6852  -22.4203   22.2099 C   0  0  1  0  0  0
  -31.8533  -21.0263   20.7990 N   0  0  0  0  0  0
  -30.2444  -15.3262   21.4619 N   0  0  0  0  0  0
  -29.9288  -20.9587   22.0907 N   0  3  0  0  0  0
  -28.9650  -22.4817   19.8781 O   0  0  0  0  0  0
  -34.1260  -17.3049   23.5464 F   0  0  0  0  0  0
  -31.4578  -12.3573   19.1218 H   0  0  0  0  0  0
  -30.2840  -11.2768   19.7974 H   0  0  0  0  0  0
  -29.7307  -11.8089   17.4058 H   0  0  0  0  0  0
  -29.6654  -13.5124   17.7794 H   0  0  0  0  0  0
  -27.8235  -11.3199   18.7968 H   0  0  0  0  0  0
  -27.3652  -12.6619   17.7800 H   0  0  0  0  0  0
  -27.7143  -14.2564   19.5883 H   0  0  0  0  0  0
  -28.6677  -11.9421   21.3414 H   0  0  0  0  0  0
  -28.4584  -13.5834   21.8720 H   0  0  0  0  0  0
  -25.2758   -9.5739   22.4723 H   0  0  0  0  0  0
  -24.0014   -7.4659   22.7478 H   0  0  0  0  0  0
  -21.0810   -8.8734   19.8948 H   0  0  0  0  0  0
  -22.3626  -10.9669   19.6131 H   0  0  0  0  0  0
  -21.2031   -7.6142   23.9720 H   0  0  0  0  0  0
  -21.1473   -6.0513   25.9080 H   0  0  0  0  0  0
  -22.0598   -2.7605   23.2817 H   0  0  0  0  0  0
  -22.4081  -11.9998   22.4824 H   0  0  0  0  0  0
  -21.1075  -13.1341   22.2475 H   0  0  0  0  0  0
  -24.6635  -15.8416   20.5222 H   0  0  0  0  0  0
  -26.2854  -15.6266   20.0920 H   0  0  0  0  0  0
  -26.7126  -32.5577   23.1198 H   0  0  0  0  0  0
  -25.0046  -33.9812   25.0474 H   0  0  0  0  0  0
  -22.6846  -31.3101   21.4191 H   0  0  0  0  0  0
  -23.3718  -35.9682   23.3288 H   0  0  0  0  0  0
  -24.3567  -36.8924   22.2044 H   0  0  0  0  0  0
  -23.7251  -37.6520   23.6653 H   0  0  0  0  0  0
  -26.0217  -31.5900   20.5788 H   0  0  0  0  0  0
  -26.8200  -30.8983   21.9694 H   0  0  0  0  0  0
  -28.0833  -29.1009   21.1769 H   0  0  0  0  0  0
  -26.0284  -26.0152   18.9349 H   0  0  0  0  0  0
  -23.9742  -27.3195   19.0069 H   0  0  0  0  0  0
  -23.7161  -30.6007   19.4087 H   0  0  0  0  0  0
  -22.7320  -29.2428   19.8746 H   0  0  0  0  0  0
  -25.1265  -36.1966   25.0829 H   0  0  0  0  0  0
  -20.9981  -28.3226   24.1462 H   0  0  0  0  0  0
  -20.5680  -26.2274   23.3590 H   0  0  0  0  0  0
  -21.6642  -26.7501   22.1218 H   0  0  0  0  0  0
  -19.6880  -25.6313   21.1246 H   0  0  0  0  0  0
  -19.6665  -27.3237   20.6767 H   0  0  0  0  0  0
  -17.4203  -26.6744   21.4035 H   0  0  0  0  0  0
  -18.0322  -26.0046   22.8992 H   0  0  0  0  0  0
  -19.7908  -30.7313   24.2267 H   0  0  0  0  0  0
  -17.4990  -31.6275   24.5217 H   0  0  0  0  0  0
  -15.5331  -30.3029   23.7615 H   0  0  0  0  0  0
  -15.8684  -28.0867   22.7033 H   0  0  0  0  0  0
  -24.5943  -30.7004   25.7800 H   0  0  0  0  0  0
  -24.8905  -32.2833   26.4899 H   0  0  0  0  0  0
  -25.8091  -30.8880   27.0234 H   0  0  0  0  0  0
  -26.2823  -29.6799   24.1129 H   0  0  0  0  0  0
  -27.4153  -29.7275   25.4420 H   0  0  0  0  0  0
  -27.8617  -30.4375   23.9095 H   0  0  0  0  0  0
  -27.2740  -33.3608   26.2059 H   0  0  0  0  0  0
  -28.3887  -32.6829   25.0311 H   0  0  0  0  0  0
  -28.0733  -31.8409   26.5362 H   0  0  0  0  0  0
  -28.2619  -38.0117   24.7526 H   0  0  0  0  0  0
  -28.1069  -36.2631   24.6267 H   0  0  0  0  0  0
  -27.2317  -37.1452   25.8884 H   0  0  0  0  0  0
  -20.9266  -29.8736   21.6990 H   0  0  0  0  0  0
  -26.0152  -38.2858   24.1402 H   0  0  0  0  0  0
  -33.1443  -19.5910   22.7833 H   0  0  0  0  0  0
  -32.5335  -15.3668   22.8235 H   0  0  0  0  0  0
  -28.5151  -18.7582   21.2699 H   0  0  0  0  0  0
  -28.5219  -17.0678   20.8516 H   0  0  0  0  0  0
  -29.2858  -18.2221   19.7755 H   0  0  0  0  0  0
  -27.6322  -22.8228   22.8997 H   0  0  0  0  0  0
  -28.8864  -23.6085   23.8554 H   0  0  0  0  0  0
  -28.5901  -21.8975   24.0456 H   0  0  0  0  0  0
  -30.3689  -24.9641   20.6928 H   0  0  0  0  0  0
  -29.0953  -24.9917   21.8912 H   0  0  0  0  0  0
  -27.4031  -24.8679   20.0424 H   0  0  0  0  0  0
  -28.6896  -25.1030   18.8623 H   0  0  0  0  0  0
  -30.6320  -22.8512   22.5443 H   0  0  0  0  0  0
  -32.6224  -20.5378   20.3650 H   0  0  0  0  0  0
  -31.6822  -21.9735   20.5091 H   0  0  0  0  0  0
  -29.3098  -15.1810   21.8128 H   0  0  0  0  0  0
  -29.2786  -20.3561   22.5731 H   0  0  0  0  0  0
  1 25  1  0  0  0
  1 30  2  0  0  0
  1 85  1  0  0  0
  2  3  1  0  0  0
  2 25  1  0  0  0
  2 89  1  0  0  0
  2 90  1  0  0  0
  3  4  1  0  0  0
  3 91  1  0  0  0
  3 92  1  0  0  0
  4  5  1  0  0  0
  4 93  1  0  0  0
  4 94  1  0  0  0
  5  6  1  0  0  0
  5 26  1  0  0  0
  5 95  1  0  0  0
  6 25  1  0  0  0
  6 96  1  0  0  0
  6 97  1  0  0  0
  7  8  2  0  0  0
  7 26  1  0  0  0
  7 29  1  0  0  0
  8  9  1  0  0  0
  8 22  1  0  0  0
  9 10  1  0  0  0
  9 27  2  0  0  0
 10 11  2  0  0  0
 10 15  1  0  0  0
 11 12  1  0  0  0
 11 98  1  0  0  0
 12 13  2  0  0  0
 12 99  1  0  0  0
 13 14  1  0  0  0
 13 31  1  0  0  0
 14 15  2  0  0  0
 14100  1  0  0  0
 15101  1  0  0  0
 16 17  2  0  0  0
 16 21  1  0  0  0
 16 31  1  0  0  0
 17 18  1  0  0  0
 17102  1  0  0  0
 18 19  2  0  0  0
 18103  1  0  0  0
 19 20  1  0  0  0
 19 24  1  0  0  0
 20 21  2  0  0  0
 20104  1  0  0  0
 21 23  1  0  0  0
 22 28  1  0  0  0
 22 32  2  0  0  0
 26 27  1  0  0  0
 28105  1  0  0  0
 28106  1  0  0  0
 29107  1  0  0  0
 29108  1  0  0  0
 33 34  1  0  0  0
 33 66  1  0  0  0
 33 70  2  0  0  0
 34 36  1  0  0  0
 34 59  1  0  0  0
 34109  1  0  0  0
 35 44  2  0  0  0
 35 45  1  0  0  0
 35 68  1  0  0  0
 36 56  1  0  0  0
 36110  1  0  0  0
 37 39  1  0  0  0
 37 47  1  0  0  0
 37 66  1  0  0  0
 37111  1  0  0  0
 38 43  2  0  0  0
 38 46  1  0  0  0
 38 47  1  0  0  0
 39 64  1  0  0  0
 39 67  2  0  0  0
 40 52  1  0  0  0
 40 53  2  0  0  0
 40 58  1  0  0  0
 41112  1  0  0  0
 41113  1  0  0  0
 41114  1  0  0  0
 41 48  1  0  0  0
 42 43  1  0  0  0
 42 66  1  0  0  0
 42115  1  0  0  0
 42116  1  0  0  0
 43 44  1  0  0  0
 44117  1  0  0  0
 45 46  2  0  0  0
 45118  1  0  0  0
 46119  1  0  0  0
 47120  1  0  0  0
 47121  1  0  0  0
 48 56  1  0  0  0
 48 65  1  0  0  0
 48122  1  0  0  0
 49 50  1  0  0  0
 49 53  1  0  0  0
 49 64  1  0  0  0
 49123  1  0  0  0
 50 51  1  0  0  0
 50124  1  0  0  0
 50125  1  0  0  0
 51 52  1  0  0  0
 51126  1  0  0  0
 51127  1  0  0  0
 52128  1  0  0  0
 52129  1  0  0  0
 53 54  1  0  0  0
 54 55  2  0  0  0
 54130  1  0  0  0
 55 57  1  0  0  0
 55131  1  0  0  0
 56 69  2  0  0  0
 57 58  2  0  0  0
 57132  1  0  0  0
 58133  1  0  0  0
 59 60  1  0  0  0
 59 61  1  0  0  0
 59 62  1  0  0  0
 60134  1  0  0  0
 60135  1  0  0  0
 60136  1  0  0  0
 61137  1  0  0  0
 61138  1  0  0  0
 61139  1  0  0  0
 62140  1  0  0  0
 62141  1  0  0  0
 62142  1  0  0  0
 63 65  1  0  0  0
 63143  1  0  0  0
 63144  1  0  0  0
 63145  1  0  0  0
 64146  1  0  0  0
 65147  1  0  0  0
 68 82  1  0  0  0
 71 73  2  0  0  0
 71 76  1  0  0  0
 71148  1  0  0  0
 72 75  1  0  0  0
 72 76  2  0  0  0
 72149  1  0  0  0
 73 74  1  0  0  0
 73 77  1  0  0  0
 74 75  2  0  0  0
 74 79  1  0  0  0
 75 85  1  0  0  0
 76 88  1  0  0  0
 77 84  1  0  0  0
 77 86  2  0  0  0
 78 81  1  0  0  0
 78 83  1  0  0  0
 78 87  2  0  0  0
 79150  1  0  0  0
 79151  1  0  0  0
 79152  1  0  0  0
 80153  1  0  0  0
 80154  1  0  0  0
 80155  1  0  0  0
 80 83  1  0  0  0
 81 82  1  0  0  0
 81156  1  0  0  0
 81157  1  0  0  0
 82158  1  0  0  0
 82159  1  0  0  0
 83 86  1  0  0  0
 83160  1  0  0  0
 84161  1  0  0  0
 84162  1  0  0  0
 85163  1  0  0  0
 86164  1  0  0  0
M  CHG  1  86   1
M  ISO  4   1 100  68 101  82 101  85 100
M  END
> <chiral flag>
0

> <version>
0

> <s_m_source_file>
/data/baiqing/PycharmProjects/Reinvent-master-3.2/result/LINK_invent/BTK/process_docking_weight1_custom_product_contain_oxygen_bond_distance_aromatic_linkinvent_7_9_3/rearranged_h_0167.sdf

> <i_m_source_file_index>
37

> <r_mmod_Potential_Energy-OPLS-2005>
-357.90576171875

> <r_mmod_Stretch_Energy-OPLS-2005>
38.2054328918457

> <r_mmod_Bend_Energy-OPLS-2005>
105.977340698242

> <r_mmod_Torsional_Energy-OPLS-2005>
239.460083007812

> <r_mmod_Improper_Torsional_Energy-OPLS-2005>
3.4594578742981

> <r_mmod_Van_der_Waal_Energy-OPLS-2005>
166.650375366211

> <r_mmod_Electrostatic_Energy-OPLS-2005>
-485.851013183594

> <r_mmod_Solvation_Energy-OPLS-2005>
-435.514923095703

> <b_mmod_Minimization_Converged-OPLS-2005>
0

> <r_mmod_RMS_Derivative-OPLS-2005>
4.19236421585083

$$$$
37
                    3D
 Structure written by MMmdl.
161169  0  0  1  0            999 V2000
  -30.7195  -14.4645   20.5536 C   0  0  0  0  0  0
  -30.4143  -12.2778   19.4667 C   0  0  0  0  0  0
  -29.5049  -12.4346   18.2318 C   0  0  0  0  0  0
  -28.0219  -12.3282   18.6250 C   0  0  0  0  0  0
  -27.6566  -13.2037   19.8517 C   0  0  2  0  0  0
  -28.6803  -13.0305   20.9924 C   0  0  0  0  0  0
  -25.2601  -13.8163   20.5604 C   0  0  0  0  0  0
  -24.1877  -13.0471   20.9162 C   0  0  0  0  0  0
  -24.6421  -11.6909   20.8741 C   0  0  0  0  0  0
  -23.9099  -10.4301   21.0434 C   0  0  0  0  0  0
  -24.3633   -9.4210   21.9232 C   0  0  0  0  0  0
  -23.6293   -8.2250   22.0791 C   0  0  0  0  0  0
  -22.4303   -8.0291   21.3556 C   0  0  0  0  0  0
  -21.9949   -9.0273   20.4660 C   0  0  0  0  0  0
  -22.7280  -10.2148   20.3073 C   0  0  0  0  0  0
  -21.6879   -6.0747   22.5269 C   0  0  0  0  0  0
  -21.4027   -6.5619   23.8209 C   0  0  0  0  0  0
  -21.3664   -5.6779   24.9168 C   0  0  0  0  0  0
  -21.6052   -4.3048   24.7227 C   0  0  0  0  0  0
  -21.8806   -3.8142   23.4348 C   0  0  0  0  0  0
  -21.9196   -4.6959   22.3402 C   0  0  0  0  0  0
  -22.7893  -13.5274   21.1782 C   0  0  0  0  0  0
  -22.1673   -4.2127   21.0995 F   0  0  0  0  0  0
  -21.5637   -3.4534   25.7756 F   0  0  0  0  0  0
  -30.0241  -13.2973   20.4539 N   0  0  0  0  0  0
  -26.3003  -12.9322   20.3168 N   0  0  0  0  0  0
  -25.9319  -11.6494   20.5710 N   0  0  0  0  0  0
  -22.0494  -12.8287   22.0290 N   0  0  0  0  0  0
  -25.4330  -15.1880   20.4012 N   0  0  0  0  0  0
  -31.8219  -14.6104   20.0198 O   0  0  0  0  0  0
  -21.6660   -6.8899   21.4252 O   0  0  0  0  0  0
  -22.3591  -14.5559   20.6568 O   0  0  0  0  0  0
  -24.6134  -31.8672   23.2100 C   0  0  0  0  0  0
  -25.9029  -32.4808   23.8378 C   0  0  1  0  0  0
  -27.2326  -27.4458   20.0910 C   0  0  0  0  0  0
  -25.5895  -33.8593   24.2364 N   0  0  0  0  0  0
  -23.3945  -30.4902   21.5553 C   0  0  2  0  0  0
  -24.8414  -28.9478   20.1262 C   0  0  0  0  0  0
  -22.7348  -29.4646   22.5056 C   0  0  0  0  0  0
  -18.0243  -28.1320   22.8497 C   0  0  0  0  0  0
  -24.1479  -36.7304   23.2644 C   0  0  0  0  0  0
  -25.9166  -30.8466   21.3383 C   0  0  0  0  0  0
  -26.0032  -29.4722   20.7058 C   0  0  0  0  0  0
  -27.2052  -28.7286   20.6858 C   0  0  0  0  0  0
  -26.0543  -26.9268   19.5191 C   0  0  0  0  0  0
  -24.8599  -27.6720   19.5341 C   0  0  0  0  0  0
  -23.5989  -29.8126   20.1732 C   0  0  0  0  0  0
  -25.4088  -36.3110   24.0369 C   0  0  1  0  0  0
  -20.5824  -28.3599   23.1334 C   0  0  2  0  0  0
  -20.6715  -26.9343   22.5406 C   0  0  0  0  0  0
  -19.5705  -26.6359   21.5181 C   0  0  0  0  0  0
  -18.1891  -26.7872   22.1605 C   0  0  0  0  0  0
  -19.1499  -28.8783   23.2906 C   0  0  0  0  0  0
  -18.9431  -30.1403   23.8893 C   0  0  0  0  0  0
  -17.6446  -30.6558   24.0538 C   0  0  0  0  0  0
  -25.9026  -34.9459   23.5167 C   0  0  0  0  0  0
  -16.5334  -29.9048   23.6330 C   0  0  0  0  0  0
  -16.7237  -28.6449   23.0377 C   0  0  0  0  0  0
  -26.4515  -31.6501   25.0617 C   0  0  0  0  0  0
  -25.3819  -31.3416   26.1342 C   0  0  0  0  0  0
  -27.0409  -30.3029   24.5805 C   0  0  0  0  0  0
  -27.6105  -32.4136   25.7447 C   0  0  0  0  0  0
  -27.5570  -37.1820   24.8498 C   0  0  0  0  0  0
  -21.4090  -29.3004   22.3787 N   0  0  0  0  0  0
  -26.4284  -37.3797   23.9438 N   0  0  0  0  0  0
  -24.6626  -31.0799   22.0978 N   0  0  0  0  0  0
  -23.4139  -28.8184   23.3078 O   0  0  0  0  0  0
  -28.3917  -26.7078   20.0333 O   0  0  0  0  0  0
  -26.5597  -34.8924   22.4730 O   0  0  0  0  0  0
  -23.5344  -32.1392   23.7539 O   0  0  0  0  0  0
  -29.7148  -19.4299   23.3224 C   0  0  0  0  0  0
  -29.8333  -18.1995   22.6706 C   0  0  0  0  0  0
  -29.3105  -20.5633   22.6053 C   0  0  0  0  0  0
  -29.5570  -18.0753   21.2918 C   0  0  0  0  0  0
  -29.0101  -19.2035   20.5764 C   0  0  0  0  0  0
  -28.9359  -20.4879   21.2390 C   0  0  0  0  0  0
  -29.9514  -16.7771   20.6591 C   0  0  0  0  0  0
  -30.0865  -15.5718   21.2665 C   0  0  0  0  0  0
  -28.4298  -18.9533   19.2010 C   0  0  0  0  0  0
  -28.3948  -24.2277   20.3426 C   0  0  0  0  0  0
  -28.2181  -19.5206   16.6766 C   0  0  0  0  0  0
  -28.6076  -20.0090   18.0898 C   0  0  0  0  0  0
  -28.7328  -23.0131   21.2379 C   0  0  0  0  0  0
  -28.4730  -25.6344   20.9890 C   0  0  0  0  0  0
  -28.5027  -21.6913   20.6171 N   0  0  0  0  0  0
  -27.8280  -17.9086   18.9245 O   0  0  0  0  0  0
  -28.0788  -24.0646   19.1582 O   0  0  0  0  0  0
  -31.4599  -12.3502   19.1641 H   0  0  0  0  0  0
  -30.3139  -11.2841   19.9072 H   0  0  0  0  0  0
  -29.7481  -11.6560   17.5049 H   0  0  0  0  0  0
  -29.6970  -13.3912   17.7465 H   0  0  0  0  0  0
  -27.8215  -11.2811   18.8541 H   0  0  0  0  0  0
  -27.3881  -12.5723   17.7723 H   0  0  0  0  0  0
  -27.6996  -14.2419   19.5207 H   0  0  0  0  0  0
  -28.6331  -12.0195   21.3977 H   0  0  0  0  0  0
  -28.4215  -13.6885   21.8195 H   0  0  0  0  0  0
  -25.2785   -9.5681   22.4807 H   0  0  0  0  0  0
  -23.9988   -7.4668   22.7540 H   0  0  0  0  0  0
  -21.0896   -8.8830   19.8954 H   0  0  0  0  0  0
  -22.3803  -10.9693   19.6160 H   0  0  0  0  0  0
  -21.2012   -7.6121   23.9707 H   0  0  0  0  0  0
  -21.1507   -6.0510   25.9064 H   0  0  0  0  0  0
  -22.0574   -2.7607   23.2866 H   0  0  0  0  0  0
  -22.4113  -11.9946   22.4676 H   0  0  0  0  0  0
  -21.1076  -13.1248   22.2341 H   0  0  0  0  0  0
  -24.6727  -15.8406   20.5580 H   0  0  0  0  0  0
  -26.2660  -15.6318   20.0294 H   0  0  0  0  0  0
  -26.7076  -32.5589   23.1141 H   0  0  0  0  0  0
  -25.0075  -33.9749   25.0523 H   0  0  0  0  0  0
  -22.6796  -31.3054   21.4185 H   0  0  0  0  0  0
  -23.3756  -35.9628   23.3304 H   0  0  0  0  0  0
  -24.3613  -36.8919   22.2066 H   0  0  0  0  0  0
  -23.7196  -37.6493   23.6651 H   0  0  0  0  0  0
  -25.9721  -31.5923   20.5451 H   0  0  0  0  0  0
  -26.8227  -30.9494   21.9223 H   0  0  0  0  0  0
  -28.1052  -29.1398   21.1173 H   0  0  0  0  0  0
  -26.0648  -25.9466   19.0616 H   0  0  0  0  0  0
  -23.9647  -27.2572   19.0923 H   0  0  0  0  0  0
  -23.6928  -30.5810   19.4053 H   0  0  0  0  0  0
  -22.7244  -29.2258   19.8878 H   0  0  0  0  0  0
  -25.1244  -36.2003   25.0858 H   0  0  0  0  0  0
  -20.9908  -28.3134   24.1449 H   0  0  0  0  0  0
  -20.5581  -26.2190   23.3576 H   0  0  0  0  0  0
  -21.6587  -26.7367   22.1226 H   0  0  0  0  0  0
  -19.6862  -25.6284   21.1165 H   0  0  0  0  0  0
  -19.6635  -27.3202   20.6724 H   0  0  0  0  0  0
  -17.4151  -26.6632   21.4015 H   0  0  0  0  0  0
  -18.0308  -25.9983   22.8967 H   0  0  0  0  0  0
  -19.7923  -30.7210   24.2246 H   0  0  0  0  0  0
  -17.5017  -31.6250   24.5102 H   0  0  0  0  0  0
  -15.5343  -30.2965   23.7650 H   0  0  0  0  0  0
  -15.8628  -28.0779   22.7116 H   0  0  0  0  0  0
  -24.6139  -30.6616   25.7618 H   0  0  0  0  0  0
  -24.8813  -32.2465   26.4790 H   0  0  0  0  0  0
  -25.8230  -30.8606   27.0085 H   0  0  0  0  0  0
  -26.2909  -29.6683   24.1060 H   0  0  0  0  0  0
  -27.4587  -29.7299   25.4100 H   0  0  0  0  0  0
  -27.8521  -30.4510   23.8661 H   0  0  0  0  0  0
  -27.2812  -33.3498   26.1963 H   0  0  0  0  0  0
  -28.4018  -32.6519   25.0324 H   0  0  0  0  0  0
  -28.0622  -31.8198   26.5419 H   0  0  0  0  0  0
  -28.2554  -38.0148   24.7594 H   0  0  0  0  0  0
  -28.1097  -36.2675   24.6285 H   0  0  0  0  0  0
  -27.2295  -37.1418   25.8904 H   0  0  0  0  0  0
  -20.9211  -29.8819   21.7121 H   0  0  0  0  0  0
  -26.0173  -38.2877   24.1449 H   0  0  0  0  0  0
  -29.9705  -19.5131   24.3694 H   0  0  0  0  0  0
  -30.2075  -17.3633   23.2446 H   0  0  0  0  0  0
  -29.2644  -21.4887   23.1620 H   0  0  0  0  0  0
  -30.2355  -16.8340   19.6146 H   0  0  0  0  0  0
  -29.7948  -15.4299   22.2951 H   0  0  0  0  0  0
  -28.5282  -20.2343   15.9113 H   0  0  0  0  0  0
  -27.1364  -19.4075   16.5974 H   0  0  0  0  0  0
  -28.6688  -18.5582   16.4333 H   0  0  0  0  0  0
  -29.6438  -20.3463   18.0940 H   0  0  0  0  0  0
  -27.9806  -20.8703   18.3097 H   0  0  0  0  0  0
  -28.1299  -23.0890   22.1428 H   0  0  0  0  0  0
  -29.7780  -23.0971   21.5415 H   0  0  0  0  0  0
  -29.4259  -25.7246   21.5079 H   0  0  0  0  0  0
  -27.6932  -25.7381   21.7435 H   0  0  0  0  0  0
  -28.2724  -21.7355   19.6276 H   0  0  0  0  0  0
  1 25  1  0  0  0
  1 30  2  0  0  0
  1 78  1  0  0  0
  2  3  1  0  0  0
  2 25  1  0  0  0
  2 88  1  0  0  0
  2 89  1  0  0  0
  3  4  1  0  0  0
  3 90  1  0  0  0
  3 91  1  0  0  0
  4  5  1  0  0  0
  4 92  1  0  0  0
  4 93  1  0  0  0
  5  6  1  0  0  0
  5 26  1  0  0  0
  5 94  1  0  0  0
  6 25  1  0  0  0
  6 95  1  0  0  0
  6 96  1  0  0  0
  7  8  2  0  0  0
  7 26  1  0  0  0
  7 29  1  0  0  0
  8  9  1  0  0  0
  8 22  1  0  0  0
  9 10  1  0  0  0
  9 27  2  0  0  0
 10 11  2  0  0  0
 10 15  1  0  0  0
 11 12  1  0  0  0
 11 97  1  0  0  0
 12 13  2  0  0  0
 12 98  1  0  0  0
 13 14  1  0  0  0
 13 31  1  0  0  0
 14 15  2  0  0  0
 14 99  1  0  0  0
 15100  1  0  0  0
 16 17  2  0  0  0
 16 21  1  0  0  0
 16 31  1  0  0  0
 17 18  1  0  0  0
 17101  1  0  0  0
 18 19  2  0  0  0
 18102  1  0  0  0
 19 20  1  0  0  0
 19 24  1  0  0  0
 20 21  2  0  0  0
 20103  1  0  0  0
 21 23  1  0  0  0
 22 28  1  0  0  0
 22 32  2  0  0  0
 26 27  1  0  0  0
 28104  1  0  0  0
 28105  1  0  0  0
 29106  1  0  0  0
 29107  1  0  0  0
 33 34  1  0  0  0
 33 66  1  0  0  0
 33 70  2  0  0  0
 34 36  1  0  0  0
 34 59  1  0  0  0
 34108  1  0  0  0
 35 44  2  0  0  0
 35 45  1  0  0  0
 35 68  1  0  0  0
 36 56  1  0  0  0
 36109  1  0  0  0
 37 39  1  0  0  0
 37 47  1  0  0  0
 37 66  1  0  0  0
 37110  1  0  0  0
 38 43  2  0  0  0
 38 46  1  0  0  0
 38 47  1  0  0  0
 39 64  1  0  0  0
 39 67  2  0  0  0
 40 52  1  0  0  0
 40 53  2  0  0  0
 40 58  1  0  0  0
 41111  1  0  0  0
 41112  1  0  0  0
 41113  1  0  0  0
 41 48  1  0  0  0
 42 43  1  0  0  0
 42 66  1  0  0  0
 42114  1  0  0  0
 42115  1  0  0  0
 43 44  1  0  0  0
 44116  1  0  0  0
 45 46  2  0  0  0
 45117  1  0  0  0
 46118  1  0  0  0
 47119  1  0  0  0
 47120  1  0  0  0
 48 56  1  0  0  0
 48 65  1  0  0  0
 48121  1  0  0  0
 49 50  1  0  0  0
 49 53  1  0  0  0
 49 64  1  0  0  0
 49122  1  0  0  0
 50 51  1  0  0  0
 50123  1  0  0  0
 50124  1  0  0  0
 51 52  1  0  0  0
 51125  1  0  0  0
 51126  1  0  0  0
 52127  1  0  0  0
 52128  1  0  0  0
 53 54  1  0  0  0
 54 55  2  0  0  0
 54129  1  0  0  0
 55 57  1  0  0  0
 55130  1  0  0  0
 56 69  2  0  0  0
 57 58  2  0  0  0
 57131  1  0  0  0
 58132  1  0  0  0
 59 60  1  0  0  0
 59 61  1  0  0  0
 59 62  1  0  0  0
 60133  1  0  0  0
 60134  1  0  0  0
 60135  1  0  0  0
 61136  1  0  0  0
 61137  1  0  0  0
 61138  1  0  0  0
 62139  1  0  0  0
 62140  1  0  0  0
 62141  1  0  0  0
 63 65  1  0  0  0
 63142  1  0  0  0
 63143  1  0  0  0
 63144  1  0  0  0
 64145  1  0  0  0
 65146  1  0  0  0
 68 84  1  0  0  0
 71 72  2  0  0  0
 71 73  1  0  0  0
 71147  1  0  0  0
 72 74  1  0  0  0
 72148  1  0  0  0
 73 76  2  0  0  0
 73149  1  0  0  0
 74 75  2  0  0  0
 74 77  1  0  0  0
 75 76  1  0  0  0
 75 79  1  0  0  0
 76 85  1  0  0  0
 77 78  2  0  0  0
 77150  1  0  0  0
 78151  1  0  0  0
 79 82  1  0  0  0
 79 86  2  0  0  0
 80 83  1  0  0  0
 80 84  1  0  0  0
 80 87  2  0  0  0
 81 82  1  0  0  0
 81152  1  0  0  0
 81153  1  0  0  0
 81154  1  0  0  0
 82155  1  0  0  0
 82156  1  0  0  0
 83 85  1  0  0  0
 83157  1  0  0  0
 83158  1  0  0  0
 84159  1  0  0  0
 84160  1  0  0  0
 85161  1  0  0  0
M  ISO  4   1 100  68 101  78 100  84 101
M  END
> <chiral flag>
0

> <version>
0

> <s_m_source_file>
/data/baiqing/PycharmProjects/Reinvent-master-3.2/result/LINK_invent/BTK/process_docking_weight1_custom_product_contain_oxygen_bond_distance_aromatic_linkinvent_7_9_3/rearranged_h_0167.sdf

> <i_m_source_file_index>
38

> <r_mmod_Potential_Energy-OPLS-2005>
164.592300415039

> <r_mmod_Stretch_Energy-OPLS-2005>
51.4147071838379

> <r_mmod_Bend_Energy-OPLS-2005>
114.742729187012

> <r_mmod_Torsional_Energy-OPLS-2005>
257.124908447266

> <r_mmod_Improper_Torsional_Energy-OPLS-2005>
5.10721158981323

> <r_mmod_Van_der_Waal_Energy-OPLS-2005>
162.566009521484

> <r_mmod_Electrostatic_Energy-OPLS-2005>
-223.077941894531

> <r_mmod_Solvation_Energy-OPLS-2005>
-216.790390014648

> <b_mmod_Minimization_Converged-OPLS-2005>
0

> <r_mmod_RMS_Derivative-OPLS-2005>
5.03118133544922

$$$$
38
                    3D
 Structure written by MMmdl.
173182  0  0  1  0            999 V2000
  -30.6597  -14.5041   20.5923 C   0  0  0  0  0  0
  -30.4389  -12.3318   19.4210 C   0  0  0  0  0  0
  -29.5008  -12.5221   18.2090 C   0  0  0  0  0  0
  -28.0215  -12.3728   18.6193 C   0  0  0  0  0  0
  -27.6663  -13.2028   19.8814 C   0  0  2  0  0  0
  -28.7068  -12.9560   20.9970 C   0  0  0  0  0  0
  -25.2589  -13.8142   20.5638 C   0  0  0  0  0  0
  -24.1844  -13.0428   20.9162 C   0  0  0  0  0  0
  -24.6399  -11.6896   20.8731 C   0  0  0  0  0  0
  -23.9062  -10.4285   21.0402 C   0  0  0  0  0  0
  -24.3614   -9.4203   21.9182 C   0  0  0  0  0  0
  -23.6290   -8.2240   22.0756 C   0  0  0  0  0  0
  -22.4272   -8.0278   21.3546 C   0  0  0  0  0  0
  -21.9907   -9.0250   20.4647 C   0  0  0  0  0  0
  -22.7233  -10.2129   20.3054 C   0  0  0  0  0  0
  -21.6852   -6.0733   22.5279 C   0  0  0  0  0  0
  -21.4011   -6.5637   23.8213 C   0  0  0  0  0  0
  -21.3661   -5.6790   24.9175 C   0  0  0  0  0  0
  -21.6047   -4.3054   24.7225 C   0  0  0  0  0  0
  -21.8819   -3.8146   23.4346 C   0  0  0  0  0  0
  -21.9192   -4.6962   22.3401 C   0  0  0  0  0  0
  -22.7867  -13.5231   21.1831 C   0  0  0  0  0  0
  -22.1660   -4.2148   21.0979 F   0  0  0  0  0  0
  -21.5633   -3.4540   25.7739 F   0  0  0  0  0  0
  -30.0397  -13.2956   20.4602 N   0  0  0  0  0  0
  -26.3045  -12.9311   20.3379 N   0  0  0  0  0  0
  -25.9329  -11.6475   20.5774 N   0  0  0  0  0  0
  -22.0512  -12.8231   22.0397 N   0  0  0  0  0  0
  -25.4274  -15.1852   20.3978 N   0  0  0  0  0  0
  -31.7562  -14.7505   20.0783 O   0  0  0  0  0  0
  -21.6637   -6.8876   21.4241 O   0  0  0  0  0  0
  -22.3548  -14.5538   20.6684 O   0  0  0  0  0  0
  -24.6162  -31.8662   23.2081 C   0  0  0  0  0  0
  -25.9047  -32.4816   23.8388 C   0  0  1  0  0  0
  -27.2385  -27.4168   20.1052 C   0  0  0  0  0  0
  -25.5895  -33.8615   24.2321 N   0  0  0  0  0  0
  -23.4066  -30.4871   21.5486 C   0  0  2  0  0  0
  -24.8565  -28.9453   20.1201 C   0  0  0  0  0  0
  -22.7420  -29.4648   22.4988 C   0  0  0  0  0  0
  -18.0273  -28.1376   22.8491 C   0  0  0  0  0  0
  -24.1487  -36.7313   23.2640 C   0  0  0  0  0  0
  -25.9367  -30.8252   21.3649 C   0  0  0  0  0  0
  -26.0171  -29.4555   20.7174 C   0  0  0  0  0  0
  -27.2143  -28.6985   20.7073 C   0  0  0  0  0  0
  -26.0640  -26.9217   19.5057 C   0  0  0  0  0  0
  -24.8750  -27.6772   19.5117 C   0  0  0  0  0  0
  -23.6186  -29.8147   20.1654 C   0  0  0  0  0  0
  -25.4109  -36.3111   24.0339 C   0  0  1  0  0  0
  -20.5864  -28.3666   23.1315 C   0  0  2  0  0  0
  -20.6764  -26.9400   22.5418 C   0  0  0  0  0  0
  -19.5745  -26.6384   21.5212 C   0  0  0  0  0  0
  -18.1922  -26.7922   22.1622 C   0  0  0  0  0  0
  -19.1522  -28.8838   23.2899 C   0  0  0  0  0  0
  -18.9449  -30.1443   23.8909 C   0  0  0  0  0  0
  -17.6453  -30.6583   24.0563 C   0  0  0  0  0  0
  -25.9035  -34.9474   23.5130 C   0  0  0  0  0  0
  -16.5344  -29.9085   23.6325 C   0  0  0  0  0  0
  -16.7262  -28.6501   23.0348 C   0  0  0  0  0  0
  -26.4470  -31.6594   25.0717 C   0  0  0  0  0  0
  -25.3734  -31.3700   26.1463 C   0  0  0  0  0  0
  -27.0304  -30.3038   24.6097 C   0  0  0  0  0  0
  -27.6045  -32.4312   25.7482 C   0  0  0  0  0  0
  -27.5583  -37.1811   24.8466 C   0  0  0  0  0  0
  -21.4146  -29.3031   22.3724 N   0  0  0  0  0  0
  -26.4297  -37.3794   23.9407 N   0  0  0  0  0  0
  -24.6713  -31.0743   22.0991 N   0  0  0  0  0  0
  -23.4180  -28.8195   23.3044 O   0  0  0  0  0  0
  -28.3843  -26.6513   20.0502 O   0  0  0  0  0  0
  -26.5600  -34.8927   22.4694 O   0  0  0  0  0  0
  -23.5349  -32.1419   23.7464 O   0  0  0  0  0  0
  -30.4103  -19.0819   20.3373 C   0  0  0  0  0  0
  -30.6407  -17.6807   20.3999 C   0  0  0  0  0  0
  -28.5380  -18.8408   21.8461 C   0  0  0  0  0  0
  -29.3442  -19.6853   21.0502 C   0  0  0  0  0  0
  -28.7687  -17.4480   21.9295 C   0  0  0  0  0  0
  -29.8188  -16.8396   21.1948 C   0  0  0  0  0  0
  -30.2272  -22.0837   21.5289 C   0  0  0  0  0  0
  -29.7540  -23.5268   21.8282 C   0  0  0  0  0  0
  -28.0231  -23.3302   20.0087 C   0  0  0  0  0  0
  -29.0554  -21.2128   21.0370 C   0  0  1  0  0  0
  -28.4103  -21.8264   19.7476 C   0  0  0  0  0  0
  -29.1182  -24.2644   20.6127 C   0  0  1  0  0  0
  -27.8675  -16.6160   22.8291 C   0  0  0  0  0  0
  -29.3328  -21.7084   18.5123 C   0  0  0  0  0  0
  -27.1141  -21.0574   19.4105 C   0  0  0  0  0  0
  -31.2585  -25.2209   19.8967 C   0  0  0  0  0  0
  -28.5085  -25.6440   21.0739 C   0  0  0  0  0  0
  -29.9521  -15.4103   21.3022 N   0  0  0  0  0  0
  -30.0806  -24.4872   19.5736 O   0  0  0  0  0  0
  -31.4798  -12.4592   19.1180 H   0  0  0  0  0  0
  -30.3655  -11.3138   19.8064 H   0  0  0  0  0  0
  -29.7457  -11.8024   17.4267 H   0  0  0  0  0  0
  -29.6608  -13.5104   17.7744 H   0  0  0  0  0  0
  -27.8344  -11.3151   18.8083 H   0  0  0  0  0  0
  -27.3708  -12.6518   17.7898 H   0  0  0  0  0  0
  -27.7171  -14.2552   19.6007 H   0  0  0  0  0  0
  -28.6925  -11.9065   21.2956 H   0  0  0  0  0  0
  -28.4497  -13.5073   21.9017 H   0  0  0  0  0  0
  -25.2760   -9.5681   22.4756 H   0  0  0  0  0  0
  -23.9999   -7.4630   22.7475 H   0  0  0  0  0  0
  -21.0841   -8.8766   19.8951 H   0  0  0  0  0  0
  -22.3692  -10.9668   19.6163 H   0  0  0  0  0  0
  -21.1998   -7.6144   23.9716 H   0  0  0  0  0  0
  -21.1486   -6.0521   25.9079 H   0  0  0  0  0  0
  -22.0598   -2.7609   23.2846 H   0  0  0  0  0  0
  -22.4125  -11.9888   22.4779 H   0  0  0  0  0  0
  -21.1133  -13.1264   22.2608 H   0  0  0  0  0  0
  -24.6599  -15.8389   20.5045 H   0  0  0  0  0  0
  -26.2803  -15.6266   20.0786 H   0  0  0  0  0  0
  -26.7119  -32.5529   23.1153 H   0  0  0  0  0  0
  -25.0049  -33.9775   25.0469 H   0  0  0  0  0  0
  -22.6961  -31.3039   21.4055 H   0  0  0  0  0  0
  -23.3746  -35.9648   23.3312 H   0  0  0  0  0  0
  -24.3580  -36.8917   22.2051 H   0  0  0  0  0  0
  -23.7239  -37.6523   23.6645 H   0  0  0  0  0  0
  -26.0494  -31.5882   20.5933 H   0  0  0  0  0  0
  -26.8243  -30.8829   21.9835 H   0  0  0  0  0  0
  -28.1139  -29.0914   21.1602 H   0  0  0  0  0  0
  -26.0735  -25.9502   19.0317 H   0  0  0  0  0  0
  -23.9839  -27.2782   19.0470 H   0  0  0  0  0  0
  -23.7296  -30.5871   19.4035 H   0  0  0  0  0  0
  -22.7428  -29.2346   19.8694 H   0  0  0  0  0  0
  -25.1287  -36.1981   25.0833 H   0  0  0  0  0  0
  -20.9953  -28.3228   24.1436 H   0  0  0  0  0  0
  -20.5667  -26.2271   23.3604 H   0  0  0  0  0  0
  -21.6635  -26.7442   22.1209 H   0  0  0  0  0  0
  -19.6907  -25.6296   21.1234 H   0  0  0  0  0  0
  -19.6688  -27.3201   20.6747 H   0  0  0  0  0  0
  -17.4194  -26.6672   21.4021 H   0  0  0  0  0  0
  -18.0321  -26.0061   22.9014 H   0  0  0  0  0  0
  -19.7927  -30.7254   24.2286 H   0  0  0  0  0  0
  -17.5009  -31.6267   24.5158 H   0  0  0  0  0  0
  -15.5346  -30.2992   23.7642 H   0  0  0  0  0  0
  -15.8661  -28.0826   22.7057 H   0  0  0  0  0  0
  -24.5904  -30.7053   25.7793 H   0  0  0  0  0  0
  -24.8930  -32.2855   26.4923 H   0  0  0  0  0  0
  -25.8084  -30.8855   27.0212 H   0  0  0  0  0  0
  -26.2852  -29.6799   24.1148 H   0  0  0  0  0  0
  -27.4071  -29.7273   25.4556 H   0  0  0  0  0  0
  -27.8687  -30.4358   23.9252 H   0  0  0  0  0  0
  -27.2664  -33.3597   26.2094 H   0  0  0  0  0  0
  -28.3838  -32.6894   25.0299 H   0  0  0  0  0  0
  -28.0731  -31.8413   26.5369 H   0  0  0  0  0  0
  -28.2608  -38.0101   24.7510 H   0  0  0  0  0  0
  -28.1071  -36.2633   24.6298 H   0  0  0  0  0  0
  -27.2299  -37.1471   25.8869 H   0  0  0  0  0  0
  -20.9310  -29.8752   21.6943 H   0  0  0  0  0  0
  -26.0190  -38.2876   24.1402 H   0  0  0  0  0  0
  -31.0624  -19.6950   19.7317 H   0  0  0  0  0  0
  -31.4588  -17.2680   19.8273 H   0  0  0  0  0  0
  -27.7253  -19.2704   22.4153 H   0  0  0  0  0  0
  -30.6298  -21.6546   22.4470 H   0  0  0  0  0  0
  -31.0478  -22.0853   20.8122 H   0  0  0  0  0  0
  -30.5744  -24.1024   22.2558 H   0  0  0  0  0  0
  -29.0113  -23.4794   22.6261 H   0  0  0  0  0  0
  -27.1792  -23.3344   20.7006 H   0  0  0  0  0  0
  -27.6357  -23.7803   19.0936 H   0  0  0  0  0  0
  -28.2949  -21.3361   21.8103 H   0  0  0  0  0  0
  -27.1041  -17.2281   23.3100 H   0  0  0  0  0  0
  -28.4506  -16.1373   23.6163 H   0  0  0  0  0  0
  -27.3562  -15.8416   22.2592 H   0  0  0  0  0  0
  -30.3167  -22.1434   18.6792 H   0  0  0  0  0  0
  -28.9021  -22.2176   17.6497 H   0  0  0  0  0  0
  -29.4858  -20.6695   18.2209 H   0  0  0  0  0  0
  -26.4088  -21.0754   20.2422 H   0  0  0  0  0  0
  -27.3125  -20.0102   19.1792 H   0  0  0  0  0  0
  -26.6080  -21.4876   18.5455 H   0  0  0  0  0  0
  -31.8170  -25.4131   18.9809 H   0  0  0  0  0  0
  -31.9184  -24.6599   20.5580 H   0  0  0  0  0  0
  -31.0410  -26.1867   20.3524 H   0  0  0  0  0  0
  -29.1550  -26.0815   21.8357 H   0  0  0  0  0  0
  -27.5573  -25.4726   21.5823 H   0  0  0  0  0  0
  -29.1969  -14.9760   21.8080 H   0  0  0  0  0  0
  1 25  1  0  0  0
  1 30  2  0  0  0
  1 88  1  0  0  0
  2  3  1  0  0  0
  2 25  1  0  0  0
  2 90  1  0  0  0
  2 91  1  0  0  0
  3  4  1  0  0  0
  3 92  1  0  0  0
  3 93  1  0  0  0
  4  5  1  0  0  0
  4 94  1  0  0  0
  4 95  1  0  0  0
  5  6  1  0  0  0
  5 26  1  0  0  0
  5 96  1  0  0  0
  6 25  1  0  0  0
  6 97  1  0  0  0
  6 98  1  0  0  0
  7  8  2  0  0  0
  7 26  1  0  0  0
  7 29  1  0  0  0
  8  9  1  0  0  0
  8 22  1  0  0  0
  9 10  1  0  0  0
  9 27  2  0  0  0
 10 11  2  0  0  0
 10 15  1  0  0  0
 11 12  1  0  0  0
 11 99  1  0  0  0
 12 13  2  0  0  0
 12100  1  0  0  0
 13 14  1  0  0  0
 13 31  1  0  0  0
 14 15  2  0  0  0
 14101  1  0  0  0
 15102  1  0  0  0
 16 17  2  0  0  0
 16 21  1  0  0  0
 16 31  1  0  0  0
 17 18  1  0  0  0
 17103  1  0  0  0
 18 19  2  0  0  0
 18104  1  0  0  0
 19 20  1  0  0  0
 19 24  1  0  0  0
 20 21  2  0  0  0
 20105  1  0  0  0
 21 23  1  0  0  0
 22 28  1  0  0  0
 22 32  2  0  0  0
 26 27  1  0  0  0
 28106  1  0  0  0
 28107  1  0  0  0
 29108  1  0  0  0
 29109  1  0  0  0
 33 34  1  0  0  0
 33 66  1  0  0  0
 33 70  2  0  0  0
 34 36  1  0  0  0
 34 59  1  0  0  0
 34110  1  0  0  0
 35 44  2  0  0  0
 35 45  1  0  0  0
 35 68  1  0  0  0
 36 56  1  0  0  0
 36111  1  0  0  0
 37 39  1  0  0  0
 37 47  1  0  0  0
 37 66  1  0  0  0
 37112  1  0  0  0
 38 43  2  0  0  0
 38 46  1  0  0  0
 38 47  1  0  0  0
 39 64  1  0  0  0
 39 67  2  0  0  0
 40 52  1  0  0  0
 40 53  2  0  0  0
 40 58  1  0  0  0
 41113  1  0  0  0
 41114  1  0  0  0
 41115  1  0  0  0
 41 48  1  0  0  0
 42 43  1  0  0  0
 42 66  1  0  0  0
 42116  1  0  0  0
 42117  1  0  0  0
 43 44  1  0  0  0
 44118  1  0  0  0
 45 46  2  0  0  0
 45119  1  0  0  0
 46120  1  0  0  0
 47121  1  0  0  0
 47122  1  0  0  0
 48 56  1  0  0  0
 48 65  1  0  0  0
 48123  1  0  0  0
 49 50  1  0  0  0
 49 53  1  0  0  0
 49 64  1  0  0  0
 49124  1  0  0  0
 50 51  1  0  0  0
 50125  1  0  0  0
 50126  1  0  0  0
 51 52  1  0  0  0
 51127  1  0  0  0
 51128  1  0  0  0
 52129  1  0  0  0
 52130  1  0  0  0
 53 54  1  0  0  0
 54 55  2  0  0  0
 54131  1  0  0  0
 55 57  1  0  0  0
 55132  1  0  0  0
 56 69  2  0  0  0
 57 58  2  0  0  0
 57133  1  0  0  0
 58134  1  0  0  0
 59 60  1  0  0  0
 59 61  1  0  0  0
 59 62  1  0  0  0
 60135  1  0  0  0
 60136  1  0  0  0
 60137  1  0  0  0
 61138  1  0  0  0
 61139  1  0  0  0
 61140  1  0  0  0
 62141  1  0  0  0
 62142  1  0  0  0
 62143  1  0  0  0
 63 65  1  0  0  0
 63144  1  0  0  0
 63145  1  0  0  0
 63146  1  0  0  0
 64147  1  0  0  0
 65148  1  0  0  0
 68 87  1  0  0  0
 71 72  2  0  0  0
 71 74  1  0  0  0
 71149  1  0  0  0
 72 76  1  0  0  0
 72150  1  0  0  0
 73 74  2  0  0  0
 73 75  1  0  0  0
 73151  1  0  0  0
 74 80  1  0  0  0
 75 76  2  0  0  0
 75 83  1  0  0  0
 76 88  1  0  0  0
 77 78  1  0  0  0
 77 80  1  0  0  0
 77152  1  0  0  0
 77153  1  0  0  0
 78 82  1  0  0  0
 78154  1  0  0  0
 78155  1  0  0  0
 79 81  1  0  0  0
 79 82  1  0  0  0
 79156  1  0  0  0
 79157  1  0  0  0
 80 81  1  0  0  0
 80158  1  0  0  0
 81 84  1  0  0  0
 81 85  1  0  0  0
 82 87  1  0  0  0
 82 89  1  0  0  0
 83159  1  0  0  0
 83160  1  0  0  0
 83161  1  0  0  0
 84162  1  0  0  0
 84163  1  0  0  0
 84164  1  0  0  0
 85165  1  0  0  0
 85166  1  0  0  0
 85167  1  0  0  0
 86 89  1  0  0  0
 86168  1  0  0  0
 86169  1  0  0  0
 86170  1  0  0  0
 87171  1  0  0  0
 87172  1  0  0  0
 88173  1  0  0  0
M  ISO  4   1 100  68 101  87 101  88 100
M  END
> <chiral flag>
0

> <version>
0

> <s_m_source_file>
/data/baiqing/PycharmProjects/Reinvent-master-3.2/result/LINK_invent/BTK/process_docking_weight1_custom_product_contain_oxygen_bond_distance_aromatic_linkinvent_7_9_3/rearranged_h_0167.sdf

> <i_m_source_file_index>
39

> <r_mmod_Potential_Energy-OPLS-2005>
42.5822143554688

> <r_mmod_Stretch_Energy-OPLS-2005>
51.9991188049316

> <r_mmod_Bend_Energy-OPLS-2005>
134.035537719727

> <r_mmod_Torsional_Energy-OPLS-2005>
280.686920166016

> <r_mmod_Improper_Torsional_Energy-OPLS-2005>
3.27351093292236

> <r_mmod_Van_der_Waal_Energy-OPLS-2005>
148.808349609375

> <r_mmod_Electrostatic_Energy-OPLS-2005>
-393.917907714844

> <r_mmod_Solvation_Energy-OPLS-2005>
-197.131271362305

> <b_mmod_Minimization_Converged-OPLS-2005>
0

> <r_mmod_RMS_Derivative-OPLS-2005>
0.382929891347885

$$$$
39
                    3D
 Structure written by MMmdl.
155163  0  0  1  0            999 V2000
  -30.7134  -14.4893   20.5655 C   0  0  0  0  0  0
  -30.4180  -12.3161   19.4304 C   0  0  0  0  0  0
  -29.4942  -12.5016   18.2099 C   0  0  0  0  0  0
  -28.0165  -12.3594   18.6232 C   0  0  0  0  0  0
  -27.6587  -13.2109   19.8709 C   0  0  2  0  0  0
  -28.7011  -13.0196   20.9966 C   0  0  0  0  0  0
  -25.2578  -13.8168   20.5683 C   0  0  0  0  0  0
  -24.1836  -13.0442   20.9189 C   0  0  0  0  0  0
  -24.6394  -11.6909   20.8740 C   0  0  0  0  0  0
  -23.9061  -10.4294   21.0407 C   0  0  0  0  0  0
  -24.3614   -9.4210   21.9185 C   0  0  0  0  0  0
  -23.6291   -8.2244   22.0754 C   0  0  0  0  0  0
  -22.4273   -8.0282   21.3545 C   0  0  0  0  0  0
  -21.9908   -9.0255   20.4647 C   0  0  0  0  0  0
  -22.7234  -10.2136   20.3056 C   0  0  0  0  0  0
  -21.6854   -6.0736   22.5281 C   0  0  0  0  0  0
  -21.4013   -6.5640   23.8214 C   0  0  0  0  0  0
  -21.3658   -5.6792   24.9175 C   0  0  0  0  0  0
  -21.6044   -4.3055   24.7226 C   0  0  0  0  0  0
  -21.8819   -3.8147   23.4348 C   0  0  0  0  0  0
  -21.9193   -4.6964   22.3404 C   0  0  0  0  0  0
  -22.7859  -13.5242   21.1847 C   0  0  0  0  0  0
  -22.1663   -4.2150   21.0982 F   0  0  0  0  0  0
  -21.5628   -3.4539   25.7738 F   0  0  0  0  0  0
  -30.0298  -13.3176   20.4385 N   0  0  0  0  0  0
  -26.3012  -12.9345   20.3352 N   0  0  0  0  0  0
  -25.9322  -11.6502   20.5768 N   0  0  0  0  0  0
  -22.0494  -12.8234   22.0398 N   0  0  0  0  0  0
  -25.4296  -15.1886   20.4075 N   0  0  0  0  0  0
  -31.8439  -14.6362   20.0935 O   0  0  0  0  0  0
  -21.6639   -6.8878   21.4242 O   0  0  0  0  0  0
  -22.3550  -14.5551   20.6697 O   0  0  0  0  0  0
  -24.6160  -31.8668   23.2091 C   0  0  0  0  0  0
  -25.9046  -32.4816   23.8393 C   0  0  1  0  0  0
  -27.2303  -27.4242   20.1019 C   0  0  0  0  0  0
  -25.5897  -33.8614   24.2324 N   0  0  0  0  0  0
  -23.4054  -30.4905   21.5491 C   0  0  2  0  0  0
  -24.8538  -28.9578   20.1107 C   0  0  0  0  0  0
  -22.7424  -29.4651   22.4973 C   0  0  0  0  0  0
  -18.0275  -28.1378   22.8491 C   0  0  0  0  0  0
  -24.1485  -36.7312   23.2638 C   0  0  0  0  0  0
  -25.9357  -30.8312   21.3631 C   0  0  0  0  0  0
  -26.0155  -29.4658   20.7078 C   0  0  0  0  0  0
  -27.2113  -28.7077   20.6980 C   0  0  0  0  0  0
  -26.0568  -26.9378   19.4886 C   0  0  0  0  0  0
  -24.8703  -27.6944   19.4948 C   0  0  0  0  0  0
  -23.6150  -29.8242   20.1632 C   0  0  0  0  0  0
  -25.4105  -36.3107   24.0338 C   0  0  1  0  0  0
  -20.5869  -28.3665   23.1312 C   0  0  2  0  0  0
  -20.6763  -26.9399   22.5415 C   0  0  0  0  0  0
  -19.5741  -26.6387   21.5211 C   0  0  0  0  0  0
  -18.1921  -26.7926   22.1624 C   0  0  0  0  0  0
  -19.1526  -28.8838   23.2899 C   0  0  0  0  0  0
  -18.9452  -30.1445   23.8908 C   0  0  0  0  0  0
  -17.6452  -30.6582   24.0566 C   0  0  0  0  0  0
  -25.9032  -34.9471   23.5128 C   0  0  0  0  0  0
  -16.5343  -29.9083   23.6329 C   0  0  0  0  0  0
  -16.7264  -28.6503   23.0347 C   0  0  0  0  0  0
  -26.4472  -31.6594   25.0721 C   0  0  0  0  0  0
  -25.3741  -31.3698   26.1472 C   0  0  0  0  0  0
  -27.0299  -30.3035   24.6092 C   0  0  0  0  0  0
  -27.6050  -32.4310   25.7483 C   0  0  0  0  0  0
  -27.5579  -37.1810   24.8465 C   0  0  0  0  0  0
  -21.4149  -29.3031   22.3717 N   0  0  0  0  0  0
  -26.4291  -37.3791   23.9410 N   0  0  0  0  0  0
  -24.6708  -31.0765   22.0991 N   0  0  0  0  0  0
  -23.4193  -28.8188   23.3013 O   0  0  0  0  0  0
  -28.3508  -26.6214   20.1384 O   0  0  0  0  0  0
  -26.5596  -34.8922   22.4691 O   0  0  0  0  0  0
  -23.5349  -32.1415   23.7481 O   0  0  0  0  0  0
  -32.1820  -18.6015   21.5652 C   0  0  0  0  0  0
  -31.2181  -19.6262   21.5174 C   0  0  0  0  0  0
  -31.8001  -17.2539   21.4259 C   0  0  0  0  0  0
  -29.4780  -17.9467   21.1737 C   0  0  0  0  0  0
  -29.8554  -19.3128   21.3277 C   0  0  0  0  0  0
  -30.4434  -16.9016   21.2143 C   0  0  0  0  0  0
  -28.8533  -20.4007   21.3696 C   0  0  0  0  0  0
  -28.8076  -24.1648   20.4753 C   0  0  0  0  0  0
  -28.2174  -22.8419   21.0142 C   0  0  0  0  0  0
  -28.1623  -25.4713   20.9971 C   0  0  0  0  0  0
  -30.0237  -15.5293   21.0913 N   0  0  0  0  0  0
  -29.0937  -21.6400   20.8874 N   0  0  0  0  0  0
  -27.6782  -20.1655   21.9510 N   0  3  0  0  0  0
  -29.7644  -24.1618   19.6907 O   0  0  0  0  0  0
  -31.4634  -12.4028   19.1289 H   0  0  0  0  0  0
  -30.3121  -11.3111   19.8418 H   0  0  0  0  0  0
  -29.7378  -11.7704   17.4379 H   0  0  0  0  0  0
  -29.6607  -13.4837   17.7643 H   0  0  0  0  0  0
  -27.8329  -11.3046   18.8310 H   0  0  0  0  0  0
  -27.3644  -12.6209   17.7891 H   0  0  0  0  0  0
  -27.6949  -14.2544   19.5574 H   0  0  0  0  0  0
  -28.6803  -11.9927   21.3643 H   0  0  0  0  0  0
  -28.4622  -13.6435   21.8589 H   0  0  0  0  0  0
  -25.2761   -9.5686   22.4758 H   0  0  0  0  0  0
  -24.0002   -7.4636   22.7472 H   0  0  0  0  0  0
  -21.0841   -8.8772   19.8954 H   0  0  0  0  0  0
  -22.3693  -10.9673   19.6163 H   0  0  0  0  0  0
  -21.2004   -7.6147   23.9716 H   0  0  0  0  0  0
  -21.1479   -6.0523   25.9078 H   0  0  0  0  0  0
  -22.0599   -2.7609   23.2848 H   0  0  0  0  0  0
  -22.4101  -11.9891   22.4785 H   0  0  0  0  0  0
  -21.1112  -13.1263   22.2600 H   0  0  0  0  0  0
  -24.6576  -15.8396   20.5011 H   0  0  0  0  0  0
  -26.2712  -15.6223   20.0504 H   0  0  0  0  0  0
  -26.7119  -32.5529   23.1160 H   0  0  0  0  0  0
  -25.0055  -33.9774   25.0474 H   0  0  0  0  0  0
  -22.6947  -31.3079   21.4102 H   0  0  0  0  0  0
  -23.3741  -35.9653   23.3310 H   0  0  0  0  0  0
  -24.3579  -36.8915   22.2050 H   0  0  0  0  0  0
  -23.7243  -37.6523   23.6645 H   0  0  0  0  0  0
  -26.0488  -31.5982   20.5955 H   0  0  0  0  0  0
  -26.8233  -30.8844   21.9820 H   0  0  0  0  0  0
  -28.1061  -29.0902   21.1689 H   0  0  0  0  0  0
  -26.0560  -25.9648   19.0172 H   0  0  0  0  0  0
  -23.9785  -27.2991   19.0279 H   0  0  0  0  0  0
  -23.7229  -30.5999   19.4042 H   0  0  0  0  0  0
  -22.7390  -29.2442   19.8669 H   0  0  0  0  0  0
  -25.1281  -36.1975   25.0832 H   0  0  0  0  0  0
  -20.9966  -28.3230   24.1430 H   0  0  0  0  0  0
  -20.5663  -26.2270   23.3600 H   0  0  0  0  0  0
  -21.6633  -26.7439   22.1210 H   0  0  0  0  0  0
  -19.6898  -25.6302   21.1228 H   0  0  0  0  0  0
  -19.6679  -27.3209   20.6750 H   0  0  0  0  0  0
  -17.4192  -26.6677   21.4025 H   0  0  0  0  0  0
  -18.0320  -26.0064   22.9018 H   0  0  0  0  0  0
  -19.7927  -30.7262   24.2280 H   0  0  0  0  0  0
  -17.5007  -31.6263   24.5166 H   0  0  0  0  0  0
  -15.5344  -30.2987   23.7646 H   0  0  0  0  0  0
  -15.8665  -28.0828   22.7050 H   0  0  0  0  0  0
  -24.5910  -30.7048   25.7813 H   0  0  0  0  0  0
  -24.8935  -32.2852   26.4937 H   0  0  0  0  0  0
  -25.8099  -30.8858   27.0221 H   0  0  0  0  0  0
  -26.2840  -29.6800   24.1149 H   0  0  0  0  0  0
  -27.4072  -29.7267   25.4546 H   0  0  0  0  0  0
  -27.8675  -30.4354   23.9238 H   0  0  0  0  0  0
  -27.2676  -33.3600   26.2091 H   0  0  0  0  0  0
  -28.3847  -32.6883   25.0302 H   0  0  0  0  0  0
  -28.0733  -31.8413   26.5373 H   0  0  0  0  0  0
  -28.2605  -38.0101   24.7510 H   0  0  0  0  0  0
  -28.1067  -36.2632   24.6293 H   0  0  0  0  0  0
  -27.2299  -37.1470   25.8870 H   0  0  0  0  0  0
  -20.9308  -29.8758   21.6943 H   0  0  0  0  0  0
  -26.0179  -38.2870   24.1408 H   0  0  0  0  0  0
  -33.2221  -18.8470   21.7281 H   0  0  0  0  0  0
  -31.5317  -20.6518   21.6586 H   0  0  0  0  0  0
  -32.5716  -16.5020   21.5002 H   0  0  0  0  0  0
  -28.4358  -17.6989   21.0286 H   0  0  0  0  0  0
  -27.2778  -22.6598   20.4916 H   0  0  0  0  0  0
  -27.9689  -22.9931   22.0655 H   0  0  0  0  0  0
  -28.5970  -25.6973   21.9706 H   0  0  0  0  0  0
  -27.1050  -25.2717   21.1758 H   0  0  0  0  0  0
  -29.0666  -15.3254   21.3333 H   0  0  0  0  0  0
  -29.9575  -21.7983   20.3795 H   0  0  0  0  0  0
  -27.5254  -19.2734   22.3966 H   0  0  0  0  0  0
  -26.9394  -20.8458   21.9841 H   0  0  0  0  0  0
  1 25  1  0  0  0
  1 30  2  0  0  0
  1 81  1  0  0  0
  2  3  1  0  0  0
  2 25  1  0  0  0
  2 85  1  0  0  0
  2 86  1  0  0  0
  3  4  1  0  0  0
  3 87  1  0  0  0
  3 88  1  0  0  0
  4  5  1  0  0  0
  4 89  1  0  0  0
  4 90  1  0  0  0
  5  6  1  0  0  0
  5 26  1  0  0  0
  5 91  1  0  0  0
  6 25  1  0  0  0
  6 92  1  0  0  0
  6 93  1  0  0  0
  7  8  2  0  0  0
  7 26  1  0  0  0
  7 29  1  0  0  0
  8  9  1  0  0  0
  8 22  1  0  0  0
  9 10  1  0  0  0
  9 27  2  0  0  0
 10 11  2  0  0  0
 10 15  1  0  0  0
 11 12  1  0  0  0
 11 94  1  0  0  0
 12 13  2  0  0  0
 12 95  1  0  0  0
 13 14  1  0  0  0
 13 31  1  0  0  0
 14 15  2  0  0  0
 14 96  1  0  0  0
 15 97  1  0  0  0
 16 17  2  0  0  0
 16 21  1  0  0  0
 16 31  1  0  0  0
 17 18  1  0  0  0
 17 98  1  0  0  0
 18 19  2  0  0  0
 18 99  1  0  0  0
 19 20  1  0  0  0
 19 24  1  0  0  0
 20 21  2  0  0  0
 20100  1  0  0  0
 21 23  1  0  0  0
 22 28  1  0  0  0
 22 32  2  0  0  0
 26 27  1  0  0  0
 28101  1  0  0  0
 28102  1  0  0  0
 29103  1  0  0  0
 29104  1  0  0  0
 33 34  1  0  0  0
 33 66  1  0  0  0
 33 70  2  0  0  0
 34 36  1  0  0  0
 34 59  1  0  0  0
 34105  1  0  0  0
 35 44  2  0  0  0
 35 45  1  0  0  0
 35 68  1  0  0  0
 36 56  1  0  0  0
 36106  1  0  0  0
 37 39  1  0  0  0
 37 47  1  0  0  0
 37 66  1  0  0  0
 37107  1  0  0  0
 38 43  2  0  0  0
 38 46  1  0  0  0
 38 47  1  0  0  0
 39 64  1  0  0  0
 39 67  2  0  0  0
 40 52  1  0  0  0
 40 53  2  0  0  0
 40 58  1  0  0  0
 41108  1  0  0  0
 41109  1  0  0  0
 41110  1  0  0  0
 41 48  1  0  0  0
 42 43  1  0  0  0
 42 66  1  0  0  0
 42111  1  0  0  0
 42112  1  0  0  0
 43 44  1  0  0  0
 44113  1  0  0  0
 45 46  2  0  0  0
 45114  1  0  0  0
 46115  1  0  0  0
 47116  1  0  0  0
 47117  1  0  0  0
 48 56  1  0  0  0
 48 65  1  0  0  0
 48118  1  0  0  0
 49 50  1  0  0  0
 49 53  1  0  0  0
 49 64  1  0  0  0
 49119  1  0  0  0
 50 51  1  0  0  0
 50120  1  0  0  0
 50121  1  0  0  0
 51 52  1  0  0  0
 51122  1  0  0  0
 51123  1  0  0  0
 52124  1  0  0  0
 52125  1  0  0  0
 53 54  1  0  0  0
 54 55  2  0  0  0
 54126  1  0  0  0
 55 57  1  0  0  0
 55127  1  0  0  0
 56 69  2  0  0  0
 57 58  2  0  0  0
 57128  1  0  0  0
 58129  1  0  0  0
 59 60  1  0  0  0
 59 61  1  0  0  0
 59 62  1  0  0  0
 60130  1  0  0  0
 60131  1  0  0  0
 60132  1  0  0  0
 61133  1  0  0  0
 61134  1  0  0  0
 61135  1  0  0  0
 62136  1  0  0  0
 62137  1  0  0  0
 62138  1  0  0  0
 63 65  1  0  0  0
 63139  1  0  0  0
 63140  1  0  0  0
 63141  1  0  0  0
 64142  1  0  0  0
 65143  1  0  0  0
 68 80  1  0  0  0
 71 72  2  0  0  0
 71 73  1  0  0  0
 71144  1  0  0  0
 72 75  1  0  0  0
 72145  1  0  0  0
 73 76  2  0  0  0
 73146  1  0  0  0
 74 75  2  0  0  0
 74 76  1  0  0  0
 74147  1  0  0  0
 75 77  1  0  0  0
 76 81  1  0  0  0
 77 82  1  0  0  0
 77 83  2  0  0  0
 78 79  1  0  0  0
 78 80  1  0  0  0
 78 84  2  0  0  0
 79 82  1  0  0  0
 79148  1  0  0  0
 79149  1  0  0  0
 80150  1  0  0  0
 80151  1  0  0  0
 81152  1  0  0  0
 82153  1  0  0  0
 83154  1  0  0  0
 83155  1  0  0  0
M  CHG  1  83   1
M  ISO  4   1 100  68 101  80 101  81 100
M  END
> <chiral flag>
0

> <version>
0

> <s_m_source_file>
/data/baiqing/PycharmProjects/Reinvent-master-3.2/result/LINK_invent/BTK/process_docking_weight1_custom_product_contain_oxygen_bond_distance_aromatic_linkinvent_7_9_3/rearranged_h_0167.sdf

> <i_m_source_file_index>
40

> <r_mmod_Potential_Energy-OPLS-2005>
-318.435882568359

> <r_mmod_Stretch_Energy-OPLS-2005>
42.6956825256348

> <r_mmod_Bend_Energy-OPLS-2005>
94.7338104248047

> <r_mmod_Torsional_Energy-OPLS-2005>
233.518249511719

> <r_mmod_Improper_Torsional_Energy-OPLS-2005>
4.15099143981934

> <r_mmod_Van_der_Waal_Energy-OPLS-2005>
156.131591796875

> <r_mmod_Electrostatic_Energy-OPLS-2005>
-417.137176513672

> <r_mmod_Solvation_Energy-OPLS-2005>
-449.292572021484

> <b_mmod_Minimization_Converged-OPLS-2005>
0

> <r_mmod_RMS_Derivative-OPLS-2005>
0.422327429056168

$$$$
40
                    3D
 Structure written by MMmdl.
159167  0  0  1  0            999 V2000
  -30.6989  -14.4948   20.5789 C   0  0  0  0  0  0
  -30.4144  -12.3242   19.4471 C   0  0  0  0  0  0
  -29.4973  -12.5098   18.2221 C   0  0  0  0  0  0
  -28.0207  -12.3434   18.6306 C   0  0  0  0  0  0
  -27.6500  -13.2108   19.8648 C   0  0  2  0  0  0
  -28.6821  -13.0282   21.0008 C   0  0  0  0  0  0
  -25.2508  -13.8201   20.5643 C   0  0  0  0  0  0
  -24.1776  -13.0468   20.9198 C   0  0  0  0  0  0
  -24.6336  -11.6943   20.8732 C   0  0  0  0  0  0
  -23.9030  -10.4324   21.0417 C   0  0  0  0  0  0
  -24.3596   -9.4230   21.9183 C   0  0  0  0  0  0
  -23.6283   -8.2253   22.0755 C   0  0  0  0  0  0
  -22.4259   -8.0293   21.3555 C   0  0  0  0  0  0
  -21.9903   -9.0253   20.4628 C   0  0  0  0  0  0
  -22.7229  -10.2140   20.3045 C   0  0  0  0  0  0
  -21.6844   -6.0740   22.5300 C   0  0  0  0  0  0
  -21.4001   -6.5643   23.8230 C   0  0  0  0  0  0
  -21.3656   -5.6781   24.9185 C   0  0  0  0  0  0
  -21.6068   -4.3052   24.7228 C   0  0  0  0  0  0
  -21.8818   -3.8146   23.4341 C   0  0  0  0  0  0
  -21.9176   -4.6971   22.3404 C   0  0  0  0  0  0
  -22.7789  -13.5246   21.1847 C   0  0  0  0  0  0
  -22.1633   -4.2152   21.0988 F   0  0  0  0  0  0
  -21.5651   -3.4536   25.7750 F   0  0  0  0  0  0
  -30.0161  -13.3244   20.4522 N   0  0  0  0  0  0
  -26.2922  -12.9361   20.3285 N   0  0  0  0  0  0
  -25.9248  -11.6528   20.5726 N   0  0  0  0  0  0
  -22.0399  -12.8244   22.0417 N   0  0  0  0  0  0
  -25.4243  -15.1908   20.3992 N   0  0  0  0  0  0
  -31.8354  -14.6333   20.1143 O   0  0  0  0  0  0
  -21.6636   -6.8887   21.4267 O   0  0  0  0  0  0
  -22.3472  -14.5527   20.6657 O   0  0  0  0  0  0
  -24.6140  -31.8644   23.2017 C   0  0  0  0  0  0
  -25.9016  -32.4799   23.8337 C   0  0  1  0  0  0
  -27.2330  -27.4057   20.1152 C   0  0  0  0  0  0
  -25.5839  -33.8598   24.2262 N   0  0  0  0  0  0
  -23.4022  -30.4858   21.5436 C   0  0  2  0  0  0
  -24.8493  -28.9463   20.1075 C   0  0  0  0  0  0
  -22.7394  -29.4651   22.4973 C   0  0  0  0  0  0
  -18.0255  -28.1390   22.8482 C   0  0  0  0  0  0
  -24.1468  -36.7323   23.2648 C   0  0  0  0  0  0
  -25.9282  -30.8294   21.3483 C   0  0  0  0  0  0
  -26.0051  -29.4549   20.7100 C   0  0  0  0  0  0
  -27.1944  -28.6892   20.7140 C   0  0  0  0  0  0
  -26.0533  -26.9135   19.5076 C   0  0  0  0  0  0
  -24.8719  -27.6792   19.4977 C   0  0  0  0  0  0
  -23.6042  -29.8042   20.1611 C   0  0  0  0  0  0
  -25.4088  -36.3105   24.0340 C   0  0  1  0  0  0
  -20.5852  -28.3650   23.1325 C   0  0  2  0  0  0
  -20.6738  -26.9382   22.5431 C   0  0  0  0  0  0
  -19.5730  -26.6387   21.5210 C   0  0  0  0  0  0
  -18.1903  -26.7933   22.1622 C   0  0  0  0  0  0
  -19.1514  -28.8832   23.2904 C   0  0  0  0  0  0
  -18.9446  -30.1448   23.8907 C   0  0  0  0  0  0
  -17.6453  -30.6590   24.0572 C   0  0  0  0  0  0
  -25.9022  -34.9473   23.5116 C   0  0  0  0  0  0
  -16.5339  -29.9109   23.6322 C   0  0  0  0  0  0
  -16.7248  -28.6535   23.0315 C   0  0  0  0  0  0
  -26.4421  -31.6597   25.0689 C   0  0  0  0  0  0
  -25.3678  -31.3713   26.1437 C   0  0  0  0  0  0
  -27.0248  -30.3051   24.6045 C   0  0  0  0  0  0
  -27.5998  -32.4310   25.7452 C   0  0  0  0  0  0
  -27.5573  -37.1790   24.8453 C   0  0  0  0  0  0
  -21.4118  -29.3027   22.3727 N   0  0  0  0  0  0
  -26.4265  -37.3801   23.9428 N   0  0  0  0  0  0
  -24.6674  -31.0752   22.0907 N   0  0  0  0  0  0
  -23.4168  -28.8208   23.3025 O   0  0  0  0  0  0
  -28.4181  -26.6907   20.1742 O   0  0  0  0  0  0
  -26.5633  -34.8937   22.4707 O   0  0  0  0  0  0
  -23.5333  -32.1387   23.7419 O   0  0  0  0  0  0
  -29.6886  -18.0106   20.7042 C   0  0  0  0  0  0
  -31.8148  -17.1862   21.5399 C   0  0  0  0  0  0
  -31.6159  -19.5181   20.8128 C   0  0  0  0  0  0
  -30.4963  -16.9126   21.1197 C   0  0  0  0  0  0
  -30.2305  -19.3209   20.5514 C   0  0  0  0  0  0
  -32.3749  -18.4607   21.3682 C   0  0  0  0  0  0
  -28.9518  -22.8096   19.8732 C   0  0  0  0  0  0
  -28.4316  -24.1806   20.4383 C   0  0  0  0  0  0
  -33.0371  -20.6546   19.0465 C   0  0  0  0  0  0
  -32.3722  -20.7896   20.4255 C   0  0  0  0  0  0
  -29.1201  -21.5666   20.7934 C   0  0  0  0  0  0
  -28.5704  -25.4170   19.5070 C   0  0  0  0  0  0
  -30.0173  -15.5528   21.0907 N   0  0  0  0  0  0
  -29.4017  -20.3356   20.0184 N   0  0  0  0  0  0
  -29.2488  -22.7075   18.6752 O   0  0  0  0  0  0
  -27.9250  -24.2634   21.5654 O   0  0  0  0  0  0
  -33.6799  -18.6443   21.6832 F   0  0  0  0  0  0
  -31.4623  -12.4107   19.1540 H   0  0  0  0  0  0
  -30.3060  -11.3183   19.8551 H   0  0  0  0  0  0
  -29.7598  -11.7965   17.4410 H   0  0  0  0  0  0
  -29.6496  -13.5026   17.7968 H   0  0  0  0  0  0
  -27.8578  -11.2883   18.8600 H   0  0  0  0  0  0
  -27.3602  -12.5731   17.7943 H   0  0  0  0  0  0
  -27.6837  -14.2540   19.5452 H   0  0  0  0  0  0
  -28.6554  -12.0033   21.3735 H   0  0  0  0  0  0
  -28.4303  -13.6515   21.8602 H   0  0  0  0  0  0
  -25.2745   -9.5735   22.4742 H   0  0  0  0  0  0
  -24.0009   -7.4669   22.7484 H   0  0  0  0  0  0
  -21.0844   -8.8759   19.8927 H   0  0  0  0  0  0
  -22.3689  -10.9656   19.6136 H   0  0  0  0  0  0
  -21.1988   -7.6145   23.9748 H   0  0  0  0  0  0
  -21.1474   -6.0501   25.9094 H   0  0  0  0  0  0
  -22.0589   -2.7605   23.2841 H   0  0  0  0  0  0
  -22.3909  -11.9877   22.4825 H   0  0  0  0  0  0
  -21.1006  -13.1279   22.2585 H   0  0  0  0  0  0
  -24.6662  -15.8539   20.5294 H   0  0  0  0  0  0
  -26.2731  -15.6245   20.0579 H   0  0  0  0  0  0
  -26.7093  -32.5499   23.1111 H   0  0  0  0  0  0
  -24.9838  -33.9715   25.0302 H   0  0  0  0  0  0
  -22.6925  -31.3010   21.3971 H   0  0  0  0  0  0
  -23.3728  -35.9656   23.3279 H   0  0  0  0  0  0
  -24.3563  -36.8980   22.2067 H   0  0  0  0  0  0
  -23.7205  -37.6513   23.6686 H   0  0  0  0  0  0
  -26.0180  -31.5790   20.5597 H   0  0  0  0  0  0
  -26.8270  -30.9089   21.9484 H   0  0  0  0  0  0
  -28.0842  -29.0767   21.1898 H   0  0  0  0  0  0
  -26.0104  -25.9352   19.0552 H   0  0  0  0  0  0
  -23.9840  -27.2819   19.0237 H   0  0  0  0  0  0
  -23.6770  -30.5613   19.3798 H   0  0  0  0  0  0
  -22.7362  -29.1970   19.8956 H   0  0  0  0  0  0
  -25.1260  -36.1958   25.0830 H   0  0  0  0  0  0
  -20.9943  -28.3209   24.1450 H   0  0  0  0  0  0
  -20.5592  -26.2254   23.3609 H   0  0  0  0  0  0
  -21.6607  -26.7390   22.1251 H   0  0  0  0  0  0
  -19.6877  -25.6305   21.1223 H   0  0  0  0  0  0
  -19.6690  -27.3206   20.6751 H   0  0  0  0  0  0
  -17.4164  -26.6657   21.4037 H   0  0  0  0  0  0
  -18.0322  -26.0094   22.9037 H   0  0  0  0  0  0
  -19.7926  -30.7264   24.2274 H   0  0  0  0  0  0
  -17.5010  -31.6265   24.5186 H   0  0  0  0  0  0
  -15.5345  -30.3020   23.7653 H   0  0  0  0  0  0
  -15.8639  -28.0890   22.6991 H   0  0  0  0  0  0
  -24.5814  -30.7111   25.7757 H   0  0  0  0  0  0
  -24.8903  -32.2878   26.4917 H   0  0  0  0  0  0
  -25.8009  -30.8827   27.0169 H   0  0  0  0  0  0
  -26.2782  -29.6818   24.1107 H   0  0  0  0  0  0
  -27.4045  -29.7282   25.4481 H   0  0  0  0  0  0
  -27.8588  -30.4391   23.9156 H   0  0  0  0  0  0
  -27.2617  -33.3591   26.2060 H   0  0  0  0  0  0
  -28.3786  -32.6889   25.0271 H   0  0  0  0  0  0
  -28.0677  -31.8408   26.5332 H   0  0  0  0  0  0
  -28.2564  -38.0116   24.7546 H   0  0  0  0  0  0
  -28.1090  -36.2650   24.6200 H   0  0  0  0  0  0
  -27.2302  -37.1346   25.8857 H   0  0  0  0  0  0
  -20.9269  -29.8734   21.6942 H   0  0  0  0  0  0
  -26.0153  -38.2872   24.1468 H   0  0  0  0  0  0
  -28.6581  -17.8407   20.4185 H   0  0  0  0  0  0
  -32.4463  -16.3988   21.9252 H   0  0  0  0  0  0
  -33.6460  -21.5316   18.8148 H   0  0  0  0  0  0
  -32.2912  -20.5419   18.2593 H   0  0  0  0  0  0
  -33.6880  -19.7788   19.0037 H   0  0  0  0  0  0
  -33.1391  -20.9877   21.1737 H   0  0  0  0  0  0
  -31.7394  -21.6705   20.4180 H   0  0  0  0  0  0
  -28.2100  -21.4256   21.3784 H   0  0  0  0  0  0
  -29.9116  -21.7716   21.5120 H   0  0  0  0  0  0
  -27.9354  -25.3245   18.6264 H   0  0  0  0  0  0
  -29.5953  -25.4023   19.1335 H   0  0  0  0  0  0
  -29.0468  -15.3914   21.3177 H   0  0  0  0  0  0
  -29.6628  -20.6243   19.0757 H   0  0  0  0  0  0
  1 25  1  0  0  0
  1 30  2  0  0  0
  1 83  1  0  0  0
  2  3  1  0  0  0
  2 25  1  0  0  0
  2 88  1  0  0  0
  2 89  1  0  0  0
  3  4  1  0  0  0
  3 90  1  0  0  0
  3 91  1  0  0  0
  4  5  1  0  0  0
  4 92  1  0  0  0
  4 93  1  0  0  0
  5  6  1  0  0  0
  5 26  1  0  0  0
  5 94  1  0  0  0
  6 25  1  0  0  0
  6 95  1  0  0  0
  6 96  1  0  0  0
  7  8  2  0  0  0
  7 26  1  0  0  0
  7 29  1  0  0  0
  8  9  1  0  0  0
  8 22  1  0  0  0
  9 10  1  0  0  0
  9 27  2  0  0  0
 10 11  2  0  0  0
 10 15  1  0  0  0
 11 12  1  0  0  0
 11 97  1  0  0  0
 12 13  2  0  0  0
 12 98  1  0  0  0
 13 14  1  0  0  0
 13 31  1  0  0  0
 14 15  2  0  0  0
 14 99  1  0  0  0
 15100  1  0  0  0
 16 17  2  0  0  0
 16 21  1  0  0  0
 16 31  1  0  0  0
 17 18  1  0  0  0
 17101  1  0  0  0
 18 19  2  0  0  0
 18102  1  0  0  0
 19 20  1  0  0  0
 19 24  1  0  0  0
 20 21  2  0  0  0
 20103  1  0  0  0
 21 23  1  0  0  0
 22 28  1  0  0  0
 22 32  2  0  0  0
 26 27  1  0  0  0
 28104  1  0  0  0
 28105  1  0  0  0
 29106  1  0  0  0
 29107  1  0  0  0
 33 34  1  0  0  0
 33 66  1  0  0  0
 33 70  2  0  0  0
 34 36  1  0  0  0
 34 59  1  0  0  0
 34108  1  0  0  0
 35 44  2  0  0  0
 35 45  1  0  0  0
 35 68  1  0  0  0
 36 56  1  0  0  0
 36109  1  0  0  0
 37 39  1  0  0  0
 37 47  1  0  0  0
 37 66  1  0  0  0
 37110  1  0  0  0
 38 43  2  0  0  0
 38 46  1  0  0  0
 38 47  1  0  0  0
 39 64  1  0  0  0
 39 67  2  0  0  0
 40 52  1  0  0  0
 40 53  2  0  0  0
 40 58  1  0  0  0
 41111  1  0  0  0
 41112  1  0  0  0
 41113  1  0  0  0
 41 48  1  0  0  0
 42 43  1  0  0  0
 42 66  1  0  0  0
 42114  1  0  0  0
 42115  1  0  0  0
 43 44  1  0  0  0
 44116  1  0  0  0
 45 46  2  0  0  0
 45117  1  0  0  0
 46118  1  0  0  0
 47119  1  0  0  0
 47120  1  0  0  0
 48 56  1  0  0  0
 48 65  1  0  0  0
 48121  1  0  0  0
 49 50  1  0  0  0
 49 53  1  0  0  0
 49 64  1  0  0  0
 49122  1  0  0  0
 50 51  1  0  0  0
 50123  1  0  0  0
 50124  1  0  0  0
 51 52  1  0  0  0
 51125  1  0  0  0
 51126  1  0  0  0
 52127  1  0  0  0
 52128  1  0  0  0
 53 54  1  0  0  0
 54 55  2  0  0  0
 54129  1  0  0  0
 55 57  1  0  0  0
 55130  1  0  0  0
 56 69  2  0  0  0
 57 58  2  0  0  0
 57131  1  0  0  0
 58132  1  0  0  0
 59 60  1  0  0  0
 59 61  1  0  0  0
 59 62  1  0  0  0
 60133  1  0  0  0
 60134  1  0  0  0
 60135  1  0  0  0
 61136  1  0  0  0
 61137  1  0  0  0
 61138  1  0  0  0
 62139  1  0  0  0
 62140  1  0  0  0
 62141  1  0  0  0
 63 65  1  0  0  0
 63142  1  0  0  0
 63143  1  0  0  0
 63144  1  0  0  0
 64145  1  0  0  0
 65146  1  0  0  0
 68 82  1  0  0  0
 71 74  2  0  0  0
 71 75  1  0  0  0
 71147  1  0  0  0
 72 74  1  0  0  0
 72 76  2  0  0  0
 72148  1  0  0  0
 73 75  2  0  0  0
 73 76  1  0  0  0
 73 80  1  0  0  0
 74 83  1  0  0  0
 75 84  1  0  0  0
 76 87  1  0  0  0
 77 78  1  0  0  0
 77 81  1  0  0  0
 77 85  2  0  0  0
 78 82  1  0  0  0
 78 86  2  0  0  0
 79 80  1  0  0  0
 79149  1  0  0  0
 79150  1  0  0  0
 79151  1  0  0  0
 80152  1  0  0  0
 80153  1  0  0  0
 81 84  1  0  0  0
 81154  1  0  0  0
 81155  1  0  0  0
 82156  1  0  0  0
 82157  1  0  0  0
 83158  1  0  0  0
 84159  1  0  0  0
M  ISO  4   1 100  68 101  82 101  83 100
M  END
> <chiral flag>
0

> <version>
0

> <s_m_source_file>
/data/baiqing/PycharmProjects/Reinvent-master-3.2/result/LINK_invent/BTK/process_docking_weight1_custom_product_contain_oxygen_bond_distance_aromatic_linkinvent_7_9_3/rearranged_h_0167.sdf

> <i_m_source_file_index>
41

> <r_mmod_Potential_Energy-OPLS-2005>
143.784698486328

> <r_mmod_Stretch_Energy-OPLS-2005>
49.5749397277832

> <r_mmod_Bend_Energy-OPLS-2005>
118.001533508301

> <r_mmod_Torsional_Energy-OPLS-2005>
242.658081054688

> <r_mmod_Improper_Torsional_Energy-OPLS-2005>
9.7724666595459

> <r_mmod_Van_der_Waal_Energy-OPLS-2005>
153.838836669922

> <r_mmod_Electrostatic_Energy-OPLS-2005>
-216.810882568359

> <r_mmod_Solvation_Energy-OPLS-2005>
-231.642395019531

> <b_mmod_Minimization_Converged-OPLS-2005>
0

> <r_mmod_RMS_Derivative-OPLS-2005>
3.96118831634521

$$$$
41
                    3D
 Structure written by MMmdl.
157165  0  0  1  0            999 V2000
  -30.6671  -14.5409   20.4853 C   0  0  0  0  0  0
  -30.4244  -12.3227   19.4537 C   0  0  0  0  0  0
  -29.5066  -12.4883   18.2235 C   0  0  0  0  0  0
  -28.0254  -12.3471   18.6277 C   0  0  0  0  0  0
  -27.6562  -13.2127   19.8632 C   0  0  2  0  0  0
  -28.6953  -13.0486   20.9958 C   0  0  0  0  0  0
  -25.2564  -13.8171   20.5666 C   0  0  0  0  0  0
  -24.1823  -13.0442   20.9180 C   0  0  0  0  0  0
  -24.6384  -11.6908   20.8731 C   0  0  0  0  0  0
  -23.9054  -10.4289   21.0389 C   0  0  0  0  0  0
  -24.3606   -9.4204   21.9173 C   0  0  0  0  0  0
  -23.6280   -8.2238   22.0756 C   0  0  0  0  0  0
  -22.4262   -8.0279   21.3542 C   0  0  0  0  0  0
  -21.9885   -9.0256   20.4646 C   0  0  0  0  0  0
  -22.7220  -10.2133   20.3045 C   0  0  0  0  0  0
  -21.6855   -6.0731   22.5273 C   0  0  0  0  0  0
  -21.4020   -6.5637   23.8207 C   0  0  0  0  0  0
  -21.3659   -5.6791   24.9173 C   0  0  0  0  0  0
  -21.6035   -4.3053   24.7218 C   0  0  0  0  0  0
  -21.8822   -3.8148   23.4339 C   0  0  0  0  0  0
  -21.9188   -4.6961   22.3394 C   0  0  0  0  0  0
  -22.7840  -13.5244   21.1831 C   0  0  0  0  0  0
  -22.1658   -4.2152   21.0971 F   0  0  0  0  0  0
  -21.5621   -3.4536   25.7727 F   0  0  0  0  0  0
  -30.0232  -13.3420   20.4377 N   0  0  0  0  0  0
  -26.2996  -12.9347   20.3303 N   0  0  0  0  0  0
  -25.9310  -11.6503   20.5740 N   0  0  0  0  0  0
  -22.0474  -12.8257   22.0394 N   0  0  0  0  0  0
  -25.4281  -15.1893   20.4080 N   0  0  0  0  0  0
  -31.8420  -14.6654   20.1280 O   0  0  0  0  0  0
  -21.6637   -6.8871   21.4234 O   0  0  0  0  0  0
  -22.3524  -14.5546   20.6672 O   0  0  0  0  0  0
  -24.6163  -31.8644   23.2075 C   0  0  0  0  0  0
  -25.9038  -32.4819   23.8370 C   0  0  1  0  0  0
  -27.2362  -27.3995   20.0867 C   0  0  0  0  0  0
  -25.5862  -33.8617   24.2287 N   0  0  0  0  0  0
  -23.4066  -30.4872   21.5492 C   0  0  2  0  0  0
  -24.8531  -28.9511   20.1130 C   0  0  0  0  0  0
  -22.7422  -29.4629   22.4978 C   0  0  0  0  0  0
  -18.0268  -28.1382   22.8500 C   0  0  0  0  0  0
  -24.1480  -36.7322   23.2646 C   0  0  0  0  0  0
  -25.9403  -30.8157   21.3698 C   0  0  0  0  0  0
  -26.0145  -29.4474   20.7153 C   0  0  0  0  0  0
  -27.2039  -28.6777   20.7038 C   0  0  0  0  0  0
  -26.0466  -26.9266   19.4832 C   0  0  0  0  0  0
  -24.8661  -27.6904   19.4938 C   0  0  0  0  0  0
  -23.6171  -29.8202   20.1642 C   0  0  0  0  0  0
  -25.4109  -36.3105   24.0329 C   0  0  1  0  0  0
  -20.5859  -28.3660   23.1318 C   0  0  2  0  0  0
  -20.6750  -26.9389   22.5427 C   0  0  0  0  0  0
  -19.5731  -26.6382   21.5222 C   0  0  0  0  0  0
  -18.1911  -26.7926   22.1629 C   0  0  0  0  0  0
  -19.1519  -28.8840   23.2904 C   0  0  0  0  0  0
  -18.9450  -30.1450   23.8913 C   0  0  0  0  0  0
  -17.6452  -30.6586   24.0575 C   0  0  0  0  0  0
  -25.9034  -34.9476   23.5113 C   0  0  0  0  0  0
  -16.5343  -29.9095   23.6332 C   0  0  0  0  0  0
  -16.7257  -28.6513   23.0351 C   0  0  0  0  0  0
  -26.4462  -31.6620   25.0720 C   0  0  0  0  0  0
  -25.3722  -31.3749   26.1470 C   0  0  0  0  0  0
  -27.0312  -30.3051   24.6143 C   0  0  0  0  0  0
  -27.6025  -32.4371   25.7472 C   0  0  0  0  0  0
  -27.5576  -37.1814   24.8460 C   0  0  0  0  0  0
  -21.4147  -29.3015   22.3716 N   0  0  0  0  0  0
  -26.4285  -37.3796   23.9409 N   0  0  0  0  0  0
  -24.6727  -31.0713   22.0991 N   0  0  0  0  0  0
  -23.4182  -28.8153   23.3021 O   0  0  0  0  0  0
  -28.4120  -26.6588   20.1103 O   0  0  0  0  0  0
  -26.5626  -34.8935   22.4696 O   0  0  0  0  0  0
  -23.5345  -32.1419   23.7428 O   0  0  0  0  0  0
  -30.6759  -17.1887   18.9861 C   0  0  0  0  0  0
  -30.7969  -18.4894   18.4646 C   0  0  0  0  0  0
  -29.4804  -18.0870   20.9030 C   0  0  0  0  0  0
  -29.5940  -19.4126   20.3824 C   0  0  0  0  0  0
  -30.0358  -16.9601   20.2289 C   0  0  0  0  0  0
  -30.2733  -19.5956   19.1555 C   0  0  0  0  0  0
  -28.7335  -23.0967   20.7127 C   0  0  0  0  0  0
  -30.0237  -25.2918   18.9641 C   0  0  0  0  0  0
  -29.0650  -20.6220   21.1872 C   0  0  0  0  0  0
  -27.8788  -24.1405   19.9388 C   0  0  0  0  0  0
  -28.5391  -25.4396   19.3356 C   0  0  1  0  0  0
  -29.8956  -15.6242   20.7629 N   0  0  0  0  0  0
  -28.5336  -21.7840   20.4362 N   0  0  0  0  0  0
  -29.5103  -23.4678   21.5945 O   0  0  0  0  0  0
  -30.4475  -20.8338   18.6349 F   0  0  0  0  0  0
  -31.4726  -12.4107   19.1620 H   0  0  0  0  0  0
  -30.3202  -11.3258   19.8853 H   0  0  0  0  0  0
  -29.7584  -11.7469   17.4646 H   0  0  0  0  0  0
  -29.6716  -13.4643   17.7627 H   0  0  0  0  0  0
  -27.8454  -11.2949   18.8497 H   0  0  0  0  0  0
  -27.3775  -12.5922   17.7851 H   0  0  0  0  0  0
  -27.6836  -14.2500   19.5280 H   0  0  0  0  0  0
  -28.6765  -12.0325   21.3918 H   0  0  0  0  0  0
  -28.4597  -13.7000   21.8388 H   0  0  0  0  0  0
  -25.2755   -9.5701   22.4746 H   0  0  0  0  0  0
  -24.0002   -7.4639   22.7478 H   0  0  0  0  0  0
  -21.0808   -8.8763   19.8960 H   0  0  0  0  0  0
  -22.3664  -10.9665   19.6156 H   0  0  0  0  0  0
  -21.2033   -7.6148   23.9716 H   0  0  0  0  0  0
  -21.1472   -6.0519   25.9075 H   0  0  0  0  0  0
  -22.0602   -2.7609   23.2830 H   0  0  0  0  0  0
  -22.4090  -11.9953   22.4838 H   0  0  0  0  0  0
  -21.1095  -13.1299   22.2578 H   0  0  0  0  0  0
  -24.6631  -15.8458   20.5179 H   0  0  0  0  0  0
  -26.2759  -15.6246   20.0686 H   0  0  0  0  0  0
  -26.7094  -32.5523   23.1119 H   0  0  0  0  0  0
  -24.9948  -33.9773   25.0381 H   0  0  0  0  0  0
  -22.6957  -31.3038   21.4070 H   0  0  0  0  0  0
  -23.3732  -35.9663   23.3328 H   0  0  0  0  0  0
  -24.3553  -36.8938   22.2052 H   0  0  0  0  0  0
  -23.7237  -37.6529   23.6669 H   0  0  0  0  0  0
  -26.0614  -31.5806   20.6006 H   0  0  0  0  0  0
  -26.8253  -30.8638   21.9933 H   0  0  0  0  0  0
  -28.1015  -29.0578   21.1716 H   0  0  0  0  0  0
  -25.9975  -25.9624   19.0015 H   0  0  0  0  0  0
  -23.9740  -27.3023   19.0237 H   0  0  0  0  0  0
  -23.7239  -30.5930   19.4023 H   0  0  0  0  0  0
  -22.7415  -29.2386   19.8690 H   0  0  0  0  0  0
  -25.1284  -36.1969   25.0817 H   0  0  0  0  0  0
  -20.9960  -28.3233   24.1432 H   0  0  0  0  0  0
  -20.5650  -26.2266   23.3621 H   0  0  0  0  0  0
  -21.6624  -26.7429   22.1222 H   0  0  0  0  0  0
  -19.6892  -25.6298   21.1242 H   0  0  0  0  0  0
  -19.6668  -27.3207   20.6766 H   0  0  0  0  0  0
  -17.4177  -26.6681   21.4034 H   0  0  0  0  0  0
  -18.0306  -26.0065   22.9020 H   0  0  0  0  0  0
  -19.7926  -30.7266   24.2284 H   0  0  0  0  0  0
  -17.5007  -31.6267   24.5173 H   0  0  0  0  0  0
  -15.5350  -30.3003   23.7642 H   0  0  0  0  0  0
  -15.8655  -28.0845   22.7050 H   0  0  0  0  0  0
  -24.5836  -30.7178   25.7788 H   0  0  0  0  0  0
  -24.8992  -32.2922   26.4978 H   0  0  0  0  0  0
  -25.8046  -30.8838   27.0194 H   0  0  0  0  0  0
  -26.2876  -29.6805   24.1178 H   0  0  0  0  0  0
  -27.4029  -29.7304   25.4634 H   0  0  0  0  0  0
  -27.8732  -30.4359   23.9345 H   0  0  0  0  0  0
  -27.2610  -33.3640   26.2099 H   0  0  0  0  0  0
  -28.3784  -32.7008   25.0272 H   0  0  0  0  0  0
  -28.0762  -31.8498   26.5345 H   0  0  0  0  0  0
  -28.2604  -38.0104   24.7501 H   0  0  0  0  0  0
  -28.1058  -36.2634   24.6288 H   0  0  0  0  0  0
  -27.2298  -37.1474   25.8864 H   0  0  0  0  0  0
  -20.9304  -29.8759   21.6958 H   0  0  0  0  0  0
  -26.0177  -38.2874   24.1414 H   0  0  0  0  0  0
  -31.0840  -16.3745   18.4053 H   0  0  0  0  0  0
  -31.3081  -18.6449   17.5258 H   0  0  0  0  0  0
  -28.9755  -17.9412   21.8479 H   0  0  0  0  0  0
  -30.3599  -26.1369   18.3624 H   0  0  0  0  0  0
  -30.2000  -24.3883   18.3789 H   0  0  0  0  0  0
  -30.6607  -25.2524   19.8474 H   0  0  0  0  0  0
  -29.8716  -20.9438   21.8474 H   0  0  0  0  0  0
  -28.2681  -20.2711   21.8437 H   0  0  0  0  0  0
  -27.0572  -24.4275   20.5952 H   0  0  0  0  0  0
  -27.4032  -23.6111   19.1128 H   0  0  0  0  0  0
  -28.0536  -25.6143   18.3746 H   0  0  0  0  0  0
  -29.0225  -15.4244   21.2283 H   0  0  0  0  0  0
  -27.8776  -21.5673   19.6977 H   0  0  0  0  0  0
  1 25  1  0  0  0
  1 30  2  0  0  0
  1 82  1  0  0  0
  2  3  1  0  0  0
  2 25  1  0  0  0
  2 86  1  0  0  0
  2 87  1  0  0  0
  3  4  1  0  0  0
  3 88  1  0  0  0
  3 89  1  0  0  0
  4  5  1  0  0  0
  4 90  1  0  0  0
  4 91  1  0  0  0
  5  6  1  0  0  0
  5 26  1  0  0  0
  5 92  1  0  0  0
  6 25  1  0  0  0
  6 93  1  0  0  0
  6 94  1  0  0  0
  7  8  2  0  0  0
  7 26  1  0  0  0
  7 29  1  0  0  0
  8  9  1  0  0  0
  8 22  1  0  0  0
  9 10  1  0  0  0
  9 27  2  0  0  0
 10 11  2  0  0  0
 10 15  1  0  0  0
 11 12  1  0  0  0
 11 95  1  0  0  0
 12 13  2  0  0  0
 12 96  1  0  0  0
 13 14  1  0  0  0
 13 31  1  0  0  0
 14 15  2  0  0  0
 14 97  1  0  0  0
 15 98  1  0  0  0
 16 17  2  0  0  0
 16 21  1  0  0  0
 16 31  1  0  0  0
 17 18  1  0  0  0
 17 99  1  0  0  0
 18 19  2  0  0  0
 18100  1  0  0  0
 19 20  1  0  0  0
 19 24  1  0  0  0
 20 21  2  0  0  0
 20101  1  0  0  0
 21 23  1  0  0  0
 22 28  1  0  0  0
 22 32  2  0  0  0
 26 27  1  0  0  0
 28102  1  0  0  0
 28103  1  0  0  0
 29104  1  0  0  0
 29105  1  0  0  0
 33 34  1  0  0  0
 33 66  1  0  0  0
 33 70  2  0  0  0
 34 36  1  0  0  0
 34 59  1  0  0  0
 34106  1  0  0  0
 35 44  2  0  0  0
 35 45  1  0  0  0
 35 68  1  0  0  0
 36 56  1  0  0  0
 36107  1  0  0  0
 37 39  1  0  0  0
 37 47  1  0  0  0
 37 66  1  0  0  0
 37108  1  0  0  0
 38 43  2  0  0  0
 38 46  1  0  0  0
 38 47  1  0  0  0
 39 64  1  0  0  0
 39 67  2  0  0  0
 40 52  1  0  0  0
 40 53  2  0  0  0
 40 58  1  0  0  0
 41109  1  0  0  0
 41110  1  0  0  0
 41111  1  0  0  0
 41 48  1  0  0  0
 42 43  1  0  0  0
 42 66  1  0  0  0
 42112  1  0  0  0
 42113  1  0  0  0
 43 44  1  0  0  0
 44114  1  0  0  0
 45 46  2  0  0  0
 45115  1  0  0  0
 46116  1  0  0  0
 47117  1  0  0  0
 47118  1  0  0  0
 48 56  1  0  0  0
 48 65  1  0  0  0
 48119  1  0  0  0
 49 50  1  0  0  0
 49 53  1  0  0  0
 49 64  1  0  0  0
 49120  1  0  0  0
 50 51  1  0  0  0
 50121  1  0  0  0
 50122  1  0  0  0
 51 52  1  0  0  0
 51123  1  0  0  0
 51124  1  0  0  0
 52125  1  0  0  0
 52126  1  0  0  0
 53 54  1  0  0  0
 54 55  2  0  0  0
 54127  1  0  0  0
 55 57  1  0  0  0
 55128  1  0  0  0
 56 69  2  0  0  0
 57 58  2  0  0  0
 57129  1  0  0  0
 58130  1  0  0  0
 59 60  1  0  0  0
 59 61  1  0  0  0
 59 62  1  0  0  0
 60131  1  0  0  0
 60132  1  0  0  0
 60133  1  0  0  0
 61134  1  0  0  0
 61135  1  0  0  0
 61136  1  0  0  0
 62137  1  0  0  0
 62138  1  0  0  0
 62139  1  0  0  0
 63 65  1  0  0  0
 63140  1  0  0  0
 63141  1  0  0  0
 63142  1  0  0  0
 64143  1  0  0  0
 65144  1  0  0  0
 68 81  1  0  0  0
 71 72  2  0  0  0
 71 75  1  0  0  0
 71145  1  0  0  0
 72 76  1  0  0  0
 72146  1  0  0  0
 73 74  1  0  0  0
 73 75  2  0  0  0
 73147  1  0  0  0
 74 76  2  0  0  0
 74 79  1  0  0  0
 75 82  1  0  0  0
 76 85  1  0  0  0
 77 80  1  0  0  0
 77 83  1  0  0  0
 77 84  2  0  0  0
 78148  1  0  0  0
 78149  1  0  0  0
 78150  1  0  0  0
 78 81  1  0  0  0
 79 83  1  0  0  0
 79151  1  0  0  0
 79152  1  0  0  0
 80 81  1  0  0  0
 80153  1  0  0  0
 80154  1  0  0  0
 81155  1  0  0  0
 82156  1  0  0  0
 83157  1  0  0  0
M  ISO  4   1 100  68 101  81 101  82 100
M  END
> <chiral flag>
0

> <version>
0

> <s_m_source_file>
/data/baiqing/PycharmProjects/Reinvent-master-3.2/result/LINK_invent/BTK/process_docking_weight1_custom_product_contain_oxygen_bond_distance_aromatic_linkinvent_7_9_3/rearranged_h_0167.sdf

> <i_m_source_file_index>
42

> <r_mmod_Potential_Energy-OPLS-2005>
-90.5584716796875

> <r_mmod_Stretch_Energy-OPLS-2005>
49.8525085449219

> <r_mmod_Bend_Energy-OPLS-2005>
118.346611022949

> <r_mmod_Torsional_Energy-OPLS-2005>
208.807800292969

> <r_mmod_Improper_Torsional_Energy-OPLS-2005>
5.64252281188965

> <r_mmod_Van_der_Waal_Energy-OPLS-2005>
153.600341796875

> <r_mmod_Electrostatic_Energy-OPLS-2005>
-409.293395996094

> <r_mmod_Solvation_Energy-OPLS-2005>
-241.109756469727

> <b_mmod_Minimization_Converged-OPLS-2005>
0

> <r_mmod_RMS_Derivative-OPLS-2005>
2.20477771759033

$$$$
42
                    3D
 Structure written by MMmdl.
158166  0  0  1  0            999 V2000
  -30.6800  -14.5774   20.4650 C   0  0  0  0  0  0
  -30.4074  -12.3535   19.4326 C   0  0  0  0  0  0
  -29.4843  -12.4986   18.2050 C   0  0  0  0  0  0
  -28.0078  -12.3613   18.6220 C   0  0  0  0  0  0
  -27.6449  -13.2261   19.8600 C   0  0  2  0  0  0
  -28.6959  -13.0942   20.9855 C   0  0  0  0  0  0
  -25.2501  -13.8191   20.5693 C   0  0  0  0  0  0
  -24.1806  -13.0438   20.9226 C   0  0  0  0  0  0
  -24.6394  -11.6916   20.8759 C   0  0  0  0  0  0
  -23.9071  -10.4297   21.0414 C   0  0  0  0  0  0
  -24.3616   -9.4206   21.9194 C   0  0  0  0  0  0
  -23.6292   -8.2244   22.0760 C   0  0  0  0  0  0
  -22.4288   -8.0277   21.3539 C   0  0  0  0  0  0
  -21.9913   -9.0256   20.4653 C   0  0  0  0  0  0
  -22.7241  -10.2136   20.3066 C   0  0  0  0  0  0
  -21.6857   -6.0731   22.5274 C   0  0  0  0  0  0
  -21.4024   -6.5636   23.8205 C   0  0  0  0  0  0
  -21.3657   -5.6793   24.9172 C   0  0  0  0  0  0
  -21.6043   -4.3059   24.7228 C   0  0  0  0  0  0
  -21.8818   -3.8140   23.4354 C   0  0  0  0  0  0
  -21.9195   -4.6955   22.3407 C   0  0  0  0  0  0
  -22.7822  -13.5197   21.1879 C   0  0  0  0  0  0
  -22.1664   -4.2126   21.0986 F   0  0  0  0  0  0
  -21.5621   -3.4557   25.7752 F   0  0  0  0  0  0
  -30.0067  -13.3932   20.3972 N   0  0  0  0  0  0
  -26.2959  -12.9412   20.3351 N   0  0  0  0  0  0
  -25.9325  -11.6539   20.5788 N   0  0  0  0  0  0
  -22.0492  -12.8173   22.0428 N   0  0  0  0  0  0
  -25.4173  -15.1922   20.4098 N   0  0  0  0  0  0
  -31.8599  -14.6522   20.1145 O   0  0  0  0  0  0
  -21.6649   -6.8872   21.4236 O   0  0  0  0  0  0
  -22.3511  -14.5525   20.6747 O   0  0  0  0  0  0
  -24.6168  -31.8675   23.2089 C   0  0  0  0  0  0
  -25.9051  -32.4811   23.8389 C   0  0  1  0  0  0
  -27.2080  -27.3980   20.0971 C   0  0  0  0  0  0
  -25.5897  -33.8609   24.2327 N   0  0  0  0  0  0
  -23.4032  -30.4896   21.5551 C   0  0  2  0  0  0
  -24.8437  -28.9540   20.1127 C   0  0  0  0  0  0
  -22.7422  -29.4650   22.5048 C   0  0  0  0  0  0
  -18.0264  -28.1363   22.8487 C   0  0  0  0  0  0
  -24.1483  -36.7324   23.2627 C   0  0  0  0  0  0
  -25.9336  -30.8215   21.3629 C   0  0  0  0  0  0
  -26.0094  -29.4529   20.7089 C   0  0  0  0  0  0
  -27.2004  -28.6839   20.6933 C   0  0  0  0  0  0
  -26.0279  -26.9242   19.4889 C   0  0  0  0  0  0
  -24.8486  -27.6917   19.4968 C   0  0  0  0  0  0
  -23.6070  -29.8249   20.1683 C   0  0  0  0  0  0
  -25.4094  -36.3111   24.0347 C   0  0  1  0  0  0
  -20.5848  -28.3651   23.1336 C   0  0  2  0  0  0
  -20.6763  -26.9401   22.5424 C   0  0  0  0  0  0
  -19.5748  -26.6382   21.5230 C   0  0  0  0  0  0
  -18.1907  -26.7903   22.1619 C   0  0  0  0  0  0
  -19.1505  -28.8823   23.2894 C   0  0  0  0  0  0
  -18.9440  -30.1419   23.8925 C   0  0  0  0  0  0
  -17.6446  -30.6581   24.0560 C   0  0  0  0  0  0
  -25.9036  -34.9469   23.5138 C   0  0  0  0  0  0
  -16.5344  -29.9080   23.6327 C   0  0  0  0  0  0
  -16.7247  -28.6490   23.0366 C   0  0  0  0  0  0
  -26.4460  -31.6584   25.0718 C   0  0  0  0  0  0
  -25.3697  -31.3675   26.1453 C   0  0  0  0  0  0
  -27.0295  -30.3036   24.6072 C   0  0  0  0  0  0
  -27.6074  -32.4260   25.7451 C   0  0  0  0  0  0
  -27.5608  -37.1763   24.8433 C   0  0  0  0  0  0
  -21.4157  -29.3023   22.3760 N   0  0  0  0  0  0
  -26.4268  -37.3819   23.9445 N   0  0  0  0  0  0
  -24.6707  -31.0722   22.1029 N   0  0  0  0  0  0
  -23.4188  -28.8197   23.3087 O   0  0  0  0  0  0
  -28.3276  -26.5911   20.1027 O   0  0  0  0  0  0
  -26.5632  -34.8936   22.4722 O   0  0  0  0  0  0
  -23.5361  -32.1461   23.7478 O   0  0  0  0  0  0
  -32.2533  -18.6406   21.2940 C   0  0  0  0  0  0
  -31.4536  -19.7351   20.9290 C   0  0  0  0  0  0
  -31.7458  -17.3358   21.2186 C   0  0  0  0  0  0
  -30.1217  -19.5545   20.4886 C   0  0  0  0  0  0
  -30.4382  -17.0782   20.7424 C   0  0  0  0  0  0
  -29.6240  -18.2082   20.3843 C   0  0  0  0  0  0
  -29.3289  -20.8112   20.2751 C   0  0  0  0  0  0
  -28.3684  -24.0542   20.1115 C   0  0  0  0  0  0
  -28.1814  -25.3848   20.8963 C   0  0  0  0  0  0
  -29.7783  -23.3957   20.1537 C   0  0  2  0  0  0
  -30.7516  -24.2276   19.2924 C   0  0  0  0  0  0
  -29.9484  -15.7081   20.6864 N   0  0  0  0  0  0
  -29.9165  -21.9369   19.7941 N   0  0  0  0  0  0
  -28.0555  -20.9086   20.6586 N   0  3  0  0  0  0
  -27.3994  -23.5133   19.5660 O   0  0  0  0  0  0
  -28.3538  -17.9924   19.9607 F   0  0  0  0  0  0
  -30.9627  -25.4280   19.8338 F   0  0  0  0  0  0
  -30.2720  -24.3929   18.0579 F   0  0  0  0  0  0
  -31.9223  -23.5923   19.2082 F   0  0  0  0  0  0
  -31.4520  -12.4400   19.1273 H   0  0  0  0  0  0
  -30.3052  -11.3627   19.8773 H   0  0  0  0  0  0
  -29.7297  -11.7486   17.4520 H   0  0  0  0  0  0
  -29.6409  -13.4695   17.7302 H   0  0  0  0  0  0
  -27.8215  -11.3099   18.8368 H   0  0  0  0  0  0
  -27.3565  -12.6208   17.7863 H   0  0  0  0  0  0
  -27.6572  -14.2617   19.5191 H   0  0  0  0  0  0
  -28.6946  -12.0866   21.4028 H   0  0  0  0  0  0
  -28.4691  -13.7678   21.8134 H   0  0  0  0  0  0
  -25.2761   -9.5686   22.4779 H   0  0  0  0  0  0
  -23.9997   -7.4640   22.7493 H   0  0  0  0  0  0
  -21.0835   -8.8777   19.8977 H   0  0  0  0  0  0
  -22.3689  -10.9679   19.6186 H   0  0  0  0  0  0
  -21.2034   -7.6154   23.9693 H   0  0  0  0  0  0
  -21.1476   -6.0544   25.9063 H   0  0  0  0  0  0
  -22.0602   -2.7609   23.2875 H   0  0  0  0  0  0
  -22.4133  -11.9808   22.4750 H   0  0  0  0  0  0
  -21.1122  -13.1186   22.2699 H   0  0  0  0  0  0
  -24.6412  -15.8368   20.5176 H   0  0  0  0  0  0
  -26.2453  -15.6354   20.0337 H   0  0  0  0  0  0
  -26.7109  -32.5521   23.1141 H   0  0  0  0  0  0
  -24.9950  -33.9754   25.0401 H   0  0  0  0  0  0
  -22.6948  -31.3094   21.4223 H   0  0  0  0  0  0
  -23.3786  -35.9616   23.3192 H   0  0  0  0  0  0
  -24.3598  -36.9046   22.2059 H   0  0  0  0  0  0
  -23.7172  -37.6460   23.6729 H   0  0  0  0  0  0
  -26.0354  -31.5851   20.5903 H   0  0  0  0  0  0
  -26.8238  -30.8826   21.9753 H   0  0  0  0  0  0
  -28.1006  -29.0536   21.1633 H   0  0  0  0  0  0
  -26.0178  -25.9537   19.0124 H   0  0  0  0  0  0
  -23.9527  -27.3049   19.0300 H   0  0  0  0  0  0
  -23.7022  -30.6029   19.4102 H   0  0  0  0  0  0
  -22.7283  -29.2420   19.8821 H   0  0  0  0  0  0
  -25.1235  -36.1974   25.0836 H   0  0  0  0  0  0
  -20.9898  -28.3231   24.1479 H   0  0  0  0  0  0
  -20.5695  -26.2277   23.3607 H   0  0  0  0  0  0
  -21.6620  -26.7479   22.1200 H   0  0  0  0  0  0
  -19.6933  -25.6307   21.1229 H   0  0  0  0  0  0
  -19.6680  -27.3211   20.6779 H   0  0  0  0  0  0
  -17.4183  -26.6660   21.4003 H   0  0  0  0  0  0
  -18.0288  -26.0037   22.9000 H   0  0  0  0  0  0
  -19.7931  -30.7186   24.2350 H   0  0  0  0  0  0
  -17.5023  -31.6278   24.5122 H   0  0  0  0  0  0
  -15.5342  -30.2989   23.7647 H   0  0  0  0  0  0
  -15.8653  -28.0807   22.7117 H   0  0  0  0  0  0
  -24.5900  -30.6999   25.7743 H   0  0  0  0  0  0
  -24.8827  -32.2796   26.4895 H   0  0  0  0  0  0
  -25.7986  -30.8820   27.0223 H   0  0  0  0  0  0
  -26.2826  -29.6770   24.1175 H   0  0  0  0  0  0
  -27.4112  -29.7301   25.4526 H   0  0  0  0  0  0
  -27.8644  -30.4368   23.9198 H   0  0  0  0  0  0
  -27.2802  -33.3629   26.1983 H   0  0  0  0  0  0
  -28.3901  -32.6676   25.0239 H   0  0  0  0  0  0
  -28.0723  -31.8367   26.5364 H   0  0  0  0  0  0
  -28.2487  -38.0194   24.7681 H   0  0  0  0  0  0
  -28.1232  -36.2730   24.5998 H   0  0  0  0  0  0
  -27.2362  -37.1098   25.8832 H   0  0  0  0  0  0
  -20.9355  -29.8740   21.6953 H   0  0  0  0  0  0
  -26.0168  -38.2877   24.1548 H   0  0  0  0  0  0
  -33.2593  -18.8016   21.6582 H   0  0  0  0  0  0
  -31.8744  -20.7247   21.0353 H   0  0  0  0  0  0
  -32.3858  -16.5330   21.5476 H   0  0  0  0  0  0
  -28.9098  -25.4179   21.7060 H   0  0  0  0  0  0
  -27.2037  -25.3502   21.3809 H   0  0  0  0  0  0
  -30.1332  -23.4686   21.1818 H   0  0  0  0  0  0
  -28.9502  -15.5918   20.7616 H   0  0  0  0  0  0
  -30.7536  -21.7774   19.2440 H   0  0  0  0  0  0
  -27.5586  -20.0909   20.9760 H   0  0  0  0  0  0
  -27.5271  -21.7245   20.3713 H   0  0  0  0  0  0
  1 25  1  0  0  0
  1 30  2  0  0  0
  1 82  1  0  0  0
  2  3  1  0  0  0
  2 25  1  0  0  0
  2 90  1  0  0  0
  2 91  1  0  0  0
  3  4  1  0  0  0
  3 92  1  0  0  0
  3 93  1  0  0  0
  4  5  1  0  0  0
  4 94  1  0  0  0
  4 95  1  0  0  0
  5  6  1  0  0  0
  5 26  1  0  0  0
  5 96  1  0  0  0
  6 25  1  0  0  0
  6 97  1  0  0  0
  6 98  1  0  0  0
  7  8  2  0  0  0
  7 26  1  0  0  0
  7 29  1  0  0  0
  8  9  1  0  0  0
  8 22  1  0  0  0
  9 10  1  0  0  0
  9 27  2  0  0  0
 10 11  2  0  0  0
 10 15  1  0  0  0
 11 12  1  0  0  0
 11 99  1  0  0  0
 12 13  2  0  0  0
 12100  1  0  0  0
 13 14  1  0  0  0
 13 31  1  0  0  0
 14 15  2  0  0  0
 14101  1  0  0  0
 15102  1  0  0  0
 16 17  2  0  0  0
 16 21  1  0  0  0
 16 31  1  0  0  0
 17 18  1  0  0  0
 17103  1  0  0  0
 18 19  2  0  0  0
 18104  1  0  0  0
 19 20  1  0  0  0
 19 24  1  0  0  0
 20 21  2  0  0  0
 20105  1  0  0  0
 21 23  1  0  0  0
 22 28  1  0  0  0
 22 32  2  0  0  0
 26 27  1  0  0  0
 28106  1  0  0  0
 28107  1  0  0  0
 29108  1  0  0  0
 29109  1  0  0  0
 33 34  1  0  0  0
 33 66  1  0  0  0
 33 70  2  0  0  0
 34 36  1  0  0  0
 34 59  1  0  0  0
 34110  1  0  0  0
 35 44  2  0  0  0
 35 45  1  0  0  0
 35 68  1  0  0  0
 36 56  1  0  0  0
 36111  1  0  0  0
 37 39  1  0  0  0
 37 47  1  0  0  0
 37 66  1  0  0  0
 37112  1  0  0  0
 38 43  2  0  0  0
 38 46  1  0  0  0
 38 47  1  0  0  0
 39 64  1  0  0  0
 39 67  2  0  0  0
 40 52  1  0  0  0
 40 53  2  0  0  0
 40 58  1  0  0  0
 41113  1  0  0  0
 41114  1  0  0  0
 41115  1  0  0  0
 41 48  1  0  0  0
 42 43  1  0  0  0
 42 66  1  0  0  0
 42116  1  0  0  0
 42117  1  0  0  0
 43 44  1  0  0  0
 44118  1  0  0  0
 45 46  2  0  0  0
 45119  1  0  0  0
 46120  1  0  0  0
 47121  1  0  0  0
 47122  1  0  0  0
 48 56  1  0  0  0
 48 65  1  0  0  0
 48123  1  0  0  0
 49 50  1  0  0  0
 49 53  1  0  0  0
 49 64  1  0  0  0
 49124  1  0  0  0
 50 51  1  0  0  0
 50125  1  0  0  0
 50126  1  0  0  0
 51 52  1  0  0  0
 51127  1  0  0  0
 51128  1  0  0  0
 52129  1  0  0  0
 52130  1  0  0  0
 53 54  1  0  0  0
 54 55  2  0  0  0
 54131  1  0  0  0
 55 57  1  0  0  0
 55132  1  0  0  0
 56 69  2  0  0  0
 57 58  2  0  0  0
 57133  1  0  0  0
 58134  1  0  0  0
 59 60  1  0  0  0
 59 61  1  0  0  0
 59 62  1  0  0  0
 60135  1  0  0  0
 60136  1  0  0  0
 60137  1  0  0  0
 61138  1  0  0  0
 61139  1  0  0  0
 61140  1  0  0  0
 62141  1  0  0  0
 62142  1  0  0  0
 62143  1  0  0  0
 63 65  1  0  0  0
 63144  1  0  0  0
 63145  1  0  0  0
 63146  1  0  0  0
 64147  1  0  0  0
 65148  1  0  0  0
 68 79  1  0  0  0
 71 72  2  0  0  0
 71 73  1  0  0  0
 71149  1  0  0  0
 72 74  1  0  0  0
 72150  1  0  0  0
 73 75  2  0  0  0
 73151  1  0  0  0
 74 76  2  0  0  0
 74 77  1  0  0  0
 75 76  1  0  0  0
 75 82  1  0  0  0
 76 86  1  0  0  0
 77 83  1  0  0  0
 77 84  2  0  0  0
 78 79  1  0  0  0
 78 80  1  0  0  0
 78 85  2  0  0  0
 79152  1  0  0  0
 79153  1  0  0  0
 80 81  1  0  0  0
 80 83  1  0  0  0
 80154  1  0  0  0
 81 87  1  0  0  0
 81 88  1  0  0  0
 81 89  1  0  0  0
 82155  1  0  0  0
 83156  1  0  0  0
 84157  1  0  0  0
 84158  1  0  0  0
M  CHG  1  84   1
M  ISO  4   1 100  68 101  79 101  82 100
M  END
> <chiral flag>
0

> <version>
0

> <s_m_source_file>
/data/baiqing/PycharmProjects/Reinvent-master-3.2/result/LINK_invent/BTK/process_docking_weight1_custom_product_contain_oxygen_bond_distance_aromatic_linkinvent_7_9_3/rearranged_h_0167.sdf

> <i_m_source_file_index>
43

> <r_mmod_Potential_Energy-OPLS-2005>
-326.844818115234

> <r_mmod_Stretch_Energy-OPLS-2005>
55.6530532836914

> <r_mmod_Bend_Energy-OPLS-2005>
119.011764526367

> <r_mmod_Torsional_Energy-OPLS-2005>
270.285095214844

> <r_mmod_Improper_Torsional_Energy-OPLS-2005>
9.4298095703125

> <r_mmod_Van_der_Waal_Energy-OPLS-2005>
160.255676269531

> <r_mmod_Electrostatic_Energy-OPLS-2005>
-546.262084960938

> <r_mmod_Solvation_Energy-OPLS-2005>
-426.011962890625

> <b_mmod_Minimization_Converged-OPLS-2005>
0

> <r_mmod_RMS_Derivative-OPLS-2005>
3.73819732666016

$$$$
43
                    3D
 Structure written by MMmdl.
157165  0  0  1  0            999 V2000
  -30.6671  -14.4819   20.5420 C   0  0  0  0  0  0
  -30.4352  -12.3097   19.4068 C   0  0  0  0  0  0
  -29.4930  -12.4931   18.1996 C   0  0  0  0  0  0
  -28.0102  -12.3620   18.6102 C   0  0  0  0  0  0
  -27.6576  -13.1987   19.8680 C   0  0  2  0  0  0
  -28.7052  -12.9721   20.9824 C   0  0  0  0  0  0
  -25.2594  -13.8148   20.5723 C   0  0  0  0  0  0
  -24.1839  -13.0433   20.9215 C   0  0  0  0  0  0
  -24.6371  -11.6893   20.8726 C   0  0  0  0  0  0
  -23.9041  -10.4274   21.0401 C   0  0  0  0  0  0
  -24.3588   -9.4199   21.9185 C   0  0  0  0  0  0
  -23.6268   -8.2225   22.0734 C   0  0  0  0  0  0
  -22.4249   -8.0258   21.3531 C   0  0  0  0  0  0
  -21.9885   -9.0241   20.4634 C   0  0  0  0  0  0
  -22.7199  -10.2127   20.3055 C   0  0  0  0  0  0
  -21.6847   -6.0725   22.5270 C   0  0  0  0  0  0
  -21.4007   -6.5628   23.8209 C   0  0  0  0  0  0
  -21.3662   -5.6778   24.9172 C   0  0  0  0  0  0
  -21.6052   -4.3046   24.7219 C   0  0  0  0  0  0
  -21.8826   -3.8136   23.4328 C   0  0  0  0  0  0
  -21.9186   -4.6954   22.3385 C   0  0  0  0  0  0
  -22.7854  -13.5227   21.1855 C   0  0  0  0  0  0
  -22.1658   -4.2160   21.0966 F   0  0  0  0  0  0
  -21.5643   -3.4522   25.7726 F   0  0  0  0  0  0
  -30.0262  -13.2922   20.4181 N   0  0  0  0  0  0
  -26.3001  -12.9293   20.3337 N   0  0  0  0  0  0
  -25.9299  -11.6465   20.5761 N   0  0  0  0  0  0
  -22.0453  -12.8257   22.0412 N   0  0  0  0  0  0
  -25.4325  -15.1888   20.4233 N   0  0  0  0  0  0
  -31.8349  -14.6533   20.1762 O   0  0  0  0  0  0
  -21.6624   -6.8848   21.4220 O   0  0  0  0  0  0
  -22.3540  -14.5504   20.6645 O   0  0  0  0  0  0
  -24.6152  -31.8685   23.2070 C   0  0  0  0  0  0
  -25.9065  -32.4814   23.8370 C   0  0  1  0  0  0
  -27.2397  -27.4129   20.1107 C   0  0  0  0  0  0
  -25.5928  -33.8612   24.2318 N   0  0  0  0  0  0
  -23.4003  -30.4932   21.5456 C   0  0  2  0  0  0
  -24.8473  -28.9482   20.1148 C   0  0  0  0  0  0
  -22.7388  -29.4713   22.4965 C   0  0  0  0  0  0
  -18.0268  -28.1396   22.8463 C   0  0  0  0  0  0
  -24.1499  -36.7306   23.2640 C   0  0  0  0  0  0
  -25.9275  -30.8364   21.3522 C   0  0  0  0  0  0
  -26.0072  -29.4631   20.7055 C   0  0  0  0  0  0
  -27.1992  -28.7031   20.6991 C   0  0  0  0  0  0
  -26.0555  -26.9112   19.5220 C   0  0  0  0  0  0
  -24.8690  -27.6739   19.5206 C   0  0  0  0  0  0
  -23.6091  -29.8178   20.1605 C   0  0  0  0  0  0
  -25.4116  -36.3092   24.0325 C   0  0  1  0  0  0
  -20.5846  -28.3690   23.1298 C   0  0  2  0  0  0
  -20.6763  -26.9421   22.5409 C   0  0  0  0  0  0
  -19.5743  -26.6391   21.5203 C   0  0  0  0  0  0
  -18.1917  -26.7940   22.1591 C   0  0  0  0  0  0
  -19.1516  -28.8839   23.2879 C   0  0  0  0  0  0
  -18.9473  -30.1443   23.8903 C   0  0  0  0  0  0
  -17.6480  -30.6583   24.0590 C   0  0  0  0  0  0
  -25.9048  -34.9470   23.5098 C   0  0  0  0  0  0
  -16.5364  -29.9106   23.6328 C   0  0  0  0  0  0
  -16.7262  -28.6527   23.0336 C   0  0  0  0  0  0
  -26.4513  -31.6570   25.0668 C   0  0  0  0  0  0
  -25.3796  -31.3636   26.1417 C   0  0  0  0  0  0
  -27.0363  -30.3017   24.6018 C   0  0  0  0  0  0
  -27.6088  -32.4280   25.7445 C   0  0  0  0  0  0
  -27.5582  -37.1781   24.8448 C   0  0  0  0  0  0
  -21.4112  -29.3072   22.3715 N   0  0  0  0  0  0
  -26.4290  -37.3780   23.9411 N   0  0  0  0  0  0
  -24.6665  -31.0813   22.0946 N   0  0  0  0  0  0
  -23.4166  -28.8265   23.2995 O   0  0  0  0  0  0
  -28.4413  -26.7229   20.1508 O   0  0  0  0  0  0
  -26.5574  -34.8916   22.4633 O   0  0  0  0  0  0
  -23.5359  -32.1420   23.7506 O   0  0  0  0  0  0
  -29.4625  -17.9796   20.7989 C   0  0  0  0  0  0
  -31.3811  -17.0840   22.0088 C   0  0  0  0  0  0
  -30.9746  -19.4925   21.9634 C   0  0  0  0  0  0
  -30.2459  -16.8611   21.2004 C   0  0  0  0  0  0
  -29.8259  -19.3087   21.1595 C   0  0  0  0  0  0
  -31.7440  -18.3893   22.3842 C   0  0  0  0  0  0
  -28.4376  -22.8235   20.2957 C   0  0  0  0  0  0
  -30.0407  -25.3450   19.1334 C   0  0  0  0  0  0
  -28.3945  -24.2974   20.7748 C   0  0  0  0  0  0
  -29.3666  -21.8127   21.0170 C   0  0  0  0  0  0
  -28.5985  -25.3724   19.6608 C   0  0  1  0  0  0
  -29.8641  -15.5250   20.8468 N   0  0  0  0  0  0
  -29.0458  -20.4017   20.7129 N   0  0  0  0  0  0
  -27.7174  -22.4442   19.3655 O   0  0  0  0  0  0
  -32.8380  -18.5799   23.1575 F   0  0  0  0  0  0
  -31.4723  -12.4461   19.0906 H   0  0  0  0  0  0
  -30.3758  -11.2969   19.8072 H   0  0  0  0  0  0
  -29.7336  -11.7634   17.4254 H   0  0  0  0  0  0
  -29.6650  -13.4762   17.7585 H   0  0  0  0  0  0
  -27.8055  -11.3070   18.7951 H   0  0  0  0  0  0
  -27.3653  -12.6559   17.7803 H   0  0  0  0  0  0
  -27.6986  -14.2449   19.5693 H   0  0  0  0  0  0
  -28.6904  -11.9328   21.3144 H   0  0  0  0  0  0
  -28.4849  -13.5664   21.8720 H   0  0  0  0  0  0
  -25.2712   -9.5720   22.4797 H   0  0  0  0  0  0
  -24.0001   -7.4619   22.7442 H   0  0  0  0  0  0
  -21.0824   -8.8742   19.8942 H   0  0  0  0  0  0
  -22.3612  -10.9687   19.6202 H   0  0  0  0  0  0
  -21.1997   -7.6140   23.9727 H   0  0  0  0  0  0
  -21.1490   -6.0496   25.9084 H   0  0  0  0  0  0
  -22.0610   -2.7598   23.2818 H   0  0  0  0  0  0
  -22.3989  -11.9923   22.4887 H   0  0  0  0  0  0
  -21.1078  -13.1353   22.2556 H   0  0  0  0  0  0
  -24.6737  -15.8429   20.5855 H   0  0  0  0  0  0
  -26.2854  -15.6447   20.1228 H   0  0  0  0  0  0
  -26.7146  -32.5546   23.1168 H   0  0  0  0  0  0
  -25.0142  -33.9811   25.0503 H   0  0  0  0  0  0
  -22.6874  -31.3075   21.4052 H   0  0  0  0  0  0
  -23.3766  -35.9626   23.3245 H   0  0  0  0  0  0
  -24.3621  -36.8974   22.2065 H   0  0  0  0  0  0
  -23.7241  -37.6485   23.6698 H   0  0  0  0  0  0
  -26.0292  -31.6043   20.5847 H   0  0  0  0  0  0
  -26.8185  -30.9044   21.9633 H   0  0  0  0  0  0
  -28.0909  -29.1033   21.1612 H   0  0  0  0  0  0
  -26.0144  -25.9305   19.0685 H   0  0  0  0  0  0
  -23.9752  -27.2695   19.0687 H   0  0  0  0  0  0
  -23.7143  -30.5886   19.3942 H   0  0  0  0  0  0
  -22.7307  -29.2375   19.8711 H   0  0  0  0  0  0
  -25.1303  -36.1946   25.0814 H   0  0  0  0  0  0
  -20.9945  -28.3307   24.1407 H   0  0  0  0  0  0
  -20.5640  -26.2325   23.3612 H   0  0  0  0  0  0
  -21.6655  -26.7470   22.1233 H   0  0  0  0  0  0
  -19.6905  -25.6304   21.1232 H   0  0  0  0  0  0
  -19.6694  -27.3207   20.6735 H   0  0  0  0  0  0
  -17.4205  -26.6678   21.3979 H   0  0  0  0  0  0
  -18.0322  -26.0099   22.8988 H   0  0  0  0  0  0
  -19.7987  -30.7217   24.2276 H   0  0  0  0  0  0
  -17.5080  -31.6253   24.5227 H   0  0  0  0  0  0
  -15.5369  -30.3022   23.7667 H   0  0  0  0  0  0
  -15.8658  -28.0862   22.7038 H   0  0  0  0  0  0
  -24.6051  -30.6885   25.7754 H   0  0  0  0  0  0
  -24.8913  -32.2772   26.4810 H   0  0  0  0  0  0
  -25.8201  -30.8877   27.0194 H   0  0  0  0  0  0
  -26.2888  -29.6703   24.1198 H   0  0  0  0  0  0
  -27.4294  -29.7316   25.4457 H   0  0  0  0  0  0
  -27.8638  -30.4327   23.9039 H   0  0  0  0  0  0
  -27.2741  -33.3633   26.1948 H   0  0  0  0  0  0
  -28.3960  -32.6735   25.0299 H   0  0  0  0  0  0
  -28.0679  -31.8425   26.5432 H   0  0  0  0  0  0
  -28.2557  -38.0123   24.7559 H   0  0  0  0  0  0
  -28.1131  -36.2655   24.6206 H   0  0  0  0  0  0
  -27.2306  -37.1316   25.8850 H   0  0  0  0  0  0
  -20.9244  -29.8852   21.7011 H   0  0  0  0  0  0
  -26.0164  -38.2839   24.1462 H   0  0  0  0  0  0
  -28.5792  -17.8184   20.1956 H   0  0  0  0  0  0
  -31.9827  -16.2566   22.3537 H   0  0  0  0  0  0
  -31.2905  -20.4765   22.2773 H   0  0  0  0  0  0
  -30.2179  -26.1699   18.4433 H   0  0  0  0  0  0
  -30.2623  -24.4158   18.6053 H   0  0  0  0  0  0
  -30.7561  -25.4436   19.9512 H   0  0  0  0  0  0
  -29.1427  -24.4357   21.5568 H   0  0  0  0  0  0
  -27.4290  -24.4475   21.2562 H   0  0  0  0  0  0
  -29.3059  -21.9827   22.0922 H   0  0  0  0  0  0
  -30.3945  -22.0232   20.7187 H   0  0  0  0  0  0
  -27.9487  -25.1757   18.8099 H   0  0  0  0  0  0
  -28.8755  -15.3298   20.8315 H   0  0  0  0  0  0
  -28.2899  -20.2596   20.0461 H   0  0  0  0  0  0
  1 25  1  0  0  0
  1 30  2  0  0  0
  1 82  1  0  0  0
  2  3  1  0  0  0
  2 25  1  0  0  0
  2 86  1  0  0  0
  2 87  1  0  0  0
  3  4  1  0  0  0
  3 88  1  0  0  0
  3 89  1  0  0  0
  4  5  1  0  0  0
  4 90  1  0  0  0
  4 91  1  0  0  0
  5  6  1  0  0  0
  5 26  1  0  0  0
  5 92  1  0  0  0
  6 25  1  0  0  0
  6 93  1  0  0  0
  6 94  1  0  0  0
  7  8  2  0  0  0
  7 26  1  0  0  0
  7 29  1  0  0  0
  8  9  1  0  0  0
  8 22  1  0  0  0
  9 10  1  0  0  0
  9 27  2  0  0  0
 10 11  2  0  0  0
 10 15  1  0  0  0
 11 12  1  0  0  0
 11 95  1  0  0  0
 12 13  2  0  0  0
 12 96  1  0  0  0
 13 14  1  0  0  0
 13 31  1  0  0  0
 14 15  2  0  0  0
 14 97  1  0  0  0
 15 98  1  0  0  0
 16 17  2  0  0  0
 16 21  1  0  0  0
 16 31  1  0  0  0
 17 18  1  0  0  0
 17 99  1  0  0  0
 18 19  2  0  0  0
 18100  1  0  0  0
 19 20  1  0  0  0
 19 24  1  0  0  0
 20 21  2  0  0  0
 20101  1  0  0  0
 21 23  1  0  0  0
 22 28  1  0  0  0
 22 32  2  0  0  0
 26 27  1  0  0  0
 28102  1  0  0  0
 28103  1  0  0  0
 29104  1  0  0  0
 29105  1  0  0  0
 33 34  1  0  0  0
 33 66  1  0  0  0
 33 70  2  0  0  0
 34 36  1  0  0  0
 34 59  1  0  0  0
 34106  1  0  0  0
 35 44  2  0  0  0
 35 45  1  0  0  0
 35 68  1  0  0  0
 36 56  1  0  0  0
 36107  1  0  0  0
 37 39  1  0  0  0
 37 47  1  0  0  0
 37 66  1  0  0  0
 37108  1  0  0  0
 38 43  2  0  0  0
 38 46  1  0  0  0
 38 47  1  0  0  0
 39 64  1  0  0  0
 39 67  2  0  0  0
 40 52  1  0  0  0
 40 53  2  0  0  0
 40 58  1  0  0  0
 41109  1  0  0  0
 41110  1  0  0  0
 41111  1  0  0  0
 41 48  1  0  0  0
 42 43  1  0  0  0
 42 66  1  0  0  0
 42112  1  0  0  0
 42113  1  0  0  0
 43 44  1  0  0  0
 44114  1  0  0  0
 45 46  2  0  0  0
 45115  1  0  0  0
 46116  1  0  0  0
 47117  1  0  0  0
 47118  1  0  0  0
 48 56  1  0  0  0
 48 65  1  0  0  0
 48119  1  0  0  0
 49 50  1  0  0  0
 49 53  1  0  0  0
 49 64  1  0  0  0
 49120  1  0  0  0
 50 51  1  0  0  0
 50121  1  0  0  0
 50122  1  0  0  0
 51 52  1  0  0  0
 51123  1  0  0  0
 51124  1  0  0  0
 52125  1  0  0  0
 52126  1  0  0  0
 53 54  1  0  0  0
 54 55  2  0  0  0
 54127  1  0  0  0
 55 57  1  0  0  0
 55128  1  0  0  0
 56 69  2  0  0  0
 57 58  2  0  0  0
 57129  1  0  0  0
 58130  1  0  0  0
 59 60  1  0  0  0
 59 61  1  0  0  0
 59 62  1  0  0  0
 60131  1  0  0  0
 60132  1  0  0  0
 60133  1  0  0  0
 61134  1  0  0  0
 61135  1  0  0  0
 61136  1  0  0  0
 62137  1  0  0  0
 62138  1  0  0  0
 62139  1  0  0  0
 63 65  1  0  0  0
 63140  1  0  0  0
 63141  1  0  0  0
 63142  1  0  0  0
 64143  1  0  0  0
 65144  1  0  0  0
 68 81  1  0  0  0
 71 74  2  0  0  0
 71 75  1  0  0  0
 71145  1  0  0  0
 72 74  1  0  0  0
 72 76  2  0  0  0
 72146  1  0  0  0
 73 75  2  0  0  0
 73 76  1  0  0  0
 73147  1  0  0  0
 74 82  1  0  0  0
 75 83  1  0  0  0
 76 85  1  0  0  0
 77 79  1  0  0  0
 77 80  1  0  0  0
 77 84  2  0  0  0
 78148  1  0  0  0
 78149  1  0  0  0
 78150  1  0  0  0
 78 81  1  0  0  0
 79 81  1  0  0  0
 79151  1  0  0  0
 79152  1  0  0  0
 80 83  1  0  0  0
 80153  1  0  0  0
 80154  1  0  0  0
 81155  1  0  0  0
 82156  1  0  0  0
 83157  1  0  0  0
M  ISO  4   1 100  68 101  81 101  82 100
M  END
> <chiral flag>
0

> <version>
0

> <s_m_source_file>
/data/baiqing/PycharmProjects/Reinvent-master-3.2/result/LINK_invent/BTK/process_docking_weight1_custom_product_contain_oxygen_bond_distance_aromatic_linkinvent_7_9_3/rearranged_h_0167.sdf

> <i_m_source_file_index>
44

> <r_mmod_Potential_Energy-OPLS-2005>
-9.04085922241211

> <r_mmod_Stretch_Energy-OPLS-2005>
43.3104782104492

> <r_mmod_Bend_Energy-OPLS-2005>
121.547241210938

> <r_mmod_Torsional_Energy-OPLS-2005>
201.825698852539

> <r_mmod_Improper_Torsional_Energy-OPLS-2005>
6.02412986755371

> <r_mmod_Van_der_Waal_Energy-OPLS-2005>
150.568939208984

> <r_mmod_Electrostatic_Energy-OPLS-2005>
-323.072448730469

> <r_mmod_Solvation_Energy-OPLS-2005>
-226.445205688477

> <b_mmod_Minimization_Converged-OPLS-2005>
0

> <r_mmod_RMS_Derivative-OPLS-2005>
4.26189804077148

$$$$
44
                    3D
 Structure written by MMmdl.
153161  0  0  1  0            999 V2000
  -30.6953  -14.4581   20.5972 C   0  0  0  0  0  0
  -30.4257  -12.3018   19.4164 C   0  0  0  0  0  0
  -29.4934  -12.5049   18.2042 C   0  0  0  0  0  0
  -28.0147  -12.3634   18.6183 C   0  0  0  0  0  0
  -27.6641  -13.2017   19.8769 C   0  0  2  0  0  0
  -28.7073  -12.9714   20.9945 C   0  0  0  0  0  0
  -25.2608  -13.8154   20.5684 C   0  0  0  0  0  0
  -24.1847  -13.0435   20.9168 C   0  0  0  0  0  0
  -24.6390  -11.6899   20.8731 C   0  0  0  0  0  0
  -23.9050  -10.4290   21.0401 C   0  0  0  0  0  0
  -24.3604   -9.4209   21.9181 C   0  0  0  0  0  0
  -23.6284   -8.2245   22.0753 C   0  0  0  0  0  0
  -22.4268   -8.0277   21.3542 C   0  0  0  0  0  0
  -21.9899   -9.0248   20.4643 C   0  0  0  0  0  0
  -22.7223  -10.2130   20.3050 C   0  0  0  0  0  0
  -21.6852   -6.0731   22.5276 C   0  0  0  0  0  0
  -21.4012   -6.5636   23.8211 C   0  0  0  0  0  0
  -21.3659   -5.6791   24.9175 C   0  0  0  0  0  0
  -21.6045   -4.3056   24.7227 C   0  0  0  0  0  0
  -21.8821   -3.8145   23.4350 C   0  0  0  0  0  0
  -21.9192   -4.6958   22.3402 C   0  0  0  0  0  0
  -22.7870  -13.5237   21.1835 C   0  0  0  0  0  0
  -22.1662   -4.2144   21.0981 F   0  0  0  0  0  0
  -21.5629   -3.4541   25.7738 F   0  0  0  0  0  0
  -30.0360  -13.2775   20.4451 N   0  0  0  0  0  0
  -26.3040  -12.9309   20.3384 N   0  0  0  0  0  0
  -25.9317  -11.6472   20.5768 N   0  0  0  0  0  0
  -22.0512  -12.8232   22.0397 N   0  0  0  0  0  0
  -25.4345  -15.1869   20.4097 N   0  0  0  0  0  0
  -31.8057  -14.6525   20.0915 O   0  0  0  0  0  0
  -21.6635   -6.8873   21.4237 O   0  0  0  0  0  0
  -22.3551  -14.5544   20.6688 O   0  0  0  0  0  0
  -24.6131  -31.8677   23.2096 C   0  0  0  0  0  0
  -25.9031  -32.4823   23.8384 C   0  0  1  0  0  0
  -27.2377  -27.4446   20.1008 C   0  0  0  0  0  0
  -25.5900  -33.8621   24.2323 N   0  0  0  0  0  0
  -23.4012  -30.4894   21.5498 C   0  0  2  0  0  0
  -24.8502  -28.9535   20.1164 C   0  0  0  0  0  0
  -22.7405  -29.4649   22.4994 C   0  0  0  0  0  0
  -18.0267  -28.1367   22.8494 C   0  0  0  0  0  0
  -24.1486  -36.7306   23.2640 C   0  0  0  0  0  0
  -25.9278  -30.8379   21.3594 C   0  0  0  0  0  0
  -26.0088  -29.4720   20.7090 C   0  0  0  0  0  0
  -27.2091  -28.7262   20.6944 C   0  0  0  0  0  0
  -26.0653  -26.9345   19.5054 C   0  0  0  0  0  0
  -24.8725  -27.6840   19.5108 C   0  0  0  0  0  0
  -23.6099  -29.8181   20.1652 C   0  0  0  0  0  0
  -25.4109  -36.3110   24.0336 C   0  0  1  0  0  0
  -20.5856  -28.3653   23.1321 C   0  0  2  0  0  0
  -20.6755  -26.9391   22.5416 C   0  0  0  0  0  0
  -19.5736  -26.6376   21.5210 C   0  0  0  0  0  0
  -18.1915  -26.7917   22.1618 C   0  0  0  0  0  0
  -19.1516  -28.8828   23.2903 C   0  0  0  0  0  0
  -18.9452  -30.1436   23.8907 C   0  0  0  0  0  0
  -17.6456  -30.6582   24.0560 C   0  0  0  0  0  0
  -25.9033  -34.9477   23.5124 C   0  0  0  0  0  0
  -16.5345  -29.9085   23.6324 C   0  0  0  0  0  0
  -16.7257  -28.6496   23.0356 C   0  0  0  0  0  0
  -26.4470  -31.6600   25.0706 C   0  0  0  0  0  0
  -25.3747  -31.3698   26.1464 C   0  0  0  0  0  0
  -27.0305  -30.3053   24.6059 C   0  0  0  0  0  0
  -27.6042  -32.4321   25.7476 C   0  0  0  0  0  0
  -27.5584  -37.1801   24.8463 C   0  0  0  0  0  0
  -21.4134  -29.3025   22.3737 N   0  0  0  0  0  0
  -26.4292  -37.3798   23.9416 N   0  0  0  0  0  0
  -24.6655  -31.0788   22.0986 N   0  0  0  0  0  0
  -23.4180  -28.8190   23.3034 O   0  0  0  0  0  0
  -28.3964  -26.7046   20.0896 O   0  0  0  0  0  0
  -26.5594  -34.8931   22.4684 O   0  0  0  0  0  0
  -23.5331  -32.1418   23.7509 O   0  0  0  0  0  0
  -29.6913  -19.4592   20.6944 C   0  0  0  0  0  0
  -29.1069  -18.1870   22.6868 C   0  0  0  0  0  0
  -28.3601  -20.4992   22.4417 C   0  0  0  0  0  0
  -29.7448  -18.2464   21.4291 C   0  0  0  0  0  0
  -29.0136  -20.6048   21.1855 C   0  0  0  0  0  0
  -28.4142  -19.3046   23.1849 C   0  0  0  0  0  0
  -28.7676  -22.9402   20.8435 C   0  0  0  0  0  0
  -28.6770  -24.2408   20.0606 C   0  0  0  0  0  0
  -30.5075  -17.0392   20.8666 C   0  0  0  0  0  0
  -28.3381  -25.5020   20.8797 C   0  0  0  0  0  0
  -30.0102  -15.6387   21.3281 C   0  0  0  0  0  0
  -28.9940  -21.7637   20.3758 N   0  0  0  0  0  0
  -28.8534  -24.3025   18.8356 O   0  0  0  0  0  0
  -27.7926  -19.2295   24.3860 F   0  0  0  0  0  0
  -31.4695  -12.4037   19.1143 H   0  0  0  0  0  0
  -30.3290  -11.2883   19.8088 H   0  0  0  0  0  0
  -29.7318  -11.7833   17.4218 H   0  0  0  0  0  0
  -29.6607  -13.4927   17.7723 H   0  0  0  0  0  0
  -27.8259  -11.3073   18.8140 H   0  0  0  0  0  0
  -27.3625  -12.6386   17.7888 H   0  0  0  0  0  0
  -27.7115  -14.2497   19.5814 H   0  0  0  0  0  0
  -28.6820  -11.9318   21.3244 H   0  0  0  0  0  0
  -28.4746  -13.5585   21.8831 H   0  0  0  0  0  0
  -25.2746   -9.5688   22.4755 H   0  0  0  0  0  0
  -23.9992   -7.4637   22.7476 H   0  0  0  0  0  0
  -21.0831   -8.8761   19.8950 H   0  0  0  0  0  0
  -22.3676  -10.9665   19.6159 H   0  0  0  0  0  0
  -21.2005   -7.6145   23.9710 H   0  0  0  0  0  0
  -21.1481   -6.0524   25.9075 H   0  0  0  0  0  0
  -22.0602   -2.7603   23.2850 H   0  0  0  0  0  0
  -22.4119  -11.9885   22.4778 H   0  0  0  0  0  0
  -21.1135  -13.1267   22.2616 H   0  0  0  0  0  0
  -24.6733  -15.8475   20.5239 H   0  0  0  0  0  0
  -26.2971  -15.6254   20.1112 H   0  0  0  0  0  0
  -26.7108  -32.5542   23.1153 H   0  0  0  0  0  0
  -25.0083  -33.9778   25.0492 H   0  0  0  0  0  0
  -22.6888  -31.3052   21.4095 H   0  0  0  0  0  0
  -23.3753  -35.9631   23.3299 H   0  0  0  0  0  0
  -24.3585  -36.8926   22.2054 H   0  0  0  0  0  0
  -23.7226  -37.6505   23.6655 H   0  0  0  0  0  0
  -26.0350  -31.6033   20.5896 H   0  0  0  0  0  0
  -26.8164  -30.8949   21.9755 H   0  0  0  0  0  0
  -28.1068  -29.1237   21.1475 H   0  0  0  0  0  0
  -26.0758  -25.9620   19.0333 H   0  0  0  0  0  0
  -23.9821  -27.2801   19.0489 H   0  0  0  0  0  0
  -23.7152  -30.5901   19.4022 H   0  0  0  0  0  0
  -22.7346  -29.2348   19.8727 H   0  0  0  0  0  0
  -25.1281  -36.1972   25.0827 H   0  0  0  0  0  0
  -20.9943  -28.3214   24.1443 H   0  0  0  0  0  0
  -20.5659  -26.2258   23.3597 H   0  0  0  0  0  0
  -21.6628  -26.7431   22.1216 H   0  0  0  0  0  0
  -19.6900  -25.6291   21.1230 H   0  0  0  0  0  0
  -19.6682  -27.3187   20.6742 H   0  0  0  0  0  0
  -17.4187  -26.6669   21.4018 H   0  0  0  0  0  0
  -18.0313  -26.0048   22.9000 H   0  0  0  0  0  0
  -19.7931  -30.7243   24.2285 H   0  0  0  0  0  0
  -17.5018  -31.6269   24.5154 H   0  0  0  0  0  0
  -15.5351  -30.2998   23.7645 H   0  0  0  0  0  0
  -15.8651  -28.0822   22.7075 H   0  0  0  0  0  0
  -24.5913  -30.7053   25.7799 H   0  0  0  0  0  0
  -24.8951  -32.2857   26.4926 H   0  0  0  0  0  0
  -25.8113  -30.8855   27.0208 H   0  0  0  0  0  0
  -26.2835  -29.6809   24.1143 H   0  0  0  0  0  0
  -27.4129  -29.7290   25.4493 H   0  0  0  0  0  0
  -27.8643  -30.4386   23.9162 H   0  0  0  0  0  0
  -27.2651  -33.3608   26.2075 H   0  0  0  0  0  0
  -28.3845  -32.6903   25.0304 H   0  0  0  0  0  0
  -28.0715  -31.8432   26.5379 H   0  0  0  0  0  0
  -28.2588  -38.0114   24.7556 H   0  0  0  0  0  0
  -28.1097  -36.2651   24.6240 H   0  0  0  0  0  0
  -27.2308  -37.1392   25.8868 H   0  0  0  0  0  0
  -20.9289  -29.8768   21.6980 H   0  0  0  0  0  0
  -26.0180  -38.2868   24.1450 H   0  0  0  0  0  0
  -30.1852  -19.5127   19.7336 H   0  0  0  0  0  0
  -29.1332  -17.2896   23.2862 H   0  0  0  0  0  0
  -27.7970  -21.3173   22.8641 H   0  0  0  0  0  0
  -28.6262  -23.0749   21.9185 H   0  0  0  0  0  0
  -31.5596  -17.1587   21.1289 H   0  0  0  0  0  0
  -30.4616  -17.0879   19.7770 H   0  0  0  0  0  0
  -29.0571  -25.5907   21.6946 H   0  0  0  0  0  0
  -27.3571  -25.3725   21.3398 H   0  0  0  0  0  0
  -28.9362  -15.6032   21.1533 H   0  0  0  0  0  0
  -30.1698  -15.5035   22.3976 H   0  0  0  0  0  0
  1 25  1  0  0  0
  1 30  2  0  0  0
  1 81  1  0  0  0
  2  3  1  0  0  0
  2 25  1  0  0  0
  2 85  1  0  0  0
  2 86  1  0  0  0
  3  4  1  0  0  0
  3 87  1  0  0  0
  3 88  1  0  0  0
  4  5  1  0  0  0
  4 89  1  0  0  0
  4 90  1  0  0  0
  5  6  1  0  0  0
  5 26  1  0  0  0
  5 91  1  0  0  0
  6 25  1  0  0  0
  6 92  1  0  0  0
  6 93  1  0  0  0
  7  8  2  0  0  0
  7 26  1  0  0  0
  7 29  1  0  0  0
  8  9  1  0  0  0
  8 22  1  0  0  0
  9 10  1  0  0  0
  9 27  2  0  0  0
 10 11  2  0  0  0
 10 15  1  0  0  0
 11 12  1  0  0  0
 11 94  1  0  0  0
 12 13  2  0  0  0
 12 95  1  0  0  0
 13 14  1  0  0  0
 13 31  1  0  0  0
 14 15  2  0  0  0
 14 96  1  0  0  0
 15 97  1  0  0  0
 16 17  2  0  0  0
 16 21  1  0  0  0
 16 31  1  0  0  0
 17 18  1  0  0  0
 17 98  1  0  0  0
 18 19  2  0  0  0
 18 99  1  0  0  0
 19 20  1  0  0  0
 19 24  1  0  0  0
 20 21  2  0  0  0
 20100  1  0  0  0
 21 23  1  0  0  0
 22 28  1  0  0  0
 22 32  2  0  0  0
 26 27  1  0  0  0
 28101  1  0  0  0
 28102  1  0  0  0
 29103  1  0  0  0
 29104  1  0  0  0
 33 34  1  0  0  0
 33 66  1  0  0  0
 33 70  2  0  0  0
 34 36  1  0  0  0
 34 59  1  0  0  0
 34105  1  0  0  0
 35 44  2  0  0  0
 35 45  1  0  0  0
 35 68  1  0  0  0
 36 56  1  0  0  0
 36106  1  0  0  0
 37 39  1  0  0  0
 37 47  1  0  0  0
 37 66  1  0  0  0
 37107  1  0  0  0
 38 43  2  0  0  0
 38 46  1  0  0  0
 38 47  1  0  0  0
 39 64  1  0  0  0
 39 67  2  0  0  0
 40 52  1  0  0  0
 40 53  2  0  0  0
 40 58  1  0  0  0
 41108  1  0  0  0
 41109  1  0  0  0
 41110  1  0  0  0
 41 48  1  0  0  0
 42 43  1  0  0  0
 42 66  1  0  0  0
 42111  1  0  0  0
 42112  1  0  0  0
 43 44  1  0  0  0
 44113  1  0  0  0
 45 46  2  0  0  0
 45114  1  0  0  0
 46115  1  0  0  0
 47116  1  0  0  0
 47117  1  0  0  0
 48 56  1  0  0  0
 48 65  1  0  0  0
 48118  1  0  0  0
 49 50  1  0  0  0
 49 53  1  0  0  0
 49 64  1  0  0  0
 49119  1  0  0  0
 50 51  1  0  0  0
 50120  1  0  0  0
 50121  1  0  0  0
 51 52  1  0  0  0
 51122  1  0  0  0
 51123  1  0  0  0
 52124  1  0  0  0
 52125  1  0  0  0
 53 54  1  0  0  0
 54 55  2  0  0  0
 54126  1  0  0  0
 55 57  1  0  0  0
 55127  1  0  0  0
 56 69  2  0  0  0
 57 58  2  0  0  0
 57128  1  0  0  0
 58129  1  0  0  0
 59 60  1  0  0  0
 59 61  1  0  0  0
 59 62  1  0  0  0
 60130  1  0  0  0
 60131  1  0  0  0
 60132  1  0  0  0
 61133  1  0  0  0
 61134  1  0  0  0
 61135  1  0  0  0
 62136  1  0  0  0
 62137  1  0  0  0
 62138  1  0  0  0
 63 65  1  0  0  0
 63139  1  0  0  0
 63140  1  0  0  0
 63141  1  0  0  0
 64142  1  0  0  0
 65143  1  0  0  0
 68 80  1  0  0  0
 71 74  2  0  0  0
 71 75  1  0  0  0
 71144  1  0  0  0
 72 74  1  0  0  0
 72 76  2  0  0  0
 72145  1  0  0  0
 73 75  2  0  0  0
 73 76  1  0  0  0
 73146  1  0  0  0
 74 79  1  0  0  0
 75 82  1  0  0  0
 76 84  1  0  0  0
 77 78  1  0  0  0
 77 82  2  0  0  0
 77147  1  0  0  0
 78 80  1  0  0  0
 78 83  2  0  0  0
 79 81  1  0  0  0
 79148  1  0  0  0
 79149  1  0  0  0
 80150  1  0  0  0
 80151  1  0  0  0
 81152  1  0  0  0
 81153  1  0  0  0
M  ISO  4   1 100  68 101  80 101  81 100
M  END
> <chiral flag>
0

> <version>
0

> <s_m_source_file>
/data/baiqing/PycharmProjects/Reinvent-master-3.2/result/LINK_invent/BTK/process_docking_weight1_custom_product_contain_oxygen_bond_distance_aromatic_linkinvent_7_9_3/rearranged_h_0167.sdf

> <i_m_source_file_index>
45

> <r_mmod_Potential_Energy-OPLS-2005>
-3.48415303230286

> <r_mmod_Stretch_Energy-OPLS-2005>
39.8215980529785

> <r_mmod_Bend_Energy-OPLS-2005>
93.9483642578125

> <r_mmod_Torsional_Energy-OPLS-2005>
190.803146362305

> <r_mmod_Improper_Torsional_Energy-OPLS-2005>
2.4297137260437

> <r_mmod_Van_der_Waal_Energy-OPLS-2005>
154.244033813477

> <r_mmod_Electrostatic_Energy-OPLS-2005>
-270.640380859375

> <r_mmod_Solvation_Energy-OPLS-2005>
-224.532852172852

> <b_mmod_Minimization_Converged-OPLS-2005>
0

> <r_mmod_RMS_Derivative-OPLS-2005>
0.688882410526276

$$$$
45
                    3D
 Structure written by MMmdl.
153161  0  0  1  0            999 V2000
  -30.6977  -14.4527   20.5186 C   0  0  0  0  0  0
  -30.4171  -12.2690   19.4418 C   0  0  0  0  0  0
  -29.5021  -12.4750   18.2158 C   0  0  0  0  0  0
  -28.0176  -12.3559   18.6176 C   0  0  0  0  0  0
  -27.6601  -13.2033   19.8698 C   0  0  2  0  0  0
  -28.6982  -12.9957   20.9981 C   0  0  0  0  0  0
  -25.2588  -13.8144   20.5658 C   0  0  0  0  0  0
  -24.1838  -13.0425   20.9163 C   0  0  0  0  0  0
  -24.6385  -11.6897   20.8737 C   0  0  0  0  0  0
  -23.9053  -10.4274   21.0414 C   0  0  0  0  0  0
  -24.3612   -9.4188   21.9195 C   0  0  0  0  0  0
  -23.6291   -8.2221   22.0745 C   0  0  0  0  0  0
  -22.4274   -8.0269   21.3535 C   0  0  0  0  0  0
  -21.9911   -9.0234   20.4635 C   0  0  0  0  0  0
  -22.7231  -10.2114   20.3057 C   0  0  0  0  0  0
  -21.6846   -6.0748   22.5280 C   0  0  0  0  0  0
  -21.4015   -6.5646   23.8221 C   0  0  0  0  0  0
  -21.3655   -5.6788   24.9171 C   0  0  0  0  0  0
  -21.6052   -4.3052   24.7218 C   0  0  0  0  0  0
  -21.8823   -3.8152   23.4336 C   0  0  0  0  0  0
  -21.9187   -4.6975   22.3402 C   0  0  0  0  0  0
  -22.7863  -13.5234   21.1847 C   0  0  0  0  0  0
  -22.1653   -4.2167   21.0973 F   0  0  0  0  0  0
  -21.5631   -3.4532   25.7724 F   0  0  0  0  0  0
  -30.0345  -13.2700   20.4478 N   0  0  0  0  0  0
  -26.3012  -12.9312   20.3316 N   0  0  0  0  0  0
  -25.9303  -11.6471   20.5732 N   0  0  0  0  0  0
  -22.0494  -12.8227   22.0401 N   0  0  0  0  0  0
  -25.4313  -15.1869   20.4090 N   0  0  0  0  0  0
  -31.8617  -14.5898   20.1313 O   0  0  0  0  0  0
  -21.6620   -6.8882   21.4244 O   0  0  0  0  0  0
  -22.3571  -14.5548   20.6704 O   0  0  0  0  0  0
  -24.6128  -31.8689   23.2090 C   0  0  0  0  0  0
  -25.9018  -32.4844   23.8400 C   0  0  1  0  0  0
  -27.2420  -27.4551   20.0971 C   0  0  0  0  0  0
  -25.5875  -33.8640   24.2347 N   0  0  0  0  0  0
  -23.4014  -30.4895   21.5499 C   0  0  2  0  0  0
  -24.8501  -28.9537   20.1197 C   0  0  0  0  0  0
  -22.7416  -29.4658   22.5013 C   0  0  0  0  0  0
  -18.0271  -28.1377   22.8501 C   0  0  0  0  0  0
  -24.1488  -36.7326   23.2633 C   0  0  0  0  0  0
  -25.9254  -30.8469   21.3506 C   0  0  0  0  0  0
  -26.0088  -29.4778   20.7073 C   0  0  0  0  0  0
  -27.2114  -28.7372   20.6883 C   0  0  0  0  0  0
  -26.0689  -26.9389   19.5066 C   0  0  0  0  0  0
  -24.8742  -27.6840   19.5149 C   0  0  0  0  0  0
  -23.6090  -29.8160   20.1665 C   0  0  0  0  0  0
  -25.4107  -36.3138   24.0353 C   0  0  1  0  0  0
  -20.5862  -28.3662   23.1336 C   0  0  2  0  0  0
  -20.6755  -26.9400   22.5418 C   0  0  0  0  0  0
  -19.5729  -26.6394   21.5214 C   0  0  0  0  0  0
  -18.1914  -26.7930   22.1631 C   0  0  0  0  0  0
  -19.1519  -28.8838   23.2922 C   0  0  0  0  0  0
  -18.9444  -30.1443   23.8928 C   0  0  0  0  0  0
  -17.6442  -30.6585   24.0567 C   0  0  0  0  0  0
  -25.9021  -34.9495   23.5152 C   0  0  0  0  0  0
  -16.5337  -29.9089   23.6310 C   0  0  0  0  0  0
  -16.7263  -28.6505   23.0349 C   0  0  0  0  0  0
  -26.4433  -31.6603   25.0702 C   0  0  0  0  0  0
  -25.3701  -31.3714   26.1459 C   0  0  0  0  0  0
  -27.0216  -30.3056   24.6001 C   0  0  0  0  0  0
  -27.6062  -32.4271   25.7430 C   0  0  0  0  0  0
  -27.5595  -37.1810   24.8471 C   0  0  0  0  0  0
  -21.4144  -29.3033   22.3755 N   0  0  0  0  0  0
  -26.4305  -37.3813   23.9419 N   0  0  0  0  0  0
  -24.6658  -31.0814   22.0969 N   0  0  0  0  0  0
  -23.4200  -28.8195   23.3041 O   0  0  0  0  0  0
  -28.4097  -26.7311   20.0847 O   0  0  0  0  0  0
  -26.5593  -34.8940   22.4715 O   0  0  0  0  0  0
  -23.5314  -32.1424   23.7494 O   0  0  0  0  0  0
  -30.6057  -17.0317   19.0571 C   0  0  0  0  0  0
  -30.3040  -18.3935   18.8138 C   0  0  0  0  0  0
  -29.9742  -16.7418   20.2479 C   0  0  0  0  0  0
  -29.5231  -18.8322   19.8378 C   0  0  0  0  0  0
  -28.5817  -22.1532   21.2855 C   0  0  0  0  0  0
  -28.2571  -24.2784   19.9122 C   0  0  0  0  0  0
  -27.5990  -23.0163   20.4832 C   0  0  0  0  0  0
  -28.4147  -20.6313   21.1743 C   0  0  0  0  0  0
  -28.3535  -25.5065   20.8309 C   0  0  0  0  0  0
  -29.9402  -15.5170   20.8550 N   0  0  0  0  0  0
  -29.0186  -20.1268   19.9478 N   0  0  0  0  0  0
  -29.4766  -22.6376   21.9857 O   0  0  0  0  0  0
  -28.6556  -24.3136   18.7422 O   0  0  0  0  0  0
  -29.2841  -17.8328   20.7442 O   0  0  0  0  0  0
  -30.7135  -19.1271   17.7499 F   0  0  0  0  0  0
  -31.4683  -12.3372   19.1545 H   0  0  0  0  0  0
  -30.2842  -11.2666   19.8534 H   0  0  0  0  0  0
  -29.7355  -11.7355   17.4489 H   0  0  0  0  0  0
  -29.6889  -13.4519   17.7674 H   0  0  0  0  0  0
  -27.8167  -11.3023   18.8157 H   0  0  0  0  0  0
  -27.3783  -12.6307   17.7785 H   0  0  0  0  0  0
  -27.7012  -14.2485   19.5632 H   0  0  0  0  0  0
  -28.6589  -11.9707   21.3681 H   0  0  0  0  0  0
  -28.4734  -13.6235   21.8614 H   0  0  0  0  0  0
  -25.2766   -9.5657   22.4764 H   0  0  0  0  0  0
  -24.0010   -7.4608   22.7468 H   0  0  0  0  0  0
  -21.0840   -8.8758   19.8946 H   0  0  0  0  0  0
  -22.3712  -10.9656   19.6159 H   0  0  0  0  0  0
  -21.2019   -7.6157   23.9737 H   0  0  0  0  0  0
  -21.1473   -6.0509   25.9078 H   0  0  0  0  0  0
  -22.0615   -2.7619   23.2813 H   0  0  0  0  0  0
  -22.4084  -11.9867   22.4779 H   0  0  0  0  0  0
  -21.1108  -13.1253   22.2595 H   0  0  0  0  0  0
  -24.6687  -15.8435   20.5331 H   0  0  0  0  0  0
  -26.2877  -15.6304   20.1038 H   0  0  0  0  0  0
  -26.7097  -32.5576   23.1186 H   0  0  0  0  0  0
  -25.0030  -33.9798   25.0497 H   0  0  0  0  0  0
  -22.6886  -31.3048   21.4093 H   0  0  0  0  0  0
  -23.3748  -35.9655   23.3312 H   0  0  0  0  0  0
  -24.3595  -36.8903   22.2041 H   0  0  0  0  0  0
  -23.7224  -37.6542   23.6610 H   0  0  0  0  0  0
  -26.0136  -31.6051   20.5718 H   0  0  0  0  0  0
  -26.8228  -30.9198   21.9531 H   0  0  0  0  0  0
  -28.1109  -29.1422   21.1324 H   0  0  0  0  0  0
  -26.0768  -25.9673   19.0328 H   0  0  0  0  0  0
  -23.9844  -27.2761   19.0545 H   0  0  0  0  0  0
  -23.7121  -30.5866   19.4014 H   0  0  0  0  0  0
  -22.7353  -29.2297   19.8764 H   0  0  0  0  0  0
  -25.1266  -36.2025   25.0845 H   0  0  0  0  0  0
  -20.9959  -28.3210   24.1460 H   0  0  0  0  0  0
  -20.5654  -26.2263   23.3605 H   0  0  0  0  0  0
  -21.6627  -26.7439   22.1210 H   0  0  0  0  0  0
  -19.6884  -25.6315   21.1228 H   0  0  0  0  0  0
  -19.6669  -27.3217   20.6760 H   0  0  0  0  0  0
  -17.4184  -26.6697   21.4033 H   0  0  0  0  0  0
  -18.0314  -26.0069   22.9024 H   0  0  0  0  0  0
  -19.7916  -30.7253   24.2327 H   0  0  0  0  0  0
  -17.4993  -31.6265   24.5166 H   0  0  0  0  0  0
  -15.5336  -30.2999   23.7612 H   0  0  0  0  0  0
  -15.8676  -28.0831   22.7047 H   0  0  0  0  0  0
  -24.5868  -30.7068   25.7791 H   0  0  0  0  0  0
  -24.8878  -32.2864   26.4907 H   0  0  0  0  0  0
  -25.8035  -30.8872   27.0220 H   0  0  0  0  0  0
  -26.2716  -29.6878   24.1042 H   0  0  0  0  0  0
  -27.4008  -29.7229   25.4404 H   0  0  0  0  0  0
  -27.8546  -30.4408   23.9101 H   0  0  0  0  0  0
  -27.2761  -33.3591   26.2036 H   0  0  0  0  0  0
  -28.3838  -32.6791   25.0205 H   0  0  0  0  0  0
  -28.0759  -31.8352   26.5300 H   0  0  0  0  0  0
  -28.2626  -38.0093   24.7520 H   0  0  0  0  0  0
  -28.1072  -36.2633   24.6287 H   0  0  0  0  0  0
  -27.2322  -37.1457   25.8874 H   0  0  0  0  0  0
  -20.9312  -29.8779   21.6998 H   0  0  0  0  0  0
  -26.0212  -38.2899   24.1407 H   0  0  0  0  0  0
  -31.1927  -16.3693   18.4389 H   0  0  0  0  0  0
  -26.7722  -23.3039   21.1308 H   0  0  0  0  0  0
  -27.1828  -22.4263   19.6670 H   0  0  0  0  0  0
  -27.3492  -20.3916   21.1865 H   0  0  0  0  0  0
  -28.8625  -20.1567   22.0493 H   0  0  0  0  0  0
  -29.2619  -25.4202   21.4277 H   0  0  0  0  0  0
  -27.5178  -25.5083   21.5312 H   0  0  0  0  0  0
  -29.1068  -15.3120   21.3840 H   0  0  0  0  0  0
  -29.2923  -20.8135   19.2510 H   0  0  0  0  0  0
  1 25  1  0  0  0
  1 30  2  0  0  0
  1 80  1  0  0  0
  2  3  1  0  0  0
  2 25  1  0  0  0
  2 86  1  0  0  0
  2 87  1  0  0  0
  3  4  1  0  0  0
  3 88  1  0  0  0
  3 89  1  0  0  0
  4  5  1  0  0  0
  4 90  1  0  0  0
  4 91  1  0  0  0
  5  6  1  0  0  0
  5 26  1  0  0  0
  5 92  1  0  0  0
  6 25  1  0  0  0
  6 93  1  0  0  0
  6 94  1  0  0  0
  7  8  2  0  0  0
  7 26  1  0  0  0
  7 29  1  0  0  0
  8  9  1  0  0  0
  8 22  1  0  0  0
  9 10  1  0  0  0
  9 27  2  0  0  0
 10 11  2  0  0  0
 10 15  1  0  0  0
 11 12  1  0  0  0
 11 95  1  0  0  0
 12 13  2  0  0  0
 12 96  1  0  0  0
 13 14  1  0  0  0
 13 31  1  0  0  0
 14 15  2  0  0  0
 14 97  1  0  0  0
 15 98  1  0  0  0
 16 17  2  0  0  0
 16 21  1  0  0  0
 16 31  1  0  0  0
 17 18  1  0  0  0
 17 99  1  0  0  0
 18 19  2  0  0  0
 18100  1  0  0  0
 19 20  1  0  0  0
 19 24  1  0  0  0
 20 21  2  0  0  0
 20101  1  0  0  0
 21 23  1  0  0  0
 22 28  1  0  0  0
 22 32  2  0  0  0
 26 27  1  0  0  0
 28102  1  0  0  0
 28103  1  0  0  0
 29104  1  0  0  0
 29105  1  0  0  0
 33 34  1  0  0  0
 33 66  1  0  0  0
 33 70  2  0  0  0
 34 36  1  0  0  0
 34 59  1  0  0  0
 34106  1  0  0  0
 35 44  2  0  0  0
 35 45  1  0  0  0
 35 68  1  0  0  0
 36 56  1  0  0  0
 36107  1  0  0  0
 37 39  1  0  0  0
 37 47  1  0  0  0
 37 66  1  0  0  0
 37108  1  0  0  0
 38 43  2  0  0  0
 38 46  1  0  0  0
 38 47  1  0  0  0
 39 64  1  0  0  0
 39 67  2  0  0  0
 40 52  1  0  0  0
 40 53  2  0  0  0
 40 58  1  0  0  0
 41109  1  0  0  0
 41110  1  0  0  0
 41111  1  0  0  0
 41 48  1  0  0  0
 42 43  1  0  0  0
 42 66  1  0  0  0
 42112  1  0  0  0
 42113  1  0  0  0
 43 44  1  0  0  0
 44114  1  0  0  0
 45 46  2  0  0  0
 45115  1  0  0  0
 46116  1  0  0  0
 47117  1  0  0  0
 47118  1  0  0  0
 48 56  1  0  0  0
 48 65  1  0  0  0
 48119  1  0  0  0
 49 50  1  0  0  0
 49 53  1  0  0  0
 49 64  1  0  0  0
 49120  1  0  0  0
 50 51  1  0  0  0
 50121  1  0  0  0
 50122  1  0  0  0
 51 52  1  0  0  0
 51123  1  0  0  0
 51124  1  0  0  0
 52125  1  0  0  0
 52126  1  0  0  0
 53 54  1  0  0  0
 54 55  2  0  0  0
 54127  1  0  0  0
 55 57  1  0  0  0
 55128  1  0  0  0
 56 69  2  0  0  0
 57 58  2  0  0  0
 57129  1  0  0  0
 58130  1  0  0  0
 59 60  1  0  0  0
 59 61  1  0  0  0
 59 62  1  0  0  0
 60131  1  0  0  0
 60132  1  0  0  0
 60133  1  0  0  0
 61134  1  0  0  0
 61135  1  0  0  0
 61136  1  0  0  0
 62137  1  0  0  0
 62138  1  0  0  0
 62139  1  0  0  0
 63 65  1  0  0  0
 63140  1  0  0  0
 63141  1  0  0  0
 63142  1  0  0  0
 64143  1  0  0  0
 65144  1  0  0  0
 68 79  1  0  0  0
 71 72  1  0  0  0
 71 73  2  0  0  0
 71145  1  0  0  0
 72 74  2  0  0  0
 72 85  1  0  0  0
 73 80  1  0  0  0
 73 84  1  0  0  0
 74 81  1  0  0  0
 74 84  1  0  0  0
 75 77  1  0  0  0
 75 78  1  0  0  0
 75 82  2  0  0  0
 76 77  1  0  0  0
 76 79  1  0  0  0
 76 83  2  0  0  0
 77146  1  0  0  0
 77147  1  0  0  0
 78 81  1  0  0  0
 78148  1  0  0  0
 78149  1  0  0  0
 79150  1  0  0  0
 79151  1  0  0  0
 80152  1  0  0  0
 81153  1  0  0  0
M  ISO  4   1 100  68 101  79 101  80 100
M  END
> <chiral flag>
0

> <version>
0

> <s_m_source_file>
/data/baiqing/PycharmProjects/Reinvent-master-3.2/result/LINK_invent/BTK/process_docking_weight1_custom_product_contain_oxygen_bond_distance_aromatic_linkinvent_7_9_3/rearranged_h_0167.sdf

> <i_m_source_file_index>
46

> <r_mmod_Potential_Energy-OPLS-2005>
-71.3562774658203

> <r_mmod_Stretch_Energy-OPLS-2005>
33.9999923706055

> <r_mmod_Bend_Energy-OPLS-2005>
114.054756164551

> <r_mmod_Torsional_Energy-OPLS-2005>
253.04948425293

> <r_mmod_Improper_Torsional_Energy-OPLS-2005>
6.30031538009644

> <r_mmod_Van_der_Waal_Energy-OPLS-2005>
130.429672241211

> <r_mmod_Electrostatic_Energy-OPLS-2005>
-379.982971191406

> <r_mmod_Solvation_Energy-OPLS-2005>
-242.723602294922

> <b_mmod_Minimization_Converged-OPLS-2005>
0

> <r_mmod_RMS_Derivative-OPLS-2005>
2.12994027137756

$$$$
46
                    3D
 Structure written by MMmdl.
154162  0  0  1  0            999 V2000
  -30.6068  -14.7329   20.4687 C   0  0  0  0  0  0
  -30.4459  -12.4458   19.4778 C   0  0  0  0  0  0
  -29.5166  -12.5059   18.2438 C   0  0  0  0  0  0
  -28.0422  -12.3312   18.6569 C   0  0  0  0  0  0
  -27.6534  -13.2261   19.8639 C   0  0  2  0  0  0
  -28.6990  -13.1362   20.9996 C   0  0  0  0  0  0
  -25.2571  -13.8190   20.5723 C   0  0  0  0  0  0
  -24.1844  -13.0454   20.9200 C   0  0  0  0  0  0
  -24.6418  -11.6919   20.8742 C   0  0  0  0  0  0
  -23.9077  -10.4305   21.0400 C   0  0  0  0  0  0
  -24.3618   -9.4224   21.9187 C   0  0  0  0  0  0
  -23.6291   -8.2261   22.0757 C   0  0  0  0  0  0
  -22.4272   -8.0291   21.3542 C   0  0  0  0  0  0
  -21.9915   -9.0272   20.4648 C   0  0  0  0  0  0
  -22.7245  -10.2153   20.3054 C   0  0  0  0  0  0
  -21.6855   -6.0739   22.5270 C   0  0  0  0  0  0
  -21.4023   -6.5643   23.8206 C   0  0  0  0  0  0
  -21.3655   -5.6792   24.9171 C   0  0  0  0  0  0
  -21.6037   -4.3052   24.7224 C   0  0  0  0  0  0
  -21.8819   -3.8150   23.4342 C   0  0  0  0  0  0
  -21.9205   -4.6970   22.3398 C   0  0  0  0  0  0
  -22.7869  -13.5241   21.1844 C   0  0  0  0  0  0
  -22.1666   -4.2156   21.0976 F   0  0  0  0  0  0
  -21.5628   -3.4533   25.7738 F   0  0  0  0  0  0
  -30.0055  -13.4937   20.4284 N   0  0  0  0  0  0
  -26.3005  -12.9387   20.3340 N   0  0  0  0  0  0
  -25.9356  -11.6528   20.5780 N   0  0  0  0  0  0
  -22.0494  -12.8244   22.0386 N   0  0  0  0  0  0
  -25.4293  -15.1915   20.4139 N   0  0  0  0  0  0
  -31.7662  -14.8697   20.0658 O   0  0  0  0  0  0
  -21.6633   -6.8887   21.4226 O   0  0  0  0  0  0
  -22.3568  -14.5563   20.6695 O   0  0  0  0  0  0
  -24.6303  -31.8571   23.1998 C   0  0  0  0  0  0
  -25.9143  -32.4752   23.8336 C   0  0  1  0  0  0
  -27.2220  -27.2441   20.1199 C   0  0  0  0  0  0
  -25.5941  -33.8552   24.2241 N   0  0  0  0  0  0
  -23.4296  -30.4751   21.5478 C   0  0  2  0  0  0
  -24.8794  -28.9310   20.1137 C   0  0  0  0  0  0
  -22.7506  -29.4562   22.4950 C   0  0  0  0  0  0
  -18.0288  -28.1348   22.8478 C   0  0  0  0  0  0
  -24.1499  -36.7286   23.2641 C   0  0  0  0  0  0
  -25.9779  -30.7547   21.3940 C   0  0  0  0  0  0
  -26.0504  -29.3757   20.7412 C   0  0  0  0  0  0
  -27.2198  -28.5429   20.7450 C   0  0  0  0  0  0
  -26.0494  -26.9267   19.3997 C   0  0  0  0  0  0
  -24.8850  -27.7101   19.4312 C   0  0  0  0  0  0
  -23.6492  -29.8128   20.1638 C   0  0  0  0  0  0
  -25.4121  -36.3056   24.0313 C   0  0  1  0  0  0
  -20.5893  -28.3656   23.1259 C   0  0  2  0  0  0
  -20.6774  -26.9374   22.5399 C   0  0  0  0  0  0
  -19.5755  -26.6358   21.5194 C   0  0  0  0  0  0
  -18.1930  -26.7899   22.1605 C   0  0  0  0  0  0
  -19.1543  -28.8822   23.2851 C   0  0  0  0  0  0
  -18.9482  -30.1429   23.8867 C   0  0  0  0  0  0
  -17.6482  -30.6566   24.0532 C   0  0  0  0  0  0
  -25.9066  -34.9433   23.5071 C   0  0  0  0  0  0
  -16.5363  -29.9053   23.6333 C   0  0  0  0  0  0
  -16.7273  -28.6464   23.0356 C   0  0  0  0  0  0
  -26.4512  -31.6581   25.0736 C   0  0  0  0  0  0
  -25.3725  -31.3746   26.1450 C   0  0  0  0  0  0
  -27.0367  -30.2981   24.6251 C   0  0  0  0  0  0
  -27.6044  -32.4366   25.7517 C   0  0  0  0  0  0
  -27.5589  -37.1766   24.8453 C   0  0  0  0  0  0
  -21.4219  -29.3027   22.3684 N   0  0  0  0  0  0
  -26.4287  -37.3744   23.9412 N   0  0  0  0  0  0
  -24.6975  -31.0485   22.1008 N   0  0  0  0  0  0
  -23.4190  -28.8083   23.3058 O   0  0  0  0  0  0
  -28.3192  -26.3354   20.1257 O   0  0  0  0  0  0
  -26.5664  -34.8916   22.4651 O   0  0  0  0  0  0
  -23.5456  -32.1438   23.7256 O   0  0  0  0  0  0
  -30.2790  -17.8124   19.3630 C   0  0  0  0  0  0
  -30.1562  -19.2648   19.3115 C   0  0  0  0  0  0
  -29.6965  -19.8536   20.4807 C   0  0  0  0  0  0
  -29.9294  -17.1906   20.5473 C   0  0  0  0  0  0
  -29.4837  -21.3261   20.9521 C   0  0  0  0  0  0
  -30.5113  -20.0261   18.0664 C   0  0  0  0  0  0
  -27.0540  -24.0946   19.6394 C   0  0  0  0  0  0
  -29.4933  -23.9069   20.2752 C   0  0  0  0  0  0
  -28.1739  -24.8372   20.4001 C   0  0  1  0  0  0
  -29.8416  -15.8206   20.8540 N   0  0  0  0  0  0
  -29.4171  -22.3840   20.0707 N   0  0  0  0  0  0
  -29.3861  -21.5547   22.1590 O   0  0  0  0  0  0
  -29.4239  -18.5132   21.6407 S   0  0  0  0  0  0
  -31.4862  -12.5775   19.1730 H   0  0  0  0  0  0
  -30.4021  -11.4653   19.9562 H   0  0  0  0  0  0
  -29.7986  -11.7329   17.5280 H   0  0  0  0  0  0
  -29.6456  -13.4617   17.7323 H   0  0  0  0  0  0
  -27.8943  -11.2809   18.9149 H   0  0  0  0  0  0
  -27.3877  -12.5310   17.8082 H   0  0  0  0  0  0
  -27.6572  -14.2524   19.4941 H   0  0  0  0  0  0
  -28.7329  -12.1285   21.4174 H   0  0  0  0  0  0
  -28.4341  -13.7971   21.8268 H   0  0  0  0  0  0
  -25.2761   -9.5714   22.4774 H   0  0  0  0  0  0
  -23.9999   -7.4660   22.7490 H   0  0  0  0  0  0
  -21.0847   -8.8798   19.8958 H   0  0  0  0  0  0
  -22.3694  -10.9701   19.6174 H   0  0  0  0  0  0
  -21.1998   -7.6149   23.9715 H   0  0  0  0  0  0
  -21.1473   -6.0518   25.9077 H   0  0  0  0  0  0
  -22.0600   -2.7610   23.2837 H   0  0  0  0  0  0
  -22.4098  -11.9890   22.4763 H   0  0  0  0  0  0
  -21.1123  -13.1303   22.2590 H   0  0  0  0  0  0
  -24.6643  -15.8465   20.5306 H   0  0  0  0  0  0
  -26.2774  -15.6300   20.0782 H   0  0  0  0  0  0
  -26.7197  -32.5412   23.1076 H   0  0  0  0  0  0
  -24.9999  -33.9685   25.0315 H   0  0  0  0  0  0
  -22.7246  -31.2943   21.3990 H   0  0  0  0  0  0
  -23.3760  -35.9625   23.3286 H   0  0  0  0  0  0
  -24.3599  -36.8942   22.2062 H   0  0  0  0  0  0
  -23.7258  -37.6470   23.6715 H   0  0  0  0  0  0
  -26.1186  -31.5130   20.6220 H   0  0  0  0  0  0
  -26.8542  -30.8055   22.0281 H   0  0  0  0  0  0
  -28.1120  -28.8787   21.2575 H   0  0  0  0  0  0
  -26.0058  -26.0791   18.7431 H   0  0  0  0  0  0
  -24.0107  -27.3847   18.8814 H   0  0  0  0  0  0
  -23.7612  -30.5882   19.4047 H   0  0  0  0  0  0
  -22.7743  -29.2320   19.8687 H   0  0  0  0  0  0
  -25.1278  -36.1893   25.0804 H   0  0  0  0  0  0
  -20.9943  -28.3275   24.1386 H   0  0  0  0  0  0
  -20.5666  -26.2273   23.3609 H   0  0  0  0  0  0
  -21.6633  -26.7398   22.1180 H   0  0  0  0  0  0
  -19.6915  -25.6265   21.1232 H   0  0  0  0  0  0
  -19.6703  -27.3179   20.6737 H   0  0  0  0  0  0
  -17.4184  -26.6649   21.4016 H   0  0  0  0  0  0
  -18.0302  -26.0039   22.9001 H   0  0  0  0  0  0
  -19.7975  -30.7218   24.2241 H   0  0  0  0  0  0
  -17.5054  -31.6264   24.5116 H   0  0  0  0  0  0
  -15.5357  -30.2926   23.7703 H   0  0  0  0  0  0
  -15.8682  -28.0773   22.7080 H   0  0  0  0  0  0
  -24.5906  -30.7086   25.7784 H   0  0  0  0  0  0
  -24.8925  -32.2927   26.4858 H   0  0  0  0  0  0
  -25.8038  -30.8942   27.0245 H   0  0  0  0  0  0
  -26.2960  -29.6712   24.1276 H   0  0  0  0  0  0
  -27.4001  -29.7256   25.4802 H   0  0  0  0  0  0
  -27.8872  -30.4201   23.9533 H   0  0  0  0  0  0
  -27.2601  -33.3676   26.2027 H   0  0  0  0  0  0
  -28.3883  -32.6902   25.0372 H   0  0  0  0  0  0
  -28.0679  -31.8543   26.5494 H   0  0  0  0  0  0
  -28.2513  -38.0141   24.7544 H   0  0  0  0  0  0
  -28.1144  -36.2654   24.6191 H   0  0  0  0  0  0
  -27.2313  -37.1299   25.8851 H   0  0  0  0  0  0
  -20.9415  -29.8762   21.6889 H   0  0  0  0  0  0
  -26.0164  -38.2802   24.1482 H   0  0  0  0  0  0
  -30.6041  -17.2638   18.4901 H   0  0  0  0  0  0
  -31.3784  -19.5875   17.5732 H   0  0  0  0  0  0
  -30.7652  -21.0658   18.2623 H   0  0  0  0  0  0
  -29.6886  -20.0196   17.3505 H   0  0  0  0  0  0
  -27.0437  -23.0288   19.8532 H   0  0  0  0  0  0
  -27.1653  -24.2016   18.5606 H   0  0  0  0  0  0
  -26.0637  -24.4102   19.9549 H   0  0  0  0  0  0
  -30.1762  -24.1275   21.0959 H   0  0  0  0  0  0
  -30.0164  -24.2584   19.3873 H   0  0  0  0  0  0
  -27.8889  -24.7832   21.4514 H   0  0  0  0  0  0
  -28.9981  -15.5565   21.3428 H   0  0  0  0  0  0
  -29.4711  -22.1040   19.1014 H   0  0  0  0  0  0
  1 25  1  0  0  0
  1 30  2  0  0  0
  1 80  1  0  0  0
  2  3  1  0  0  0
  2 25  1  0  0  0
  2 84  1  0  0  0
  2 85  1  0  0  0
  3  4  1  0  0  0
  3 86  1  0  0  0
  3 87  1  0  0  0
  4  5  1  0  0  0
  4 88  1  0  0  0
  4 89  1  0  0  0
  5  6  1  0  0  0
  5 26  1  0  0  0
  5 90  1  0  0  0
  6 25  1  0  0  0
  6 91  1  0  0  0
  6 92  1  0  0  0
  7  8  2  0  0  0
  7 26  1  0  0  0
  7 29  1  0  0  0
  8  9  1  0  0  0
  8 22  1  0  0  0
  9 10  1  0  0  0
  9 27  2  0  0  0
 10 11  2  0  0  0
 10 15  1  0  0  0
 11 12  1  0  0  0
 11 93  1  0  0  0
 12 13  2  0  0  0
 12 94  1  0  0  0
 13 14  1  0  0  0
 13 31  1  0  0  0
 14 15  2  0  0  0
 14 95  1  0  0  0
 15 96  1  0  0  0
 16 17  2  0  0  0
 16 21  1  0  0  0
 16 31  1  0  0  0
 17 18  1  0  0  0
 17 97  1  0  0  0
 18 19  2  0  0  0
 18 98  1  0  0  0
 19 20  1  0  0  0
 19 24  1  0  0  0
 20 21  2  0  0  0
 20 99  1  0  0  0
 21 23  1  0  0  0
 22 28  1  0  0  0
 22 32  2  0  0  0
 26 27  1  0  0  0
 28100  1  0  0  0
 28101  1  0  0  0
 29102  1  0  0  0
 29103  1  0  0  0
 33 34  1  0  0  0
 33 66  1  0  0  0
 33 70  2  0  0  0
 34 36  1  0  0  0
 34 59  1  0  0  0
 34104  1  0  0  0
 35 44  2  0  0  0
 35 45  1  0  0  0
 35 68  1  0  0  0
 36 56  1  0  0  0
 36105  1  0  0  0
 37 39  1  0  0  0
 37 47  1  0  0  0
 37 66  1  0  0  0
 37106  1  0  0  0
 38 43  2  0  0  0
 38 46  1  0  0  0
 38 47  1  0  0  0
 39 64  1  0  0  0
 39 67  2  0  0  0
 40 52  1  0  0  0
 40 53  2  0  0  0
 40 58  1  0  0  0
 41107  1  0  0  0
 41108  1  0  0  0
 41109  1  0  0  0
 41 48  1  0  0  0
 42 43  1  0  0  0
 42 66  1  0  0  0
 42110  1  0  0  0
 42111  1  0  0  0
 43 44  1  0  0  0
 44112  1  0  0  0
 45 46  2  0  0  0
 45113  1  0  0  0
 46114  1  0  0  0
 47115  1  0  0  0
 47116  1  0  0  0
 48 56  1  0  0  0
 48 65  1  0  0  0
 48117  1  0  0  0
 49 50  1  0  0  0
 49 53  1  0  0  0
 49 64  1  0  0  0
 49118  1  0  0  0
 50 51  1  0  0  0
 50119  1  0  0  0
 50120  1  0  0  0
 51 52  1  0  0  0
 51121  1  0  0  0
 51122  1  0  0  0
 52123  1  0  0  0
 52124  1  0  0  0
 53 54  1  0  0  0
 54 55  2  0  0  0
 54125  1  0  0  0
 55 57  1  0  0  0
 55126  1  0  0  0
 56 69  2  0  0  0
 57 58  2  0  0  0
 57127  1  0  0  0
 58128  1  0  0  0
 59 60  1  0  0  0
 59 61  1  0  0  0
 59 62  1  0  0  0
 60129  1  0  0  0
 60130  1  0  0  0
 60131  1  0  0  0
 61132  1  0  0  0
 61133  1  0  0  0
 61134  1  0  0  0
 62135  1  0  0  0
 62136  1  0  0  0
 62137  1  0  0  0
 63 65  1  0  0  0
 63138  1  0  0  0
 63139  1  0  0  0
 63140  1  0  0  0
 64141  1  0  0  0
 65142  1  0  0  0
 68 79  1  0  0  0
 71 72  1  0  0  0
 71 74  2  0  0  0
 71143  1  0  0  0
 72 73  2  0  0  0
 72 76  1  0  0  0
 73 75  1  0  0  0
 73 83  1  0  0  0
 74 80  1  0  0  0
 74 83  1  0  0  0
 75 81  1  0  0  0
 75 82  2  0  0  0
 76144  1  0  0  0
 76145  1  0  0  0
 76146  1  0  0  0
 77147  1  0  0  0
 77148  1  0  0  0
 77149  1  0  0  0
 77 79  1  0  0  0
 78 79  1  0  0  0
 78 81  1  0  0  0
 78150  1  0  0  0
 78151  1  0  0  0
 79152  1  0  0  0
 80153  1  0  0  0
 81154  1  0  0  0
M  ISO  4   1 100  68 101  79 101  80 100
M  END
> <chiral flag>
0

> <version>
0

> <s_m_source_file>
/data/baiqing/PycharmProjects/Reinvent-master-3.2/result/LINK_invent/BTK/process_docking_weight1_custom_product_contain_oxygen_bond_distance_aromatic_linkinvent_7_9_3/rearranged_h_0167.sdf

> <i_m_source_file_index>
47

> <r_mmod_Potential_Energy-OPLS-2005>
125.225082397461

> <r_mmod_Stretch_Energy-OPLS-2005>
122.610939025879

> <r_mmod_Bend_Energy-OPLS-2005>
188.090576171875

> <r_mmod_Torsional_Energy-OPLS-2005>
253.942413330078

> <r_mmod_Improper_Torsional_Energy-OPLS-2005>
4.01879596710205

> <r_mmod_Van_der_Waal_Energy-OPLS-2005>
130.930572509766

> <r_mmod_Electrostatic_Energy-OPLS-2005>
-423.958251953125

> <r_mmod_Solvation_Energy-OPLS-2005>
-236.026779174805

> <b_mmod_Minimization_Converged-OPLS-2005>
0

> <r_mmod_RMS_Derivative-OPLS-2005>
3.24066424369812

$$$$
47
                    3D
 Structure written by MMmdl.
155163  0  0  1  0            999 V2000
  -30.6403  -14.6903   20.4524 C   0  0  0  0  0  0
  -30.4329  -12.4053   19.4655 C   0  0  0  0  0  0
  -29.5080  -12.4636   18.2297 C   0  0  0  0  0  0
  -28.0405  -12.2856   18.6602 C   0  0  0  0  0  0
  -27.6512  -13.2070   19.8467 C   0  0  2  0  0  0
  -28.6963  -13.1444   20.9837 C   0  0  0  0  0  0
  -25.2578  -13.8155   20.5659 C   0  0  0  0  0  0
  -24.1822  -13.0433   20.9168 C   0  0  0  0  0  0
  -24.6370  -11.6901   20.8704 C   0  0  0  0  0  0
  -23.9011  -10.4290   21.0366 C   0  0  0  0  0  0
  -24.3576   -9.4230   21.9165 C   0  0  0  0  0  0
  -23.6268   -8.2266   22.0762 C   0  0  0  0  0  0
  -22.4262   -8.0268   21.3551 C   0  0  0  0  0  0
  -21.9867   -9.0227   20.4652 C   0  0  0  0  0  0
  -22.7167  -10.2115   20.3043 C   0  0  0  0  0  0
  -21.6871   -6.0701   22.5258 C   0  0  0  0  0  0
  -21.4012   -6.5611   23.8184 C   0  0  0  0  0  0
  -21.3661   -5.6786   24.9152 C   0  0  0  0  0  0
  -21.6048   -4.3041   24.7225 C   0  0  0  0  0  0
  -21.8829   -3.8122   23.4349 C   0  0  0  0  0  0
  -21.9203   -4.6923   22.3398 C   0  0  0  0  0  0
  -22.7862  -13.5235   21.1831 C   0  0  0  0  0  0
  -22.1673   -4.2101   21.0985 F   0  0  0  0  0  0
  -21.5634   -3.4543   25.7746 F   0  0  0  0  0  0
  -30.0017  -13.4714   20.4012 N   0  0  0  0  0  0
  -26.2987  -12.9298   20.3261 N   0  0  0  0  0  0
  -25.9298  -11.6467   20.5743 N   0  0  0  0  0  0
  -22.0510  -12.8232   22.0392 N   0  0  0  0  0  0
  -25.4282  -15.1872   20.4060 N   0  0  0  0  0  0
  -31.8284  -14.7633   20.1405 O   0  0  0  0  0  0
  -21.6665   -6.8838   21.4218 O   0  0  0  0  0  0
  -22.3559  -14.5559   20.6710 O   0  0  0  0  0  0
  -24.6351  -31.8500   23.1919 C   0  0  0  0  0  0
  -25.9124  -32.4762   23.8315 C   0  0  1  0  0  0
  -27.2053  -27.2061   20.1459 C   0  0  0  0  0  0
  -25.5904  -33.8548   24.2284 N   0  0  0  0  0  0
  -23.4425  -30.4688   21.5327 C   0  0  2  0  0  0
  -24.8887  -28.9049   20.1189 C   0  0  0  0  0  0
  -22.7549  -29.4566   22.4841 C   0  0  0  0  0  0
  -18.0306  -28.1381   22.8507 C   0  0  0  0  0  0
  -24.1473  -36.7261   23.2652 C   0  0  0  0  0  0
  -25.9893  -30.7455   21.3810 C   0  0  0  0  0  0
  -26.0605  -29.3577   20.7376 C   0  0  0  0  0  0
  -27.2191  -28.5126   20.7512 C   0  0  0  0  0  0
  -26.0138  -26.8452   19.4746 C   0  0  0  0  0  0
  -24.8653  -27.6570   19.4853 C   0  0  0  0  0  0
  -23.6681  -29.7996   20.1535 C   0  0  0  0  0  0
  -25.4109  -36.3084   24.0378 C   0  0  1  0  0  0
  -20.5924  -28.3696   23.1227 C   0  0  2  0  0  0
  -20.6777  -26.9399   22.5374 C   0  0  0  0  0  0
  -19.5727  -26.6389   21.5195 C   0  0  0  0  0  0
  -18.1924  -26.7931   22.1629 C   0  0  0  0  0  0
  -19.1569  -28.8861   23.2865 C   0  0  0  0  0  0
  -18.9476  -30.1474   23.8874 C   0  0  0  0  0  0
  -17.6474  -30.6585   24.0563 C   0  0  0  0  0  0
  -25.9013  -34.9442   23.5136 C   0  0  0  0  0  0
  -16.5363  -29.9077   23.6350 C   0  0  0  0  0  0
  -16.7292  -28.6490   23.0402 C   0  0  0  0  0  0
  -26.4506  -31.6587   25.0672 C   0  0  0  0  0  0
  -25.3741  -31.3730   26.1404 C   0  0  0  0  0  0
  -27.0398  -30.3036   24.6133 C   0  0  0  0  0  0
  -27.6091  -32.4325   25.7428 C   0  0  0  0  0  0
  -27.5578  -37.1783   24.8479 C   0  0  0  0  0  0
  -21.4258  -29.3025   22.3589 N   0  0  0  0  0  0
  -26.4288  -37.3786   23.9434 N   0  0  0  0  0  0
  -24.7103  -31.0428   22.0917 N   0  0  0  0  0  0
  -23.4222  -28.8102   23.2961 O   0  0  0  0  0  0
  -28.2842  -26.2859   20.2420 O   0  0  0  0  0  0
  -26.5569  -34.8921   22.4680 O   0  0  0  0  0  0
  -23.5472  -32.1350   23.7130 O   0  0  0  0  0  0
  -29.3652  -18.3764   20.9268 C   0  0  0  0  0  0
  -31.1377  -17.6160   19.4647 C   0  0  0  0  0  0
  -29.6039  -19.7856   20.6035 C   0  0  0  0  0  0
  -30.1289  -17.2596   20.3874 C   0  0  0  0  0  0
  -31.4043  -18.9581   19.1375 C   0  0  0  0  0  0
  -30.6754  -20.0218   19.7110 C   0  0  0  0  0  0
  -28.1224  -24.8724   20.0334 C   0  0  0  0  0  0
  -28.8431  -20.9972   21.2404 C   0  0  0  0  0  0
  -28.7231  -23.8034   20.6936 C   0  0  0  0  0  0
  -28.5017  -22.2935   20.3300 C   0  0  0  0  0  0
  -27.0823  -21.3603   24.2165 C   0  0  0  0  0  0
  -28.4499  -20.8084   22.4489 N   0  0  0  0  0  0
  -29.8738  -15.8239   20.6964 N   0  0  0  0  0  0
  -27.9661  -22.0423   19.2451 O   0  0  0  0  0  0
  -29.5883  -24.0706   21.6825 O   0  0  0  0  0  0
  -27.5350  -21.7647   22.9227 O   0  0  0  0  0  0
  -32.3835  -19.2293   18.2417 F   0  0  0  0  0  0
  -31.0527  -21.2866   19.4073 F   0  0  0  0  0  0
  -31.4762  -12.5004   19.1581 H   0  0  0  0  0  0
  -30.3543  -11.4261   19.9438 H   0  0  0  0  0  0
  -29.7811  -11.6775   17.5240 H   0  0  0  0  0  0
  -29.6371  -13.4099   17.7016 H   0  0  0  0  0  0
  -27.9227  -11.2414   18.9571 H   0  0  0  0  0  0
  -27.3683  -12.4360   17.8153 H   0  0  0  0  0  0
  -27.6520  -14.2223   19.4508 H   0  0  0  0  0  0
  -28.7247  -12.1537   21.4427 H   0  0  0  0  0  0
  -28.4376  -13.8401   21.7826 H   0  0  0  0  0  0
  -25.2719   -9.5744   22.4730 H   0  0  0  0  0  0
  -23.9982   -7.4681   22.7516 H   0  0  0  0  0  0
  -21.0791   -8.8699   19.8987 H   0  0  0  0  0  0
  -22.3569  -10.9630   19.6154 H   0  0  0  0  0  0
  -21.2000   -7.6127   23.9651 H   0  0  0  0  0  0
  -21.1474   -6.0537   25.9055 H   0  0  0  0  0  0
  -22.0610   -2.7581   23.2875 H   0  0  0  0  0  0
  -22.4115  -11.9863   22.4734 H   0  0  0  0  0  0
  -21.1147  -13.1269   22.2644 H   0  0  0  0  0  0
  -24.6540  -15.8329   20.5165 H   0  0  0  0  0  0
  -26.2665  -15.6303   20.0523 H   0  0  0  0  0  0
  -26.7161  -32.5396   23.1038 H   0  0  0  0  0  0
  -25.0155  -33.9690   25.0514 H   0  0  0  0  0  0
  -22.7462  -31.2907   21.3714 H   0  0  0  0  0  0
  -23.3745  -35.9560   23.3319 H   0  0  0  0  0  0
  -24.3576  -36.8841   22.2044 H   0  0  0  0  0  0
  -23.7168  -37.6472   23.6629 H   0  0  0  0  0  0
  -26.1234  -31.4887   20.5958 H   0  0  0  0  0  0
  -26.8682  -30.8085   22.0088 H   0  0  0  0  0  0
  -28.1124  -28.8282   21.2673 H   0  0  0  0  0  0
  -25.9123  -25.9083   18.9537 H   0  0  0  0  0  0
  -23.9565  -27.3121   19.0102 H   0  0  0  0  0  0
  -23.8123  -30.5588   19.3820 H   0  0  0  0  0  0
  -22.7888  -29.2276   19.8506 H   0  0  0  0  0  0
  -25.1274  -36.1989   25.0877 H   0  0  0  0  0  0
  -21.0039  -28.3228   24.1346 H   0  0  0  0  0  0
  -20.5632  -26.2290   23.3574 H   0  0  0  0  0  0
  -21.6644  -26.7376   22.1185 H   0  0  0  0  0  0
  -19.6837  -25.6302   21.1230 H   0  0  0  0  0  0
  -19.6662  -27.3186   20.6712 H   0  0  0  0  0  0
  -17.4203  -26.6743   21.4014 H   0  0  0  0  0  0
  -18.0288  -26.0060   22.9000 H   0  0  0  0  0  0
  -19.7954  -30.7316   24.2201 H   0  0  0  0  0  0
  -17.5029  -31.6253   24.5164 H   0  0  0  0  0  0
  -15.5370  -30.2963   23.7670 H   0  0  0  0  0  0
  -15.8713  -28.0781   22.7133 H   0  0  0  0  0  0
  -24.5922  -30.7089   25.7711 H   0  0  0  0  0  0
  -24.8906  -32.2875   26.4825 H   0  0  0  0  0  0
  -25.8038  -30.8900   27.0185 H   0  0  0  0  0  0
  -26.2970  -29.6728   24.1224 H   0  0  0  0  0  0
  -27.4222  -29.7361   25.4630 H   0  0  0  0  0  0
  -27.8793  -30.4401   23.9313 H   0  0  0  0  0  0
  -27.2777  -33.3690   26.1954 H   0  0  0  0  0  0
  -28.3913  -32.6792   25.0221 H   0  0  0  0  0  0
  -28.0749  -31.8455   26.5370 H   0  0  0  0  0  0
  -28.2649  -38.0040   24.7552 H   0  0  0  0  0  0
  -28.1050  -36.2584   24.6326 H   0  0  0  0  0  0
  -27.2297  -37.1447   25.8885 H   0  0  0  0  0  0
  -20.9434  -29.8793   21.6838 H   0  0  0  0  0  0
  -26.0192  -38.2881   24.1416 H   0  0  0  0  0  0
  -28.5736  -18.1517   21.6288 H   0  0  0  0  0  0
  -31.7294  -16.8658   18.9645 H   0  0  0  0  0  0
  -27.4552  -24.6553   19.2136 H   0  0  0  0  0  0
  -26.1953  -21.9394   24.4832 H   0  0  0  0  0  0
  -27.8349  -21.5487   24.9842 H   0  0  0  0  0  0
  -26.7901  -20.3076   24.2728 H   0  0  0  0  0  0
  -28.9523  -15.6096   21.0427 H   0  0  0  0  0  0
  -29.6796  -25.0175   21.7184 H   0  0  0  0  0  0
  1 25  1  0  0  0
  1 30  2  0  0  0
  1 83  1  0  0  0
  2  3  1  0  0  0
  2 25  1  0  0  0
  2 89  1  0  0  0
  2 90  1  0  0  0
  3  4  1  0  0  0
  3 91  1  0  0  0
  3 92  1  0  0  0
  4  5  1  0  0  0
  4 93  1  0  0  0
  4 94  1  0  0  0
  5  6  1  0  0  0
  5 26  1  0  0  0
  5 95  1  0  0  0
  6 25  1  0  0  0
  6 96  1  0  0  0
  6 97  1  0  0  0
  7  8  2  0  0  0
  7 26  1  0  0  0
  7 29  1  0  0  0
  8  9  1  0  0  0
  8 22  1  0  0  0
  9 10  1  0  0  0
  9 27  2  0  0  0
 10 11  2  0  0  0
 10 15  1  0  0  0
 11 12  1  0  0  0
 11 98  1  0  0  0
 12 13  2  0  0  0
 12 99  1  0  0  0
 13 14  1  0  0  0
 13 31  1  0  0  0
 14 15  2  0  0  0
 14100  1  0  0  0
 15101  1  0  0  0
 16 17  2  0  0  0
 16 21  1  0  0  0
 16 31  1  0  0  0
 17 18  1  0  0  0
 17102  1  0  0  0
 18 19  2  0  0  0
 18103  1  0  0  0
 19 20  1  0  0  0
 19 24  1  0  0  0
 20 21  2  0  0  0
 20104  1  0  0  0
 21 23  1  0  0  0
 22 28  1  0  0  0
 22 32  2  0  0  0
 26 27  1  0  0  0
 28105  1  0  0  0
 28106  1  0  0  0
 29107  1  0  0  0
 29108  1  0  0  0
 33 34  1  0  0  0
 33 66  1  0  0  0
 33 70  2  0  0  0
 34 36  1  0  0  0
 34 59  1  0  0  0
 34109  1  0  0  0
 35 44  2  0  0  0
 35 45  1  0  0  0
 35 68  1  0  0  0
 36 56  1  0  0  0
 36110  1  0  0  0
 37 39  1  0  0  0
 37 47  1  0  0  0
 37 66  1  0  0  0
 37111  1  0  0  0
 38 43  2  0  0  0
 38 46  1  0  0  0
 38 47  1  0  0  0
 39 64  1  0  0  0
 39 67  2  0  0  0
 40 52  1  0  0  0
 40 53  2  0  0  0
 40 58  1  0  0  0
 41112  1  0  0  0
 41113  1  0  0  0
 41114  1  0  0  0
 41 48  1  0  0  0
 42 43  1  0  0  0
 42 66  1  0  0  0
 42115  1  0  0  0
 42116  1  0  0  0
 43 44  1  0  0  0
 44117  1  0  0  0
 45 46  2  0  0  0
 45118  1  0  0  0
 46119  1  0  0  0
 47120  1  0  0  0
 47121  1  0  0  0
 48 56  1  0  0  0
 48 65  1  0  0  0
 48122  1  0  0  0
 49 50  1  0  0  0
 49 53  1  0  0  0
 49 64  1  0  0  0
 49123  1  0  0  0
 50 51  1  0  0  0
 50124  1  0  0  0
 50125  1  0  0  0
 51 52  1  0  0  0
 51126  1  0  0  0
 51127  1  0  0  0
 52128  1  0  0  0
 52129  1  0  0  0
 53 54  1  0  0  0
 54 55  2  0  0  0
 54130  1  0  0  0
 55 57  1  0  0  0
 55131  1  0  0  0
 56 69  2  0  0  0
 57 58  2  0  0  0
 57132  1  0  0  0
 58133  1  0  0  0
 59 60  1  0  0  0
 59 61  1  0  0  0
 59 62  1  0  0  0
 60134  1  0  0  0
 60135  1  0  0  0
 60136  1  0  0  0
 61137  1  0  0  0
 61138  1  0  0  0
 61139  1  0  0  0
 62140  1  0  0  0
 62141  1  0  0  0
 62142  1  0  0  0
 63 65  1  0  0  0
 63143  1  0  0  0
 63144  1  0  0  0
 63145  1  0  0  0
 64146  1  0  0  0
 65147  1  0  0  0
 68 77  1  0  0  0
 71 73  2  0  0  0
 71 74  1  0  0  0
 71148  1  0  0  0
 72 74  2  0  0  0
 72 75  1  0  0  0
 72149  1  0  0  0
 73 76  1  0  0  0
 73 78  1  0  0  0
 74 83  1  0  0  0
 75 76  2  0  0  0
 75 87  1  0  0  0
 76 88  1  0  0  0
 77 79  2  0  0  0
 77150  1  0  0  0
 78 80  1  0  0  0
 78 82  2  0  0  0
 79 80  1  0  0  0
 79 85  1  0  0  0
 80 84  2  0  0  0
 81 86  1  0  0  0
 81151  1  0  0  0
 81152  1  0  0  0
 81153  1  0  0  0
 82 86  1  0  0  0
 83154  1  0  0  0
 85155  1  0  0  0
M  ISO  4   1 100  68 101  77 101  83 100
M  END
> <chiral flag>
0

> <version>
0

> <s_m_source_file>
/data/baiqing/PycharmProjects/Reinvent-master-3.2/result/LINK_invent/BTK/process_docking_weight1_custom_product_contain_oxygen_bond_distance_aromatic_linkinvent_7_9_3/rearranged_h_0167.sdf

> <i_m_source_file_index>
48

> <r_mmod_Potential_Energy-OPLS-2005>
320.364715576172

> <r_mmod_Stretch_Energy-OPLS-2005>
144.878555297852

> <r_mmod_Bend_Energy-OPLS-2005>
161.792358398438

> <r_mmod_Torsional_Energy-OPLS-2005>
247.268356323242

> <r_mmod_Improper_Torsional_Energy-OPLS-2005>
5.62050247192383

> <r_mmod_Van_der_Waal_Energy-OPLS-2005>
148.549057006836

> <r_mmod_Electrostatic_Energy-OPLS-2005>
-258.978485107422

> <r_mmod_Solvation_Energy-OPLS-2005>
-222.840530395508

> <b_mmod_Minimization_Converged-OPLS-2005>
0

> <r_mmod_RMS_Derivative-OPLS-2005>
6.64835071563721

$$$$
48
                    3D
 Structure written by MMmdl.
167175  0  0  1  0            999 V2000
  -30.6686  -14.4715   20.5941 C   0  0  0  0  0  0
  -30.4360  -12.3129   19.4133 C   0  0  0  0  0  0
  -29.4981  -12.5239   18.2046 C   0  0  0  0  0  0
  -28.0183  -12.3786   18.6136 C   0  0  0  0  0  0
  -27.6672  -13.2003   19.8824 C   0  0  2  0  0  0
  -28.7074  -12.9389   20.9952 C   0  0  0  0  0  0
  -25.2623  -13.8152   20.5679 C   0  0  0  0  0  0
  -24.1859  -13.0445   20.9174 C   0  0  0  0  0  0
  -24.6395  -11.6906   20.8729 C   0  0  0  0  0  0
  -23.9053  -10.4298   21.0405 C   0  0  0  0  0  0
  -24.3606   -9.4210   21.9183 C   0  0  0  0  0  0
  -23.6281   -8.2250   22.0754 C   0  0  0  0  0  0
  -22.4261   -8.0289   21.3549 C   0  0  0  0  0  0
  -21.9892   -9.0263   20.4651 C   0  0  0  0  0  0
  -22.7227  -10.2140   20.3057 C   0  0  0  0  0  0
  -21.6854   -6.0733   22.5277 C   0  0  0  0  0  0
  -21.4020   -6.5639   23.8214 C   0  0  0  0  0  0
  -21.3657   -5.6791   24.9176 C   0  0  0  0  0  0
  -21.6044   -4.3054   24.7227 C   0  0  0  0  0  0
  -21.8819   -3.8144   23.4349 C   0  0  0  0  0  0
  -21.9193   -4.6959   22.3401 C   0  0  0  0  0  0
  -22.7884  -13.5258   21.1840 C   0  0  0  0  0  0
  -22.1660   -4.2142   21.0977 F   0  0  0  0  0  0
  -21.5622   -3.4542   25.7743 F   0  0  0  0  0  0
  -30.0436  -13.2698   20.4594 N   0  0  0  0  0  0
  -26.3052  -12.9299   20.3376 N   0  0  0  0  0  0
  -25.9320  -11.6466   20.5754 N   0  0  0  0  0  0
  -22.0509  -12.8259   22.0390 N   0  0  0  0  0  0
  -25.4368  -15.1868   20.4082 N   0  0  0  0  0  0
  -31.7578  -14.7331   20.0753 O   0  0  0  0  0  0
  -21.6638   -6.8879   21.4241 O   0  0  0  0  0  0
  -22.3576  -14.5563   20.6683 O   0  0  0  0  0  0
  -24.6167  -31.8675   23.2098 C   0  0  0  0  0  0
  -25.9053  -32.4822   23.8396 C   0  0  1  0  0  0
  -27.2344  -27.4198   20.0715 C   0  0  0  0  0  0
  -25.5905  -33.8619   24.2332 N   0  0  0  0  0  0
  -23.4047  -30.4928   21.5516 C   0  0  2  0  0  0
  -24.8477  -28.9597   20.1137 C   0  0  0  0  0  0
  -22.7420  -29.4659   22.4983 C   0  0  0  0  0  0
  -18.0280  -28.1371   22.8492 C   0  0  0  0  0  0
  -24.1485  -36.7315   23.2638 C   0  0  0  0  0  0
  -25.9368  -30.8251   21.3671 C   0  0  0  0  0  0
  -26.0111  -29.4600   20.7093 C   0  0  0  0  0  0
  -27.2023  -28.6946   20.6916 C   0  0  0  0  0  0
  -26.0377  -26.9320   19.4931 C   0  0  0  0  0  0
  -24.8558  -27.6940   19.5084 C   0  0  0  0  0  0
  -23.6124  -29.8292   20.1649 C   0  0  0  0  0  0
  -25.4104  -36.3115   24.0340 C   0  0  1  0  0  0
  -20.5869  -28.3661   23.1310 C   0  0  2  0  0  0
  -20.6768  -26.9397   22.5409 C   0  0  0  0  0  0
  -19.5749  -26.6381   21.5204 C   0  0  0  0  0  0
  -18.1929  -26.7920   22.1619 C   0  0  0  0  0  0
  -19.1528  -28.8831   23.2903 C   0  0  0  0  0  0
  -18.9455  -30.1434   23.8919 C   0  0  0  0  0  0
  -17.6457  -30.6576   24.0561 C   0  0  0  0  0  0
  -25.9031  -34.9476   23.5137 C   0  0  0  0  0  0
  -16.5350  -29.9078   23.6318 C   0  0  0  0  0  0
  -16.7269  -28.6491   23.0349 C   0  0  0  0  0  0
  -26.4466  -31.6606   25.0734 C   0  0  0  0  0  0
  -25.3728  -31.3718   26.1484 C   0  0  0  0  0  0
  -27.0296  -30.3050   24.6118 C   0  0  0  0  0  0
  -27.6052  -32.4316   25.7486 C   0  0  0  0  0  0
  -27.5581  -37.1818   24.8462 C   0  0  0  0  0  0
  -21.4146  -29.3035   22.3721 N   0  0  0  0  0  0
  -26.4296  -37.3795   23.9403 N   0  0  0  0  0  0
  -24.6713  -31.0757   22.1011 N   0  0  0  0  0  0
  -23.4183  -28.8198   23.3028 O   0  0  0  0  0  0
  -28.4096  -26.6842   20.1031 O   0  0  0  0  0  0
  -26.5591  -34.8926   22.4697 O   0  0  0  0  0  0
  -23.5354  -32.1437   23.7480 O   0  0  0  0  0  0
  -28.5960  -17.3620   21.4980 C   0  0  0  0  0  0
  -30.7244  -17.6211   20.4200 C   0  0  0  0  0  0
  -28.3570  -18.7339   21.2844 C   0  0  0  0  0  0
  -29.7941  -16.7744   21.0611 C   0  0  0  0  0  0
  -29.3452  -19.5213   20.6382 C   0  0  0  0  0  0
  -28.9443  -23.2747   20.0784 C   0  0  0  0  0  0
  -29.7789  -21.9515   20.0480 C   0  0  0  0  0  0
  -26.4532  -18.6889   24.1515 C   0  0  0  0  0  0
  -28.3931  -20.2147   23.7751 C   0  0  0  0  0  0
  -26.0635  -21.0244   23.3396 C   0  0  0  0  0  0
  -27.0223  -19.3034   21.7672 C   0  0  0  0  0  0
  -29.6258  -24.5583   19.5568 C   0  0  0  0  0  0
  -28.6793  -25.6972   19.0867 C   0  0  0  0  0  0
  -27.0008  -19.8058   23.2431 C   0  0  0  0  0  0
  -30.5025  -18.9457   20.2207 N   0  0  0  0  0  0
  -29.9623  -15.3739   21.2991 N   0  0  0  0  0  0
  -29.0399  -20.9044   20.4640 N   0  0  0  0  0  0
  -27.7807  -23.2919   20.5025 O   0  0  0  0  0  0
  -30.9598  -21.9152   19.6804 O   0  0  0  0  0  0
  -31.4782  -12.4332   19.1115 H   0  0  0  0  0  0
  -30.3520  -11.2934   19.7906 H   0  0  0  0  0  0
  -29.7363  -11.8133   17.4126 H   0  0  0  0  0  0
  -29.6641  -13.5158   17.7818 H   0  0  0  0  0  0
  -27.8239  -11.3201   18.7916 H   0  0  0  0  0  0
  -27.3699  -12.6702   17.7860 H   0  0  0  0  0  0
  -27.7224  -14.2541   19.6081 H   0  0  0  0  0  0
  -28.6874  -11.8881   21.2871 H   0  0  0  0  0  0
  -28.4540  -13.4862   21.9040 H   0  0  0  0  0  0
  -25.2752   -9.5682   22.4759 H   0  0  0  0  0  0
  -23.9992   -7.4638   22.7471 H   0  0  0  0  0  0
  -21.0820   -8.8782   19.8960 H   0  0  0  0  0  0
  -22.3683  -10.9680   19.6166 H   0  0  0  0  0  0
  -21.2021   -7.6148   23.9716 H   0  0  0  0  0  0
  -21.1476   -6.0523   25.9079 H   0  0  0  0  0  0
  -22.0597   -2.7603   23.2857 H   0  0  0  0  0  0
  -22.4107  -11.9910   22.4778 H   0  0  0  0  0  0
  -21.1135  -13.1311   22.2602 H   0  0  0  0  0  0
  -24.6650  -15.8388   20.4985 H   0  0  0  0  0  0
  -26.2792  -15.6159   20.0487 H   0  0  0  0  0  0
  -26.7121  -32.5521   23.1155 H   0  0  0  0  0  0
  -25.0060  -33.9773   25.0481 H   0  0  0  0  0  0
  -22.6959  -31.3114   21.4134 H   0  0  0  0  0  0
  -23.3740  -35.9658   23.3324 H   0  0  0  0  0  0
  -24.3577  -36.8899   22.2047 H   0  0  0  0  0  0
  -23.7243  -37.6533   23.6629 H   0  0  0  0  0  0
  -26.0547  -31.5933   20.6014 H   0  0  0  0  0  0
  -26.8228  -30.8737   21.9880 H   0  0  0  0  0  0
  -28.1002  -29.0799   21.1547 H   0  0  0  0  0  0
  -25.9641  -25.9536   19.0473 H   0  0  0  0  0  0
  -23.9549  -27.2953   19.0624 H   0  0  0  0  0  0
  -23.7246  -30.6061   19.4078 H   0  0  0  0  0  0
  -22.7347  -29.2531   19.8665 H   0  0  0  0  0  0
  -25.1277  -36.1995   25.0834 H   0  0  0  0  0  0
  -20.9959  -28.3221   24.1432 H   0  0  0  0  0  0
  -20.5656  -26.2267   23.3595 H   0  0  0  0  0  0
  -21.6642  -26.7433   22.1213 H   0  0  0  0  0  0
  -19.6911  -25.6297   21.1222 H   0  0  0  0  0  0
  -19.6685  -27.3194   20.6739 H   0  0  0  0  0  0
  -17.4197  -26.6669   21.4027 H   0  0  0  0  0  0
  -18.0336  -26.0053   22.9004 H   0  0  0  0  0  0
  -19.7930  -30.7240   24.2305 H   0  0  0  0  0  0
  -17.5013  -31.6261   24.5158 H   0  0  0  0  0  0
  -15.5351  -30.2989   23.7623 H   0  0  0  0  0  0
  -15.8671  -28.0808   22.7062 H   0  0  0  0  0  0
  -24.5894  -30.7072   25.7821 H   0  0  0  0  0  0
  -24.8926  -32.2876   26.4944 H   0  0  0  0  0  0
  -25.8079  -30.8878   27.0238 H   0  0  0  0  0  0
  -26.2846  -29.6822   24.1153 H   0  0  0  0  0  0
  -27.4044  -29.7277   25.4580 H   0  0  0  0  0  0
  -27.8689  -30.4372   23.9287 H   0  0  0  0  0  0
  -27.2691  -33.3612   26.2091 H   0  0  0  0  0  0
  -28.3844  -32.6881   25.0297 H   0  0  0  0  0  0
  -28.0739  -31.8422   26.5377 H   0  0  0  0  0  0
  -28.2615  -38.0099   24.7498 H   0  0  0  0  0  0
  -28.1063  -36.2636   24.6303 H   0  0  0  0  0  0
  -27.2302  -37.1485   25.8866 H   0  0  0  0  0  0
  -20.9303  -29.8773   21.6958 H   0  0  0  0  0  0
  -26.0195  -38.2882   24.1385 H   0  0  0  0  0  0
  -27.8464  -16.7571   21.9884 H   0  0  0  0  0  0
  -31.6724  -17.2514   20.0594 H   0  0  0  0  0  0
  -26.4087  -19.0063   25.1945 H   0  0  0  0  0  0
  -27.0823  -17.7993   24.1106 H   0  0  0  0  0  0
  -25.4442  -18.3903   23.8629 H   0  0  0  0  0  0
  -28.3308  -20.5668   24.8056 H   0  0  0  0  0  0
  -28.8320  -21.0244   23.1934 H   0  0  0  0  0  0
  -29.0955  -19.3802   23.7720 H   0  0  0  0  0  0
  -25.9756  -21.3859   24.3649 H   0  0  0  0  0  0
  -25.0571  -20.7797   22.9956 H   0  0  0  0  0  0
  -26.4227  -21.8570   22.7332 H   0  0  0  0  0  0
  -26.2485  -18.5481   21.6171 H   0  0  0  0  0  0
  -26.7167  -20.1036   21.0923 H   0  0  0  0  0  0
  -30.2321  -24.2569   18.7027 H   0  0  0  0  0  0
  -30.3238  -24.9242   20.3082 H   0  0  0  0  0  0
  -27.8030  -25.2460   18.6316 H   0  0  0  0  0  0
  -29.1695  -26.2311   18.2721 H   0  0  0  0  0  0
  -29.1986  -14.9424   21.7973 H   0  0  0  0  0  0
  -28.1083  -21.1882   20.7352 H   0  0  0  0  0  0
  1 25  1  0  0  0
  1 30  2  0  0  0
  1 86  1  0  0  0
  2  3  1  0  0  0
  2 25  1  0  0  0
  2 90  1  0  0  0
  2 91  1  0  0  0
  3  4  1  0  0  0
  3 92  1  0  0  0
  3 93  1  0  0  0
  4  5  1  0  0  0
  4 94  1  0  0  0
  4 95  1  0  0  0
  5  6  1  0  0  0
  5 26  1  0  0  0
  5 96  1  0  0  0
  6 25  1  0  0  0
  6 97  1  0  0  0
  6 98  1  0  0  0
  7  8  2  0  0  0
  7 26  1  0  0  0
  7 29  1  0  0  0
  8  9  1  0  0  0
  8 22  1  0  0  0
  9 10  1  0  0  0
  9 27  2  0  0  0
 10 11  2  0  0  0
 10 15  1  0  0  0
 11 12  1  0  0  0
 11 99  1  0  0  0
 12 13  2  0  0  0
 12100  1  0  0  0
 13 14  1  0  0  0
 13 31  1  0  0  0
 14 15  2  0  0  0
 14101  1  0  0  0
 15102  1  0  0  0
 16 17  2  0  0  0
 16 21  1  0  0  0
 16 31  1  0  0  0
 17 18  1  0  0  0
 17103  1  0  0  0
 18 19  2  0  0  0
 18104  1  0  0  0
 19 20  1  0  0  0
 19 24  1  0  0  0
 20 21  2  0  0  0
 20105  1  0  0  0
 21 23  1  0  0  0
 22 28  1  0  0  0
 22 32  2  0  0  0
 26 27  1  0  0  0
 28106  1  0  0  0
 28107  1  0  0  0
 29108  1  0  0  0
 29109  1  0  0  0
 33 34  1  0  0  0
 33 66  1  0  0  0
 33 70  2  0  0  0
 34 36  1  0  0  0
 34 59  1  0  0  0
 34110  1  0  0  0
 35 44  2  0  0  0
 35 45  1  0  0  0
 35 68  1  0  0  0
 36 56  1  0  0  0
 36111  1  0  0  0
 37 39  1  0  0  0
 37 47  1  0  0  0
 37 66  1  0  0  0
 37112  1  0  0  0
 38 43  2  0  0  0
 38 46  1  0  0  0
 38 47  1  0  0  0
 39 64  1  0  0  0
 39 67  2  0  0  0
 40 52  1  0  0  0
 40 53  2  0  0  0
 40 58  1  0  0  0
 41113  1  0  0  0
 41114  1  0  0  0
 41115  1  0  0  0
 41 48  1  0  0  0
 42 43  1  0  0  0
 42 66  1  0  0  0
 42116  1  0  0  0
 42117  1  0  0  0
 43 44  1  0  0  0
 44118  1  0  0  0
 45 46  2  0  0  0
 45119  1  0  0  0
 46120  1  0  0  0
 47121  1  0  0  0
 47122  1  0  0  0
 48 56  1  0  0  0
 48 65  1  0  0  0
 48123  1  0  0  0
 49 50  1  0  0  0
 49 53  1  0  0  0
 49 64  1  0  0  0
 49124  1  0  0  0
 50 51  1  0  0  0
 50125  1  0  0  0
 50126  1  0  0  0
 51 52  1  0  0  0
 51127  1  0  0  0
 51128  1  0  0  0
 52129  1  0  0  0
 52130  1  0  0  0
 53 54  1  0  0  0
 54 55  2  0  0  0
 54131  1  0  0  0
 55 57  1  0  0  0
 55132  1  0  0  0
 56 69  2  0  0  0
 57 58  2  0  0  0
 57133  1  0  0  0
 58134  1  0  0  0
 59 60  1  0  0  0
 59 61  1  0  0  0
 59 62  1  0  0  0
 60135  1  0  0  0
 60136  1  0  0  0
 60137  1  0  0  0
 61138  1  0  0  0
 61139  1  0  0  0
 61140  1  0  0  0
 62141  1  0  0  0
 62142  1  0  0  0
 62143  1  0  0  0
 63 65  1  0  0  0
 63144  1  0  0  0
 63145  1  0  0  0
 63146  1  0  0  0
 64147  1  0  0  0
 65148  1  0  0  0
 68 83  1  0  0  0
 71 73  2  0  0  0
 71 74  1  0  0  0
 71149  1  0  0  0
 72 74  2  0  0  0
 72 85  1  0  0  0
 72150  1  0  0  0
 73 75  1  0  0  0
 73 81  1  0  0  0
 74 86  1  0  0  0
 75 85  2  0  0  0
 75 87  1  0  0  0
 76 77  1  0  0  0
 76 82  1  0  0  0
 76 88  2  0  0  0
 77 87  1  0  0  0
 77 89  2  0  0  0
 78151  1  0  0  0
 78152  1  0  0  0
 78153  1  0  0  0
 78 84  1  0  0  0
 79 84  1  0  0  0
 79154  1  0  0  0
 79155  1  0  0  0
 79156  1  0  0  0
 80 84  1  0  0  0
 80157  1  0  0  0
 80158  1  0  0  0
 80159  1  0  0  0
 81 84  1  0  0  0
 81160  1  0  0  0
 81161  1  0  0  0
 82 83  1  0  0  0
 82162  1  0  0  0
 82163  1  0  0  0
 83164  1  0  0  0
 83165  1  0  0  0
 86166  1  0  0  0
 87167  1  0  0  0
M  ISO  4   1 100  68 101  83 101  86 100
M  END
> <chiral flag>
0

> <version>
0

> <s_m_source_file>
/data/baiqing/PycharmProjects/Reinvent-master-3.2/result/LINK_invent/BTK/process_docking_weight1_custom_product_contain_oxygen_bond_distance_aromatic_linkinvent_7_9_3/rearranged_h_0167.sdf

> <i_m_source_file_index>
49

> <r_mmod_Potential_Energy-OPLS-2005>
-327.026519775391

> <r_mmod_Stretch_Energy-OPLS-2005>
43.1377258300781

> <r_mmod_Bend_Energy-OPLS-2005>
134.192306518555

> <r_mmod_Torsional_Energy-OPLS-2005>
214.004608154297

> <r_mmod_Improper_Torsional_Energy-OPLS-2005>
4.27684020996094

> <r_mmod_Van_der_Waal_Energy-OPLS-2005>
158.849670410156

> <r_mmod_Electrostatic_Energy-OPLS-2005>
-650.739379882812

> <r_mmod_Solvation_Energy-OPLS-2005>
-244.38639831543

> <b_mmod_Minimization_Converged-OPLS-2005>
0

> <r_mmod_RMS_Derivative-OPLS-2005>
1.29328083992004

$$$$
49
                    3D
 Structure written by MMmdl.
159167  0  0  1  0            999 V2000
  -30.7361  -14.4390   20.6207 C   0  0  0  0  0  0
  -30.4160  -12.3083   19.4122 C   0  0  0  0  0  0
  -29.4856  -12.5105   18.1998 C   0  0  0  0  0  0
  -28.0087  -12.3697   18.6186 C   0  0  0  0  0  0
  -27.6596  -13.2098   19.8755 C   0  0  2  0  0  0
  -28.7006  -12.9885   20.9941 C   0  0  0  0  0  0
  -25.2568  -13.8174   20.5677 C   0  0  0  0  0  0
  -24.1824  -13.0440   20.9178 C   0  0  0  0  0  0
  -24.6381  -11.6910   20.8724 C   0  0  0  0  0  0
  -23.9062  -10.4289   21.0391 C   0  0  0  0  0  0
  -24.3608   -9.4212   21.9174 C   0  0  0  0  0  0
  -23.6290   -8.2247   22.0744 C   0  0  0  0  0  0
  -22.4269   -8.0285   21.3539 C   0  0  0  0  0  0
  -21.9907   -9.0262   20.4638 C   0  0  0  0  0  0
  -22.7238  -10.2136   20.3045 C   0  0  0  0  0  0
  -21.6852   -6.0738   22.5284 C   0  0  0  0  0  0
  -21.4012   -6.5641   23.8221 C   0  0  0  0  0  0
  -21.3661   -5.6792   24.9181 C   0  0  0  0  0  0
  -21.6047   -4.3053   24.7228 C   0  0  0  0  0  0
  -21.8820   -3.8149   23.4349 C   0  0  0  0  0  0
  -21.9191   -4.6968   22.3405 C   0  0  0  0  0  0
  -22.7850  -13.5234   21.1859 C   0  0  0  0  0  0
  -22.1653   -4.2155   21.0983 F   0  0  0  0  0  0
  -21.5635   -3.4537   25.7741 F   0  0  0  0  0  0
  -30.0320  -13.2889   20.4395 N   0  0  0  0  0  0
  -26.3006  -12.9350   20.3374 N   0  0  0  0  0  0
  -25.9303  -11.6504   20.5755 N   0  0  0  0  0  0
  -22.0498  -12.8211   22.0415 N   0  0  0  0  0  0
  -25.4302  -15.1895   20.4092 N   0  0  0  0  0  0
  -31.8417  -14.6345   20.1072 O   0  0  0  0  0  0
  -21.6633   -6.8881   21.4244 O   0  0  0  0  0  0
  -22.3530  -14.5545   20.6731 O   0  0  0  0  0  0
  -24.6132  -31.8683   23.2083 C   0  0  0  0  0  0
  -25.9024  -32.4826   23.8389 C   0  0  1  0  0  0
  -27.2411  -27.4456   20.0989 C   0  0  0  0  0  0
  -25.5887  -33.8624   24.2328 N   0  0  0  0  0  0
  -23.4012  -30.4892   21.5491 C   0  0  2  0  0  0
  -24.8493  -28.9514   20.1183 C   0  0  0  0  0  0
  -22.7398  -29.4654   22.4995 C   0  0  0  0  0  0
  -18.0268  -28.1366   22.8500 C   0  0  0  0  0  0
  -24.1487  -36.7322   23.2630 C   0  0  0  0  0  0
  -25.9270  -30.8396   21.3555 C   0  0  0  0  0  0
  -26.0080  -29.4719   20.7085 C   0  0  0  0  0  0
  -27.2088  -28.7279   20.6909 C   0  0  0  0  0  0
  -26.0663  -26.9345   19.5065 C   0  0  0  0  0  0
  -24.8727  -27.6812   19.5149 C   0  0  0  0  0  0
  -23.6097  -29.8151   20.1656 C   0  0  0  0  0  0
  -25.4098  -36.3116   24.0342 C   0  0  1  0  0  0
  -20.5856  -28.3651   23.1326 C   0  0  2  0  0  0
  -20.6752  -26.9389   22.5414 C   0  0  0  0  0  0
  -19.5730  -26.6380   21.5207 C   0  0  0  0  0  0
  -18.1912  -26.7912   22.1626 C   0  0  0  0  0  0
  -19.1517  -28.8822   23.2910 C   0  0  0  0  0  0
  -18.9444  -30.1429   23.8921 C   0  0  0  0  0  0
  -17.6448  -30.6574   24.0562 C   0  0  0  0  0  0
  -25.9029  -34.9482   23.5137 C   0  0  0  0  0  0
  -16.5340  -29.9081   23.6317 C   0  0  0  0  0  0
  -16.7255  -28.6492   23.0346 C   0  0  0  0  0  0
  -26.4455  -31.6586   25.0704 C   0  0  0  0  0  0
  -25.3732  -31.3677   26.1458 C   0  0  0  0  0  0
  -27.0261  -30.3034   24.6032 C   0  0  0  0  0  0
  -27.6045  -32.4281   25.7463 C   0  0  0  0  0  0
  -27.5592  -37.1798   24.8450 C   0  0  0  0  0  0
  -21.4123  -29.3036   22.3748 N   0  0  0  0  0  0
  -26.4279  -37.3807   23.9430 N   0  0  0  0  0  0
  -24.6657  -31.0793   22.0974 N   0  0  0  0  0  0
  -23.4179  -28.8199   23.3033 O   0  0  0  0  0  0
  -28.4158  -26.7273   20.0894 O   0  0  0  0  0  0
  -26.5591  -34.8938   22.4702 O   0  0  0  0  0  0
  -23.5327  -32.1421   23.7487 O   0  0  0  0  0  0
  -32.2218  -17.6110   23.4328 C   0  0  0  0  0  0
  -31.6093  -16.4664   22.8979 C   0  0  0  0  0  0
  -30.4361  -17.8718   21.2846 C   0  0  0  0  0  0
  -31.9767  -18.8946   22.9001 C   0  0  0  0  0  0
  -30.7195  -16.5865   21.8142 C   0  0  0  0  0  0
  -31.0764  -19.0338   21.7986 C   0  0  0  0  0  0
  -29.5494  -22.2618   20.4843 C   0  0  0  0  0  0
  -28.5116  -24.3518   19.4063 C   0  0  0  0  0  0
  -28.3440  -22.8583   19.7391 C   0  0  0  0  0  0
  -29.5595  -20.7365   20.7220 C   0  0  0  0  0  0
  -28.3275  -25.3676   20.5490 C   0  0  0  0  0  0
  -32.7265  -20.0537   23.5728 C   0  0  0  0  0  0
  -30.1019  -15.4144   21.2977 N   0  0  0  0  0  0
  -30.8722  -20.2907   21.1929 N   0  0  0  0  0  0
  -30.4845  -22.9559   20.9058 O   0  0  0  0  0  0
  -28.7331  -24.7196   18.2460 O   0  0  0  0  0  0
  -34.0384  -19.8869   23.3980 F   0  0  0  0  0  0
  -32.4050  -21.2704   23.1313 F   0  0  0  0  0  0
  -32.4824  -20.0297   24.8842 F   0  0  0  0  0  0
  -31.4600  -12.4008   19.1065 H   0  0  0  0  0  0
  -30.3144  -11.2981   19.8115 H   0  0  0  0  0  0
  -29.7215  -11.7860   17.4192 H   0  0  0  0  0  0
  -29.6532  -13.4979   17.7649 H   0  0  0  0  0  0
  -27.8182  -11.3150   18.8191 H   0  0  0  0  0  0
  -27.3527  -12.6434   17.7913 H   0  0  0  0  0  0
  -27.7044  -14.2583   19.5793 H   0  0  0  0  0  0
  -28.6731  -11.9525   21.3361 H   0  0  0  0  0  0
  -28.4581  -13.5874   21.8726 H   0  0  0  0  0  0
  -25.2753   -9.5697   22.4747 H   0  0  0  0  0  0
  -24.0012   -7.4636   22.7449 H   0  0  0  0  0  0
  -21.0844   -8.8787   19.8936 H   0  0  0  0  0  0
  -22.3707  -10.9677   19.6145 H   0  0  0  0  0  0
  -21.1997   -7.6147   23.9732 H   0  0  0  0  0  0
  -21.1471   -6.0512   25.9088 H   0  0  0  0  0  0
  -22.0590   -2.7608   23.2847 H   0  0  0  0  0  0
  -22.4100  -11.9856   22.4790 H   0  0  0  0  0  0
  -21.1118  -13.1229   22.2634 H   0  0  0  0  0  0
  -24.6678  -15.8484   20.5243 H   0  0  0  0  0  0
  -26.2889  -15.6298   20.1019 H   0  0  0  0  0  0
  -26.7105  -32.5551   23.1167 H   0  0  0  0  0  0
  -25.0057  -33.9784   25.0487 H   0  0  0  0  0  0
  -22.6901  -31.3050   21.4058 H   0  0  0  0  0  0
  -23.3758  -35.9645   23.3260 H   0  0  0  0  0  0
  -24.3605  -36.8961   22.2053 H   0  0  0  0  0  0
  -23.7218  -37.6516   23.6653 H   0  0  0  0  0  0
  -26.0275  -31.6013   20.5809 H   0  0  0  0  0  0
  -26.8203  -30.9041   21.9653 H   0  0  0  0  0  0
  -28.1065  -29.1280   21.1419 H   0  0  0  0  0  0
  -26.0715  -25.9662   19.0279 H   0  0  0  0  0  0
  -23.9829  -27.2728   19.0564 H   0  0  0  0  0  0
  -23.7169  -30.5858   19.4015 H   0  0  0  0  0  0
  -22.7359  -29.2296   19.8731 H   0  0  0  0  0  0
  -25.1264  -36.1982   25.0831 H   0  0  0  0  0  0
  -20.9948  -28.3206   24.1445 H   0  0  0  0  0  0
  -20.5640  -26.2259   23.3600 H   0  0  0  0  0  0
  -21.6627  -26.7425   22.1215 H   0  0  0  0  0  0
  -19.6892  -25.6296   21.1222 H   0  0  0  0  0  0
  -19.6667  -27.3207   20.6753 H   0  0  0  0  0  0
  -17.4181  -26.6664   21.4029 H   0  0  0  0  0  0
  -18.0316  -26.0039   22.9011 H   0  0  0  0  0  0
  -19.7919  -30.7232   24.2305 H   0  0  0  0  0  0
  -17.5002  -31.6259   24.5159 H   0  0  0  0  0  0
  -15.5341  -30.2991   23.7614 H   0  0  0  0  0  0
  -15.8655  -28.0814   22.7054 H   0  0  0  0  0  0
  -24.5928  -30.6987   25.7808 H   0  0  0  0  0  0
  -24.8891  -32.2820   26.4901 H   0  0  0  0  0  0
  -25.8104  -30.8869   27.0216 H   0  0  0  0  0  0
  -26.2782  -29.6824   24.1083 H   0  0  0  0  0  0
  -27.4049  -29.7233   25.4456 H   0  0  0  0  0  0
  -27.8612  -30.4369   23.9148 H   0  0  0  0  0  0
  -27.2687  -33.3579   26.2065 H   0  0  0  0  0  0
  -28.3847  -32.6828   25.0278 H   0  0  0  0  0  0
  -28.0712  -31.8372   26.5353 H   0  0  0  0  0  0
  -28.2554  -38.0150   24.7588 H   0  0  0  0  0  0
  -28.1141  -36.2693   24.6149 H   0  0  0  0  0  0
  -27.2333  -37.1294   25.8853 H   0  0  0  0  0  0
  -20.9268  -29.8794   21.7011 H   0  0  0  0  0  0
  -26.0170  -38.2876   24.1481 H   0  0  0  0  0  0
  -32.9037  -17.5095   24.2640 H   0  0  0  0  0  0
  -31.8314  -15.4985   23.3263 H   0  0  0  0  0  0
  -29.7605  -17.9542   20.4456 H   0  0  0  0  0  0
  -27.4514  -22.7264   20.3495 H   0  0  0  0  0  0
  -28.1897  -22.2995   18.8163 H   0  0  0  0  0  0
  -29.2939  -20.2256   19.7962 H   0  0  0  0  0  0
  -28.7938  -20.4975   21.4617 H   0  0  0  0  0  0
  -29.1136  -25.2081   21.2865 H   0  0  0  0  0  0
  -27.3823  -25.1781   21.0587 H   0  0  0  0  0  0
  -29.1434  -15.2396   21.5600 H   0  0  0  0  0  0
  -31.3879  -21.0662   21.6137 H   0  0  0  0  0  0
  1 25  1  0  0  0
  1 30  2  0  0  0
  1 83  1  0  0  0
  2  3  1  0  0  0
  2 25  1  0  0  0
  2 90  1  0  0  0
  2 91  1  0  0  0
  3  4  1  0  0  0
  3 92  1  0  0  0
  3 93  1  0  0  0
  4  5  1  0  0  0
  4 94  1  0  0  0
  4 95  1  0  0  0
  5  6  1  0  0  0
  5 26  1  0  0  0
  5 96  1  0  0  0
  6 25  1  0  0  0
  6 97  1  0  0  0
  6 98  1  0  0  0
  7  8  2  0  0  0
  7 26  1  0  0  0
  7 29  1  0  0  0
  8  9  1  0  0  0
  8 22  1  0  0  0
  9 10  1  0  0  0
  9 27  2  0  0  0
 10 11  2  0  0  0
 10 15  1  0  0  0
 11 12  1  0  0  0
 11 99  1  0  0  0
 12 13  2  0  0  0
 12100  1  0  0  0
 13 14  1  0  0  0
 13 31  1  0  0  0
 14 15  2  0  0  0
 14101  1  0  0  0
 15102  1  0  0  0
 16 17  2  0  0  0
 16 21  1  0  0  0
 16 31  1  0  0  0
 17 18  1  0  0  0
 17103  1  0  0  0
 18 19  2  0  0  0
 18104  1  0  0  0
 19 20  1  0  0  0
 19 24  1  0  0  0
 20 21  2  0  0  0
 20105  1  0  0  0
 21 23  1  0  0  0
 22 28  1  0  0  0
 22 32  2  0  0  0
 26 27  1  0  0  0
 28106  1  0  0  0
 28107  1  0  0  0
 29108  1  0  0  0
 29109  1  0  0  0
 33 34  1  0  0  0
 33 66  1  0  0  0
 33 70  2  0  0  0
 34 36  1  0  0  0
 34 59  1  0  0  0
 34110  1  0  0  0
 35 44  2  0  0  0
 35 45  1  0  0  0
 35 68  1  0  0  0
 36 56  1  0  0  0
 36111  1  0  0  0
 37 39  1  0  0  0
 37 47  1  0  0  0
 37 66  1  0  0  0
 37112  1  0  0  0
 38 43  2  0  0  0
 38 46  1  0  0  0
 38 47  1  0  0  0
 39 64  1  0  0  0
 39 67  2  0  0  0
 40 52  1  0  0  0
 40 53  2  0  0  0
 40 58  1  0  0  0
 41113  1  0  0  0
 41114  1  0  0  0
 41115  1  0  0  0
 41 48  1  0  0  0
 42 43  1  0  0  0
 42 66  1  0  0  0
 42116  1  0  0  0
 42117  1  0  0  0
 43 44  1  0  0  0
 44118  1  0  0  0
 45 46  2  0  0  0
 45119  1  0  0  0
 46120  1  0  0  0
 47121  1  0  0  0
 47122  1  0  0  0
 48 56  1  0  0  0
 48 65  1  0  0  0
 48123  1  0  0  0
 49 50  1  0  0  0
 49 53  1  0  0  0
 49 64  1  0  0  0
 49124  1  0  0  0
 50 51  1  0  0  0
 50125  1  0  0  0
 50126  1  0  0  0
 51 52  1  0  0  0
 51127  1  0  0  0
 51128  1  0  0  0
 52129  1  0  0  0
 52130  1  0  0  0
 53 54  1  0  0  0
 54 55  2  0  0  0
 54131  1  0  0  0
 55 57  1  0  0  0
 55132  1  0  0  0
 56 69  2  0  0  0
 57 58  2  0  0  0
 57133  1  0  0  0
 58134  1  0  0  0
 59 60  1  0  0  0
 59 61  1  0  0  0
 59 62  1  0  0  0
 60135  1  0  0  0
 60136  1  0  0  0
 60137  1  0  0  0
 61138  1  0  0  0
 61139  1  0  0  0
 61140  1  0  0  0
 62141  1  0  0  0
 62142  1  0  0  0
 62143  1  0  0  0
 63 65  1  0  0  0
 63144  1  0  0  0
 63145  1  0  0  0
 63146  1  0  0  0
 64147  1  0  0  0
 65148  1  0  0  0
 68 81  1  0  0  0
 71 72  2  0  0  0
 71 74  1  0  0  0
 71149  1  0  0  0
 72 75  1  0  0  0
 72150  1  0  0  0
 73 75  2  0  0  0
 73 76  1  0  0  0
 73151  1  0  0  0
 74 76  2  0  0  0
 74 82  1  0  0  0
 75 83  1  0  0  0
 76 84  1  0  0  0
 77 79  1  0  0  0
 77 80  1  0  0  0
 77 85  2  0  0  0
 78 79  1  0  0  0
 78 81  1  0  0  0
 78 86  2  0  0  0
 79152  1  0  0  0
 79153  1  0  0  0
 80 84  1  0  0  0
 80154  1  0  0  0
 80155  1  0  0  0
 81156  1  0  0  0
 81157  1  0  0  0
 82 87  1  0  0  0
 82 88  1  0  0  0
 82 89  1  0  0  0
 83158  1  0  0  0
 84159  1  0  0  0
M  ISO  4   1 100  68 101  81 101  83 100
M  END
> <chiral flag>
0

> <version>
0

> <s_m_source_file>
/data/baiqing/PycharmProjects/Reinvent-master-3.2/result/LINK_invent/BTK/process_docking_weight1_custom_product_contain_oxygen_bond_distance_aromatic_linkinvent_7_9_3/rearranged_h_0167.sdf

> <i_m_source_file_index>
50

> <r_mmod_Potential_Energy-OPLS-2005>
47.887809753418

> <r_mmod_Stretch_Energy-OPLS-2005>
39.1093940734863

> <r_mmod_Bend_Energy-OPLS-2005>
104.587593078613

> <r_mmod_Torsional_Energy-OPLS-2005>
247.501083374023

> <r_mmod_Improper_Torsional_Energy-OPLS-2005>
6.51487016677856

> <r_mmod_Van_der_Waal_Energy-OPLS-2005>
159.443969726562

> <r_mmod_Electrostatic_Energy-OPLS-2005>
-267.981811523438

> <r_mmod_Solvation_Energy-OPLS-2005>
-251.348983764648

> <b_mmod_Minimization_Converged-OPLS-2005>
0

> <r_mmod_RMS_Derivative-OPLS-2005>
1.38261270523071

$$$$
50
                    3D
 Structure written by MMmdl.
157166  0  0  1  0            999 V2000
  -30.6423  -14.6095   20.5071 C   0  0  0  0  0  0
  -30.4353  -12.3747   19.4490 C   0  0  0  0  0  0
  -29.5050  -12.5064   18.2230 C   0  0  0  0  0  0
  -28.0279  -12.3489   18.6359 C   0  0  0  0  0  0
  -27.6557  -13.2160   19.8684 C   0  0  2  0  0  0
  -28.7011  -13.0597   20.9965 C   0  0  0  0  0  0
  -25.2562  -13.8170   20.5691 C   0  0  0  0  0  0
  -24.1824  -13.0433   20.9174 C   0  0  0  0  0  0
  -24.6394  -11.6905   20.8730 C   0  0  0  0  0  0
  -23.9063  -10.4289   21.0398 C   0  0  0  0  0  0
  -24.3611   -9.4208   21.9180 C   0  0  0  0  0  0
  -23.6289   -8.2243   22.0752 C   0  0  0  0  0  0
  -22.4273   -8.0278   21.3542 C   0  0  0  0  0  0
  -21.9908   -9.0249   20.4643 C   0  0  0  0  0  0
  -22.7234  -10.2130   20.3047 C   0  0  0  0  0  0
  -21.6852   -6.0734   22.5279 C   0  0  0  0  0  0
  -21.4008   -6.5636   23.8210 C   0  0  0  0  0  0
  -21.3655   -5.6788   24.9173 C   0  0  0  0  0  0
  -21.6046   -4.3053   24.7223 C   0  0  0  0  0  0
  -21.8822   -3.8144   23.4345 C   0  0  0  0  0  0
  -21.9194   -4.6960   22.3403 C   0  0  0  0  0  0
  -22.7847  -13.5225   21.1845 C   0  0  0  0  0  0
  -22.1666   -4.2147   21.0980 F   0  0  0  0  0  0
  -21.5629   -3.4534   25.7735 F   0  0  0  0  0  0
  -30.0204  -13.3921   20.4344 N   0  0  0  0  0  0
  -26.3002  -12.9356   20.3355 N   0  0  0  0  0  0
  -25.9328  -11.6509   20.5773 N   0  0  0  0  0  0
  -22.0490  -12.8210   22.0399 N   0  0  0  0  0  0
  -25.4257  -15.1892   20.4135 N   0  0  0  0  0  0
  -31.8001  -14.7626   20.1085 O   0  0  0  0  0  0
  -21.6639   -6.8875   21.4240 O   0  0  0  0  0  0
  -22.3528  -14.5534   20.6701 O   0  0  0  0  0  0
  -24.6244  -31.8620   23.2051 C   0  0  0  0  0  0
  -25.9100  -32.4789   23.8369 C   0  0  1  0  0  0
  -27.2230  -27.3394   20.1093 C   0  0  0  0  0  0
  -25.5926  -33.8588   24.2294 N   0  0  0  0  0  0
  -23.4167  -30.4874   21.5472 C   0  0  2  0  0  0
  -24.8620  -28.9486   20.1092 C   0  0  0  0  0  0
  -22.7463  -29.4637   22.4942 C   0  0  0  0  0  0
  -18.0282  -28.1387   22.8492 C   0  0  0  0  0  0
  -24.1472  -36.7278   23.2635 C   0  0  0  0  0  0
  -25.9566  -30.7991   21.3732 C   0  0  0  0  0  0
  -26.0303  -29.4286   20.7145 C   0  0  0  0  0  0
  -27.2130  -28.6346   20.7078 C   0  0  0  0  0  0
  -26.0324  -26.9141   19.4723 C   0  0  0  0  0  0
  -24.8640  -27.6957   19.4801 C   0  0  0  0  0  0
  -23.6298  -29.8263   20.1606 C   0  0  0  0  0  0
  -25.4096  -36.3085   24.0337 C   0  0  1  0  0  0
  -20.5882  -28.3685   23.1288 C   0  0  2  0  0  0
  -20.6764  -26.9410   22.5410 C   0  0  0  0  0  0
  -19.5744  -26.6395   21.5206 C   0  0  0  0  0  0
  -18.1925  -26.7934   22.1618 C   0  0  0  0  0  0
  -19.1536  -28.8850   23.2889 C   0  0  0  0  0  0
  -18.9460  -30.1450   23.8907 C   0  0  0  0  0  0
  -17.6463  -30.6588   24.0569 C   0  0  0  0  0  0
  -25.9048  -34.9459   23.5117 C   0  0  0  0  0  0
  -16.5354  -29.9089   23.6335 C   0  0  0  0  0  0
  -16.7271  -28.6506   23.0359 C   0  0  0  0  0  0
  -26.4491  -31.6593   25.0729 C   0  0  0  0  0  0
  -25.3731  -31.3720   26.1459 C   0  0  0  0  0  0
  -27.0326  -30.3024   24.6156 C   0  0  0  0  0  0
  -27.6051  -32.4321   25.7501 C   0  0  0  0  0  0
  -27.5580  -37.1775   24.8450 C   0  0  0  0  0  0
  -21.4179  -29.3042   22.3683 N   0  0  0  0  0  0
  -26.4260  -37.3797   23.9445 N   0  0  0  0  0  0
  -24.6848  -31.0651   22.0990 N   0  0  0  0  0  0
  -23.4195  -28.8176   23.3013 O   0  0  0  0  0  0
  -28.3433  -26.4986   20.1689 O   0  0  0  0  0  0
  -26.5614  -34.8929   22.4682 O   0  0  0  0  0  0
  -23.5413  -32.1408   23.7391 O   0  0  0  0  0  0
  -31.0950  -19.1978   20.0381 C   0  0  0  0  0  0
  -31.0729  -17.7781   20.1420 C   0  0  0  0  0  0
  -28.9416  -19.3391   21.1037 C   0  0  0  0  0  0
  -30.0394  -20.0192   20.5191 C   0  0  0  0  0  0
  -29.9797  -17.1002   20.7403 C   0  0  0  0  0  0
  -28.9145  -17.9165   21.2063 C   0  0  0  0  0  0
  -29.2086  -24.0507   20.4665 C   0  0  0  0  0  0
  -28.9604  -22.5201   20.1824 C   0  0  0  0  0  0
  -30.8568  -22.1067   21.7503 C   0  0  0  0  0  0
  -31.2874  -23.5778   21.5611 C   0  0  0  0  0  0
  -30.1927  -21.5819   20.4744 C   0  0  1  0  0  0
  -28.1183  -25.0519   19.9630 C   0  0  0  0  0  0
  -30.2223  -24.4796   21.1197 N   0  0  0  0  0  0
  -29.8573  -15.6547   20.8986 N   0  0  0  0  0  0
  -27.8401  -17.3172   21.7744 F   0  0  0  0  0  0
  -31.4774  -12.4915   19.1461 H   0  0  0  0  0  0
  -30.3615  -11.3767   19.8837 H   0  0  0  0  0  0
  -29.7645  -11.7601   17.4709 H   0  0  0  0  0  0
  -29.6518  -13.4793   17.7513 H   0  0  0  0  0  0
  -27.8601  -11.2954   18.8629 H   0  0  0  0  0  0
  -27.3729  -12.5852   17.7966 H   0  0  0  0  0  0
  -27.6778  -14.2535   19.5344 H   0  0  0  0  0  0
  -28.7057  -12.0365   21.3757 H   0  0  0  0  0  0
  -28.4511  -13.6901   21.8511 H   0  0  0  0  0  0
  -25.2756   -9.5688   22.4755 H   0  0  0  0  0  0
  -23.9999   -7.4635   22.7471 H   0  0  0  0  0  0
  -21.0840   -8.8764   19.8946 H   0  0  0  0  0  0
  -22.3693  -10.9662   19.6150 H   0  0  0  0  0  0
  -21.1994   -7.6143   23.9710 H   0  0  0  0  0  0
  -21.1474   -6.0518   25.9075 H   0  0  0  0  0  0
  -22.0604   -2.7606   23.2843 H   0  0  0  0  0  0
  -22.4103  -11.9860   22.4765 H   0  0  0  0  0  0
  -21.1104  -13.1228   22.2602 H   0  0  0  0  0  0
  -24.6637  -15.8441   20.5502 H   0  0  0  0  0  0
  -26.2941  -15.6429   20.1600 H   0  0  0  0  0  0
  -26.7169  -32.5463   23.1124 H   0  0  0  0  0  0
  -25.0076  -33.9737   25.0439 H   0  0  0  0  0  0
  -22.7104  -31.3084   21.4074 H   0  0  0  0  0  0
  -23.3765  -35.9576   23.3253 H   0  0  0  0  0  0
  -24.3583  -36.8940   22.2061 H   0  0  0  0  0  0
  -23.7172  -37.6447   23.6676 H   0  0  0  0  0  0
  -26.0856  -31.5639   20.6060 H   0  0  0  0  0  0
  -26.8387  -30.8471   22.0002 H   0  0  0  0  0  0
  -28.1076  -28.9971   21.1945 H   0  0  0  0  0  0
  -25.9711  -25.9627   18.9656 H   0  0  0  0  0  0
  -23.9700  -27.3244   18.9974 H   0  0  0  0  0  0
  -23.7483  -30.6050   19.4062 H   0  0  0  0  0  0
  -22.7499  -29.2560   19.8573 H   0  0  0  0  0  0
  -25.1263  -36.1929   25.0826 H   0  0  0  0  0  0
  -20.9984  -28.3250   24.1405 H   0  0  0  0  0  0
  -20.5654  -26.2294   23.3606 H   0  0  0  0  0  0
  -21.6634  -26.7437   22.1208 H   0  0  0  0  0  0
  -19.6904  -25.6311   21.1221 H   0  0  0  0  0  0
  -19.6682  -27.3215   20.6744 H   0  0  0  0  0  0
  -17.4197  -26.6697   21.4016 H   0  0  0  0  0  0
  -18.0322  -26.0071   22.9009 H   0  0  0  0  0  0
  -19.7936  -30.7260   24.2285 H   0  0  0  0  0  0
  -17.5022  -31.6268   24.5174 H   0  0  0  0  0  0
  -15.5355  -30.2995   23.7661 H   0  0  0  0  0  0
  -15.8671  -28.0829   22.7075 H   0  0  0  0  0  0
  -24.5914  -30.7058   25.7797 H   0  0  0  0  0  0
  -24.8909  -32.2878   26.4886 H   0  0  0  0  0  0
  -25.8067  -30.8907   27.0233 H   0  0  0  0  0  0
  -26.2890  -29.6784   24.1184 H   0  0  0  0  0  0
  -27.4046  -29.7267   25.4641 H   0  0  0  0  0  0
  -27.8753  -30.4324   23.9362 H   0  0  0  0  0  0
  -27.2671  -33.3634   26.2059 H   0  0  0  0  0  0
  -28.3877  -32.6855   25.0338 H   0  0  0  0  0  0
  -28.0698  -31.8451   26.5434 H   0  0  0  0  0  0
  -28.2531  -38.0140   24.7614 H   0  0  0  0  0  0
  -28.1140  -36.2681   24.6112 H   0  0  0  0  0  0
  -27.2331  -37.1230   25.8856 H   0  0  0  0  0  0
  -20.9350  -29.8768   21.6902 H   0  0  0  0  0  0
  -26.0133  -38.2850   24.1532 H   0  0  0  0  0  0
  -31.9643  -19.6636   19.5950 H   0  0  0  0  0  0
  -31.9176  -17.2257   19.7582 H   0  0  0  0  0  0
  -28.1126  -19.9039   21.5030 H   0  0  0  0  0  0
  -28.6324  -22.3928   19.1504 H   0  0  0  0  0  0
  -28.1212  -22.2131   20.8065 H   0  0  0  0  0  0
  -30.1815  -22.0044   22.6012 H   0  0  0  0  0  0
  -31.7400  -21.5104   21.9855 H   0  0  0  0  0  0
  -32.1150  -23.6268   20.8510 H   0  0  0  0  0  0
  -31.6937  -23.9420   22.5060 H   0  0  0  0  0  0
  -30.8959  -21.7709   19.6610 H   0  0  0  0  0  0
  -27.1938  -24.7568   20.4613 H   0  0  0  0  0  0
  -27.9747  -24.8738   18.8966 H   0  0  0  0  0  0
  -28.9625  -15.3696   21.2677 H   0  0  0  0  0  0
  1 25  1  0  0  0
  1 30  2  0  0  0
  1 84  1  0  0  0
  2  3  1  0  0  0
  2 25  1  0  0  0
  2 86  1  0  0  0
  2 87  1  0  0  0
  3  4  1  0  0  0
  3 88  1  0  0  0
  3 89  1  0  0  0
  4  5  1  0  0  0
  4 90  1  0  0  0
  4 91  1  0  0  0
  5  6  1  0  0  0
  5 26  1  0  0  0
  5 92  1  0  0  0
  6 25  1  0  0  0
  6 93  1  0  0  0
  6 94  1  0  0  0
  7  8  2  0  0  0
  7 26  1  0  0  0
  7 29  1  0  0  0
  8  9  1  0  0  0
  8 22  1  0  0  0
  9 10  1  0  0  0
  9 27  2  0  0  0
 10 11  2  0  0  0
 10 15  1  0  0  0
 11 12  1  0  0  0
 11 95  1  0  0  0
 12 13  2  0  0  0
 12 96  1  0  0  0
 13 14  1  0  0  0
 13 31  1  0  0  0
 14 15  2  0  0  0
 14 97  1  0  0  0
 15 98  1  0  0  0
 16 17  2  0  0  0
 16 21  1  0  0  0
 16 31  1  0  0  0
 17 18  1  0  0  0
 17 99  1  0  0  0
 18 19  2  0  0  0
 18100  1  0  0  0
 19 20  1  0  0  0
 19 24  1  0  0  0
 20 21  2  0  0  0
 20101  1  0  0  0
 21 23  1  0  0  0
 22 28  1  0  0  0
 22 32  2  0  0  0
 26 27  1  0  0  0
 28102  1  0  0  0
 28103  1  0  0  0
 29104  1  0  0  0
 29105  1  0  0  0
 33 34  1  0  0  0
 33 66  1  0  0  0
 33 70  2  0  0  0
 34 36  1  0  0  0
 34 59  1  0  0  0
 34106  1  0  0  0
 35 44  2  0  0  0
 35 45  1  0  0  0
 35 68  1  0  0  0
 36 56  1  0  0  0
 36107  1  0  0  0
 37 39  1  0  0  0
 37 47  1  0  0  0
 37 66  1  0  0  0
 37108  1  0  0  0
 38 43  2  0  0  0
 38 46  1  0  0  0
 38 47  1  0  0  0
 39 64  1  0  0  0
 39 67  2  0  0  0
 40 52  1  0  0  0
 40 53  2  0  0  0
 40 58  1  0  0  0
 41109  1  0  0  0
 41110  1  0  0  0
 41111  1  0  0  0
 41 48  1  0  0  0
 42 43  1  0  0  0
 42 66  1  0  0  0
 42112  1  0  0  0
 42113  1  0  0  0
 43 44  1  0  0  0
 44114  1  0  0  0
 45 46  2  0  0  0
 45115  1  0  0  0
 46116  1  0  0  0
 47117  1  0  0  0
 47118  1  0  0  0
 48 56  1  0  0  0
 48 65  1  0  0  0
 48119  1  0  0  0
 49 50  1  0  0  0
 49 53  1  0  0  0
 49 64  1  0  0  0
 49120  1  0  0  0
 50 51  1  0  0  0
 50121  1  0  0  0
 50122  1  0  0  0
 51 52  1  0  0  0
 51123  1  0  0  0
 51124  1  0  0  0
 52125  1  0  0  0
 52126  1  0  0  0
 53 54  1  0  0  0
 54 55  2  0  0  0
 54127  1  0  0  0
 55 57  1  0  0  0
 55128  1  0  0  0
 56 69  2  0  0  0
 57 58  2  0  0  0
 57129  1  0  0  0
 58130  1  0  0  0
 59 60  1  0  0  0
 59 61  1  0  0  0
 59 62  1  0  0  0
 60131  1  0  0  0
 60132  1  0  0  0
 60133  1  0  0  0
 61134  1  0  0  0
 61135  1  0  0  0
 61136  1  0  0  0
 62137  1  0  0  0
 62138  1  0  0  0
 62139  1  0  0  0
 63 65  1  0  0  0
 63140  1  0  0  0
 63141  1  0  0  0
 63142  1  0  0  0
 64143  1  0  0  0
 65144  1  0  0  0
 68 82  1  0  0  0
 71 72  2  0  0  0
 71 74  1  0  0  0
 71145  1  0  0  0
 72 75  1  0  0  0
 72146  1  0  0  0
 73 74  2  0  0  0
 73 76  1  0  0  0
 73147  1  0  0  0
 74 81  1  0  0  0
 75 76  2  0  0  0
 75 84  1  0  0  0
 76 85  1  0  0  0
 77 78  1  0  0  0
 77 82  1  0  0  0
 77 83  2  0  0  0
 78 81  1  0  0  0
 78148  1  0  0  0
 78149  1  0  0  0
 79 80  1  0  0  0
 79 81  1  0  0  0
 79150  1  0  0  0
 79151  1  0  0  0
 80 83  1  0  0  0
 80152  1  0  0  0
 80153  1  0  0  0
 81154  1  0  0  0
 82155  1  0  0  0
 82156  1  0  0  0
 84157  1  0  0  0
M  ISO  4   1 100  68 101  82 101  84 100
M  END
> <chiral flag>
0

> <version>
0

> <s_m_source_file>
/data/baiqing/PycharmProjects/Reinvent-master-3.2/result/LINK_invent/BTK/process_docking_weight1_custom_product_contain_oxygen_bond_distance_aromatic_linkinvent_7_9_3/rearranged_h_0167.sdf

> <i_m_source_file_index>
51

> <r_mmod_Potential_Energy-OPLS-2005>
13.2035989761353

> <r_mmod_Stretch_Energy-OPLS-2005>
72.4223098754883

> <r_mmod_Bend_Energy-OPLS-2005>
138.758407592773

> <r_mmod_Torsional_Energy-OPLS-2005>
216.104888916016

> <r_mmod_Improper_Torsional_Energy-OPLS-2005>
3.89726805686951

> <r_mmod_Van_der_Waal_Energy-OPLS-2005>
157.904586791992

> <r_mmod_Electrostatic_Energy-OPLS-2005>
-398.850219726562

> <r_mmod_Solvation_Energy-OPLS-2005>
-217.413284301758

> <b_mmod_Minimization_Converged-OPLS-2005>
0

> <r_mmod_RMS_Derivative-OPLS-2005>
0.583991289138794

$$$$
51
                    3D
 Structure written by MMmdl.
162170  0  0  1  0            999 V2000
  -30.7170  -14.4345   20.5833 C   0  0  0  0  0  0
  -30.4243  -12.2809   19.4237 C   0  0  0  0  0  0
  -29.5016  -12.5142   18.2070 C   0  0  0  0  0  0
  -28.0224  -12.3711   18.6177 C   0  0  0  0  0  0
  -27.6691  -13.2008   19.8805 C   0  0  2  0  0  0
  -28.7088  -12.9651   21.0021 C   0  0  0  0  0  0
  -25.2628  -13.8136   20.5673 C   0  0  0  0  0  0
  -24.1870  -13.0427   20.9163 C   0  0  0  0  0  0
  -24.6408  -11.6884   20.8740 C   0  0  0  0  0  0
  -23.9066  -10.4281   21.0416 C   0  0  0  0  0  0
  -24.3618   -9.4190   21.9190 C   0  0  0  0  0  0
  -23.6279   -8.2235   22.0756 C   0  0  0  0  0  0
  -22.4247   -8.0291   21.3556 C   0  0  0  0  0  0
  -21.9898   -9.0262   20.4652 C   0  0  0  0  0  0
  -22.7242  -10.2132   20.3062 C   0  0  0  0  0  0
  -21.6841   -6.0736   22.5280 C   0  0  0  0  0  0
  -21.4008   -6.5639   23.8217 C   0  0  0  0  0  0
  -21.3660   -5.6788   24.9183 C   0  0  0  0  0  0
  -21.6043   -4.3048   24.7220 C   0  0  0  0  0  0
  -21.8814   -3.8147   23.4341 C   0  0  0  0  0  0
  -21.9182   -4.6972   22.3404 C   0  0  0  0  0  0
  -22.7899  -13.5249   21.1813 C   0  0  0  0  0  0
  -22.1658   -4.2177   21.0982 F   0  0  0  0  0  0
  -21.5630   -3.4526   25.7729 F   0  0  0  0  0  0
  -30.0493  -13.2535   20.4617 N   0  0  0  0  0  0
  -26.3064  -12.9294   20.3354 N   0  0  0  0  0  0
  -25.9327  -11.6462   20.5751 N   0  0  0  0  0  0
  -22.0499  -12.8283   22.0376 N   0  0  0  0  0  0
  -25.4357  -15.1847   20.4091 N   0  0  0  0  0  0
  -31.8257  -14.6352   20.0761 O   0  0  0  0  0  0
  -21.6615   -6.8880   21.4240 O   0  0  0  0  0  0
  -22.3595  -14.5545   20.6642 O   0  0  0  0  0  0
  -24.6155  -31.8661   23.2048 C   0  0  0  0  0  0
  -25.9066  -32.4800   23.8351 C   0  0  1  0  0  0
  -27.2385  -27.4374   20.0866 C   0  0  0  0  0  0
  -25.5937  -33.8591   24.2310 N   0  0  0  0  0  0
  -23.4012  -30.4893   21.5449 C   0  0  2  0  0  0
  -24.8446  -28.9510   20.1155 C   0  0  0  0  0  0
  -22.7415  -29.4639   22.4954 C   0  0  0  0  0  0
  -18.0263  -28.1382   22.8460 C   0  0  0  0  0  0
  -24.1484  -36.7283   23.2633 C   0  0  0  0  0  0
  -25.9281  -30.8341   21.3511 C   0  0  0  0  0  0
  -26.0036  -29.4663   20.7065 C   0  0  0  0  0  0
  -27.1990  -28.7147   20.6922 C   0  0  0  0  0  0
  -26.0462  -26.9194   19.5269 C   0  0  0  0  0  0
  -24.8610  -27.6748   19.5276 C   0  0  0  0  0  0
  -23.6078  -29.8187   20.1611 C   0  0  0  0  0  0
  -25.4110  -36.3084   24.0323 C   0  0  1  0  0  0
  -20.5858  -28.3668   23.1301 C   0  0  2  0  0  0
  -20.6760  -26.9406   22.5413 C   0  0  0  0  0  0
  -19.5746  -26.6398   21.5195 C   0  0  0  0  0  0
  -18.1918  -26.7925   22.1601 C   0  0  0  0  0  0
  -19.1512  -28.8841   23.2882 C   0  0  0  0  0  0
  -18.9452  -30.1443   23.8907 C   0  0  0  0  0  0
  -17.6456  -30.6597   24.0569 C   0  0  0  0  0  0
  -25.9049  -34.9460   23.5127 C   0  0  0  0  0  0
  -16.5345  -29.9108   23.6323 C   0  0  0  0  0  0
  -16.7252  -28.6531   23.0316 C   0  0  0  0  0  0
  -26.4506  -31.6565   25.0673 C   0  0  0  0  0  0
  -25.3807  -31.3653   26.1454 C   0  0  0  0  0  0
  -27.0326  -30.3025   24.5981 C   0  0  0  0  0  0
  -27.6088  -32.4284   25.7447 C   0  0  0  0  0  0
  -27.5563  -37.1792   24.8464 C   0  0  0  0  0  0
  -21.4136  -29.3032   22.3713 N   0  0  0  0  0  0
  -26.4283  -37.3786   23.9411 N   0  0  0  0  0  0
  -24.6672  -31.0769   22.0932 N   0  0  0  0  0  0
  -23.4196  -28.8162   23.2964 O   0  0  0  0  0  0
  -28.4527  -26.7771   20.0678 O   0  0  0  0  0  0
  -26.5601  -34.8924   22.4674 O   0  0  0  0  0  0
  -23.5355  -32.1420   23.7454 O   0  0  0  0  0  0
  -29.2316  -18.2887   19.0333 C   0  0  0  0  0  0
  -29.3205  -16.9784   19.5368 C   0  0  0  0  0  0
  -29.7862  -19.3574   19.7615 C   0  0  0  0  0  0
  -29.9766  -16.7464   20.7624 C   0  0  0  0  0  0
  -30.3870  -19.0412   21.0054 C   0  0  0  0  0  0
  -29.7707  -20.6973   19.1468 C   0  0  0  0  0  0
  -28.4066  -25.9261   17.7225 C   0  0  0  0  0  0
  -27.5027  -24.9802   16.9292 C   0  0  0  0  0  0
  -28.4103  -24.2421   19.8192 C   0  0  0  0  0  0
  -29.2426  -23.1355   19.1220 C   0  0  0  0  0  0
  -28.7270  -25.6443   19.2153 C   0  0  2  0  0  0
  -30.4666  -17.7813   21.4941 N   0  0  0  0  0  0
  -30.9805  -20.0070   21.8078 N   0  0  0  0  0  0
  -30.3074  -20.8209   17.9185 N   0  0  0  0  0  0
  -30.0443  -15.4069   21.2220 N   0  0  0  0  0  0
  -29.2331  -21.7923   19.7419 N   0  3  0  0  0  0
  -28.8586  -26.9298   17.1670 O   0  0  0  0  0  0
  -31.4741  -12.3555   19.1315 H   0  0  0  0  0  0
  -30.2963  -11.2663   19.8054 H   0  0  0  0  0  0
  -29.7366  -11.8122   17.4050 H   0  0  0  0  0  0
  -29.6748  -13.5098   17.7945 H   0  0  0  0  0  0
  -27.8360  -11.3143   18.8111 H   0  0  0  0  0  0
  -27.3705  -12.6515   17.7903 H   0  0  0  0  0  0
  -27.7160  -14.2509   19.5941 H   0  0  0  0  0  0
  -28.6718  -11.9268   21.3366 H   0  0  0  0  0  0
  -28.4702  -13.5571   21.8853 H   0  0  0  0  0  0
  -25.2774   -9.5640   22.4752 H   0  0  0  0  0  0
  -23.9994   -7.4604   22.7449 H   0  0  0  0  0  0
  -21.0838   -8.8778   19.8941 H   0  0  0  0  0  0
  -22.3722  -10.9665   19.6162 H   0  0  0  0  0  0
  -21.2008   -7.6149   23.9735 H   0  0  0  0  0  0
  -21.1486   -6.0519   25.9091 H   0  0  0  0  0  0
  -22.0589   -2.7615   23.2824 H   0  0  0  0  0  0
  -22.4096  -11.9994   22.4848 H   0  0  0  0  0  0
  -21.1109  -13.1326   22.2520 H   0  0  0  0  0  0
  -24.6624  -15.8327   20.5044 H   0  0  0  0  0  0
  -26.2899  -15.6242   20.0907 H   0  0  0  0  0  0
  -26.7139  -32.5513   23.1107 H   0  0  0  0  0  0
  -25.0200  -33.9737   25.0534 H   0  0  0  0  0  0
  -22.6922  -31.3073   21.4028 H   0  0  0  0  0  0
  -23.3746  -35.9610   23.3304 H   0  0  0  0  0  0
  -24.3598  -36.8907   22.2051 H   0  0  0  0  0  0
  -23.7238  -37.6491   23.6646 H   0  0  0  0  0  0
  -26.0428  -31.5940   20.5748 H   0  0  0  0  0  0
  -26.8166  -30.8921   21.9674 H   0  0  0  0  0  0
  -28.0982  -29.1135   21.1399 H   0  0  0  0  0  0
  -26.0164  -25.9368   19.0833 H   0  0  0  0  0  0
  -23.9652  -27.2675   19.0790 H   0  0  0  0  0  0
  -23.7154  -30.5902   19.3977 H   0  0  0  0  0  0
  -22.7323  -29.2386   19.8641 H   0  0  0  0  0  0
  -25.1280  -36.1946   25.0813 H   0  0  0  0  0  0
  -20.9943  -28.3251   24.1419 H   0  0  0  0  0  0
  -20.5655  -26.2285   23.3608 H   0  0  0  0  0  0
  -21.6634  -26.7448   22.1214 H   0  0  0  0  0  0
  -19.6932  -25.6318   21.1216 H   0  0  0  0  0  0
  -19.6683  -27.3215   20.6728 H   0  0  0  0  0  0
  -17.4184  -26.6616   21.4016 H   0  0  0  0  0  0
  -18.0343  -26.0076   22.9012 H   0  0  0  0  0  0
  -19.7933  -30.7232   24.2305 H   0  0  0  0  0  0
  -17.5027  -31.6277   24.5173 H   0  0  0  0  0  0
  -15.5353  -30.3027   23.7665 H   0  0  0  0  0  0
  -15.8632  -28.0896   22.7002 H   0  0  0  0  0  0
  -24.5991  -30.6963   25.7813 H   0  0  0  0  0  0
  -24.8986  -32.2815   26.4894 H   0  0  0  0  0  0
  -25.8233  -30.8862   27.0211 H   0  0  0  0  0  0
  -26.2819  -29.6768   24.1146 H   0  0  0  0  0  0
  -27.4283  -29.7245   25.4341 H   0  0  0  0  0  0
  -27.8562  -30.4356   23.8964 H   0  0  0  0  0  0
  -27.2699  -33.3578   26.2038 H   0  0  0  0  0  0
  -28.3907  -32.6883   25.0288 H   0  0  0  0  0  0
  -28.0748  -31.8416   26.5377 H   0  0  0  0  0  0
  -28.2600  -38.0074   24.7544 H   0  0  0  0  0  0
  -28.1051  -36.2625   24.6259 H   0  0  0  0  0  0
  -27.2298  -37.1414   25.8873 H   0  0  0  0  0  0
  -20.9311  -29.8803   21.6972 H   0  0  0  0  0  0
  -26.0160  -38.2853   24.1454 H   0  0  0  0  0  0
  -28.7578  -18.4681   18.0794 H   0  0  0  0  0  0
  -28.9039  -16.1676   18.9569 H   0  0  0  0  0  0
  -27.2062  -24.0960   17.4880 H   0  0  0  0  0  0
  -28.0023  -24.6575   16.0158 H   0  0  0  0  0  0
  -26.5903  -25.5014   16.6434 H   0  0  0  0  0  0
  -28.6793  -24.2548   20.8753 H   0  0  0  0  0  0
  -27.3429  -24.0197   19.7818 H   0  0  0  0  0  0
  -30.2854  -23.4510   19.0594 H   0  0  0  0  0  0
  -28.8890  -23.0109   18.1005 H   0  0  0  0  0  0
  -29.8168  -25.6589   19.2092 H   0  0  0  0  0  0
  -31.3199  -20.8519   21.3648 H   0  0  0  0  0  0
  -31.5987  -19.6737   22.5380 H   0  0  0  0  0  0
  -30.7506  -20.0320   17.4716 H   0  0  0  0  0  0
  -30.3689  -21.6979   17.4277 H   0  0  0  0  0  0
  -29.2276  -15.0840   21.7162 H   0  0  0  0  0  0
  -28.8283  -21.6981   20.6657 H   0  0  0  0  0  0
  1 25  1  0  0  0
  1 30  2  0  0  0
  1 85  1  0  0  0
  2  3  1  0  0  0
  2 25  1  0  0  0
  2 88  1  0  0  0
  2 89  1  0  0  0
  3  4  1  0  0  0
  3 90  1  0  0  0
  3 91  1  0  0  0
  4  5  1  0  0  0
  4 92  1  0  0  0
  4 93  1  0  0  0
  5  6  1  0  0  0
  5 26  1  0  0  0
  5 94  1  0  0  0
  6 25  1  0  0  0
  6 95  1  0  0  0
  6 96  1  0  0  0
  7  8  2  0  0  0
  7 26  1  0  0  0
  7 29  1  0  0  0
  8  9  1  0  0  0
  8 22  1  0  0  0
  9 10  1  0  0  0
  9 27  2  0  0  0
 10 11  2  0  0  0
 10 15  1  0  0  0
 11 12  1  0  0  0
 11 97  1  0  0  0
 12 13  2  0  0  0
 12 98  1  0  0  0
 13 14  1  0  0  0
 13 31  1  0  0  0
 14 15  2  0  0  0
 14 99  1  0  0  0
 15100  1  0  0  0
 16 17  2  0  0  0
 16 21  1  0  0  0
 16 31  1  0  0  0
 17 18  1  0  0  0
 17101  1  0  0  0
 18 19  2  0  0  0
 18102  1  0  0  0
 19 20  1  0  0  0
 19 24  1  0  0  0
 20 21  2  0  0  0
 20103  1  0  0  0
 21 23  1  0  0  0
 22 28  1  0  0  0
 22 32  2  0  0  0
 26 27  1  0  0  0
 28104  1  0  0  0
 28105  1  0  0  0
 29106  1  0  0  0
 29107  1  0  0  0
 33 34  1  0  0  0
 33 66  1  0  0  0
 33 70  2  0  0  0
 34 36  1  0  0  0
 34 59  1  0  0  0
 34108  1  0  0  0
 35 44  2  0  0  0
 35 45  1  0  0  0
 35 68  1  0  0  0
 36 56  1  0  0  0
 36109  1  0  0  0
 37 39  1  0  0  0
 37 47  1  0  0  0
 37 66  1  0  0  0
 37110  1  0  0  0
 38 43  2  0  0  0
 38 46  1  0  0  0
 38 47  1  0  0  0
 39 64  1  0  0  0
 39 67  2  0  0  0
 40 52  1  0  0  0
 40 53  2  0  0  0
 40 58  1  0  0  0
 41111  1  0  0  0
 41112  1  0  0  0
 41113  1  0  0  0
 41 48  1  0  0  0
 42 43  1  0  0  0
 42 66  1  0  0  0
 42114  1  0  0  0
 42115  1  0  0  0
 43 44  1  0  0  0
 44116  1  0  0  0
 45 46  2  0  0  0
 45117  1  0  0  0
 46118  1  0  0  0
 47119  1  0  0  0
 47120  1  0  0  0
 48 56  1  0  0  0
 48 65  1  0  0  0
 48121  1  0  0  0
 49 50  1  0  0  0
 49 53  1  0  0  0
 49 64  1  0  0  0
 49122  1  0  0  0
 50 51  1  0  0  0
 50123  1  0  0  0
 50124  1  0  0  0
 51 52  1  0  0  0
 51125  1  0  0  0
 51126  1  0  0  0
 52127  1  0  0  0
 52128  1  0  0  0
 53 54  1  0  0  0
 54 55  2  0  0  0
 54129  1  0  0  0
 55 57  1  0  0  0
 55130  1  0  0  0
 56 69  2  0  0  0
 57 58  2  0  0  0
 57131  1  0  0  0
 58132  1  0  0  0
 59 60  1  0  0  0
 59 61  1  0  0  0
 59 62  1  0  0  0
 60133  1  0  0  0
 60134  1  0  0  0
 60135  1  0  0  0
 61136  1  0  0  0
 61137  1  0  0  0
 61138  1  0  0  0
 62139  1  0  0  0
 62140  1  0  0  0
 62141  1  0  0  0
 63 65  1  0  0  0
 63142  1  0  0  0
 63143  1  0  0  0
 63144  1  0  0  0
 64145  1  0  0  0
 65146  1  0  0  0
 68 81  1  0  0  0
 71 72  2  0  0  0
 71 73  1  0  0  0
 71147  1  0  0  0
 72 74  1  0  0  0
 72148  1  0  0  0
 73 75  2  0  0  0
 73 76  1  0  0  0
 74 82  2  0  0  0
 74 85  1  0  0  0
 75 82  1  0  0  0
 75 83  1  0  0  0
 76 84  1  0  0  0
 76 86  2  0  0  0
 77 78  1  0  0  0
 77 81  1  0  0  0
 77 87  2  0  0  0
 78149  1  0  0  0
 78150  1  0  0  0
 78151  1  0  0  0
 79 80  1  0  0  0
 79152  1  0  0  0
 79153  1  0  0  0
 79 81  1  0  0  0
 80 86  1  0  0  0
 80154  1  0  0  0
 80155  1  0  0  0
 81156  1  0  0  0
 83157  1  0  0  0
 83158  1  0  0  0
 84159  1  0  0  0
 84160  1  0  0  0
 85161  1  0  0  0
 86162  1  0  0  0
M  CHG  1  86   1
M  ISO  4   1 100  68 101  81 101  85 100
M  END
> <chiral flag>
0

> <version>
0

> <s_m_source_file>
/data/baiqing/PycharmProjects/Reinvent-master-3.2/result/LINK_invent/BTK/process_docking_weight1_custom_product_contain_oxygen_bond_distance_aromatic_linkinvent_7_9_3/rearranged_h_0167.sdf

> <i_m_source_file_index>
52

> <r_mmod_Potential_Energy-OPLS-2005>
-214.47184753418

> <r_mmod_Stretch_Energy-OPLS-2005>
39.6218795776367

> <r_mmod_Bend_Energy-OPLS-2005>
135.567504882812

> <r_mmod_Torsional_Energy-OPLS-2005>
248.591506958008

> <r_mmod_Improper_Torsional_Energy-OPLS-2005>
8.91578102111816

> <r_mmod_Van_der_Waal_Energy-OPLS-2005>
158.215377807617

> <r_mmod_Electrostatic_Energy-OPLS-2005>
-291.133636474609

> <r_mmod_Solvation_Energy-OPLS-2005>
-524.697937011719

> <b_mmod_Minimization_Converged-OPLS-2005>
0

> <r_mmod_RMS_Derivative-OPLS-2005>
3.69766020774841

$$$$
52
                    3D
 Structure written by MMmdl.
158166  0  0  1  0            999 V2000
  -30.7123  -14.4247   20.7081 C   0  0  0  0  0  0
  -30.4453  -12.3333   19.3982 C   0  0  0  0  0  0
  -29.4986  -12.5439   18.1999 C   0  0  0  0  0  0
  -28.0221  -12.3745   18.6117 C   0  0  0  0  0  0
  -27.6705  -13.1947   19.8803 C   0  0  2  0  0  0
  -28.7068  -12.9214   20.9912 C   0  0  0  0  0  0
  -25.2597  -13.8115   20.5630 C   0  0  0  0  0  0
  -24.1855  -13.0424   20.9175 C   0  0  0  0  0  0
  -24.6398  -11.6877   20.8741 C   0  0  0  0  0  0
  -23.9066  -10.4269   21.0424 C   0  0  0  0  0  0
  -24.3617   -9.4172   21.9196 C   0  0  0  0  0  0
  -23.6277   -8.2217   22.0774 C   0  0  0  0  0  0
  -22.4254   -8.0278   21.3570 C   0  0  0  0  0  0
  -21.9900   -9.0256   20.4674 C   0  0  0  0  0  0
  -22.7245  -10.2118   20.3072 C   0  0  0  0  0  0
  -21.6833   -6.0735   22.5293 C   0  0  0  0  0  0
  -21.4001   -6.5635   23.8227 C   0  0  0  0  0  0
  -21.3658   -5.6788   24.9184 C   0  0  0  0  0  0
  -21.6055   -4.3061   24.7233 C   0  0  0  0  0  0
  -21.8812   -3.8146   23.4348 C   0  0  0  0  0  0
  -21.9177   -4.6960   22.3407 C   0  0  0  0  0  0
  -22.7873  -13.5236   21.1855 C   0  0  0  0  0  0
  -22.1641   -4.2143   21.0981 F   0  0  0  0  0  0
  -21.5626   -3.4541   25.7749 F   0  0  0  0  0  0
  -30.0514  -13.2567   20.4720 N   0  0  0  0  0  0
  -26.3064  -12.9274   20.3370 N   0  0  0  0  0  0
  -25.9324  -11.6442   20.5770 N   0  0  0  0  0  0
  -22.0492  -12.8226   22.0402 N   0  0  0  0  0  0
  -25.4263  -15.1842   20.3959 N   0  0  0  0  0  0
  -31.7245  -14.7711   20.0887 O   0  0  0  0  0  0
  -21.6610   -6.8882   21.4262 O   0  0  0  0  0  0
  -22.3571  -14.5549   20.6703 O   0  0  0  0  0  0
  -24.6144  -31.8670   23.2092 C   0  0  0  0  0  0
  -25.9035  -32.4817   23.8386 C   0  0  1  0  0  0
  -27.2459  -27.4324   20.1043 C   0  0  0  0  0  0
  -25.5889  -33.8615   24.2313 N   0  0  0  0  0  0
  -23.4056  -30.4864   21.5488 C   0  0  2  0  0  0
  -24.8576  -28.9472   20.1213 C   0  0  0  0  0  0
  -22.7408  -29.4643   22.4997 C   0  0  0  0  0  0
  -18.0274  -28.1368   22.8494 C   0  0  0  0  0  0
  -24.1484  -36.7319   23.2636 C   0  0  0  0  0  0
  -25.9331  -30.8280   21.3678 C   0  0  0  0  0  0
  -26.0144  -29.4578   20.7252 C   0  0  0  0  0  0
  -27.2121  -28.7034   20.7246 C   0  0  0  0  0  0
  -26.0782  -26.9387   19.4906 C   0  0  0  0  0  0
  -24.8823  -27.6832   19.5048 C   0  0  0  0  0  0
  -23.6175  -29.8126   20.1658 C   0  0  0  0  0  0
  -25.4107  -36.3108   24.0331 C   0  0  1  0  0  0
  -20.5858  -28.3655   23.1320 C   0  0  2  0  0  0
  -20.6763  -26.9396   22.5415 C   0  0  0  0  0  0
  -19.5746  -26.6383   21.5206 C   0  0  0  0  0  0
  -18.1922  -26.7917   22.1619 C   0  0  0  0  0  0
  -19.1523  -28.8833   23.2897 C   0  0  0  0  0  0
  -18.9450  -30.1441   23.8903 C   0  0  0  0  0  0
  -17.6451  -30.6577   24.0561 C   0  0  0  0  0  0
  -25.9034  -34.9478   23.5121 C   0  0  0  0  0  0
  -16.5342  -29.9073   23.6327 C   0  0  0  0  0  0
  -16.7262  -28.6488   23.0354 C   0  0  0  0  0  0
  -26.4463  -31.6599   25.0717 C   0  0  0  0  0  0
  -25.3733  -31.3717   26.1467 C   0  0  0  0  0  0
  -27.0297  -30.3040   24.6103 C   0  0  0  0  0  0
  -27.6032  -32.4327   25.7479 C   0  0  0  0  0  0
  -27.5581  -37.1808   24.8461 C   0  0  0  0  0  0
  -21.4134  -29.3013   22.3722 N   0  0  0  0  0  0
  -26.4295  -37.3795   23.9402 N   0  0  0  0  0  0
  -24.6686  -31.0755   22.1009 N   0  0  0  0  0  0
  -23.4168  -28.8203   23.3067 O   0  0  0  0  0  0
  -28.3894  -26.6681   20.0302 O   0  0  0  0  0  0
  -26.5604  -34.8925   22.4684 O   0  0  0  0  0  0
  -23.5334  -32.1430   23.7466 O   0  0  0  0  0  0
  -30.6801  -17.5667   21.2948 C   0  0  0  0  0  0
  -30.1327  -19.1519   23.0818 C   0  0  0  0  0  0
  -29.7831  -16.7726   23.4250 C   0  0  0  0  0  0
  -30.5882  -18.9094   21.7659 C   0  0  0  0  0  0
  -30.2649  -16.4893   22.1274 C   0  0  0  0  0  0
  -29.7283  -18.0905   23.9033 C   0  0  0  0  0  0
  -30.9462  -20.0716   20.9306 C   0  0  0  0  0  0
  -30.3847  -22.4852   20.3942 C   0  0  0  0  0  0
  -29.3044  -23.5483   20.6996 C   0  0  0  0  0  0
  -29.8745  -24.9596   21.0127 C   0  0  0  0  0  0
  -28.8128  -26.0675   21.2557 C   0  0  0  0  0  0
  -30.2040  -15.1154   21.7428 N   0  0  0  0  0  0
  -30.1770  -21.1895   20.9964 N   0  0  0  0  0  0
  -32.0341  -19.9975   20.1567 N   0  3  0  0  0  0
  -31.3711  -22.7320   19.6908 O   0  0  0  0  0  0
  -29.2708  -18.3391   25.1542 F   0  0  0  0  0  0
  -31.4809  -12.4860   19.0907 H   0  0  0  0  0  0
  -30.3939  -11.3040   19.7543 H   0  0  0  0  0  0
  -29.7506  -11.8496   17.3966 H   0  0  0  0  0  0
  -29.6477  -13.5452   17.7915 H   0  0  0  0  0  0
  -27.8448  -11.3136   18.7963 H   0  0  0  0  0  0
  -27.3662  -12.6545   17.7867 H   0  0  0  0  0  0
  -27.7335  -14.2490   19.6124 H   0  0  0  0  0  0
  -28.6855  -11.8662   21.2695 H   0  0  0  0  0  0
  -28.4251  -13.4542   21.8991 H   0  0  0  0  0  0
  -25.2778   -9.5604   22.4758 H   0  0  0  0  0  0
  -24.0001   -7.4569   22.7459 H   0  0  0  0  0  0
  -21.0843   -8.8769   19.8947 H   0  0  0  0  0  0
  -22.3745  -10.9654   19.6158 H   0  0  0  0  0  0
  -21.1984   -7.6138   23.9741 H   0  0  0  0  0  0
  -21.1511   -6.0509   25.9095 H   0  0  0  0  0  0
  -22.0595   -2.7609   23.2845 H   0  0  0  0  0  0
  -22.4079  -11.9864   22.4783 H   0  0  0  0  0  0
  -21.1142  -13.1281   22.2686 H   0  0  0  0  0  0
  -24.6520  -15.8355   20.4837 H   0  0  0  0  0  0
  -26.2721  -15.6217   20.0520 H   0  0  0  0  0  0
  -26.7109  -32.5536   23.1153 H   0  0  0  0  0  0
  -25.0029  -33.9777   25.0453 H   0  0  0  0  0  0
  -22.6945  -31.3018   21.4041 H   0  0  0  0  0  0
  -23.3734  -35.9666   23.3321 H   0  0  0  0  0  0
  -24.3574  -36.8915   22.2046 H   0  0  0  0  0  0
  -23.7255  -37.6537   23.6640 H   0  0  0  0  0  0
  -26.0428  -31.5877   20.5923 H   0  0  0  0  0  0
  -26.8220  -30.8879   21.9835 H   0  0  0  0  0  0
  -28.1079  -29.0954   21.1857 H   0  0  0  0  0  0
  -26.0966  -25.9725   19.0063 H   0  0  0  0  0  0
  -23.9951  -27.2823   19.0323 H   0  0  0  0  0  0
  -23.7216  -30.5822   19.4005 H   0  0  0  0  0  0
  -22.7444  -29.2252   19.8748 H   0  0  0  0  0  0
  -25.1283  -36.1971   25.0827 H   0  0  0  0  0  0
  -20.9950  -28.3218   24.1443 H   0  0  0  0  0  0
  -20.5670  -26.2260   23.3596 H   0  0  0  0  0  0
  -21.6637  -26.7443   22.1205 H   0  0  0  0  0  0
  -19.6911  -25.6300   21.1223 H   0  0  0  0  0  0
  -19.6687  -27.3206   20.6749 H   0  0  0  0  0  0
  -17.4196  -26.6667   21.4018 H   0  0  0  0  0  0
  -18.0327  -26.0049   22.9008 H   0  0  0  0  0  0
  -19.7926  -30.7255   24.2270 H   0  0  0  0  0  0
  -17.5007  -31.6264   24.5153 H   0  0  0  0  0  0
  -15.5342  -30.2976   23.7657 H   0  0  0  0  0  0
  -15.8660  -28.0810   22.7070 H   0  0  0  0  0  0
  -24.5888  -30.7084   25.7807 H   0  0  0  0  0  0
  -24.8946  -32.2884   26.4925 H   0  0  0  0  0  0
  -25.8083  -30.8874   27.0218 H   0  0  0  0  0  0
  -26.2852  -29.6803   24.1144 H   0  0  0  0  0  0
  -27.4047  -29.7268   25.4563 H   0  0  0  0  0  0
  -27.8689  -30.4347   23.9268 H   0  0  0  0  0  0
  -27.2632  -33.3600   26.2100 H   0  0  0  0  0  0
  -28.3815  -32.6940   25.0299 H   0  0  0  0  0  0
  -28.0734  -31.8439   26.5361 H   0  0  0  0  0  0
  -28.2600  -38.0103   24.7510 H   0  0  0  0  0  0
  -28.1073  -36.2636   24.6281 H   0  0  0  0  0  0
  -27.2300  -37.1453   25.8865 H   0  0  0  0  0  0
  -20.9311  -29.8701   21.6903 H   0  0  0  0  0  0
  -26.0180  -38.2873   24.1409 H   0  0  0  0  0  0
  -31.0311  -17.3751   20.2901 H   0  0  0  0  0  0
  -30.0845  -20.1541   23.4847 H   0  0  0  0  0  0
  -29.4442  -15.9794   24.0745 H   0  0  0  0  0  0
  -28.6991  -23.2158   21.5438 H   0  0  0  0  0  0
  -28.6359  -23.6044   19.8406 H   0  0  0  0  0  0
  -30.5617  -25.2825   20.2299 H   0  0  0  0  0  0
  -30.4815  -24.8746   21.9166 H   0  0  0  0  0  0
  -29.2424  -26.8486   21.8849 H   0  0  0  0  0  0
  -27.9616  -25.6606   21.8048 H   0  0  0  0  0  0
  -29.5419  -14.5666   22.2717 H   0  0  0  0  0  0
  -29.3574  -21.0169   21.5551 H   0  0  0  0  0  0
  -32.6533  -19.2030   20.2138 H   0  0  0  0  0  0
  -32.2928  -20.7985   19.5973 H   0  0  0  0  0  0
  1 25  1  0  0  0
  1 30  2  0  0  0
  1 82  1  0  0  0
  2  3  1  0  0  0
  2 25  1  0  0  0
  2 87  1  0  0  0
  2 88  1  0  0  0
  3  4  1  0  0  0
  3 89  1  0  0  0
  3 90  1  0  0  0
  4  5  1  0  0  0
  4 91  1  0  0  0
  4 92  1  0  0  0
  5  6  1  0  0  0
  5 26  1  0  0  0
  5 93  1  0  0  0
  6 25  1  0  0  0
  6 94  1  0  0  0
  6 95  1  0  0  0
  7  8  2  0  0  0
  7 26  1  0  0  0
  7 29  1  0  0  0
  8  9  1  0  0  0
  8 22  1  0  0  0
  9 10  1  0  0  0
  9 27  2  0  0  0
 10 11  2  0  0  0
 10 15  1  0  0  0
 11 12  1  0  0  0
 11 96  1  0  0  0
 12 13  2  0  0  0
 12 97  1  0  0  0
 13 14  1  0  0  0
 13 31  1  0  0  0
 14 15  2  0  0  0
 14 98  1  0  0  0
 15 99  1  0  0  0
 16 17  2  0  0  0
 16 21  1  0  0  0
 16 31  1  0  0  0
 17 18  1  0  0  0
 17100  1  0  0  0
 18 19  2  0  0  0
 18101  1  0  0  0
 19 20  1  0  0  0
 19 24  1  0  0  0
 20 21  2  0  0  0
 20102  1  0  0  0
 21 23  1  0  0  0
 22 28  1  0  0  0
 22 32  2  0  0  0
 26 27  1  0  0  0
 28103  1  0  0  0
 28104  1  0  0  0
 29105  1  0  0  0
 29106  1  0  0  0
 33 34  1  0  0  0
 33 66  1  0  0  0
 33 70  2  0  0  0
 34 36  1  0  0  0
 34 59  1  0  0  0
 34107  1  0  0  0
 35 44  2  0  0  0
 35 45  1  0  0  0
 35 68  1  0  0  0
 36 56  1  0  0  0
 36108  1  0  0  0
 37 39  1  0  0  0
 37 47  1  0  0  0
 37 66  1  0  0  0
 37109  1  0  0  0
 38 43  2  0  0  0
 38 46  1  0  0  0
 38 47  1  0  0  0
 39 64  1  0  0  0
 39 67  2  0  0  0
 40 52  1  0  0  0
 40 53  2  0  0  0
 40 58  1  0  0  0
 41110  1  0  0  0
 41111  1  0  0  0
 41112  1  0  0  0
 41 48  1  0  0  0
 42 43  1  0  0  0
 42 66  1  0  0  0
 42113  1  0  0  0
 42114  1  0  0  0
 43 44  1  0  0  0
 44115  1  0  0  0
 45 46  2  0  0  0
 45116  1  0  0  0
 46117  1  0  0  0
 47118  1  0  0  0
 47119  1  0  0  0
 48 56  1  0  0  0
 48 65  1  0  0  0
 48120  1  0  0  0
 49 50  1  0  0  0
 49 53  1  0  0  0
 49 64  1  0  0  0
 49121  1  0  0  0
 50 51  1  0  0  0
 50122  1  0  0  0
 50123  1  0  0  0
 51 52  1  0  0  0
 51124  1  0  0  0
 51125  1  0  0  0
 52126  1  0  0  0
 52127  1  0  0  0
 53 54  1  0  0  0
 54 55  2  0  0  0
 54128  1  0  0  0
 55 57  1  0  0  0
 55129  1  0  0  0
 56 69  2  0  0  0
 57 58  2  0  0  0
 57130  1  0  0  0
 58131  1  0  0  0
 59 60  1  0  0  0
 59 61  1  0  0  0
 59 62  1  0  0  0
 60132  1  0  0  0
 60133  1  0  0  0
 60134  1  0  0  0
 61135  1  0  0  0
 61136  1  0  0  0
 61137  1  0  0  0
 62138  1  0  0  0
 62139  1  0  0  0
 62140  1  0  0  0
 63 65  1  0  0  0
 63141  1  0  0  0
 63142  1  0  0  0
 63143  1  0  0  0
 64144  1  0  0  0
 65145  1  0  0  0
 68 81  1  0  0  0
 71 74  2  0  0  0
 71 75  1  0  0  0
 71146  1  0  0  0
 72 74  1  0  0  0
 72 76  2  0  0  0
 72147  1  0  0  0
 73 75  2  0  0  0
 73 76  1  0  0  0
 73148  1  0  0  0
 74 77  1  0  0  0
 75 82  1  0  0  0
 76 86  1  0  0  0
 77 83  1  0  0  0
 77 84  2  0  0  0
 78 79  1  0  0  0
 78 83  1  0  0  0
 78 85  2  0  0  0
 79 80  1  0  0  0
 79149  1  0  0  0
 79150  1  0  0  0
 80 81  1  0  0  0
 80151  1  0  0  0
 80152  1  0  0  0
 81153  1  0  0  0
 81154  1  0  0  0
 82155  1  0  0  0
 83156  1  0  0  0
 84157  1  0  0  0
 84158  1  0  0  0
M  CHG  1  84   1
M  ISO  4   1 100  68 101  81 101  82 100
M  END
> <chiral flag>
0

> <version>
0

> <s_m_source_file>
/data/baiqing/PycharmProjects/Reinvent-master-3.2/result/LINK_invent/BTK/process_docking_weight1_custom_product_contain_oxygen_bond_distance_aromatic_linkinvent_7_9_3/rearranged_h_0167.sdf

> <i_m_source_file_index>
53

> <r_mmod_Potential_Energy-OPLS-2005>
-397.511291503906

> <r_mmod_Stretch_Energy-OPLS-2005>
39.3281326293945

> <r_mmod_Bend_Energy-OPLS-2005>
120.738571166992

> <r_mmod_Torsional_Energy-OPLS-2005>
234.672653198242

> <r_mmod_Improper_Torsional_Energy-OPLS-2005>
3.1547646522522

> <r_mmod_Van_der_Waal_Energy-OPLS-2005>
155.0048828125

> <r_mmod_Electrostatic_Energy-OPLS-2005>
-503.956115722656

> <r_mmod_Solvation_Energy-OPLS-2005>
-457.582427978516

> <b_mmod_Minimization_Converged-OPLS-2005>
0

> <r_mmod_RMS_Derivative-OPLS-2005>
2.83483290672302

$$$$
53
                    3D
 Structure written by MMmdl.
156164  0  0  1  0            999 V2000
  -30.6386  -14.6040   20.5066 C   0  0  0  0  0  0
  -30.4352  -12.3798   19.4290 C   0  0  0  0  0  0
  -29.4960  -12.5048   18.2099 C   0  0  0  0  0  0
  -28.0202  -12.3416   18.6286 C   0  0  0  0  0  0
  -27.6488  -13.2116   19.8583 C   0  0  2  0  0  0
  -28.6972  -13.0573   20.9806 C   0  0  0  0  0  0
  -25.2544  -13.8154   20.5677 C   0  0  0  0  0  0
  -24.1813  -13.0427   20.9196 C   0  0  0  0  0  0
  -24.6373  -11.6895   20.8747 C   0  0  0  0  0  0
  -23.9048  -10.4286   21.0410 C   0  0  0  0  0  0
  -24.3609   -9.4196   21.9176 C   0  0  0  0  0  0
  -23.6293   -8.2229   22.0743 C   0  0  0  0  0  0
  -22.4274   -8.0272   21.3537 C   0  0  0  0  0  0
  -21.9901   -9.0241   20.4636 C   0  0  0  0  0  0
  -22.7228  -10.2120   20.3046 C   0  0  0  0  0  0
  -21.6846   -6.0729   22.5281 C   0  0  0  0  0  0
  -21.4012   -6.5632   23.8221 C   0  0  0  0  0  0
  -21.3654   -5.6788   24.9179 C   0  0  0  0  0  0
  -21.6049   -4.3052   24.7232 C   0  0  0  0  0  0
  -21.8818   -3.8139   23.4351 C   0  0  0  0  0  0
  -21.9193   -4.6954   22.3410 C   0  0  0  0  0  0
  -22.7827  -13.5219   21.1881 C   0  0  0  0  0  0
  -22.1665   -4.2136   21.0984 F   0  0  0  0  0  0
  -21.5624   -3.4535   25.7741 F   0  0  0  0  0  0
  -30.0100  -13.3946   20.4077 N   0  0  0  0  0  0
  -26.2965  -12.9335   20.3303 N   0  0  0  0  0  0
  -25.9298  -11.6496   20.5764 N   0  0  0  0  0  0
  -22.0490  -12.8195   22.0433 N   0  0  0  0  0  0
  -25.4259  -15.1882   20.4074 N   0  0  0  0  0  0
  -31.8189  -14.7588   20.1894 O   0  0  0  0  0  0
  -21.6634   -6.8860   21.4244 O   0  0  0  0  0  0
  -22.3508  -14.5531   20.6732 O   0  0  0  0  0  0
  -24.6209  -31.8609   23.2056 C   0  0  0  0  0  0
  -25.9086  -32.4778   23.8367 C   0  0  1  0  0  0
  -27.2346  -27.3573   20.0981 C   0  0  0  0  0  0
  -25.5936  -33.8581   24.2294 N   0  0  0  0  0  0
  -23.4132  -30.4845   21.5481 C   0  0  2  0  0  0
  -24.8595  -28.9404   20.1120 C   0  0  0  0  0  0
  -22.7451  -29.4616   22.4988 C   0  0  0  0  0  0
  -18.0292  -28.1389   22.8499 C   0  0  0  0  0  0
  -24.1484  -36.7284   23.2637 C   0  0  0  0  0  0
  -25.9505  -30.7969   21.3759 C   0  0  0  0  0  0
  -26.0229  -29.4249   20.7220 C   0  0  0  0  0  0
  -27.2097  -28.6405   20.7160 C   0  0  0  0  0  0
  -26.0506  -26.9198   19.4575 C   0  0  0  0  0  0
  -24.8709  -27.6882   19.4739 C   0  0  0  0  0  0
  -23.6244  -29.8150   20.1634 C   0  0  0  0  0  0
  -25.4115  -36.3081   24.0331 C   0  0  1  0  0  0
  -20.5881  -28.3663   23.1323 C   0  0  2  0  0  0
  -20.6773  -26.9398   22.5423 C   0  0  0  0  0  0
  -19.5746  -26.6386   21.5224 C   0  0  0  0  0  0
  -18.1934  -26.7940   22.1633 C   0  0  0  0  0  0
  -19.1544  -28.8859   23.2903 C   0  0  0  0  0  0
  -18.9459  -30.1484   23.8876 C   0  0  0  0  0  0
  -17.6446  -30.6584   24.0570 C   0  0  0  0  0  0
  -25.9050  -34.9445   23.5109 C   0  0  0  0  0  0
  -16.5341  -29.9081   23.6336 C   0  0  0  0  0  0
  -16.7277  -28.6522   23.0324 C   0  0  0  0  0  0
  -26.4478  -31.6580   25.0720 C   0  0  0  0  0  0
  -25.3739  -31.3722   26.1472 C   0  0  0  0  0  0
  -27.0291  -30.2996   24.6167 C   0  0  0  0  0  0
  -27.6054  -32.4303   25.7468 C   0  0  0  0  0  0
  -27.5598  -37.1785   24.8466 C   0  0  0  0  0  0
  -21.4174  -29.3005   22.3706 N   0  0  0  0  0  0
  -26.4298  -37.3777   23.9437 N   0  0  0  0  0  0
  -24.6799  -31.0633   22.1003 N   0  0  0  0  0  0
  -23.4183  -28.8154   23.3065 O   0  0  0  0  0  0
  -28.3825  -26.5582   20.0918 O   0  0  0  0  0  0
  -26.5588  -34.8901   22.4650 O   0  0  0  0  0  0
  -23.5393  -32.1389   23.7423 O   0  0  0  0  0  0
  -30.7327  -17.8587   18.7954 C   0  0  0  0  0  0
  -29.9880  -19.5769   20.3634 C   0  0  0  0  0  0
  -30.7712  -20.2165   18.1506 C   0  0  0  0  0  0
  -30.2521  -18.1916   20.0772 C   0  0  0  0  0  0
  -31.0097  -18.8580   17.8401 C   0  0  0  0  0  0
  -30.2418  -20.6092   19.4002 C   0  0  0  0  0  0
  -28.2728  -25.1586   20.1544 C   0  0  0  0  0  0
  -29.2991  -24.2688   20.0036 C   0  0  0  0  0  0
  -29.0819  -22.7916   20.0766 C   0  0  0  0  0  0
  -30.1549  -17.0774   21.1593 C   0  0  0  0  0  0
  -31.5868  -18.4676   16.4838 C   0  0  0  0  0  0
  -30.1255  -22.0417   19.6293 N   0  0  0  0  0  0
  -29.8314  -15.6635   20.7902 N   0  0  0  0  0  0
  -28.0471  -22.2648   20.4899 O   0  0  0  0  0  0
  -30.5415  -24.7397   19.8048 O   0  0  0  0  0  0
  -32.3144  -17.3531   16.5765 F   0  0  0  0  0  0
  -30.5936  -18.2542   15.6208 F   0  0  0  0  0  0
  -32.3743  -19.4302   16.0018 F   0  0  0  0  0  0
  -31.4736  -12.5154   19.1200 H   0  0  0  0  0  0
  -30.3792  -11.3815   19.8675 H   0  0  0  0  0  0
  -29.7560  -11.7619   17.4549 H   0  0  0  0  0  0
  -29.6330  -13.4806   17.7418 H   0  0  0  0  0  0
  -27.8556  -11.2875   18.8602 H   0  0  0  0  0  0
  -27.3613  -12.5737   17.7904 H   0  0  0  0  0  0
  -27.6685  -14.2467   19.5198 H   0  0  0  0  0  0
  -28.7049  -12.0325   21.3558 H   0  0  0  0  0  0
  -28.4530  -13.6848   21.8392 H   0  0  0  0  0  0
  -25.2752   -9.5672   22.4749 H   0  0  0  0  0  0
  -24.0008   -7.4607   22.7449 H   0  0  0  0  0  0
  -21.0826   -8.8745   19.8933 H   0  0  0  0  0  0
  -22.3684  -10.9649   19.6150 H   0  0  0  0  0  0
  -21.2008   -7.6138   23.9719 H   0  0  0  0  0  0
  -21.1477   -6.0515   25.9083 H   0  0  0  0  0  0
  -22.0601   -2.7597   23.2857 H   0  0  0  0  0  0
  -22.4119  -11.9849   22.4798 H   0  0  0  0  0  0
  -21.1104  -13.1180   22.2661 H   0  0  0  0  0  0
  -24.6575  -15.8432   20.5134 H   0  0  0  0  0  0
  -26.2717  -15.6247   20.0633 H   0  0  0  0  0  0
  -26.7154  -32.5433   23.1116 H   0  0  0  0  0  0
  -25.0141  -33.9745   25.0486 H   0  0  0  0  0  0
  -22.7041  -31.3038   21.4097 H   0  0  0  0  0  0
  -23.3744  -35.9623   23.3291 H   0  0  0  0  0  0
  -24.3585  -36.8884   22.2057 H   0  0  0  0  0  0
  -23.7227  -37.6489   23.6635 H   0  0  0  0  0  0
  -26.0819  -31.5591   20.6071 H   0  0  0  0  0  0
  -26.8335  -30.8427   22.0030 H   0  0  0  0  0  0
  -28.1059  -29.0139   21.1928 H   0  0  0  0  0  0
  -26.0300  -25.9758   18.9337 H   0  0  0  0  0  0
  -23.9815  -27.3152   18.9842 H   0  0  0  0  0  0
  -23.7361  -30.5904   19.4051 H   0  0  0  0  0  0
  -22.7455  -29.2395   19.8669 H   0  0  0  0  0  0
  -25.1284  -36.1934   25.0824 H   0  0  0  0  0  0
  -20.9982  -28.3229   24.1438 H   0  0  0  0  0  0
  -20.5694  -26.2262   23.3617 H   0  0  0  0  0  0
  -21.6641  -26.7436   22.1197 H   0  0  0  0  0  0
  -19.6869  -25.6301   21.1241 H   0  0  0  0  0  0
  -19.6679  -27.3235   20.6789 H   0  0  0  0  0  0
  -17.4201  -26.6725   21.4031 H   0  0  0  0  0  0
  -18.0285  -26.0109   22.9044 H   0  0  0  0  0  0
  -19.7930  -30.7349   24.2175 H   0  0  0  0  0  0
  -17.4983  -31.6245   24.5211 H   0  0  0  0  0  0
  -15.5332  -30.2947   23.7686 H   0  0  0  0  0  0
  -15.8693  -28.0845   22.6965 H   0  0  0  0  0  0
  -24.5987  -30.6947   25.7865 H   0  0  0  0  0  0
  -24.8843  -32.2877   26.4799 H   0  0  0  0  0  0
  -25.8115  -30.9034   27.0296 H   0  0  0  0  0  0
  -26.2846  -29.6773   24.1192 H   0  0  0  0  0  0
  -27.3973  -29.7222   25.4655 H   0  0  0  0  0  0
  -27.8725  -30.4249   23.9380 H   0  0  0  0  0  0
  -27.2695  -33.3642   26.1988 H   0  0  0  0  0  0
  -28.3896  -32.6785   25.0303 H   0  0  0  0  0  0
  -28.0689  -31.8456   26.5429 H   0  0  0  0  0  0
  -28.2579  -38.0112   24.7554 H   0  0  0  0  0  0
  -28.1103  -36.2637   24.6217 H   0  0  0  0  0  0
  -27.2316  -37.1365   25.8863 H   0  0  0  0  0  0
  -20.9354  -29.8734   21.6934 H   0  0  0  0  0  0
  -26.0152  -38.2838   24.1459 H   0  0  0  0  0  0
  -30.9454  -16.8280   18.5511 H   0  0  0  0  0  0
  -29.6371  -19.8572   21.3460 H   0  0  0  0  0  0
  -31.0131  -20.9634   17.4072 H   0  0  0  0  0  0
  -27.2615  -24.8233   20.3459 H   0  0  0  0  0  0
  -29.3947  -17.3893   21.8766 H   0  0  0  0  0  0
  -31.0944  -17.0797   21.7127 H   0  0  0  0  0  0
  -30.8423  -22.5949   19.1811 H   0  0  0  0  0  0
  -28.8656  -15.4113   20.9284 H   0  0  0  0  0  0
  -31.1497  -24.0571   20.0561 H   0  0  0  0  0  0
  1 25  1  0  0  0
  1 30  2  0  0  0
  1 83  1  0  0  0
  2  3  1  0  0  0
  2 25  1  0  0  0
  2 89  1  0  0  0
  2 90  1  0  0  0
  3  4  1  0  0  0
  3 91  1  0  0  0
  3 92  1  0  0  0
  4  5  1  0  0  0
  4 93  1  0  0  0
  4 94  1  0  0  0
  5  6  1  0  0  0
  5 26  1  0  0  0
  5 95  1  0  0  0
  6 25  1  0  0  0
  6 96  1  0  0  0
  6 97  1  0  0  0
  7  8  2  0  0  0
  7 26  1  0  0  0
  7 29  1  0  0  0
  8  9  1  0  0  0
  8 22  1  0  0  0
  9 10  1  0  0  0
  9 27  2  0  0  0
 10 11  2  0  0  0
 10 15  1  0  0  0
 11 12  1  0  0  0
 11 98  1  0  0  0
 12 13  2  0  0  0
 12 99  1  0  0  0
 13 14  1  0  0  0
 13 31  1  0  0  0
 14 15  2  0  0  0
 14100  1  0  0  0
 15101  1  0  0  0
 16 17  2  0  0  0
 16 21  1  0  0  0
 16 31  1  0  0  0
 17 18  1  0  0  0
 17102  1  0  0  0
 18 19  2  0  0  0
 18103  1  0  0  0
 19 20  1  0  0  0
 19 24  1  0  0  0
 20 21  2  0  0  0
 20104  1  0  0  0
 21 23  1  0  0  0
 22 28  1  0  0  0
 22 32  2  0  0  0
 26 27  1  0  0  0
 28105  1  0  0  0
 28106  1  0  0  0
 29107  1  0  0  0
 29108  1  0  0  0
 33 34  1  0  0  0
 33 66  1  0  0  0
 33 70  2  0  0  0
 34 36  1  0  0  0
 34 59  1  0  0  0
 34109  1  0  0  0
 35 44  2  0  0  0
 35 45  1  0  0  0
 35 68  1  0  0  0
 36 56  1  0  0  0
 36110  1  0  0  0
 37 39  1  0  0  0
 37 47  1  0  0  0
 37 66  1  0  0  0
 37111  1  0  0  0
 38 43  2  0  0  0
 38 46  1  0  0  0
 38 47  1  0  0  0
 39 64  1  0  0  0
 39 67  2  0  0  0
 40 52  1  0  0  0
 40 53  2  0  0  0
 40 58  1  0  0  0
 41112  1  0  0  0
 41113  1  0  0  0
 41114  1  0  0  0
 41 48  1  0  0  0
 42 43  1  0  0  0
 42 66  1  0  0  0
 42115  1  0  0  0
 42116  1  0  0  0
 43 44  1  0  0  0
 44117  1  0  0  0
 45 46  2  0  0  0
 45118  1  0  0  0
 46119  1  0  0  0
 47120  1  0  0  0
 47121  1  0  0  0
 48 56  1  0  0  0
 48 65  1  0  0  0
 48122  1  0  0  0
 49 50  1  0  0  0
 49 53  1  0  0  0
 49 64  1  0  0  0
 49123  1  0  0  0
 50 51  1  0  0  0
 50124  1  0  0  0
 50125  1  0  0  0
 51 52  1  0  0  0
 51126  1  0  0  0
 51127  1  0  0  0
 52128  1  0  0  0
 52129  1  0  0  0
 53 54  1  0  0  0
 54 55  2  0  0  0
 54130  1  0  0  0
 55 57  1  0  0  0
 55131  1  0  0  0
 56 69  2  0  0  0
 57 58  2  0  0  0
 57132  1  0  0  0
 58133  1  0  0  0
 59 60  1  0  0  0
 59 61  1  0  0  0
 59 62  1  0  0  0
 60134  1  0  0  0
 60135  1  0  0  0
 60136  1  0  0  0
 61137  1  0  0  0
 61138  1  0  0  0
 61139  1  0  0  0
 62140  1  0  0  0
 62141  1  0  0  0
 62142  1  0  0  0
 63 65  1  0  0  0
 63143  1  0  0  0
 63144  1  0  0  0
 63145  1  0  0  0
 64146  1  0  0  0
 65147  1  0  0  0
 68 77  1  0  0  0
 71 74  2  0  0  0
 71 75  1  0  0  0
 71148  1  0  0  0
 72 74  1  0  0  0
 72 76  2  0  0  0
 72149  1  0  0  0
 73 75  2  0  0  0
 73 76  1  0  0  0
 73150  1  0  0  0
 74 80  1  0  0  0
 75 81  1  0  0  0
 76 82  1  0  0  0
 77 78  2  0  0  0
 77151  1  0  0  0
 78 79  1  0  0  0
 78 85  1  0  0  0
 79 82  1  0  0  0
 79 84  2  0  0  0
 80 83  1  0  0  0
 80152  1  0  0  0
 80153  1  0  0  0
 81 86  1  0  0  0
 81 87  1  0  0  0
 81 88  1  0  0  0
 82154  1  0  0  0
 83155  1  0  0  0
 85156  1  0  0  0
M  ISO  4   1 100  68 101  77 101  83 100
M  END
> <chiral flag>
0

> <version>
0

> <s_m_source_file>
/data/baiqing/PycharmProjects/Reinvent-master-3.2/result/LINK_invent/BTK/process_docking_weight1_custom_product_contain_oxygen_bond_distance_aromatic_linkinvent_7_9_3/rearranged_h_0167.sdf

> <i_m_source_file_index>
54

> <r_mmod_Potential_Energy-OPLS-2005>
-68.1969909667969

> <r_mmod_Stretch_Energy-OPLS-2005>
63.9267692565918

> <r_mmod_Bend_Energy-OPLS-2005>
123.904968261719

> <r_mmod_Torsional_Energy-OPLS-2005>
224.005935668945

> <r_mmod_Improper_Torsional_Energy-OPLS-2005>
5.9486141204834

> <r_mmod_Van_der_Waal_Energy-OPLS-2005>
147.47834777832

> <r_mmod_Electrostatic_Energy-OPLS-2005>
-427.449188232422

> <r_mmod_Solvation_Energy-OPLS-2005>
-242.495544433594

> <b_mmod_Minimization_Converged-OPLS-2005>
0

> <r_mmod_RMS_Derivative-OPLS-2005>
3.41899847984314

$$$$
55
                    3D
 Structure written by MMmdl.
154162  0  0  1  0            999 V2000
  -30.7107  -14.5148   20.5474 C   0  0  0  0  0  0
  -30.4166  -12.3267   19.4385 C   0  0  0  0  0  0
  -29.4953  -12.4999   18.2142 C   0  0  0  0  0  0
  -28.0180  -12.3564   18.6268 C   0  0  0  0  0  0
  -27.6564  -13.2151   19.8687 C   0  0  2  0  0  0
  -28.6996  -13.0436   20.9972 C   0  0  0  0  0  0
  -25.2566  -13.8176   20.5687 C   0  0  0  0  0  0
  -24.1830  -13.0443   20.9191 C   0  0  0  0  0  0
  -24.6393  -11.6912   20.8740 C   0  0  0  0  0  0
  -23.9062  -10.4294   21.0404 C   0  0  0  0  0  0
  -24.3615   -9.4211   21.9181 C   0  0  0  0  0  0
  -23.6292   -8.2245   22.0751 C   0  0  0  0  0  0
  -22.4275   -8.0281   21.3543 C   0  0  0  0  0  0
  -21.9908   -9.0254   20.4647 C   0  0  0  0  0  0
  -22.7234  -10.2135   20.3053 C   0  0  0  0  0  0
  -21.6854   -6.0734   22.5278 C   0  0  0  0  0  0
  -21.4014   -6.5637   23.8212 C   0  0  0  0  0  0
  -21.3659   -5.6790   24.9175 C   0  0  0  0  0  0
  -21.6044   -4.3054   24.7225 C   0  0  0  0  0  0
  -21.8820   -3.8146   23.4348 C   0  0  0  0  0  0
  -21.9195   -4.6961   22.3403 C   0  0  0  0  0  0
  -22.7851  -13.5235   21.1850 C   0  0  0  0  0  0
  -22.1664   -4.2147   21.0981 F   0  0  0  0  0  0
  -21.5629   -3.4538   25.7739 F   0  0  0  0  0  0
  -30.0260  -13.3404   20.4351 N   0  0  0  0  0  0
  -26.3001  -12.9359   20.3347 N   0  0  0  0  0  0
  -25.9323  -11.6513   20.5766 N   0  0  0  0  0  0
  -22.0492  -12.8227   22.0406 N   0  0  0  0  0  0
  -25.4280  -15.1894   20.4083 N   0  0  0  0  0  0
  -31.8493  -14.6376   20.0907 O   0  0  0  0  0  0
  -21.6640   -6.8877   21.4240 O   0  0  0  0  0  0
  -22.3539  -14.5542   20.6698 O   0  0  0  0  0  0
  -24.6179  -31.8664   23.2091 C   0  0  0  0  0  0
  -25.9060  -32.4816   23.8394 C   0  0  1  0  0  0
  -27.2259  -27.4076   20.1012 C   0  0  0  0  0  0
  -25.5906  -33.8614   24.2324 N   0  0  0  0  0  0
  -23.4080  -30.4913   21.5494 C   0  0  2  0  0  0
  -24.8562  -28.9614   20.1073 C   0  0  0  0  0  0
  -22.7434  -29.4651   22.4963 C   0  0  0  0  0  0
  -18.0278  -28.1379   22.8490 C   0  0  0  0  0  0
  -24.1487  -36.7309   23.2638 C   0  0  0  0  0  0
  -25.9412  -30.8247   21.3680 C   0  0  0  0  0  0
  -26.0197  -29.4596   20.7096 C   0  0  0  0  0  0
  -27.2117  -28.6904   20.7042 C   0  0  0  0  0  0
  -26.0497  -26.9425   19.4735 C   0  0  0  0  0  0
  -24.8677  -27.7036   19.4830 C   0  0  0  0  0  0
  -23.6184  -29.8292   20.1621 C   0  0  0  0  0  0
  -25.4108  -36.3108   24.0338 C   0  0  1  0  0  0
  -20.5873  -28.3672   23.1305 C   0  0  2  0  0  0
  -20.6768  -26.9404   22.5417 C   0  0  0  0  0  0
  -19.5747  -26.6387   21.5212 C   0  0  0  0  0  0
  -18.1925  -26.7926   22.1622 C   0  0  0  0  0  0
  -19.1529  -28.8841   23.2895 C   0  0  0  0  0  0
  -18.9455  -30.1446   23.8908 C   0  0  0  0  0  0
  -17.6458  -30.6585   24.0565 C   0  0  0  0  0  0
  -25.9036  -34.9473   23.5127 C   0  0  0  0  0  0
  -16.5348  -29.9087   23.6327 C   0  0  0  0  0  0
  -16.7267  -28.6504   23.0349 C   0  0  0  0  0  0
  -26.4477  -31.6598   25.0728 C   0  0  0  0  0  0
  -25.3737  -31.3713   26.1474 C   0  0  0  0  0  0
  -27.0305  -30.3034   24.6120 C   0  0  0  0  0  0
  -27.6054  -32.4315   25.7488 C   0  0  0  0  0  0
  -27.5582  -37.1808   24.8464 C   0  0  0  0  0  0
  -21.4156  -29.3036   22.3706 N   0  0  0  0  0  0
  -26.4293  -37.3793   23.9411 N   0  0  0  0  0  0
  -24.6739  -31.0747   22.1002 N   0  0  0  0  0  0
  -23.4193  -28.8185   23.3010 O   0  0  0  0  0  0
  -28.3255  -26.5677   20.1575 O   0  0  0  0  0  0
  -26.5598  -34.8924   22.4689 O   0  0  0  0  0  0
  -23.5363  -32.1424   23.7469 O   0  0  0  0  0  0
  -32.1926  -18.6774   21.3303 C   0  0  0  0  0  0
  -31.2274  -19.7009   21.3500 C   0  0  0  0  0  0
  -31.8065  -17.3279   21.2265 C   0  0  0  0  0  0
  -29.4738  -18.0141   21.1293 C   0  0  0  0  0  0
  -29.8545  -19.3870   21.2587 C   0  0  0  0  0  0
  -30.4404  -16.9645   21.1102 C   0  0  0  0  0  0
  -28.0630  -25.3236   20.7190 C   0  0  0  0  0  0
  -28.8539  -20.4780   21.4042 C   0  0  0  0  0  0
  -28.7275  -24.1621   20.4864 C   0  0  0  0  0  0
  -28.2556  -22.9289   21.1430 C   0  0  0  0  0  0
  -30.0185  -15.5821   21.0244 N   0  0  0  0  0  0
  -29.0634  -21.7408   20.9220 N   0  0  0  0  0  0
  -27.7449  -20.1751   22.0897 N   0  3  0  0  0  0
  -27.2415  -22.8638   21.8505 O   0  0  0  0  0  0
  -29.7883  -24.1213   19.6667 O   0  0  0  0  0  0
  -31.4624  -12.4089   19.1376 H   0  0  0  0  0  0
  -30.3092  -11.3262   19.8605 H   0  0  0  0  0  0
  -29.7425  -11.7628   17.4490 H   0  0  0  0  0  0
  -29.6601  -13.4790   17.7613 H   0  0  0  0  0  0
  -27.8377  -11.3023   18.8413 H   0  0  0  0  0  0
  -27.3663  -12.6108   17.7899 H   0  0  0  0  0  0
  -27.6868  -14.2556   19.5450 H   0  0  0  0  0  0
  -28.6831  -12.0224   21.3810 H   0  0  0  0  0  0
  -28.4608  -13.6825   21.8486 H   0  0  0  0  0  0
  -25.2762   -9.5689   22.4752 H   0  0  0  0  0  0
  -24.0006   -7.4637   22.7468 H   0  0  0  0  0  0
  -21.0840   -8.8773   19.8953 H   0  0  0  0  0  0
  -22.3691  -10.9672   19.6161 H   0  0  0  0  0  0
  -21.2004   -7.6144   23.9714 H   0  0  0  0  0  0
  -21.1479   -6.0521   25.9078 H   0  0  0  0  0  0
  -22.0598   -2.7608   23.2850 H   0  0  0  0  0  0
  -22.4102  -11.9885   22.4793 H   0  0  0  0  0  0
  -21.1109  -13.1254   22.2608 H   0  0  0  0  0  0
  -24.6571  -15.8415   20.5047 H   0  0  0  0  0  0
  -26.2703  -15.6236   20.0531 H   0  0  0  0  0  0
  -26.7133  -32.5523   23.1158 H   0  0  0  0  0  0
  -25.0062  -33.9776   25.0474 H   0  0  0  0  0  0
  -22.6976  -31.3092   21.4114 H   0  0  0  0  0  0
  -23.3748  -35.9644   23.3310 H   0  0  0  0  0  0
  -24.3583  -36.8914   22.2051 H   0  0  0  0  0  0
  -23.7239  -37.6518   23.6645 H   0  0  0  0  0  0
  -26.0601  -31.5929   20.6027 H   0  0  0  0  0  0
  -26.8261  -30.8745   21.9906 H   0  0  0  0  0  0
  -28.1049  -29.0602   21.1879 H   0  0  0  0  0  0
  -26.0401  -25.9719   18.9975 H   0  0  0  0  0  0
  -23.9752  -27.3158   19.0113 H   0  0  0  0  0  0
  -23.7273  -30.6073   19.4057 H   0  0  0  0  0  0
  -22.7418  -29.2514   19.8638 H   0  0  0  0  0  0
  -25.1282  -36.1974   25.0830 H   0  0  0  0  0  0
  -20.9965  -28.3242   24.1426 H   0  0  0  0  0  0
  -20.5671  -26.2278   23.3607 H   0  0  0  0  0  0
  -21.6639  -26.7447   22.1210 H   0  0  0  0  0  0
  -19.6910  -25.6301   21.1234 H   0  0  0  0  0  0
  -19.6687  -27.3203   20.6746 H   0  0  0  0  0  0
  -17.4196  -26.6677   21.4022 H   0  0  0  0  0  0
  -18.0324  -26.0065   22.9015 H   0  0  0  0  0  0
  -19.7932  -30.7257   24.2286 H   0  0  0  0  0  0
  -17.5015  -31.6266   24.5165 H   0  0  0  0  0  0
  -15.5349  -30.2994   23.7645 H   0  0  0  0  0  0
  -15.8666  -28.0827   22.7060 H   0  0  0  0  0  0
  -24.5909  -30.7060   25.7812 H   0  0  0  0  0  0
  -24.8930  -32.2872   26.4919 H   0  0  0  0  0  0
  -25.8089  -30.8885   27.0233 H   0  0  0  0  0  0
  -26.2852  -29.6801   24.1165 H   0  0  0  0  0  0
  -27.4052  -29.7267   25.4587 H   0  0  0  0  0  0
  -27.8700  -30.4340   23.9288 H   0  0  0  0  0  0
  -27.2677  -33.3607   26.2090 H   0  0  0  0  0  0
  -28.3849  -32.6889   25.0304 H   0  0  0  0  0  0
  -28.0738  -31.8424   26.5383 H   0  0  0  0  0  0
  -28.2604  -38.0102   24.7516 H   0  0  0  0  0  0
  -28.1071  -36.2635   24.6279 H   0  0  0  0  0  0
  -27.2304  -37.1451   25.8869 H   0  0  0  0  0  0
  -20.9315  -29.8763   21.6933 H   0  0  0  0  0  0
  -26.0182  -38.2872   24.1414 H   0  0  0  0  0  0
  -33.2411  -18.9249   21.4207 H   0  0  0  0  0  0
  -31.5567  -20.7237   21.4753 H   0  0  0  0  0  0
  -32.5902  -16.5869   21.2570 H   0  0  0  0  0  0
  -28.4245  -17.7623   21.0607 H   0  0  0  0  0  0
  -27.2163  -25.3624   21.3956 H   0  0  0  0  0  0
  -29.0594  -15.3888   21.2668 H   0  0  0  0  0  0
  -29.8852  -21.8143   20.3431 H   0  0  0  0  0  0
  -27.6403  -19.2765   22.5326 H   0  0  0  0  0  0
  -27.0759  -20.9120   22.2770 H   0  0  0  0  0  0
  -29.9208  -25.0055   19.3479 H   0  0  0  0  0  0
  1 25  1  0  0  0
  1 30  2  0  0  0
  1 81  1  0  0  0
  2  3  1  0  0  0
  2 25  1  0  0  0
  2 86  1  0  0  0
  2 87  1  0  0  0
  3  4  1  0  0  0
  3 88  1  0  0  0
  3 89  1  0  0  0
  4  5  1  0  0  0
  4 90  1  0  0  0
  4 91  1  0  0  0
  5  6  1  0  0  0
  5 26  1  0  0  0
  5 92  1  0  0  0
  6 25  1  0  0  0
  6 93  1  0  0  0
  6 94  1  0  0  0
  7  8  2  0  0  0
  7 26  1  0  0  0
  7 29  1  0  0  0
  8  9  1  0  0  0
  8 22  1  0  0  0
  9 10  1  0  0  0
  9 27  2  0  0  0
 10 11  2  0  0  0
 10 15  1  0  0  0
 11 12  1  0  0  0
 11 95  1  0  0  0
 12 13  2  0  0  0
 12 96  1  0  0  0
 13 14  1  0  0  0
 13 31  1  0  0  0
 14 15  2  0  0  0
 14 97  1  0  0  0
 15 98  1  0  0  0
 16 17  2  0  0  0
 16 21  1  0  0  0
 16 31  1  0  0  0
 17 18  1  0  0  0
 17 99  1  0  0  0
 18 19  2  0  0  0
 18100  1  0  0  0
 19 20  1  0  0  0
 19 24  1  0  0  0
 20 21  2  0  0  0
 20101  1  0  0  0
 21 23  1  0  0  0
 22 28  1  0  0  0
 22 32  2  0  0  0
 26 27  1  0  0  0
 28102  1  0  0  0
 28103  1  0  0  0
 29104  1  0  0  0
 29105  1  0  0  0
 33 34  1  0  0  0
 33 66  1  0  0  0
 33 70  2  0  0  0
 34 36  1  0  0  0
 34 59  1  0  0  0
 34106  1  0  0  0
 35 44  2  0  0  0
 35 45  1  0  0  0
 35 68  1  0  0  0
 36 56  1  0  0  0
 36107  1  0  0  0
 37 39  1  0  0  0
 37 47  1  0  0  0
 37 66  1  0  0  0
 37108  1  0  0  0
 38 43  2  0  0  0
 38 46  1  0  0  0
 38 47  1  0  0  0
 39 64  1  0  0  0
 39 67  2  0  0  0
 40 52  1  0  0  0
 40 53  2  0  0  0
 40 58  1  0  0  0
 41109  1  0  0  0
 41110  1  0  0  0
 41111  1  0  0  0
 41 48  1  0  0  0
 42 43  1  0  0  0
 42 66  1  0  0  0
 42112  1  0  0  0
 42113  1  0  0  0
 43 44  1  0  0  0
 44114  1  0  0  0
 45 46  2  0  0  0
 45115  1  0  0  0
 46116  1  0  0  0
 47117  1  0  0  0
 47118  1  0  0  0
 48 56  1  0  0  0
 48 65  1  0  0  0
 48119  1  0  0  0
 49 50  1  0  0  0
 49 53  1  0  0  0
 49 64  1  0  0  0
 49120  1  0  0  0
 50 51  1  0  0  0
 50121  1  0  0  0
 50122  1  0  0  0
 51 52  1  0  0  0
 51123  1  0  0  0
 51124  1  0  0  0
 52125  1  0  0  0
 52126  1  0  0  0
 53 54  1  0  0  0
 54 55  2  0  0  0
 54127  1  0  0  0
 55 57  1  0  0  0
 55128  1  0  0  0
 56 69  2  0  0  0
 57 58  2  0  0  0
 57129  1  0  0  0
 58130  1  0  0  0
 59 60  1  0  0  0
 59 61  1  0  0  0
 59 62  1  0  0  0
 60131  1  0  0  0
 60132  1  0  0  0
 60133  1  0  0  0
 61134  1  0  0  0
 61135  1  0  0  0
 61136  1  0  0  0
 62137  1  0  0  0
 62138  1  0  0  0
 62139  1  0  0  0
 63 65  1  0  0  0
 63140  1  0  0  0
 63141  1  0  0  0
 63142  1  0  0  0
 64143  1  0  0  0
 65144  1  0  0  0
 68 77  1  0  0  0
 71 72  2  0  0  0
 71 73  1  0  0  0
 71145  1  0  0  0
 72 75  1  0  0  0
 72146  1  0  0  0
 73 76  2  0  0  0
 73147  1  0  0  0
 74 75  2  0  0  0
 74 76  1  0  0  0
 74148  1  0  0  0
 75 78  1  0  0  0
 76 81  1  0  0  0
 77 79  2  0  0  0
 77149  1  0  0  0
 78 82  1  0  0  0
 78 83  2  0  0  0
 79 80  1  0  0  0
 79 85  1  0  0  0
 80 82  1  0  0  0
 80 84  2  0  0  0
 81150  1  0  0  0
 82151  1  0  0  0
 83152  1  0  0  0
 83153  1  0  0  0
 85154  1  0  0  0
M  CHG  1  83   1
M  ISO  4   1 100  68 101  77 101  81 100
M  END
> <chiral flag>
0

> <version>
0

> <s_m_source_file>
/data/baiqing/PycharmProjects/Reinvent-master-3.2/result/LINK_invent/BTK/process_docking_weight1_custom_product_contain_oxygen_bond_distance_aromatic_linkinvent_7_9_3/rearranged_h_0167.sdf

> <i_m_source_file_index>
55

> <r_mmod_Potential_Energy-OPLS-2005>
-371.102722167969

> <r_mmod_Stretch_Energy-OPLS-2005>
48.6205368041992

> <r_mmod_Bend_Energy-OPLS-2005>
107.962890625

> <r_mmod_Torsional_Energy-OPLS-2005>
203.132385253906

> <r_mmod_Improper_Torsional_Energy-OPLS-2005>
4.75510597229004

> <r_mmod_Van_der_Waal_Energy-OPLS-2005>
177.193298339844

> <r_mmod_Electrostatic_Energy-OPLS-2005>
-507.842681884766

> <r_mmod_Solvation_Energy-OPLS-2005>
-427.595397949219

> <b_mmod_Minimization_Converged-OPLS-2005>
0

> <r_mmod_RMS_Derivative-OPLS-2005>
0.314067423343658

$$$$
56
                    3D
 Structure written by MMmdl.
158166  0  0  1  0            999 V2000
  -30.7403  -14.5453   20.5962 C   0  0  0  0  0  0
  -30.4056  -12.3659   19.4571 C   0  0  0  0  0  0
  -29.4940  -12.5211   18.2260 C   0  0  0  0  0  0
  -28.0218  -12.3586   18.6397 C   0  0  0  0  0  0
  -27.6500  -13.2273   19.8715 C   0  0  2  0  0  0
  -28.6895  -13.0991   21.0079 C   0  0  0  0  0  0
  -25.2413  -13.8032   20.5469 C   0  0  0  0  0  0
  -24.1742  -13.0331   20.9098 C   0  0  0  0  0  0
  -24.6393  -11.6842   20.8749 C   0  0  0  0  0  0
  -23.9066  -10.4243   21.0413 C   0  0  0  0  0  0
  -24.3614   -9.4166   21.9192 C   0  0  0  0  0  0
  -23.6288   -8.2206   22.0755 C   0  0  0  0  0  0
  -22.4264   -8.0259   21.3546 C   0  0  0  0  0  0
  -21.9904   -9.0225   20.4640 C   0  0  0  0  0  0
  -22.7236  -10.2101   20.3055 C   0  0  0  0  0  0
  -21.6841   -6.0721   22.5283 C   0  0  0  0  0  0
  -21.4002   -6.5626   23.8218 C   0  0  0  0  0  0
  -21.3666   -5.6782   24.9182 C   0  0  0  0  0  0
  -21.6054   -4.3047   24.7233 C   0  0  0  0  0  0
  -21.8820   -3.8134   23.4354 C   0  0  0  0  0  0
  -21.9190   -4.6951   22.3410 C   0  0  0  0  0  0
  -22.7776  -13.5140   21.1799 C   0  0  0  0  0  0
  -22.1655   -4.2135   21.0986 F   0  0  0  0  0  0
  -21.5646   -3.4534   25.7748 F   0  0  0  0  0  0
  -30.0164  -13.3918   20.4485 N   0  0  0  0  0  0
  -26.2973  -12.9340   20.3387 N   0  0  0  0  0  0
  -25.9355  -11.6483   20.5864 N   0  0  0  0  0  0
  -22.0455  -12.8150   22.0400 N   0  0  0  0  0  0
  -25.3916  -15.1656   20.3546 N   0  0  0  0  0  0
  -31.8256  -14.6915   20.0286 O   0  0  0  0  0  0
  -21.6626   -6.8860   21.4244 O   0  0  0  0  0  0
  -22.3456  -14.5467   20.6689 O   0  0  0  0  0  0
  -24.6188  -31.8633   23.2071 C   0  0  0  0  0  0
  -25.9060  -32.4801   23.8384 C   0  0  1  0  0  0
  -27.2439  -27.3927   20.1217 C   0  0  0  0  0  0
  -25.5899  -33.8601   24.2310 N   0  0  0  0  0  0
  -23.4110  -30.4848   21.5454 C   0  0  2  0  0  0
  -24.8622  -28.9400   20.1182 C   0  0  0  0  0  0
  -22.7443  -29.4639   22.4965 C   0  0  0  0  0  0
  -18.0272  -28.1378   22.8490 C   0  0  0  0  0  0
  -24.1478  -36.7304   23.2643 C   0  0  0  0  0  0
  -25.9430  -30.8179   21.3668 C   0  0  0  0  0  0
  -26.0235  -29.4481   20.7153 C   0  0  0  0  0  0
  -27.2191  -28.6855   20.7056 C   0  0  0  0  0  0
  -26.0659  -26.9038   19.5199 C   0  0  0  0  0  0
  -24.8815  -27.6696   19.5138 C   0  0  0  0  0  0
  -23.6247  -29.8124   20.1625 C   0  0  0  0  0  0
  -25.4103  -36.3103   24.0334 C   0  0  1  0  0  0
  -20.5870  -28.3670   23.1302 C   0  0  2  0  0  0
  -20.6757  -26.9400   22.5419 C   0  0  0  0  0  0
  -19.5741  -26.6378   21.5216 C   0  0  0  0  0  0
  -18.1916  -26.7927   22.1620 C   0  0  0  0  0  0
  -19.1525  -28.8841   23.2890 C   0  0  0  0  0  0
  -18.9455  -30.1443   23.8909 C   0  0  0  0  0  0
  -17.6458  -30.6584   24.0565 C   0  0  0  0  0  0
  -25.9033  -34.9465   23.5121 C   0  0  0  0  0  0
  -16.5346  -29.9087   23.6327 C   0  0  0  0  0  0
  -16.7262  -28.6500   23.0354 C   0  0  0  0  0  0
  -26.4479  -31.6610   25.0739 C   0  0  0  0  0  0
  -25.3741  -31.3722   26.1487 C   0  0  0  0  0  0
  -27.0336  -30.3048   24.6173 C   0  0  0  0  0  0
  -27.6038  -32.4361   25.7499 C   0  0  0  0  0  0
  -27.5577  -37.1803   24.8468 C   0  0  0  0  0  0
  -21.4162  -29.3036   22.3704 N   0  0  0  0  0  0
  -26.4290  -37.3792   23.9407 N   0  0  0  0  0  0
  -24.6753  -31.0714   22.0974 N   0  0  0  0  0  0
  -23.4187  -28.8184   23.3035 O   0  0  0  0  0  0
  -28.3992  -26.6278   20.0962 O   0  0  0  0  0  0
  -26.5609  -34.8925   22.4691 O   0  0  0  0  0  0
  -23.5368  -32.1385   23.7443 O   0  0  0  0  0  0
  -30.1715  -17.9414   21.0461 C   0  0  0  0  0  0
  -29.4258  -19.1658   21.0431 C   0  0  0  0  0  0
  -28.0350  -19.0508   21.2461 C   0  0  0  0  0  0
  -29.5328  -16.6720   21.2220 C   0  0  0  0  0  0
  -27.4879  -17.7713   21.4208 C   0  0  0  0  0  0
  -29.4879  -23.0216   20.4629 C   0  0  0  0  0  0
  -31.0274  -20.7779   22.1490 C   0  0  0  0  0  0
  -28.3284  -24.0419   20.2313 C   0  0  0  0  0  0
  -28.4324  -25.4438   20.9408 C   0  0  0  0  0  0
  -30.1140  -20.5585   20.9261 C   0  0  2  0  0  0
  -28.1882  -16.6175   21.3863 N   0  0  0  0  0  0
  -26.1355  -17.6679   21.6948 N   0  0  0  0  0  0
  -30.3397  -15.5041   21.4680 N   0  0  0  0  0  0
  -29.1969  -21.7237   20.7477 N   0  0  0  0  0  0
  -30.6514  -23.4080   20.3415 O   0  0  0  0  0  0
  -27.2187  -20.1341   21.3165 F   0  0  0  0  0  0
  -31.4543  -12.4354   19.1624 H   0  0  0  0  0  0
  -30.2930  -11.3712   19.8907 H   0  0  0  0  0  0
  -29.7533  -11.7813   17.4673 H   0  0  0  0  0  0
  -29.6478  -13.5006   17.7695 H   0  0  0  0  0  0
  -27.8596  -11.3042   18.8690 H   0  0  0  0  0  0
  -27.3654  -12.5929   17.8013 H   0  0  0  0  0  0
  -27.6657  -14.2651   19.5347 H   0  0  0  0  0  0
  -28.6761  -12.0945   21.4319 H   0  0  0  0  0  0
  -28.4342  -13.7738   21.8260 H   0  0  0  0  0  0
  -25.2759   -9.5649   22.4765 H   0  0  0  0  0  0
  -24.0003   -7.4591   22.7467 H   0  0  0  0  0  0
  -21.0839   -8.8742   19.8935 H   0  0  0  0  0  0
  -22.3697  -10.9644   19.6170 H   0  0  0  0  0  0
  -21.1971   -7.6129   23.9721 H   0  0  0  0  0  0
  -21.1495   -6.0507   25.9088 H   0  0  0  0  0  0
  -22.0593   -2.7593   23.2859 H   0  0  0  0  0  0
  -22.4087  -11.9805   22.4765 H   0  0  0  0  0  0
  -21.1076  -13.1164   22.2627 H   0  0  0  0  0  0
  -24.6197  -15.8170   20.4388 H   0  0  0  0  0  0
  -26.2879  -15.6351   20.2691 H   0  0  0  0  0  0
  -26.7134  -32.5505   23.1146 H   0  0  0  0  0  0
  -25.0073  -33.9757   25.0471 H   0  0  0  0  0  0
  -22.7021  -31.3027   21.4013 H   0  0  0  0  0  0
  -23.3747  -35.9635   23.3325 H   0  0  0  0  0  0
  -24.3569  -36.8911   22.2059 H   0  0  0  0  0  0
  -23.7224  -37.6504   23.6655 H   0  0  0  0  0  0
  -26.0665  -31.5839   20.6001 H   0  0  0  0  0  0
  -26.8247  -30.8680   21.9939 H   0  0  0  0  0  0
  -28.1185  -29.0776   21.1585 H   0  0  0  0  0  0
  -26.0690  -25.9281   19.0541 H   0  0  0  0  0  0
  -23.9893  -27.2748   19.0460 H   0  0  0  0  0  0
  -23.7395  -30.5858   19.4028 H   0  0  0  0  0  0
  -22.7474  -29.2360   19.8635 H   0  0  0  0  0  0
  -25.1279  -36.1973   25.0828 H   0  0  0  0  0  0
  -20.9950  -28.3248   24.1431 H   0  0  0  0  0  0
  -20.5664  -26.2281   23.3611 H   0  0  0  0  0  0
  -21.6620  -26.7446   22.1208 H   0  0  0  0  0  0
  -19.6901  -25.6292   21.1242 H   0  0  0  0  0  0
  -19.6676  -27.3190   20.6749 H   0  0  0  0  0  0
  -17.4182  -26.6684   21.4018 H   0  0  0  0  0  0
  -18.0307  -26.0067   22.9013 H   0  0  0  0  0  0
  -19.7934  -30.7248   24.2286 H   0  0  0  0  0  0
  -17.5017  -31.6269   24.5159 H   0  0  0  0  0  0
  -15.5345  -30.2989   23.7652 H   0  0  0  0  0  0
  -15.8662  -28.0821   22.7071 H   0  0  0  0  0  0
  -24.5884  -30.7110   25.7819 H   0  0  0  0  0  0
  -24.8964  -32.2878   26.4982 H   0  0  0  0  0  0
  -25.8078  -30.8848   27.0223 H   0  0  0  0  0  0
  -26.2899  -29.6765   24.1262 H   0  0  0  0  0  0
  -27.4121  -29.7340   25.4661 H   0  0  0  0  0  0
  -27.8723  -30.4355   23.9331 H   0  0  0  0  0  0
  -27.2644  -33.3653   26.2086 H   0  0  0  0  0  0
  -28.3832  -32.6944   25.0321 H   0  0  0  0  0  0
  -28.0732  -31.8499   26.5408 H   0  0  0  0  0  0
  -28.2599  -38.0094   24.7513 H   0  0  0  0  0  0
  -28.1061  -36.2624   24.6292 H   0  0  0  0  0  0
  -27.2296  -37.1463   25.8871 H   0  0  0  0  0  0
  -20.9329  -29.8778   21.6934 H   0  0  0  0  0  0
  -26.0184  -38.2871   24.1413 H   0  0  0  0  0  0
  -31.2474  -17.9889   20.9507 H   0  0  0  0  0  0
  -31.5980  -21.7020   22.0729 H   0  0  0  0  0  0
  -31.7524  -19.9701   22.2543 H   0  0  0  0  0  0
  -30.4472  -20.8234   23.0706 H   0  0  0  0  0  0
  -27.3870  -23.5702   20.5135 H   0  0  0  0  0  0
  -28.2607  -24.2055   19.1564 H   0  0  0  0  0  0
  -29.3643  -25.5000   21.5046 H   0  0  0  0  0  0
  -27.6528  -25.5153   21.7021 H   0  0  0  0  0  0
  -30.7421  -20.5138   20.0353 H   0  0  0  0  0  0
  -25.6248  -18.5123   21.9201 H   0  0  0  0  0  0
  -25.7568  -16.8009   22.0511 H   0  0  0  0  0  0
  -31.1890  -15.8112   21.9133 H   0  0  0  0  0  0
  -28.2168  -21.4741   20.8370 H   0  0  0  0  0  0
  1 25  1  0  0  0
  1 30  2  0  0  0
  1 83  1  0  0  0
  2  3  1  0  0  0
  2 25  1  0  0  0
  2 87  1  0  0  0
  2 88  1  0  0  0
  3  4  1  0  0  0
  3 89  1  0  0  0
  3 90  1  0  0  0
  4  5  1  0  0  0
  4 91  1  0  0  0
  4 92  1  0  0  0
  5  6  1  0  0  0
  5 26  1  0  0  0
  5 93  1  0  0  0
  6 25  1  0  0  0
  6 94  1  0  0  0
  6 95  1  0  0  0
  7  8  2  0  0  0
  7 26  1  0  0  0
  7 29  1  0  0  0
  8  9  1  0  0  0
  8 22  1  0  0  0
  9 10  1  0  0  0
  9 27  2  0  0  0
 10 11  2  0  0  0
 10 15  1  0  0  0
 11 12  1  0  0  0
 11 96  1  0  0  0
 12 13  2  0  0  0
 12 97  1  0  0  0
 13 14  1  0  0  0
 13 31  1  0  0  0
 14 15  2  0  0  0
 14 98  1  0  0  0
 15 99  1  0  0  0
 16 17  2  0  0  0
 16 21  1  0  0  0
 16 31  1  0  0  0
 17 18  1  0  0  0
 17100  1  0  0  0
 18 19  2  0  0  0
 18101  1  0  0  0
 19 20  1  0  0  0
 19 24  1  0  0  0
 20 21  2  0  0  0
 20102  1  0  0  0
 21 23  1  0  0  0
 22 28  1  0  0  0
 22 32  2  0  0  0
 26 27  1  0  0  0
 28103  1  0  0  0
 28104  1  0  0  0
 29105  1  0  0  0
 29106  1  0  0  0
 33 34  1  0  0  0
 33 66  1  0  0  0
 33 70  2  0  0  0
 34 36  1  0  0  0
 34 59  1  0  0  0
 34107  1  0  0  0
 35 44  2  0  0  0
 35 45  1  0  0  0
 35 68  1  0  0  0
 36 56  1  0  0  0
 36108  1  0  0  0
 37 39  1  0  0  0
 37 47  1  0  0  0
 37 66  1  0  0  0
 37109  1  0  0  0
 38 43  2  0  0  0
 38 46  1  0  0  0
 38 47  1  0  0  0
 39 64  1  0  0  0
 39 67  2  0  0  0
 40 52  1  0  0  0
 40 53  2  0  0  0
 40 58  1  0  0  0
 41110  1  0  0  0
 41111  1  0  0  0
 41112  1  0  0  0
 41 48  1  0  0  0
 42 43  1  0  0  0
 42 66  1  0  0  0
 42113  1  0  0  0
 42114  1  0  0  0
 43 44  1  0  0  0
 44115  1  0  0  0
 45 46  2  0  0  0
 45116  1  0  0  0
 46117  1  0  0  0
 47118  1  0  0  0
 47119  1  0  0  0
 48 56  1  0  0  0
 48 65  1  0  0  0
 48120  1  0  0  0
 49 50  1  0  0  0
 49 53  1  0  0  0
 49 64  1  0  0  0
 49121  1  0  0  0
 50 51  1  0  0  0
 50122  1  0  0  0
 50123  1  0  0  0
 51 52  1  0  0  0
 51124  1  0  0  0
 51125  1  0  0  0
 52126  1  0  0  0
 52127  1  0  0  0
 53 54  1  0  0  0
 54 55  2  0  0  0
 54128  1  0  0  0
 55 57  1  0  0  0
 55129  1  0  0  0
 56 69  2  0  0  0
 57 58  2  0  0  0
 57130  1  0  0  0
 58131  1  0  0  0
 59 60  1  0  0  0
 59 61  1  0  0  0
 59 62  1  0  0  0
 60132  1  0  0  0
 60133  1  0  0  0
 60134  1  0  0  0
 61135  1  0  0  0
 61136  1  0  0  0
 61137  1  0  0  0
 62138  1  0  0  0
 62139  1  0  0  0
 62140  1  0  0  0
 63 65  1  0  0  0
 63141  1  0  0  0
 63142  1  0  0  0
 63143  1  0  0  0
 64144  1  0  0  0
 65145  1  0  0  0
 68 79  1  0  0  0
 71 72  2  0  0  0
 71 74  1  0  0  0
 71146  1  0  0  0
 72 73  1  0  0  0
 72 80  1  0  0  0
 73 75  2  0  0  0
 73 86  1  0  0  0
 74 81  2  0  0  0
 74 83  1  0  0  0
 75 81  1  0  0  0
 75 82  1  0  0  0
 76 78  1  0  0  0
 76 84  1  0  0  0
 76 85  2  0  0  0
 77147  1  0  0  0
 77148  1  0  0  0
 77149  1  0  0  0
 77 80  1  0  0  0
 78 79  1  0  0  0
 78150  1  0  0  0
 78151  1  0  0  0
 79152  1  0  0  0
 79153  1  0  0  0
 80 84  1  0  0  0
 80154  1  0  0  0
 82155  1  0  0  0
 82156  1  0  0  0
 83157  1  0  0  0
 84158  1  0  0  0
M  ISO  4   1 100  68 101  79 101  83 100
M  END
> <chiral flag>
0

> <version>
0

> <s_m_source_file>
/data/baiqing/PycharmProjects/Reinvent-master-3.2/result/LINK_invent/BTK/process_docking_weight1_custom_product_contain_oxygen_bond_distance_aromatic_linkinvent_7_9_3/rearranged_h_0167.sdf

> <i_m_source_file_index>
56

> <r_mmod_Potential_Energy-OPLS-2005>
-249.674575805664

> <r_mmod_Stretch_Energy-OPLS-2005>
55.4037780761719

> <r_mmod_Bend_Energy-OPLS-2005>
143.135971069336

> <r_mmod_Torsional_Energy-OPLS-2005>
278.627716064453

> <r_mmod_Improper_Torsional_Energy-OPLS-2005>
11.4158420562744

> <r_mmod_Van_der_Waal_Energy-OPLS-2005>
147.667724609375

> <r_mmod_Electrostatic_Energy-OPLS-2005>
-690.163818359375

> <r_mmod_Solvation_Energy-OPLS-2005>
-219.561264038086

> <b_mmod_Minimization_Converged-OPLS-2005>
0

> <r_mmod_RMS_Derivative-OPLS-2005>
1.4662184715271

$$$$
57
                    3D
 Structure written by MMmdl.
157165  0  0  1  0            999 V2000
  -30.6600  -14.5661   20.5082 C   0  0  0  0  0  0
  -30.4328  -12.3498   19.4301 C   0  0  0  0  0  0
  -29.5066  -12.4977   18.2048 C   0  0  0  0  0  0
  -28.0249  -12.3586   18.6138 C   0  0  0  0  0  0
  -27.6547  -13.2104   19.8577 C   0  0  2  0  0  0
  -28.7011  -13.0485   20.9823 C   0  0  0  0  0  0
  -25.2577  -13.8154   20.5681 C   0  0  0  0  0  0
  -24.1834  -13.0439   20.9188 C   0  0  0  0  0  0
  -24.6373  -11.6903   20.8708 C   0  0  0  0  0  0
  -23.9026  -10.4304   21.0395 C   0  0  0  0  0  0
  -24.3590   -9.4236   21.9179 C   0  0  0  0  0  0
  -23.6282   -8.2265   22.0751 C   0  0  0  0  0  0
  -22.4265   -8.0289   21.3546 C   0  0  0  0  0  0
  -21.9881   -9.0258   20.4651 C   0  0  0  0  0  0
  -22.7194  -10.2145   20.3053 C   0  0  0  0  0  0
  -21.6866   -6.0730   22.5280 C   0  0  0  0  0  0
  -21.4023   -6.5634   23.8214 C   0  0  0  0  0  0
  -21.3651   -5.6786   24.9180 C   0  0  0  0  0  0
  -21.6043   -4.3048   24.7235 C   0  0  0  0  0  0
  -21.8816   -3.8138   23.4357 C   0  0  0  0  0  0
  -21.9200   -4.6955   22.3413 C   0  0  0  0  0  0
  -22.7872  -13.5270   21.1860 C   0  0  0  0  0  0
  -22.1673   -4.2138   21.0990 F   0  0  0  0  0  0
  -21.5620   -3.4534   25.7751 F   0  0  0  0  0  0
  -30.0175  -13.3658   20.4101 N   0  0  0  0  0  0
  -26.2993  -12.9315   20.3271 N   0  0  0  0  0  0
  -25.9296  -11.6479   20.5683 N   0  0  0  0  0  0
  -22.0473  -12.8296   22.0401 N   0  0  0  0  0  0
  -25.4260  -15.1884   20.4128 N   0  0  0  0  0  0
  -31.8427  -14.7064   20.1885 O   0  0  0  0  0  0
  -21.6643   -6.8877   21.4244 O   0  0  0  0  0  0
  -22.3599  -14.5597   20.6724 O   0  0  0  0  0  0
  -24.6162  -31.8631   23.2062 C   0  0  0  0  0  0
  -25.9058  -32.4789   23.8351 C   0  0  1  0  0  0
  -27.2327  -27.3727   20.1286 C   0  0  0  0  0  0
  -25.5939  -33.8595   24.2291 N   0  0  0  0  0  0
  -23.4079  -30.4855   21.5432 C   0  0  2  0  0  0
  -24.8606  -28.9378   20.1207 C   0  0  0  0  0  0
  -22.7397  -29.4640   22.4916 C   0  0  0  0  0  0
  -18.0284  -28.1400   22.8490 C   0  0  0  0  0  0
  -24.1504  -36.7261   23.2627 C   0  0  0  0  0  0
  -25.9410  -30.8093   21.3677 C   0  0  0  0  0  0
  -26.0232  -29.4375   20.7223 C   0  0  0  0  0  0
  -27.2151  -28.6642   20.7197 C   0  0  0  0  0  0
  -26.0542  -26.9002   19.5164 C   0  0  0  0  0  0
  -24.8729  -27.6674   19.5182 C   0  0  0  0  0  0
  -23.6259  -29.8129   20.1613 C   0  0  0  0  0  0
  -25.4133  -36.3070   24.0310 C   0  0  1  0  0  0
  -20.5868  -28.3689   23.1301 C   0  0  2  0  0  0
  -20.6774  -26.9419   22.5419 C   0  0  0  0  0  0
  -19.5757  -26.6403   21.5212 C   0  0  0  0  0  0
  -18.1937  -26.7946   22.1628 C   0  0  0  0  0  0
  -19.1526  -28.8862   23.2901 C   0  0  0  0  0  0
  -18.9465  -30.1462   23.8912 C   0  0  0  0  0  0
  -17.6472  -30.6606   24.0578 C   0  0  0  0  0  0
  -25.9059  -34.9448   23.5086 C   0  0  0  0  0  0
  -16.5364  -29.9107   23.6341 C   0  0  0  0  0  0
  -16.7278  -28.6530   23.0356 C   0  0  0  0  0  0
  -26.4512  -31.6591   25.0678 C   0  0  0  0  0  0
  -25.3772  -31.3726   26.1416 C   0  0  0  0  0  0
  -27.0307  -30.3012   24.6053 C   0  0  0  0  0  0
  -27.6099  -32.4285   25.7459 C   0  0  0  0  0  0
  -27.5580  -37.1788   24.8465 C   0  0  0  0  0  0
  -21.4116  -29.3043   22.3663 N   0  0  0  0  0  0
  -26.4301  -37.3771   23.9407 N   0  0  0  0  0  0
  -24.6724  -31.0688   22.0979 N   0  0  0  0  0  0
  -23.4144  -28.8146   23.2948 O   0  0  0  0  0  0
  -28.3645  -26.5703   20.1222 O   0  0  0  0  0  0
  -26.5610  -34.8904   22.4633 O   0  0  0  0  0  0
  -23.5352  -32.1437   23.7436 O   0  0  0  0  0  0
  -29.8643  -18.1396   20.3563 C   0  0  0  0  0  0
  -30.4724  -19.3377   20.9197 C   0  0  0  0  0  0
  -30.2160  -16.9422   20.9776 C   0  0  0  0  0  0
  -31.1808  -19.0063   22.0571 C   0  0  0  0  0  0
  -28.5456  -24.0116   20.1810 C   0  0  0  0  0  0
  -29.2611  -22.8229   20.9621 C   0  0  0  0  0  0
  -31.0766  -20.6099   18.8842 C   0  0  0  0  0  0
  -32.4990  -20.0875   18.7110 C   0  0  0  0  0  0
  -28.2973  -25.3582   20.9411 C   0  0  0  0  0  0
  -30.5464  -20.7722   20.3198 C   0  0  1  0  0  0
  -31.8979  -19.8253   22.9218 N   0  0  0  0  0  0
  -29.8508  -15.6490   20.6830 N   0  0  0  0  0  0
  -29.3307  -21.6339   20.3053 N   0  0  0  0  0  0
  -28.1822  -23.8771   19.0056 O   0  0  0  0  0  0
  -29.8099  -23.0022   22.0542 O   0  0  0  0  0  0
  -30.4146  -20.9089   17.8844 O   0  0  0  0  0  0
  -31.2134  -17.2894   22.3623 S   0  0  0  0  0  0
  -31.4779  -12.4595   19.1356 H   0  0  0  0  0  0
  -30.3480  -11.3491   19.8573 H   0  0  0  0  0  0
  -29.7565  -11.7459   17.4566 H   0  0  0  0  0  0
  -29.6718  -13.4643   17.7259 H   0  0  0  0  0  0
  -27.8400  -11.3049   18.8219 H   0  0  0  0  0  0
  -27.3826  -12.6241   17.7735 H   0  0  0  0  0  0
  -27.6762  -14.2478   19.5272 H   0  0  0  0  0  0
  -28.6940  -12.0292   21.3728 H   0  0  0  0  0  0
  -28.4666  -13.6962   21.8285 H   0  0  0  0  0  0
  -25.2738   -9.5750   22.4746 H   0  0  0  0  0  0
  -24.0009   -7.4666   22.7471 H   0  0  0  0  0  0
  -21.0807   -8.8776   19.8965 H   0  0  0  0  0  0
  -22.3640  -10.9687   19.6169 H   0  0  0  0  0  0
  -21.2013   -7.6139   23.9730 H   0  0  0  0  0  0
  -21.1470   -6.0508   25.9084 H   0  0  0  0  0  0
  -22.0593   -2.7598   23.2866 H   0  0  0  0  0  0
  -22.4075  -11.9990   22.4856 H   0  0  0  0  0  0
  -21.1089  -13.1367   22.2533 H   0  0  0  0  0  0
  -24.6491  -15.8307   20.5209 H   0  0  0  0  0  0
  -26.2601  -15.6357   20.0559 H   0  0  0  0  0  0
  -26.7083  -32.5495   23.1073 H   0  0  0  0  0  0
  -25.0217  -33.9767   25.0523 H   0  0  0  0  0  0
  -22.6978  -31.3022   21.3975 H   0  0  0  0  0  0
  -23.3773  -35.9591   23.3314 H   0  0  0  0  0  0
  -24.3579  -36.8855   22.2035 H   0  0  0  0  0  0
  -23.7269  -37.6467   23.6641 H   0  0  0  0  0  0
  -26.0515  -31.5637   20.5879 H   0  0  0  0  0  0
  -26.8293  -30.8724   21.9848 H   0  0  0  0  0  0
  -28.1102  -29.0447   21.1921 H   0  0  0  0  0  0
  -26.0467  -25.9276   19.0452 H   0  0  0  0  0  0
  -23.9775  -27.2696   19.0625 H   0  0  0  0  0  0
  -23.7471  -30.5839   19.3984 H   0  0  0  0  0  0
  -22.7483  -29.2372   19.8604 H   0  0  0  0  0  0
  -25.1322  -36.1911   25.0805 H   0  0  0  0  0  0
  -21.0006  -28.3284   24.1407 H   0  0  0  0  0  0
  -20.5682  -26.2293   23.3603 H   0  0  0  0  0  0
  -21.6641  -26.7463   22.1206 H   0  0  0  0  0  0
  -19.6896  -25.6314   21.1228 H   0  0  0  0  0  0
  -19.6702  -27.3225   20.6748 H   0  0  0  0  0  0
  -17.4205  -26.6703   21.4032 H   0  0  0  0  0  0
  -18.0345  -26.0093   22.9030 H   0  0  0  0  0  0
  -19.7943  -30.7277   24.2282 H   0  0  0  0  0  0
  -17.5043  -31.6292   24.5170 H   0  0  0  0  0  0
  -15.5369  -30.3035   23.7669 H   0  0  0  0  0  0
  -15.8669  -28.0867   22.7068 H   0  0  0  0  0  0
  -24.5965  -30.7034   25.7786 H   0  0  0  0  0  0
  -24.8943  -32.2897   26.4802 H   0  0  0  0  0  0
  -25.8127  -30.8962   27.0204 H   0  0  0  0  0  0
  -26.2827  -29.6794   24.1111 H   0  0  0  0  0  0
  -27.4065  -29.7232   25.4510 H   0  0  0  0  0  0
  -27.8686  -30.4310   23.9194 H   0  0  0  0  0  0
  -27.2741  -33.3587   26.2066 H   0  0  0  0  0  0
  -28.3947  -32.6831   25.0321 H   0  0  0  0  0  0
  -28.0731  -31.8365   26.5371 H   0  0  0  0  0  0
  -28.2617  -38.0070   24.7517 H   0  0  0  0  0  0
  -28.1051  -36.2595   24.6309 H   0  0  0  0  0  0
  -27.2261  -37.1458   25.8857 H   0  0  0  0  0  0
  -20.9246  -29.8769   21.6906 H   0  0  0  0  0  0
  -26.0150  -38.2811   24.1490 H   0  0  0  0  0  0
  -29.2556  -18.1947   19.4629 H   0  0  0  0  0  0
  -33.1927  -20.9173   18.5720 H   0  0  0  0  0  0
  -32.5559  -19.4328   17.8423 H   0  0  0  0  0  0
  -32.8150  -19.5226   19.5877 H   0  0  0  0  0  0
  -27.3279  -25.2812   21.4326 H   0  0  0  0  0  0
  -29.0389  -25.4559   21.7342 H   0  0  0  0  0  0
  -31.3220  -21.3291   20.8461 H   0  0  0  0  0  0
  -32.3446  -19.4579   23.7580 H   0  0  0  0  0  0
  -31.8615  -20.8413   22.9201 H   0  0  0  0  0  0
  -28.8631  -15.4559   20.6665 H   0  0  0  0  0  0
  -28.8258  -21.6167   19.4271 H   0  0  0  0  0  0
  1 25  1  0  0  0
  1 30  2  0  0  0
  1 82  1  0  0  0
  2  3  1  0  0  0
  2 25  1  0  0  0
  2 88  1  0  0  0
  2 89  1  0  0  0
  3  4  1  0  0  0
  3 90  1  0  0  0
  3 91  1  0  0  0
  4  5  1  0  0  0
  4 92  1  0  0  0
  4 93  1  0  0  0
  5  6  1  0  0  0
  5 26  1  0  0  0
  5 94  1  0  0  0
  6 25  1  0  0  0
  6 95  1  0  0  0
  6 96  1  0  0  0
  7  8  2  0  0  0
  7 26  1  0  0  0
  7 29  1  0  0  0
  8  9  1  0  0  0
  8 22  1  0  0  0
  9 10  1  0  0  0
  9 27  2  0  0  0
 10 11  2  0  0  0
 10 15  1  0  0  0
 11 12  1  0  0  0
 11 97  1  0  0  0
 12 13  2  0  0  0
 12 98  1  0  0  0
 13 14  1  0  0  0
 13 31  1  0  0  0
 14 15  2  0  0  0
 14 99  1  0  0  0
 15100  1  0  0  0
 16 17  2  0  0  0
 16 21  1  0  0  0
 16 31  1  0  0  0
 17 18  1  0  0  0
 17101  1  0  0  0
 18 19  2  0  0  0
 18102  1  0  0  0
 19 20  1  0  0  0
 19 24  1  0  0  0
 20 21  2  0  0  0
 20103  1  0  0  0
 21 23  1  0  0  0
 22 28  1  0  0  0
 22 32  2  0  0  0
 26 27  1  0  0  0
 28104  1  0  0  0
 28105  1  0  0  0
 29106  1  0  0  0
 29107  1  0  0  0
 33 34  1  0  0  0
 33 66  1  0  0  0
 33 70  2  0  0  0
 34 36  1  0  0  0
 34 59  1  0  0  0
 34108  1  0  0  0
 35 44  2  0  0  0
 35 45  1  0  0  0
 35 68  1  0  0  0
 36 56  1  0  0  0
 36109  1  0  0  0
 37 39  1  0  0  0
 37 47  1  0  0  0
 37 66  1  0  0  0
 37110  1  0  0  0
 38 43  2  0  0  0
 38 46  1  0  0  0
 38 47  1  0  0  0
 39 64  1  0  0  0
 39 67  2  0  0  0
 40 52  1  0  0  0
 40 53  2  0  0  0
 40 58  1  0  0  0
 41111  1  0  0  0
 41112  1  0  0  0
 41113  1  0  0  0
 41 48  1  0  0  0
 42 43  1  0  0  0
 42 66  1  0  0  0
 42114  1  0  0  0
 42115  1  0  0  0
 43 44  1  0  0  0
 44116  1  0  0  0
 45 46  2  0  0  0
 45117  1  0  0  0
 46118  1  0  0  0
 47119  1  0  0  0
 47120  1  0  0  0
 48 56  1  0  0  0
 48 65  1  0  0  0
 48121  1  0  0  0
 49 50  1  0  0  0
 49 53  1  0  0  0
 49 64  1  0  0  0
 49122  1  0  0  0
 50 51  1  0  0  0
 50123  1  0  0  0
 50124  1  0  0  0
 51 52  1  0  0  0
 51125  1  0  0  0
 51126  1  0  0  0
 52127  1  0  0  0
 52128  1  0  0  0
 53 54  1  0  0  0
 54 55  2  0  0  0
 54129  1  0  0  0
 55 57  1  0  0  0
 55130  1  0  0  0
 56 69  2  0  0  0
 57 58  2  0  0  0
 57131  1  0  0  0
 58132  1  0  0  0
 59 60  1  0  0  0
 59 61  1  0  0  0
 59 62  1  0  0  0
 60133  1  0  0  0
 60134  1  0  0  0
 60135  1  0  0  0
 61136  1  0  0  0
 61137  1  0  0  0
 61138  1  0  0  0
 62139  1  0  0  0
 62140  1  0  0  0
 62141  1  0  0  0
 63 65  1  0  0  0
 63142  1  0  0  0
 63143  1  0  0  0
 63144  1  0  0  0
 64145  1  0  0  0
 65146  1  0  0  0
 68 79  1  0  0  0
 71 72  1  0  0  0
 71 73  2  0  0  0
 71147  1  0  0  0
 72 74  2  0  0  0
 72 80  1  0  0  0
 73 82  1  0  0  0
 73 87  1  0  0  0
 74 81  1  0  0  0
 74 87  1  0  0  0
 75 76  1  0  0  0
 75 79  1  0  0  0
 75 84  2  0  0  0
 76 83  1  0  0  0
 76 85  2  0  0  0
 77 78  1  0  0  0
 77 80  1  0  0  0
 77 86  2  0  0  0
 78148  1  0  0  0
 78149  1  0  0  0
 78150  1  0  0  0
 79151  1  0  0  0
 79152  1  0  0  0
 80 83  1  0  0  0
 80153  1  0  0  0
 81154  1  0  0  0
 81155  1  0  0  0
 82156  1  0  0  0
 83157  1  0  0  0
M  ISO  4   1 100  68 101  79 101  82 100
M  END
> <chiral flag>
0

> <version>
0

> <s_m_source_file>
/data/baiqing/PycharmProjects/Reinvent-master-3.2/result/LINK_invent/BTK/process_docking_weight1_custom_product_contain_oxygen_bond_distance_aromatic_linkinvent_7_9_3/rearranged_h_0167.sdf

> <i_m_source_file_index>
57

> <r_mmod_Potential_Energy-OPLS-2005>
-31.9902458190918

> <r_mmod_Stretch_Energy-OPLS-2005>
59.3560752868652

> <r_mmod_Bend_Energy-OPLS-2005>
130.663848876953

> <r_mmod_Torsional_Energy-OPLS-2005>
261.961761474609

> <r_mmod_Improper_Torsional_Energy-OPLS-2005>
12.5531787872314

> <r_mmod_Van_der_Waal_Energy-OPLS-2005>
119.800178527832

> <r_mmod_Electrostatic_Energy-OPLS-2005>
-390.394012451172

> <r_mmod_Solvation_Energy-OPLS-2005>
-255.898345947266

> <b_mmod_Minimization_Converged-OPLS-2005>
0

> <r_mmod_RMS_Derivative-OPLS-2005>
3.12746167182922

$$$$
58
                    3D
 Structure written by MMmdl.
161169  0  0  1  0            999 V2000
  -30.5728  -14.7748   20.4494 C   0  0  0  0  0  0
  -30.4374  -12.4630   19.4971 C   0  0  0  0  0  0
  -29.5186  -12.5133   18.2536 C   0  0  0  0  0  0
  -28.0417  -12.3388   18.6580 C   0  0  0  0  0  0
  -27.6471  -13.2286   19.8669 C   0  0  2  0  0  0
  -28.6897  -13.1534   21.0082 C   0  0  0  0  0  0
  -25.2505  -13.8171   20.5707 C   0  0  0  0  0  0
  -24.1788  -13.0422   20.9190 C   0  0  0  0  0  0
  -24.6345  -11.6914   20.8691 C   0  0  0  0  0  0
  -23.9013  -10.4305   21.0391 C   0  0  0  0  0  0
  -24.3571   -9.4240   21.9175 C   0  0  0  0  0  0
  -23.6262   -8.2253   22.0740 C   0  0  0  0  0  0
  -22.4246   -8.0260   21.3541 C   0  0  0  0  0  0
  -21.9876   -9.0227   20.4638 C   0  0  0  0  0  0
  -22.7190  -10.2117   20.3050 C   0  0  0  0  0  0
  -21.6848   -6.0725   22.5290 C   0  0  0  0  0  0
  -21.4023   -6.5644   23.8213 C   0  0  0  0  0  0
  -21.3655   -5.6798   24.9176 C   0  0  0  0  0  0
  -21.6042   -4.3059   24.7235 C   0  0  0  0  0  0
  -21.8815   -3.8138   23.4359 C   0  0  0  0  0  0
  -21.9198   -4.6954   22.3413 C   0  0  0  0  0  0
  -22.7812  -13.5232   21.1862 C   0  0  0  0  0  0
  -22.1645   -4.2138   21.0986 F   0  0  0  0  0  0
  -21.5638   -3.4548   25.7741 F   0  0  0  0  0  0
  -29.9945  -13.5201   20.4408 N   0  0  0  0  0  0
  -26.2947  -12.9374   20.3347 N   0  0  0  0  0  0
  -25.9288  -11.6516   20.5725 N   0  0  0  0  0  0
  -22.0458  -12.8209   22.0411 N   0  0  0  0  0  0
  -25.4234  -15.1893   20.4156 N   0  0  0  0  0  0
  -31.7136  -14.9256   20.0043 O   0  0  0  0  0  0
  -21.6637   -6.8850   21.4239 O   0  0  0  0  0  0
  -22.3500  -14.5556   20.6733 O   0  0  0  0  0  0
  -24.6356  -31.8539   23.1980 C   0  0  0  0  0  0
  -25.9162  -32.4753   23.8341 C   0  0  1  0  0  0
  -27.2191  -27.2430   20.1223 C   0  0  0  0  0  0
  -25.5977  -33.8561   24.2280 N   0  0  0  0  0  0
  -23.4337  -30.4746   21.5447 C   0  0  2  0  0  0
  -24.8774  -28.9188   20.1117 C   0  0  0  0  0  0
  -22.7542  -29.4578   22.4949 C   0  0  0  0  0  0
  -18.0304  -28.1364   22.8497 C   0  0  0  0  0  0
  -24.1492  -36.7265   23.2647 C   0  0  0  0  0  0
  -25.9813  -30.7561   21.3811 C   0  0  0  0  0  0
  -26.0512  -29.3780   20.7215 C   0  0  0  0  0  0
  -27.2244  -28.5533   20.7141 C   0  0  0  0  0  0
  -26.0221  -26.8621   19.4737 C   0  0  0  0  0  0
  -24.8678  -27.6686   19.4777 C   0  0  0  0  0  0
  -23.6500  -29.8089   20.1617 C   0  0  0  0  0  0
  -25.4117  -36.3069   24.0339 C   0  0  1  0  0  0
  -20.5915  -28.3671   23.1276 C   0  0  2  0  0  0
  -20.6790  -26.9380   22.5400 C   0  0  0  0  0  0
  -19.5756  -26.6370   21.5223 C   0  0  0  0  0  0
  -18.1941  -26.7914   22.1621 C   0  0  0  0  0  0
  -19.1558  -28.8834   23.2888 C   0  0  0  0  0  0
  -18.9471  -30.1444   23.8887 C   0  0  0  0  0  0
  -17.6463  -30.6564   24.0545 C   0  0  0  0  0  0
  -25.9067  -34.9444   23.5105 C   0  0  0  0  0  0
  -16.5359  -29.9051   23.6331 C   0  0  0  0  0  0
  -16.7289  -28.6468   23.0364 C   0  0  0  0  0  0
  -26.4526  -31.6575   25.0729 C   0  0  0  0  0  0
  -25.3759  -31.3695   26.1457 C   0  0  0  0  0  0
  -27.0393  -30.3010   24.6198 C   0  0  0  0  0  0
  -27.6095  -32.4306   25.7496 C   0  0  0  0  0  0
  -27.5582  -37.1785   24.8472 C   0  0  0  0  0  0
  -21.4251  -29.3029   22.3680 N   0  0  0  0  0  0
  -26.4284  -37.3773   23.9426 N   0  0  0  0  0  0
  -24.7032  -31.0464   22.0974 N   0  0  0  0  0  0
  -23.4225  -28.8122   23.3065 O   0  0  0  0  0  0
  -28.3015  -26.3225   20.1665 O   0  0  0  0  0  0
  -26.5614  -34.8910   22.4660 O   0  0  0  0  0  0
  -23.5496  -32.1385   23.7248 O   0  0  0  0  0  0
  -31.3678  -18.8334   20.4311 C   0  0  0  0  0  0
  -31.0019  -21.2523   20.4173 C   0  0  0  0  0  0
  -31.8898  -20.1507   20.4313 C   0  0  0  0  0  0
  -29.9832  -18.6286   20.3536 C   0  0  0  0  0  0
  -29.6153  -21.0494   20.3641 C   0  0  0  0  0  0
  -33.3584  -20.4013   20.4233 C   0  0  0  0  0  0
  -27.5882  -24.7934   21.9578 C   0  0  0  0  0  0
  -34.2414  -19.2837   19.8781 C   0  0  0  0  0  0
  -26.6380  -23.6805   22.3835 C   0  0  0  0  0  0
  -29.4486  -17.1570   20.0419 C   0  0  0  0  0  0
  -29.1023  -23.6694   20.1807 C   0  0  0  0  0  0
  -28.0121  -24.8594   20.4768 C   0  0  2  0  0  0
  -29.1352  -19.7423   20.3243 N   0  0  0  0  0  0
  -28.7218  -22.1881   20.3212 N   0  0  0  0  0  0
  -29.7810  -15.8591   20.7942 N   0  0  0  0  0  0
  -33.8739  -21.4661   20.7774 O   0  0  0  0  0  0
  -28.0056  -25.6065   22.7897 O   0  0  0  0  0  0
  -31.4810  -12.5853   19.2011 H   0  0  0  0  0  0
  -30.3747  -11.4834   19.9723 H   0  0  0  0  0  0
  -29.8012  -11.7344   17.5464 H   0  0  0  0  0  0
  -29.6532  -13.4608   17.7305 H   0  0  0  0  0  0
  -27.8958  -11.2889   18.9124 H   0  0  0  0  0  0
  -27.3823  -12.5365   17.8114 H   0  0  0  0  0  0
  -27.6440  -14.2528   19.4953 H   0  0  0  0  0  0
  -28.7280  -12.1530   21.4401 H   0  0  0  0  0  0
  -28.4114  -13.8205   21.8259 H   0  0  0  0  0  0
  -25.2707   -9.5732   22.4755 H   0  0  0  0  0  0
  -24.0002   -7.4662   22.7439 H   0  0  0  0  0  0
  -21.0817   -8.8698   19.8937 H   0  0  0  0  0  0
  -22.3612  -10.9629   19.6140 H   0  0  0  0  0  0
  -21.2004   -7.6153   23.9712 H   0  0  0  0  0  0
  -21.1477   -6.0534   25.9084 H   0  0  0  0  0  0
  -22.0591   -2.7603   23.2862 H   0  0  0  0  0  0
  -22.4089  -11.9876   22.4811 H   0  0  0  0  0  0
  -21.1077  -13.1221   22.2633 H   0  0  0  0  0  0
  -24.6546  -15.8445   20.5168 H   0  0  0  0  0  0
  -26.2814  -15.6285   20.1093 H   0  0  0  0  0  0
  -26.7228  -32.5363   23.1079 H   0  0  0  0  0  0
  -25.0197  -33.9711   25.0473 H   0  0  0  0  0  0
  -22.7318  -31.2981   21.4000 H   0  0  0  0  0  0
  -23.3778  -35.9574   23.3283 H   0  0  0  0  0  0
  -24.3599  -36.8900   22.2071 H   0  0  0  0  0  0
  -23.7201  -37.6444   23.6666 H   0  0  0  0  0  0
  -26.1226  -31.5132   20.6101 H   0  0  0  0  0  0
  -26.8596  -30.8052   22.0128 H   0  0  0  0  0  0
  -28.1216  -28.8976   21.2068 H   0  0  0  0  0  0
  -25.9517  -25.9191   18.9535 H   0  0  0  0  0  0
  -23.9704  -27.3170   18.9867 H   0  0  0  0  0  0
  -23.7734  -30.5861   19.4079 H   0  0  0  0  0  0
  -22.7672  -29.2454   19.8541 H   0  0  0  0  0  0
  -25.1291  -36.1933   25.0831 H   0  0  0  0  0  0
  -21.0004  -28.3219   24.1397 H   0  0  0  0  0  0
  -20.5696  -26.2276   23.3613 H   0  0  0  0  0  0
  -21.6652  -26.7408   22.1187 H   0  0  0  0  0  0
  -19.6908  -25.6290   21.1233 H   0  0  0  0  0  0
  -19.6680  -27.3190   20.6761 H   0  0  0  0  0  0
  -17.4225  -26.6703   21.4015 H   0  0  0  0  0  0
  -18.0299  -26.0037   22.8992 H   0  0  0  0  0  0
  -19.7947  -30.7274   24.2243 H   0  0  0  0  0  0
  -17.5007  -31.6249   24.5138 H   0  0  0  0  0  0
  -15.5354  -30.2927   23.7656 H   0  0  0  0  0  0
  -15.8707  -28.0763   22.7079 H   0  0  0  0  0  0
  -24.5964  -30.7011   25.7783 H   0  0  0  0  0  0
  -24.8914  -32.2839   26.4890 H   0  0  0  0  0  0
  -25.8101  -30.8884   27.0233 H   0  0  0  0  0  0
  -26.2974  -29.6741   24.1241 H   0  0  0  0  0  0
  -27.4136  -29.7283   25.4694 H   0  0  0  0  0  0
  -27.8822  -30.4333   23.9412 H   0  0  0  0  0  0
  -27.2745  -33.3640   26.2035 H   0  0  0  0  0  0
  -28.3925  -32.6806   25.0321 H   0  0  0  0  0  0
  -28.0743  -31.8445   26.5439 H   0  0  0  0  0  0
  -28.2589  -38.0100   24.7550 H   0  0  0  0  0  0
  -28.1091  -36.2628   24.6255 H   0  0  0  0  0  0
  -27.2307  -37.1378   25.8878 H   0  0  0  0  0  0
  -20.9443  -29.8757   21.6879 H   0  0  0  0  0  0
  -26.0170  -38.2848   24.1428 H   0  0  0  0  0  0
  -32.0222  -17.9725   20.4120 H   0  0  0  0  0  0
  -31.4145  -22.2517   20.4162 H   0  0  0  0  0  0
  -34.3483  -18.4893   20.6142 H   0  0  0  0  0  0
  -35.2295  -19.6679   19.6259 H   0  0  0  0  0  0
  -33.7967  -18.8635   18.9769 H   0  0  0  0  0  0
  -25.8303  -23.5578   21.6627 H   0  0  0  0  0  0
  -26.2035  -23.9139   23.3557 H   0  0  0  0  0  0
  -27.1783  -22.7388   22.4718 H   0  0  0  0  0  0
  -29.6789  -16.9764   18.9903 H   0  0  0  0  0  0
  -28.3614  -17.2308   20.0658 H   0  0  0  0  0  0
  -29.9639  -23.8549   20.8191 H   0  0  0  0  0  0
  -29.4696  -23.7953   19.1628 H   0  0  0  0  0  0
  -27.1362  -24.5756   19.9005 H   0  0  0  0  0  0
  -27.7347  -21.9714   20.2368 H   0  0  0  0  0  0
  -29.0016  -15.5720   21.3672 H   0  0  0  0  0  0
  1 25  1  0  0  0
  1 30  2  0  0  0
  1 85  1  0  0  0
  2  3  1  0  0  0
  2 25  1  0  0  0
  2 88  1  0  0  0
  2 89  1  0  0  0
  3  4  1  0  0  0
  3 90  1  0  0  0
  3 91  1  0  0  0
  4  5  1  0  0  0
  4 92  1  0  0  0
  4 93  1  0  0  0
  5  6  1  0  0  0
  5 26  1  0  0  0
  5 94  1  0  0  0
  6 25  1  0  0  0
  6 95  1  0  0  0
  6 96  1  0  0  0
  7  8  2  0  0  0
  7 26  1  0  0  0
  7 29  1  0  0  0
  8  9  1  0  0  0
  8 22  1  0  0  0
  9 10  1  0  0  0
  9 27  2  0  0  0
 10 11  2  0  0  0
 10 15  1  0  0  0
 11 12  1  0  0  0
 11 97  1  0  0  0
 12 13  2  0  0  0
 12 98  1  0  0  0
 13 14  1  0  0  0
 13 31  1  0  0  0
 14 15  2  0  0  0
 14 99  1  0  0  0
 15100  1  0  0  0
 16 17  2  0  0  0
 16 21  1  0  0  0
 16 31  1  0  0  0
 17 18  1  0  0  0
 17101  1  0  0  0
 18 19  2  0  0  0
 18102  1  0  0  0
 19 20  1  0  0  0
 19 24  1  0  0  0
 20 21  2  0  0  0
 20103  1  0  0  0
 21 23  1  0  0  0
 22 28  1  0  0  0
 22 32  2  0  0  0
 26 27  1  0  0  0
 28104  1  0  0  0
 28105  1  0  0  0
 29106  1  0  0  0
 29107  1  0  0  0
 33 34  1  0  0  0
 33 66  1  0  0  0
 33 70  2  0  0  0
 34 36  1  0  0  0
 34 59  1  0  0  0
 34108  1  0  0  0
 35 44  2  0  0  0
 35 45  1  0  0  0
 35 68  1  0  0  0
 36 56  1  0  0  0
 36109  1  0  0  0
 37 39  1  0  0  0
 37 47  1  0  0  0
 37 66  1  0  0  0
 37110  1  0  0  0
 38 43  2  0  0  0
 38 46  1  0  0  0
 38 47  1  0  0  0
 39 64  1  0  0  0
 39 67  2  0  0  0
 40 52  1  0  0  0
 40 53  2  0  0  0
 40 58  1  0  0  0
 41111  1  0  0  0
 41112  1  0  0  0
 41113  1  0  0  0
 41 48  1  0  0  0
 42 43  1  0  0  0
 42 66  1  0  0  0
 42114  1  0  0  0
 42115  1  0  0  0
 43 44  1  0  0  0
 44116  1  0  0  0
 45 46  2  0  0  0
 45117  1  0  0  0
 46118  1  0  0  0
 47119  1  0  0  0
 47120  1  0  0  0
 48 56  1  0  0  0
 48 65  1  0  0  0
 48121  1  0  0  0
 49 50  1  0  0  0
 49 53  1  0  0  0
 49 64  1  0  0  0
 49122  1  0  0  0
 50 51  1  0  0  0
 50123  1  0  0  0
 50124  1  0  0  0
 51 52  1  0  0  0
 51125  1  0  0  0
 51126  1  0  0  0
 52127  1  0  0  0
 52128  1  0  0  0
 53 54  1  0  0  0
 54 55  2  0  0  0
 54129  1  0  0  0
 55 57  1  0  0  0
 55130  1  0  0  0
 56 69  2  0  0  0
 57 58  2  0  0  0
 57131  1  0  0  0
 58132  1  0  0  0
 59 60  1  0  0  0
 59 61  1  0  0  0
 59 62  1  0  0  0
 60133  1  0  0  0
 60134  1  0  0  0
 60135  1  0  0  0
 61136  1  0  0  0
 61137  1  0  0  0
 61138  1  0  0  0
 62139  1  0  0  0
 62140  1  0  0  0
 62141  1  0  0  0
 63 65  1  0  0  0
 63142  1  0  0  0
 63143  1  0  0  0
 63144  1  0  0  0
 64145  1  0  0  0
 65146  1  0  0  0
 68 82  1  0  0  0
 71 73  2  0  0  0
 71 74  1  0  0  0
 71147  1  0  0  0
 72 73  1  0  0  0
 72 75  2  0  0  0
 72148  1  0  0  0
 73 76  1  0  0  0
 74 80  1  0  0  0
 74 83  2  0  0  0
 75 83  1  0  0  0
 75 84  1  0  0  0
 76 78  1  0  0  0
 76 86  2  0  0  0
 77 79  1  0  0  0
 77 82  1  0  0  0
 77 87  2  0  0  0
 78149  1  0  0  0
 78150  1  0  0  0
 78151  1  0  0  0
 79152  1  0  0  0
 79153  1  0  0  0
 79154  1  0  0  0
 80 85  1  0  0  0
 80155  1  0  0  0
 80156  1  0  0  0
 81 84  1  0  0  0
 81157  1  0  0  0
 81158  1  0  0  0
 81 82  1  0  0  0
 82159  1  0  0  0
 84160  1  0  0  0
 85161  1  0  0  0
M  ISO  4   1 100  68 101  82 101  85 100
M  END
> <chiral flag>
0

> <version>
0

> <s_m_source_file>
/data/baiqing/PycharmProjects/Reinvent-master-3.2/result/LINK_invent/BTK/process_docking_weight1_custom_product_contain_oxygen_bond_distance_aromatic_linkinvent_7_9_3/rearranged_h_0167.sdf

> <i_m_source_file_index>
58

> <r_mmod_Potential_Energy-OPLS-2005>
-156.267395019531

> <r_mmod_Stretch_Energy-OPLS-2005>
137.746932983398

> <r_mmod_Bend_Energy-OPLS-2005>
192.874664306641

> <r_mmod_Torsional_Energy-OPLS-2005>
242.635208129883

> <r_mmod_Improper_Torsional_Energy-OPLS-2005>
8.30173301696777

> <r_mmod_Van_der_Waal_Energy-OPLS-2005>
138.290496826172

> <r_mmod_Electrostatic_Energy-OPLS-2005>
-703.712585449219

> <r_mmod_Solvation_Energy-OPLS-2005>
-271.962005615234

> <b_mmod_Minimization_Converged-OPLS-2005>
0

> <r_mmod_RMS_Derivative-OPLS-2005>
3.21292304992676

$$$$
59
                    3D
 Structure written by MMmdl.
154162  0  0  1  0            999 V2000
  -30.7119  -14.5062   20.5611 C   0  0  0  0  0  0
  -30.4300  -12.3282   19.4312 C   0  0  0  0  0  0
  -29.5038  -12.4947   18.2103 C   0  0  0  0  0  0
  -28.0257  -12.3482   18.6230 C   0  0  0  0  0  0
  -27.6597  -13.2138   19.8588 C   0  0  2  0  0  0
  -28.7023  -13.0348   20.9852 C   0  0  0  0  0  0
  -25.2603  -13.8178   20.5650 C   0  0  0  0  0  0
  -24.1875  -13.0448   20.9156 C   0  0  0  0  0  0
  -24.6450  -11.6918   20.8718 C   0  0  0  0  0  0
  -23.9139  -10.4289   21.0390 C   0  0  0  0  0  0
  -24.3679   -9.4180   21.9169 C   0  0  0  0  0  0
  -23.6322   -8.2225   22.0745 C   0  0  0  0  0  0
  -22.4293   -8.0286   21.3535 C   0  0  0  0  0  0
  -21.9954   -9.0277   20.4634 C   0  0  0  0  0  0
  -22.7318  -10.2132   20.3039 C   0  0  0  0  0  0
  -21.6853   -6.0750   22.5281 C   0  0  0  0  0  0
  -21.4008   -6.5650   23.8222 C   0  0  0  0  0  0
  -21.3657   -5.6795   24.9180 C   0  0  0  0  0  0
  -21.6049   -4.3062   24.7218 C   0  0  0  0  0  0
  -21.8823   -3.8161   23.4339 C   0  0  0  0  0  0
  -21.9194   -4.6978   22.3400 C   0  0  0  0  0  0
  -22.7887  -13.5192   21.1866 C   0  0  0  0  0  0
  -22.1662   -4.2185   21.0968 F   0  0  0  0  0  0
  -21.5633   -3.4538   25.7723 F   0  0  0  0  0  0
  -30.0298  -13.3353   20.4253 N   0  0  0  0  0  0
  -26.3048  -12.9369   20.3277 N   0  0  0  0  0  0
  -25.9374  -11.6529   20.5731 N   0  0  0  0  0  0
  -22.0590  -12.8133   22.0430 N   0  0  0  0  0  0
  -25.4303  -15.1905   20.4050 N   0  0  0  0  0  0
  -31.8552  -14.6635   20.1263 O   0  0  0  0  0  0
  -21.6630   -6.8901   21.4245 O   0  0  0  0  0  0
  -22.3535  -14.5496   20.6737 O   0  0  0  0  0  0
  -24.6141  -31.8662   23.2061 C   0  0  0  0  0  0
  -25.9034  -32.4823   23.8342 C   0  0  1  0  0  0
  -27.2302  -27.4077   20.0869 C   0  0  0  0  0  0
  -25.5868  -33.8620   24.2267 N   0  0  0  0  0  0
  -23.4038  -30.4881   21.5534 C   0  0  2  0  0  0
  -24.8483  -28.9620   20.1044 C   0  0  0  0  0  0
  -22.7421  -29.4638   22.5041 C   0  0  0  0  0  0
  -18.0255  -28.1345   22.8491 C   0  0  0  0  0  0
  -24.1516  -36.7335   23.2631 C   0  0  0  0  0  0
  -25.9344  -30.8216   21.3684 C   0  0  0  0  0  0
  -26.0114  -29.4564   20.7070 C   0  0  0  0  0  0
  -27.2001  -28.6852   20.6983 C   0  0  0  0  0  0
  -26.0466  -26.9511   19.4531 C   0  0  0  0  0  0
  -24.8640  -27.7107   19.4703 C   0  0  0  0  0  0
  -23.6052  -29.8224   20.1677 C   0  0  0  0  0  0
  -25.4136  -36.3114   24.0315 C   0  0  1  0  0  0
  -20.5841  -28.3632   23.1338 C   0  0  2  0  0  0
  -20.6785  -26.9386   22.5413 C   0  0  0  0  0  0
  -19.5759  -26.6366   21.5228 C   0  0  0  0  0  0
  -18.1914  -26.7902   22.1624 C   0  0  0  0  0  0
  -19.1499  -28.8813   23.2898 C   0  0  0  0  0  0
  -18.9450  -30.1435   23.8884 C   0  0  0  0  0  0
  -17.6457  -30.6582   24.0547 C   0  0  0  0  0  0
  -25.9040  -34.9472   23.5085 C   0  0  0  0  0  0
  -16.5329  -29.9057   23.6351 C   0  0  0  0  0  0
  -16.7252  -28.6467   23.0361 C   0  0  0  0  0  0
  -26.4436  -31.6613   25.0692 C   0  0  0  0  0  0
  -25.3679  -31.3715   26.1419 C   0  0  0  0  0  0
  -27.0280  -30.3060   24.6093 C   0  0  0  0  0  0
  -27.6000  -32.4343   25.7449 C   0  0  0  0  0  0
  -27.5613  -37.1781   24.8429 C   0  0  0  0  0  0
  -21.4146  -29.2989   22.3768 N   0  0  0  0  0  0
  -26.4324  -37.3783   23.9377 N   0  0  0  0  0  0
  -24.6689  -31.0711   22.1006 N   0  0  0  0  0  0
  -23.4189  -28.8217   23.3113 O   0  0  0  0  0  0
  -28.3928  -26.6477   20.1334 O   0  0  0  0  0  0
  -26.5646  -34.8942   22.4688 O   0  0  0  0  0  0
  -23.5338  -32.1437   23.7454 O   0  0  0  0  0  0
  -29.3966  -18.8436   18.2446 C   0  0  0  0  0  0
  -29.7744  -17.7843   19.0889 C   0  0  0  0  0  0
  -29.3692  -20.1675   18.7250 C   0  0  0  0  0  0
  -30.0932  -19.3799   20.9073 C   0  0  0  0  0  0
  -30.1110  -18.0355   20.4382 C   0  0  0  0  0  0
  -29.7310  -20.4620   20.0605 C   0  0  0  0  0  0
  -29.3338  -24.3191   20.2936 C   0  0  0  0  0  0
  -30.5241  -16.8944   21.3845 C   0  0  0  0  0  0
  -29.4451  -22.9210   19.6422 C   0  0  0  0  0  0
  -28.3157  -25.2858   19.6495 C   0  0  0  0  0  0
  -29.7380  -21.7911   20.5473 N   0  0  0  0  0  0
  -30.0175  -15.5405   21.0761 N   0  0  0  0  0  0
  -30.0034  -24.6250   21.2869 O   0  0  0  0  0  0
  -31.4767  -12.4246   19.1335 H   0  0  0  0  0  0
  -30.3337  -11.3281   19.8582 H   0  0  0  0  0  0
  -29.7537  -11.7583   17.4458 H   0  0  0  0  0  0
  -29.6645  -13.4747   17.7594 H   0  0  0  0  0  0
  -27.8477  -11.2943   18.8439 H   0  0  0  0  0  0
  -27.3739  -12.5925   17.7832 H   0  0  0  0  0  0
  -27.6899  -14.2537   19.5292 H   0  0  0  0  0  0
  -28.6873  -12.0106   21.3595 H   0  0  0  0  0  0
  -28.4604  -13.6630   21.8437 H   0  0  0  0  0  0
  -25.2840   -9.5622   22.4721 H   0  0  0  0  0  0
  -24.0047   -7.4595   22.7438 H   0  0  0  0  0  0
  -21.0902   -8.8803   19.8912 H   0  0  0  0  0  0
  -22.3823  -10.9664   19.6125 H   0  0  0  0  0  0
  -21.1991   -7.6159   23.9737 H   0  0  0  0  0  0
  -21.1478   -6.0514   25.9082 H   0  0  0  0  0  0
  -22.0605   -2.7634   23.2816 H   0  0  0  0  0  0
  -22.4288  -11.9779   22.4724 H   0  0  0  0  0  0
  -21.1206  -13.1080   22.2710 H   0  0  0  0  0  0
  -24.6618  -15.8453   20.5003 H   0  0  0  0  0  0
  -26.2906  -15.6303   20.1016 H   0  0  0  0  0  0
  -26.7123  -32.5516   23.1091 H   0  0  0  0  0  0
  -24.9940  -33.9771   25.0360 H   0  0  0  0  0  0
  -22.6892  -31.3019   21.4190 H   0  0  0  0  0  0
  -23.3787  -35.9661   23.3267 H   0  0  0  0  0  0
  -24.3618  -36.8993   22.2048 H   0  0  0  0  0  0
  -23.7281  -37.6521   23.6700 H   0  0  0  0  0  0
  -26.0491  -31.5972   20.6095 H   0  0  0  0  0  0
  -26.8168  -30.8653   21.9908 H   0  0  0  0  0  0
  -28.0915  -29.0609   21.1814 H   0  0  0  0  0  0
  -25.9959  -26.0096   18.9271 H   0  0  0  0  0  0
  -23.9743  -27.3295   18.9853 H   0  0  0  0  0  0
  -23.6844  -30.5912   19.3994 H   0  0  0  0  0  0
  -22.7320  -29.2235   19.9014 H   0  0  0  0  0  0
  -25.1334  -36.1949   25.0801 H   0  0  0  0  0  0
  -20.9870  -28.3184   24.1487 H   0  0  0  0  0  0
  -20.5737  -26.2228   23.3574 H   0  0  0  0  0  0
  -21.6656  -26.7484   22.1169 H   0  0  0  0  0  0
  -19.6938  -25.6273   21.1258 H   0  0  0  0  0  0
  -19.6719  -27.3196   20.6770 H   0  0  0  0  0  0
  -17.4200  -26.6649   21.3999 H   0  0  0  0  0  0
  -18.0274  -26.0036   22.9004 H   0  0  0  0  0  0
  -19.7940  -30.7233   24.2227 H   0  0  0  0  0  0
  -17.5029  -31.6274   24.5146 H   0  0  0  0  0  0
  -15.5331  -30.2948   23.7730 H   0  0  0  0  0  0
  -15.8638  -28.0805   22.7066 H   0  0  0  0  0  0
  -24.5848  -30.7084   25.7703 H   0  0  0  0  0  0
  -24.8871  -32.2874   26.4867 H   0  0  0  0  0  0
  -25.7987  -30.8841   27.0172 H   0  0  0  0  0  0
  -26.2828  -29.6783   24.1204 H   0  0  0  0  0  0
  -27.4089  -29.7330   25.4546 H   0  0  0  0  0  0
  -27.8635  -30.4358   23.9220 H   0  0  0  0  0  0
  -27.2618  -33.3640   26.2030 H   0  0  0  0  0  0
  -28.3786  -32.6912   25.0253 H   0  0  0  0  0  0
  -28.0709  -31.8484   26.5337 H   0  0  0  0  0  0
  -28.2542  -38.0157   24.7597 H   0  0  0  0  0  0
  -28.1194  -36.2697   24.6136 H   0  0  0  0  0  0
  -27.2320  -37.1253   25.8814 H   0  0  0  0  0  0
  -20.9304  -29.8637   21.6926 H   0  0  0  0  0  0
  -26.0226  -38.2846   24.1428 H   0  0  0  0  0  0
  -29.1277  -18.6460   17.2159 H   0  0  0  0  0  0
  -29.7961  -16.7797   18.6855 H   0  0  0  0  0  0
  -29.0663  -20.9415   18.0346 H   0  0  0  0  0  0
  -30.3622  -19.5780   21.9367 H   0  0  0  0  0  0
  -30.1624  -17.1401   22.3844 H   0  0  0  0  0  0
  -31.6133  -16.8856   21.4702 H   0  0  0  0  0  0
  -30.2202  -22.9675   18.8751 H   0  0  0  0  0  0
  -28.4994  -22.7309   19.1350 H   0  0  0  0  0  0
  -27.3505  -24.8422   19.8909 H   0  0  0  0  0  0
  -28.4397  -25.2762   18.5654 H   0  0  0  0  0  0
  -30.1922  -22.0110   21.4328 H   0  0  0  0  0  0
  -29.0619  -15.3521   21.3372 H   0  0  0  0  0  0
  1 25  1  0  0  0
  1 30  2  0  0  0
  1 82  1  0  0  0
  2  3  1  0  0  0
  2 25  1  0  0  0
  2 84  1  0  0  0
  2 85  1  0  0  0
  3  4  1  0  0  0
  3 86  1  0  0  0
  3 87  1  0  0  0
  4  5  1  0  0  0
  4 88  1  0  0  0
  4 89  1  0  0  0
  5  6  1  0  0  0
  5 26  1  0  0  0
  5 90  1  0  0  0
  6 25  1  0  0  0
  6 91  1  0  0  0
  6 92  1  0  0  0
  7  8  2  0  0  0
  7 26  1  0  0  0
  7 29  1  0  0  0
  8  9  1  0  0  0
  8 22  1  0  0  0
  9 10  1  0  0  0
  9 27  2  0  0  0
 10 11  2  0  0  0
 10 15  1  0  0  0
 11 12  1  0  0  0
 11 93  1  0  0  0
 12 13  2  0  0  0
 12 94  1  0  0  0
 13 14  1  0  0  0
 13 31  1  0  0  0
 14 15  2  0  0  0
 14 95  1  0  0  0
 15 96  1  0  0  0
 16 17  2  0  0  0
 16 21  1  0  0  0
 16 31  1  0  0  0
 17 18  1  0  0  0
 17 97  1  0  0  0
 18 19  2  0  0  0
 18 98  1  0  0  0
 19 20  1  0  0  0
 19 24  1  0  0  0
 20 21  2  0  0  0
 20 99  1  0  0  0
 21 23  1  0  0  0
 22 28  1  0  0  0
 22 32  2  0  0  0
 26 27  1  0  0  0
 28100  1  0  0  0
 28101  1  0  0  0
 29102  1  0  0  0
 29103  1  0  0  0
 33 34  1  0  0  0
 33 66  1  0  0  0
 33 70  2  0  0  0
 34 36  1  0  0  0
 34 59  1  0  0  0
 34104  1  0  0  0
 35 44  2  0  0  0
 35 45  1  0  0  0
 35 68  1  0  0  0
 36 56  1  0  0  0
 36105  1  0  0  0
 37 39  1  0  0  0
 37 47  1  0  0  0
 37 66  1  0  0  0
 37106  1  0  0  0
 38 43  2  0  0  0
 38 46  1  0  0  0
 38 47  1  0  0  0
 39 64  1  0  0  0
 39 67  2  0  0  0
 40 52  1  0  0  0
 40 53  2  0  0  0
 40 58  1  0  0  0
 41107  1  0  0  0
 41108  1  0  0  0
 41109  1  0  0  0
 41 48  1  0  0  0
 42 43  1  0  0  0
 42 66  1  0  0  0
 42110  1  0  0  0
 42111  1  0  0  0
 43 44  1  0  0  0
 44112  1  0  0  0
 45 46  2  0  0  0
 45113  1  0  0  0
 46114  1  0  0  0
 47115  1  0  0  0
 47116  1  0  0  0
 48 56  1  0  0  0
 48 65  1  0  0  0
 48117  1  0  0  0
 49 50  1  0  0  0
 49 53  1  0  0  0
 49 64  1  0  0  0
 49118  1  0  0  0
 50 51  1  0  0  0
 50119  1  0  0  0
 50120  1  0  0  0
 51 52  1  0  0  0
 51121  1  0  0  0
 51122  1  0  0  0
 52123  1  0  0  0
 52124  1  0  0  0
 53 54  1  0  0  0
 54 55  2  0  0  0
 54125  1  0  0  0
 55 57  1  0  0  0
 55126  1  0  0  0
 56 69  2  0  0  0
 57 58  2  0  0  0
 57127  1  0  0  0
 58128  1  0  0  0
 59 60  1  0  0  0
 59 61  1  0  0  0
 59 62  1  0  0  0
 60129  1  0  0  0
 60130  1  0  0  0
 60131  1  0  0  0
 61132  1  0  0  0
 61133  1  0  0  0
 61134  1  0  0  0
 62135  1  0  0  0
 62136  1  0  0  0
 62137  1  0  0  0
 63 65  1  0  0  0
 63138  1  0  0  0
 63139  1  0  0  0
 63140  1  0  0  0
 64141  1  0  0  0
 65142  1  0  0  0
 68 80  1  0  0  0
 71 72  2  0  0  0
 71 73  1  0  0  0
 71143  1  0  0  0
 72 75  1  0  0  0
 72144  1  0  0  0
 73 76  2  0  0  0
 73145  1  0  0  0
 74 75  2  0  0  0
 74 76  1  0  0  0
 74146  1  0  0  0
 75 78  1  0  0  0
 76 81  1  0  0  0
 77 79  1  0  0  0
 77 80  1  0  0  0
 77 83  2  0  0  0
 78 82  1  0  0  0
 78147  1  0  0  0
 78148  1  0  0  0
 79 81  1  0  0  0
 79149  1  0  0  0
 79150  1  0  0  0
 80151  1  0  0  0
 80152  1  0  0  0
 81153  1  0  0  0
 82154  1  0  0  0
M  ISO  4   1 100  68 101  80 101  82 100
M  END
> <chiral flag>
0

> <version>
0

> <s_m_source_file>
/data/baiqing/PycharmProjects/Reinvent-master-3.2/result/LINK_invent/BTK/process_docking_weight1_custom_product_contain_oxygen_bond_distance_aromatic_linkinvent_7_9_3/rearranged_h_0167.sdf

> <i_m_source_file_index>
59

> <r_mmod_Potential_Energy-OPLS-2005>
-102.503532409668

> <r_mmod_Stretch_Energy-OPLS-2005>
42.4701843261719

> <r_mmod_Bend_Energy-OPLS-2005>
109.041946411133

> <r_mmod_Torsional_Energy-OPLS-2005>
180.254348754883

> <r_mmod_Improper_Torsional_Energy-OPLS-2005>
3.72152423858643

> <r_mmod_Van_der_Waal_Energy-OPLS-2005>
157.362258911133

> <r_mmod_Electrostatic_Energy-OPLS-2005>
-367.755645751953

> <r_mmod_Solvation_Energy-OPLS-2005>
-247.178558349609

> <b_mmod_Minimization_Converged-OPLS-2005>
0

> <r_mmod_RMS_Derivative-OPLS-2005>
3.99214005470276

$$$$
60
                    3D
 Structure written by MMmdl.
154162  0  0  1  0            999 V2000
  -30.6569  -14.5562   20.4879 C   0  0  0  0  0  0
  -30.4251  -12.3411   19.4184 C   0  0  0  0  0  0
  -29.4890  -12.4891   18.1989 C   0  0  0  0  0  0
  -28.0066  -12.3563   18.6127 C   0  0  0  0  0  0
  -27.6478  -13.2087   19.8615 C   0  0  2  0  0  0
  -28.7026  -13.0235   20.9759 C   0  0  0  0  0  0
  -25.2508  -13.8120   20.5642 C   0  0  0  0  0  0
  -24.1793  -13.0405   20.9198 C   0  0  0  0  0  0
  -24.6357  -11.6890   20.8762 C   0  0  0  0  0  0
  -23.9018  -10.4278   21.0410 C   0  0  0  0  0  0
  -24.3596   -9.4197   21.9186 C   0  0  0  0  0  0
  -23.6272   -8.2239   22.0759 C   0  0  0  0  0  0
  -22.4264   -8.0274   21.3538 C   0  0  0  0  0  0
  -21.9893   -9.0239   20.4644 C   0  0  0  0  0  0
  -22.7201  -10.2122   20.3036 C   0  0  0  0  0  0
  -21.6849   -6.0732   22.5278 C   0  0  0  0  0  0
  -21.4014   -6.5623   23.8218 C   0  0  0  0  0  0
  -21.3647   -5.6772   24.9172 C   0  0  0  0  0  0
  -21.6049   -4.3039   24.7223 C   0  0  0  0  0  0
  -21.8815   -3.8134   23.4343 C   0  0  0  0  0  0
  -21.9193   -4.6957   22.3401 C   0  0  0  0  0  0
  -22.7816  -13.5220   21.1820 C   0  0  0  0  0  0
  -22.1654   -4.2133   21.0984 F   0  0  0  0  0  0
  -21.5630   -3.4523   25.7740 F   0  0  0  0  0  0
  -30.0080  -13.3592   20.3976 N   0  0  0  0  0  0
  -26.2947  -12.9298   20.3335 N   0  0  0  0  0  0
  -25.9274  -11.6456   20.5794 N   0  0  0  0  0  0
  -22.0432  -12.8253   22.0390 N   0  0  0  0  0  0
  -25.4090  -15.1855   20.3942 N   0  0  0  0  0  0
  -31.8688  -14.6478   20.2810 O   0  0  0  0  0  0
  -21.6635   -6.8872   21.4235 O   0  0  0  0  0  0
  -22.3504  -14.5524   20.6648 O   0  0  0  0  0  0
  -24.6198  -31.8669   23.2029 C   0  0  0  0  0  0
  -25.9038  -32.4805   23.8405 C   0  0  1  0  0  0
  -27.2131  -27.3406   20.0953 C   0  0  0  0  0  0
  -25.5834  -33.8606   24.2305 N   0  0  0  0  0  0
  -23.4176  -30.4934   21.5377 C   0  0  2  0  0  0
  -24.8591  -28.9489   20.1167 C   0  0  0  0  0  0
  -22.7470  -29.4775   22.4902 C   0  0  0  0  0  0
  -18.0364  -28.1374   22.8399 C   0  0  0  0  0  0
  -24.1472  -36.7267   23.2637 C   0  0  0  0  0  0
  -25.9580  -30.8033   21.3737 C   0  0  0  0  0  0
  -26.0286  -29.4319   20.7133 C   0  0  0  0  0  0
  -27.2090  -28.6340   20.6952 C   0  0  0  0  0  0
  -26.0092  -26.9088   19.4843 C   0  0  0  0  0  0
  -24.8471  -27.6932   19.5021 C   0  0  0  0  0  0
  -23.6319  -29.8220   20.1574 C   0  0  0  0  0  0
  -25.4113  -36.3088   24.0309 C   0  0  1  0  0  0
  -20.5941  -28.3803   23.1292 C   0  0  2  0  0  0
  -20.6889  -26.9541   22.5409 C   0  0  0  0  0  0
  -19.5927  -26.6524   21.5145 C   0  0  0  0  0  0
  -18.2079  -26.7951   22.1512 C   0  0  0  0  0  0
  -19.1554  -28.8879   23.2858 C   0  0  0  0  0  0
  -18.9380  -30.1481   23.8861 C   0  0  0  0  0  0
  -17.6369  -30.6596   24.0435 C   0  0  0  0  0  0
  -25.9056  -34.9455   23.5131 C   0  0  0  0  0  0
  -16.5310  -29.9076   23.6066 C   0  0  0  0  0  0
  -16.7337  -28.6463   23.0173 C   0  0  0  0  0  0
  -26.4451  -31.6611   25.0786 C   0  0  0  0  0  0
  -25.3687  -31.3761   26.1527 C   0  0  0  0  0  0
  -27.0312  -30.3025   24.6250 C   0  0  0  0  0  0
  -27.5977  -32.4411   25.7564 C   0  0  0  0  0  0
  -27.5571  -37.1790   24.8478 C   0  0  0  0  0  0
  -21.4183  -29.3200   22.3670 N   0  0  0  0  0  0
  -26.4287  -37.3779   23.9419 N   0  0  0  0  0  0
  -24.6824  -31.0804   22.0890 N   0  0  0  0  0  0
  -23.4194  -28.8277   23.2954 O   0  0  0  0  0  0
  -28.3641  -26.5469   20.1489 O   0  0  0  0  0  0
  -26.5706  -34.8925   22.4746 O   0  0  0  0  0  0
  -23.5357  -32.1404   23.7402 O   0  0  0  0  0  0
  -28.4218  -16.5697   21.7789 C   0  0  0  0  0  0
  -29.4684  -16.7607   20.8384 C   0  0  0  0  0  0
  -28.1145  -18.8362   21.9859 C   0  0  0  0  0  0
  -29.2031  -19.0984   21.1033 C   0  0  0  0  0  0
  -28.3921  -22.6467   20.6649 C   0  0  0  0  0  0
  -29.0265  -24.0778   20.6495 C   0  0  0  0  0  0
  -29.1030  -21.4162   20.0215 C   0  0  0  0  0  0
  -28.3739  -25.1455   19.6902 C   0  0  0  0  0  0
  -27.7373  -17.5960   22.3310 N   0  0  0  0  0  0
  -29.8620  -18.0449   20.5281 N   0  0  0  0  0  0
  -27.3947  -19.8556   22.5856 N   0  0  0  0  0  0
  -29.9174  -15.6167   20.0925 N   0  0  0  0  0  0
  -29.7150  -20.4157   20.9396 N   0  0  0  0  0  0
  -27.3002  -22.4725   21.2147 O   0  0  0  0  0  0
  -31.4673  -12.4531   19.1117 H   0  0  0  0  0  0
  -30.3427  -11.3386   19.8478 H   0  0  0  0  0  0
  -29.7338  -11.7385   17.4479 H   0  0  0  0  0  0
  -29.6459  -13.4550   17.7137 H   0  0  0  0  0  0
  -27.8184  -11.3006   18.8134 H   0  0  0  0  0  0
  -27.3519  -12.6209   17.7785 H   0  0  0  0  0  0
  -27.6666  -14.2517   19.5405 H   0  0  0  0  0  0
  -28.7046  -11.9885   21.3251 H   0  0  0  0  0  0
  -28.4863  -13.6154   21.8592 H   0  0  0  0  0  0
  -25.2749   -9.5680   22.4731 H   0  0  0  0  0  0
  -23.9986   -7.4631   22.7493 H   0  0  0  0  0  0
  -21.0814   -8.8743   19.8953 H   0  0  0  0  0  0
  -22.3664  -10.9653   19.6129 H   0  0  0  0  0  0
  -21.2011   -7.6134   23.9712 H   0  0  0  0  0  0
  -21.1462   -6.0509   25.9080 H   0  0  0  0  0  0
  -22.0610   -2.7592   23.2850 H   0  0  0  0  0  0
  -22.4048  -11.9995   22.4890 H   0  0  0  0  0  0
  -21.1004  -13.1248   22.2464 H   0  0  0  0  0  0
  -24.6145  -15.8116   20.4515 H   0  0  0  0  0  0
  -26.2276  -15.6265   19.9933 H   0  0  0  0  0  0
  -26.7117  -32.5514   23.1176 H   0  0  0  0  0  0
  -24.9893  -33.9785   25.0389 H   0  0  0  0  0  0
  -22.7069  -31.3083   21.3833 H   0  0  0  0  0  0
  -23.3751  -35.9589   23.3364 H   0  0  0  0  0  0
  -24.3499  -36.8860   22.2026 H   0  0  0  0  0  0
  -23.7215  -37.6467   23.6669 H   0  0  0  0  0  0
  -26.1103  -31.5725   20.6144 H   0  0  0  0  0  0
  -26.8284  -30.8426   22.0159 H   0  0  0  0  0  0
  -28.1159  -29.0008   21.1536 H   0  0  0  0  0  0
  -25.8965  -25.9566   18.9966 H   0  0  0  0  0  0
  -23.9343  -27.3238   19.0547 H   0  0  0  0  0  0
  -23.7566  -30.5895   19.3931 H   0  0  0  0  0  0
  -22.7571  -29.2456   19.8634 H   0  0  0  0  0  0
  -25.1302  -36.1927   25.0787 H   0  0  0  0  0  0
  -21.0148  -28.3415   24.1375 H   0  0  0  0  0  0
  -20.5897  -26.2447   23.3644 H   0  0  0  0  0  0
  -21.6733  -26.7703   22.1103 H   0  0  0  0  0  0
  -19.7228  -25.6494   21.1042 H   0  0  0  0  0  0
  -19.6896  -27.3380   20.6719 H   0  0  0  0  0  0
  -17.4456  -26.6836   21.3772 H   0  0  0  0  0  0
  -18.0438  -25.9989   22.8793 H   0  0  0  0  0  0
  -19.7816  -30.7310   24.2305 H   0  0  0  0  0  0
  -17.4801  -31.6212   24.5121 H   0  0  0  0  0  0
  -15.5312  -30.2934   23.7387 H   0  0  0  0  0  0
  -15.8803  -28.0750   22.6741 H   0  0  0  0  0  0
  -24.5785  -30.7218   25.7830 H   0  0  0  0  0  0
  -24.9017  -32.2976   26.5017 H   0  0  0  0  0  0
  -25.8013  -30.8859   27.0252 H   0  0  0  0  0  0
  -26.2901  -29.6743   24.1310 H   0  0  0  0  0  0
  -27.4017  -29.7332   25.4769 H   0  0  0  0  0  0
  -27.8757  -30.4286   23.9482 H   0  0  0  0  0  0
  -27.2484  -33.3647   26.2191 H   0  0  0  0  0  0
  -28.3760  -32.7087   25.0406 H   0  0  0  0  0  0
  -28.0679  -31.8564   26.5474 H   0  0  0  0  0  0
  -28.2615  -38.0058   24.7499 H   0  0  0  0  0  0
  -28.1056  -36.2598   24.6373 H   0  0  0  0  0  0
  -27.2313  -37.1491   25.8889 H   0  0  0  0  0  0
  -20.9385  -29.8712   21.6683 H   0  0  0  0  0  0
  -26.0186  -38.2859   24.1448 H   0  0  0  0  0  0
  -28.0392  -15.5982   22.0334 H   0  0  0  0  0  0
  -30.1037  -24.0136   20.4840 H   0  0  0  0  0  0
  -28.9173  -24.4391   21.6711 H   0  0  0  0  0  0
  -29.8804  -21.8101   19.3666 H   0  0  0  0  0  0
  -28.3912  -20.9160   19.3651 H   0  0  0  0  0  0
  -28.9513  -25.1390   18.7625 H   0  0  0  0  0  0
  -27.4044  -24.7554   19.3937 H   0  0  0  0  0  0
  -26.4221  -19.6439   22.7651 H   0  0  0  0  0  0
  -27.5147  -20.7616   22.1394 H   0  0  0  0  0  0
  -30.3166  -15.9207   19.2188 H   0  0  0  0  0  0
  -30.7249  -20.4350   20.8664 H   0  0  0  0  0  0
  1 25  1  0  0  0
  1 30  2  0  0  0
  1 82  1  0  0  0
  2  3  1  0  0  0
  2 25  1  0  0  0
  2 85  1  0  0  0
  2 86  1  0  0  0
  3  4  1  0  0  0
  3 87  1  0  0  0
  3 88  1  0  0  0
  4  5  1  0  0  0
  4 89  1  0  0  0
  4 90  1  0  0  0
  5  6  1  0  0  0
  5 26  1  0  0  0
  5 91  1  0  0  0
  6 25  1  0  0  0
  6 92  1  0  0  0
  6 93  1  0  0  0
  7  8  2  0  0  0
  7 26  1  0  0  0
  7 29  1  0  0  0
  8  9  1  0  0  0
  8 22  1  0  0  0
  9 10  1  0  0  0
  9 27  2  0  0  0
 10 11  2  0  0  0
 10 15  1  0  0  0
 11 12  1  0  0  0
 11 94  1  0  0  0
 12 13  2  0  0  0
 12 95  1  0  0  0
 13 14  1  0  0  0
 13 31  1  0  0  0
 14 15  2  0  0  0
 14 96  1  0  0  0
 15 97  1  0  0  0
 16 17  2  0  0  0
 16 21  1  0  0  0
 16 31  1  0  0  0
 17 18  1  0  0  0
 17 98  1  0  0  0
 18 19  2  0  0  0
 18 99  1  0  0  0
 19 20  1  0  0  0
 19 24  1  0  0  0
 20 21  2  0  0  0
 20100  1  0  0  0
 21 23  1  0  0  0
 22 28  1  0  0  0
 22 32  2  0  0  0
 26 27  1  0  0  0
 28101  1  0  0  0
 28102  1  0  0  0
 29103  1  0  0  0
 29104  1  0  0  0
 33 34  1  0  0  0
 33 66  1  0  0  0
 33 70  2  0  0  0
 34 36  1  0  0  0
 34 59  1  0  0  0
 34105  1  0  0  0
 35 44  2  0  0  0
 35 45  1  0  0  0
 35 68  1  0  0  0
 36 56  1  0  0  0
 36106  1  0  0  0
 37 39  1  0  0  0
 37 47  1  0  0  0
 37 66  1  0  0  0
 37107  1  0  0  0
 38 43  2  0  0  0
 38 46  1  0  0  0
 38 47  1  0  0  0
 39 64  1  0  0  0
 39 67  2  0  0  0
 40 52  1  0  0  0
 40 53  2  0  0  0
 40 58  1  0  0  0
 41108  1  0  0  0
 41109  1  0  0  0
 41110  1  0  0  0
 41 48  1  0  0  0
 42 43  1  0  0  0
 42 66  1  0  0  0
 42111  1  0  0  0
 42112  1  0  0  0
 43 44  1  0  0  0
 44113  1  0  0  0
 45 46  2  0  0  0
 45114  1  0  0  0
 46115  1  0  0  0
 47116  1  0  0  0
 47117  1  0  0  0
 48 56  1  0  0  0
 48 65  1  0  0  0
 48118  1  0  0  0
 49 50  1  0  0  0
 49 53  1  0  0  0
 49 64  1  0  0  0
 49119  1  0  0  0
 50 51  1  0  0  0
 50120  1  0  0  0
 50121  1  0  0  0
 51 52  1  0  0  0
 51122  1  0  0  0
 51123  1  0  0  0
 52124  1  0  0  0
 52125  1  0  0  0
 53 54  1  0  0  0
 54 55  2  0  0  0
 54126  1  0  0  0
 55 57  1  0  0  0
 55127  1  0  0  0
 56 69  2  0  0  0
 57 58  2  0  0  0
 57128  1  0  0  0
 58129  1  0  0  0
 59 60  1  0  0  0
 59 61  1  0  0  0
 59 62  1  0  0  0
 60130  1  0  0  0
 60131  1  0  0  0
 60132  1  0  0  0
 61133  1  0  0  0
 61134  1  0  0  0
 61135  1  0  0  0
 62136  1  0  0  0
 62137  1  0  0  0
 62138  1  0  0  0
 63 65  1  0  0  0
 63139  1  0  0  0
 63140  1  0  0  0
 63141  1  0  0  0
 64142  1  0  0  0
 65143  1  0  0  0
 68 78  1  0  0  0
 71 72  2  0  0  0
 71 79  1  0  0  0
 71144  1  0  0  0
 72 80  1  0  0  0
 72 82  1  0  0  0
 73 74  1  0  0  0
 73 79  2  0  0  0
 73 81  1  0  0  0
 74 80  2  0  0  0
 74 83  1  0  0  0
 75 76  1  0  0  0
 75 77  1  0  0  0
 75 84  2  0  0  0
 76 78  1  0  0  0
 76145  1  0  0  0
 76146  1  0  0  0
 77 83  1  0  0  0
 77147  1  0  0  0
 77148  1  0  0  0
 78149  1  0  0  0
 78150  1  0  0  0
 81151  1  0  0  0
 81152  1  0  0  0
 82153  1  0  0  0
 83154  1  0  0  0
M  ISO  4   1 100  68 101  78 101  82 100
M  END
> <chiral flag>
0

> <version>
0

> <s_m_source_file>
/data/baiqing/PycharmProjects/Reinvent-master-3.2/result/LINK_invent/BTK/process_docking_weight1_custom_product_contain_oxygen_bond_distance_aromatic_linkinvent_7_9_3/rearranged_h_0167.sdf

> <i_m_source_file_index>
60

> <r_mmod_Potential_Energy-OPLS-2005>
-12.8733329772949

> <r_mmod_Stretch_Energy-OPLS-2005>
62.2073860168457

> <r_mmod_Bend_Energy-OPLS-2005>
154.959487915039

> <r_mmod_Torsional_Energy-OPLS-2005>
315.525054931641

> <r_mmod_Improper_Torsional_Energy-OPLS-2005>
42.1353034973145

> <r_mmod_Van_der_Waal_Energy-OPLS-2005>
146.426651000977

> <r_mmod_Electrostatic_Energy-OPLS-2005>
-528.476806640625

> <r_mmod_Solvation_Energy-OPLS-2005>
-244.277130126953

> <b_mmod_Minimization_Converged-OPLS-2005>
0

> <r_mmod_RMS_Derivative-OPLS-2005>
6.31169652938843

$$$$
61
                    3D
 Structure written by MMmdl.
158166  0  0  1  0            999 V2000
  -30.7185  -14.4900   20.5620 C   0  0  0  0  0  0
  -30.4163  -12.3168   19.4304 C   0  0  0  0  0  0
  -29.4937  -12.5022   18.2092 C   0  0  0  0  0  0
  -28.0158  -12.3615   18.6221 C   0  0  0  0  0  0
  -27.6583  -13.2131   19.8702 C   0  0  2  0  0  0
  -28.7014  -13.0261   20.9959 C   0  0  0  0  0  0
  -25.2575  -13.8172   20.5685 C   0  0  0  0  0  0
  -24.1836  -13.0442   20.9188 C   0  0  0  0  0  0
  -24.6397  -11.6911   20.8741 C   0  0  0  0  0  0
  -23.9064  -10.4294   21.0406 C   0  0  0  0  0  0
  -24.3616   -9.4210   21.9186 C   0  0  0  0  0  0
  -23.6292   -8.2245   22.0754 C   0  0  0  0  0  0
  -22.4273   -8.0282   21.3546 C   0  0  0  0  0  0
  -21.9910   -9.0255   20.4646 C   0  0  0  0  0  0
  -22.7237  -10.2136   20.3056 C   0  0  0  0  0  0
  -21.6855   -6.0737   22.5280 C   0  0  0  0  0  0
  -21.4013   -6.5641   23.8214 C   0  0  0  0  0  0
  -21.3658   -5.6792   24.9175 C   0  0  0  0  0  0
  -21.6044   -4.3055   24.7225 C   0  0  0  0  0  0
  -21.8820   -3.8149   23.4344 C   0  0  0  0  0  0
  -21.9192   -4.6966   22.3401 C   0  0  0  0  0  0
  -22.7858  -13.5240   21.1846 C   0  0  0  0  0  0
  -22.1663   -4.2152   21.0980 F   0  0  0  0  0  0
  -21.5627   -3.4539   25.7736 F   0  0  0  0  0  0
  -30.0297  -13.3212   20.4361 N   0  0  0  0  0  0
  -26.3010  -12.9354   20.3350 N   0  0  0  0  0  0
  -25.9327  -11.6511   20.5770 N   0  0  0  0  0  0
  -22.0490  -12.8232   22.0394 N   0  0  0  0  0  0
  -25.4286  -15.1890   20.4078 N   0  0  0  0  0  0
  -31.8486  -14.6302   20.0880 O   0  0  0  0  0  0
  -21.6639   -6.8879   21.4242 O   0  0  0  0  0  0
  -22.3549  -14.5548   20.6693 O   0  0  0  0  0  0
  -24.6162  -31.8669   23.2088 C   0  0  0  0  0  0
  -25.9048  -32.4817   23.8393 C   0  0  1  0  0  0
  -27.2315  -27.4238   20.1009 C   0  0  0  0  0  0
  -25.5896  -33.8615   24.2326 N   0  0  0  0  0  0
  -23.4059  -30.4902   21.5491 C   0  0  2  0  0  0
  -24.8548  -28.9576   20.1104 C   0  0  0  0  0  0
  -22.7424  -29.4650   22.4973 C   0  0  0  0  0  0
  -18.0273  -28.1381   22.8493 C   0  0  0  0  0  0
  -24.1485  -36.7310   23.2638 C   0  0  0  0  0  0
  -25.9363  -30.8306   21.3631 C   0  0  0  0  0  0
  -26.0164  -29.4652   20.7080 C   0  0  0  0  0  0
  -27.2124  -28.7066   20.6992 C   0  0  0  0  0  0
  -26.0585  -26.9383   19.4872 C   0  0  0  0  0  0
  -24.8716  -27.6944   19.4939 C   0  0  0  0  0  0
  -23.6154  -29.8234   20.1633 C   0  0  0  0  0  0
  -25.4106  -36.3107   24.0340 C   0  0  1  0  0  0
  -20.5868  -28.3667   23.1313 C   0  0  2  0  0  0
  -20.6764  -26.9402   22.5417 C   0  0  0  0  0  0
  -19.5741  -26.6389   21.5213 C   0  0  0  0  0  0
  -18.1920  -26.7928   22.1625 C   0  0  0  0  0  0
  -19.1525  -28.8841   23.2900 C   0  0  0  0  0  0
  -18.9451  -30.1447   23.8908 C   0  0  0  0  0  0
  -17.6453  -30.6584   24.0567 C   0  0  0  0  0  0
  -25.9035  -34.9473   23.5130 C   0  0  0  0  0  0
  -16.5344  -29.9086   23.6329 C   0  0  0  0  0  0
  -16.7262  -28.6505   23.0348 C   0  0  0  0  0  0
  -26.4472  -31.6592   25.0719 C   0  0  0  0  0  0
  -25.3739  -31.3695   26.1466 C   0  0  0  0  0  0
  -27.0302  -30.3036   24.6087 C   0  0  0  0  0  0
  -27.6049  -32.4308   25.7481 C   0  0  0  0  0  0
  -27.5582  -37.1808   24.8464 C   0  0  0  0  0  0
  -21.4148  -29.3034   22.3718 N   0  0  0  0  0  0
  -26.4291  -37.3792   23.9411 N   0  0  0  0  0  0
  -24.6713  -31.0764   22.0989 N   0  0  0  0  0  0
  -23.4193  -28.8188   23.3016 O   0  0  0  0  0  0
  -28.3445  -26.6115   20.1442 O   0  0  0  0  0  0
  -26.5594  -34.8924   22.4691 O   0  0  0  0  0  0
  -23.5351  -32.1419   23.7479 O   0  0  0  0  0  0
  -29.5470  -17.9716   21.2203 C   0  0  0  0  0  0
  -31.3284  -19.6023   21.5930 C   0  0  0  0  0  0
  -31.8555  -17.2250   21.4354 C   0  0  0  0  0  0
  -29.9570  -19.3251   21.4102 C   0  0  0  0  0  0
  -30.4892  -16.9036   21.2289 C   0  0  0  0  0  0
  -32.2692  -18.5593   21.6042 C   0  0  0  0  0  0
  -28.9860  -20.4346   21.5381 C   0  0  0  0  0  0
  -28.8858  -24.2038   20.7157 C   0  0  0  0  0  0
  -28.6212  -23.2470   23.0638 C   0  0  0  0  0  0
  -28.1604  -25.5263   21.0822 C   0  0  0  0  0  0
  -28.4892  -22.9460   21.5490 C   0  0  2  0  0  0
  -30.0397  -15.5390   21.0858 N   0  0  0  0  0  0
  -29.2630  -21.7161   21.1876 N   0  0  0  0  0  0
  -27.8054  -20.1869   22.1073 N   0  3  0  0  0  0
  -29.7389  -24.1625   19.8233 O   0  0  0  0  0  0
  -33.5794  -18.8406   21.8045 F   0  0  0  0  0  0
  -31.4622  -12.3997   19.1292 H   0  0  0  0  0  0
  -30.3077  -11.3127   19.8437 H   0  0  0  0  0  0
  -29.7373  -11.7708   17.4375 H   0  0  0  0  0  0
  -29.6609  -13.4841   17.7633 H   0  0  0  0  0  0
  -27.8305  -11.3069   18.8290 H   0  0  0  0  0  0
  -27.3644  -12.6246   17.7881 H   0  0  0  0  0  0
  -27.6933  -14.2564   19.5559 H   0  0  0  0  0  0
  -28.6802  -12.0003   21.3676 H   0  0  0  0  0  0
  -28.4642  -13.6546   21.8556 H   0  0  0  0  0  0
  -25.2763   -9.5685   22.4759 H   0  0  0  0  0  0
  -24.0003   -7.4636   22.7475 H   0  0  0  0  0  0
  -21.0841   -8.8770   19.8954 H   0  0  0  0  0  0
  -22.3695  -10.9672   19.6161 H   0  0  0  0  0  0
  -21.2005   -7.6150   23.9716 H   0  0  0  0  0  0
  -21.1479   -6.0524   25.9078 H   0  0  0  0  0  0
  -22.0599   -2.7611   23.2843 H   0  0  0  0  0  0
  -22.4093  -11.9887   22.4780 H   0  0  0  0  0  0
  -21.1108  -13.1265   22.2592 H   0  0  0  0  0  0
  -24.6561  -15.8396   20.5021 H   0  0  0  0  0  0
  -26.2704  -15.6238   20.0523 H   0  0  0  0  0  0
  -26.7122  -32.5529   23.1164 H   0  0  0  0  0  0
  -25.0060  -33.9778   25.0478 H   0  0  0  0  0  0
  -22.6947  -31.3073   21.4101 H   0  0  0  0  0  0
  -23.3746  -35.9644   23.3303 H   0  0  0  0  0  0
  -24.3585  -36.8917   22.2052 H   0  0  0  0  0  0
  -23.7237  -37.6518   23.6646 H   0  0  0  0  0  0
  -26.0498  -31.5965   20.5948 H   0  0  0  0  0  0
  -26.8242  -30.8853   21.9812 H   0  0  0  0  0  0
  -28.1063  -29.0875   21.1733 H   0  0  0  0  0  0
  -26.0586  -25.9641   19.0188 H   0  0  0  0  0  0
  -23.9799  -27.2993   19.0267 H   0  0  0  0  0  0
  -23.7222  -30.5987   19.4039 H   0  0  0  0  0  0
  -22.7398  -29.2427   19.8678 H   0  0  0  0  0  0
  -25.1285  -36.1973   25.0833 H   0  0  0  0  0  0
  -20.9968  -28.3231   24.1431 H   0  0  0  0  0  0
  -20.5672  -26.2271   23.3603 H   0  0  0  0  0  0
  -21.6634  -26.7445   22.1208 H   0  0  0  0  0  0
  -19.6900  -25.6305   21.1228 H   0  0  0  0  0  0
  -19.6682  -27.3215   20.6755 H   0  0  0  0  0  0
  -17.4195  -26.6681   21.4020 H   0  0  0  0  0  0
  -18.0316  -26.0067   22.9018 H   0  0  0  0  0  0
  -19.7926  -30.7262   24.2281 H   0  0  0  0  0  0
  -17.5008  -31.6265   24.5169 H   0  0  0  0  0  0
  -15.5345  -30.2993   23.7646 H   0  0  0  0  0  0
  -15.8661  -28.0830   22.7052 H   0  0  0  0  0  0
  -24.5913  -30.7041   25.7805 H   0  0  0  0  0  0
  -24.8929  -32.2848   26.4926 H   0  0  0  0  0  0
  -25.8097  -30.8858   27.0217 H   0  0  0  0  0  0
  -26.2844  -29.6801   24.1143 H   0  0  0  0  0  0
  -27.4079  -29.7264   25.4536 H   0  0  0  0  0  0
  -27.8675  -30.4360   23.9232 H   0  0  0  0  0  0
  -27.2678  -33.3603   26.2082 H   0  0  0  0  0  0
  -28.3851  -32.6875   25.0303 H   0  0  0  0  0  0
  -28.0729  -31.8416   26.5378 H   0  0  0  0  0  0
  -28.2600  -38.0108   24.7523 H   0  0  0  0  0  0
  -28.1078  -36.2640   24.6276 H   0  0  0  0  0  0
  -27.2303  -37.1444   25.8868 H   0  0  0  0  0  0
  -20.9307  -29.8760   21.6945 H   0  0  0  0  0  0
  -26.0178  -38.2868   24.1416 H   0  0  0  0  0  0
  -28.4973  -17.7493   21.0855 H   0  0  0  0  0  0
  -31.6742  -20.6111   21.7677 H   0  0  0  0  0  0
  -32.6146  -16.4608   21.4883 H   0  0  0  0  0  0
  -27.6676  -23.5826   23.4728 H   0  0  0  0  0  0
  -29.3583  -24.0235   23.2747 H   0  0  0  0  0  0
  -28.9232  -22.3749   23.6442 H   0  0  0  0  0  0
  -28.5229  -25.8610   22.0540 H   0  0  0  0  0  0
  -27.1038  -25.2894   21.2149 H   0  0  0  0  0  0
  -27.4414  -22.7333   21.3315 H   0  0  0  0  0  0
  -29.0795  -15.3484   21.3265 H   0  0  0  0  0  0
  -30.0891  -21.8761   20.6209 H   0  0  0  0  0  0
  -27.6067  -19.2687   22.4708 H   0  0  0  0  0  0
  -27.1272  -20.9181   22.2331 H   0  0  0  0  0  0
  1 25  1  0  0  0
  1 30  2  0  0  0
  1 82  1  0  0  0
  2  3  1  0  0  0
  2 25  1  0  0  0
  2 87  1  0  0  0
  2 88  1  0  0  0
  3  4  1  0  0  0
  3 89  1  0  0  0
  3 90  1  0  0  0
  4  5  1  0  0  0
  4 91  1  0  0  0
  4 92  1  0  0  0
  5  6  1  0  0  0
  5 26  1  0  0  0
  5 93  1  0  0  0
  6 25  1  0  0  0
  6 94  1  0  0  0
  6 95  1  0  0  0
  7  8  2  0  0  0
  7 26  1  0  0  0
  7 29  1  0  0  0
  8  9  1  0  0  0
  8 22  1  0  0  0
  9 10  1  0  0  0
  9 27  2  0  0  0
 10 11  2  0  0  0
 10 15  1  0  0  0
 11 12  1  0  0  0
 11 96  1  0  0  0
 12 13  2  0  0  0
 12 97  1  0  0  0
 13 14  1  0  0  0
 13 31  1  0  0  0
 14 15  2  0  0  0
 14 98  1  0  0  0
 15 99  1  0  0  0
 16 17  2  0  0  0
 16 21  1  0  0  0
 16 31  1  0  0  0
 17 18  1  0  0  0
 17100  1  0  0  0
 18 19  2  0  0  0
 18101  1  0  0  0
 19 20  1  0  0  0
 19 24  1  0  0  0
 20 21  2  0  0  0
 20102  1  0  0  0
 21 23  1  0  0  0
 22 28  1  0  0  0
 22 32  2  0  0  0
 26 27  1  0  0  0
 28103  1  0  0  0
 28104  1  0  0  0
 29105  1  0  0  0
 29106  1  0  0  0
 33 34  1  0  0  0
 33 66  1  0  0  0
 33 70  2  0  0  0
 34 36  1  0  0  0
 34 59  1  0  0  0
 34107  1  0  0  0
 35 44  2  0  0  0
 35 45  1  0  0  0
 35 68  1  0  0  0
 36 56  1  0  0  0
 36108  1  0  0  0
 37 39  1  0  0  0
 37 47  1  0  0  0
 37 66  1  0  0  0
 37109  1  0  0  0
 38 43  2  0  0  0
 38 46  1  0  0  0
 38 47  1  0  0  0
 39 64  1  0  0  0
 39 67  2  0  0  0
 40 52  1  0  0  0
 40 53  2  0  0  0
 40 58  1  0  0  0
 41110  1  0  0  0
 41111  1  0  0  0
 41112  1  0  0  0
 41 48  1  0  0  0
 42 43  1  0  0  0
 42 66  1  0  0  0
 42113  1  0  0  0
 42114  1  0  0  0
 43 44  1  0  0  0
 44115  1  0  0  0
 45 46  2  0  0  0
 45116  1  0  0  0
 46117  1  0  0  0
 47118  1  0  0  0
 47119  1  0  0  0
 48 56  1  0  0  0
 48 65  1  0  0  0
 48120  1  0  0  0
 49 50  1  0  0  0
 49 53  1  0  0  0
 49 64  1  0  0  0
 49121  1  0  0  0
 50 51  1  0  0  0
 50122  1  0  0  0
 50123  1  0  0  0
 51 52  1  0  0  0
 51124  1  0  0  0
 51125  1  0  0  0
 52126  1  0  0  0
 52127  1  0  0  0
 53 54  1  0  0  0
 54 55  2  0  0  0
 54128  1  0  0  0
 55 57  1  0  0  0
 55129  1  0  0  0
 56 69  2  0  0  0
 57 58  2  0  0  0
 57130  1  0  0  0
 58131  1  0  0  0
 59 60  1  0  0  0
 59 61  1  0  0  0
 59 62  1  0  0  0
 60132  1  0  0  0
 60133  1  0  0  0
 60134  1  0  0  0
 61135  1  0  0  0
 61136  1  0  0  0
 61137  1  0  0  0
 62138  1  0  0  0
 62139  1  0  0  0
 62140  1  0  0  0
 63 65  1  0  0  0
 63141  1  0  0  0
 63142  1  0  0  0
 63143  1  0  0  0
 64144  1  0  0  0
 65145  1  0  0  0
 68 80  1  0  0  0
 71 74  2  0  0  0
 71 75  1  0  0  0
 71146  1  0  0  0
 72 74  1  0  0  0
 72 76  2  0  0  0
 72147  1  0  0  0
 73 75  2  0  0  0
 73 76  1  0  0  0
 73148  1  0  0  0
 74 77  1  0  0  0
 75 82  1  0  0  0
 76 86  1  0  0  0
 77 83  1  0  0  0
 77 84  2  0  0  0
 78 80  1  0  0  0
 78 81  1  0  0  0
 78 85  2  0  0  0
 79149  1  0  0  0
 79150  1  0  0  0
 79151  1  0  0  0
 79 81  1  0  0  0
 80152  1  0  0  0
 80153  1  0  0  0
 81 83  1  0  0  0
 81154  1  0  0  0
 82155  1  0  0  0
 83156  1  0  0  0
 84157  1  0  0  0
 84158  1  0  0  0
M  CHG  1  84   1
M  ISO  4   1 100  68 101  80 101  82 100
M  END
> <chiral flag>
0

> <version>
0

> <s_m_source_file>
/data/baiqing/PycharmProjects/Reinvent-master-3.2/result/LINK_invent/BTK/process_docking_weight1_custom_product_contain_oxygen_bond_distance_aromatic_linkinvent_7_9_3/rearranged_h_0167.sdf

> <i_m_source_file_index>
61

> <r_mmod_Potential_Energy-OPLS-2005>
-307.995239257812

> <r_mmod_Stretch_Energy-OPLS-2005>
45.5628662109375

> <r_mmod_Bend_Energy-OPLS-2005>
97.2032699584961

> <r_mmod_Torsional_Energy-OPLS-2005>
238.423492431641

> <r_mmod_Improper_Torsional_Energy-OPLS-2005>
4.72414350509644

> <r_mmod_Van_der_Waal_Energy-OPLS-2005>
160.422424316406

> <r_mmod_Electrostatic_Energy-OPLS-2005>
-411.417877197266

> <r_mmod_Solvation_Energy-OPLS-2005>
-460.409820556641

> <b_mmod_Minimization_Converged-OPLS-2005>
0

> <r_mmod_RMS_Derivative-OPLS-2005>
0.560687243938446

$$$$
62
                    3D
 Structure written by MMmdl.
168176  0  0  1  0            999 V2000
  -30.7269  -14.4975   20.5588 C   0  0  0  0  0  0
  -30.4125  -12.3251   19.4331 C   0  0  0  0  0  0
  -29.4968  -12.5305   18.2084 C   0  0  0  0  0  0
  -28.0134  -12.3914   18.6085 C   0  0  0  0  0  0
  -27.6584  -13.2190   19.8732 C   0  0  2  0  0  0
  -28.6996  -13.0096   20.9920 C   0  0  0  0  0  0
  -25.2577  -13.8188   20.5694 C   0  0  0  0  0  0
  -24.1841  -13.0456   20.9201 C   0  0  0  0  0  0
  -24.6403  -11.6931   20.8729 C   0  0  0  0  0  0
  -23.9065  -10.4314   21.0408 C   0  0  0  0  0  0
  -24.3631   -9.4227   21.9172 C   0  0  0  0  0  0
  -23.6333   -8.2243   22.0722 C   0  0  0  0  0  0
  -22.4302   -8.0283   21.3537 C   0  0  0  0  0  0
  -21.9943   -9.0253   20.4626 C   0  0  0  0  0  0
  -22.7249  -10.2146   20.3048 C   0  0  0  0  0  0
  -21.6858   -6.0752   22.5293 C   0  0  0  0  0  0
  -21.4002   -6.5645   23.8225 C   0  0  0  0  0  0
  -21.3662   -5.6787   24.9176 C   0  0  0  0  0  0
  -21.6049   -4.3047   24.7215 C   0  0  0  0  0  0
  -21.8816   -3.8155   23.4329 C   0  0  0  0  0  0
  -21.9182   -4.6981   22.3398 C   0  0  0  0  0  0
  -22.7861  -13.5248   21.1878 C   0  0  0  0  0  0
  -22.1667   -4.2167   21.0980 F   0  0  0  0  0  0
  -21.5638   -3.4533   25.7727 F   0  0  0  0  0  0
  -30.0292  -13.3260   20.4466 N   0  0  0  0  0  0
  -26.3015  -12.9371   20.3363 N   0  0  0  0  0  0
  -25.9324  -11.6516   20.5742 N   0  0  0  0  0  0
  -22.0491  -12.8236   22.0431 N   0  0  0  0  0  0
  -25.4304  -15.1916   20.4136 N   0  0  0  0  0  0
  -31.8411  -14.6156   20.0416 O   0  0  0  0  0  0
  -21.6639   -6.8901   21.4263 O   0  0  0  0  0  0
  -22.3546  -14.5553   20.6723 O   0  0  0  0  0  0
  -24.6170  -31.8659   23.2082 C   0  0  0  0  0  0
  -25.9047  -32.4817   23.8390 C   0  0  1  0  0  0
  -27.2272  -27.3993   20.1109 C   0  0  0  0  0  0
  -25.5885  -33.8612   24.2304 N   0  0  0  0  0  0
  -23.4062  -30.4891   21.5508 C   0  0  2  0  0  0
  -24.8537  -28.9590   20.1115 C   0  0  0  0  0  0
  -22.7440  -29.4632   22.4987 C   0  0  0  0  0  0
  -18.0277  -28.1377   22.8500 C   0  0  0  0  0  0
  -24.1478  -36.7313   23.2639 C   0  0  0  0  0  0
  -25.9403  -30.8244   21.3655 C   0  0  0  0  0  0
  -26.0186  -29.4594   20.7074 C   0  0  0  0  0  0
  -27.2103  -28.6907   20.6968 C   0  0  0  0  0  0
  -26.0425  -26.9321   19.4933 C   0  0  0  0  0  0
  -24.8645  -27.6984   19.4959 C   0  0  0  0  0  0
  -23.6158  -29.8252   20.1641 C   0  0  0  0  0  0
  -25.4102  -36.3104   24.0331 C   0  0  1  0  0  0
  -20.5870  -28.3655   23.1324 C   0  0  2  0  0  0
  -20.6759  -26.9387   22.5422 C   0  0  0  0  0  0
  -19.5731  -26.6375   21.5226 C   0  0  0  0  0  0
  -18.1915  -26.7922   22.1638 C   0  0  0  0  0  0
  -19.1527  -28.8838   23.2903 C   0  0  0  0  0  0
  -18.9449  -30.1451   23.8894 C   0  0  0  0  0  0
  -17.6448  -30.6583   24.0559 C   0  0  0  0  0  0
  -25.9044  -34.9474   23.5124 C   0  0  0  0  0  0
  -16.5337  -29.9083   23.6329 C   0  0  0  0  0  0
  -16.7265  -28.6504   23.0344 C   0  0  0  0  0  0
  -26.4455  -31.6602   25.0739 C   0  0  0  0  0  0
  -25.3721  -31.3726   26.1491 C   0  0  0  0  0  0
  -27.0264  -30.3030   24.6128 C   0  0  0  0  0  0
  -27.6022  -32.4337   25.7493 C   0  0  0  0  0  0
  -27.5580  -37.1802   24.8456 C   0  0  0  0  0  0
  -21.4161  -29.3012   22.3732 N   0  0  0  0  0  0
  -26.4276  -37.3801   23.9420 N   0  0  0  0  0  0
  -24.6727  -31.0747   22.0991 N   0  0  0  0  0  0
  -23.4218  -28.8178   23.3029 O   0  0  0  0  0  0
  -28.3671  -26.6062   20.1716 O   0  0  0  0  0  0
  -26.5614  -34.8928   22.4688 O   0  0  0  0  0  0
  -23.5349  -32.1406   23.7457 O   0  0  0  0  0  0
  -30.0652  -19.3566   21.1215 C   0  0  0  0  0  0
  -29.7504  -19.3587   23.8955 C   0  0  0  0  0  0
  -30.2003  -18.1264   21.8310 C   0  0  0  0  0  0
  -30.0521  -18.1422   23.2483 C   0  0  0  0  0  0
  -29.7750  -20.5862   21.7808 C   0  0  0  0  0  0
  -29.6222  -20.5641   23.1876 C   0  0  0  0  0  0
  -30.5984  -16.8902   21.1001 C   0  0  0  0  0  0
  -30.0914  -15.6351   21.2385 C   0  0  0  0  0  0
  -28.9240  -22.8804   21.2712 C   0  0  0  0  0  0
  -29.2449  -16.6860   26.3983 C   0  0  0  0  0  0
  -27.7958  -16.6647   24.3482 C   0  0  0  0  0  0
  -29.3248  -14.7401   24.8646 C   0  0  0  0  0  0
  -30.3708  -16.9421   24.1511 C   0  0  0  0  0  0
  -29.3202  -24.3005   20.7679 C   0  0  0  0  0  0
  -28.1264  -25.1748   20.2714 C   0  0  0  0  0  0
  -29.1804  -16.2756   24.9142 C   0  0  0  0  0  0
  -29.7710  -21.8423   21.0732 N   0  0  0  0  0  0
  -27.8308  -22.7215   21.8213 O   0  0  0  0  0  0
  -29.4335  -21.7070   23.8891 F   0  0  0  0  0  0
  -31.4618  -12.3938   19.1361 H   0  0  0  0  0  0
  -30.2925  -11.3190   19.8368 H   0  0  0  0  0  0
  -29.7456  -11.8151   17.4233 H   0  0  0  0  0  0
  -29.6685  -13.5221   17.7846 H   0  0  0  0  0  0
  -27.8154  -11.3359   18.7875 H   0  0  0  0  0  0
  -27.3692  -12.6824   17.7781 H   0  0  0  0  0  0
  -27.6996  -14.2696   19.5848 H   0  0  0  0  0  0
  -28.6860  -11.9718   21.3275 H   0  0  0  0  0  0
  -28.4389  -13.5883   21.8740 H   0  0  0  0  0  0
  -25.2775   -9.5695   22.4740 H   0  0  0  0  0  0
  -24.0044   -7.4614   22.7419 H   0  0  0  0  0  0
  -21.0869   -8.8758   19.8937 H   0  0  0  0  0  0
  -22.3707  -10.9668   19.6146 H   0  0  0  0  0  0
  -21.1997   -7.6144   23.9742 H   0  0  0  0  0  0
  -21.1501   -6.0505   25.9085 H   0  0  0  0  0  0
  -22.0597   -2.7625   23.2808 H   0  0  0  0  0  0
  -22.4115  -11.9920   22.4851 H   0  0  0  0  0  0
  -21.1088  -13.1219   22.2586 H   0  0  0  0  0  0
  -24.6717  -15.8528   20.5291 H   0  0  0  0  0  0
  -26.2978  -15.6287   20.1266 H   0  0  0  0  0  0
  -26.7119  -32.5516   23.1156 H   0  0  0  0  0  0
  -24.9981  -33.9776   25.0411 H   0  0  0  0  0  0
  -22.6938  -31.3055   21.4127 H   0  0  0  0  0  0
  -23.3748  -35.9639   23.3279 H   0  0  0  0  0  0
  -24.3576  -36.8957   22.2058 H   0  0  0  0  0  0
  -23.7223  -37.6504   23.6679 H   0  0  0  0  0  0
  -26.0571  -31.5923   20.5994 H   0  0  0  0  0  0
  -26.8265  -30.8744   21.9871 H   0  0  0  0  0  0
  -28.1072  -29.0711   21.1652 H   0  0  0  0  0  0
  -25.9999  -25.9671   19.0097 H   0  0  0  0  0  0
  -23.9701  -27.3115   19.0264 H   0  0  0  0  0  0
  -23.7212  -30.6007   19.4042 H   0  0  0  0  0  0
  -22.7406  -29.2424   19.8706 H   0  0  0  0  0  0
  -25.1276  -36.1945   25.0823 H   0  0  0  0  0  0
  -20.9953  -28.3209   24.1450 H   0  0  0  0  0  0
  -20.5667  -26.2259   23.3613 H   0  0  0  0  0  0
  -21.6627  -26.7436   22.1203 H   0  0  0  0  0  0
  -19.6883  -25.6293   21.1244 H   0  0  0  0  0  0
  -19.6668  -27.3198   20.6769 H   0  0  0  0  0  0
  -17.4187  -26.6679   21.4035 H   0  0  0  0  0  0
  -18.0305  -26.0067   22.9036 H   0  0  0  0  0  0
  -19.7926  -30.7269   24.2253 H   0  0  0  0  0  0
  -17.5004  -31.6258   24.5158 H   0  0  0  0  0  0
  -15.5338  -30.2969   23.7662 H   0  0  0  0  0  0
  -15.8673  -28.0826   22.7040 H   0  0  0  0  0  0
  -24.5849  -30.7130   25.7818 H   0  0  0  0  0  0
  -24.8976  -32.2900   26.4988 H   0  0  0  0  0  0
  -25.8068  -30.8832   27.0222 H   0  0  0  0  0  0
  -26.2800  -29.6825   24.1155 H   0  0  0  0  0  0
  -27.3968  -29.7234   25.4596 H   0  0  0  0  0  0
  -27.8674  -30.4310   23.9313 H   0  0  0  0  0  0
  -27.2615  -33.3614   26.2099 H   0  0  0  0  0  0
  -28.3810  -32.6940   25.0319 H   0  0  0  0  0  0
  -28.0721  -31.8462   26.5391 H   0  0  0  0  0  0
  -28.2570  -38.0125   24.7544 H   0  0  0  0  0  0
  -28.1099  -36.2661   24.6213 H   0  0  0  0  0  0
  -27.2320  -37.1373   25.8862 H   0  0  0  0  0  0
  -20.9342  -29.8714   21.6925 H   0  0  0  0  0  0
  -26.0153  -38.2866   24.1457 H   0  0  0  0  0  0
  -30.2215  -19.3604   20.0528 H   0  0  0  0  0  0
  -29.6817  -19.3869   24.9713 H   0  0  0  0  0  0
  -31.4380  -17.0289   20.4319 H   0  0  0  0  0  0
  -29.2400  -15.5018   21.8805 H   0  0  0  0  0  0
  -28.4444  -16.2244   26.9767 H   0  0  0  0  0  0
  -29.1625  -17.7650   26.5274 H   0  0  0  0  0  0
  -30.1878  -16.3761   26.8512 H   0  0  0  0  0  0
  -26.9969  -16.1003   24.8305 H   0  0  0  0  0  0
  -27.7204  -16.4722   23.2780 H   0  0  0  0  0  0
  -27.5747  -17.7202   24.5073 H   0  0  0  0  0  0
  -28.5347  -14.2467   25.4336 H   0  0  0  0  0  0
  -30.2775  -14.4177   25.2874 H   0  0  0  0  0  0
  -29.2788  -14.3530   23.8491 H   0  0  0  0  0  0
  -31.1175  -17.2889   24.8667 H   0  0  0  0  0  0
  -30.9275  -16.1905   23.5954 H   0  0  0  0  0  0
  -30.0852  -24.2306   19.9946 H   0  0  0  0  0  0
  -29.7878  -24.8047   21.6139 H   0  0  0  0  0  0
  -27.2810  -25.0197   20.9440 H   0  0  0  0  0  0
  -27.8260  -24.7938   19.2951 H   0  0  0  0  0  0
  -30.5538  -22.0028   20.4530 H   0  0  0  0  0  0
  1 25  1  0  0  0
  1 30  2  0  0  0
  1 78  1  0  0  0
  2  3  1  0  0  0
  2 25  1  0  0  0
  2 90  1  0  0  0
  2 91  1  0  0  0
  3  4  1  0  0  0
  3 92  1  0  0  0
  3 93  1  0  0  0
  4  5  1  0  0  0
  4 94  1  0  0  0
  4 95  1  0  0  0
  5  6  1  0  0  0
  5 26  1  0  0  0
  5 96  1  0  0  0
  6 25  1  0  0  0
  6 97  1  0  0  0
  6 98  1  0  0  0
  7  8  2  0  0  0
  7 26  1  0  0  0
  7 29  1  0  0  0
  8  9  1  0  0  0
  8 22  1  0  0  0
  9 10  1  0  0  0
  9 27  2  0  0  0
 10 11  2  0  0  0
 10 15  1  0  0  0
 11 12  1  0  0  0
 11 99  1  0  0  0
 12 13  2  0  0  0
 12100  1  0  0  0
 13 14  1  0  0  0
 13 31  1  0  0  0
 14 15  2  0  0  0
 14101  1  0  0  0
 15102  1  0  0  0
 16 17  2  0  0  0
 16 21  1  0  0  0
 16 31  1  0  0  0
 17 18  1  0  0  0
 17103  1  0  0  0
 18 19  2  0  0  0
 18104  1  0  0  0
 19 20  1  0  0  0
 19 24  1  0  0  0
 20 21  2  0  0  0
 20105  1  0  0  0
 21 23  1  0  0  0
 22 28  1  0  0  0
 22 32  2  0  0  0
 26 27  1  0  0  0
 28106  1  0  0  0
 28107  1  0  0  0
 29108  1  0  0  0
 29109  1  0  0  0
 33 34  1  0  0  0
 33 66  1  0  0  0
 33 70  2  0  0  0
 34 36  1  0  0  0
 34 59  1  0  0  0
 34110  1  0  0  0
 35 44  2  0  0  0
 35 45  1  0  0  0
 35 68  1  0  0  0
 36 56  1  0  0  0
 36111  1  0  0  0
 37 39  1  0  0  0
 37 47  1  0  0  0
 37 66  1  0  0  0
 37112  1  0  0  0
 38 43  2  0  0  0
 38 46  1  0  0  0
 38 47  1  0  0  0
 39 64  1  0  0  0
 39 67  2  0  0  0
 40 52  1  0  0  0
 40 53  2  0  0  0
 40 58  1  0  0  0
 41113  1  0  0  0
 41114  1  0  0  0
 41115  1  0  0  0
 41 48  1  0  0  0
 42 43  1  0  0  0
 42 66  1  0  0  0
 42116  1  0  0  0
 42117  1  0  0  0
 43 44  1  0  0  0
 44118  1  0  0  0
 45 46  2  0  0  0
 45119  1  0  0  0
 46120  1  0  0  0
 47121  1  0  0  0
 47122  1  0  0  0
 48 56  1  0  0  0
 48 65  1  0  0  0
 48123  1  0  0  0
 49 50  1  0  0  0
 49 53  1  0  0  0
 49 64  1  0  0  0
 49124  1  0  0  0
 50 51  1  0  0  0
 50125  1  0  0  0
 50126  1  0  0  0
 51 52  1  0  0  0
 51127  1  0  0  0
 51128  1  0  0  0
 52129  1  0  0  0
 52130  1  0  0  0
 53 54  1  0  0  0
 54 55  2  0  0  0
 54131  1  0  0  0
 55 57  1  0  0  0
 55132  1  0  0  0
 56 69  2  0  0  0
 57 58  2  0  0  0
 57133  1  0  0  0
 58134  1  0  0  0
 59 60  1  0  0  0
 59 61  1  0  0  0
 59 62  1  0  0  0
 60135  1  0  0  0
 60136  1  0  0  0
 60137  1  0  0  0
 61138  1  0  0  0
 61139  1  0  0  0
 61140  1  0  0  0
 62141  1  0  0  0
 62142  1  0  0  0
 62143  1  0  0  0
 63 65  1  0  0  0
 63144  1  0  0  0
 63145  1  0  0  0
 63146  1  0  0  0
 64147  1  0  0  0
 65148  1  0  0  0
 68 85  1  0  0  0
 71 73  2  0  0  0
 71 75  1  0  0  0
 71149  1  0  0  0
 72 74  2  0  0  0
 72 76  1  0  0  0
 72150  1  0  0  0
 73 74  1  0  0  0
 73 77  1  0  0  0
 74 83  1  0  0  0
 75 76  2  0  0  0
 75 87  1  0  0  0
 76 89  1  0  0  0
 77 78  2  0  0  0
 77151  1  0  0  0
 78152  1  0  0  0
 79 84  1  0  0  0
 79 87  1  0  0  0
 79 88  2  0  0  0
 80153  1  0  0  0
 80154  1  0  0  0
 80155  1  0  0  0
 80 86  1  0  0  0
 81 86  1  0  0  0
 81156  1  0  0  0
 81157  1  0  0  0
 81158  1  0  0  0
 82 86  1  0  0  0
 82159  1  0  0  0
 82160  1  0  0  0
 82161  1  0  0  0
 83 86  1  0  0  0
 83162  1  0  0  0
 83163  1  0  0  0
 84 85  1  0  0  0
 84164  1  0  0  0
 84165  1  0  0  0
 85166  1  0  0  0
 85167  1  0  0  0
 87168  1  0  0  0
M  ISO  4   1 100  68 101  78 100  85 101
M  END
> <chiral flag>
0

> <version>
0

> <s_m_source_file>
/data/baiqing/PycharmProjects/Reinvent-master-3.2/result/LINK_invent/BTK/process_docking_weight1_custom_product_contain_oxygen_bond_distance_aromatic_linkinvent_7_9_3/rearranged_h_0167.sdf

> <i_m_source_file_index>
62

> <r_mmod_Potential_Energy-OPLS-2005>
-16.31711769104

> <r_mmod_Stretch_Energy-OPLS-2005>
51.751033782959

> <r_mmod_Bend_Energy-OPLS-2005>
117.666465759277

> <r_mmod_Torsional_Energy-OPLS-2005>
226.56379699707

> <r_mmod_Improper_Torsional_Energy-OPLS-2005>
4.59211921691895

> <r_mmod_Van_der_Waal_Energy-OPLS-2005>
168.693466186523

> <r_mmod_Electrostatic_Energy-OPLS-2005>
-396.130859375

> <r_mmod_Solvation_Energy-OPLS-2005>
-208.953430175781

> <b_mmod_Minimization_Converged-OPLS-2005>
0

> <r_mmod_RMS_Derivative-OPLS-2005>
2.97449612617493

$$$$
63
                    3D
 Structure written by MMmdl.
162170  0  0  1  0            999 V2000
  -30.7374  -14.5461   20.5141 C   0  0  0  0  0  0
  -30.3970  -12.3405   19.4535 C   0  0  0  0  0  0
  -29.4900  -12.4978   18.2196 C   0  0  0  0  0  0
  -28.0143  -12.3543   18.6322 C   0  0  0  0  0  0
  -27.6465  -13.2302   19.8617 C   0  0  2  0  0  0
  -28.6916  -13.1150   20.9948 C   0  0  0  0  0  0
  -25.2514  -13.8208   20.5710 C   0  0  0  0  0  0
  -24.1807  -13.0455   20.9205 C   0  0  0  0  0  0
  -24.6394  -11.6932   20.8749 C   0  0  0  0  0  0
  -23.9076  -10.4303   21.0410 C   0  0  0  0  0  0
  -24.3622   -9.4216   21.9190 C   0  0  0  0  0  0
  -23.6295   -8.2249   22.0754 C   0  0  0  0  0  0
  -22.4276   -8.0287   21.3545 C   0  0  0  0  0  0
  -21.9922   -9.0260   20.4648 C   0  0  0  0  0  0
  -22.7250  -10.2140   20.3061 C   0  0  0  0  0  0
  -21.6858   -6.0742   22.5275 C   0  0  0  0  0  0
  -21.4017   -6.5644   23.8209 C   0  0  0  0  0  0
  -21.3661   -5.6796   24.9170 C   0  0  0  0  0  0
  -21.6042   -4.3058   24.7219 C   0  0  0  0  0  0
  -21.8820   -3.8156   23.4336 C   0  0  0  0  0  0
  -21.9193   -4.6970   22.3396 C   0  0  0  0  0  0
  -22.7832  -13.5233   21.1858 C   0  0  0  0  0  0
  -22.1666   -4.2161   21.0973 F   0  0  0  0  0  0
  -21.5626   -3.4541   25.7734 F   0  0  0  0  0  0
  -30.0105  -13.3927   20.4150 N   0  0  0  0  0  0
  -26.2958  -12.9421   20.3353 N   0  0  0  0  0  0
  -25.9325  -11.6558   20.5784 N   0  0  0  0  0  0
  -22.0480  -12.8222   22.0410 N   0  0  0  0  0  0
  -25.4209  -15.1933   20.4134 N   0  0  0  0  0  0
  -31.9040  -14.5571   20.1155 O   0  0  0  0  0  0
  -21.6640   -6.8886   21.4241 O   0  0  0  0  0  0
  -22.3522  -14.5548   20.6714 O   0  0  0  0  0  0
  -24.6193  -31.8639   23.2084 C   0  0  0  0  0  0
  -25.9068  -32.4800   23.8390 C   0  0  1  0  0  0
  -27.2256  -27.4000   20.1103 C   0  0  0  0  0  0
  -25.5916  -33.8600   24.2330 N   0  0  0  0  0  0
  -23.4101  -30.4871   21.5477 C   0  0  2  0  0  0
  -24.8585  -28.9549   20.1045 C   0  0  0  0  0  0
  -22.7438  -29.4636   22.4965 C   0  0  0  0  0  0
  -18.0267  -28.1377   22.8495 C   0  0  0  0  0  0
  -24.1480  -36.7307   23.2642 C   0  0  0  0  0  0
  -25.9398  -30.8246   21.3607 C   0  0  0  0  0  0
  -26.0196  -29.4568   20.7066 C   0  0  0  0  0  0
  -27.2093  -28.6865   20.7088 C   0  0  0  0  0  0
  -26.0557  -26.9270   19.4874 C   0  0  0  0  0  0
  -24.8736  -27.6924   19.4865 C   0  0  0  0  0  0
  -23.6197  -29.8219   20.1607 C   0  0  0  0  0  0
  -25.4098  -36.3104   24.0346 C   0  0  1  0  0  0
  -20.5864  -28.3670   23.1300 C   0  0  2  0  0  0
  -20.6755  -26.9397   22.5414 C   0  0  0  0  0  0
  -19.5727  -26.6387   21.5211 C   0  0  0  0  0  0
  -18.1904  -26.7928   22.1616 C   0  0  0  0  0  0
  -19.1521  -28.8838   23.2897 C   0  0  0  0  0  0
  -18.9450  -30.1442   23.8912 C   0  0  0  0  0  0
  -17.6454  -30.6583   24.0562 C   0  0  0  0  0  0
  -25.9031  -34.9464   23.5131 C   0  0  0  0  0  0
  -16.5344  -29.9083   23.6331 C   0  0  0  0  0  0
  -16.7258  -28.6497   23.0364 C   0  0  0  0  0  0
  -26.4496  -31.6575   25.0715 C   0  0  0  0  0  0
  -25.3771  -31.3637   26.1463 C   0  0  0  0  0  0
  -27.0340  -30.3024   24.6083 C   0  0  0  0  0  0
  -27.6089  -32.4280   25.7467 C   0  0  0  0  0  0
  -27.5576  -37.1791   24.8464 C   0  0  0  0  0  0
  -21.4157  -29.3031   22.3708 N   0  0  0  0  0  0
  -26.4275  -37.3797   23.9435 N   0  0  0  0  0  0
  -24.6751  -31.0729   22.0981 N   0  0  0  0  0  0
  -23.4191  -28.8179   23.3022 O   0  0  0  0  0  0
  -28.3006  -26.5357   20.1965 O   0  0  0  0  0  0
  -26.5597  -34.8919   22.4695 O   0  0  0  0  0  0
  -23.5379  -32.1392   23.7471 O   0  0  0  0  0  0
  -29.6755  -20.3704   22.2946 C   0  0  0  0  0  0
  -29.8742  -18.2167   21.1162 C   0  0  0  0  0  0
  -29.0332  -18.7504   20.0821 C   0  0  0  0  0  0
  -28.5138  -20.0931   20.1781 C   0  0  0  0  0  0
  -28.8939  -20.9359   21.2684 C   0  0  0  0  0  0
  -30.1512  -19.0484   22.2280 C   0  0  0  0  0  0
  -25.4327  -19.7726   18.0139 C   0  0  0  0  0  0
  -26.1969  -19.9138   19.1079 C   0  0  0  0  0  0
  -28.4023  -25.9235   21.4316 C   0  0  0  0  0  0
  -30.6860  -16.9267   20.9973 C   0  0  0  0  0  0
  -28.5377  -24.6071   21.7666 C   0  0  0  0  0  0
  -28.6784  -23.4582   20.8440 C   0  0  0  0  0  0
  -28.7163  -17.9132   18.8392 C   0  0  0  0  0  0
  -27.5392  -20.6156   19.1180 C   0  0  0  0  0  0
  -28.4580  -22.2909   21.5069 N   0  0  0  0  0  0
  -30.0912  -15.6996   20.8653 N   0  0  0  0  0  0
  -31.9134  -17.0814   21.0337 O   0  0  0  0  0  0
  -28.9488  -23.5225   19.6440 O   0  0  0  0  0  0
  -28.5479  -24.3281   23.0843 O   0  0  0  0  0  0
  -30.9204  -18.5978   23.2507 F   0  0  0  0  0  0
  -31.4455  -12.3868   19.1560 H   0  0  0  0  0  0
  -30.2659  -11.3549   19.9025 H   0  0  0  0  0  0
  -29.7422  -11.7525   17.4648 H   0  0  0  0  0  0
  -29.6530  -13.4722   17.7563 H   0  0  0  0  0  0
  -27.8400  -11.3023   18.8620 H   0  0  0  0  0  0
  -27.3618  -12.5936   17.7917 H   0  0  0  0  0  0
  -27.6588  -14.2634   19.5124 H   0  0  0  0  0  0
  -28.6794  -12.1164   21.4335 H   0  0  0  0  0  0
  -28.4575  -13.8061   21.8063 H   0  0  0  0  0  0
  -25.2762   -9.5692   22.4773 H   0  0  0  0  0  0
  -24.0007   -7.4641   22.7476 H   0  0  0  0  0  0
  -21.0858   -8.8776   19.8952 H   0  0  0  0  0  0
  -22.3706  -10.9680   19.6172 H   0  0  0  0  0  0
  -21.2012   -7.6155   23.9716 H   0  0  0  0  0  0
  -21.1487   -6.0527   25.9072 H   0  0  0  0  0  0
  -22.0599   -2.7620   23.2832 H   0  0  0  0  0  0
  -22.4095  -11.9855   22.4753 H   0  0  0  0  0  0
  -21.1096  -13.1240   22.2634 H   0  0  0  0  0  0
  -24.6483  -15.8423   20.5131 H   0  0  0  0  0  0
  -26.2655  -15.6350   20.0759 H   0  0  0  0  0  0
  -26.7146  -32.5520   23.1159 H   0  0  0  0  0  0
  -25.0078  -33.9761   25.0481 H   0  0  0  0  0  0
  -22.7008  -31.3053   21.4081 H   0  0  0  0  0  0
  -23.3750  -35.9626   23.3277 H   0  0  0  0  0  0
  -24.3597  -36.8960   22.2066 H   0  0  0  0  0  0
  -23.7208  -37.6491   23.6673 H   0  0  0  0  0  0
  -26.0478  -31.5883   20.5900 H   0  0  0  0  0  0
  -26.8294  -30.8868   21.9756 H   0  0  0  0  0  0
  -28.0992  -29.0561   21.1979 H   0  0  0  0  0  0
  -26.0509  -25.9432   19.0397 H   0  0  0  0  0  0
  -23.9805  -27.2986   19.0210 H   0  0  0  0  0  0
  -23.7254  -30.5984   19.4022 H   0  0  0  0  0  0
  -22.7435  -29.2415   19.8659 H   0  0  0  0  0  0
  -25.1261  -36.1965   25.0833 H   0  0  0  0  0  0
  -20.9948  -28.3237   24.1424 H   0  0  0  0  0  0
  -20.5643  -26.2282   23.3609 H   0  0  0  0  0  0
  -21.6624  -26.7428   22.1208 H   0  0  0  0  0  0
  -19.6888  -25.6303   21.1228 H   0  0  0  0  0  0
  -19.6670  -27.3206   20.6749 H   0  0  0  0  0  0
  -17.4180  -26.6703   21.4011 H   0  0  0  0  0  0
  -18.0290  -26.0057   22.8995 H   0  0  0  0  0  0
  -19.7923  -30.7255   24.2295 H   0  0  0  0  0  0
  -17.5003  -31.6264   24.5153 H   0  0  0  0  0  0
  -15.5345  -30.2988   23.7646 H   0  0  0  0  0  0
  -15.8658  -28.0813   22.7093 H   0  0  0  0  0  0
  -24.6005  -30.6915   25.7787 H   0  0  0  0  0  0
  -24.8886  -32.2753   26.4899 H   0  0  0  0  0  0
  -25.8153  -30.8828   27.0218 H   0  0  0  0  0  0
  -26.2870  -29.6749   24.1207 H   0  0  0  0  0  0
  -27.4196  -29.7295   25.4528 H   0  0  0  0  0  0
  -27.8658  -30.4354   23.9170 H   0  0  0  0  0  0
  -27.2752  -33.3598   26.2031 H   0  0  0  0  0  0
  -28.3895  -32.6793   25.0280 H   0  0  0  0  0  0
  -28.0747  -31.8396   26.5379 H   0  0  0  0  0  0
  -28.2553  -38.0125   24.7570 H   0  0  0  0  0  0
  -28.1107  -36.2665   24.6201 H   0  0  0  0  0  0
  -27.2311  -37.1339   25.8867 H   0  0  0  0  0  0
  -20.9325  -29.8763   21.6934 H   0  0  0  0  0  0
  -26.0159  -38.2862   24.1481 H   0  0  0  0  0  0
  -29.9454  -20.9634   23.1569 H   0  0  0  0  0  0
  -24.4715  -19.2799   18.0625 H   0  0  0  0  0  0
  -25.7531  -20.1500   17.0529 H   0  0  0  0  0  0
  -25.8432  -19.5362   20.0571 H   0  0  0  0  0  0
  -28.3316  -26.6678   22.2139 H   0  0  0  0  0  0
  -29.4247  -17.1071   18.6604 H   0  0  0  0  0  0
  -28.7416  -18.5176   17.9335 H   0  0  0  0  0  0
  -27.7228  -17.4715   18.9213 H   0  0  0  0  0  0
  -28.0006  -20.5922   18.1310 H   0  0  0  0  0  0
  -27.2965  -21.6596   19.2883 H   0  0  0  0  0  0
  -28.2650  -22.5120   22.4775 H   0  0  0  0  0  0
  -29.0956  -15.6533   21.0001 H   0  0  0  0  0  0
  -28.4596  -25.1462   23.5553 H   0  0  0  0  0  0
  1 25  1  0  0  0
  1 30  2  0  0  0
  1 86  1  0  0  0
  2  3  1  0  0  0
  2 25  1  0  0  0
  2 91  1  0  0  0
  2 92  1  0  0  0
  3  4  1  0  0  0
  3 93  1  0  0  0
  3 94  1  0  0  0
  4  5  1  0  0  0
  4 95  1  0  0  0
  4 96  1  0  0  0
  5  6  1  0  0  0
  5 26  1  0  0  0
  5 97  1  0  0  0
  6 25  1  0  0  0
  6 98  1  0  0  0
  6 99  1  0  0  0
  7  8  2  0  0  0
  7 26  1  0  0  0
  7 29  1  0  0  0
  8  9  1  0  0  0
  8 22  1  0  0  0
  9 10  1  0  0  0
  9 27  2  0  0  0
 10 11  2  0  0  0
 10 15  1  0  0  0
 11 12  1  0  0  0
 11100  1  0  0  0
 12 13  2  0  0  0
 12101  1  0  0  0
 13 14  1  0  0  0
 13 31  1  0  0  0
 14 15  2  0  0  0
 14102  1  0  0  0
 15103  1  0  0  0
 16 17  2  0  0  0
 16 21  1  0  0  0
 16 31  1  0  0  0
 17 18  1  0  0  0
 17104  1  0  0  0
 18 19  2  0  0  0
 18105  1  0  0  0
 19 20  1  0  0  0
 19 24  1  0  0  0
 20 21  2  0  0  0
 20106  1  0  0  0
 21 23  1  0  0  0
 22 28  1  0  0  0
 22 32  2  0  0  0
 26 27  1  0  0  0
 28107  1  0  0  0
 28108  1  0  0  0
 29109  1  0  0  0
 29110  1  0  0  0
 33 34  1  0  0  0
 33 66  1  0  0  0
 33 70  2  0  0  0
 34 36  1  0  0  0
 34 59  1  0  0  0
 34111  1  0  0  0
 35 44  2  0  0  0
 35 45  1  0  0  0
 35 68  1  0  0  0
 36 56  1  0  0  0
 36112  1  0  0  0
 37 39  1  0  0  0
 37 47  1  0  0  0
 37 66  1  0  0  0
 37113  1  0  0  0
 38 43  2  0  0  0
 38 46  1  0  0  0
 38 47  1  0  0  0
 39 64  1  0  0  0
 39 67  2  0  0  0
 40 52  1  0  0  0
 40 53  2  0  0  0
 40 58  1  0  0  0
 41114  1  0  0  0
 41115  1  0  0  0
 41116  1  0  0  0
 41 48  1  0  0  0
 42 43  1  0  0  0
 42 66  1  0  0  0
 42117  1  0  0  0
 42118  1  0  0  0
 43 44  1  0  0  0
 44119  1  0  0  0
 45 46  2  0  0  0
 45120  1  0  0  0
 46121  1  0  0  0
 47122  1  0  0  0
 47123  1  0  0  0
 48 56  1  0  0  0
 48 65  1  0  0  0
 48124  1  0  0  0
 49 50  1  0  0  0
 49 53  1  0  0  0
 49 64  1  0  0  0
 49125  1  0  0  0
 50 51  1  0  0  0
 50126  1  0  0  0
 50127  1  0  0  0
 51 52  1  0  0  0
 51128  1  0  0  0
 51129  1  0  0  0
 52130  1  0  0  0
 52131  1  0  0  0
 53 54  1  0  0  0
 54 55  2  0  0  0
 54132  1  0  0  0
 55 57  1  0  0  0
 55133  1  0  0  0
 56 69  2  0  0  0
 57 58  2  0  0  0
 57134  1  0  0  0
 58135  1  0  0  0
 59 60  1  0  0  0
 59 61  1  0  0  0
 59 62  1  0  0  0
 60136  1  0  0  0
 60137  1  0  0  0
 60138  1  0  0  0
 61139  1  0  0  0
 61140  1  0  0  0
 61141  1  0  0  0
 62142  1  0  0  0
 62143  1  0  0  0
 62144  1  0  0  0
 63 65  1  0  0  0
 63145  1  0  0  0
 63146  1  0  0  0
 63147  1  0  0  0
 64148  1  0  0  0
 65149  1  0  0  0
 68 79  1  0  0  0
 71 75  2  0  0  0
 71 76  1  0  0  0
 71150  1  0  0  0
 72 73  1  0  0  0
 72 76  2  0  0  0
 72 80  1  0  0  0
 73 74  2  0  0  0
 73 83  1  0  0  0
 74 75  1  0  0  0
 74 84  1  0  0  0
 75 85  1  0  0  0
 76 90  1  0  0  0
 77 78  2  0  0  0
 77151  1  0  0  0
 77152  1  0  0  0
 78 84  1  0  0  0
 78153  1  0  0  0
 79 81  2  0  0  0
 79154  1  0  0  0
 80 86  1  0  0  0
 80 87  2  0  0  0
 81 82  1  0  0  0
 81 89  1  0  0  0
 82 85  1  0  0  0
 82 88  2  0  0  0
 83155  1  0  0  0
 83156  1  0  0  0
 83157  1  0  0  0
 84158  1  0  0  0
 84159  1  0  0  0
 85160  1  0  0  0
 86161  1  0  0  0
 89162  1  0  0  0
M  ISO  4   1 100  68 101  79 101  86 100
M  END
> <chiral flag>
0

> <version>
0

> <s_m_source_file>
/data/baiqing/PycharmProjects/Reinvent-master-3.2/result/LINK_invent/BTK/process_docking_weight1_custom_product_contain_oxygen_bond_distance_aromatic_linkinvent_7_9_3/rearranged_h_0167.sdf

> <i_m_source_file_index>
63

> <r_mmod_Potential_Energy-OPLS-2005>
45.3886413574219

> <r_mmod_Stretch_Energy-OPLS-2005>
57.0696830749512

> <r_mmod_Bend_Energy-OPLS-2005>
150.260650634766

> <r_mmod_Torsional_Energy-OPLS-2005>
276.974243164062

> <r_mmod_Improper_Torsional_Energy-OPLS-2005>
8.09219455718994

> <r_mmod_Van_der_Waal_Energy-OPLS-2005>
167.469940185547

> <r_mmod_Electrostatic_Energy-OPLS-2005>
-401.939178466797

> <r_mmod_Solvation_Energy-OPLS-2005>
-246.562088012695

> <b_mmod_Minimization_Converged-OPLS-2005>
0

> <r_mmod_RMS_Derivative-OPLS-2005>
1.62492156028748

$$$$
64
                    3D
 Structure written by MMmdl.
165173  0  0  1  0            999 V2000
  -30.6942  -14.6040   20.4798 C   0  0  0  0  0  0
  -30.4303  -12.3693   19.4460 C   0  0  0  0  0  0
  -29.5085  -12.4917   18.2166 C   0  0  0  0  0  0
  -28.0314  -12.3403   18.6323 C   0  0  0  0  0  0
  -27.6554  -13.2211   19.8570 C   0  0  2  0  0  0
  -28.7066  -13.1165   20.9866 C   0  0  0  0  0  0
  -25.2623  -13.8180   20.5765 C   0  0  0  0  0  0
  -24.1883  -13.0453   20.9226 C   0  0  0  0  0  0
  -24.6454  -11.6913   20.8785 C   0  0  0  0  0  0
  -23.9132  -10.4308   21.0443 C   0  0  0  0  0  0
  -24.3676   -9.4196   21.9199 C   0  0  0  0  0  0
  -23.6334   -8.2239   22.0754 C   0  0  0  0  0  0
  -22.4298   -8.0315   21.3569 C   0  0  0  0  0  0
  -21.9981   -9.0292   20.4656 C   0  0  0  0  0  0
  -22.7327  -10.2156   20.3068 C   0  0  0  0  0  0
  -21.6884   -6.0779   22.5304 C   0  0  0  0  0  0
  -21.4010   -6.5656   23.8238 C   0  0  0  0  0  0
  -21.3660   -5.6800   24.9194 C   0  0  0  0  0  0
  -21.6021   -4.3059   24.7228 C   0  0  0  0  0  0
  -21.8825   -3.8173   23.4342 C   0  0  0  0  0  0
  -21.9191   -4.7003   22.3415 C   0  0  0  0  0  0
  -22.7910  -13.5268   21.1873 C   0  0  0  0  0  0
  -22.1678   -4.2200   21.0994 F   0  0  0  0  0  0
  -21.5608   -3.4532   25.7727 F   0  0  0  0  0  0
  -30.0223  -13.4152   20.3990 N   0  0  0  0  0  0
  -26.3048  -12.9375   20.3348 N   0  0  0  0  0  0
  -25.9393  -11.6529   20.5760 N   0  0  0  0  0  0
  -22.0533  -12.8285   22.0407 N   0  0  0  0  0  0
  -25.4295  -15.1921   20.4255 N   0  0  0  0  0  0
  -31.8795  -14.7053   20.1555 O   0  0  0  0  0  0
  -21.6646   -6.8917   21.4264 O   0  0  0  0  0  0
  -22.3627  -14.5600   20.6704 O   0  0  0  0  0  0
  -24.6221  -31.8630   23.2046 C   0  0  0  0  0  0
  -25.9083  -32.4820   23.8363 C   0  0  1  0  0  0
  -27.2399  -27.3790   20.0977 C   0  0  0  0  0  0
  -25.5933  -33.8624   24.2285 N   0  0  0  0  0  0
  -23.4141  -30.4850   21.5444 C   0  0  2  0  0  0
  -24.8571  -28.9327   20.1215 C   0  0  0  0  0  0
  -22.7453  -29.4650   22.4949 C   0  0  0  0  0  0
  -18.0288  -28.1414   22.8514 C   0  0  0  0  0  0
  -24.1478  -36.7291   23.2632 C   0  0  0  0  0  0
  -25.9478  -30.8070   21.3651 C   0  0  0  0  0  0
  -26.0206  -29.4339   20.7197 C   0  0  0  0  0  0
  -27.2140  -28.6673   20.6975 C   0  0  0  0  0  0
  -26.0564  -26.9051   19.4911 C   0  0  0  0  0  0
  -24.8728  -27.6698   19.5059 C   0  0  0  0  0  0
  -23.6268  -29.8135   20.1621 C   0  0  0  0  0  0
  -25.4108  -36.3104   24.0322 C   0  0  1  0  0  0
  -20.5890  -28.3710   23.1317 C   0  0  2  0  0  0
  -20.6789  -26.9442   22.5425 C   0  0  0  0  0  0
  -19.5741  -26.6415   21.5249 C   0  0  0  0  0  0
  -18.1926  -26.7961   22.1656 C   0  0  0  0  0  0
  -19.1541  -28.8870   23.2919 C   0  0  0  0  0  0
  -18.9460  -30.1475   23.8930 C   0  0  0  0  0  0
  -17.6466  -30.6613   24.0592 C   0  0  0  0  0  0
  -25.9046  -34.9494   23.5094 C   0  0  0  0  0  0
  -16.5355  -29.9129   23.6343 C   0  0  0  0  0  0
  -16.7279  -28.6553   23.0358 C   0  0  0  0  0  0
  -26.4495  -31.6635   25.0720 C   0  0  0  0  0  0
  -25.3750  -31.3765   26.1464 C   0  0  0  0  0  0
  -27.0316  -30.3074   24.6110 C   0  0  0  0  0  0
  -27.6059  -32.4371   25.7491 C   0  0  0  0  0  0
  -27.5567  -37.1805   24.8477 C   0  0  0  0  0  0
  -21.4168  -29.3070   22.3713 N   0  0  0  0  0  0
  -26.4275  -37.3809   23.9428 N   0  0  0  0  0  0
  -24.6805  -31.0690   22.0967 N   0  0  0  0  0  0
  -23.4199  -28.8168   23.2994 O   0  0  0  0  0  0
  -28.4191  -26.6475   20.0641 O   0  0  0  0  0  0
  -26.5618  -34.8960   22.4660 O   0  0  0  0  0  0
  -23.5398  -32.1390   23.7400 O   0  0  0  0  0  0
  -29.5454  -18.1687   20.2560 C   0  0  0  0  0  0
  -31.5259  -17.4669   21.4654 C   0  0  0  0  0  0
  -29.8412  -19.5679   20.4478 C   0  0  0  0  0  0
  -30.3512  -17.1082   20.7753 C   0  0  0  0  0  0
  -31.8481  -18.8208   21.6752 C   0  0  0  0  0  0
  -31.0160  -19.8561   21.1944 C   0  0  0  0  0  0
  -28.8916  -20.6192   19.8971 C   0  0  0  0  0  0
  -32.3412  -24.9219   20.2687 C   0  0  0  0  0  0
  -29.8131  -24.5971   18.2152 C   0  0  0  0  0  0
  -30.8794  -25.3889   20.3868 C   0  0  0  0  0  0
  -29.9867  -23.0078   20.2111 C   0  0  0  0  0  0
  -28.4098  -25.1933   20.2320 C   0  0  0  0  0  0
  -29.7528  -24.5131   19.7547 C   0  0  2  0  0  0
  -27.7257  -20.1829   19.4182 N   0  0  0  0  0  0
  -29.9320  -15.7188   20.6652 N   0  0  0  0  0  0
  -28.9916  -21.9834   19.7764 N   0  3  0  0  0  0
  -32.9709  -19.1292   22.3722 F   0  0  0  0  0  0
  -31.3861  -21.1216   21.4893 F   0  0  0  0  0  0
  -31.4747  -12.4678   19.1434 H   0  0  0  0  0  0
  -30.3404  -11.3801   19.8982 H   0  0  0  0  0  0
  -29.7738  -11.7370   17.4740 H   0  0  0  0  0  0
  -29.6611  -13.4575   17.7308 H   0  0  0  0  0  0
  -27.8654  -11.2876   18.8659 H   0  0  0  0  0  0
  -27.3831  -12.5715   17.7849 H   0  0  0  0  0  0
  -27.6631  -14.2510   19.5024 H   0  0  0  0  0  0
  -28.7078  -12.1183   21.4251 H   0  0  0  0  0  0
  -28.4650  -13.8001   21.8059 H   0  0  0  0  0  0
  -25.2806   -9.5661   22.4804 H   0  0  0  0  0  0
  -24.0051   -7.4616   22.7454 H   0  0  0  0  0  0
  -21.0932   -8.8823   19.8958 H   0  0  0  0  0  0
  -22.3805  -10.9709   19.6187 H   0  0  0  0  0  0
  -21.2005   -7.6158   23.9771 H   0  0  0  0  0  0
  -21.1484   -6.0516   25.9105 H   0  0  0  0  0  0
  -22.0603   -2.7648   23.2829 H   0  0  0  0  0  0
  -22.4132  -11.9918   22.4760 H   0  0  0  0  0  0
  -21.1136  -13.1288   22.2548 H   0  0  0  0  0  0
  -24.6578  -15.8367   20.5535 H   0  0  0  0  0  0
  -26.2772  -15.6494   20.1234 H   0  0  0  0  0  0
  -26.7144  -32.5483   23.1105 H   0  0  0  0  0  0
  -25.0208  -33.9832   25.0515 H   0  0  0  0  0  0
  -22.7066  -31.3033   21.3994 H   0  0  0  0  0  0
  -23.3756  -35.9613   23.3333 H   0  0  0  0  0  0
  -24.3536  -36.8868   22.2034 H   0  0  0  0  0  0
  -23.7232  -37.6502   23.6631 H   0  0  0  0  0  0
  -26.0685  -31.5569   20.5819 H   0  0  0  0  0  0
  -26.8378  -30.8622   21.9823 H   0  0  0  0  0  0
  -28.1180  -29.0571   21.1459 H   0  0  0  0  0  0
  -26.0404  -25.9575   18.9724 H   0  0  0  0  0  0
  -23.9833  -27.2835   19.0278 H   0  0  0  0  0  0
  -23.7596  -30.5866   19.4041 H   0  0  0  0  0  0
  -22.7469  -29.2444   19.8580 H   0  0  0  0  0  0
  -25.1287  -36.1943   25.0812 H   0  0  0  0  0  0
  -20.9997  -28.3268   24.1428 H   0  0  0  0  0  0
  -20.5764  -26.2305   23.3616 H   0  0  0  0  0  0
  -21.6649  -26.7526   22.1159 H   0  0  0  0  0  0
  -19.6918  -25.6337   21.1260 H   0  0  0  0  0  0
  -19.6674  -27.3253   20.6801 H   0  0  0  0  0  0
  -17.4208  -26.6751   21.4049 H   0  0  0  0  0  0
  -18.0288  -26.0102   22.9039 H   0  0  0  0  0  0
  -19.7932  -30.7298   24.2301 H   0  0  0  0  0  0
  -17.5022  -31.6297   24.5188 H   0  0  0  0  0  0
  -15.5358  -30.3052   23.7649 H   0  0  0  0  0  0
  -15.8674  -28.0899   22.7039 H   0  0  0  0  0  0
  -24.5893  -30.7163   25.7783 H   0  0  0  0  0  0
  -24.8993  -32.2935   26.4947 H   0  0  0  0  0  0
  -25.8069  -30.8885   27.0203 H   0  0  0  0  0  0
  -26.2860  -29.6868   24.1124 H   0  0  0  0  0  0
  -27.4052  -29.7291   25.4568 H   0  0  0  0  0  0
  -27.8714  -30.4419   23.9288 H   0  0  0  0  0  0
  -27.2664  -33.3642   26.2133 H   0  0  0  0  0  0
  -28.3824  -32.6989   25.0292 H   0  0  0  0  0  0
  -28.0790  -31.8472   26.5352 H   0  0  0  0  0  0
  -28.2608  -38.0082   24.7506 H   0  0  0  0  0  0
  -28.1024  -36.2610   24.6300 H   0  0  0  0  0  0
  -27.2280  -37.1459   25.8881 H   0  0  0  0  0  0
  -20.9327  -29.8773   21.6922 H   0  0  0  0  0  0
  -26.0139  -38.2873   24.1456 H   0  0  0  0  0  0
  -28.6717  -17.8745   19.6993 H   0  0  0  0  0  0
  -32.1819  -16.7154   21.8740 H   0  0  0  0  0  0
  -33.0018  -25.6639   20.7256 H   0  0  0  0  0  0
  -32.6538  -24.8045   19.2324 H   0  0  0  0  0  0
  -32.5228  -23.9856   20.7958 H   0  0  0  0  0  0
  -30.7773  -24.2696   17.8228 H   0  0  0  0  0  0
  -29.6500  -25.6194   17.8694 H   0  0  0  0  0  0
  -29.0428  -23.9857   17.7431 H   0  0  0  0  0  0
  -30.8349  -26.3954   19.9693 H   0  0  0  0  0  0
  -30.6642  -25.5105   21.4495 H   0  0  0  0  0  0
  -30.0771  -22.9846   21.2969 H   0  0  0  0  0  0
  -30.9494  -22.6859   19.8104 H   0  0  0  0  0  0
  -28.2790  -24.9956   21.2960 H   0  0  0  0  0  0
  -27.5709  -24.7111   19.7350 H   0  0  0  0  0  0
  -27.5257  -19.1954   19.4518 H   0  0  0  0  0  0
  -26.9899  -20.7838   19.0841 H   0  0  0  0  0  0
  -28.9399  -15.5549   20.6976 H   0  0  0  0  0  0
  -28.2743  -22.4042   19.2055 H   0  0  0  0  0  0
  1 25  1  0  0  0
  1 30  2  0  0  0
  1 85  1  0  0  0
  2  3  1  0  0  0
  2 25  1  0  0  0
  2 89  1  0  0  0
  2 90  1  0  0  0
  3  4  1  0  0  0
  3 91  1  0  0  0
  3 92  1  0  0  0
  4  5  1  0  0  0
  4 93  1  0  0  0
  4 94  1  0  0  0
  5  6  1  0  0  0
  5 26  1  0  0  0
  5 95  1  0  0  0
  6 25  1  0  0  0
  6 96  1  0  0  0
  6 97  1  0  0  0
  7  8  2  0  0  0
  7 26  1  0  0  0
  7 29  1  0  0  0
  8  9  1  0  0  0
  8 22  1  0  0  0
  9 10  1  0  0  0
  9 27  2  0  0  0
 10 11  2  0  0  0
 10 15  1  0  0  0
 11 12  1  0  0  0
 11 98  1  0  0  0
 12 13  2  0  0  0
 12 99  1  0  0  0
 13 14  1  0  0  0
 13 31  1  0  0  0
 14 15  2  0  0  0
 14100  1  0  0  0
 15101  1  0  0  0
 16 17  2  0  0  0
 16 21  1  0  0  0
 16 31  1  0  0  0
 17 18  1  0  0  0
 17102  1  0  0  0
 18 19  2  0  0  0
 18103  1  0  0  0
 19 20  1  0  0  0
 19 24  1  0  0  0
 20 21  2  0  0  0
 20104  1  0  0  0
 21 23  1  0  0  0
 22 28  1  0  0  0
 22 32  2  0  0  0
 26 27  1  0  0  0
 28105  1  0  0  0
 28106  1  0  0  0
 29107  1  0  0  0
 29108  1  0  0  0
 33 34  1  0  0  0
 33 66  1  0  0  0
 33 70  2  0  0  0
 34 36  1  0  0  0
 34 59  1  0  0  0
 34109  1  0  0  0
 35 44  2  0  0  0
 35 45  1  0  0  0
 35 68  1  0  0  0
 36 56  1  0  0  0
 36110  1  0  0  0
 37 39  1  0  0  0
 37 47  1  0  0  0
 37 66  1  0  0  0
 37111  1  0  0  0
 38 43  2  0  0  0
 38 46  1  0  0  0
 38 47  1  0  0  0
 39 64  1  0  0  0
 39 67  2  0  0  0
 40 52  1  0  0  0
 40 53  2  0  0  0
 40 58  1  0  0  0
 41112  1  0  0  0
 41113  1  0  0  0
 41114  1  0  0  0
 41 48  1  0  0  0
 42 43  1  0  0  0
 42 66  1  0  0  0
 42115  1  0  0  0
 42116  1  0  0  0
 43 44  1  0  0  0
 44117  1  0  0  0
 45 46  2  0  0  0
 45118  1  0  0  0
 46119  1  0  0  0
 47120  1  0  0  0
 47121  1  0  0  0
 48 56  1  0  0  0
 48 65  1  0  0  0
 48122  1  0  0  0
 49 50  1  0  0  0
 49 53  1  0  0  0
 49 64  1  0  0  0
 49123  1  0  0  0
 50 51  1  0  0  0
 50124  1  0  0  0
 50125  1  0  0  0
 51 52  1  0  0  0
 51126  1  0  0  0
 51127  1  0  0  0
 52128  1  0  0  0
 52129  1  0  0  0
 53 54  1  0  0  0
 54 55  2  0  0  0
 54130  1  0  0  0
 55 57  1  0  0  0
 55131  1  0  0  0
 56 69  2  0  0  0
 57 58  2  0  0  0
 57132  1  0  0  0
 58133  1  0  0  0
 59 60  1  0  0  0
 59 61  1  0  0  0
 59 62  1  0  0  0
 60134  1  0  0  0
 60135  1  0  0  0
 60136  1  0  0  0
 61137  1  0  0  0
 61138  1  0  0  0
 61139  1  0  0  0
 62140  1  0  0  0
 62141  1  0  0  0
 62142  1  0  0  0
 63 65  1  0  0  0
 63143  1  0  0  0
 63144  1  0  0  0
 63145  1  0  0  0
 64146  1  0  0  0
 65147  1  0  0  0
 68 82  1  0  0  0
 71 73  2  0  0  0
 71 74  1  0  0  0
 71148  1  0  0  0
 72 74  2  0  0  0
 72 75  1  0  0  0
 72149  1  0  0  0
 73 76  1  0  0  0
 73 77  1  0  0  0
 74 85  1  0  0  0
 75 76  2  0  0  0
 75 87  1  0  0  0
 76 88  1  0  0  0
 77 84  1  0  0  0
 77 86  2  0  0  0
 78 80  1  0  0  0
 78150  1  0  0  0
 78151  1  0  0  0
 78152  1  0  0  0
 79153  1  0  0  0
 79154  1  0  0  0
 79155  1  0  0  0
 79 83  1  0  0  0
 80 83  1  0  0  0
 80156  1  0  0  0
 80157  1  0  0  0
 81 83  1  0  0  0
 81 86  1  0  0  0
 81158  1  0  0  0
 81159  1  0  0  0
 82 83  1  0  0  0
 82160  1  0  0  0
 82161  1  0  0  0
 84162  1  0  0  0
 84163  1  0  0  0
 85164  1  0  0  0
 86165  1  0  0  0
M  CHG  1  86   1
M  ISO  4   1 100  68 101  82 101  85 100
M  END
> <chiral flag>
0

> <version>
0

> <s_m_source_file>
/data/baiqing/PycharmProjects/Reinvent-master-3.2/result/LINK_invent/BTK/process_docking_weight1_custom_product_contain_oxygen_bond_distance_aromatic_linkinvent_7_9_3/rearranged_h_0167.sdf

> <i_m_source_file_index>
64

> <r_mmod_Potential_Energy-OPLS-2005>
-120.077651977539

> <r_mmod_Stretch_Energy-OPLS-2005>
67.6873092651367

> <r_mmod_Bend_Energy-OPLS-2005>
160.534225463867

> <r_mmod_Torsional_Energy-OPLS-2005>
252.303176879883

> <r_mmod_Improper_Torsional_Energy-OPLS-2005>
6.56098365783691

> <r_mmod_Van_der_Waal_Energy-OPLS-2005>
156.561660766602

> <r_mmod_Electrostatic_Energy-OPLS-2005>
-359.018341064453

> <r_mmod_Solvation_Energy-OPLS-2005>
-438.339935302734

> <b_mmod_Minimization_Converged-OPLS-2005>
0

> <r_mmod_RMS_Derivative-OPLS-2005>
4.45358610153198

$$$$
65
                    3D
 Structure written by MMmdl.
155163  0  0  1  0            999 V2000
  -30.7160  -14.4694   20.5984 C   0  0  0  0  0  0
  -30.4087  -12.3165   19.4374 C   0  0  0  0  0  0
  -29.4901  -12.5174   18.2133 C   0  0  0  0  0  0
  -28.0082  -12.3763   18.6224 C   0  0  0  0  0  0
  -27.6533  -13.2139   19.8804 C   0  0  2  0  0  0
  -28.6920  -13.0158   21.0061 C   0  0  0  0  0  0
  -25.2517  -13.8136   20.5686 C   0  0  0  0  0  0
  -24.1777  -13.0408   20.9190 C   0  0  0  0  0  0
  -24.6342  -11.6889   20.8752 C   0  0  0  0  0  0
  -23.8989  -10.4290   21.0417 C   0  0  0  0  0  0
  -24.3558   -9.4192   21.9168 C   0  0  0  0  0  0
  -23.6280   -8.2211   22.0708 C   0  0  0  0  0  0
  -22.4242   -8.0249   21.3519 C   0  0  0  0  0  0
  -21.9862   -9.0203   20.4629 C   0  0  0  0  0  0
  -22.7176  -10.2106   20.3063 C   0  0  0  0  0  0
  -21.6835   -6.0733   22.5292 C   0  0  0  0  0  0
  -21.4008   -6.5666   23.8231 C   0  0  0  0  0  0
  -21.3654   -5.6817   24.9184 C   0  0  0  0  0  0
  -21.6045   -4.3081   24.7245 C   0  0  0  0  0  0
  -21.8822   -3.8154   23.4365 C   0  0  0  0  0  0
  -21.9186   -4.6958   22.3423 C   0  0  0  0  0  0
  -22.7808  -13.5195   21.1897 C   0  0  0  0  0  0
  -22.1640   -4.2136   21.1004 F   0  0  0  0  0  0
  -21.5628   -3.4573   25.7759 F   0  0  0  0  0  0
  -30.0214  -13.3101   20.4536 N   0  0  0  0  0  0
  -26.2963  -12.9325   20.3397 N   0  0  0  0  0  0
  -25.9261  -11.6480   20.5785 N   0  0  0  0  0  0
  -22.0462  -12.8196   22.0475 N   0  0  0  0  0  0
  -25.4262  -15.1850   20.4073 N   0  0  0  0  0  0
  -31.8391  -14.6236   20.1101 O   0  0  0  0  0  0
  -21.6597   -6.8847   21.4249 O   0  0  0  0  0  0
  -22.3531  -14.5518   20.6745 O   0  0  0  0  0  0
  -24.6157  -31.8642   23.2060 C   0  0  0  0  0  0
  -25.9050  -32.4782   23.8352 C   0  0  1  0  0  0
  -27.2590  -27.4301   20.0973 C   0  0  0  0  0  0
  -25.5919  -33.8590   24.2284 N   0  0  0  0  0  0
  -23.4047  -30.4851   21.5452 C   0  0  2  0  0  0
  -24.8555  -28.9417   20.1182 C   0  0  0  0  0  0
  -22.7422  -29.4615   22.4971 C   0  0  0  0  0  0
  -18.0261  -28.1388   22.8463 C   0  0  0  0  0  0
  -24.1467  -36.7292   23.2613 C   0  0  0  0  0  0
  -25.9342  -30.8282   21.3599 C   0  0  0  0  0  0
  -26.0126  -29.4613   20.7087 C   0  0  0  0  0  0
  -27.2123  -28.7146   20.6890 C   0  0  0  0  0  0
  -26.0739  -26.9125   19.5208 C   0  0  0  0  0  0
  -24.8817  -27.6671   19.5227 C   0  0  0  0  0  0
  -23.6159  -29.8095   20.1628 C   0  0  0  0  0  0
  -25.4066  -36.3082   24.0346 C   0  0  1  0  0  0
  -20.5859  -28.3663   23.1332 C   0  0  2  0  0  0
  -20.6721  -26.9386   22.5487 C   0  0  0  0  0  0
  -19.5760  -26.6382   21.5213 C   0  0  0  0  0  0
  -18.1900  -26.7962   22.1544 C   0  0  0  0  0  0
  -19.1509  -28.8837   23.2896 C   0  0  0  0  0  0
  -18.9438  -30.1428   23.8937 C   0  0  0  0  0  0
  -17.6440  -30.6575   24.0581 C   0  0  0  0  0  0
  -25.9055  -34.9463   23.5115 C   0  0  0  0  0  0
  -16.5332  -29.9080   23.6330 C   0  0  0  0  0  0
  -16.7248  -28.6508   23.0321 C   0  0  0  0  0  0
  -26.4456  -31.6591   25.0709 C   0  0  0  0  0  0
  -25.3719  -31.3909   26.1520 C   0  0  0  0  0  0
  -27.0165  -30.2946   24.6184 C   0  0  0  0  0  0
  -27.6134  -32.4265   25.7347 C   0  0  0  0  0  0
  -27.5685  -37.1612   24.8330 C   0  0  0  0  0  0
  -21.4156  -29.2995   22.3710 N   0  0  0  0  0  0
  -26.4184  -37.3858   23.9596 N   0  0  0  0  0  0
  -24.6680  -31.0744   22.0955 N   0  0  0  0  0  0
  -23.4189  -28.8197   23.3044 O   0  0  0  0  0  0
  -28.4759  -26.7680   20.1057 O   0  0  0  0  0  0
  -26.5624  -34.8946   22.4679 O   0  0  0  0  0  0
  -23.5335  -32.1379   23.7461 O   0  0  0  0  0  0
  -29.7860  -20.1669   22.7949 C   0  0  0  0  0  0
  -28.5415  -19.7552   20.7729 C   0  0  0  0  0  0
  -30.2280  -18.8223   22.7541 C   0  0  0  0  0  0
  -29.0030  -20.6805   21.7366 C   0  0  0  0  0  0
  -29.8778  -18.0453   21.6214 C   0  0  0  0  0  0
  -28.6474  -24.4033   20.8654 C   0  0  0  0  0  0
  -28.6611  -22.8646   20.5528 C   0  0  0  0  0  0
  -30.7128  -16.8388   21.1762 C   0  0  0  0  0  0
  -28.6100  -25.3953   19.6714 C   0  0  0  0  0  0
  -31.1489  -18.3017   23.8558 C   0  0  0  0  0  0
  -28.9765  -18.4758   20.7067 N   0  0  0  0  0  0
  -28.7452  -22.0938   21.6662 N   0  0  0  0  0  0
  -30.0886  -15.5088   21.1809 N   0  0  0  0  0  0
  -28.7240  -24.8163   22.0330 O   0  0  0  0  0  0
  -28.6115  -22.4191   19.4028 O   0  0  0  0  0  0
  -30.8218  -18.8421   25.0298 F   0  0  0  0  0  0
  -31.0692  -16.9775   23.9936 F   0  0  0  0  0  0
  -32.4071  -18.6322   23.5716 F   0  0  0  0  0  0
  -31.4579  -12.4071   19.1498 H   0  0  0  0  0  0
  -30.2949  -11.3089   19.8395 H   0  0  0  0  0  0
  -29.7316  -11.7926   17.4327 H   0  0  0  0  0  0
  -29.6592  -13.5051   17.7804 H   0  0  0  0  0  0
  -27.8122  -11.3199   18.8125 H   0  0  0  0  0  0
  -27.3566  -12.6582   17.7943 H   0  0  0  0  0  0
  -27.6878  -14.2612   19.5797 H   0  0  0  0  0  0
  -28.6647  -11.9889   21.3696 H   0  0  0  0  0  0
  -28.4515  -13.6457   21.8664 H   0  0  0  0  0  0
  -25.2711   -9.5701   22.4733 H   0  0  0  0  0  0
  -24.0024   -7.4575   22.7407 H   0  0  0  0  0  0
  -21.0774   -8.8709   19.8958 H   0  0  0  0  0  0
  -22.3596  -10.9618   19.6188 H   0  0  0  0  0  0
  -21.2004   -7.6175   23.9728 H   0  0  0  0  0  0
  -21.1459   -6.0542   25.9086 H   0  0  0  0  0  0
  -22.0596   -2.7619   23.2841 H   0  0  0  0  0  0
  -22.4050  -11.9881   22.4928 H   0  0  0  0  0  0
  -21.1087  -13.1237   22.2716 H   0  0  0  0  0  0
  -24.6580  -15.8408   20.4917 H   0  0  0  0  0  0
  -26.2912  -15.6262   20.1198 H   0  0  0  0  0  0
  -26.7126  -32.5485   23.1124 H   0  0  0  0  0  0
  -25.0046  -33.9725   25.0406 H   0  0  0  0  0  0
  -22.6936  -31.3007   21.4022 H   0  0  0  0  0  0
  -23.3852  -35.9480   23.2912 H   0  0  0  0  0  0
  -24.3696  -36.9263   22.2120 H   0  0  0  0  0  0
  -23.6992  -37.6294   23.6831 H   0  0  0  0  0  0
  -26.0518  -31.5958   20.5920 H   0  0  0  0  0  0
  -26.8197  -30.8746   21.9833 H   0  0  0  0  0  0
  -28.1090  -29.1260   21.1313 H   0  0  0  0  0  0
  -26.0380  -25.9347   19.0637 H   0  0  0  0  0  0
  -23.9894  -27.2597   19.0659 H   0  0  0  0  0  0
  -23.7213  -30.5769   19.3951 H   0  0  0  0  0  0
  -22.7427  -29.2232   19.8726 H   0  0  0  0  0  0
  -25.1161  -36.1862   25.0814 H   0  0  0  0  0  0
  -20.9934  -28.3244   24.1450 H   0  0  0  0  0  0
  -20.5485  -26.2297   23.3694 H   0  0  0  0  0  0
  -21.6614  -26.7318   22.1399 H   0  0  0  0  0  0
  -19.6917  -25.6288   21.1248 H   0  0  0  0  0  0
  -19.6787  -27.3182   20.6748 H   0  0  0  0  0  0
  -17.4240  -26.6784   21.3874 H   0  0  0  0  0  0
  -18.0201  -26.0066   22.8877 H   0  0  0  0  0  0
  -19.7918  -30.7210   24.2355 H   0  0  0  0  0  0
  -17.5001  -31.6236   24.5209 H   0  0  0  0  0  0
  -15.5336  -30.2990   23.7649 H   0  0  0  0  0  0
  -15.8650  -28.0857   22.6987 H   0  0  0  0  0  0
  -24.5942  -30.7113   25.8021 H   0  0  0  0  0  0
  -24.8831  -32.3132   26.4690 H   0  0  0  0  0  0
  -25.8086  -30.9405   27.0444 H   0  0  0  0  0  0
  -26.2657  -29.6767   24.1251 H   0  0  0  0  0  0
  -27.3787  -29.7196   25.4717 H   0  0  0  0  0  0
  -27.8603  -30.4097   23.9376 H   0  0  0  0  0  0
  -27.2859  -33.3568   26.1998 H   0  0  0  0  0  0
  -28.3855  -32.6814   25.0072 H   0  0  0  0  0  0
  -28.0920  -31.8345   26.5156 H   0  0  0  0  0  0
  -28.2288  -38.0288   24.8042 H   0  0  0  0  0  0
  -28.1541  -36.2949   24.5201 H   0  0  0  0  0  0
  -27.2618  -37.0127   25.8697 H   0  0  0  0  0  0
  -20.9331  -29.8711   21.6927 H   0  0  0  0  0  0
  -26.0041  -38.2801   24.2074 H   0  0  0  0  0  0
  -30.1224  -20.8197   23.5895 H   0  0  0  0  0  0
  -27.8457  -20.0530   20.0026 H   0  0  0  0  0  0
  -31.6622  -16.8002   21.7087 H   0  0  0  0  0  0
  -31.0061  -17.0632   20.1462 H   0  0  0  0  0  0
  -27.8869  -25.1039   18.9115 H   0  0  0  0  0  0
  -29.5820  -25.3335   19.1779 H   0  0  0  0  0  0
  -28.8213  -22.6335   22.5210 H   0  0  0  0  0  0
  -29.1498  -15.4161   21.5379 H   0  0  0  0  0  0
  1 25  1  0  0  0
  1 30  2  0  0  0
  1 83  1  0  0  0
  2  3  1  0  0  0
  2 25  1  0  0  0
  2 89  1  0  0  0
  2 90  1  0  0  0
  3  4  1  0  0  0
  3 91  1  0  0  0
  3 92  1  0  0  0
  4  5  1  0  0  0
  4 93  1  0  0  0
  4 94  1  0  0  0
  5  6  1  0  0  0
  5 26  1  0  0  0
  5 95  1  0  0  0
  6 25  1  0  0  0
  6 96  1  0  0  0
  6 97  1  0  0  0
  7  8  2  0  0  0
  7 26  1  0  0  0
  7 29  1  0  0  0
  8  9  1  0  0  0
  8 22  1  0  0  0
  9 10  1  0  0  0
  9 27  2  0  0  0
 10 11  2  0  0  0
 10 15  1  0  0  0
 11 12  1  0  0  0
 11 98  1  0  0  0
 12 13  2  0  0  0
 12 99  1  0  0  0
 13 14  1  0  0  0
 13 31  1  0  0  0
 14 15  2  0  0  0
 14100  1  0  0  0
 15101  1  0  0  0
 16 17  2  0  0  0
 16 21  1  0  0  0
 16 31  1  0  0  0
 17 18  1  0  0  0
 17102  1  0  0  0
 18 19  2  0  0  0
 18103  1  0  0  0
 19 20  1  0  0  0
 19 24  1  0  0  0
 20 21  2  0  0  0
 20104  1  0  0  0
 21 23  1  0  0  0
 22 28  1  0  0  0
 22 32  2  0  0  0
 26 27  1  0  0  0
 28105  1  0  0  0
 28106  1  0  0  0
 29107  1  0  0  0
 29108  1  0  0  0
 33 34  1  0  0  0
 33 66  1  0  0  0
 33 70  2  0  0  0
 34 36  1  0  0  0
 34 59  1  0  0  0
 34109  1  0  0  0
 35 44  2  0  0  0
 35 45  1  0  0  0
 35 68  1  0  0  0
 36 56  1  0  0  0
 36110  1  0  0  0
 37 39  1  0  0  0
 37 47  1  0  0  0
 37 66  1  0  0  0
 37111  1  0  0  0
 38 43  2  0  0  0
 38 46  1  0  0  0
 38 47  1  0  0  0
 39 64  1  0  0  0
 39 67  2  0  0  0
 40 52  1  0  0  0
 40 53  2  0  0  0
 40 58  1  0  0  0
 41112  1  0  0  0
 41113  1  0  0  0
 41114  1  0  0  0
 41 48  1  0  0  0
 42 43  1  0  0  0
 42 66  1  0  0  0
 42115  1  0  0  0
 42116  1  0  0  0
 43 44  1  0  0  0
 44117  1  0  0  0
 45 46  2  0  0  0
 45118  1  0  0  0
 46119  1  0  0  0
 47120  1  0  0  0
 47121  1  0  0  0
 48 56  1  0  0  0
 48 65  1  0  0  0
 48122  1  0  0  0
 49 50  1  0  0  0
 49 53  1  0  0  0
 49 64  1  0  0  0
 49123  1  0  0  0
 50 51  1  0  0  0
 50124  1  0  0  0
 50125  1  0  0  0
 51 52  1  0  0  0
 51126  1  0  0  0
 51127  1  0  0  0
 52128  1  0  0  0
 52129  1  0  0  0
 53 54  1  0  0  0
 54 55  2  0  0  0
 54130  1  0  0  0
 55 57  1  0  0  0
 55131  1  0  0  0
 56 69  2  0  0  0
 57 58  2  0  0  0
 57132  1  0  0  0
 58133  1  0  0  0
 59 60  1  0  0  0
 59 61  1  0  0  0
 59 62  1  0  0  0
 60134  1  0  0  0
 60135  1  0  0  0
 60136  1  0  0  0
 61137  1  0  0  0
 61138  1  0  0  0
 61139  1  0  0  0
 62140  1  0  0  0
 62141  1  0  0  0
 62142  1  0  0  0
 63 65  1  0  0  0
 63143  1  0  0  0
 63144  1  0  0  0
 63145  1  0  0  0
 64146  1  0  0  0
 65147  1  0  0  0
 68 79  1  0  0  0
 71 73  2  0  0  0
 71 74  1  0  0  0
 71148  1  0  0  0
 72 74  2  0  0  0
 72 81  1  0  0  0
 72149  1  0  0  0
 73 75  1  0  0  0
 73 80  1  0  0  0
 74 82  1  0  0  0
 75 78  1  0  0  0
 75 81  2  0  0  0
 76 77  1  0  0  0
 76 79  1  0  0  0
 76 84  2  0  0  0
 77 82  1  0  0  0
 77 85  2  0  0  0
 78 83  1  0  0  0
 78150  1  0  0  0
 78151  1  0  0  0
 79152  1  0  0  0
 79153  1  0  0  0
 80 86  1  0  0  0
 80 87  1  0  0  0
 80 88  1  0  0  0
 82154  1  0  0  0
 83155  1  0  0  0
M  ISO  4   1 100  68 101  79 101  83 100
M  END
> <chiral flag>
0

> <version>
0

> <s_m_source_file>
/data/baiqing/PycharmProjects/Reinvent-master-3.2/result/LINK_invent/BTK/process_docking_weight1_custom_product_contain_oxygen_bond_distance_aromatic_linkinvent_7_9_3/rearranged_h_0167.sdf

> <i_m_source_file_index>
65

> <r_mmod_Potential_Energy-OPLS-2005>
-255.629898071289

> <r_mmod_Stretch_Energy-OPLS-2005>
43.6993370056152

> <r_mmod_Bend_Energy-OPLS-2005>
117.76683807373

> <r_mmod_Torsional_Energy-OPLS-2005>
227.161972045898

> <r_mmod_Improper_Torsional_Energy-OPLS-2005>
5.92309999465942

> <r_mmod_Van_der_Waal_Energy-OPLS-2005>
163.925079345703

> <r_mmod_Electrostatic_Energy-OPLS-2005>
-599.60498046875

> <r_mmod_Solvation_Energy-OPLS-2005>
-229.826766967773

> <b_mmod_Minimization_Converged-OPLS-2005>
0

> <r_mmod_RMS_Derivative-OPLS-2005>
5.30626630783081

$$$$
66
                    3D
 Structure written by MMmdl.
154162  0  0  1  0            999 V2000
  -30.6515  -14.5794   20.5072 C   0  0  0  0  0  0
  -30.4297  -12.3554   19.4425 C   0  0  0  0  0  0
  -29.5010  -12.4955   18.2169 C   0  0  0  0  0  0
  -28.0239  -12.3376   18.6306 C   0  0  0  0  0  0
  -27.6528  -13.2078   19.8617 C   0  0  2  0  0  0
  -28.6977  -13.0505   20.9906 C   0  0  0  0  0  0
  -25.2566  -13.8157   20.5680 C   0  0  0  0  0  0
  -24.1833  -13.0430   20.9195 C   0  0  0  0  0  0
  -24.6394  -11.6901   20.8750 C   0  0  0  0  0  0
  -23.9075  -10.4288   21.0409 C   0  0  0  0  0  0
  -24.3626   -9.4208   21.9184 C   0  0  0  0  0  0
  -23.6296   -8.2247   22.0754 C   0  0  0  0  0  0
  -22.4278   -8.0286   21.3546 C   0  0  0  0  0  0
  -21.9917   -9.0266   20.4651 C   0  0  0  0  0  0
  -22.7250  -10.2142   20.3061 C   0  0  0  0  0  0
  -21.6848   -6.0743   22.5286 C   0  0  0  0  0  0
  -21.4014   -6.5645   23.8225 C   0  0  0  0  0  0
  -21.3659   -5.6798   24.9181 C   0  0  0  0  0  0
  -21.6040   -4.3056   24.7230 C   0  0  0  0  0  0
  -21.8814   -3.8156   23.4356 C   0  0  0  0  0  0
  -21.9194   -4.6977   22.3412 C   0  0  0  0  0  0
  -22.7861  -13.5235   21.1860 C   0  0  0  0  0  0
  -22.1651   -4.2163   21.0989 F   0  0  0  0  0  0
  -21.5638   -3.4542   25.7747 F   0  0  0  0  0  0
  -30.0172  -13.3725   20.4265 N   0  0  0  0  0  0
  -26.2982  -12.9314   20.3312 N   0  0  0  0  0  0
  -25.9312  -11.6487   20.5765 N   0  0  0  0  0  0
  -22.0495  -12.8231   22.0411 N   0  0  0  0  0  0
  -25.4272  -15.1880   20.4078 N   0  0  0  0  0  0
  -31.8221  -14.7187   20.1381 O   0  0  0  0  0  0
  -21.6637   -6.8891   21.4250 O   0  0  0  0  0  0
  -22.3555  -14.5545   20.6702 O   0  0  0  0  0  0
  -24.6202  -31.8632   23.2042 C   0  0  0  0  0  0
  -25.9066  -32.4799   23.8360 C   0  0  1  0  0  0
  -27.2454  -27.3827   20.1191 C   0  0  0  0  0  0
  -25.5907  -33.8599   24.2306 N   0  0  0  0  0  0
  -23.4136  -30.4830   21.5447 C   0  0  2  0  0  0
  -24.8637  -28.9331   20.1232 C   0  0  0  0  0  0
  -22.7451  -29.4639   22.4961 C   0  0  0  0  0  0
  -18.0292  -28.1384   22.8484 C   0  0  0  0  0  0
  -24.1489  -36.7302   23.2633 C   0  0  0  0  0  0
  -25.9453  -30.8155   21.3617 C   0  0  0  0  0  0
  -26.0249  -29.4412   20.7173 C   0  0  0  0  0  0
  -27.2202  -28.6774   20.7032 C   0  0  0  0  0  0
  -26.0644  -26.8965   19.5231 C   0  0  0  0  0  0
  -24.8800  -27.6621   19.5203 C   0  0  0  0  0  0
  -23.6273  -29.8070   20.1635 C   0  0  0  0  0  0
  -25.4112  -36.3101   24.0336 C   0  0  1  0  0  0
  -20.5888  -28.3686   23.1311 C   0  0  2  0  0  0
  -20.6782  -26.9410   22.5433 C   0  0  0  0  0  0
  -19.5757  -26.6394   21.5229 C   0  0  0  0  0  0
  -18.1932  -26.7936   22.1625 C   0  0  0  0  0  0
  -19.1538  -28.8850   23.2899 C   0  0  0  0  0  0
  -18.9454  -30.1456   23.8915 C   0  0  0  0  0  0
  -17.6449  -30.6582   24.0569 C   0  0  0  0  0  0
  -25.9045  -34.9464   23.5124 C   0  0  0  0  0  0
  -16.5343  -29.9087   23.6321 C   0  0  0  0  0  0
  -16.7276  -28.6507   23.0335 C   0  0  0  0  0  0
  -26.4488  -31.6574   25.0695 C   0  0  0  0  0  0
  -25.3752  -31.3672   26.1442 C   0  0  0  0  0  0
  -27.0313  -30.3018   24.6080 C   0  0  0  0  0  0
  -27.6094  -32.4277   25.7437 C   0  0  0  0  0  0
  -27.5585  -37.1796   24.8464 C   0  0  0  0  0  0
  -21.4174  -29.3046   22.3700 N   0  0  0  0  0  0
  -26.4294  -37.3792   23.9413 N   0  0  0  0  0  0
  -24.6782  -31.0697   22.0953 N   0  0  0  0  0  0
  -23.4191  -28.8186   23.3033 O   0  0  0  0  0  0
  -28.4131  -26.6340   20.0642 O   0  0  0  0  0  0
  -26.5613  -34.8928   22.4688 O   0  0  0  0  0  0
  -23.5396  -32.1372   23.7439 O   0  0  0  0  0  0
  -31.3063  -17.6338   20.9207 C   0  0  0  0  0  0
  -31.1030  -19.0422   20.7094 C   0  0  0  0  0  0
  -30.1124  -16.9989   20.7050 C   0  0  0  0  0  0
  -29.7633  -19.1655   20.4035 C   0  0  0  0  0  0
  -29.1430  -22.8998   19.8156 C   0  0  0  0  0  0
  -28.0916  -24.0531   19.8823 C   0  0  0  0  0  0
  -29.0010  -21.6123   20.6945 C   0  0  0  0  0  0
  -28.4500  -25.3333   20.7214 C   0  0  0  0  0  0
  -32.1994  -20.0867   20.7726 C   0  0  0  0  0  0
  -29.8566  -15.6465   20.8114 N   0  0  0  0  0  0
  -29.0399  -20.3115   19.9701 N   0  0  0  0  0  0
  -30.0821  -22.9839   19.0196 O   0  0  0  0  0  0
  -29.1429  -17.9302   20.3980 O   0  0  0  0  0  0
  -33.3696  -19.5012   21.0330 F   0  0  0  0  0  0
  -32.3118  -20.7250   19.6084 F   0  0  0  0  0  0
  -31.9626  -20.9684   21.7423 F   0  0  0  0  0  0
  -31.4729  -12.4693   19.1420 H   0  0  0  0  0  0
  -30.3494  -11.3563   19.8747 H   0  0  0  0  0  0
  -29.7596  -11.7521   17.4612 H   0  0  0  0  0  0
  -29.6508  -13.4693   17.7486 H   0  0  0  0  0  0
  -27.8574  -11.2844   18.8622 H   0  0  0  0  0  0
  -27.3688  -12.5679   17.7887 H   0  0  0  0  0  0
  -27.6742  -14.2431   19.5225 H   0  0  0  0  0  0
  -28.6972  -12.0275   21.3702 H   0  0  0  0  0  0
  -28.4545  -13.6862   21.8439 H   0  0  0  0  0  0
  -25.2764   -9.5688   22.4763 H   0  0  0  0  0  0
  -24.0013   -7.4637   22.7458 H   0  0  0  0  0  0
  -21.0857   -8.8778   19.8953 H   0  0  0  0  0  0
  -22.3695  -10.9687   19.6182 H   0  0  0  0  0  0
  -21.1988   -7.6147   23.9734 H   0  0  0  0  0  0
  -21.1484   -6.0521   25.9088 H   0  0  0  0  0  0
  -22.0592   -2.7623   23.2851 H   0  0  0  0  0  0
  -22.4089  -11.9892   22.4821 H   0  0  0  0  0  0
  -21.1115  -13.1280   22.2606 H   0  0  0  0  0  0
  -24.6571  -15.8386   20.5165 H   0  0  0  0  0  0
  -26.2698  -15.6306   20.0627 H   0  0  0  0  0  0
  -26.7127  -32.5498   23.1117 H   0  0  0  0  0  0
  -25.0084  -33.9743   25.0471 H   0  0  0  0  0  0
  -22.7057  -31.3010   21.3982 H   0  0  0  0  0  0
  -23.3770  -35.9616   23.3290 H   0  0  0  0  0  0
  -24.3579  -36.8929   22.2048 H   0  0  0  0  0  0
  -23.7229  -37.6499   23.6654 H   0  0  0  0  0  0
  -26.0624  -31.5741   20.5863 H   0  0  0  0  0  0
  -26.8331  -30.8752   21.9800 H   0  0  0  0  0  0
  -28.1216  -29.0755   21.1476 H   0  0  0  0  0  0
  -26.0630  -25.9266   19.0482 H   0  0  0  0  0  0
  -23.9879  -27.2671   19.0553 H   0  0  0  0  0  0
  -23.7406  -30.5772   19.4001 H   0  0  0  0  0  0
  -22.7507  -29.2282   19.8679 H   0  0  0  0  0  0
  -25.1293  -36.1959   25.0833 H   0  0  0  0  0  0
  -20.9978  -28.3246   24.1436 H   0  0  0  0  0  0
  -20.5698  -26.2278   23.3622 H   0  0  0  0  0  0
  -21.6642  -26.7445   22.1202 H   0  0  0  0  0  0
  -19.6908  -25.6316   21.1233 H   0  0  0  0  0  0
  -19.6697  -27.3221   20.6774 H   0  0  0  0  0  0
  -17.4210  -26.6702   21.4019 H   0  0  0  0  0  0
  -18.0301  -26.0079   22.9017 H   0  0  0  0  0  0
  -19.7921  -30.7279   24.2277 H   0  0  0  0  0  0
  -17.4998  -31.6259   24.5179 H   0  0  0  0  0  0
  -15.5344  -30.2991   23.7639 H   0  0  0  0  0  0
  -15.8677  -28.0840   22.7026 H   0  0  0  0  0  0
  -24.5938  -30.7010   25.7759 H   0  0  0  0  0  0
  -24.8925  -32.2819   26.4895 H   0  0  0  0  0  0
  -25.8101  -30.8819   27.0190 H   0  0  0  0  0  0
  -26.2834  -29.6767   24.1198 H   0  0  0  0  0  0
  -27.4151  -29.7279   25.4521 H   0  0  0  0  0  0
  -27.8643  -30.4346   23.9179 H   0  0  0  0  0  0
  -27.2758  -33.3594   26.2025 H   0  0  0  0  0  0
  -28.3886  -32.6801   25.0226 H   0  0  0  0  0  0
  -28.0783  -31.8378   26.5327 H   0  0  0  0  0  0
  -28.2612  -38.0090   24.7539 H   0  0  0  0  0  0
  -28.1079  -36.2631   24.6261 H   0  0  0  0  0  0
  -27.2302  -37.1411   25.8866 H   0  0  0  0  0  0
  -20.9341  -29.8745   21.6893 H   0  0  0  0  0  0
  -26.0189  -38.2871   24.1428 H   0  0  0  0  0  0
  -32.2401  -17.1546   21.1787 H   0  0  0  0  0  0
  -27.1473  -23.6417   20.2351 H   0  0  0  0  0  0
  -27.9101  -24.3595   18.8525 H   0  0  0  0  0  0
  -28.0481  -21.6800   21.2208 H   0  0  0  0  0  0
  -29.7660  -21.6434   21.4674 H   0  0  0  0  0  0
  -29.4665  -25.2268   21.1014 H   0  0  0  0  0  0
  -27.8228  -25.3639   21.6142 H   0  0  0  0  0  0
  -28.8978  -15.4015   21.0012 H   0  0  0  0  0  0
  -28.1723  -20.1130   19.4790 H   0  0  0  0  0  0
  1 25  1  0  0  0
  1 30  2  0  0  0
  1 80  1  0  0  0
  2  3  1  0  0  0
  2 25  1  0  0  0
  2 87  1  0  0  0
  2 88  1  0  0  0
  3  4  1  0  0  0
  3 89  1  0  0  0
  3 90  1  0  0  0
  4  5  1  0  0  0
  4 91  1  0  0  0
  4 92  1  0  0  0
  5  6  1  0  0  0
  5 26  1  0  0  0
  5 93  1  0  0  0
  6 25  1  0  0  0
  6 94  1  0  0  0
  6 95  1  0  0  0
  7  8  2  0  0  0
  7 26  1  0  0  0
  7 29  1  0  0  0
  8  9  1  0  0  0
  8 22  1  0  0  0
  9 10  1  0  0  0
  9 27  2  0  0  0
 10 11  2  0  0  0
 10 15  1  0  0  0
 11 12  1  0  0  0
 11 96  1  0  0  0
 12 13  2  0  0  0
 12 97  1  0  0  0
 13 14  1  0  0  0
 13 31  1  0  0  0
 14 15  2  0  0  0
 14 98  1  0  0  0
 15 99  1  0  0  0
 16 17  2  0  0  0
 16 21  1  0  0  0
 16 31  1  0  0  0
 17 18  1  0  0  0
 17100  1  0  0  0
 18 19  2  0  0  0
 18101  1  0  0  0
 19 20  1  0  0  0
 19 24  1  0  0  0
 20 21  2  0  0  0
 20102  1  0  0  0
 21 23  1  0  0  0
 22 28  1  0  0  0
 22 32  2  0  0  0
 26 27  1  0  0  0
 28103  1  0  0  0
 28104  1  0  0  0
 29105  1  0  0  0
 29106  1  0  0  0
 33 34  1  0  0  0
 33 66  1  0  0  0
 33 70  2  0  0  0
 34 36  1  0  0  0
 34 59  1  0  0  0
 34107  1  0  0  0
 35 44  2  0  0  0
 35 45  1  0  0  0
 35 68  1  0  0  0
 36 56  1  0  0  0
 36108  1  0  0  0
 37 39  1  0  0  0
 37 47  1  0  0  0
 37 66  1  0  0  0
 37109  1  0  0  0
 38 43  2  0  0  0
 38 46  1  0  0  0
 38 47  1  0  0  0
 39 64  1  0  0  0
 39 67  2  0  0  0
 40 52  1  0  0  0
 40 53  2  0  0  0
 40 58  1  0  0  0
 41110  1  0  0  0
 41111  1  0  0  0
 41112  1  0  0  0
 41 48  1  0  0  0
 42 43  1  0  0  0
 42 66  1  0  0  0
 42113  1  0  0  0
 42114  1  0  0  0
 43 44  1  0  0  0
 44115  1  0  0  0
 45 46  2  0  0  0
 45116  1  0  0  0
 46117  1  0  0  0
 47118  1  0  0  0
 47119  1  0  0  0
 48 56  1  0  0  0
 48 65  1  0  0  0
 48120  1  0  0  0
 49 50  1  0  0  0
 49 53  1  0  0  0
 49 64  1  0  0  0
 49121  1  0  0  0
 50 51  1  0  0  0
 50122  1  0  0  0
 50123  1  0  0  0
 51 52  1  0  0  0
 51124  1  0  0  0
 51125  1  0  0  0
 52126  1  0  0  0
 52127  1  0  0  0
 53 54  1  0  0  0
 54 55  2  0  0  0
 54128  1  0  0  0
 55 57  1  0  0  0
 55129  1  0  0  0
 56 69  2  0  0  0
 57 58  2  0  0  0
 57130  1  0  0  0
 58131  1  0  0  0
 59 60  1  0  0  0
 59 61  1  0  0  0
 59 62  1  0  0  0
 60132  1  0  0  0
 60133  1  0  0  0
 60134  1  0  0  0
 61135  1  0  0  0
 61136  1  0  0  0
 61137  1  0  0  0
 62138  1  0  0  0
 62139  1  0  0  0
 62140  1  0  0  0
 63 65  1  0  0  0
 63141  1  0  0  0
 63142  1  0  0  0
 63143  1  0  0  0
 64144  1  0  0  0
 65145  1  0  0  0
 68 78  1  0  0  0
 71 72  1  0  0  0
 71 73  2  0  0  0
 71146  1  0  0  0
 72 74  2  0  0  0
 72 79  1  0  0  0
 73 80  1  0  0  0
 73 83  1  0  0  0
 74 81  1  0  0  0
 74 83  1  0  0  0
 75 76  1  0  0  0
 75 77  1  0  0  0
 75 82  2  0  0  0
 76 78  1  0  0  0
 76147  1  0  0  0
 76148  1  0  0  0
 77 81  1  0  0  0
 77149  1  0  0  0
 77150  1  0  0  0
 78151  1  0  0  0
 78152  1  0  0  0
 79 84  1  0  0  0
 79 85  1  0  0  0
 79 86  1  0  0  0
 80153  1  0  0  0
 81154  1  0  0  0
M  ISO  4   1 100  68 101  78 101  80 100
M  END
> <chiral flag>
0

> <version>
0

> <s_m_source_file>
/data/baiqing/PycharmProjects/Reinvent-master-3.2/result/LINK_invent/BTK/process_docking_weight1_custom_product_contain_oxygen_bond_distance_aromatic_linkinvent_7_9_3/rearranged_h_0167.sdf

> <i_m_source_file_index>
66

> <r_mmod_Potential_Energy-OPLS-2005>
21.9632549285889

> <r_mmod_Stretch_Energy-OPLS-2005>
53.9218635559082

> <r_mmod_Bend_Energy-OPLS-2005>
137.18244934082

> <r_mmod_Torsional_Energy-OPLS-2005>
257.435241699219

> <r_mmod_Improper_Torsional_Energy-OPLS-2005>
8.40417385101318

> <r_mmod_Van_der_Waal_Energy-OPLS-2005>
117.898124694824

> <r_mmod_Electrostatic_Energy-OPLS-2005>
-343.873107910156

> <r_mmod_Solvation_Energy-OPLS-2005>
-235.745056152344

> <b_mmod_Minimization_Converged-OPLS-2005>
0

> <r_mmod_RMS_Derivative-OPLS-2005>
2.03579831123352

$$$$
67
                    3D
 Structure written by MMmdl.
153161  0  0  1  0            999 V2000
  -30.6978  -14.4869   20.5633 C   0  0  0  0  0  0
  -30.4181  -12.3119   19.4239 C   0  0  0  0  0  0
  -29.4946  -12.5097   18.2051 C   0  0  0  0  0  0
  -28.0129  -12.3771   18.6135 C   0  0  0  0  0  0
  -27.6582  -13.2125   19.8727 C   0  0  2  0  0  0
  -28.7011  -13.0055   20.9945 C   0  0  0  0  0  0
  -25.2550  -13.8166   20.5676 C   0  0  0  0  0  0
  -24.1819  -13.0441   20.9192 C   0  0  0  0  0  0
  -24.6387  -11.6911   20.8744 C   0  0  0  0  0  0
  -23.9048  -10.4297   21.0404 C   0  0  0  0  0  0
  -24.3601   -9.4218   21.9187 C   0  0  0  0  0  0
  -23.6293   -8.2246   22.0758 C   0  0  0  0  0  0
  -22.4268   -8.0279   21.3550 C   0  0  0  0  0  0
  -21.9900   -9.0248   20.4645 C   0  0  0  0  0  0
  -22.7215  -10.2130   20.3060 C   0  0  0  0  0  0
  -21.6856   -6.0737   22.5290 C   0  0  0  0  0  0
  -21.4008   -6.5641   23.8222 C   0  0  0  0  0  0
  -21.3657   -5.6793   24.9181 C   0  0  0  0  0  0
  -21.6049   -4.3059   24.7232 C   0  0  0  0  0  0
  -21.8816   -3.8150   23.4353 C   0  0  0  0  0  0
  -21.9183   -4.6962   22.3407 C   0  0  0  0  0  0
  -22.7836  -13.5240   21.1854 C   0  0  0  0  0  0
  -22.1655   -4.2150   21.0987 F   0  0  0  0  0  0
  -21.5628   -3.4541   25.7744 F   0  0  0  0  0  0
  -30.0269  -13.3078   20.4346 N   0  0  0  0  0  0
  -26.3004  -12.9349   20.3364 N   0  0  0  0  0  0
  -25.9318  -11.6507   20.5764 N   0  0  0  0  0  0
  -22.0455  -12.8254   22.0399 N   0  0  0  0  0  0
  -25.4254  -15.1895   20.4059 N   0  0  0  0  0  0
  -31.8400  -14.6452   20.1229 O   0  0  0  0  0  0
  -21.6635   -6.8873   21.4253 O   0  0  0  0  0  0
  -22.3531  -14.5543   20.6679 O   0  0  0  0  0  0
  -24.6138  -31.8671   23.2104 C   0  0  0  0  0  0
  -25.9036  -32.4810   23.8386 C   0  0  1  0  0  0
  -27.2273  -27.4225   20.0806 C   0  0  0  0  0  0
  -25.5894  -33.8608   24.2306 N   0  0  0  0  0  0
  -23.3995  -30.4916   21.5531 C   0  0  2  0  0  0
  -24.8403  -28.9562   20.1164 C   0  0  0  0  0  0
  -22.7400  -29.4630   22.5009 C   0  0  0  0  0  0
  -18.0261  -28.1366   22.8499 C   0  0  0  0  0  0
  -24.1480  -36.7327   23.2637 C   0  0  0  0  0  0
  -25.9283  -30.8272   21.3619 C   0  0  0  0  0  0
  -26.0020  -29.4592   20.7123 C   0  0  0  0  0  0
  -27.1941  -28.6984   20.6935 C   0  0  0  0  0  0
  -26.0368  -26.9306   19.4931 C   0  0  0  0  0  0
  -24.8531  -27.6906   19.5085 C   0  0  0  0  0  0
  -23.6072  -29.8296   20.1658 C   0  0  0  0  0  0
  -25.4098  -36.3099   24.0324 C   0  0  1  0  0  0
  -20.5849  -28.3636   23.1352 C   0  0  2  0  0  0
  -20.6747  -26.9378   22.5436 C   0  0  0  0  0  0
  -19.5730  -26.6373   21.5220 C   0  0  0  0  0  0
  -18.1906  -26.7915   22.1628 C   0  0  0  0  0  0
  -19.1512  -28.8817   23.2922 C   0  0  0  0  0  0
  -18.9440  -30.1432   23.8919 C   0  0  0  0  0  0
  -17.6444  -30.6580   24.0561 C   0  0  0  0  0  0
  -25.9031  -34.9465   23.5113 C   0  0  0  0  0  0
  -16.5335  -29.9084   23.6323 C   0  0  0  0  0  0
  -16.7250  -28.6501   23.0343 C   0  0  0  0  0  0
  -26.4467  -31.6597   25.0714 C   0  0  0  0  0  0
  -25.3752  -31.3714   26.1486 C   0  0  0  0  0  0
  -27.0287  -30.3045   24.6066 C   0  0  0  0  0  0
  -27.6043  -32.4309   25.7497 C   0  0  0  0  0  0
  -27.5574  -37.1809   24.8450 C   0  0  0  0  0  0
  -21.4123  -29.3008   22.3762 N   0  0  0  0  0  0
  -26.4275  -37.3793   23.9411 N   0  0  0  0  0  0
  -24.6663  -31.0762   22.1010 N   0  0  0  0  0  0
  -23.4190  -28.8149   23.3022 O   0  0  0  0  0  0
  -28.4238  -26.7276   20.0765 O   0  0  0  0  0  0
  -26.5604  -34.8928   22.4682 O   0  0  0  0  0  0
  -23.5333  -32.1417   23.7513 O   0  0  0  0  0  0
  -29.4949  -17.9622   20.8952 C   0  0  0  0  0  0
  -31.6718  -17.2094   21.6834 C   0  0  0  0  0  0
  -30.3862  -16.8932   21.1914 C   0  0  0  0  0  0
  -29.8789  -19.3269   21.0348 C   0  0  0  0  0  0
  -32.0737  -18.5497   21.8209 C   0  0  0  0  0  0
  -31.1969  -19.6017   21.4874 C   0  0  0  0  0  0
  -28.6356  -22.8133   20.1389 C   0  0  0  0  0  0
  -28.4794  -24.2987   20.6009 C   0  0  0  0  0  0
  -28.9300  -21.7251   21.2027 C   0  0  0  0  0  0
  -28.5132  -25.3981   19.5158 C   0  0  0  0  0  0
  -29.9680  -15.5268   21.0325 N   0  0  0  0  0  0
  -28.9505  -20.3383   20.6751 N   0  0  0  0  0  0
  -28.5005  -22.5038   18.9484 O   0  0  0  0  0  0
  -28.3291  -24.5816   21.7971 O   0  0  0  0  0  0
  -33.3235  -18.8281   22.2656 F   0  0  0  0  0  0
  -31.6637  -20.8692   21.5815 F   0  0  0  0  0  0
  -31.4652  -12.4012   19.1273 H   0  0  0  0  0  0
  -30.3088  -11.3041   19.8259 H   0  0  0  0  0  0
  -29.7359  -11.7842   17.4266 H   0  0  0  0  0  0
  -29.6693  -13.4930   17.7672 H   0  0  0  0  0  0
  -27.8108  -11.3225   18.7995 H   0  0  0  0  0  0
  -27.3683  -12.6663   17.7826 H   0  0  0  0  0  0
  -27.6951  -14.2592   19.5718 H   0  0  0  0  0  0
  -28.6816  -11.9738   21.3489 H   0  0  0  0  0  0
  -28.4702  -13.6184   21.8665 H   0  0  0  0  0  0
  -25.2742   -9.5706   22.4761 H   0  0  0  0  0  0
  -24.0008   -7.4641   22.7483 H   0  0  0  0  0  0
  -21.0827   -8.8757   19.8959 H   0  0  0  0  0  0
  -22.3671  -10.9665   19.6171 H   0  0  0  0  0  0
  -21.2007   -7.6152   23.9735 H   0  0  0  0  0  0
  -21.1480   -6.0517   25.9086 H   0  0  0  0  0  0
  -22.0592   -2.7615   23.2850 H   0  0  0  0  0  0
  -22.4021  -11.9921   22.4835 H   0  0  0  0  0  0
  -21.1082  -13.1309   22.2576 H   0  0  0  0  0  0
  -24.6545  -15.8396   20.5098 H   0  0  0  0  0  0
  -26.2666  -15.6287   20.0542 H   0  0  0  0  0  0
  -26.7095  -32.5514   23.1142 H   0  0  0  0  0  0
  -25.0027  -33.9775   25.0434 H   0  0  0  0  0  0
  -22.6858  -31.3072   21.4188 H   0  0  0  0  0  0
  -23.3725  -35.9680   23.3291 H   0  0  0  0  0  0
  -24.3573  -36.8962   22.2055 H   0  0  0  0  0  0
  -23.7256  -37.6533   23.6671 H   0  0  0  0  0  0
  -26.0337  -31.5888   20.5883 H   0  0  0  0  0  0
  -26.8198  -30.8872   21.9738 H   0  0  0  0  0  0
  -28.0927  -29.0888   21.1515 H   0  0  0  0  0  0
  -25.9792  -25.9689   19.0099 H   0  0  0  0  0  0
  -23.9575  -27.2954   19.0489 H   0  0  0  0  0  0
  -23.7263  -30.6088   19.4124 H   0  0  0  0  0  0
  -22.7272  -29.2596   19.8622 H   0  0  0  0  0  0
  -25.1278  -36.1948   25.0814 H   0  0  0  0  0  0
  -20.9932  -28.3176   24.1477 H   0  0  0  0  0  0
  -20.5637  -26.2228   23.3608 H   0  0  0  0  0  0
  -21.6618  -26.7411   22.1232 H   0  0  0  0  0  0
  -19.6886  -25.6286   21.1235 H   0  0  0  0  0  0
  -19.6684  -27.3198   20.6763 H   0  0  0  0  0  0
  -17.4179  -26.6669   21.4025 H   0  0  0  0  0  0
  -18.0301  -26.0054   22.9018 H   0  0  0  0  0  0
  -19.7918  -30.7243   24.2296 H   0  0  0  0  0  0
  -17.5000  -31.6267   24.5152 H   0  0  0  0  0  0
  -15.5338  -30.2995   23.7629 H   0  0  0  0  0  0
  -15.8646  -28.0831   22.7039 H   0  0  0  0  0  0
  -24.5898  -30.7079   25.7842 H   0  0  0  0  0  0
  -24.8982  -32.2882   26.4965 H   0  0  0  0  0  0
  -25.8128  -30.8865   27.0223 H   0  0  0  0  0  0
  -26.2811  -29.6829   24.1118 H   0  0  0  0  0  0
  -27.4069  -29.7255   25.4501 H   0  0  0  0  0  0
  -27.8645  -30.4376   23.9193 H   0  0  0  0  0  0
  -27.2647  -33.3584   26.2129 H   0  0  0  0  0  0
  -28.3855  -32.6907   25.0336 H   0  0  0  0  0  0
  -28.0713  -31.8394   26.5388 H   0  0  0  0  0  0
  -28.2568  -38.0127   24.7516 H   0  0  0  0  0  0
  -28.1091  -36.2659   24.6237 H   0  0  0  0  0  0
  -27.2307  -37.1414   25.8857 H   0  0  0  0  0  0
  -20.9248  -29.8800   21.7066 H   0  0  0  0  0  0
  -26.0152  -38.2860   24.1446 H   0  0  0  0  0  0
  -28.5034  -17.7282   20.5356 H   0  0  0  0  0  0
  -32.3703  -16.4314   21.9535 H   0  0  0  0  0  0
  -28.1492  -21.7949   21.9606 H   0  0  0  0  0  0
  -29.8447  -22.0059   21.7156 H   0  0  0  0  0  0
  -27.7870  -25.1938   18.7328 H   0  0  0  0  0  0
  -29.4817  -25.3248   19.0229 H   0  0  0  0  0  0
  -28.9925  -15.3256   21.1925 H   0  0  0  0  0  0
  -28.1148  -20.0684   20.1652 H   0  0  0  0  0  0
  1 25  1  0  0  0
  1 30  2  0  0  0
  1 81  1  0  0  0
  2  3  1  0  0  0
  2 25  1  0  0  0
  2 87  1  0  0  0
  2 88  1  0  0  0
  3  4  1  0  0  0
  3 89  1  0  0  0
  3 90  1  0  0  0
  4  5  1  0  0  0
  4 91  1  0  0  0
  4 92  1  0  0  0
  5  6  1  0  0  0
  5 26  1  0  0  0
  5 93  1  0  0  0
  6 25  1  0  0  0
  6 94  1  0  0  0
  6 95  1  0  0  0
  7  8  2  0  0  0
  7 26  1  0  0  0
  7 29  1  0  0  0
  8  9  1  0  0  0
  8 22  1  0  0  0
  9 10  1  0  0  0
  9 27  2  0  0  0
 10 11  2  0  0  0
 10 15  1  0  0  0
 11 12  1  0  0  0
 11 96  1  0  0  0
 12 13  2  0  0  0
 12 97  1  0  0  0
 13 14  1  0  0  0
 13 31  1  0  0  0
 14 15  2  0  0  0
 14 98  1  0  0  0
 15 99  1  0  0  0
 16 17  2  0  0  0
 16 21  1  0  0  0
 16 31  1  0  0  0
 17 18  1  0  0  0
 17100  1  0  0  0
 18 19  2  0  0  0
 18101  1  0  0  0
 19 20  1  0  0  0
 19 24  1  0  0  0
 20 21  2  0  0  0
 20102  1  0  0  0
 21 23  1  0  0  0
 22 28  1  0  0  0
 22 32  2  0  0  0
 26 27  1  0  0  0
 28103  1  0  0  0
 28104  1  0  0  0
 29105  1  0  0  0
 29106  1  0  0  0
 33 34  1  0  0  0
 33 66  1  0  0  0
 33 70  2  0  0  0
 34 36  1  0  0  0
 34 59  1  0  0  0
 34107  1  0  0  0
 35 44  2  0  0  0
 35 45  1  0  0  0
 35 68  1  0  0  0
 36 56  1  0  0  0
 36108  1  0  0  0
 37 39  1  0  0  0
 37 47  1  0  0  0
 37 66  1  0  0  0
 37109  1  0  0  0
 38 43  2  0  0  0
 38 46  1  0  0  0
 38 47  1  0  0  0
 39 64  1  0  0  0
 39 67  2  0  0  0
 40 52  1  0  0  0
 40 53  2  0  0  0
 40 58  1  0  0  0
 41110  1  0  0  0
 41111  1  0  0  0
 41112  1  0  0  0
 41 48  1  0  0  0
 42 43  1  0  0  0
 42 66  1  0  0  0
 42113  1  0  0  0
 42114  1  0  0  0
 43 44  1  0  0  0
 44115  1  0  0  0
 45 46  2  0  0  0
 45116  1  0  0  0
 46117  1  0  0  0
 47118  1  0  0  0
 47119  1  0  0  0
 48 56  1  0  0  0
 48 65  1  0  0  0
 48120  1  0  0  0
 49 50  1  0  0  0
 49 53  1  0  0  0
 49 64  1  0  0  0
 49121  1  0  0  0
 50 51  1  0  0  0
 50122  1  0  0  0
 50123  1  0  0  0
 51 52  1  0  0  0
 51124  1  0  0  0
 51125  1  0  0  0
 52126  1  0  0  0
 52127  1  0  0  0
 53 54  1  0  0  0
 54 55  2  0  0  0
 54128  1  0  0  0
 55 57  1  0  0  0
 55129  1  0  0  0
 56 69  2  0  0  0
 57 58  2  0  0  0
 57130  1  0  0  0
 58131  1  0  0  0
 59 60  1  0  0  0
 59 61  1  0  0  0
 59 62  1  0  0  0
 60132  1  0  0  0
 60133  1  0  0  0
 60134  1  0  0  0
 61135  1  0  0  0
 61136  1  0  0  0
 61137  1  0  0  0
 62138  1  0  0  0
 62139  1  0  0  0
 62140  1  0  0  0
 63 65  1  0  0  0
 63141  1  0  0  0
 63142  1  0  0  0
 63143  1  0  0  0
 64144  1  0  0  0
 65145  1  0  0  0
 68 80  1  0  0  0
 71 73  2  0  0  0
 71 74  1  0  0  0
 71146  1  0  0  0
 72 73  1  0  0  0
 72 75  2  0  0  0
 72147  1  0  0  0
 73 81  1  0  0  0
 74 76  2  0  0  0
 74 82  1  0  0  0
 75 76  1  0  0  0
 75 85  1  0  0  0
 76 86  1  0  0  0
 77 78  1  0  0  0
 77 79  1  0  0  0
 77 83  2  0  0  0
 78 80  1  0  0  0
 78 84  2  0  0  0
 79 82  1  0  0  0
 79148  1  0  0  0
 79149  1  0  0  0
 80150  1  0  0  0
 80151  1  0  0  0
 81152  1  0  0  0
 82153  1  0  0  0
M  ISO  4   1 100  68 101  80 101  81 100
M  END
> <chiral flag>
0

> <version>
0

> <s_m_source_file>
/data/baiqing/PycharmProjects/Reinvent-master-3.2/result/LINK_invent/BTK/process_docking_weight1_custom_product_contain_oxygen_bond_distance_aromatic_linkinvent_7_9_3/rearranged_h_0167.sdf

> <i_m_source_file_index>
67

> <r_mmod_Potential_Energy-OPLS-2005>
130.160247802734

> <r_mmod_Stretch_Energy-OPLS-2005>
45.5335922241211

> <r_mmod_Bend_Energy-OPLS-2005>
121.090240478516

> <r_mmod_Torsional_Energy-OPLS-2005>
202.60383605957

> <r_mmod_Improper_Torsional_Energy-OPLS-2005>
4.7969651222229

> <r_mmod_Van_der_Waal_Energy-OPLS-2005>
157.100509643555

> <r_mmod_Electrostatic_Energy-OPLS-2005>
-174.712127685547

> <r_mmod_Solvation_Energy-OPLS-2005>
-240.699813842773

> <b_mmod_Minimization_Converged-OPLS-2005>
0

> <r_mmod_RMS_Derivative-OPLS-2005>
2.13872838020325

$$$$
68
                    3D
 Structure written by MMmdl.
170178  0  0  1  0            999 V2000
  -30.7888  -14.4316   20.3979 C   0  0  0  0  0  0
  -30.3848  -12.2532   19.4363 C   0  0  0  0  0  0
  -29.4795  -12.4556   18.2058 C   0  0  0  0  0  0
  -28.0035  -12.3349   18.6227 C   0  0  0  0  0  0
  -27.6422  -13.2258   19.8410 C   0  0  2  0  0  0
  -28.6942  -13.1286   20.9674 C   0  0  0  0  0  0
  -25.2454  -13.8107   20.5765 C   0  0  0  0  0  0
  -24.1752  -13.0366   20.9219 C   0  0  0  0  0  0
  -24.6373  -11.6869   20.8750 C   0  0  0  0  0  0
  -23.9060  -10.4254   21.0398 C   0  0  0  0  0  0
  -24.3613   -9.4175   21.9179 C   0  0  0  0  0  0
  -23.6281   -8.2215   22.0739 C   0  0  0  0  0  0
  -22.4264   -8.0256   21.3525 C   0  0  0  0  0  0
  -21.9906   -9.0235   20.4624 C   0  0  0  0  0  0
  -22.7236  -10.2108   20.3039 C   0  0  0  0  0  0
  -21.6842   -6.0712   22.5265 C   0  0  0  0  0  0
  -21.4009   -6.5621   23.8196 C   0  0  0  0  0  0
  -21.3669   -5.6783   24.9165 C   0  0  0  0  0  0
  -21.6045   -4.3046   24.7219 C   0  0  0  0  0  0
  -21.8817   -3.8128   23.4344 C   0  0  0  0  0  0
  -21.9187   -4.6943   22.3394 C   0  0  0  0  0  0
  -22.7783  -13.5167   21.1869 C   0  0  0  0  0  0
  -22.1671   -4.2125   21.0977 F   0  0  0  0  0  0
  -21.5640   -3.4540   25.7742 F   0  0  0  0  0  0
  -30.0325  -13.3079   20.3931 N   0  0  0  0  0  0
  -26.2932  -12.9386   20.3294 N   0  0  0  0  0  0
  -25.9308  -11.6526   20.5761 N   0  0  0  0  0  0
  -22.0424  -12.8180   22.0435 N   0  0  0  0  0  0
  -25.4022  -15.1803   20.4311 N   0  0  0  0  0  0
  -32.0150  -14.3864   20.3392 O   0  0  0  0  0  0
  -21.6624   -6.8858   21.4226 O   0  0  0  0  0  0
  -22.3486  -14.5483   20.6712 O   0  0  0  0  0  0
  -24.6090  -31.8718   23.2138 C   0  0  0  0  0  0
  -25.9003  -32.4844   23.8422 C   0  0  1  0  0  0
  -27.2321  -27.4842   20.0921 C   0  0  0  0  0  0
  -25.5878  -33.8643   24.2350 N   0  0  0  0  0  0
  -23.3934  -30.4956   21.5538 C   0  0  2  0  0  0
  -24.8377  -28.9657   20.1167 C   0  0  0  0  0  0
  -22.7379  -29.4678   22.5028 C   0  0  0  0  0  0
  -18.0263  -28.1376   22.8507 C   0  0  0  0  0  0
  -24.1485  -36.7322   23.2644 C   0  0  0  0  0  0
  -25.9171  -30.8533   21.3585 C   0  0  0  0  0  0
  -25.9946  -29.4923   20.7052 C   0  0  0  0  0  0
  -27.1954  -28.7588   20.6857 C   0  0  0  0  0  0
  -26.0624  -26.9566   19.5006 C   0  0  0  0  0  0
  -24.8632  -27.6947   19.5135 C   0  0  0  0  0  0
  -23.5972  -29.8268   20.1682 C   0  0  0  0  0  0
  -25.4108  -36.3124   24.0342 C   0  0  1  0  0  0
  -20.5847  -28.3656   23.1338 C   0  0  2  0  0  0
  -20.6756  -26.9403   22.5424 C   0  0  0  0  0  0
  -19.5737  -26.6391   21.5217 C   0  0  0  0  0  0
  -18.1909  -26.7928   22.1621 C   0  0  0  0  0  0
  -19.1512  -28.8832   23.2921 C   0  0  0  0  0  0
  -18.9446  -30.1442   23.8928 C   0  0  0  0  0  0
  -17.6449  -30.6590   24.0572 C   0  0  0  0  0  0
  -25.9028  -34.9486   23.5139 C   0  0  0  0  0  0
  -16.5341  -29.9094   23.6330 C   0  0  0  0  0  0
  -16.7252  -28.6507   23.0358 C   0  0  0  0  0  0
  -26.4457  -31.6618   25.0734 C   0  0  0  0  0  0
  -25.3737  -31.3677   26.1489 C   0  0  0  0  0  0
  -27.0310  -30.3084   24.6074 C   0  0  0  0  0  0
  -27.6039  -32.4343   25.7487 C   0  0  0  0  0  0
  -27.5587  -37.1810   24.8467 C   0  0  0  0  0  0
  -21.4113  -29.3021   22.3743 N   0  0  0  0  0  0
  -26.4301  -37.3803   23.9409 N   0  0  0  0  0  0
  -24.6580  -31.0871   22.1008 N   0  0  0  0  0  0
  -23.4174  -28.8222   23.3055 O   0  0  0  0  0  0
  -28.4195  -26.8014   20.1034 O   0  0  0  0  0  0
  -26.5591  -34.8923   22.4701 O   0  0  0  0  0  0
  -23.5295  -32.1443   23.7567 O   0  0  0  0  0  0
  -31.7349  -19.2890   16.9334 C   0  0  0  0  0  0
  -31.6164  -18.0078   17.4837 C   0  0  0  0  0  0
  -30.8313  -20.2873   17.3104 C   0  0  0  0  0  0
  -30.5799  -17.6807   18.3890 C   0  0  0  0  0  0
  -29.6066  -18.6713   18.7071 C   0  0  0  0  0  0
  -29.7690  -19.9932   18.1989 C   0  0  0  0  0  0
  -30.7240  -16.3333   18.9926 C   0  0  0  0  0  0
  -30.1341  -15.6795   20.0305 C   0  0  0  0  0  0
  -28.4495  -23.1675   19.3429 C   0  0  0  0  0  0
  -28.3980  -18.3245   19.4924 C   0  0  0  0  0  0
  -28.6076  -24.5036   19.2798 C   0  0  0  0  0  0
  -28.7965  -22.2815   18.2513 C   0  0  0  0  0  0
  -26.2300  -18.1743   18.1235 C   0  0  0  0  0  0
  -27.0133  -19.1216   22.7707 C   0  0  0  0  0  0
  -27.4366  -17.4276   18.7176 C   0  0  0  0  0  0
  -28.3411  -25.4253   20.4536 C   0  0  0  0  0  0
  -27.0761  -18.3211   21.4683 C   0  0  0  0  0  0
  -28.2176  -18.7568   20.6836 N   0  0  0  0  0  0
  -28.9311  -21.0287   18.6969 N   0  0  0  0  0  0
  -28.9466  -22.6217   17.0735 O   0  0  0  0  0  0
  -29.0418  -25.1801   18.1999 O   0  0  0  0  0  0
  -31.4349  -12.2770   19.1390 H   0  0  0  0  0  0
  -30.2213  -11.2724   19.8852 H   0  0  0  0  0  0
  -29.7078  -11.7155   17.4373 H   0  0  0  0  0  0
  -29.6612  -13.4334   17.7573 H   0  0  0  0  0  0
  -27.8212  -11.2873   18.8648 H   0  0  0  0  0  0
  -27.3524  -12.5685   17.7790 H   0  0  0  0  0  0
  -27.6486  -14.2514   19.4749 H   0  0  0  0  0  0
  -28.6430  -12.1624   21.4690 H   0  0  0  0  0  0
  -28.5002  -13.8850   21.7298 H   0  0  0  0  0  0
  -25.2750   -9.5667   22.4761 H   0  0  0  0  0  0
  -23.9975   -7.4616   22.7482 H   0  0  0  0  0  0
  -21.0820   -8.8776   19.8934 H   0  0  0  0  0  0
  -22.3703  -10.9659   19.6157 H   0  0  0  0  0  0
  -21.2004   -7.6128   23.9698 H   0  0  0  0  0  0
  -21.1507   -6.0508   25.9069 H   0  0  0  0  0  0
  -22.0586   -2.7585   23.2847 H   0  0  0  0  0  0
  -22.4052  -11.9852   22.4833 H   0  0  0  0  0  0
  -21.1046  -13.1209   22.2667 H   0  0  0  0  0  0
  -24.6251  -15.8255   20.5109 H   0  0  0  0  0  0
  -26.2475  -15.6060   20.0843 H   0  0  0  0  0  0
  -26.7075  -32.5577   23.1195 H   0  0  0  0  0  0
  -25.0034  -33.9816   25.0499 H   0  0  0  0  0  0
  -22.6798  -31.3108   21.4174 H   0  0  0  0  0  0
  -23.3748  -35.9656   23.3313 H   0  0  0  0  0  0
  -24.3581  -36.8938   22.2059 H   0  0  0  0  0  0
  -23.7228  -37.6521   23.6661 H   0  0  0  0  0  0
  -26.0221  -31.6217   20.5915 H   0  0  0  0  0  0
  -26.8077  -30.9064   21.9732 H   0  0  0  0  0  0
  -28.0919  -29.1616   21.1355 H   0  0  0  0  0  0
  -26.0763  -25.9869   19.0237 H   0  0  0  0  0  0
  -23.9717  -27.2838   19.0579 H   0  0  0  0  0  0
  -23.7008  -30.6014   19.4075 H   0  0  0  0  0  0
  -22.7231  -29.2420   19.8756 H   0  0  0  0  0  0
  -25.1282  -36.2003   25.0836 H   0  0  0  0  0  0
  -20.9942  -28.3229   24.1455 H   0  0  0  0  0  0
  -20.5683  -26.2261   23.3597 H   0  0  0  0  0  0
  -21.6625  -26.7463   22.1208 H   0  0  0  0  0  0
  -19.6898  -25.6305   21.1233 H   0  0  0  0  0  0
  -19.6684  -27.3214   20.6758 H   0  0  0  0  0  0
  -17.4183  -26.6697   21.4012 H   0  0  0  0  0  0
  -18.0305  -26.0066   22.9010 H   0  0  0  0  0  0
  -19.7919  -30.7258   24.2315 H   0  0  0  0  0  0
  -17.5003  -31.6272   24.5172 H   0  0  0  0  0  0
  -15.5344  -30.3010   23.7645 H   0  0  0  0  0  0
  -15.8647  -28.0841   22.7063 H   0  0  0  0  0  0
  -24.5918  -30.7022   25.7811 H   0  0  0  0  0  0
  -24.8908  -32.2808   26.4982 H   0  0  0  0  0  0
  -25.8108  -30.8813   27.0219 H   0  0  0  0  0  0
  -26.2838  -29.6812   24.1196 H   0  0  0  0  0  0
  -27.4186  -29.7350   25.4505 H   0  0  0  0  0  0
  -27.8619  -30.4442   23.9145 H   0  0  0  0  0  0
  -27.2667  -33.3635   26.2093 H   0  0  0  0  0  0
  -28.3825  -32.6925   25.0296 H   0  0  0  0  0  0
  -28.0737  -31.8456   26.5375 H   0  0  0  0  0  0
  -28.2600  -38.0116   24.7549 H   0  0  0  0  0  0
  -28.1092  -36.2649   24.6263 H   0  0  0  0  0  0
  -27.2302  -37.1429   25.8869 H   0  0  0  0  0  0
  -20.9266  -29.8729   21.6958 H   0  0  0  0  0  0
  -26.0196  -38.2882   24.1428 H   0  0  0  0  0  0
  -32.5495  -19.5181   16.2610 H   0  0  0  0  0  0
  -32.3654  -17.2759   17.2143 H   0  0  0  0  0  0
  -30.9958  -21.2824   16.9243 H   0  0  0  0  0  0
  -31.5129  -15.7848   18.4936 H   0  0  0  0  0  0
  -29.2986  -16.0550   20.5985 H   0  0  0  0  0  0
  -28.0786  -22.7428   20.2665 H   0  0  0  0  0  0
  -25.6070  -17.4907   17.5473 H   0  0  0  0  0  0
  -26.5564  -18.9658   17.4480 H   0  0  0  0  0  0
  -25.5928  -18.6301   18.8784 H   0  0  0  0  0  0
  -26.1691  -18.7953   23.3801 H   0  0  0  0  0  0
  -26.8837  -20.1863   22.5727 H   0  0  0  0  0  0
  -27.9196  -18.9944   23.3636 H   0  0  0  0  0  0
  -27.1270  -16.6119   19.3540 H   0  0  0  0  0  0
  -27.9714  -16.9461   17.8977 H   0  0  0  0  0  0
  -29.1094  -25.2370   21.2047 H   0  0  0  0  0  0
  -27.3954  -25.1590   20.9299 H   0  0  0  0  0  0
  -26.1349  -18.4620   20.9409 H   0  0  0  0  0  0
  -27.1553  -17.2573   21.7039 H   0  0  0  0  0  0
  -28.5511  -20.8407   19.6176 H   0  0  0  0  0  0
  -29.1722  -24.5459   17.5003 H   0  0  0  0  0  0
  1 25  1  0  0  0
  1 30  2  0  0  0
  1 78  1  0  0  0
  2  3  1  0  0  0
  2 25  1  0  0  0
  2 92  1  0  0  0
  2 93  1  0  0  0
  3  4  1  0  0  0
  3 94  1  0  0  0
  3 95  1  0  0  0
  4  5  1  0  0  0
  4 96  1  0  0  0
  4 97  1  0  0  0
  5  6  1  0  0  0
  5 26  1  0  0  0
  5 98  1  0  0  0
  6 25  1  0  0  0
  6 99  1  0  0  0
  6100  1  0  0  0
  7  8  2  0  0  0
  7 26  1  0  0  0
  7 29  1  0  0  0
  8  9  1  0  0  0
  8 22  1  0  0  0
  9 10  1  0  0  0
  9 27  2  0  0  0
 10 11  2  0  0  0
 10 15  1  0  0  0
 11 12  1  0  0  0
 11101  1  0  0  0
 12 13  2  0  0  0
 12102  1  0  0  0
 13 14  1  0  0  0
 13 31  1  0  0  0
 14 15  2  0  0  0
 14103  1  0  0  0
 15104  1  0  0  0
 16 17  2  0  0  0
 16 21  1  0  0  0
 16 31  1  0  0  0
 17 18  1  0  0  0
 17105  1  0  0  0
 18 19  2  0  0  0
 18106  1  0  0  0
 19 20  1  0  0  0
 19 24  1  0  0  0
 20 21  2  0  0  0
 20107  1  0  0  0
 21 23  1  0  0  0
 22 28  1  0  0  0
 22 32  2  0  0  0
 26 27  1  0  0  0
 28108  1  0  0  0
 28109  1  0  0  0
 29110  1  0  0  0
 29111  1  0  0  0
 33 34  1  0  0  0
 33 66  1  0  0  0
 33 70  2  0  0  0
 34 36  1  0  0  0
 34 59  1  0  0  0
 34112  1  0  0  0
 35 44  2  0  0  0
 35 45  1  0  0  0
 35 68  1  0  0  0
 36 56  1  0  0  0
 36113  1  0  0  0
 37 39  1  0  0  0
 37 47  1  0  0  0
 37 66  1  0  0  0
 37114  1  0  0  0
 38 43  2  0  0  0
 38 46  1  0  0  0
 38 47  1  0  0  0
 39 64  1  0  0  0
 39 67  2  0  0  0
 40 52  1  0  0  0
 40 53  2  0  0  0
 40 58  1  0  0  0
 41115  1  0  0  0
 41116  1  0  0  0
 41117  1  0  0  0
 41 48  1  0  0  0
 42 43  1  0  0  0
 42 66  1  0  0  0
 42118  1  0  0  0
 42119  1  0  0  0
 43 44  1  0  0  0
 44120  1  0  0  0
 45 46  2  0  0  0
 45121  1  0  0  0
 46122  1  0  0  0
 47123  1  0  0  0
 47124  1  0  0  0
 48 56  1  0  0  0
 48 65  1  0  0  0
 48125  1  0  0  0
 49 50  1  0  0  0
 49 53  1  0  0  0
 49 64  1  0  0  0
 49126  1  0  0  0
 50 51  1  0  0  0
 50127  1  0  0  0
 50128  1  0  0  0
 51 52  1  0  0  0
 51129  1  0  0  0
 51130  1  0  0  0
 52131  1  0  0  0
 52132  1  0  0  0
 53 54  1  0  0  0
 54 55  2  0  0  0
 54133  1  0  0  0
 55 57  1  0  0  0
 55134  1  0  0  0
 56 69  2  0  0  0
 57 58  2  0  0  0
 57135  1  0  0  0
 58136  1  0  0  0
 59 60  1  0  0  0
 59 61  1  0  0  0
 59 62  1  0  0  0
 60137  1  0  0  0
 60138  1  0  0  0
 60139  1  0  0  0
 61140  1  0  0  0
 61141  1  0  0  0
 61142  1  0  0  0
 62143  1  0  0  0
 62144  1  0  0  0
 62145  1  0  0  0
 63 65  1  0  0  0
 63146  1  0  0  0
 63147  1  0  0  0
 63148  1  0  0  0
 64149  1  0  0  0
 65150  1  0  0  0
 68 86  1  0  0  0
 71 72  2  0  0  0
 71 73  1  0  0  0
 71151  1  0  0  0
 72 74  1  0  0  0
 72152  1  0  0  0
 73 76  2  0  0  0
 73153  1  0  0  0
 74 75  2  0  0  0
 74 77  1  0  0  0
 75 76  1  0  0  0
 75 80  1  0  0  0
 76 89  1  0  0  0
 77 78  2  0  0  0
 77154  1  0  0  0
 78155  1  0  0  0
 79 81  2  0  0  0
 79 82  1  0  0  0
 79156  1  0  0  0
 80 85  1  0  0  0
 80 88  2  0  0  0
 81 86  1  0  0  0
 81 91  1  0  0  0
 82 89  1  0  0  0
 82 90  2  0  0  0
 83 85  1  0  0  0
 83157  1  0  0  0
 83158  1  0  0  0
 83159  1  0  0  0
 84 87  1  0  0  0
 84160  1  0  0  0
 84161  1  0  0  0
 84162  1  0  0  0
 85163  1  0  0  0
 85164  1  0  0  0
 86165  1  0  0  0
 86166  1  0  0  0
 87 88  1  0  0  0
 87167  1  0  0  0
 87168  1  0  0  0
 89169  1  0  0  0
 91170  1  0  0  0
M  ISO  4   1 100  68 101  78 100  86 101
M  END
> <chiral flag>
0

> <version>
0

> <s_m_source_file>
/data/baiqing/PycharmProjects/Reinvent-master-3.2/result/LINK_invent/BTK/process_docking_weight1_custom_product_contain_oxygen_bond_distance_aromatic_linkinvent_7_9_3/rearranged_h_0167.sdf

> <i_m_source_file_index>
68

> <r_mmod_Potential_Energy-OPLS-2005>
144.836364746094

> <r_mmod_Stretch_Energy-OPLS-2005>
35.7035446166992

> <r_mmod_Bend_Energy-OPLS-2005>
134.989807128906

> <r_mmod_Torsional_Energy-OPLS-2005>
271.944244384766

> <r_mmod_Improper_Torsional_Energy-OPLS-2005>
14.218523979187

> <r_mmod_Van_der_Waal_Energy-OPLS-2005>
181.294692993164

> <r_mmod_Electrostatic_Energy-OPLS-2005>
-322.367156982422

> <r_mmod_Solvation_Energy-OPLS-2005>
-213.740036010742

> <b_mmod_Minimization_Converged-OPLS-2005>
0

> <r_mmod_RMS_Derivative-OPLS-2005>
1.67944955825806

$$$$
69
                    3D
 Structure written by MMmdl.
160168  0  0  1  0            999 V2000
  -30.6815  -14.4853   20.5607 C   0  0  0  0  0  0
  -30.4291  -12.3098   19.4237 C   0  0  0  0  0  0
  -29.4983  -12.5029   18.2074 C   0  0  0  0  0  0
  -28.0188  -12.3630   18.6183 C   0  0  0  0  0  0
  -27.6631  -13.2029   19.8742 C   0  0  2  0  0  0
  -28.7042  -12.9786   20.9949 C   0  0  0  0  0  0
  -25.2605  -13.8154   20.5669 C   0  0  0  0  0  0
  -24.1852  -13.0438   20.9178 C   0  0  0  0  0  0
  -24.6394  -11.6903   20.8730 C   0  0  0  0  0  0
  -23.9053  -10.4292   21.0403 C   0  0  0  0  0  0
  -24.3606   -9.4210   21.9182 C   0  0  0  0  0  0
  -23.6285   -8.2244   22.0751 C   0  0  0  0  0  0
  -22.4267   -8.0282   21.3540 C   0  0  0  0  0  0
  -21.9896   -9.0257   20.4644 C   0  0  0  0  0  0
  -22.7223  -10.2137   20.3055 C   0  0  0  0  0  0
  -21.6854   -6.0730   22.5277 C   0  0  0  0  0  0
  -21.4018   -6.5634   23.8211 C   0  0  0  0  0  0
  -21.3661   -5.6786   24.9173 C   0  0  0  0  0  0
  -21.6041   -4.3049   24.7224 C   0  0  0  0  0  0
  -21.8821   -3.8141   23.4347 C   0  0  0  0  0  0
  -21.9196   -4.6956   22.3401 C   0  0  0  0  0  0
  -22.7875  -13.5244   21.1837 C   0  0  0  0  0  0
  -22.1662   -4.2140   21.0978 F   0  0  0  0  0  0
  -21.5629   -3.4535   25.7739 F   0  0  0  0  0  0
  -30.0364  -13.2915   20.4468 N   0  0  0  0  0  0
  -26.3030  -12.9311   20.3342 N   0  0  0  0  0  0
  -25.9320  -11.6478   20.5756 N   0  0  0  0  0  0
  -22.0506  -12.8252   22.0393 N   0  0  0  0  0  0
  -25.4346  -15.1868   20.4059 N   0  0  0  0  0  0
  -31.8097  -14.6751   20.0969 O   0  0  0  0  0  0
  -21.6638   -6.8874   21.4239 O   0  0  0  0  0  0
  -22.3568  -14.5550   20.6678 O   0  0  0  0  0  0
  -24.6162  -31.8675   23.2094 C   0  0  0  0  0  0
  -25.9051  -32.4818   23.8392 C   0  0  1  0  0  0
  -27.2358  -27.4227   20.0965 C   0  0  0  0  0  0
  -25.5908  -33.8614   24.2327 N   0  0  0  0  0  0
  -23.4047  -30.4910   21.5502 C   0  0  2  0  0  0
  -24.8502  -28.9550   20.1156 C   0  0  0  0  0  0
  -22.7419  -29.4657   22.4985 C   0  0  0  0  0  0
  -18.0278  -28.1382   22.8490 C   0  0  0  0  0  0
  -24.1490  -36.7318   23.2636 C   0  0  0  0  0  0
  -25.9349  -30.8298   21.3635 C   0  0  0  0  0  0
  -26.0121  -29.4640   20.7085 C   0  0  0  0  0  0
  -27.2081  -28.7077   20.6902 C   0  0  0  0  0  0
  -26.0512  -26.9299   19.5010 C   0  0  0  0  0  0
  -24.8657  -27.6880   19.5086 C   0  0  0  0  0  0
  -23.6135  -29.8240   20.1649 C   0  0  0  0  0  0
  -25.4108  -36.3109   24.0338 C   0  0  1  0  0  0
  -20.5869  -28.3671   23.1316 C   0  0  2  0  0  0
  -20.6770  -26.9406   22.5418 C   0  0  0  0  0  0
  -19.5749  -26.6389   21.5214 C   0  0  0  0  0  0
  -18.1925  -26.7931   22.1619 C   0  0  0  0  0  0
  -19.1527  -28.8842   23.2901 C   0  0  0  0  0  0
  -18.9450  -30.1446   23.8914 C   0  0  0  0  0  0
  -17.6453  -30.6584   24.0568 C   0  0  0  0  0  0
  -25.9039  -34.9475   23.5132 C   0  0  0  0  0  0
  -16.5346  -29.9087   23.6325 C   0  0  0  0  0  0
  -16.7268  -28.6507   23.0342 C   0  0  0  0  0  0
  -26.4475  -31.6599   25.0723 C   0  0  0  0  0  0
  -25.3743  -31.3716   26.1478 C   0  0  0  0  0  0
  -27.0299  -30.3037   24.6105 C   0  0  0  0  0  0
  -27.6058  -32.4316   25.7474 C   0  0  0  0  0  0
  -27.5584  -37.1813   24.8461 C   0  0  0  0  0  0
  -21.4146  -29.3035   22.3719 N   0  0  0  0  0  0
  -26.4296  -37.3791   23.9404 N   0  0  0  0  0  0
  -24.6701  -31.0770   22.0995 N   0  0  0  0  0  0
  -23.4187  -28.8200   23.3032 O   0  0  0  0  0  0
  -28.4076  -26.6886   20.1064 O   0  0  0  0  0  0
  -26.5601  -34.8926   22.4693 O   0  0  0  0  0  0
  -23.5352  -32.1427   23.7485 O   0  0  0  0  0  0
  -31.2301  -17.5917   20.6595 C   0  0  0  0  0  0
  -28.8422  -17.6532   21.0227 C   0  0  0  0  0  0
  -31.2622  -19.0025   20.4795 C   0  0  0  0  0  0
  -30.0271  -16.8968   20.9202 C   0  0  0  0  0  0
  -30.0484  -19.7583   20.5634 C   0  0  0  0  0  0
  -28.8446  -19.0518   20.8364 C   0  0  0  0  0  0
  -32.5793  -19.6483   20.2095 C   0  0  0  0  0  0
  -29.6341  -24.5751   20.3927 C   0  0  0  0  0  0
  -29.1441  -23.9220   22.7980 C   0  0  0  0  0  0
  -28.2761  -25.2511   20.1119 C   0  0  0  0  0  0
  -29.1082  -22.0592   21.0488 C   0  0  0  0  0  0
  -29.7263  -23.4386   21.4567 C   0  0  1  0  0  0
  -33.6967  -19.0568   20.1057 N   0  0  0  0  0  0
  -29.9393  -15.4747   21.1050 N   0  0  0  0  0  0
  -30.0484  -21.1658   20.3521 N   0  0  0  0  0  0
  -30.6433  -24.9536   19.7845 O   0  0  0  0  0  0
  -27.6577  -19.7050   20.9022 F   0  0  0  0  0  0
  -31.0196  -23.2033   21.7148 F   0  0  0  0  0  0
  -31.4731  -12.4149   19.1221 H   0  0  0  0  0  0
  -30.3368  -11.2982   19.8215 H   0  0  0  0  0  0
  -29.7390  -11.7753   17.4307 H   0  0  0  0  0  0
  -29.6663  -13.4870   17.7669 H   0  0  0  0  0  0
  -27.8280  -11.3071   18.8137 H   0  0  0  0  0  0
  -27.3703  -12.6383   17.7860 H   0  0  0  0  0  0
  -27.7087  -14.2503   19.5767 H   0  0  0  0  0  0
  -28.6826  -11.9398   21.3265 H   0  0  0  0  0  0
  -28.4613  -13.5679   21.8805 H   0  0  0  0  0  0
  -25.2759   -9.5685   22.4750 H   0  0  0  0  0  0
  -23.9996   -7.4636   22.7471 H   0  0  0  0  0  0
  -21.0820   -8.8778   19.8956 H   0  0  0  0  0  0
  -22.3684  -10.9675   19.6161 H   0  0  0  0  0  0
  -21.2012   -7.6142   23.9712 H   0  0  0  0  0  0
  -21.1480   -6.0517   25.9074 H   0  0  0  0  0  0
  -22.0598   -2.7601   23.2856 H   0  0  0  0  0  0
  -22.4113  -11.9916   22.4796 H   0  0  0  0  0  0
  -21.1126  -13.1295   22.2584 H   0  0  0  0  0  0
  -24.6631  -15.8391   20.4958 H   0  0  0  0  0  0
  -26.2716  -15.6138   20.0303 H   0  0  0  0  0  0
  -26.7123  -32.5523   23.1156 H   0  0  0  0  0  0
  -25.0069  -33.9772   25.0479 H   0  0  0  0  0  0
  -22.6940  -31.3084   21.4113 H   0  0  0  0  0  0
  -23.3742  -35.9661   23.3307 H   0  0  0  0  0  0
  -24.3585  -36.8921   22.2049 H   0  0  0  0  0  0
  -23.7253  -37.6532   23.6641 H   0  0  0  0  0  0
  -26.0509  -31.5966   20.5963 H   0  0  0  0  0  0
  -26.8214  -30.8809   21.9839 H   0  0  0  0  0  0
  -28.1064  -29.0995   21.1467 H   0  0  0  0  0  0
  -26.0247  -25.9644   19.0178 H   0  0  0  0  0  0
  -23.9727  -27.2910   19.0454 H   0  0  0  0  0  0
  -23.7246  -30.5997   19.4063 H   0  0  0  0  0  0
  -22.7358  -29.2474   19.8671 H   0  0  0  0  0  0
  -25.1282  -36.1981   25.0831 H   0  0  0  0  0  0
  -20.9962  -28.3242   24.1437 H   0  0  0  0  0  0
  -20.5676  -26.2279   23.3605 H   0  0  0  0  0  0
  -21.6642  -26.7452   22.1211 H   0  0  0  0  0  0
  -19.6912  -25.6305   21.1227 H   0  0  0  0  0  0
  -19.6689  -27.3212   20.6755 H   0  0  0  0  0  0
  -17.4199  -26.6686   21.4017 H   0  0  0  0  0  0
  -18.0319  -26.0069   22.9009 H   0  0  0  0  0  0
  -19.7924  -30.7258   24.2293 H   0  0  0  0  0  0
  -17.5005  -31.6263   24.5173 H   0  0  0  0  0  0
  -15.5346  -30.2992   23.7639 H   0  0  0  0  0  0
  -15.8669  -28.0832   22.7044 H   0  0  0  0  0  0
  -24.5912  -30.7061   25.7825 H   0  0  0  0  0  0
  -24.8940  -32.2876   26.4929 H   0  0  0  0  0  0
  -25.8103  -30.8887   27.0232 H   0  0  0  0  0  0
  -26.2838  -29.6803   24.1161 H   0  0  0  0  0  0
  -27.4064  -29.7274   25.4567 H   0  0  0  0  0  0
  -27.8679  -30.4349   23.9256 H   0  0  0  0  0  0
  -27.2685  -33.3602   26.2089 H   0  0  0  0  0  0
  -28.3841  -32.6898   25.0281 H   0  0  0  0  0  0
  -28.0756  -31.8419   26.5356 H   0  0  0  0  0  0
  -28.2613  -38.0101   24.7497 H   0  0  0  0  0  0
  -28.1072  -36.2635   24.6293 H   0  0  0  0  0  0
  -27.2307  -37.1476   25.8866 H   0  0  0  0  0  0
  -20.9309  -29.8761   21.6941 H   0  0  0  0  0  0
  -26.0190  -38.2874   24.1393 H   0  0  0  0  0  0
  -32.1528  -17.0361   20.6019 H   0  0  0  0  0  0
  -27.9010  -17.1650   21.2277 H   0  0  0  0  0  0
  -32.5687  -20.7349   20.0926 H   0  0  0  0  0  0
  -28.0558  -23.9722   22.7764 H   0  0  0  0  0  0
  -29.5219  -24.9091   23.0681 H   0  0  0  0  0  0
  -29.4170  -23.2423   23.6054 H   0  0  0  0  0  0
  -27.5385  -24.9402   20.8510 H   0  0  0  0  0  0
  -27.9311  -24.9067   19.1372 H   0  0  0  0  0  0
  -28.2243  -22.2100   20.4275 H   0  0  0  0  0  0
  -28.7617  -21.5619   21.9559 H   0  0  0  0  0  0
  -33.6115  -18.0539   20.2276 H   0  0  0  0  0  0
  -29.0588  -15.1422   21.4674 H   0  0  0  0  0  0
  -30.9607  -21.5938   20.2367 H   0  0  0  0  0  0
  1 25  1  0  0  0
  1 30  2  0  0  0
  1 84  1  0  0  0
  2  3  1  0  0  0
  2 25  1  0  0  0
  2 89  1  0  0  0
  2 90  1  0  0  0
  3  4  1  0  0  0
  3 91  1  0  0  0
  3 92  1  0  0  0
  4  5  1  0  0  0
  4 93  1  0  0  0
  4 94  1  0  0  0
  5  6  1  0  0  0
  5 26  1  0  0  0
  5 95  1  0  0  0
  6 25  1  0  0  0
  6 96  1  0  0  0
  6 97  1  0  0  0
  7  8  2  0  0  0
  7 26  1  0  0  0
  7 29  1  0  0  0
  8  9  1  0  0  0
  8 22  1  0  0  0
  9 10  1  0  0  0
  9 27  2  0  0  0
 10 11  2  0  0  0
 10 15  1  0  0  0
 11 12  1  0  0  0
 11 98  1  0  0  0
 12 13  2  0  0  0
 12 99  1  0  0  0
 13 14  1  0  0  0
 13 31  1  0  0  0
 14 15  2  0  0  0
 14100  1  0  0  0
 15101  1  0  0  0
 16 17  2  0  0  0
 16 21  1  0  0  0
 16 31  1  0  0  0
 17 18  1  0  0  0
 17102  1  0  0  0
 18 19  2  0  0  0
 18103  1  0  0  0
 19 20  1  0  0  0
 19 24  1  0  0  0
 20 21  2  0  0  0
 20104  1  0  0  0
 21 23  1  0  0  0
 22 28  1  0  0  0
 22 32  2  0  0  0
 26 27  1  0  0  0
 28105  1  0  0  0
 28106  1  0  0  0
 29107  1  0  0  0
 29108  1  0  0  0
 33 34  1  0  0  0
 33 66  1  0  0  0
 33 70  2  0  0  0
 34 36  1  0  0  0
 34 59  1  0  0  0
 34109  1  0  0  0
 35 44  2  0  0  0
 35 45  1  0  0  0
 35 68  1  0  0  0
 36 56  1  0  0  0
 36110  1  0  0  0
 37 39  1  0  0  0
 37 47  1  0  0  0
 37 66  1  0  0  0
 37111  1  0  0  0
 38 43  2  0  0  0
 38 46  1  0  0  0
 38 47  1  0  0  0
 39 64  1  0  0  0
 39 67  2  0  0  0
 40 52  1  0  0  0
 40 53  2  0  0  0
 40 58  1  0  0  0
 41112  1  0  0  0
 41113  1  0  0  0
 41114  1  0  0  0
 41 48  1  0  0  0
 42 43  1  0  0  0
 42 66  1  0  0  0
 42115  1  0  0  0
 42116  1  0  0  0
 43 44  1  0  0  0
 44117  1  0  0  0
 45 46  2  0  0  0
 45118  1  0  0  0
 46119  1  0  0  0
 47120  1  0  0  0
 47121  1  0  0  0
 48 56  1  0  0  0
 48 65  1  0  0  0
 48122  1  0  0  0
 49 50  1  0  0  0
 49 53  1  0  0  0
 49 64  1  0  0  0
 49123  1  0  0  0
 50 51  1  0  0  0
 50124  1  0  0  0
 50125  1  0  0  0
 51 52  1  0  0  0
 51126  1  0  0  0
 51127  1  0  0  0
 52128  1  0  0  0
 52129  1  0  0  0
 53 54  1  0  0  0
 54 55  2  0  0  0
 54130  1  0  0  0
 55 57  1  0  0  0
 55131  1  0  0  0
 56 69  2  0  0  0
 57 58  2  0  0  0
 57132  1  0  0  0
 58133  1  0  0  0
 59 60  1  0  0  0
 59 61  1  0  0  0
 59 62  1  0  0  0
 60134  1  0  0  0
 60135  1  0  0  0
 60136  1  0  0  0
 61137  1  0  0  0
 61138  1  0  0  0
 61139  1  0  0  0
 62140  1  0  0  0
 62141  1  0  0  0
 62142  1  0  0  0
 63 65  1  0  0  0
 63143  1  0  0  0
 63144  1  0  0  0
 63145  1  0  0  0
 64146  1  0  0  0
 65147  1  0  0  0
 68 80  1  0  0  0
 71 73  2  0  0  0
 71 74  1  0  0  0
 71148  1  0  0  0
 72 74  2  0  0  0
 72 76  1  0  0  0
 72149  1  0  0  0
 73 75  1  0  0  0
 73 77  1  0  0  0
 74 84  1  0  0  0
 75 76  2  0  0  0
 75 85  1  0  0  0
 76 87  1  0  0  0
 77 83  2  0  0  0
 77150  1  0  0  0
 78 80  1  0  0  0
 78 82  1  0  0  0
 78 86  2  0  0  0
 79151  1  0  0  0
 79152  1  0  0  0
 79153  1  0  0  0
 79 82  1  0  0  0
 80154  1  0  0  0
 80155  1  0  0  0
 81 82  1  0  0  0
 81 85  1  0  0  0
 81156  1  0  0  0
 81157  1  0  0  0
 82 88  1  0  0  0
 83158  1  0  0  0
 84159  1  0  0  0
 85160  1  0  0  0
M  ISO  4   1 100  68 101  80 101  84 100
M  END
> <chiral flag>
0

> <version>
0

> <s_m_source_file>
/data/baiqing/PycharmProjects/Reinvent-master-3.2/result/LINK_invent/BTK/process_docking_weight1_custom_product_contain_oxygen_bond_distance_aromatic_linkinvent_7_9_3/rearranged_h_0167.sdf

> <i_m_source_file_index>
69

> <r_mmod_Potential_Energy-OPLS-2005>
104.226547241211

> <r_mmod_Stretch_Energy-OPLS-2005>
47.0652732849121

> <r_mmod_Bend_Energy-OPLS-2005>
110.515007019043

> <r_mmod_Torsional_Energy-OPLS-2005>
227.733596801758

> <r_mmod_Improper_Torsional_Energy-OPLS-2005>
7.40061521530151

> <r_mmod_Van_der_Waal_Energy-OPLS-2005>
167.598205566406

> <r_mmod_Electrostatic_Energy-OPLS-2005>
-223.41455078125

> <r_mmod_Solvation_Energy-OPLS-2005>
-246.567749023438

> <b_mmod_Minimization_Converged-OPLS-2005>
0

> <r_mmod_RMS_Derivative-OPLS-2005>
0.803649544715881

$$$$
70
                    3D
 Structure written by MMmdl.
162170  0  0  1  0            999 V2000
  -30.7101  -14.4003   20.6292 C   0  0  0  0  0  0
  -30.4213  -12.2916   19.3940 C   0  0  0  0  0  0
  -29.4852  -12.5199   18.1901 C   0  0  0  0  0  0
  -28.0117  -12.3645   18.6129 C   0  0  0  0  0  0
  -27.6631  -13.1954   19.8777 C   0  0  2  0  0  0
  -28.6980  -12.9313   20.9923 C   0  0  0  0  0  0
  -25.2595  -13.8128   20.5651 C   0  0  0  0  0  0
  -24.1841  -13.0426   20.9149 C   0  0  0  0  0  0
  -24.6379  -11.6892   20.8700 C   0  0  0  0  0  0
  -23.9050  -10.4279   21.0383 C   0  0  0  0  0  0
  -24.3611   -9.4193   21.9157 C   0  0  0  0  0  0
  -23.6285   -8.2230   22.0742 C   0  0  0  0  0  0
  -22.4263   -8.0270   21.3527 C   0  0  0  0  0  0
  -21.9890   -9.0247   20.4629 C   0  0  0  0  0  0
  -22.7224  -10.2120   20.3032 C   0  0  0  0  0  0
  -21.6856   -6.0720   22.5269 C   0  0  0  0  0  0
  -21.4009   -6.5619   23.8207 C   0  0  0  0  0  0
  -21.3660   -5.6775   24.9172 C   0  0  0  0  0  0
  -21.6063   -4.3042   24.7223 C   0  0  0  0  0  0
  -21.8823   -3.8128   23.4341 C   0  0  0  0  0  0
  -21.9189   -4.6944   22.3395 C   0  0  0  0  0  0
  -22.7866  -13.5226   21.1855 C   0  0  0  0  0  0
  -22.1654   -4.2128   21.0973 F   0  0  0  0  0  0
  -21.5646   -3.4531   25.7740 F   0  0  0  0  0  0
  -30.0388  -13.2351   20.4539 N   0  0  0  0  0  0
  -26.3018  -12.9286   20.3348 N   0  0  0  0  0  0
  -25.9288  -11.6459   20.5713 N   0  0  0  0  0  0
  -22.0532  -12.8187   22.0405 N   0  0  0  0  0  0
  -25.4303  -15.1843   20.4091 N   0  0  0  0  0  0
  -31.7841  -14.6603   20.0754 O   0  0  0  0  0  0
  -21.6638   -6.8857   21.4227 O   0  0  0  0  0  0
  -22.3524  -14.5533   20.6727 O   0  0  0  0  0  0
  -24.6099  -31.8709   23.2150 C   0  0  0  0  0  0
  -25.9007  -32.4854   23.8433 C   0  0  1  0  0  0
  -27.2265  -27.4517   20.0693 C   0  0  0  0  0  0
  -25.5891  -33.8661   24.2363 N   0  0  0  0  0  0
  -23.3965  -30.4990   21.5568 C   0  0  2  0  0  0
  -24.8388  -28.9779   20.1137 C   0  0  0  0  0  0
  -22.7390  -29.4657   22.5000 C   0  0  0  0  0  0
  -18.0238  -28.1361   22.8489 C   0  0  0  0  0  0
  -24.1478  -36.7329   23.2641 C   0  0  0  0  0  0
  -25.9263  -30.8413   21.3690 C   0  0  0  0  0  0
  -26.0016  -29.4795   20.7108 C   0  0  0  0  0  0
  -27.1944  -28.7208   20.6920 C   0  0  0  0  0  0
  -26.0351  -26.9726   19.4671 C   0  0  0  0  0  0
  -24.8474  -27.7190   19.4970 C   0  0  0  0  0  0
  -23.6028  -29.8446   20.1678 C   0  0  0  0  0  0
  -25.4107  -36.3141   24.0340 C   0  0  1  0  0  0
  -20.5814  -28.3678   23.1338 C   0  0  2  0  0  0
  -20.6681  -26.9366   22.5486 C   0  0  0  0  0  0
  -19.5717  -26.6423   21.5216 C   0  0  0  0  0  0
  -18.1895  -26.7897   22.1644 C   0  0  0  0  0  0
  -19.1472  -28.8854   23.2893 C   0  0  0  0  0  0
  -18.9363  -30.1480   23.8873 C   0  0  0  0  0  0
  -17.6341  -30.6576   24.0539 C   0  0  0  0  0  0
  -25.9038  -34.9504   23.5152 C   0  0  0  0  0  0
  -16.5267  -29.9041   23.6311 C   0  0  0  0  0  0
  -16.7214  -28.6465   23.0350 C   0  0  0  0  0  0
  -26.4437  -31.6621   25.0742 C   0  0  0  0  0  0
  -25.3709  -31.3712   26.1495 C   0  0  0  0  0  0
  -27.0251  -30.3065   24.6087 C   0  0  0  0  0  0
  -27.6005  -32.4349   25.7496 C   0  0  0  0  0  0
  -27.5579  -37.1823   24.8469 C   0  0  0  0  0  0
  -21.4109  -29.3024   22.3734 N   0  0  0  0  0  0
  -26.4302  -37.3814   23.9404 N   0  0  0  0  0  0
  -24.6628  -31.0831   22.1046 N   0  0  0  0  0  0
  -23.4183  -28.8154   23.2974 O   0  0  0  0  0  0
  -28.4051  -26.7195   20.1056 O   0  0  0  0  0  0
  -26.5583  -34.8938   22.4707 O   0  0  0  0  0  0
  -23.5289  -32.1461   23.7541 O   0  0  0  0  0  0
  -26.8654  -18.0438   22.2906 C   0  0  0  0  0  0
  -28.0411  -17.2706   22.3220 C   0  0  0  0  0  0
  -26.7621  -19.1356   21.4102 C   0  0  0  0  0  0
  -29.1231  -17.5823   21.4674 C   0  0  0  0  0  0
  -27.8377  -19.4648   20.5570 C   0  0  0  0  0  0
  -29.0189  -18.6881   20.5894 C   0  0  0  0  0  0
  -28.0510  -24.4627   20.0836 C   0  0  0  0  0  0
  -27.7640  -24.4846   21.5856 C   0  0  0  0  0  0
  -26.4259  -23.2223   18.6014 C   0  0  0  0  0  0
  -30.3799  -16.7209   21.4950 C   0  0  0  0  0  0
  -27.6954  -20.6238   19.5817 C   0  0  0  0  0  0
  -27.7796  -23.1323   19.3504 C   0  0  2  0  0  0
  -28.3727  -25.4934   19.3905 N   0  0  0  0  0  0
  -30.0679  -15.2967   21.3846 N   0  0  0  0  0  0
  -27.8706  -21.9387   20.2405 N   0  3  0  0  0  0
  -30.0462  -19.0018   19.7639 F   0  0  0  0  0  0
  -31.4630  -12.4065   19.0913 H   0  0  0  0  0  0
  -30.3281  -11.2681   19.7602 H   0  0  0  0  0  0
  -29.7246  -11.8209   17.3891 H   0  0  0  0  0  0
  -29.6441  -13.5176   17.7768 H   0  0  0  0  0  0
  -27.8376  -11.3049   18.8078 H   0  0  0  0  0  0
  -27.3491  -12.6314   17.7902 H   0  0  0  0  0  0
  -27.7208  -14.2491   19.6040 H   0  0  0  0  0  0
  -28.6582  -11.8845   21.2982 H   0  0  0  0  0  0
  -28.4479  -13.4941   21.8913 H   0  0  0  0  0  0
  -25.2781   -9.5668   22.4707 H   0  0  0  0  0  0
  -24.0003   -7.4616   22.7453 H   0  0  0  0  0  0
  -21.0834   -8.8774   19.8921 H   0  0  0  0  0  0
  -22.3703  -10.9654   19.6125 H   0  0  0  0  0  0
  -21.1995   -7.6130   23.9706 H   0  0  0  0  0  0
  -21.1481   -6.0501   25.9076 H   0  0  0  0  0  0
  -22.0602   -2.7586   23.2851 H   0  0  0  0  0  0
  -22.4190  -11.9869   22.4799 H   0  0  0  0  0  0
  -21.1124  -13.1127   22.2609 H   0  0  0  0  0  0
  -24.6701  -15.8375   20.5610 H   0  0  0  0  0  0
  -26.3027  -15.6367   20.1662 H   0  0  0  0  0  0
  -26.7090  -32.5535   23.1206 H   0  0  0  0  0  0
  -25.0045  -33.9848   25.0509 H   0  0  0  0  0  0
  -22.6808  -31.3147   21.4265 H   0  0  0  0  0  0
  -23.3747  -35.9659   23.3331 H   0  0  0  0  0  0
  -24.3575  -36.8903   22.2051 H   0  0  0  0  0  0
  -23.7221  -37.6541   23.6634 H   0  0  0  0  0  0
  -26.0408  -31.6133   20.6067 H   0  0  0  0  0  0
  -26.8130  -30.8884   21.9873 H   0  0  0  0  0  0
  -28.0924  -29.1017   21.1570 H   0  0  0  0  0  0
  -25.9889  -26.0210   18.9645 H   0  0  0  0  0  0
  -23.9518  -27.3241   19.0358 H   0  0  0  0  0  0
  -23.7160  -30.6280   19.4178 H   0  0  0  0  0  0
  -22.7253  -29.2716   19.8625 H   0  0  0  0  0  0
  -25.1282  -36.2037   25.0833 H   0  0  0  0  0  0
  -20.9881  -28.3259   24.1476 H   0  0  0  0  0  0
  -20.5379  -26.2273   23.3677 H   0  0  0  0  0  0
  -21.6570  -26.7295   22.1384 H   0  0  0  0  0  0
  -19.6903  -25.6356   21.1152 H   0  0  0  0  0  0
  -19.6614  -27.3260   20.6759 H   0  0  0  0  0  0
  -17.4191  -26.6603   21.4028 H   0  0  0  0  0  0
  -18.0311  -26.0076   22.9099 H   0  0  0  0  0  0
  -19.7804  -30.7327   24.2258 H   0  0  0  0  0  0
  -17.4837  -31.6246   24.5157 H   0  0  0  0  0  0
  -15.5243  -30.2895   23.7613 H   0  0  0  0  0  0
  -15.8632  -28.0756   22.7071 H   0  0  0  0  0  0
  -24.5881  -30.7064   25.7829 H   0  0  0  0  0  0
  -24.8900  -32.2851   26.4989 H   0  0  0  0  0  0
  -25.8066  -30.8846   27.0231 H   0  0  0  0  0  0
  -26.2774  -29.6863   24.1118 H   0  0  0  0  0  0
  -27.4001  -29.7275   25.4539 H   0  0  0  0  0  0
  -27.8634  -30.4402   23.9244 H   0  0  0  0  0  0
  -27.2622  -33.3644   26.2106 H   0  0  0  0  0  0
  -28.3784  -32.6932   25.0297 H   0  0  0  0  0  0
  -28.0710  -31.8459   26.5378 H   0  0  0  0  0  0
  -28.2618  -38.0100   24.7506 H   0  0  0  0  0  0
  -28.1047  -36.2631   24.6316 H   0  0  0  0  0  0
  -27.2291  -37.1503   25.8870 H   0  0  0  0  0  0
  -20.9273  -29.8756   21.6971 H   0  0  0  0  0  0
  -26.0199  -38.2898   24.1412 H   0  0  0  0  0  0
  -26.0404  -17.7956   22.9452 H   0  0  0  0  0  0
  -28.1076  -16.4383   23.0092 H   0  0  0  0  0  0
  -25.8489  -19.7153   21.3918 H   0  0  0  0  0  0
  -28.3398  -23.7232   22.1102 H   0  0  0  0  0  0
  -26.7023  -24.3145   21.7661 H   0  0  0  0  0  0
  -28.0298  -25.4339   22.0470 H   0  0  0  0  0  0
  -26.2292  -22.3500   17.9813 H   0  0  0  0  0  0
  -26.4118  -24.0694   17.9145 H   0  0  0  0  0  0
  -25.5900  -23.3474   19.2917 H   0  0  0  0  0  0
  -30.9041  -16.8971   22.4358 H   0  0  0  0  0  0
  -31.0595  -17.0313   20.6990 H   0  0  0  0  0  0
  -26.6993  -20.5481   19.1440 H   0  0  0  0  0  0
  -28.4090  -20.5168   18.7639 H   0  0  0  0  0  0
  -28.5658  -23.0221   18.6007 H   0  0  0  0  0  0
  -29.2026  -14.9886   21.7996 H   0  0  0  0  0  0
  -28.7807  -21.9368   20.6713 H   0  0  0  0  0  0
  -27.1866  -22.0161   20.9745 H   0  0  0  0  0  0
  1 25  1  0  0  0
  1 30  2  0  0  0
  1 84  1  0  0  0
  2  3  1  0  0  0
  2 25  1  0  0  0
  2 87  1  0  0  0
  2 88  1  0  0  0
  3  4  1  0  0  0
  3 89  1  0  0  0
  3 90  1  0  0  0
  4  5  1  0  0  0
  4 91  1  0  0  0
  4 92  1  0  0  0
  5  6  1  0  0  0
  5 26  1  0  0  0
  5 93  1  0  0  0
  6 25  1  0  0  0
  6 94  1  0  0  0
  6 95  1  0  0  0
  7  8  2  0  0  0
  7 26  1  0  0  0
  7 29  1  0  0  0
  8  9  1  0  0  0
  8 22  1  0  0  0
  9 10  1  0  0  0
  9 27  2  0  0  0
 10 11  2  0  0  0
 10 15  1  0  0  0
 11 12  1  0  0  0
 11 96  1  0  0  0
 12 13  2  0  0  0
 12 97  1  0  0  0
 13 14  1  0  0  0
 13 31  1  0  0  0
 14 15  2  0  0  0
 14 98  1  0  0  0
 15 99  1  0  0  0
 16 17  2  0  0  0
 16 21  1  0  0  0
 16 31  1  0  0  0
 17 18  1  0  0  0
 17100  1  0  0  0
 18 19  2  0  0  0
 18101  1  0  0  0
 19 20  1  0  0  0
 19 24  1  0  0  0
 20 21  2  0  0  0
 20102  1  0  0  0
 21 23  1  0  0  0
 22 28  1  0  0  0
 22 32  2  0  0  0
 26 27  1  0  0  0
 28103  1  0  0  0
 28104  1  0  0  0
 29105  1  0  0  0
 29106  1  0  0  0
 33 34  1  0  0  0
 33 66  1  0  0  0
 33 70  2  0  0  0
 34 36  1  0  0  0
 34 59  1  0  0  0
 34107  1  0  0  0
 35 44  2  0  0  0
 35 45  1  0  0  0
 35 68  1  0  0  0
 36 56  1  0  0  0
 36108  1  0  0  0
 37 39  1  0  0  0
 37 47  1  0  0  0
 37 66  1  0  0  0
 37109  1  0  0  0
 38 43  2  0  0  0
 38 46  1  0  0  0
 38 47  1  0  0  0
 39 64  1  0  0  0
 39 67  2  0  0  0
 40 52  1  0  0  0
 40 53  2  0  0  0
 40 58  1  0  0  0
 41110  1  0  0  0
 41111  1  0  0  0
 41112  1  0  0  0
 41 48  1  0  0  0
 42 43  1  0  0  0
 42 66  1  0  0  0
 42113  1  0  0  0
 42114  1  0  0  0
 43 44  1  0  0  0
 44115  1  0  0  0
 45 46  2  0  0  0
 45116  1  0  0  0
 46117  1  0  0  0
 47118  1  0  0  0
 47119  1  0  0  0
 48 56  1  0  0  0
 48 65  1  0  0  0
 48120  1  0  0  0
 49 50  1  0  0  0
 49 53  1  0  0  0
 49 64  1  0  0  0
 49121  1  0  0  0
 50 51  1  0  0  0
 50122  1  0  0  0
 50123  1  0  0  0
 51 52  1  0  0  0
 51124  1  0  0  0
 51125  1  0  0  0
 52126  1  0  0  0
 52127  1  0  0  0
 53 54  1  0  0  0
 54 55  2  0  0  0
 54128  1  0  0  0
 55 57  1  0  0  0
 55129  1  0  0  0
 56 69  2  0  0  0
 57 58  2  0  0  0
 57130  1  0  0  0
 58131  1  0  0  0
 59 60  1  0  0  0
 59 61  1  0  0  0
 59 62  1  0  0  0
 60132  1  0  0  0
 60133  1  0  0  0
 60134  1  0  0  0
 61135  1  0  0  0
 61136  1  0  0  0
 61137  1  0  0  0
 62138  1  0  0  0
 62139  1  0  0  0
 62140  1  0  0  0
 63 65  1  0  0  0
 63141  1  0  0  0
 63142  1  0  0  0
 63143  1  0  0  0
 64144  1  0  0  0
 65145  1  0  0  0
 68 83  1  0  0  0
 71 72  2  0  0  0
 71 73  1  0  0  0
 71146  1  0  0  0
 72 74  1  0  0  0
 72147  1  0  0  0
 73 75  2  0  0  0
 73148  1  0  0  0
 74 76  2  0  0  0
 74 80  1  0  0  0
 75 76  1  0  0  0
 75 81  1  0  0  0
 76 86  1  0  0  0
 77 78  1  0  0  0
 77 82  1  0  0  0
 77 83  2  0  0  0
 78149  1  0  0  0
 78150  1  0  0  0
 78151  1  0  0  0
 79152  1  0  0  0
 79153  1  0  0  0
 79154  1  0  0  0
 79 82  1  0  0  0
 80 84  1  0  0  0
 80155  1  0  0  0
 80156  1  0  0  0
 81 85  1  0  0  0
 81157  1  0  0  0
 81158  1  0  0  0
 82 85  1  0  0  0
 82159  1  0  0  0
 84160  1  0  0  0
 85161  1  0  0  0
 85162  1  0  0  0
M  CHG  1  85   1
M  ISO  4   1 100  68 101  83 101  84 100
M  END
> <chiral flag>
0

> <version>
0

> <s_m_source_file>
/data/baiqing/PycharmProjects/Reinvent-master-3.2/result/LINK_invent/BTK/process_docking_weight1_custom_product_contain_oxygen_bond_distance_aromatic_linkinvent_7_9_3/rearranged_h_0167.sdf

> <i_m_source_file_index>
70

> <r_mmod_Potential_Energy-OPLS-2005>
-352.323181152344

> <r_mmod_Stretch_Energy-OPLS-2005>
37.4252166748047

> <r_mmod_Bend_Energy-OPLS-2005>
96.3716125488281

> <r_mmod_Torsional_Energy-OPLS-2005>
203.326461791992

> <r_mmod_Improper_Torsional_Energy-OPLS-2005>
3.78782176971436

> <r_mmod_Van_der_Waal_Energy-OPLS-2005>
167.650604248047

> <r_mmod_Electrostatic_Energy-OPLS-2005>
-388.254364013672

> <r_mmod_Solvation_Energy-OPLS-2005>
-482.066192626953

> <b_mmod_Minimization_Converged-OPLS-2005>
0

> <r_mmod_RMS_Derivative-OPLS-2005>
3.2059223651886

$$$$
71
                    3D
 Structure written by MMmdl.
155163  0  0  1  0            999 V2000
  -30.7060  -14.4622   20.5716 C   0  0  0  0  0  0
  -30.4185  -12.2973   19.4273 C   0  0  0  0  0  0
  -29.4965  -12.5056   18.2086 C   0  0  0  0  0  0
  -28.0153  -12.3693   18.6150 C   0  0  0  0  0  0
  -27.6609  -13.2056   19.8740 C   0  0  2  0  0  0
  -28.7004  -12.9863   20.9972 C   0  0  0  0  0  0
  -25.2580  -13.8156   20.5664 C   0  0  0  0  0  0
  -24.1834  -13.0443   20.9174 C   0  0  0  0  0  0
  -24.6380  -11.6906   20.8721 C   0  0  0  0  0  0
  -23.9041  -10.4291   21.0383 C   0  0  0  0  0  0
  -24.3601   -9.4217   21.9170 C   0  0  0  0  0  0
  -23.6287   -8.2245   22.0752 C   0  0  0  0  0  0
  -22.4269   -8.0269   21.3542 C   0  0  0  0  0  0
  -21.9890   -9.0239   20.4646 C   0  0  0  0  0  0
  -22.7206  -10.2126   20.3047 C   0  0  0  0  0  0
  -21.6851   -6.0725   22.5276 C   0  0  0  0  0  0
  -21.4014   -6.5633   23.8211 C   0  0  0  0  0  0
  -21.3661   -5.6790   24.9174 C   0  0  0  0  0  0
  -21.6051   -4.3051   24.7221 C   0  0  0  0  0  0
  -21.8818   -3.8139   23.4344 C   0  0  0  0  0  0
  -21.9193   -4.6955   22.3401 C   0  0  0  0  0  0
  -22.7858  -13.5244   21.1836 C   0  0  0  0  0  0
  -22.1662   -4.2141   21.0978 F   0  0  0  0  0  0
  -21.5633   -3.4539   25.7735 F   0  0  0  0  0  0
  -30.0342  -13.2846   20.4479 N   0  0  0  0  0  0
  -26.3008  -12.9321   20.3342 N   0  0  0  0  0  0
  -25.9307  -11.6481   20.5745 N   0  0  0  0  0  0
  -22.0496  -12.8253   22.0393 N   0  0  0  0  0  0
  -25.4314  -15.1871   20.4061 N   0  0  0  0  0  0
  -31.8371  -14.6226   20.1026 O   0  0  0  0  0  0
  -21.6641   -6.8866   21.4234 O   0  0  0  0  0  0
  -22.3552  -14.5553   20.6686 O   0  0  0  0  0  0
  -24.6125  -31.8693   23.2109 C   0  0  0  0  0  0
  -25.9027  -32.4823   23.8408 C   0  0  1  0  0  0
  -27.2411  -27.4407   20.0842 C   0  0  0  0  0  0
  -25.5888  -33.8627   24.2329 N   0  0  0  0  0  0
  -23.4004  -30.4921   21.5512 C   0  0  2  0  0  0
  -24.8464  -28.9557   20.1179 C   0  0  0  0  0  0
  -22.7392  -29.4666   22.4998 C   0  0  0  0  0  0
  -18.0268  -28.1369   22.8490 C   0  0  0  0  0  0
  -24.1488  -36.7329   23.2637 C   0  0  0  0  0  0
  -25.9301  -30.8293   21.3701 C   0  0  0  0  0  0
  -26.0049  -29.4647   20.7159 C   0  0  0  0  0  0
  -27.1993  -28.7104   20.7040 C   0  0  0  0  0  0
  -26.0550  -26.9357   19.4997 C   0  0  0  0  0  0
  -24.8651  -27.6876   19.5122 C   0  0  0  0  0  0
  -23.6100  -29.8225   20.1667 C   0  0  0  0  0  0
  -25.4108  -36.3119   24.0329 C   0  0  1  0  0  0
  -20.5854  -28.3650   23.1319 C   0  0  2  0  0  0
  -20.6755  -26.9387   22.5417 C   0  0  0  0  0  0
  -19.5738  -26.6373   21.5208 C   0  0  0  0  0  0
  -18.1915  -26.7921   22.1618 C   0  0  0  0  0  0
  -19.1516  -28.8825   23.2905 C   0  0  0  0  0  0
  -18.9444  -30.1434   23.8913 C   0  0  0  0  0  0
  -17.6448  -30.6584   24.0552 C   0  0  0  0  0  0
  -25.9029  -34.9481   23.5126 C   0  0  0  0  0  0
  -16.5338  -29.9076   23.6330 C   0  0  0  0  0  0
  -16.7255  -28.6488   23.0351 C   0  0  0  0  0  0
  -26.4449  -31.6606   25.0755 C   0  0  0  0  0  0
  -25.3714  -31.3736   26.1507 C   0  0  0  0  0  0
  -27.0268  -30.3031   24.6168 C   0  0  0  0  0  0
  -27.6031  -32.4325   25.7514 C   0  0  0  0  0  0
  -27.5586  -37.1813   24.8447 C   0  0  0  0  0  0
  -21.4122  -29.3023   22.3733 N   0  0  0  0  0  0
  -26.4296  -37.3792   23.9395 N   0  0  0  0  0  0
  -24.6648  -31.0790   22.1013 N   0  0  0  0  0  0
  -23.4168  -28.8221   23.3046 O   0  0  0  0  0  0
  -28.4392  -26.7518   20.0800 O   0  0  0  0  0  0
  -26.5605  -34.8924   22.4697 O   0  0  0  0  0  0
  -23.5320  -32.1466   23.7487 O   0  0  0  0  0  0
  -29.1359  -17.7375   21.2299 C   0  0  0  0  0  0
  -30.4422  -19.6340   20.8677 C   0  0  0  0  0  0
  -30.2444  -16.8750   21.0374 C   0  0  0  0  0  0
  -31.5689  -18.7669   20.6914 C   0  0  0  0  0  0
  -30.5445  -21.1429   20.8024 C   0  0  0  0  0  0
  -29.2498  -21.9633   20.6009 C   0  0  0  0  0  0
  -29.5210  -23.4387   20.1919 C   0  0  0  0  0  0
  -28.2708  -24.2736   19.8274 C   0  0  0  0  0  0
  -28.6149  -25.6436   19.1905 C   0  0  0  0  0  0
  -29.2241  -19.0903   21.1395 N   0  0  0  0  0  0
  -31.4617  -17.4213   20.7764 N   0  0  0  0  0  0
  -32.8622  -19.1889   20.3925 N   0  0  0  0  0  0
  -29.9972  -15.4699   21.1188 N   0  0  0  0  0  0
  -31.6154  -21.7574   20.8977 O   0  0  0  0  0  0
  -31.4652  -12.3832   19.1302 H   0  0  0  0  0  0
  -30.3082  -11.2865   19.8238 H   0  0  0  0  0  0
  -29.7383  -11.7851   17.4262 H   0  0  0  0  0  0
  -29.6693  -13.4934   17.7789 H   0  0  0  0  0  0
  -27.8204  -11.3135   18.8061 H   0  0  0  0  0  0
  -27.3691  -12.6506   17.7819 H   0  0  0  0  0  0
  -27.7041  -14.2537   19.5770 H   0  0  0  0  0  0
  -28.6720  -11.9522   21.3425 H   0  0  0  0  0  0
  -28.4609  -13.5879   21.8747 H   0  0  0  0  0  0
  -25.2747   -9.5709   22.4740 H   0  0  0  0  0  0
  -24.0007   -7.4640   22.7474 H   0  0  0  0  0  0
  -21.0821   -8.8742   19.8956 H   0  0  0  0  0  0
  -22.3646  -10.9658   19.6159 H   0  0  0  0  0  0
  -21.2003   -7.6143   23.9709 H   0  0  0  0  0  0
  -21.1490   -6.0522   25.9082 H   0  0  0  0  0  0
  -22.0598   -2.7599   23.2841 H   0  0  0  0  0  0
  -22.4098  -11.9921   22.4805 H   0  0  0  0  0  0
  -21.1117  -13.1290   22.2591 H   0  0  0  0  0  0
  -24.6613  -15.8389   20.5050 H   0  0  0  0  0  0
  -26.2713  -15.6199   20.0445 H   0  0  0  0  0  0
  -26.7109  -32.5521   23.1179 H   0  0  0  0  0  0
  -25.0016  -33.9789   25.0460 H   0  0  0  0  0  0
  -22.6905  -31.3095   21.4106 H   0  0  0  0  0  0
  -23.3740  -35.9673   23.3307 H   0  0  0  0  0  0
  -24.3592  -36.8955   22.2054 H   0  0  0  0  0  0
  -23.7252  -37.6535   23.6660 H   0  0  0  0  0  0
  -26.0561  -31.5969   20.6055 H   0  0  0  0  0  0
  -26.8117  -30.8737   21.9981 H   0  0  0  0  0  0
  -28.0961  -29.1039   21.1624 H   0  0  0  0  0  0
  -26.0262  -25.9622   19.0340 H   0  0  0  0  0  0
  -23.9718  -27.2848   19.0542 H   0  0  0  0  0  0
  -23.7220  -30.5960   19.4068 H   0  0  0  0  0  0
  -22.7349  -29.2426   19.8684 H   0  0  0  0  0  0
  -25.1293  -36.1984   25.0824 H   0  0  0  0  0  0
  -20.9938  -28.3200   24.1442 H   0  0  0  0  0  0
  -20.5638  -26.2252   23.3596 H   0  0  0  0  0  0
  -21.6627  -26.7433   22.1216 H   0  0  0  0  0  0
  -19.6892  -25.6279   21.1240 H   0  0  0  0  0  0
  -19.6683  -27.3174   20.6728 H   0  0  0  0  0  0
  -17.4186  -26.6658   21.4025 H   0  0  0  0  0  0
  -18.0327  -26.0062   22.9013 H   0  0  0  0  0  0
  -19.7922  -30.7231   24.2301 H   0  0  0  0  0  0
  -17.5009  -31.6272   24.5132 H   0  0  0  0  0  0
  -15.5339  -30.2975   23.7656 H   0  0  0  0  0  0
  -15.8656  -28.0808   22.7065 H   0  0  0  0  0  0
  -24.5867  -30.7103   25.7851 H   0  0  0  0  0  0
  -24.8931  -32.2904   26.4965 H   0  0  0  0  0  0
  -25.8062  -30.8900   27.0263 H   0  0  0  0  0  0
  -26.2831  -29.6823   24.1155 H   0  0  0  0  0  0
  -27.3926  -29.7246   25.4662 H   0  0  0  0  0  0
  -27.8724  -30.4325   23.9410 H   0  0  0  0  0  0
  -27.2647  -33.3600   26.2142 H   0  0  0  0  0  0
  -28.3811  -32.6917   25.0326 H   0  0  0  0  0  0
  -28.0729  -31.8428   26.5393 H   0  0  0  0  0  0
  -28.2581  -38.0125   24.7509 H   0  0  0  0  0  0
  -28.1105  -36.2658   24.6254 H   0  0  0  0  0  0
  -27.2321  -37.1455   25.8853 H   0  0  0  0  0  0
  -20.9265  -29.8763   21.6978 H   0  0  0  0  0  0
  -26.0192  -38.2878   24.1378 H   0  0  0  0  0  0
  -28.1541  -17.3389   21.4428 H   0  0  0  0  0  0
  -28.6621  -21.9272   21.5187 H   0  0  0  0  0  0
  -28.6596  -21.4680   19.8311 H   0  0  0  0  0  0
  -30.1912  -23.4337   19.3303 H   0  0  0  0  0  0
  -30.0639  -23.9472   20.9903 H   0  0  0  0  0  0
  -27.6307  -24.4138   20.7001 H   0  0  0  0  0  0
  -27.6765  -23.7066   19.1094 H   0  0  0  0  0  0
  -29.6610  -25.6497   18.8847 H   0  0  0  0  0  0
  -28.0733  -25.7903   18.2558 H   0  0  0  0  0  0
  -33.0955  -20.1753   20.4695 H   0  0  0  0  0  0
  -33.6449  -18.5471   20.4493 H   0  0  0  0  0  0
  -29.0872  -15.2057   21.4622 H   0  0  0  0  0  0
  1 25  1  0  0  0
  1 30  2  0  0  0
  1 83  1  0  0  0
  2  3  1  0  0  0
  2 25  1  0  0  0
  2 85  1  0  0  0
  2 86  1  0  0  0
  3  4  1  0  0  0
  3 87  1  0  0  0
  3 88  1  0  0  0
  4  5  1  0  0  0
  4 89  1  0  0  0
  4 90  1  0  0  0
  5  6  1  0  0  0
  5 26  1  0  0  0
  5 91  1  0  0  0
  6 25  1  0  0  0
  6 92  1  0  0  0
  6 93  1  0  0  0
  7  8  2  0  0  0
  7 26  1  0  0  0
  7 29  1  0  0  0
  8  9  1  0  0  0
  8 22  1  0  0  0
  9 10  1  0  0  0
  9 27  2  0  0  0
 10 11  2  0  0  0
 10 15  1  0  0  0
 11 12  1  0  0  0
 11 94  1  0  0  0
 12 13  2  0  0  0
 12 95  1  0  0  0
 13 14  1  0  0  0
 13 31  1  0  0  0
 14 15  2  0  0  0
 14 96  1  0  0  0
 15 97  1  0  0  0
 16 17  2  0  0  0
 16 21  1  0  0  0
 16 31  1  0  0  0
 17 18  1  0  0  0
 17 98  1  0  0  0
 18 19  2  0  0  0
 18 99  1  0  0  0
 19 20  1  0  0  0
 19 24  1  0  0  0
 20 21  2  0  0  0
 20100  1  0  0  0
 21 23  1  0  0  0
 22 28  1  0  0  0
 22 32  2  0  0  0
 26 27  1  0  0  0
 28101  1  0  0  0
 28102  1  0  0  0
 29103  1  0  0  0
 29104  1  0  0  0
 33 34  1  0  0  0
 33 66  1  0  0  0
 33 70  2  0  0  0
 34 36  1  0  0  0
 34 59  1  0  0  0
 34105  1  0  0  0
 35 44  2  0  0  0
 35 45  1  0  0  0
 35 68  1  0  0  0
 36 56  1  0  0  0
 36106  1  0  0  0
 37 39  1  0  0  0
 37 47  1  0  0  0
 37 66  1  0  0  0
 37107  1  0  0  0
 38 43  2  0  0  0
 38 46  1  0  0  0
 38 47  1  0  0  0
 39 64  1  0  0  0
 39 67  2  0  0  0
 40 52  1  0  0  0
 40 53  2  0  0  0
 40 58  1  0  0  0
 41108  1  0  0  0
 41109  1  0  0  0
 41110  1  0  0  0
 41 48  1  0  0  0
 42 43  1  0  0  0
 42 66  1  0  0  0
 42111  1  0  0  0
 42112  1  0  0  0
 43 44  1  0  0  0
 44113  1  0  0  0
 45 46  2  0  0  0
 45114  1  0  0  0
 46115  1  0  0  0
 47116  1  0  0  0
 47117  1  0  0  0
 48 56  1  0  0  0
 48 65  1  0  0  0
 48118  1  0  0  0
 49 50  1  0  0  0
 49 53  1  0  0  0
 49 64  1  0  0  0
 49119  1  0  0  0
 50 51  1  0  0  0
 50120  1  0  0  0
 50121  1  0  0  0
 51 52  1  0  0  0
 51122  1  0  0  0
 51123  1  0  0  0
 52124  1  0  0  0
 52125  1  0  0  0
 53 54  1  0  0  0
 54 55  2  0  0  0
 54126  1  0  0  0
 55 57  1  0  0  0
 55127  1  0  0  0
 56 69  2  0  0  0
 57 58  2  0  0  0
 57128  1  0  0  0
 58129  1  0  0  0
 59 60  1  0  0  0
 59 61  1  0  0  0
 59 62  1  0  0  0
 60130  1  0  0  0
 60131  1  0  0  0
 60132  1  0  0  0
 61133  1  0  0  0
 61134  1  0  0  0
 61135  1  0  0  0
 62136  1  0  0  0
 62137  1  0  0  0
 62138  1  0  0  0
 63 65  1  0  0  0
 63139  1  0  0  0
 63140  1  0  0  0
 63141  1  0  0  0
 64142  1  0  0  0
 65143  1  0  0  0
 68 79  1  0  0  0
 71 73  2  0  0  0
 71 80  1  0  0  0
 71144  1  0  0  0
 72 74  1  0  0  0
 72 75  1  0  0  0
 72 80  2  0  0  0
 73 81  1  0  0  0
 73 83  1  0  0  0
 74 81  2  0  0  0
 74 82  1  0  0  0
 75 76  1  0  0  0
 75 84  2  0  0  0
 76 77  1  0  0  0
 76145  1  0  0  0
 76146  1  0  0  0
 77 78  1  0  0  0
 77147  1  0  0  0
 77148  1  0  0  0
 78 79  1  0  0  0
 78149  1  0  0  0
 78150  1  0  0  0
 79151  1  0  0  0
 79152  1  0  0  0
 82153  1  0  0  0
 82154  1  0  0  0
 83155  1  0  0  0
M  ISO  4   1 100  68 101  79 101  83 100
M  END
> <chiral flag>
0

> <version>
0

> <s_m_source_file>
/data/baiqing/PycharmProjects/Reinvent-master-3.2/result/LINK_invent/BTK/process_docking_weight1_custom_product_contain_oxygen_bond_distance_aromatic_linkinvent_7_9_3/rearranged_h_0167.sdf

> <i_m_source_file_index>
71

> <r_mmod_Potential_Energy-OPLS-2005>
73.6867980957031

> <r_mmod_Stretch_Energy-OPLS-2005>
42.7251586914062

> <r_mmod_Bend_Energy-OPLS-2005>
112.788642883301

> <r_mmod_Torsional_Energy-OPLS-2005>
208.535354614258

> <r_mmod_Improper_Torsional_Energy-OPLS-2005>
5.07274389266968

> <r_mmod_Van_der_Waal_Energy-OPLS-2005>
168.581085205078

> <r_mmod_Electrostatic_Energy-OPLS-2005>
-233.534210205078

> <r_mmod_Solvation_Energy-OPLS-2005>
-242.585067749023

> <b_mmod_Minimization_Converged-OPLS-2005>
0

> <r_mmod_RMS_Derivative-OPLS-2005>
1.6852091550827

$$$$
72
                    3D
 Structure written by MMmdl.
152160  0  0  1  0            999 V2000
  -30.7086  -14.5170   20.5151 C   0  0  0  0  0  0
  -30.4213  -12.3195   19.4348 C   0  0  0  0  0  0
  -29.4963  -12.4812   18.2112 C   0  0  0  0  0  0
  -28.0193  -12.3408   18.6286 C   0  0  0  0  0  0
  -27.6567  -13.2106   19.8625 C   0  0  2  0  0  0
  -28.7038  -13.0521   20.9896 C   0  0  0  0  0  0
  -25.2591  -13.8168   20.5677 C   0  0  0  0  0  0
  -24.1848  -13.0443   20.9190 C   0  0  0  0  0  0
  -24.6395  -11.6908   20.8743 C   0  0  0  0  0  0
  -23.9061  -10.4292   21.0409 C   0  0  0  0  0  0
  -24.3613   -9.4210   21.9188 C   0  0  0  0  0  0
  -23.6291   -8.2248   22.0758 C   0  0  0  0  0  0
  -22.4276   -8.0274   21.3543 C   0  0  0  0  0  0
  -21.9909   -9.0255   20.4651 C   0  0  0  0  0  0
  -22.7236  -10.2136   20.3059 C   0  0  0  0  0  0
  -21.6858   -6.0733   22.5284 C   0  0  0  0  0  0
  -21.4014   -6.5639   23.8212 C   0  0  0  0  0  0
  -21.3654   -5.6793   24.9174 C   0  0  0  0  0  0
  -21.6044   -4.3055   24.7229 C   0  0  0  0  0  0
  -21.8820   -3.8146   23.4350 C   0  0  0  0  0  0
  -21.9191   -4.6962   22.3404 C   0  0  0  0  0  0
  -22.7861  -13.5240   21.1844 C   0  0  0  0  0  0
  -22.1664   -4.2143   21.0983 F   0  0  0  0  0  0
  -21.5625   -3.4537   25.7742 F   0  0  0  0  0  0
  -30.0290  -13.3408   20.4199 N   0  0  0  0  0  0
  -26.3012  -12.9346   20.3325 N   0  0  0  0  0  0
  -25.9322  -11.6507   20.5775 N   0  0  0  0  0  0
  -22.0493  -12.8238   22.0397 N   0  0  0  0  0  0
  -25.4308  -15.1886   20.4065 N   0  0  0  0  0  0
  -31.8689  -14.6344   20.1165 O   0  0  0  0  0  0
  -21.6637   -6.8872   21.4240 O   0  0  0  0  0  0
  -22.3558  -14.5553   20.6688 O   0  0  0  0  0  0
  -24.6158  -31.8685   23.2094 C   0  0  0  0  0  0
  -25.9036  -32.4838   23.8398 C   0  0  1  0  0  0
  -27.2383  -27.4132   20.0878 C   0  0  0  0  0  0
  -25.5888  -33.8637   24.2341 N   0  0  0  0  0  0
  -23.4061  -30.4923   21.5496 C   0  0  2  0  0  0
  -24.8516  -28.9583   20.1127 C   0  0  0  0  0  0
  -22.7433  -29.4659   22.4970 C   0  0  0  0  0  0
  -18.0293  -28.1389   22.8497 C   0  0  0  0  0  0
  -24.1476  -36.7316   23.2641 C   0  0  0  0  0  0
  -25.9369  -30.8272   21.3661 C   0  0  0  0  0  0
  -26.0136  -29.4596   20.7117 C   0  0  0  0  0  0
  -27.2058  -28.6928   20.6992 C   0  0  0  0  0  0
  -26.0472  -26.9347   19.4874 C   0  0  0  0  0  0
  -24.8647  -27.6962   19.4990 C   0  0  0  0  0  0
  -23.6166  -29.8290   20.1631 C   0  0  0  0  0  0
  -25.4102  -36.3130   24.0349 C   0  0  1  0  0  0
  -20.5880  -28.3680   23.1311 C   0  0  2  0  0  0
  -20.6770  -26.9413   22.5412 C   0  0  0  0  0  0
  -19.5750  -26.6398   21.5211 C   0  0  0  0  0  0
  -18.1937  -26.7939   22.1629 C   0  0  0  0  0  0
  -19.1542  -28.8847   23.2905 C   0  0  0  0  0  0
  -18.9461  -30.1449   23.8917 C   0  0  0  0  0  0
  -17.6460  -30.6586   24.0567 C   0  0  0  0  0  0
  -25.9030  -34.9488   23.5141 C   0  0  0  0  0  0
  -16.5355  -29.9088   23.6319 C   0  0  0  0  0  0
  -16.7278  -28.6508   23.0339 C   0  0  0  0  0  0
  -26.4453  -31.6616   25.0724 C   0  0  0  0  0  0
  -25.3731  -31.3717   26.1481 C   0  0  0  0  0  0
  -27.0290  -30.3074   24.6080 C   0  0  0  0  0  0
  -27.6044  -32.4317   25.7488 C   0  0  0  0  0  0
  -27.5587  -37.1823   24.8476 C   0  0  0  0  0  0
  -21.4158  -29.3048   22.3712 N   0  0  0  0  0  0
  -26.4297  -37.3814   23.9419 N   0  0  0  0  0  0
  -24.6719  -31.0768   22.1001 N   0  0  0  0  0  0
  -23.4195  -28.8200   23.3021 O   0  0  0  0  0  0
  -28.4077  -26.6641   20.1180 O   0  0  0  0  0  0
  -26.5593  -34.8940   22.4701 O   0  0  0  0  0  0
  -23.5334  -32.1438   23.7471 O   0  0  0  0  0  0
  -29.4982  -18.0247   20.4741 C   0  0  0  0  0  0
  -31.7370  -17.3719   21.0766 C   0  0  0  0  0  0
  -29.9430  -19.3727   20.3902 C   0  0  0  0  0  0
  -30.4069  -16.9858   20.8018 C   0  0  0  0  0  0
  -31.3078  -19.6134   20.6519 C   0  0  0  0  0  0
  -28.4140  -25.3782   19.6055 C   0  0  0  0  0  0
  -28.8236  -24.2720   20.2783 C   0  0  0  0  0  0
  -28.7105  -22.9506   19.6282 C   0  0  0  0  0  0
  -28.9628  -20.4781   19.9292 C   0  0  0  0  0  0
  -32.1760  -18.6434   21.0037 N   0  0  0  0  0  0
  -29.9803  -15.6074   20.8585 N   0  0  0  0  0  0
  -29.1927  -21.8914   20.3256 N   0  0  0  0  0  0
  -28.1734  -22.7839   18.5310 O   0  0  0  0  0  0
  -29.2897  -24.3845   21.5332 O   0  0  0  0  0  0
  -31.8024  -20.8688   20.5478 F   0  0  0  0  0  0
  -31.4662  -12.4018   19.1312 H   0  0  0  0  0  0
  -30.3164  -11.3227   19.8665 H   0  0  0  0  0  0
  -29.7417  -11.7350   17.4541 H   0  0  0  0  0  0
  -29.6594  -13.4540   17.7458 H   0  0  0  0  0  0
  -27.8429  -11.2885   18.8543 H   0  0  0  0  0  0
  -27.3648  -12.5813   17.7898 H   0  0  0  0  0  0
  -27.6828  -14.2467   19.5262 H   0  0  0  0  0  0
  -28.6876  -12.0366   21.3890 H   0  0  0  0  0  0
  -28.4718  -13.7059   21.8318 H   0  0  0  0  0  0
  -25.2757   -9.5685   22.4761 H   0  0  0  0  0  0
  -23.9997   -7.4638   22.7477 H   0  0  0  0  0  0
  -21.0839   -8.8770   19.8956 H   0  0  0  0  0  0
  -22.3693  -10.9669   19.6164 H   0  0  0  0  0  0
  -21.2011   -7.6145   23.9715 H   0  0  0  0  0  0
  -21.1476   -6.0522   25.9077 H   0  0  0  0  0  0
  -22.0603   -2.7606   23.2854 H   0  0  0  0  0  0
  -22.4103  -11.9896   22.4782 H   0  0  0  0  0  0
  -21.1107  -13.1268   22.2581 H   0  0  0  0  0  0
  -24.6616  -15.8414   20.5097 H   0  0  0  0  0  0
  -26.2715  -15.6226   20.0496 H   0  0  0  0  0  0
  -26.7105  -32.5563   23.1165 H   0  0  0  0  0  0
  -25.0053  -33.9783   25.0496 H   0  0  0  0  0  0
  -22.6970  -31.3102   21.4097 H   0  0  0  0  0  0
  -23.3748  -35.9643   23.3313 H   0  0  0  0  0  0
  -24.3570  -36.8909   22.2054 H   0  0  0  0  0  0
  -23.7219  -37.6522   23.6632 H   0  0  0  0  0  0
  -26.0495  -31.5911   20.5948 H   0  0  0  0  0  0
  -26.8243  -30.8843   21.9843 H   0  0  0  0  0  0
  -28.1010  -29.0764   21.1689 H   0  0  0  0  0  0
  -26.0021  -25.9672   19.0112 H   0  0  0  0  0  0
  -23.9706  -27.3043   19.0345 H   0  0  0  0  0  0
  -23.7336  -30.6039   19.4058 H   0  0  0  0  0  0
  -22.7394  -29.2533   19.8615 H   0  0  0  0  0  0
  -25.1280  -36.2003   25.0848 H   0  0  0  0  0  0
  -20.9984  -28.3229   24.1425 H   0  0  0  0  0  0
  -20.5667  -26.2288   23.3597 H   0  0  0  0  0  0
  -21.6642  -26.7449   22.1211 H   0  0  0  0  0  0
  -19.6895  -25.6315   21.1221 H   0  0  0  0  0  0
  -19.6675  -27.3218   20.6744 H   0  0  0  0  0  0
  -17.4208  -26.6704   21.4026 H   0  0  0  0  0  0
  -18.0327  -26.0075   22.9015 H   0  0  0  0  0  0
  -19.7931  -30.7269   24.2288 H   0  0  0  0  0  0
  -17.5015  -31.6263   24.5180 H   0  0  0  0  0  0
  -15.5360  -30.2991   23.7626 H   0  0  0  0  0  0
  -15.8690  -28.0829   22.7025 H   0  0  0  0  0  0
  -24.5902  -30.7055   25.7834 H   0  0  0  0  0  0
  -24.8911  -32.2862   26.4935 H   0  0  0  0  0  0
  -25.8094  -30.8897   27.0238 H   0  0  0  0  0  0
  -26.2831  -29.6838   24.1138 H   0  0  0  0  0  0
  -27.4093  -29.7298   25.4511 H   0  0  0  0  0  0
  -27.8633  -30.4422   23.9204 H   0  0  0  0  0  0
  -27.2675  -33.3613   26.2084 H   0  0  0  0  0  0
  -28.3838  -32.6876   25.0302 H   0  0  0  0  0  0
  -28.0712  -31.8421   26.5384 H   0  0  0  0  0  0
  -28.2632  -38.0097   24.7522 H   0  0  0  0  0  0
  -28.1058  -36.2639   24.6305 H   0  0  0  0  0  0
  -27.2308  -37.1478   25.8879 H   0  0  0  0  0  0
  -20.9310  -29.8792   21.6959 H   0  0  0  0  0  0
  -26.0188  -38.2897   24.1409 H   0  0  0  0  0  0
  -28.4673  -17.7861   20.2568 H   0  0  0  0  0  0
  -32.4848  -16.6547   21.3791 H   0  0  0  0  0  0
  -28.0490  -25.3486   18.5875 H   0  0  0  0  0  0
  -27.9603  -20.2085   20.2684 H   0  0  0  0  0  0
  -28.9316  -20.4106   18.8399 H   0  0  0  0  0  0
  -29.0001  -15.4350   21.0218 H   0  0  0  0  0  0
  -29.6855  -22.0551   21.1889 H   0  0  0  0  0  0
  -29.3781  -23.5112   21.8842 H   0  0  0  0  0  0
  1 25  1  0  0  0
  1 30  2  0  0  0
  1 81  1  0  0  0
  2  3  1  0  0  0
  2 25  1  0  0  0
  2 86  1  0  0  0
  2 87  1  0  0  0
  3  4  1  0  0  0
  3 88  1  0  0  0
  3 89  1  0  0  0
  4  5  1  0  0  0
  4 90  1  0  0  0
  4 91  1  0  0  0
  5  6  1  0  0  0
  5 26  1  0  0  0
  5 92  1  0  0  0
  6 25  1  0  0  0
  6 93  1  0  0  0
  6 94  1  0  0  0
  7  8  2  0  0  0
  7 26  1  0  0  0
  7 29  1  0  0  0
  8  9  1  0  0  0
  8 22  1  0  0  0
  9 10  1  0  0  0
  9 27  2  0  0  0
 10 11  2  0  0  0
 10 15  1  0  0  0
 11 12  1  0  0  0
 11 95  1  0  0  0
 12 13  2  0  0  0
 12 96  1  0  0  0
 13 14  1  0  0  0
 13 31  1  0  0  0
 14 15  2  0  0  0
 14 97  1  0  0  0
 15 98  1  0  0  0
 16 17  2  0  0  0
 16 21  1  0  0  0
 16 31  1  0  0  0
 17 18  1  0  0  0
 17 99  1  0  0  0
 18 19  2  0  0  0
 18100  1  0  0  0
 19 20  1  0  0  0
 19 24  1  0  0  0
 20 21  2  0  0  0
 20101  1  0  0  0
 21 23  1  0  0  0
 22 28  1  0  0  0
 22 32  2  0  0  0
 26 27  1  0  0  0
 28102  1  0  0  0
 28103  1  0  0  0
 29104  1  0  0  0
 29105  1  0  0  0
 33 34  1  0  0  0
 33 66  1  0  0  0
 33 70  2  0  0  0
 34 36  1  0  0  0
 34 59  1  0  0  0
 34106  1  0  0  0
 35 44  2  0  0  0
 35 45  1  0  0  0
 35 68  1  0  0  0
 36 56  1  0  0  0
 36107  1  0  0  0
 37 39  1  0  0  0
 37 47  1  0  0  0
 37 66  1  0  0  0
 37108  1  0  0  0
 38 43  2  0  0  0
 38 46  1  0  0  0
 38 47  1  0  0  0
 39 64  1  0  0  0
 39 67  2  0  0  0
 40 52  1  0  0  0
 40 53  2  0  0  0
 40 58  1  0  0  0
 41109  1  0  0  0
 41110  1  0  0  0
 41111  1  0  0  0
 41 48  1  0  0  0
 42 43  1  0  0  0
 42 66  1  0  0  0
 42112  1  0  0  0
 42113  1  0  0  0
 43 44  1  0  0  0
 44114  1  0  0  0
 45 46  2  0  0  0
 45115  1  0  0  0
 46116  1  0  0  0
 47117  1  0  0  0
 47118  1  0  0  0
 48 56  1  0  0  0
 48 65  1  0  0  0
 48119  1  0  0  0
 49 50  1  0  0  0
 49 53  1  0  0  0
 49 64  1  0  0  0
 49120  1  0  0  0
 50 51  1  0  0  0
 50121  1  0  0  0
 50122  1  0  0  0
 51 52  1  0  0  0
 51123  1  0  0  0
 51124  1  0  0  0
 52125  1  0  0  0
 52126  1  0  0  0
 53 54  1  0  0  0
 54 55  2  0  0  0
 54127  1  0  0  0
 55 57  1  0  0  0
 55128  1  0  0  0
 56 69  2  0  0  0
 57 58  2  0  0  0
 57129  1  0  0  0
 58130  1  0  0  0
 59 60  1  0  0  0
 59 61  1  0  0  0
 59 62  1  0  0  0
 60131  1  0  0  0
 60132  1  0  0  0
 60133  1  0  0  0
 61134  1  0  0  0
 61135  1  0  0  0
 61136  1  0  0  0
 62137  1  0  0  0
 62138  1  0  0  0
 62139  1  0  0  0
 63 65  1  0  0  0
 63140  1  0  0  0
 63141  1  0  0  0
 63142  1  0  0  0
 64143  1  0  0  0
 65144  1  0  0  0
 68 76  1  0  0  0
 71 73  2  0  0  0
 71 74  1  0  0  0
 71145  1  0  0  0
 72 74  2  0  0  0
 72 80  1  0  0  0
 72146  1  0  0  0
 73 75  1  0  0  0
 73 79  1  0  0  0
 74 81  1  0  0  0
 75 80  2  0  0  0
 75 85  1  0  0  0
 76 77  2  0  0  0
 76147  1  0  0  0
 77 78  1  0  0  0
 77 84  1  0  0  0
 78 82  1  0  0  0
 78 83  2  0  0  0
 79 82  1  0  0  0
 79148  1  0  0  0
 79149  1  0  0  0
 81150  1  0  0  0
 82151  1  0  0  0
 84152  1  0  0  0
M  ISO  4   1 100  68 101  76 101  81 100
M  END
> <chiral flag>
0

> <version>
0

> <s_m_source_file>
/data/baiqing/PycharmProjects/Reinvent-master-3.2/result/LINK_invent/BTK/process_docking_weight1_custom_product_contain_oxygen_bond_distance_aromatic_linkinvent_7_9_3/rearranged_h_0167.sdf

> <i_m_source_file_index>
72

> <r_mmod_Potential_Energy-OPLS-2005>
-289.766510009766

> <r_mmod_Stretch_Energy-OPLS-2005>
45.5432281494141

> <r_mmod_Bend_Energy-OPLS-2005>
105.339630126953

> <r_mmod_Torsional_Energy-OPLS-2005>
214.961349487305

> <r_mmod_Improper_Torsional_Energy-OPLS-2005>
5.75822925567627

> <r_mmod_Van_der_Waal_Energy-OPLS-2005>
169.85758972168

> <r_mmod_Electrostatic_Energy-OPLS-2005>
-596.172302246094

> <r_mmod_Solvation_Energy-OPLS-2005>
-255.544143676758

> <b_mmod_Minimization_Converged-OPLS-2005>
0

> <r_mmod_RMS_Derivative-OPLS-2005>
1.98323130607605

$$$$
73
                    3D
 Structure written by MMmdl.
158166  0  0  1  0            999 V2000
  -30.6776  -14.6170   20.5061 C   0  0  0  0  0  0
  -30.4369  -12.3640   19.4666 C   0  0  0  0  0  0
  -29.5098  -12.3697   18.2315 C   0  0  0  0  0  0
  -28.0182  -12.3216   18.6290 C   0  0  0  0  0  0
  -27.6461  -13.2141   19.8471 C   0  0  2  0  0  0
  -28.6897  -13.0933   20.9718 C   0  0  0  0  0  0
  -25.2544  -13.8179   20.5692 C   0  0  0  0  0  0
  -24.1820  -13.0444   20.9206 C   0  0  0  0  0  0
  -24.6388  -11.6916   20.8768 C   0  0  0  0  0  0
  -23.9068  -10.4304   21.0422 C   0  0  0  0  0  0
  -24.3630   -9.4215   21.9186 C   0  0  0  0  0  0
  -23.6314   -8.2248   22.0756 C   0  0  0  0  0  0
  -22.4286   -8.0296   21.3559 C   0  0  0  0  0  0
  -21.9925   -9.0268   20.4651 C   0  0  0  0  0  0
  -22.7249  -10.2146   20.3061 C   0  0  0  0  0  0
  -21.6852   -6.0745   22.5288 C   0  0  0  0  0  0
  -21.4009   -6.5646   23.8224 C   0  0  0  0  0  0
  -21.3661   -5.6793   24.9180 C   0  0  0  0  0  0
  -21.6048   -4.3058   24.7224 C   0  0  0  0  0  0
  -21.8818   -3.8156   23.4342 C   0  0  0  0  0  0
  -21.9190   -4.6976   22.3400 C   0  0  0  0  0  0
  -22.7841  -13.5239   21.1864 C   0  0  0  0  0  0
  -22.1665   -4.2174   21.0975 F   0  0  0  0  0  0
  -21.5634   -3.4529   25.7730 F   0  0  0  0  0  0
  -30.0011  -13.4269   20.3959 N   0  0  0  0  0  0
  -26.2953  -12.9356   20.3275 N   0  0  0  0  0  0
  -25.9312  -11.6520   20.5800 N   0  0  0  0  0  0
  -22.0475  -12.8227   22.0405 N   0  0  0  0  0  0
  -25.4256  -15.1907   20.4141 N   0  0  0  0  0  0
  -31.8501  -14.7095   20.1293 O   0  0  0  0  0  0
  -21.6647   -6.8887   21.4250 O   0  0  0  0  0  0
  -22.3526  -14.5542   20.6705 O   0  0  0  0  0  0
  -24.6187  -31.8645   23.2054 C   0  0  0  0  0  0
  -25.9062  -32.4801   23.8368 C   0  0  1  0  0  0
  -27.2304  -27.3815   20.1200 C   0  0  0  0  0  0
  -25.5919  -33.8601   24.2312 N   0  0  0  0  0  0
  -23.4085  -30.4870   21.5467 C   0  0  2  0  0  0
  -24.8560  -28.9454   20.1135 C   0  0  0  0  0  0
  -22.7433  -29.4643   22.4972 C   0  0  0  0  0  0
  -18.0275  -28.1371   22.8483 C   0  0  0  0  0  0
  -24.1499  -36.7313   23.2635 C   0  0  0  0  0  0
  -25.9408  -30.8165   21.3649 C   0  0  0  0  0  0
  -26.0178  -29.4464   20.7128 C   0  0  0  0  0  0
  -27.2074  -28.6745   20.7075 C   0  0  0  0  0  0
  -26.0522  -26.9135   19.4964 C   0  0  0  0  0  0
  -24.8713  -27.6822   19.4979 C   0  0  0  0  0  0
  -23.6198  -29.8176   20.1623 C   0  0  0  0  0  0
  -25.4119  -36.3104   24.0334 C   0  0  1  0  0  0
  -20.5870  -28.3663   23.1300 C   0  0  2  0  0  0
  -20.6774  -26.9401   22.5407 C   0  0  0  0  0  0
  -19.5754  -26.6377   21.5207 C   0  0  0  0  0  0
  -18.1927  -26.7914   22.1617 C   0  0  0  0  0  0
  -19.1526  -28.8834   23.2885 C   0  0  0  0  0  0
  -18.9451  -30.1438   23.8900 C   0  0  0  0  0  0
  -17.6453  -30.6572   24.0563 C   0  0  0  0  0  0
  -25.9039  -34.9465   23.5117 C   0  0  0  0  0  0
  -16.5346  -29.9070   23.6325 C   0  0  0  0  0  0
  -16.7265  -28.6490   23.0342 C   0  0  0  0  0  0
  -26.4472  -31.6587   25.0709 C   0  0  0  0  0  0
  -25.3725  -31.3707   26.1450 C   0  0  0  0  0  0
  -27.0306  -30.3027   24.6100 C   0  0  0  0  0  0
  -27.6044  -32.4300   25.7480 C   0  0  0  0  0  0
  -27.5592  -37.1812   24.8456 C   0  0  0  0  0  0
  -21.4155  -29.3034   22.3713 N   0  0  0  0  0  0
  -26.4306  -37.3787   23.9396 N   0  0  0  0  0  0
  -24.6741  -31.0709   22.0969 N   0  0  0  0  0  0
  -23.4187  -28.8183   23.3027 O   0  0  0  0  0  0
  -28.3881  -26.6155   20.1624 O   0  0  0  0  0  0
  -26.5593  -34.8917   22.4674 O   0  0  0  0  0  0
  -23.5370  -32.1413   23.7432 O   0  0  0  0  0  0
  -29.5194  -18.2374   18.0224 C   0  0  0  0  0  0
  -29.3977  -19.4234   18.7424 C   0  0  0  0  0  0
  -29.7223  -17.0182   18.6935 C   0  0  0  0  0  0
  -29.4721  -19.3994   20.1425 C   0  0  0  0  0  0
  -29.8135  -16.9904   20.1215 C   0  0  0  0  0  0
  -29.4143  -23.0029   21.4526 C   0  0  0  0  0  0
  -29.1704  -24.5334   21.2862 C   0  0  0  0  0  0
  -28.9669  -21.8930   20.4810 C   0  0  0  0  0  0
  -29.7978  -15.8065   17.7880 C   0  0  0  0  0  0
  -29.8583  -15.8897   22.3563 C   0  0  0  0  0  0
  -28.2850  -25.1538   20.1680 C   0  0  0  0  0  0
  -29.6781  -18.2001   20.7789 N   0  0  0  0  0  0
  -30.0689  -22.6404   22.4882 N   0  0  0  0  0  0
  -29.4122  -20.6524   20.8524 N   0  0  0  0  0  0
  -29.9812  -15.7413   20.8968 N   0  0  0  0  0  0
  -29.6936  -25.3123   22.1005 O   0  0  0  0  0  0
  -28.2535  -22.1319   19.5001 O   0  0  0  0  0  0
  -31.4763  -12.4795   19.1529 H   0  0  0  0  0  0
  -30.3926  -11.3955   19.9678 H   0  0  0  0  0  0
  -29.7375  -11.5000   17.6137 H   0  0  0  0  0  0
  -29.7251  -13.2116   17.5846 H   0  0  0  0  0  0
  -27.7958  -11.2810   18.8647 H   0  0  0  0  0  0
  -27.3925  -12.5716   17.7720 H   0  0  0  0  0  0
  -27.6514  -14.2468   19.5056 H   0  0  0  0  0  0
  -28.7042  -12.0808   21.3762 H   0  0  0  0  0  0
  -28.4183  -13.7418   21.8028 H   0  0  0  0  0  0
  -25.2783   -9.5691   22.4741 H   0  0  0  0  0  0
  -24.0047   -7.4626   22.7444 H   0  0  0  0  0  0
  -21.0875   -8.8781   19.8933 H   0  0  0  0  0  0
  -22.3737  -10.9683   19.6164 H   0  0  0  0  0  0
  -21.2005   -7.6156   23.9738 H   0  0  0  0  0  0
  -21.1478   -6.0515   25.9084 H   0  0  0  0  0  0
  -22.0595   -2.7621   23.2828 H   0  0  0  0  0  0
  -22.4117  -11.9917   22.4836 H   0  0  0  0  0  0
  -21.1071  -13.1231   22.2548 H   0  0  0  0  0  0
  -24.6629  -15.8472   20.5424 H   0  0  0  0  0  0
  -26.2879  -15.6374   20.1313 H   0  0  0  0  0  0
  -26.7133  -32.5503   23.1130 H   0  0  0  0  0  0
  -25.0114  -33.9755   25.0488 H   0  0  0  0  0  0
  -22.6983  -31.3042   21.4057 H   0  0  0  0  0  0
  -23.3760  -35.9645   23.3288 H   0  0  0  0  0  0
  -24.3600  -36.8932   22.2051 H   0  0  0  0  0  0
  -23.7245  -37.6513   23.6650 H   0  0  0  0  0  0
  -26.0580  -31.5817   20.5966 H   0  0  0  0  0  0
  -26.8261  -30.8702   21.9866 H   0  0  0  0  0  0
  -28.1016  -29.0580   21.1782 H   0  0  0  0  0  0
  -26.0296  -25.9546   19.0000 H   0  0  0  0  0  0
  -23.9802  -27.2941   19.0238 H   0  0  0  0  0  0
  -23.7319  -30.5914   19.4021 H   0  0  0  0  0  0
  -22.7426  -29.2402   19.8663 H   0  0  0  0  0  0
  -25.1301  -36.1973   25.0830 H   0  0  0  0  0  0
  -20.9959  -28.3238   24.1420 H   0  0  0  0  0  0
  -20.5688  -26.2278   23.3595 H   0  0  0  0  0  0
  -21.6640  -26.7443   22.1198 H   0  0  0  0  0  0
  -19.6918  -25.6285   21.1231 H   0  0  0  0  0  0
  -19.6697  -27.3198   20.6742 H   0  0  0  0  0  0
  -17.4206  -26.6660   21.4009 H   0  0  0  0  0  0
  -18.0328  -26.0047   22.9007 H   0  0  0  0  0  0
  -19.7931  -30.7251   24.2277 H   0  0  0  0  0  0
  -17.5006  -31.6254   24.5160 H   0  0  0  0  0  0
  -15.5346  -30.2972   23.7637 H   0  0  0  0  0  0
  -15.8669  -28.0805   22.7050 H   0  0  0  0  0  0
  -24.5891  -30.7068   25.7774 H   0  0  0  0  0  0
  -24.8931  -32.2875   26.4895 H   0  0  0  0  0  0
  -25.8067  -30.8863   27.0208 H   0  0  0  0  0  0
  -26.2861  -29.6786   24.1144 H   0  0  0  0  0  0
  -27.4062  -29.7261   25.4563 H   0  0  0  0  0  0
  -27.8701  -30.4334   23.9265 H   0  0  0  0  0  0
  -27.2664  -33.3583   26.2093 H   0  0  0  0  0  0
  -28.3849  -32.6881   25.0310 H   0  0  0  0  0  0
  -28.0721  -31.8399   26.5372 H   0  0  0  0  0  0
  -28.2599  -38.0120   24.7522 H   0  0  0  0  0  0
  -28.1104  -36.2652   24.6272 H   0  0  0  0  0  0
  -27.2304  -37.1447   25.8856 H   0  0  0  0  0  0
  -20.9323  -29.8777   21.6949 H   0  0  0  0  0  0
  -26.0199  -38.2868   24.1389 H   0  0  0  0  0  0
  -29.4509  -18.2748   16.9444 H   0  0  0  0  0  0
  -29.2636  -20.3407   18.1885 H   0  0  0  0  0  0
  -29.6771  -16.0722   16.7365 H   0  0  0  0  0  0
  -28.9788  -15.1373   18.0255 H   0  0  0  0  0  0
  -30.7593  -15.3000   17.8628 H   0  0  0  0  0  0
  -30.6095  -16.5874   22.7297 H   0  0  0  0  0  0
  -29.9909  -14.9566   22.9067 H   0  0  0  0  0  0
  -28.8739  -16.2843   22.6128 H   0  0  0  0  0  0
  -27.2635  -24.8202   20.3478 H   0  0  0  0  0  0
  -28.5942  -24.7706   19.1962 H   0  0  0  0  0  0
  -30.3014  -23.4794   23.0113 H   0  0  0  0  0  0
  -29.8568  -20.6766   21.7616 H   0  0  0  0  0  0
  1 25  1  0  0  0
  1 30  2  0  0  0
  1 85  1  0  0  0
  2  3  1  0  0  0
  2 25  1  0  0  0
  2 88  1  0  0  0
  2 89  1  0  0  0
  3  4  1  0  0  0
  3 90  1  0  0  0
  3 91  1  0  0  0
  4  5  1  0  0  0
  4 92  1  0  0  0
  4 93  1  0  0  0
  5  6  1  0  0  0
  5 26  1  0  0  0
  5 94  1  0  0  0
  6 25  1  0  0  0
  6 95  1  0  0  0
  6 96  1  0  0  0
  7  8  2  0  0  0
  7 26  1  0  0  0
  7 29  1  0  0  0
  8  9  1  0  0  0
  8 22  1  0  0  0
  9 10  1  0  0  0
  9 27  2  0  0  0
 10 11  2  0  0  0
 10 15  1  0  0  0
 11 12  1  0  0  0
 11 97  1  0  0  0
 12 13  2  0  0  0
 12 98  1  0  0  0
 13 14  1  0  0  0
 13 31  1  0  0  0
 14 15  2  0  0  0
 14 99  1  0  0  0
 15100  1  0  0  0
 16 17  2  0  0  0
 16 21  1  0  0  0
 16 31  1  0  0  0
 17 18  1  0  0  0
 17101  1  0  0  0
 18 19  2  0  0  0
 18102  1  0  0  0
 19 20  1  0  0  0
 19 24  1  0  0  0
 20 21  2  0  0  0
 20103  1  0  0  0
 21 23  1  0  0  0
 22 28  1  0  0  0
 22 32  2  0  0  0
 26 27  1  0  0  0
 28104  1  0  0  0
 28105  1  0  0  0
 29106  1  0  0  0
 29107  1  0  0  0
 33 34  1  0  0  0
 33 66  1  0  0  0
 33 70  2  0  0  0
 34 36  1  0  0  0
 34 59  1  0  0  0
 34108  1  0  0  0
 35 44  2  0  0  0
 35 45  1  0  0  0
 35 68  1  0  0  0
 36 56  1  0  0  0
 36109  1  0  0  0
 37 39  1  0  0  0
 37 47  1  0  0  0
 37 66  1  0  0  0
 37110  1  0  0  0
 38 43  2  0  0  0
 38 46  1  0  0  0
 38 47  1  0  0  0
 39 64  1  0  0  0
 39 67  2  0  0  0
 40 52  1  0  0  0
 40 53  2  0  0  0
 40 58  1  0  0  0
 41111  1  0  0  0
 41112  1  0  0  0
 41113  1  0  0  0
 41 48  1  0  0  0
 42 43  1  0  0  0
 42 66  1  0  0  0
 42114  1  0  0  0
 42115  1  0  0  0
 43 44  1  0  0  0
 44116  1  0  0  0
 45 46  2  0  0  0
 45117  1  0  0  0
 46118  1  0  0  0
 47119  1  0  0  0
 47120  1  0  0  0
 48 56  1  0  0  0
 48 65  1  0  0  0
 48121  1  0  0  0
 49 50  1  0  0  0
 49 53  1  0  0  0
 49 64  1  0  0  0
 49122  1  0  0  0
 50 51  1  0  0  0
 50123  1  0  0  0
 50124  1  0  0  0
 51 52  1  0  0  0
 51125  1  0  0  0
 51126  1  0  0  0
 52127  1  0  0  0
 52128  1  0  0  0
 53 54  1  0  0  0
 54 55  2  0  0  0
 54129  1  0  0  0
 55 57  1  0  0  0
 55130  1  0  0  0
 56 69  2  0  0  0
 57 58  2  0  0  0
 57131  1  0  0  0
 58132  1  0  0  0
 59 60  1  0  0  0
 59 61  1  0  0  0
 59 62  1  0  0  0
 60133  1  0  0  0
 60134  1  0  0  0
 60135  1  0  0  0
 61136  1  0  0  0
 61137  1  0  0  0
 61138  1  0  0  0
 62139  1  0  0  0
 62140  1  0  0  0
 62141  1  0  0  0
 63 65  1  0  0  0
 63142  1  0  0  0
 63143  1  0  0  0
 63144  1  0  0  0
 64145  1  0  0  0
 65146  1  0  0  0
 68 81  1  0  0  0
 71 72  2  0  0  0
 71 73  1  0  0  0
 71147  1  0  0  0
 72 74  1  0  0  0
 72148  1  0  0  0
 73 75  2  0  0  0
 73 79  1  0  0  0
 74 82  2  0  0  0
 74 84  1  0  0  0
 75 82  1  0  0  0
 75 85  1  0  0  0
 76 77  1  0  0  0
 76 78  1  0  0  0
 76 83  2  0  0  0
 77 81  1  0  0  0
 77 86  2  0  0  0
 78 84  1  0  0  0
 78 87  2  0  0  0
 79149  1  0  0  0
 79150  1  0  0  0
 79151  1  0  0  0
 80 85  1  0  0  0
 80152  1  0  0  0
 80153  1  0  0  0
 80154  1  0  0  0
 81155  1  0  0  0
 81156  1  0  0  0
 83157  1  0  0  0
 84158  1  0  0  0
M  ISO  4   1 100  68 101  81 101  85 100
M  END
> <chiral flag>
0

> <version>
0

> <s_m_source_file>
/data/baiqing/PycharmProjects/Reinvent-master-3.2/result/LINK_invent/BTK/process_docking_weight1_custom_product_contain_oxygen_bond_distance_aromatic_linkinvent_7_9_3/rearranged_h_0167.sdf

> <i_m_source_file_index>
73

> <r_mmod_Potential_Energy-OPLS-2005>
51.0347099304199

> <r_mmod_Stretch_Energy-OPLS-2005>
75.094612121582

> <r_mmod_Bend_Energy-OPLS-2005>
157.722259521484

> <r_mmod_Torsional_Energy-OPLS-2005>
288.900390625

> <r_mmod_Improper_Torsional_Energy-OPLS-2005>
4.84162998199463

> <r_mmod_Van_der_Waal_Energy-OPLS-2005>
179.026702880859

> <r_mmod_Electrostatic_Energy-OPLS-2005>
-464.904235839844

> <r_mmod_Solvation_Energy-OPLS-2005>
-227.025131225586

> <b_mmod_Minimization_Converged-OPLS-2005>
0

> <r_mmod_RMS_Derivative-OPLS-2005>
1.689866065979

$$$$
74
                    3D
 Structure written by MMmdl.
153161  0  0  1  0            999 V2000
  -30.6025  -14.6829   20.5013 C   0  0  0  0  0  0
  -30.4450  -12.4206   19.4594 C   0  0  0  0  0  0
  -29.5161  -12.5155   18.2274 C   0  0  0  0  0  0
  -28.0388  -12.3428   18.6369 C   0  0  0  0  0  0
  -27.6519  -13.2190   19.8591 C   0  0  2  0  0  0
  -28.6964  -13.0850   20.9918 C   0  0  0  0  0  0
  -25.2548  -13.8154   20.5659 C   0  0  0  0  0  0
  -24.1829  -13.0438   20.9199 C   0  0  0  0  0  0
  -24.6394  -11.6908   20.8729 C   0  0  0  0  0  0
  -23.9044  -10.4289   21.0393 C   0  0  0  0  0  0
  -24.3591   -9.4205   21.9180 C   0  0  0  0  0  0
  -23.6275   -8.2234   22.0742 C   0  0  0  0  0  0
  -22.4263   -8.0261   21.3535 C   0  0  0  0  0  0
  -21.9891   -9.0235   20.4652 C   0  0  0  0  0  0
  -22.7210  -10.2117   20.3044 C   0  0  0  0  0  0
  -21.6856   -6.0710   22.5264 C   0  0  0  0  0  0
  -21.4016   -6.5617   23.8200 C   0  0  0  0  0  0
  -21.3672   -5.6771   24.9168 C   0  0  0  0  0  0
  -21.6044   -4.3036   24.7222 C   0  0  0  0  0  0
  -21.8824   -3.8115   23.4359 C   0  0  0  0  0  0
  -21.9201   -4.6931   22.3409 C   0  0  0  0  0  0
  -22.7854  -13.5232   21.1858 C   0  0  0  0  0  0
  -22.1668   -4.2117   21.0985 F   0  0  0  0  0  0
  -21.5638   -3.4532   25.7740 F   0  0  0  0  0  0
  -30.0093  -13.4449   20.4318 N   0  0  0  0  0  0
  -26.2980  -12.9341   20.3269 N   0  0  0  0  0  0
  -25.9317  -11.6497   20.5717 N   0  0  0  0  0  0
  -22.0483  -12.8246   22.0420 N   0  0  0  0  0  0
  -25.4272  -15.1868   20.4023 N   0  0  0  0  0  0
  -31.7613  -14.8551   20.1116 O   0  0  0  0  0  0
  -21.6638   -6.8855   21.4228 O   0  0  0  0  0  0
  -22.3555  -14.5538   20.6684 O   0  0  0  0  0  0
  -24.6314  -31.8584   23.2061 C   0  0  0  0  0  0
  -25.9142  -32.4783   23.8384 C   0  0  1  0  0  0
  -27.2213  -27.2872   20.1249 C   0  0  0  0  0  0
  -25.5938  -33.8580   24.2298 N   0  0  0  0  0  0
  -23.4254  -30.4856   21.5486 C   0  0  2  0  0  0
  -24.8751  -28.9427   20.1087 C   0  0  0  0  0  0
  -22.7488  -29.4628   22.4935 C   0  0  0  0  0  0
  -18.0290  -28.1389   22.8497 C   0  0  0  0  0  0
  -24.1495  -36.7290   23.2645 C   0  0  0  0  0  0
  -25.9721  -30.7760   21.3911 C   0  0  0  0  0  0
  -26.0421  -29.4007   20.7342 C   0  0  0  0  0  0
  -27.2133  -28.5803   20.7447 C   0  0  0  0  0  0
  -26.0454  -26.9175   19.4305 C   0  0  0  0  0  0
  -24.8816  -27.7073   19.4466 C   0  0  0  0  0  0
  -23.6440  -29.8253   20.1626 C   0  0  0  0  0  0
  -25.4114  -36.3083   24.0354 C   0  0  1  0  0  0
  -20.5904  -28.3706   23.1289 C   0  0  2  0  0  0
  -20.6784  -26.9435   22.5411 C   0  0  0  0  0  0
  -19.5747  -26.6392   21.5223 C   0  0  0  0  0  0
  -18.1926  -26.7926   22.1633 C   0  0  0  0  0  0
  -19.1546  -28.8865   23.2891 C   0  0  0  0  0  0
  -18.9452  -30.1467   23.8916 C   0  0  0  0  0  0
  -17.6450  -30.6602   24.0562 C   0  0  0  0  0  0
  -25.9063  -34.9453   23.5128 C   0  0  0  0  0  0
  -16.5345  -29.9097   23.6337 C   0  0  0  0  0  0
  -16.7274  -28.6509   23.0372 C   0  0  0  0  0  0
  -26.4499  -31.6596   25.0768 C   0  0  0  0  0  0
  -25.3707  -31.3746   26.1479 C   0  0  0  0  0  0
  -27.0339  -30.3002   24.6282 C   0  0  0  0  0  0
  -27.6073  -32.4325   25.7518 C   0  0  0  0  0  0
  -27.5608  -37.1784   24.8458 C   0  0  0  0  0  0
  -21.4202  -29.3046   22.3658 N   0  0  0  0  0  0
  -26.4282  -37.3799   23.9449 N   0  0  0  0  0  0
  -24.6950  -31.0570   22.1040 N   0  0  0  0  0  0
  -23.4185  -28.8160   23.3029 O   0  0  0  0  0  0
  -28.3233  -26.4040   20.1824 O   0  0  0  0  0  0
  -26.5626  -34.8927   22.4690 O   0  0  0  0  0  0
  -23.5468  -32.1394   23.7362 O   0  0  0  0  0  0
  -30.9490  -17.9697   20.3671 C   0  0  0  0  0  0
  -28.6772  -17.9416   21.1056 C   0  0  0  0  0  0
  -30.9133  -19.4089   20.2946 C   0  0  0  0  0  0
  -29.8325  -17.1887   20.7691 C   0  0  0  0  0  0
  -29.7240  -20.1538   20.6141 C   0  0  0  0  0  0
  -28.6177  -19.3662   21.0388 C   0  0  0  0  0  0
  -32.1499  -20.1185   19.8729 C   0  0  0  0  0  0
  -28.1359  -24.9908   20.1735 C   0  0  0  0  0  0
  -29.0592  -23.9961   20.4193 C   0  0  0  0  0  0
  -28.7094  -22.5380   20.2898 C   0  0  0  0  0  0
  -33.3201  -19.6332   19.8489 N   0  0  0  0  0  0
  -29.6932  -21.6374   20.6158 N   0  0  0  0  0  0
  -29.7781  -15.7186   20.8756 N   0  0  0  0  0  0
  -27.6209  -22.1550   19.8599 O   0  0  0  0  0  0
  -30.3144  -24.3214   20.7719 O   0  0  0  0  0  0
  -27.4749  -19.9658   21.4470 F   0  0  0  0  0  0
  -31.4866  -12.5547   19.1592 H   0  0  0  0  0  0
  -30.3912  -11.4273   19.9086 H   0  0  0  0  0  0
  -29.7912  -11.7600   17.4900 H   0  0  0  0  0  0
  -29.6502  -13.4801   17.7393 H   0  0  0  0  0  0
  -27.8841  -11.2895   18.8743 H   0  0  0  0  0  0
  -27.3853  -12.5596   17.7910 H   0  0  0  0  0  0
  -27.6651  -14.2524   19.5080 H   0  0  0  0  0  0
  -28.7193  -12.0629   21.3719 H   0  0  0  0  0  0
  -28.4311  -13.7136   21.8436 H   0  0  0  0  0  0
  -25.2744   -9.5702   22.4738 H   0  0  0  0  0  0
  -24.0003   -7.4639   22.7457 H   0  0  0  0  0  0
  -21.0808   -8.8746   19.8984 H   0  0  0  0  0  0
  -22.3658  -10.9637   19.6126 H   0  0  0  0  0  0
  -21.1987   -7.6132   23.9686 H   0  0  0  0  0  0
  -21.1507   -6.0513   25.9067 H   0  0  0  0  0  0
  -22.0597   -2.7579   23.2854 H   0  0  0  0  0  0
  -22.4101  -11.9921   22.4825 H   0  0  0  0  0  0
  -21.1100  -13.1275   22.2607 H   0  0  0  0  0  0
  -24.6409  -15.8252   20.4521 H   0  0  0  0  0  0
  -26.2456  -15.6028   19.9770 H   0  0  0  0  0  0
  -26.7209  -32.5426   23.1130 H   0  0  0  0  0  0
  -25.0057  -33.9698   25.0421 H   0  0  0  0  0  0
  -22.7213  -31.3095   21.4089 H   0  0  0  0  0  0
  -23.3757  -35.9624   23.3288 H   0  0  0  0  0  0
  -24.3604  -36.8906   22.2061 H   0  0  0  0  0  0
  -23.7226  -37.6494   23.6641 H   0  0  0  0  0  0
  -26.1177  -31.5402   20.6249 H   0  0  0  0  0  0
  -26.8467  -30.8166   22.0302 H   0  0  0  0  0  0
  -28.1037  -28.9250   21.2555 H   0  0  0  0  0  0
  -25.9976  -26.0044   18.8583 H   0  0  0  0  0  0
  -23.9996  -27.3632   18.9262 H   0  0  0  0  0  0
  -23.7631  -30.6052   19.4104 H   0  0  0  0  0  0
  -22.7626  -29.2598   19.8577 H   0  0  0  0  0  0
  -25.1271  -36.1947   25.0842 H   0  0  0  0  0  0
  -20.9994  -28.3300   24.1418 H   0  0  0  0  0  0
  -20.5725  -26.2331   23.3611 H   0  0  0  0  0  0
  -21.6643  -26.7491   22.1194 H   0  0  0  0  0  0
  -19.6911  -25.6298   21.1264 H   0  0  0  0  0  0
  -19.6673  -27.3209   20.6749 H   0  0  0  0  0  0
  -17.4200  -26.6714   21.4023 H   0  0  0  0  0  0
  -18.0313  -26.0072   22.9033 H   0  0  0  0  0  0
  -19.7928  -30.7268   24.2324 H   0  0  0  0  0  0
  -17.5008  -31.6290   24.5125 H   0  0  0  0  0  0
  -15.5344  -30.2987   23.7659 H   0  0  0  0  0  0
  -15.8682  -28.0815   22.7091 H   0  0  0  0  0  0
  -24.5890  -30.7102   25.7786 H   0  0  0  0  0  0
  -24.8886  -32.2909   26.4894 H   0  0  0  0  0  0
  -25.8001  -30.8911   27.0261 H   0  0  0  0  0  0
  -26.2933  -29.6752   24.1289 H   0  0  0  0  0  0
  -27.3958  -29.7285   25.4833 H   0  0  0  0  0  0
  -27.8847  -30.4249   23.9587 H   0  0  0  0  0  0
  -27.2705  -33.3618   26.2134 H   0  0  0  0  0  0
  -28.3857  -32.6902   25.0318 H   0  0  0  0  0  0
  -28.0790  -31.8428   26.5390 H   0  0  0  0  0  0
  -28.2568  -38.0144   24.7600 H   0  0  0  0  0  0
  -28.1139  -36.2669   24.6115 H   0  0  0  0  0  0
  -27.2345  -37.1269   25.8864 H   0  0  0  0  0  0
  -20.9392  -29.8750   21.6842 H   0  0  0  0  0  0
  -26.0154  -38.2879   24.1441 H   0  0  0  0  0  0
  -31.8597  -17.4525   20.1080 H   0  0  0  0  0  0
  -27.7914  -17.4261   21.4453 H   0  0  0  0  0  0
  -32.0258  -21.1575   19.5559 H   0  0  0  0  0  0
  -27.1266  -24.6955   19.9290 H   0  0  0  0  0  0
  -33.3440  -18.6741   20.1701 H   0  0  0  0  0  0
  -30.5552  -22.1001   20.8679 H   0  0  0  0  0  0
  -28.8866  -15.3711   21.1926 H   0  0  0  0  0  0
  -30.3555  -25.2673   20.8404 H   0  0  0  0  0  0
  1 25  1  0  0  0
  1 30  2  0  0  0
  1 83  1  0  0  0
  2  3  1  0  0  0
  2 25  1  0  0  0
  2 87  1  0  0  0
  2 88  1  0  0  0
  3  4  1  0  0  0
  3 89  1  0  0  0
  3 90  1  0  0  0
  4  5  1  0  0  0
  4 91  1  0  0  0
  4 92  1  0  0  0
  5  6  1  0  0  0
  5 26  1  0  0  0
  5 93  1  0  0  0
  6 25  1  0  0  0
  6 94  1  0  0  0
  6 95  1  0  0  0
  7  8  2  0  0  0
  7 26  1  0  0  0
  7 29  1  0  0  0
  8  9  1  0  0  0
  8 22  1  0  0  0
  9 10  1  0  0  0
  9 27  2  0  0  0
 10 11  2  0  0  0
 10 15  1  0  0  0
 11 12  1  0  0  0
 11 96  1  0  0  0
 12 13  2  0  0  0
 12 97  1  0  0  0
 13 14  1  0  0  0
 13 31  1  0  0  0
 14 15  2  0  0  0
 14 98  1  0  0  0
 15 99  1  0  0  0
 16 17  2  0  0  0
 16 21  1  0  0  0
 16 31  1  0  0  0
 17 18  1  0  0  0
 17100  1  0  0  0
 18 19  2  0  0  0
 18101  1  0  0  0
 19 20  1  0  0  0
 19 24  1  0  0  0
 20 21  2  0  0  0
 20102  1  0  0  0
 21 23  1  0  0  0
 22 28  1  0  0  0
 22 32  2  0  0  0
 26 27  1  0  0  0
 28103  1  0  0  0
 28104  1  0  0  0
 29105  1  0  0  0
 29106  1  0  0  0
 33 34  1  0  0  0
 33 66  1  0  0  0
 33 70  2  0  0  0
 34 36  1  0  0  0
 34 59  1  0  0  0
 34107  1  0  0  0
 35 44  2  0  0  0
 35 45  1  0  0  0
 35 68  1  0  0  0
 36 56  1  0  0  0
 36108  1  0  0  0
 37 39  1  0  0  0
 37 47  1  0  0  0
 37 66  1  0  0  0
 37109  1  0  0  0
 38 43  2  0  0  0
 38 46  1  0  0  0
 38 47  1  0  0  0
 39 64  1  0  0  0
 39 67  2  0  0  0
 40 52  1  0  0  0
 40 53  2  0  0  0
 40 58  1  0  0  0
 41110  1  0  0  0
 41111  1  0  0  0
 41112  1  0  0  0
 41 48  1  0  0  0
 42 43  1  0  0  0
 42 66  1  0  0  0
 42113  1  0  0  0
 42114  1  0  0  0
 43 44  1  0  0  0
 44115  1  0  0  0
 45 46  2  0  0  0
 45116  1  0  0  0
 46117  1  0  0  0
 47118  1  0  0  0
 47119  1  0  0  0
 48 56  1  0  0  0
 48 65  1  0  0  0
 48120  1  0  0  0
 49 50  1  0  0  0
 49 53  1  0  0  0
 49 64  1  0  0  0
 49121  1  0  0  0
 50 51  1  0  0  0
 50122  1  0  0  0
 50123  1  0  0  0
 51 52  1  0  0  0
 51124  1  0  0  0
 51125  1  0  0  0
 52126  1  0  0  0
 52127  1  0  0  0
 53 54  1  0  0  0
 54 55  2  0  0  0
 54128  1  0  0  0
 55 57  1  0  0  0
 55129  1  0  0  0
 56 69  2  0  0  0
 57 58  2  0  0  0
 57130  1  0  0  0
 58131  1  0  0  0
 59 60  1  0  0  0
 59 61  1  0  0  0
 59 62  1  0  0  0
 60132  1  0  0  0
 60133  1  0  0  0
 60134  1  0  0  0
 61135  1  0  0  0
 61136  1  0  0  0
 61137  1  0  0  0
 62138  1  0  0  0
 62139  1  0  0  0
 62140  1  0  0  0
 63 65  1  0  0  0
 63141  1  0  0  0
 63142  1  0  0  0
 63143  1  0  0  0
 64144  1  0  0  0
 65145  1  0  0  0
 68 78  1  0  0  0
 71 73  2  0  0  0
 71 74  1  0  0  0
 71146  1  0  0  0
 72 74  2  0  0  0
 72 76  1  0  0  0
 72147  1  0  0  0
 73 75  1  0  0  0
 73 77  1  0  0  0
 74 83  1  0  0  0
 75 76  2  0  0  0
 75 82  1  0  0  0
 76 86  1  0  0  0
 77 81  2  0  0  0
 77148  1  0  0  0
 78 79  2  0  0  0
 78149  1  0  0  0
 79 80  1  0  0  0
 79 85  1  0  0  0
 80 82  1  0  0  0
 80 84  2  0  0  0
 81150  1  0  0  0
 82151  1  0  0  0
 83152  1  0  0  0
 85153  1  0  0  0
M  ISO  4   1 100  68 101  78 101  83 100
M  END
> <chiral flag>
0

> <version>
0

> <s_m_source_file>
/data/baiqing/PycharmProjects/Reinvent-master-3.2/result/LINK_invent/BTK/process_docking_weight1_custom_product_contain_oxygen_bond_distance_aromatic_linkinvent_7_9_3/rearranged_h_0167.sdf

> <i_m_source_file_index>
74

> <r_mmod_Potential_Energy-OPLS-2005>
5.39947605133057

> <r_mmod_Stretch_Energy-OPLS-2005>
93.7372665405273

> <r_mmod_Bend_Energy-OPLS-2005>
146.444442749023

> <r_mmod_Torsional_Energy-OPLS-2005>
219.494232177734

> <r_mmod_Improper_Torsional_Energy-OPLS-2005>
5.0788688659668

> <r_mmod_Van_der_Waal_Energy-OPLS-2005>
156.648803710938

> <r_mmod_Electrostatic_Energy-OPLS-2005>
-438.390686035156

> <r_mmod_Solvation_Energy-OPLS-2005>
-243.317810058594

> <b_mmod_Minimization_Converged-OPLS-2005>
0

> <r_mmod_RMS_Derivative-OPLS-2005>
3.92264676094055

$$$$
75
                    3D
 Structure written by MMmdl.
152160  0  0  1  0            999 V2000
  -30.6024  -14.7547   20.4623 C   0  0  0  0  0  0
  -30.4432  -12.4593   19.4700 C   0  0  0  0  0  0
  -29.5154  -12.4796   18.2343 C   0  0  0  0  0  0
  -28.0496  -12.2804   18.6613 C   0  0  0  0  0  0
  -27.6367  -13.2152   19.8288 C   0  0  2  0  0  0
  -28.6788  -13.1880   20.9681 C   0  0  0  0  0  0
  -25.2526  -13.8151   20.5629 C   0  0  0  0  0  0
  -24.1830  -13.0413   20.9205 C   0  0  0  0  0  0
  -24.6397  -11.6898   20.8749 C   0  0  0  0  0  0
  -23.9069  -10.4287   21.0422 C   0  0  0  0  0  0
  -24.3615   -9.4213   21.9193 C   0  0  0  0  0  0
  -23.6295   -8.2253   22.0756 C   0  0  0  0  0  0
  -22.4281   -8.0288   21.3535 C   0  0  0  0  0  0
  -21.9912   -9.0272   20.4654 C   0  0  0  0  0  0
  -22.7242  -10.2151   20.3075 C   0  0  0  0  0  0
  -21.6835   -6.0758   22.5293 C   0  0  0  0  0  0
  -21.3997   -6.5666   23.8222 C   0  0  0  0  0  0
  -21.3663   -5.6819   24.9188 C   0  0  0  0  0  0
  -21.6034   -4.3079   24.7237 C   0  0  0  0  0  0
  -21.8810   -3.8171   23.4362 C   0  0  0  0  0  0
  -21.9188   -4.6989   22.3415 C   0  0  0  0  0  0
  -22.7863  -13.5219   21.1908 C   0  0  0  0  0  0
  -22.1652   -4.2166   21.0993 F   0  0  0  0  0  0
  -21.5634   -3.4578   25.7753 F   0  0  0  0  0  0
  -29.9813  -13.5308   20.3786 N   0  0  0  0  0  0
  -26.2913  -12.9308   20.3172 N   0  0  0  0  0  0
  -25.9299  -11.6460   20.5692 N   0  0  0  0  0  0
  -22.0573  -12.8139   22.0469 N   0  0  0  0  0  0
  -25.4219  -15.1867   20.3968 N   0  0  0  0  0  0
  -31.8129  -14.8549   20.2460 O   0  0  0  0  0  0
  -21.6630   -6.8902   21.4244 O   0  0  0  0  0  0
  -22.3537  -14.5541   20.6818 O   0  0  0  0  0  0
  -24.6343  -31.8509   23.1935 C   0  0  0  0  0  0
  -25.9183  -32.4707   23.8262 C   0  0  1  0  0  0
  -27.2151  -27.2306   20.1371 C   0  0  0  0  0  0
  -25.5990  -33.8507   24.2181 N   0  0  0  0  0  0
  -23.4326  -30.4704   21.5381 C   0  0  2  0  0  0
  -24.8813  -28.9137   20.1110 C   0  0  0  0  0  0
  -22.7496  -29.4610   22.4910 C   0  0  0  0  0  0
  -18.0341  -28.1336   22.8486 C   0  0  0  0  0  0
  -24.1528  -36.7253   23.2630 C   0  0  0  0  0  0
  -25.9802  -30.7521   21.3821 C   0  0  0  0  0  0
  -26.0544  -29.3723   20.7270 C   0  0  0  0  0  0
  -27.2269  -28.5391   20.7363 C   0  0  0  0  0  0
  -26.0325  -26.8683   19.4613 C   0  0  0  0  0  0
  -24.8757  -27.6672   19.4694 C   0  0  0  0  0  0
  -23.6492  -29.7970   20.1584 C   0  0  0  0  0  0
  -25.4151  -36.3009   24.0297 C   0  0  1  0  0  0
  -20.5912  -28.3749   23.1270 C   0  0  2  0  0  0
  -20.6913  -26.9518   22.5326 C   0  0  0  0  0  0
  -19.5861  -26.6346   21.5196 C   0  0  0  0  0  0
  -18.2042  -26.7890   22.1607 C   0  0  0  0  0  0
  -19.1550  -28.8841   23.2889 C   0  0  0  0  0  0
  -18.9446  -30.1455   23.8869 C   0  0  0  0  0  0
  -17.6439  -30.6549   24.0562 C   0  0  0  0  0  0
  -25.9099  -34.9402   23.5033 C   0  0  0  0  0  0
  -16.5347  -29.9026   23.6309 C   0  0  0  0  0  0
  -16.7313  -28.6454   23.0296 C   0  0  0  0  0  0
  -26.4533  -31.6539   25.0673 C   0  0  0  0  0  0
  -25.3747  -31.3700   26.1392 C   0  0  0  0  0  0
  -27.0374  -30.2930   24.6225 C   0  0  0  0  0  0
  -27.6076  -32.4303   25.7451 C   0  0  0  0  0  0
  -27.5579  -37.1779   24.8467 C   0  0  0  0  0  0
  -21.4192  -29.3118   22.3668 N   0  0  0  0  0  0
  -26.4300  -37.3725   23.9386 N   0  0  0  0  0  0
  -24.7010  -31.0450   22.0927 N   0  0  0  0  0  0
  -23.4162  -28.8203   23.3087 O   0  0  0  0  0  0
  -28.2830  -26.2943   20.1198 O   0  0  0  0  0  0
  -26.5651  -34.8884   22.4595 O   0  0  0  0  0  0
  -23.5495  -32.1376   23.7220 O   0  0  0  0  0  0
  -30.1775  -19.9214   22.0315 C   0  0  0  0  0  0
  -30.5847  -17.4958   22.1624 C   0  0  0  0  0  0
  -29.6141  -19.8216   20.7417 C   0  0  0  0  0  0
  -29.9942  -17.2750   20.8986 C   0  0  0  0  0  0
  -30.6525  -18.7889   22.7241 C   0  0  0  0  0  0
  -29.5143  -18.4630   20.1995 C   0  0  0  0  0  0
  -29.3020  -21.1436   20.0017 C   0  0  0  0  0  0
  -28.8755  -23.7589   19.9519 C   0  0  0  0  0  0
  -28.1616  -24.9950   20.7056 C   0  0  2  0  0  0
  -29.7825  -15.8742   20.4551 N   0  0  0  0  0  0
  -28.8918  -22.3676   20.5568 N   0  0  0  0  0  0
  -29.5222  -21.1068   18.6854 N   0  3  0  0  0  0
  -29.4070  -23.9388   18.8469 O   0  0  0  0  0  0
  -31.1833  -18.9473   23.9601 F   0  0  0  0  0  0
  -28.9743  -18.2909   18.9667 F   0  0  0  0  0  0
  -26.8631  -24.6252   20.8469 F   0  0  0  0  0  0
  -31.4843  -12.5970   19.1688 H   0  0  0  0  0  0
  -30.3944  -11.4910   19.9718 H   0  0  0  0  0  0
  -29.8089  -11.6933   17.5365 H   0  0  0  0  0  0
  -29.6239  -13.4247   17.7012 H   0  0  0  0  0  0
  -27.9519  -11.2401   18.9772 H   0  0  0  0  0  0
  -27.3771  -12.3992   17.8096 H   0  0  0  0  0  0
  -27.6189  -14.2189   19.4074 H   0  0  0  0  0  0
  -28.7213  -12.2091   21.4472 H   0  0  0  0  0  0
  -28.4011  -13.8996   21.7493 H   0  0  0  0  0  0
  -25.2771   -9.5686   22.4756 H   0  0  0  0  0  0
  -24.0021   -7.4635   22.7454 H   0  0  0  0  0  0
  -21.0852   -8.8785   19.8950 H   0  0  0  0  0  0
  -22.3703  -10.9688   19.6191 H   0  0  0  0  0  0
  -21.1970   -7.6177   23.9713 H   0  0  0  0  0  0
  -21.1485   -6.0576   25.9087 H   0  0  0  0  0  0
  -22.0575   -2.7639   23.2868 H   0  0  0  0  0  0
  -22.4213  -11.9723   22.4653 H   0  0  0  0  0  0
  -21.1252  -13.1174   22.2885 H   0  0  0  0  0  0
  -24.6317  -15.8232   20.4447 H   0  0  0  0  0  0
  -26.2480  -15.6146   19.9963 H   0  0  0  0  0  0
  -26.7248  -32.5311   23.0988 H   0  0  0  0  0  0
  -25.0136  -33.9629   25.0328 H   0  0  0  0  0  0
  -22.7324  -31.2945   21.3875 H   0  0  0  0  0  0
  -23.3780  -35.9601   23.3298 H   0  0  0  0  0  0
  -24.3642  -36.8853   22.2042 H   0  0  0  0  0  0
  -23.7285  -37.6459   23.6666 H   0  0  0  0  0  0
  -26.1267  -31.5163   20.6164 H   0  0  0  0  0  0
  -26.8517  -30.7980   22.0213 H   0  0  0  0  0  0
  -28.1245  -28.8806   21.2343 H   0  0  0  0  0  0
  -25.9882  -25.9234   18.9385 H   0  0  0  0  0  0
  -23.9839  -27.3121   18.9746 H   0  0  0  0  0  0
  -23.7639  -30.5702   19.3989 H   0  0  0  0  0  0
  -22.7642  -29.2284   19.8640 H   0  0  0  0  0  0
  -25.1340  -36.1829   25.0784 H   0  0  0  0  0  0
  -20.9975  -28.3319   24.1400 H   0  0  0  0  0  0
  -21.6782  -26.7759   22.1006 H   0  0  0  0  0  0
  -20.5992  -26.2369   23.3510 H   0  0  0  0  0  0
  -19.7039  -25.6175   21.1484 H   0  0  0  0  0  0
  -19.6745  -27.2997   20.6579 H   0  0  0  0  0  0
  -17.4382  -26.6700   21.3954 H   0  0  0  0  0  0
  -18.0398  -25.9932   22.8903 H   0  0  0  0  0  0
  -19.7888  -30.7349   24.2216 H   0  0  0  0  0  0
  -17.4961  -31.6241   24.5124 H   0  0  0  0  0  0
  -15.5335  -30.2916   23.7635 H   0  0  0  0  0  0
  -15.8735  -28.0829   22.6870 H   0  0  0  0  0  0
  -24.5949  -30.7023   25.7708 H   0  0  0  0  0  0
  -24.8939  -32.2873   26.4811 H   0  0  0  0  0  0
  -25.8071  -30.8864   27.0164 H   0  0  0  0  0  0
  -26.2945  -29.6670   24.1270 H   0  0  0  0  0  0
  -27.4011  -29.7230   25.4789 H   0  0  0  0  0  0
  -27.8862  -30.4145   23.9486 H   0  0  0  0  0  0
  -27.2657  -33.3598   26.2035 H   0  0  0  0  0  0
  -28.3880  -32.6877   25.0270 H   0  0  0  0  0  0
  -28.0791  -31.8432   26.5348 H   0  0  0  0  0  0
  -28.2595  -38.0077   24.7486 H   0  0  0  0  0  0
  -28.1051  -36.2594   24.6326 H   0  0  0  0  0  0
  -27.2293  -37.1458   25.8868 H   0  0  0  0  0  0
  -20.9408  -29.8735   21.6766 H   0  0  0  0  0  0
  -26.0165  -38.2787   24.1390 H   0  0  0  0  0  0
  -30.2957  -20.8844   22.5050 H   0  0  0  0  0  0
  -30.9546  -16.6655   22.7442 H   0  0  0  0  0  0
  -28.5979  -25.0373   21.7021 H   0  0  0  0  0  0
  -28.8269  -15.6559   20.2278 H   0  0  0  0  0  0
  -28.4851  -22.2301   21.4695 H   0  0  0  0  0  0
  -29.7322  -20.2243   18.2389 H   0  0  0  0  0  0
  -29.4668  -21.9539   18.1362 H   0  0  0  0  0  0
  1 25  1  0  0  0
  1 30  2  0  0  0
  1 80  1  0  0  0
  2  3  1  0  0  0
  2 25  1  0  0  0
  2 87  1  0  0  0
  2 88  1  0  0  0
  3  4  1  0  0  0
  3 89  1  0  0  0
  3 90  1  0  0  0
  4  5  1  0  0  0
  4 91  1  0  0  0
  4 92  1  0  0  0
  5  6  1  0  0  0
  5 26  1  0  0  0
  5 93  1  0  0  0
  6 25  1  0  0  0
  6 94  1  0  0  0
  6 95  1  0  0  0
  7  8  2  0  0  0
  7 26  1  0  0  0
  7 29  1  0  0  0
  8  9  1  0  0  0
  8 22  1  0  0  0
  9 10  1  0  0  0
  9 27  2  0  0  0
 10 11  2  0  0  0
 10 15  1  0  0  0
 11 12  1  0  0  0
 11 96  1  0  0  0
 12 13  2  0  0  0
 12 97  1  0  0  0
 13 14  1  0  0  0
 13 31  1  0  0  0
 14 15  2  0  0  0
 14 98  1  0  0  0
 15 99  1  0  0  0
 16 17  2  0  0  0
 16 21  1  0  0  0
 16 31  1  0  0  0
 17 18  1  0  0  0
 17100  1  0  0  0
 18 19  2  0  0  0
 18101  1  0  0  0
 19 20  1  0  0  0
 19 24  1  0  0  0
 20 21  2  0  0  0
 20102  1  0  0  0
 21 23  1  0  0  0
 22 28  1  0  0  0
 22 32  2  0  0  0
 26 27  1  0  0  0
 28103  1  0  0  0
 28104  1  0  0  0
 29105  1  0  0  0
 29106  1  0  0  0
 33 34  1  0  0  0
 33 66  1  0  0  0
 33 70  2  0  0  0
 34 36  1  0  0  0
 34 59  1  0  0  0
 34107  1  0  0  0
 35 44  2  0  0  0
 35 45  1  0  0  0
 35 68  1  0  0  0
 36 56  1  0  0  0
 36108  1  0  0  0
 37 39  1  0  0  0
 37 47  1  0  0  0
 37 66  1  0  0  0
 37109  1  0  0  0
 38 43  2  0  0  0
 38 46  1  0  0  0
 38 47  1  0  0  0
 39 64  1  0  0  0
 39 67  2  0  0  0
 40 52  1  0  0  0
 40 53  2  0  0  0
 40 58  1  0  0  0
 41110  1  0  0  0
 41111  1  0  0  0
 41112  1  0  0  0
 41 48  1  0  0  0
 42 43  1  0  0  0
 42 66  1  0  0  0
 42113  1  0  0  0
 42114  1  0  0  0
 43 44  1  0  0  0
 44115  1  0  0  0
 45 46  2  0  0  0
 45116  1  0  0  0
 46117  1  0  0  0
 47118  1  0  0  0
 47119  1  0  0  0
 48 56  1  0  0  0
 48 65  1  0  0  0
 48120  1  0  0  0
 49 50  1  0  0  0
 49 53  1  0  0  0
 49 64  1  0  0  0
 49121  1  0  0  0
 50 51  1  0  0  0
 50122  1  0  0  0
 50123  1  0  0  0
 51 52  1  0  0  0
 51124  1  0  0  0
 51125  1  0  0  0
 52126  1  0  0  0
 52127  1  0  0  0
 53 54  1  0  0  0
 54 55  2  0  0  0
 54128  1  0  0  0
 55 57  1  0  0  0
 55129  1  0  0  0
 56 69  2  0  0  0
 57 58  2  0  0  0
 57130  1  0  0  0
 58131  1  0  0  0
 59 60  1  0  0  0
 59 61  1  0  0  0
 59 62  1  0  0  0
 60132  1  0  0  0
 60133  1  0  0  0
 60134  1  0  0  0
 61135  1  0  0  0
 61136  1  0  0  0
 61137  1  0  0  0
 62138  1  0  0  0
 62139  1  0  0  0
 62140  1  0  0  0
 63 65  1  0  0  0
 63141  1  0  0  0
 63142  1  0  0  0
 63143  1  0  0  0
 64144  1  0  0  0
 65145  1  0  0  0
 68 79  1  0  0  0
 71 73  2  0  0  0
 71 75  1  0  0  0
 71146  1  0  0  0
 72 74  1  0  0  0
 72 75  2  0  0  0
 72147  1  0  0  0
 73 76  1  0  0  0
 73 77  1  0  0  0
 74 76  2  0  0  0
 74 80  1  0  0  0
 75 84  1  0  0  0
 76 85  1  0  0  0
 77 81  1  0  0  0
 77 82  2  0  0  0
 78 79  1  0  0  0
 78 81  1  0  0  0
 78 83  2  0  0  0
 79 86  1  0  0  0
 79148  1  0  0  0
 80149  1  0  0  0
 81150  1  0  0  0
 82151  1  0  0  0
 82152  1  0  0  0
M  CHG  1  82   1
M  ISO  4   1 100  68 101  79 101  80 100
M  END
> <chiral flag>
0

> <version>
0

> <s_m_source_file>
/data/baiqing/PycharmProjects/Reinvent-master-3.2/result/LINK_invent/BTK/process_docking_weight1_custom_product_contain_oxygen_bond_distance_aromatic_linkinvent_7_9_3/rearranged_h_0167.sdf

> <i_m_source_file_index>
75

> <r_mmod_Potential_Energy-OPLS-2005>
-126.665222167969

> <r_mmod_Stretch_Energy-OPLS-2005>
134.409759521484

> <r_mmod_Bend_Energy-OPLS-2005>
165.622604370117

> <r_mmod_Torsional_Energy-OPLS-2005>
261.571502685547

> <r_mmod_Improper_Torsional_Energy-OPLS-2005>
10.5574932098389

> <r_mmod_Van_der_Waal_Energy-OPLS-2005>
144.84033203125

> <r_mmod_Electrostatic_Energy-OPLS-2005>
-476.319152832031

> <r_mmod_Solvation_Energy-OPLS-2005>
-470.808044433594

> <b_mmod_Minimization_Converged-OPLS-2005>
0

> <r_mmod_RMS_Derivative-OPLS-2005>
5.45499801635742

$$$$
76
                    3D
 Structure written by MMmdl.
153161  0  0  1  0            999 V2000
  -30.6662  -14.6359   20.4205 C   0  0  0  0  0  0
  -30.4272  -12.3829   19.4482 C   0  0  0  0  0  0
  -29.5011  -12.4787   18.2184 C   0  0  0  0  0  0
  -28.0258  -12.3223   18.6349 C   0  0  0  0  0  0
  -27.6453  -13.2221   19.8426 C   0  0  2  0  0  0
  -28.6939  -13.1354   20.9750 C   0  0  0  0  0  0
  -25.2547  -13.8176   20.5653 C   0  0  0  0  0  0
  -24.1843  -13.0429   20.9179 C   0  0  0  0  0  0
  -24.6412  -11.6898   20.8720 C   0  0  0  0  0  0
  -23.9054  -10.4288   21.0379 C   0  0  0  0  0  0
  -24.3607   -9.4216   21.9156 C   0  0  0  0  0  0
  -23.6304   -8.2246   22.0737 C   0  0  0  0  0  0
  -22.4276   -8.0274   21.3527 C   0  0  0  0  0  0
  -21.9898   -9.0242   20.4609 C   0  0  0  0  0  0
  -22.7224  -10.2130   20.3026 C   0  0  0  0  0  0
  -21.6860   -6.0723   22.5284 C   0  0  0  0  0  0
  -21.4000   -6.5630   23.8203 C   0  0  0  0  0  0
  -21.3666   -5.6787   24.9172 C   0  0  0  0  0  0
  -21.6062   -4.3062   24.7213 C   0  0  0  0  0  0
  -21.8833   -3.8128   23.4342 C   0  0  0  0  0  0
  -21.9191   -4.6947   22.3386 C   0  0  0  0  0  0
  -22.7850  -13.5206   21.1828 C   0  0  0  0  0  0
  -22.1682   -4.2120   21.0979 F   0  0  0  0  0  0
  -21.5626   -3.4543   25.7726 F   0  0  0  0  0  0
  -30.0102  -13.4366   20.3918 N   0  0  0  0  0  0
  -26.2963  -12.9369   20.3220 N   0  0  0  0  0  0
  -25.9329  -11.6515   20.5684 N   0  0  0  0  0  0
  -22.0510  -12.8186   22.0398 N   0  0  0  0  0  0
  -25.4224  -15.1897   20.4106 N   0  0  0  0  0  0
  -31.8637  -14.7099   20.1388 O   0  0  0  0  0  0
  -21.6657   -6.8870   21.4241 O   0  0  0  0  0  0
  -22.3515  -14.5530   20.6723 O   0  0  0  0  0  0
  -24.6261  -31.8666   23.2043 C   0  0  0  0  0  0
  -25.9173  -32.4793   23.8358 C   0  0  1  0  0  0
  -27.2272  -27.3708   20.0858 C   0  0  0  0  0  0
  -25.6067  -33.8592   24.2341 N   0  0  0  0  0  0
  -23.4161  -30.4861   21.5486 C   0  0  2  0  0  0
  -24.8650  -28.9551   20.1037 C   0  0  0  0  0  0
  -22.7484  -29.4658   22.4969 C   0  0  0  0  0  0
  -18.0290  -28.1384   22.8477 C   0  0  0  0  0  0
  -24.1483  -36.7254   23.2618 C   0  0  0  0  0  0
  -25.9536  -30.8076   21.3702 C   0  0  0  0  0  0
  -26.0347  -29.4409   20.7080 C   0  0  0  0  0  0
  -27.2242  -28.6585   20.6932 C   0  0  0  0  0  0
  -26.0422  -26.9262   19.4604 C   0  0  0  0  0  0
  -24.8677  -27.6992   19.4771 C   0  0  0  0  0  0
  -23.6266  -29.8264   20.1629 C   0  0  0  0  0  0
  -25.4099  -36.3055   24.0321 C   0  0  1  0  0  0
  -20.5889  -28.3698   23.1265 C   0  0  2  0  0  0
  -20.6774  -26.9417   22.5389 C   0  0  0  0  0  0
  -19.5766  -26.6378   21.5190 C   0  0  0  0  0  0
  -18.1945  -26.7929   22.1587 C   0  0  0  0  0  0
  -19.1538  -28.8872   23.2863 C   0  0  0  0  0  0
  -18.9467  -30.1487   23.8890 C   0  0  0  0  0  0
  -17.6459  -30.6602   24.0558 C   0  0  0  0  0  0
  -25.9067  -34.9450   23.5085 C   0  0  0  0  0  0
  -16.5349  -29.9091   23.6353 C   0  0  0  0  0  0
  -16.7273  -28.6500   23.0385 C   0  0  0  0  0  0
  -26.4605  -31.6556   25.0695 C   0  0  0  0  0  0
  -25.3872  -31.3752   26.1434 C   0  0  0  0  0  0
  -27.0420  -30.2971   24.6115 C   0  0  0  0  0  0
  -27.6203  -32.4256   25.7482 C   0  0  0  0  0  0
  -27.5578  -37.1751   24.8471 C   0  0  0  0  0  0
  -21.4206  -29.3049   22.3675 N   0  0  0  0  0  0
  -26.4262  -37.3767   23.9468 N   0  0  0  0  0  0
  -24.6831  -31.0671   22.0993 N   0  0  0  0  0  0
  -23.4198  -28.8164   23.3019 O   0  0  0  0  0  0
  -28.2809  -26.4643   20.1568 O   0  0  0  0  0  0
  -26.5573  -34.8912   22.4613 O   0  0  0  0  0  0
  -23.5419  -32.1477   23.7384 O   0  0  0  0  0  0
  -29.3992  -18.2468   20.6128 C   0  0  0  0  0  0
  -30.6105  -19.8420   19.2273 C   0  0  0  0  0  0
  -31.1535  -17.4492   19.1462 C   0  0  0  0  0  0
  -29.6048  -19.6021   20.1817 C   0  0  0  0  0  0
  -30.1662  -17.1392   20.1193 C   0  0  0  0  0  0
  -31.3766  -18.7757   18.7184 C   0  0  0  0  0  0
  -28.0057  -25.4275   21.0469 C   0  0  0  0  0  0
  -28.1658  -24.0630   21.0083 C   0  0  0  0  0  0
  -28.8257  -23.2296   19.9738 C   0  0  0  0  0  0
  -28.8281  -20.8005   20.7980 C   0  0  0  0  0  0
  -29.9031  -15.7649   20.5576 N   0  0  0  0  0  0
  -28.3872  -21.9388   19.9352 N   0  0  0  0  0  0
  -29.6895  -23.6226   19.1885 O   0  0  0  0  0  0
  -27.6661  -23.3981   22.0623 O   0  0  0  0  0  0
  -32.3414  -19.0340   17.8035 F   0  0  0  0  0  0
  -31.4700  -12.4839   19.1385 H   0  0  0  0  0  0
  -30.3474  -11.4027   19.9183 H   0  0  0  0  0  0
  -29.7650  -11.7118   17.4895 H   0  0  0  0  0  0
  -29.6414  -13.4389   17.7196 H   0  0  0  0  0  0
  -27.8714  -11.2726   18.8869 H   0  0  0  0  0  0
  -27.3701  -12.5205   17.7858 H   0  0  0  0  0  0
  -27.6419  -14.2448   19.4637 H   0  0  0  0  0  0
  -28.7003  -12.1403   21.4232 H   0  0  0  0  0  0
  -28.4496  -13.8313   21.7791 H   0  0  0  0  0  0
  -25.2762   -9.5712   22.4720 H   0  0  0  0  0  0
  -24.0019   -7.4630   22.7459 H   0  0  0  0  0  0
  -21.0825   -8.8737   19.8906 H   0  0  0  0  0  0
  -22.3669  -10.9664   19.6122 H   0  0  0  0  0  0
  -21.2009   -7.6136   23.9699 H   0  0  0  0  0  0
  -21.1480   -6.0519   25.9071 H   0  0  0  0  0  0
  -22.0617   -2.7590   23.2850 H   0  0  0  0  0  0
  -22.4152  -11.9862   22.4791 H   0  0  0  0  0  0
  -21.1108  -13.1165   22.2580 H   0  0  0  0  0  0
  -24.6441  -15.8340   20.5027 H   0  0  0  0  0  0
  -26.2613  -15.6368   20.0625 H   0  0  0  0  0  0
  -26.7226  -32.5491   23.1096 H   0  0  0  0  0  0
  -25.0436  -33.9727   25.0644 H   0  0  0  0  0  0
  -22.7043  -31.3029   21.4061 H   0  0  0  0  0  0
  -23.3773  -35.9561   23.3285 H   0  0  0  0  0  0
  -24.3576  -36.8855   22.2027 H   0  0  0  0  0  0
  -23.7144  -37.6423   23.6637 H   0  0  0  0  0  0
  -26.0690  -31.5745   20.5996 H   0  0  0  0  0  0
  -26.8386  -30.8580   21.9917 H   0  0  0  0  0  0
  -28.1213  -29.0109   21.1818 H   0  0  0  0  0  0
  -26.0223  -25.9498   18.9966 H   0  0  0  0  0  0
  -23.9664  -27.3217   19.0144 H   0  0  0  0  0  0
  -23.7351  -30.6067   19.4089 H   0  0  0  0  0  0
  -22.7460  -29.2561   19.8664 H   0  0  0  0  0  0
  -25.1206  -36.1902   25.0785 H   0  0  0  0  0  0
  -20.9955  -28.3276   24.1405 H   0  0  0  0  0  0
  -20.5713  -26.2301   23.3577 H   0  0  0  0  0  0
  -21.6624  -26.7466   22.1155 H   0  0  0  0  0  0
  -19.6942  -25.6299   21.1202 H   0  0  0  0  0  0
  -19.6689  -27.3204   20.6740 H   0  0  0  0  0  0
  -17.4182  -26.6738   21.4011 H   0  0  0  0  0  0
  -18.0334  -26.0060   22.8964 H   0  0  0  0  0  0
  -19.7969  -30.7304   24.2242 H   0  0  0  0  0  0
  -17.5026  -31.6281   24.5150 H   0  0  0  0  0  0
  -15.5357  -30.2995   23.7698 H   0  0  0  0  0  0
  -15.8667  -28.0812   22.7120 H   0  0  0  0  0  0
  -24.6009  -30.7113   25.7806 H   0  0  0  0  0  0
  -24.9120  -32.2961   26.4834 H   0  0  0  0  0  0
  -25.8206  -30.8942   27.0216 H   0  0  0  0  0  0
  -26.2950  -29.6674   24.1233 H   0  0  0  0  0  0
  -27.4236  -29.7235   25.4584 H   0  0  0  0  0  0
  -27.8786  -30.4262   23.9234 H   0  0  0  0  0  0
  -27.2911  -33.3619   26.1995 H   0  0  0  0  0  0
  -28.4115  -32.6673   25.0378 H   0  0  0  0  0  0
  -28.0767  -31.8375   26.5437 H   0  0  0  0  0  0
  -28.2536  -38.0103   24.7545 H   0  0  0  0  0  0
  -28.1090  -36.2616   24.6218 H   0  0  0  0  0  0
  -27.2312  -37.1289   25.8871 H   0  0  0  0  0  0
  -20.9411  -29.8744   21.6849 H   0  0  0  0  0  0
  -26.0135  -38.2816   24.1574 H   0  0  0  0  0  0
  -28.6389  -18.0591   21.3560 H   0  0  0  0  0  0
  -30.8195  -20.8495   18.8925 H   0  0  0  0  0  0
  -31.7632  -16.6792   18.7001 H   0  0  0  0  0  0
  -27.5345  -25.8491   21.9282 H   0  0  0  0  0  0
  -29.4075  -21.1874   21.6366 H   0  0  0  0  0  0
  -27.9111  -20.3999   21.2361 H   0  0  0  0  0  0
  -28.9710  -15.5934   20.8989 H   0  0  0  0  0  0
  -27.3783  -21.9534   19.9724 H   0  0  0  0  0  0
  -27.3004  -24.0400   22.6557 H   0  0  0  0  0  0
  1 25  1  0  0  0
  1 30  2  0  0  0
  1 81  1  0  0  0
  2  3  1  0  0  0
  2 25  1  0  0  0
  2 86  1  0  0  0
  2 87  1  0  0  0
  3  4  1  0  0  0
  3 88  1  0  0  0
  3 89  1  0  0  0
  4  5  1  0  0  0
  4 90  1  0  0  0
  4 91  1  0  0  0
  5  6  1  0  0  0
  5 26  1  0  0  0
  5 92  1  0  0  0
  6 25  1  0  0  0
  6 93  1  0  0  0
  6 94  1  0  0  0
  7  8  2  0  0  0
  7 26  1  0  0  0
  7 29  1  0  0  0
  8  9  1  0  0  0
  8 22  1  0  0  0
  9 10  1  0  0  0
  9 27  2  0  0  0
 10 11  2  0  0  0
 10 15  1  0  0  0
 11 12  1  0  0  0
 11 95  1  0  0  0
 12 13  2  0  0  0
 12 96  1  0  0  0
 13 14  1  0  0  0
 13 31  1  0  0  0
 14 15  2  0  0  0
 14 97  1  0  0  0
 15 98  1  0  0  0
 16 17  2  0  0  0
 16 21  1  0  0  0
 16 31  1  0  0  0
 17 18  1  0  0  0
 17 99  1  0  0  0
 18 19  2  0  0  0
 18100  1  0  0  0
 19 20  1  0  0  0
 19 24  1  0  0  0
 20 21  2  0  0  0
 20101  1  0  0  0
 21 23  1  0  0  0
 22 28  1  0  0  0
 22 32  2  0  0  0
 26 27  1  0  0  0
 28102  1  0  0  0
 28103  1  0  0  0
 29104  1  0  0  0
 29105  1  0  0  0
 33 34  1  0  0  0
 33 66  1  0  0  0
 33 70  2  0  0  0
 34 36  1  0  0  0
 34 59  1  0  0  0
 34106  1  0  0  0
 35 44  2  0  0  0
 35 45  1  0  0  0
 35 68  1  0  0  0
 36 56  1  0  0  0
 36107  1  0  0  0
 37 39  1  0  0  0
 37 47  1  0  0  0
 37 66  1  0  0  0
 37108  1  0  0  0
 38 43  2  0  0  0
 38 46  1  0  0  0
 38 47  1  0  0  0
 39 64  1  0  0  0
 39 67  2  0  0  0
 40 52  1  0  0  0
 40 53  2  0  0  0
 40 58  1  0  0  0
 41109  1  0  0  0
 41110  1  0  0  0
 41111  1  0  0  0
 41 48  1  0  0  0
 42 43  1  0  0  0
 42 66  1  0  0  0
 42112  1  0  0  0
 42113  1  0  0  0
 43 44  1  0  0  0
 44114  1  0  0  0
 45 46  2  0  0  0
 45115  1  0  0  0
 46116  1  0  0  0
 47117  1  0  0  0
 47118  1  0  0  0
 48 56  1  0  0  0
 48 65  1  0  0  0
 48119  1  0  0  0
 49 50  1  0  0  0
 49 53  1  0  0  0
 49 64  1  0  0  0
 49120  1  0  0  0
 50 51  1  0  0  0
 50121  1  0  0  0
 50122  1  0  0  0
 51 52  1  0  0  0
 51123  1  0  0  0
 51124  1  0  0  0
 52125  1  0  0  0
 52126  1  0  0  0
 53 54  1  0  0  0
 54 55  2  0  0  0
 54127  1  0  0  0
 55 57  1  0  0  0
 55128  1  0  0  0
 56 69  2  0  0  0
 57 58  2  0  0  0
 57129  1  0  0  0
 58130  1  0  0  0
 59 60  1  0  0  0
 59 61  1  0  0  0
 59 62  1  0  0  0
 60131  1  0  0  0
 60132  1  0  0  0
 60133  1  0  0  0
 61134  1  0  0  0
 61135  1  0  0  0
 61136  1  0  0  0
 62137  1  0  0  0
 62138  1  0  0  0
 62139  1  0  0  0
 63 65  1  0  0  0
 63140  1  0  0  0
 63141  1  0  0  0
 63142  1  0  0  0
 64143  1  0  0  0
 65144  1  0  0  0
 68 77  1  0  0  0
 71 74  2  0  0  0
 71 75  1  0  0  0
 71145  1  0  0  0
 72 74  1  0  0  0
 72 76  2  0  0  0
 72146  1  0  0  0
 73 75  2  0  0  0
 73 76  1  0  0  0
 73147  1  0  0  0
 74 80  1  0  0  0
 75 81  1  0  0  0
 76 85  1  0  0  0
 77 78  2  0  0  0
 77148  1  0  0  0
 78 79  1  0  0  0
 78 84  1  0  0  0
 79 82  1  0  0  0
 79 83  2  0  0  0
 80 82  1  0  0  0
 80149  1  0  0  0
 80150  1  0  0  0
 81151  1  0  0  0
 82152  1  0  0  0
 84153  1  0  0  0
M  ISO  4   1 100  68 101  77 101  81 100
M  END
> <chiral flag>
0

> <version>
0

> <s_m_source_file>
/data/baiqing/PycharmProjects/Reinvent-master-3.2/result/LINK_invent/BTK/process_docking_weight1_custom_product_contain_oxygen_bond_distance_aromatic_linkinvent_7_9_3/rearranged_h_0167.sdf

> <i_m_source_file_index>
76

> <r_mmod_Potential_Energy-OPLS-2005>
46.2901916503906

> <r_mmod_Stretch_Energy-OPLS-2005>
63.9835510253906

> <r_mmod_Bend_Energy-OPLS-2005>
156.324661254883

> <r_mmod_Torsional_Energy-OPLS-2005>
297.06005859375

> <r_mmod_Improper_Torsional_Energy-OPLS-2005>
11.0269117355347

> <r_mmod_Van_der_Waal_Energy-OPLS-2005>
145.803085327148

> <r_mmod_Electrostatic_Energy-OPLS-2005>
-428.595489501953

> <r_mmod_Solvation_Energy-OPLS-2005>
-250.789916992188

> <b_mmod_Minimization_Converged-OPLS-2005>
0

> <r_mmod_RMS_Derivative-OPLS-2005>
6.01849889755249

$$$$
77
                    3D
 Structure written by MMmdl.
165173  0  0  1  0            999 V2000
  -30.7571  -14.4397   20.6201 C   0  0  0  0  0  0
  -30.4099  -12.3092   19.4227 C   0  0  0  0  0  0
  -29.4870  -12.5094   18.2066 C   0  0  0  0  0  0
  -28.0114  -12.3665   18.6219 C   0  0  0  0  0  0
  -27.6598  -13.2133   19.8744 C   0  0  2  0  0  0
  -28.6996  -13.0144   20.9993 C   0  0  0  0  0  0
  -25.2574  -13.8182   20.5686 C   0  0  0  0  0  0
  -24.1833  -13.0447   20.9181 C   0  0  0  0  0  0
  -24.6399  -11.6921   20.8740 C   0  0  0  0  0  0
  -23.9069  -10.4304   21.0405 C   0  0  0  0  0  0
  -24.3619   -9.4217   21.9184 C   0  0  0  0  0  0
  -23.6294   -8.2253   22.0755 C   0  0  0  0  0  0
  -22.4278   -8.0290   21.3542 C   0  0  0  0  0  0
  -21.9916   -9.0263   20.4642 C   0  0  0  0  0  0
  -22.7244  -10.2141   20.3052 C   0  0  0  0  0  0
  -21.6849   -6.0744   22.5276 C   0  0  0  0  0  0
  -21.4018   -6.5646   23.8214 C   0  0  0  0  0  0
  -21.3656   -5.6791   24.9170 C   0  0  0  0  0  0
  -21.6045   -4.3059   24.7216 C   0  0  0  0  0  0
  -21.8818   -3.8154   23.4338 C   0  0  0  0  0  0
  -21.9198   -4.6974   22.3397 C   0  0  0  0  0  0
  -22.7851  -13.5239   21.1835 C   0  0  0  0  0  0
  -22.1660   -4.2162   21.0974 F   0  0  0  0  0  0
  -21.5627   -3.4541   25.7730 F   0  0  0  0  0  0
  -30.0338  -13.3000   20.4457 N   0  0  0  0  0  0
  -26.3013  -12.9368   20.3369 N   0  0  0  0  0  0
  -25.9330  -11.6522   20.5780 N   0  0  0  0  0  0
  -22.0492  -12.8228   22.0387 N   0  0  0  0  0  0
  -25.4301  -15.1900   20.4099 N   0  0  0  0  0  0
  -31.8375  -14.6234   20.0540 O   0  0  0  0  0  0
  -21.6640   -6.8885   21.4242 O   0  0  0  0  0  0
  -22.3539  -14.5551   20.6689 O   0  0  0  0  0  0
  -24.6153  -31.8678   23.2105 C   0  0  0  0  0  0
  -25.9044  -32.4827   23.8390 C   0  0  1  0  0  0
  -27.2270  -27.4126   20.0911 C   0  0  0  0  0  0
  -25.5903  -33.8626   24.2323 N   0  0  0  0  0  0
  -23.4032  -30.4937   21.5524 C   0  0  2  0  0  0
  -24.8455  -28.9608   20.1130 C   0  0  0  0  0  0
  -22.7420  -29.4657   22.4995 C   0  0  0  0  0  0
  -18.0279  -28.1372   22.8485 C   0  0  0  0  0  0
  -24.1494  -36.7306   23.2637 C   0  0  0  0  0  0
  -25.9353  -30.8255   21.3691 C   0  0  0  0  0  0
  -26.0072  -29.4588   20.7144 C   0  0  0  0  0  0
  -27.1956  -28.6896   20.7049 C   0  0  0  0  0  0
  -26.0444  -26.9450   19.4681 C   0  0  0  0  0  0
  -24.8606  -27.7044   19.4881 C   0  0  0  0  0  0
  -23.6091  -29.8307   20.1652 C   0  0  0  0  0  0
  -25.4116  -36.3118   24.0342 C   0  0  1  0  0  0
  -20.5869  -28.3657   23.1323 C   0  0  2  0  0  0
  -20.6770  -26.9399   22.5413 C   0  0  0  0  0  0
  -19.5746  -26.6385   21.5214 C   0  0  0  0  0  0
  -18.1918  -26.7919   22.1619 C   0  0  0  0  0  0
  -19.1528  -28.8829   23.2897 C   0  0  0  0  0  0
  -18.9462  -30.1434   23.8913 C   0  0  0  0  0  0
  -17.6464  -30.6576   24.0560 C   0  0  0  0  0  0
  -25.9052  -34.9481   23.5134 C   0  0  0  0  0  0
  -16.5351  -29.9079   23.6331 C   0  0  0  0  0  0
  -16.7268  -28.6497   23.0345 C   0  0  0  0  0  0
  -26.4464  -31.6597   25.0718 C   0  0  0  0  0  0
  -25.3730  -31.3695   26.1466 C   0  0  0  0  0  0
  -27.0308  -30.3048   24.6094 C   0  0  0  0  0  0
  -27.6039  -32.4308   25.7488 C   0  0  0  0  0  0
  -27.5585  -37.1804   24.8464 C   0  0  0  0  0  0
  -21.4151  -29.3022   22.3729 N   0  0  0  0  0  0
  -26.4295  -37.3803   23.9419 N   0  0  0  0  0  0
  -24.6697  -31.0768   22.1018 N   0  0  0  0  0  0
  -23.4195  -28.8196   23.3035 O   0  0  0  0  0  0
  -28.4070  -26.6843   20.1233 O   0  0  0  0  0  0
  -26.5615  -34.8929   22.4698 O   0  0  0  0  0  0
  -23.5337  -32.1433   23.7486 O   0  0  0  0  0  0
  -29.4963  -19.9702   22.9018 C   0  0  0  0  0  0
  -29.9113  -19.9575   20.5158 C   0  0  0  0  0  0
  -29.8995  -18.6173   23.0010 C   0  0  0  0  0  0
  -30.3529  -17.9260   21.8440 C   0  0  0  0  0  0
  -29.5195  -20.6660   21.6745 C   0  0  0  0  0  0
  -30.3260  -18.6070   20.6017 C   0  0  0  0  0  0
  -31.1910  -17.3974   26.4906 C   0  0  0  0  0  0
  -29.0692  -24.3999   20.8402 C   0  0  0  0  0  0
  -32.5359  -16.9687   27.0577 C   0  0  0  0  0  0
  -29.8620  -17.9612   24.3754 C   0  0  0  0  0  0
  -31.0076  -16.5358   21.9337 C   0  0  0  0  0  0
  -31.1994  -18.0925   25.1287 C   0  0  0  0  0  0
  -29.3139  -22.9085   20.5083 C   0  0  0  0  0  0
  -28.4072  -25.2816   19.7599 C   0  0  0  0  0  0
  -29.1608  -22.0297   21.6774 N   0  0  0  0  0  0
  -30.2441  -15.3747   21.4416 N   0  0  0  0  0  0
  -30.1467  -17.1900   27.1146 O   0  0  0  0  0  0
  -29.3674  -24.8474   21.9548 O   0  0  0  0  0  0
  -30.7439  -17.9744   19.4785 F   0  0  0  0  0  0
  -31.4547  -12.3901   19.1182 H   0  0  0  0  0  0
  -30.3000  -11.3015   19.8253 H   0  0  0  0  0  0
  -29.7275  -11.7834   17.4287 H   0  0  0  0  0  0
  -29.6531  -13.4958   17.7698 H   0  0  0  0  0  0
  -27.8268  -11.3109   18.8240 H   0  0  0  0  0  0
  -27.3587  -12.6344   17.7901 H   0  0  0  0  0  0
  -27.6999  -14.2592   19.5693 H   0  0  0  0  0  0
  -28.6704  -11.9881   21.3674 H   0  0  0  0  0  0
  -28.4526  -13.6391   21.8576 H   0  0  0  0  0  0
  -25.2764   -9.5696   22.4761 H   0  0  0  0  0  0
  -24.0005   -7.4643   22.7479 H   0  0  0  0  0  0
  -21.0852   -8.8783   19.8940 H   0  0  0  0  0  0
  -22.3710  -10.9683   19.6161 H   0  0  0  0  0  0
  -21.2006   -7.6152   23.9719 H   0  0  0  0  0  0
  -21.1476   -6.0520   25.9070 H   0  0  0  0  0  0
  -22.0602   -2.7620   23.2830 H   0  0  0  0  0  0
  -22.4100  -11.9878   22.4763 H   0  0  0  0  0  0
  -21.1105  -13.1256   22.2584 H   0  0  0  0  0  0
  -24.6677  -15.8498   20.5181 H   0  0  0  0  0  0
  -26.2912  -15.6272   20.1049 H   0  0  0  0  0  0
  -26.7109  -32.5535   23.1141 H   0  0  0  0  0  0
  -25.0053  -33.9781   25.0471 H   0  0  0  0  0  0
  -22.6929  -31.3112   21.4152 H   0  0  0  0  0  0
  -23.3763  -35.9633   23.3307 H   0  0  0  0  0  0
  -24.3581  -36.8927   22.2051 H   0  0  0  0  0  0
  -23.7230  -37.6506   23.6642 H   0  0  0  0  0  0
  -26.0545  -31.5921   20.6023 H   0  0  0  0  0  0
  -26.8218  -30.8739   21.9897 H   0  0  0  0  0  0
  -28.0907  -29.0692   21.1778 H   0  0  0  0  0  0
  -25.9968  -26.0064   18.9393 H   0  0  0  0  0  0
  -23.9711  -27.3201   19.0081 H   0  0  0  0  0  0
  -23.7159  -30.6088   19.4080 H   0  0  0  0  0  0
  -22.7319  -29.2536   19.8672 H   0  0  0  0  0  0
  -25.1282  -36.1980   25.0830 H   0  0  0  0  0  0
  -20.9947  -28.3211   24.1453 H   0  0  0  0  0  0
  -20.5695  -26.2267   23.3600 H   0  0  0  0  0  0
  -21.6634  -26.7456   22.1187 H   0  0  0  0  0  0
  -19.6924  -25.6311   21.1213 H   0  0  0  0  0  0
  -19.6679  -27.3220   20.6756 H   0  0  0  0  0  0
  -17.4195  -26.6677   21.4015 H   0  0  0  0  0  0
  -18.0306  -26.0060   22.9020 H   0  0  0  0  0  0
  -19.7943  -30.7226   24.2296 H   0  0  0  0  0  0
  -17.5027  -31.6265   24.5142 H   0  0  0  0  0  0
  -15.5352  -30.2977   23.7656 H   0  0  0  0  0  0
  -15.8672  -28.0813   22.7057 H   0  0  0  0  0  0
  -24.5911  -30.7041   25.7794 H   0  0  0  0  0  0
  -24.8902  -32.2840   26.4912 H   0  0  0  0  0  0
  -25.8072  -30.8859   27.0223 H   0  0  0  0  0  0
  -26.2849  -29.6816   24.1150 H   0  0  0  0  0  0
  -27.4099  -29.7278   25.4540 H   0  0  0  0  0  0
  -27.8677  -30.4395   23.9238 H   0  0  0  0  0  0
  -27.2665  -33.3611   26.2067 H   0  0  0  0  0  0
  -28.3845  -32.6868   25.0311 H   0  0  0  0  0  0
  -28.0706  -31.8430   26.5404 H   0  0  0  0  0  0
  -28.2584  -38.0117   24.7539 H   0  0  0  0  0  0
  -28.1100  -36.2651   24.6252 H   0  0  0  0  0  0
  -27.2304  -37.1408   25.8865 H   0  0  0  0  0  0
  -20.9306  -29.8748   21.6957 H   0  0  0  0  0  0
  -26.0196  -38.2887   24.1418 H   0  0  0  0  0  0
  -29.1827  -20.4888   23.7975 H   0  0  0  0  0  0
  -29.9337  -20.4400   19.5502 H   0  0  0  0  0  0
  -33.1708  -17.8381   27.2260 H   0  0  0  0  0  0
  -33.0410  -16.2984   26.3624 H   0  0  0  0  0  0
  -32.4035  -16.4463   28.0047 H   0  0  0  0  0  0
  -29.5707  -16.9147   24.2792 H   0  0  0  0  0  0
  -29.0661  -18.4240   24.9608 H   0  0  0  0  0  0
  -31.3042  -16.3068   22.9540 H   0  0  0  0  0  0
  -31.9616  -16.6285   21.4125 H   0  0  0  0  0  0
  -32.0124  -17.6718   24.5380 H   0  0  0  0  0  0
  -31.4409  -19.1439   25.2828 H   0  0  0  0  0  0
  -30.3246  -22.8141   20.1074 H   0  0  0  0  0  0
  -28.6234  -22.6019   19.7206 H   0  0  0  0  0  0
  -27.4160  -24.8584   19.6332 H   0  0  0  0  0  0
  -28.9344  -25.1534   18.8138 H   0  0  0  0  0  0
  -29.1046  -22.5190   22.5691 H   0  0  0  0  0  0
  -29.3459  -15.1872   21.8600 H   0  0  0  0  0  0
  1 25  1  0  0  0
  1 30  2  0  0  0
  1 86  1  0  0  0
  2  3  1  0  0  0
  2 25  1  0  0  0
  2 90  1  0  0  0
  2 91  1  0  0  0
  3  4  1  0  0  0
  3 92  1  0  0  0
  3 93  1  0  0  0
  4  5  1  0  0  0
  4 94  1  0  0  0
  4 95  1  0  0  0
  5  6  1  0  0  0
  5 26  1  0  0  0
  5 96  1  0  0  0
  6 25  1  0  0  0
  6 97  1  0  0  0
  6 98  1  0  0  0
  7  8  2  0  0  0
  7 26  1  0  0  0
  7 29  1  0  0  0
  8  9  1  0  0  0
  8 22  1  0  0  0
  9 10  1  0  0  0
  9 27  2  0  0  0
 10 11  2  0  0  0
 10 15  1  0  0  0
 11 12  1  0  0  0
 11 99  1  0  0  0
 12 13  2  0  0  0
 12100  1  0  0  0
 13 14  1  0  0  0
 13 31  1  0  0  0
 14 15  2  0  0  0
 14101  1  0  0  0
 15102  1  0  0  0
 16 17  2  0  0  0
 16 21  1  0  0  0
 16 31  1  0  0  0
 17 18  1  0  0  0
 17103  1  0  0  0
 18 19  2  0  0  0
 18104  1  0  0  0
 19 20  1  0  0  0
 19 24  1  0  0  0
 20 21  2  0  0  0
 20105  1  0  0  0
 21 23  1  0  0  0
 22 28  1  0  0  0
 22 32  2  0  0  0
 26 27  1  0  0  0
 28106  1  0  0  0
 28107  1  0  0  0
 29108  1  0  0  0
 29109  1  0  0  0
 33 34  1  0  0  0
 33 66  1  0  0  0
 33 70  2  0  0  0
 34 36  1  0  0  0
 34 59  1  0  0  0
 34110  1  0  0  0
 35 44  2  0  0  0
 35 45  1  0  0  0
 35 68  1  0  0  0
 36 56  1  0  0  0
 36111  1  0  0  0
 37 39  1  0  0  0
 37 47  1  0  0  0
 37 66  1  0  0  0
 37112  1  0  0  0
 38 43  2  0  0  0
 38 46  1  0  0  0
 38 47  1  0  0  0
 39 64  1  0  0  0
 39 67  2  0  0  0
 40 52  1  0  0  0
 40 53  2  0  0  0
 40 58  1  0  0  0
 41113  1  0  0  0
 41114  1  0  0  0
 41115  1  0  0  0
 41 48  1  0  0  0
 42 43  1  0  0  0
 42 66  1  0  0  0
 42116  1  0  0  0
 42117  1  0  0  0
 43 44  1  0  0  0
 44118  1  0  0  0
 45 46  2  0  0  0
 45119  1  0  0  0
 46120  1  0  0  0
 47121  1  0  0  0
 47122  1  0  0  0
 48 56  1  0  0  0
 48 65  1  0  0  0
 48123  1  0  0  0
 49 50  1  0  0  0
 49 53  1  0  0  0
 49 64  1  0  0  0
 49124  1  0  0  0
 50 51  1  0  0  0
 50125  1  0  0  0
 50126  1  0  0  0
 51 52  1  0  0  0
 51127  1  0  0  0
 51128  1  0  0  0
 52129  1  0  0  0
 52130  1  0  0  0
 53 54  1  0  0  0
 54 55  2  0  0  0
 54131  1  0  0  0
 55 57  1  0  0  0
 55132  1  0  0  0
 56 69  2  0  0  0
 57 58  2  0  0  0
 57133  1  0  0  0
 58134  1  0  0  0
 59 60  1  0  0  0
 59 61  1  0  0  0
 59 62  1  0  0  0
 60135  1  0  0  0
 60136  1  0  0  0
 60137  1  0  0  0
 61138  1  0  0  0
 61139  1  0  0  0
 61140  1  0  0  0
 62141  1  0  0  0
 62142  1  0  0  0
 62143  1  0  0  0
 63 65  1  0  0  0
 63144  1  0  0  0
 63145  1  0  0  0
 63146  1  0  0  0
 64147  1  0  0  0
 65148  1  0  0  0
 68 84  1  0  0  0
 71 73  2  0  0  0
 71 75  1  0  0  0
 71149  1  0  0  0
 72 75  2  0  0  0
 72 76  1  0  0  0
 72150  1  0  0  0
 73 74  1  0  0  0
 73 80  1  0  0  0
 74 76  2  0  0  0
 74 81  1  0  0  0
 75 85  1  0  0  0
 76 89  1  0  0  0
 77 79  1  0  0  0
 77 82  1  0  0  0
 77 87  2  0  0  0
 78 83  1  0  0  0
 78 84  1  0  0  0
 78 88  2  0  0  0
 79151  1  0  0  0
 79152  1  0  0  0
 79153  1  0  0  0
 80 82  1  0  0  0
 80154  1  0  0  0
 80155  1  0  0  0
 81 86  1  0  0  0
 81156  1  0  0  0
 81157  1  0  0  0
 82158  1  0  0  0
 82159  1  0  0  0
 83 85  1  0  0  0
 83160  1  0  0  0
 83161  1  0  0  0
 84162  1  0  0  0
 84163  1  0  0  0
 85164  1  0  0  0
 86165  1  0  0  0
M  ISO  4   1 100  68 101  84 101  86 100
M  END
> <chiral flag>
0

> <version>
0

> <s_m_source_file>
/data/baiqing/PycharmProjects/Reinvent-master-3.2/result/LINK_invent/BTK/process_docking_weight1_custom_product_contain_oxygen_bond_distance_aromatic_linkinvent_7_9_3/rearranged_h_0167.sdf

> <i_m_source_file_index>
77

> <r_mmod_Potential_Energy-OPLS-2005>
-92.9467010498047

> <r_mmod_Stretch_Energy-OPLS-2005>
41.5577735900879

> <r_mmod_Bend_Energy-OPLS-2005>
117.211784362793

> <r_mmod_Torsional_Energy-OPLS-2005>
193.331268310547

> <r_mmod_Improper_Torsional_Energy-OPLS-2005>
3.72449707984924

> <r_mmod_Van_der_Waal_Energy-OPLS-2005>
157.912536621094

> <r_mmod_Electrostatic_Energy-OPLS-2005>
-365.673187255859

> <r_mmod_Solvation_Energy-OPLS-2005>
-254.085403442383

> <b_mmod_Minimization_Converged-OPLS-2005>
0

> <r_mmod_RMS_Derivative-OPLS-2005>
1.67161011695862

$$$$
78
                    3D
 Structure written by MMmdl.
156164  0  0  1  0            999 V2000
  -30.6881  -14.4376   20.6195 C   0  0  0  0  0  0
  -30.4264  -12.3041   19.4094 C   0  0  0  0  0  0
  -29.4943  -12.5232   18.1992 C   0  0  0  0  0  0
  -28.0140  -12.3762   18.6083 C   0  0  0  0  0  0
  -27.6641  -13.1971   19.8783 C   0  0  2  0  0  0
  -28.6992  -12.9349   20.9937 C   0  0  0  0  0  0
  -25.2612  -13.8139   20.5667 C   0  0  0  0  0  0
  -24.1860  -13.0440   20.9180 C   0  0  0  0  0  0
  -24.6402  -11.6897   20.8756 C   0  0  0  0  0  0
  -23.9077  -10.4295   21.0432 C   0  0  0  0  0  0
  -24.3624   -9.4199   21.9202 C   0  0  0  0  0  0
  -23.6300   -8.2232   22.0756 C   0  0  0  0  0  0
  -22.4280   -8.0286   21.3540 C   0  0  0  0  0  0
  -21.9927   -9.0269   20.4647 C   0  0  0  0  0  0
  -22.7266  -10.2142   20.3059 C   0  0  0  0  0  0
  -21.6858   -6.0753   22.5287 C   0  0  0  0  0  0
  -21.4022   -6.5647   23.8222 C   0  0  0  0  0  0
  -21.3632   -5.6792   24.9176 C   0  0  0  0  0  0
  -21.6036   -4.3052   24.7220 C   0  0  0  0  0  0
  -21.8831   -3.8159   23.4336 C   0  0  0  0  0  0
  -21.9198   -4.6983   22.3400 C   0  0  0  0  0  0
  -22.7892  -13.5246   21.1851 C   0  0  0  0  0  0
  -22.1677   -4.2175   21.0973 F   0  0  0  0  0  0
  -21.5594   -3.4517   25.7722 F   0  0  0  0  0  0
  -30.0353  -13.2558   20.4578 N   0  0  0  0  0  0
  -26.3023  -12.9286   20.3349 N   0  0  0  0  0  0
  -25.9317  -11.6461   20.5756 N   0  0  0  0  0  0
  -22.0513  -12.8223   22.0386 N   0  0  0  0  0  0
  -25.4379  -15.1852   20.4076 N   0  0  0  0  0  0
  -31.7834  -14.6742   20.1008 O   0  0  0  0  0  0
  -21.6637   -6.8895   21.4243 O   0  0  0  0  0  0
  -22.3596  -14.5567   20.6718 O   0  0  0  0  0  0
  -24.6086  -31.8704   23.2135 C   0  0  0  0  0  0
  -25.8996  -32.4822   23.8409 C   0  0  1  0  0  0
  -27.2481  -27.4699   20.0889 C   0  0  0  0  0  0
  -25.5893  -33.8624   24.2342 N   0  0  0  0  0  0
  -23.3959  -30.4941   21.5527 C   0  0  2  0  0  0
  -24.8424  -28.9591   20.1212 C   0  0  0  0  0  0
  -22.7385  -29.4672   22.5017 C   0  0  0  0  0  0
  -18.0274  -28.1373   22.8497 C   0  0  0  0  0  0
  -24.1479  -36.7270   23.2649 C   0  0  0  0  0  0
  -25.9196  -30.8478   21.3612 C   0  0  0  0  0  0
  -25.9980  -29.4835   20.7091 C   0  0  0  0  0  0
  -27.1975  -28.7451   20.6916 C   0  0  0  0  0  0
  -26.0652  -26.9393   19.5191 C   0  0  0  0  0  0
  -24.8691  -27.6839   19.5297 C   0  0  0  0  0  0
  -23.6020  -29.8212   20.1684 C   0  0  0  0  0  0
  -25.4100  -36.3100   24.0362 C   0  0  1  0  0  0
  -20.5856  -28.3646   23.1326 C   0  0  2  0  0  0
  -20.6747  -26.9389   22.5409 C   0  0  0  0  0  0
  -19.5740  -26.6384   21.5196 C   0  0  0  0  0  0
  -18.1918  -26.7925   22.1610 C   0  0  0  0  0  0
  -19.1522  -28.8822   23.2908 C   0  0  0  0  0  0
  -18.9452  -30.1436   23.8900 C   0  0  0  0  0  0
  -17.6461  -30.6585   24.0564 C   0  0  0  0  0  0
  -25.9041  -34.9475   23.5147 C   0  0  0  0  0  0
  -16.5345  -29.9091   23.6331 C   0  0  0  0  0  0
  -16.7264  -28.6503   23.0354 C   0  0  0  0  0  0
  -26.4442  -31.6600   25.0723 C   0  0  0  0  0  0
  -25.3742  -31.3697   26.1508 C   0  0  0  0  0  0
  -27.0258  -30.3054   24.6054 C   0  0  0  0  0  0
  -27.6040  -32.4319   25.7441 C   0  0  0  0  0  0
  -27.5578  -37.1772   24.8455 C   0  0  0  0  0  0
  -21.4121  -29.3018   22.3725 N   0  0  0  0  0  0
  -26.4261  -37.3804   23.9454 N   0  0  0  0  0  0
  -24.6592  -31.0836   22.1016 N   0  0  0  0  0  0
  -23.4170  -28.8235   23.3067 O   0  0  0  0  0  0
  -28.4743  -26.8424   20.0715 O   0  0  0  0  0  0
  -26.5585  -34.8924   22.4695 O   0  0  0  0  0  0
  -23.5295  -32.1429   23.7558 O   0  0  0  0  0  0
  -29.0212  -17.5465   21.6797 C   0  0  0  0  0  0
  -30.3739  -19.5715   21.6742 C   0  0  0  0  0  0
  -31.4236  -17.4047   21.2893 C   0  0  0  0  0  0
  -29.1104  -18.9506   21.7891 C   0  0  0  0  0  0
  -30.1688  -16.7617   21.4150 C   0  0  0  0  0  0
  -31.5236  -18.8017   21.4244 C   0  0  0  0  0  0
  -28.1052  -23.2084   20.5997 C   0  0  0  0  0  0
  -28.4981  -24.4897   20.7624 C   0  0  0  0  0  0
  -28.0391  -22.2438   21.6872 C   0  0  0  0  0  0
  -27.8524  -19.7800   22.0271 C   0  0  0  0  0  0
  -28.6169  -25.4967   19.6268 C   0  0  0  0  0  0
  -29.9907  -15.3516   21.3213 N   0  0  0  0  0  0
  -27.8325  -21.0038   21.2313 N   0  0  0  0  0  0
  -28.1968  -22.5010   22.8844 O   0  0  0  0  0  0
  -28.8524  -25.0420   21.9377 O   0  0  0  0  0  0
  -32.7294  -19.4078   21.3097 F   0  0  0  0  0  0
  -31.4703  -12.4189   19.1128 H   0  0  0  0  0  0
  -30.3347  -11.2829   19.7830 H   0  0  0  0  0  0
  -29.7379  -11.8172   17.4045 H   0  0  0  0  0  0
  -29.6603  -13.5180   17.7825 H   0  0  0  0  0  0
  -27.8222  -11.3187   18.7870 H   0  0  0  0  0  0
  -27.3633  -12.6653   17.7821 H   0  0  0  0  0  0
  -27.7202  -14.2518   19.6084 H   0  0  0  0  0  0
  -28.6707  -11.8855   21.2931 H   0  0  0  0  0  0
  -28.4464  -13.4912   21.8970 H   0  0  0  0  0  0
  -25.2777   -9.5661   22.4777 H   0  0  0  0  0  0
  -24.0009   -7.4612   22.7463 H   0  0  0  0  0  0
  -21.0860   -8.8814   19.8946 H   0  0  0  0  0  0
  -22.3766  -10.9685   19.6152 H   0  0  0  0  0  0
  -21.2036   -7.6168   23.9740 H   0  0  0  0  0  0
  -21.1417   -6.0507   25.9080 H   0  0  0  0  0  0
  -22.0626   -2.7629   23.2816 H   0  0  0  0  0  0
  -22.4107  -11.9847   22.4725 H   0  0  0  0  0  0
  -21.1133  -13.1268   22.2589 H   0  0  0  0  0  0
  -24.6712  -15.8430   20.5024 H   0  0  0  0  0  0
  -26.2902  -15.6146   20.0709 H   0  0  0  0  0  0
  -26.7064  -32.5545   23.1181 H   0  0  0  0  0  0
  -25.0077  -33.9803   25.0506 H   0  0  0  0  0  0
  -22.6838  -31.3109   21.4156 H   0  0  0  0  0  0
  -23.3769  -35.9574   23.3317 H   0  0  0  0  0  0
  -24.3587  -36.8858   22.2062 H   0  0  0  0  0  0
  -23.7180  -37.6469   23.6627 H   0  0  0  0  0  0
  -26.0310  -31.6204   20.5986 H   0  0  0  0  0  0
  -26.8057  -30.8957   21.9809 H   0  0  0  0  0  0
  -28.0924  -29.1572   21.1365 H   0  0  0  0  0  0
  -26.0343  -25.9642   19.0594 H   0  0  0  0  0  0
  -23.9763  -27.2658   19.0844 H   0  0  0  0  0  0
  -23.7036  -30.5911   19.4025 H   0  0  0  0  0  0
  -22.7279  -29.2340   19.8810 H   0  0  0  0  0  0
  -25.1271  -36.1957   25.0852 H   0  0  0  0  0  0
  -20.9966  -28.3191   24.1440 H   0  0  0  0  0  0
  -20.5643  -26.2262   23.3599 H   0  0  0  0  0  0
  -21.6624  -26.7444   22.1207 H   0  0  0  0  0  0
  -19.6903  -25.6305   21.1206 H   0  0  0  0  0  0
  -19.6683  -27.3197   20.6733 H   0  0  0  0  0  0
  -17.4208  -26.6707   21.3988 H   0  0  0  0  0  0
  -18.0316  -26.0046   22.8990 H   0  0  0  0  0  0
  -19.7940  -30.7240   24.2257 H   0  0  0  0  0  0
  -17.5036  -31.6262   24.5185 H   0  0  0  0  0  0
  -15.5346  -30.2997   23.7663 H   0  0  0  0  0  0
  -15.8676  -28.0830   22.7060 H   0  0  0  0  0  0
  -24.5843  -30.7135   25.7845 H   0  0  0  0  0  0
  -24.9016  -32.2856   26.5067 H   0  0  0  0  0  0
  -25.8115  -30.8759   27.0197 H   0  0  0  0  0  0
  -26.2761  -29.6804   24.1182 H   0  0  0  0  0  0
  -27.4142  -29.7301   25.4467 H   0  0  0  0  0  0
  -27.8557  -30.4402   23.9110 H   0  0  0  0  0  0
  -27.2682  -33.3640   26.2001 H   0  0  0  0  0  0
  -28.3817  -32.6846   25.0222 H   0  0  0  0  0  0
  -28.0731  -31.8450   26.5348 H   0  0  0  0  0  0
  -28.2545  -38.0125   24.7619 H   0  0  0  0  0  0
  -28.1110  -36.2661   24.6115 H   0  0  0  0  0  0
  -27.2323  -37.1236   25.8861 H   0  0  0  0  0  0
  -20.9290  -29.8717   21.6925 H   0  0  0  0  0  0
  -26.0138  -38.2855   24.1559 H   0  0  0  0  0  0
  -28.0525  -17.0749   21.7833 H   0  0  0  0  0  0
  -30.4739  -20.6422   21.7732 H   0  0  0  0  0  0
  -32.3300  -16.8494   21.1018 H   0  0  0  0  0  0
  -27.8429  -22.8872   19.6007 H   0  0  0  0  0  0
  -27.7595  -19.9887   23.0939 H   0  0  0  0  0  0
  -26.9705  -19.1980   21.7581 H   0  0  0  0  0  0
  -27.9726  -25.2378   18.7886 H   0  0  0  0  0  0
  -29.6309  -25.4045   19.2351 H   0  0  0  0  0  0
  -29.1064  -15.0034   21.6589 H   0  0  0  0  0  0
  -27.7218  -20.8860   20.2336 H   0  0  0  0  0  0
  -28.7649  -24.3676   22.6050 H   0  0  0  0  0  0
  1 25  1  0  0  0
  1 30  2  0  0  0
  1 82  1  0  0  0
  2  3  1  0  0  0
  2 25  1  0  0  0
  2 87  1  0  0  0
  2 88  1  0  0  0
  3  4  1  0  0  0
  3 89  1  0  0  0
  3 90  1  0  0  0
  4  5  1  0  0  0
  4 91  1  0  0  0
  4 92  1  0  0  0
  5  6  1  0  0  0
  5 26  1  0  0  0
  5 93  1  0  0  0
  6 25  1  0  0  0
  6 94  1  0  0  0
  6 95  1  0  0  0
  7  8  2  0  0  0
  7 26  1  0  0  0
  7 29  1  0  0  0
  8  9  1  0  0  0
  8 22  1  0  0  0
  9 10  1  0  0  0
  9 27  2  0  0  0
 10 11  2  0  0  0
 10 15  1  0  0  0
 11 12  1  0  0  0
 11 96  1  0  0  0
 12 13  2  0  0  0
 12 97  1  0  0  0
 13 14  1  0  0  0
 13 31  1  0  0  0
 14 15  2  0  0  0
 14 98  1  0  0  0
 15 99  1  0  0  0
 16 17  2  0  0  0
 16 21  1  0  0  0
 16 31  1  0  0  0
 17 18  1  0  0  0
 17100  1  0  0  0
 18 19  2  0  0  0
 18101  1  0  0  0
 19 20  1  0  0  0
 19 24  1  0  0  0
 20 21  2  0  0  0
 20102  1  0  0  0
 21 23  1  0  0  0
 22 28  1  0  0  0
 22 32  2  0  0  0
 26 27  1  0  0  0
 28103  1  0  0  0
 28104  1  0  0  0
 29105  1  0  0  0
 29106  1  0  0  0
 33 34  1  0  0  0
 33 66  1  0  0  0
 33 70  2  0  0  0
 34 36  1  0  0  0
 34 59  1  0  0  0
 34107  1  0  0  0
 35 44  2  0  0  0
 35 45  1  0  0  0
 35 68  1  0  0  0
 36 56  1  0  0  0
 36108  1  0  0  0
 37 39  1  0  0  0
 37 47  1  0  0  0
 37 66  1  0  0  0
 37109  1  0  0  0
 38 43  2  0  0  0
 38 46  1  0  0  0
 38 47  1  0  0  0
 39 64  1  0  0  0
 39 67  2  0  0  0
 40 52  1  0  0  0
 40 53  2  0  0  0
 40 58  1  0  0  0
 41110  1  0  0  0
 41111  1  0  0  0
 41112  1  0  0  0
 41 48  1  0  0  0
 42 43  1  0  0  0
 42 66  1  0  0  0
 42113  1  0  0  0
 42114  1  0  0  0
 43 44  1  0  0  0
 44115  1  0  0  0
 45 46  2  0  0  0
 45116  1  0  0  0
 46117  1  0  0  0
 47118  1  0  0  0
 47119  1  0  0  0
 48 56  1  0  0  0
 48 65  1  0  0  0
 48120  1  0  0  0
 49 50  1  0  0  0
 49 53  1  0  0  0
 49 64  1  0  0  0
 49121  1  0  0  0
 50 51  1  0  0  0
 50122  1  0  0  0
 50123  1  0  0  0
 51 52  1  0  0  0
 51124  1  0  0  0
 51125  1  0  0  0
 52126  1  0  0  0
 52127  1  0  0  0
 53 54  1  0  0  0
 54 55  2  0  0  0
 54128  1  0  0  0
 55 57  1  0  0  0
 55129  1  0  0  0
 56 69  2  0  0  0
 57 58  2  0  0  0
 57130  1  0  0  0
 58131  1  0  0  0
 59 60  1  0  0  0
 59 61  1  0  0  0
 59 62  1  0  0  0
 60132  1  0  0  0
 60133  1  0  0  0
 60134  1  0  0  0
 61135  1  0  0  0
 61136  1  0  0  0
 61137  1  0  0  0
 62138  1  0  0  0
 62139  1  0  0  0
 62140  1  0  0  0
 63 65  1  0  0  0
 63141  1  0  0  0
 63142  1  0  0  0
 63143  1  0  0  0
 64144  1  0  0  0
 65145  1  0  0  0
 68 81  1  0  0  0
 71 74  2  0  0  0
 71 75  1  0  0  0
 71146  1  0  0  0
 72 74  1  0  0  0
 72 76  2  0  0  0
 72147  1  0  0  0
 73 75  2  0  0  0
 73 76  1  0  0  0
 73148  1  0  0  0
 74 80  1  0  0  0
 75 82  1  0  0  0
 76 86  1  0  0  0
 77 78  2  0  0  0
 77 79  1  0  0  0
 77149  1  0  0  0
 78 81  1  0  0  0
 78 85  1  0  0  0
 79 83  1  0  0  0
 79 84  2  0  0  0
 80 83  1  0  0  0
 80150  1  0  0  0
 80151  1  0  0  0
 81152  1  0  0  0
 81153  1  0  0  0
 82154  1  0  0  0
 83155  1  0  0  0
 85156  1  0  0  0
M  ISO  4   1 100  68 101  81 101  82 100
M  END
> <chiral flag>
0

> <version>
0

> <s_m_source_file>
/data/baiqing/PycharmProjects/Reinvent-master-3.2/result/LINK_invent/BTK/process_docking_weight1_custom_product_contain_oxygen_bond_distance_aromatic_linkinvent_7_9_3/rearranged_h_0167.sdf

> <i_m_source_file_index>
78

> <r_mmod_Potential_Energy-OPLS-2005>
-156.066223144531

> <r_mmod_Stretch_Energy-OPLS-2005>
32.9496688842773

> <r_mmod_Bend_Energy-OPLS-2005>
107.700965881348

> <r_mmod_Torsional_Energy-OPLS-2005>
183.464447021484

> <r_mmod_Improper_Torsional_Energy-OPLS-2005>
3.36340427398682

> <r_mmod_Van_der_Waal_Energy-OPLS-2005>
168.303726196289

> <r_mmod_Electrostatic_Energy-OPLS-2005>
-417.246643066406

> <r_mmod_Solvation_Energy-OPLS-2005>
-244.953399658203

> <b_mmod_Minimization_Converged-OPLS-2005>
0

> <r_mmod_RMS_Derivative-OPLS-2005>
2.49900126457214

$$$$
79
                    3D
 Structure written by MMmdl.
162170  0  0  1  0            999 V2000
  -30.7104  -14.4434   20.5985 C   0  0  0  0  0  0
  -30.4216  -12.2899   19.4217 C   0  0  0  0  0  0
  -29.4967  -12.5090   18.2081 C   0  0  0  0  0  0
  -28.0152  -12.3744   18.6160 C   0  0  0  0  0  0
  -27.6650  -13.2031   19.8816 C   0  0  2  0  0  0
  -28.7041  -12.9628   20.9986 C   0  0  0  0  0  0
  -25.2609  -13.8160   20.5674 C   0  0  0  0  0  0
  -24.1846  -13.0450   20.9163 C   0  0  0  0  0  0
  -24.6382  -11.6908   20.8719 C   0  0  0  0  0  0
  -23.9044  -10.4295   21.0397 C   0  0  0  0  0  0
  -24.3593   -9.4215   21.9179 C   0  0  0  0  0  0
  -23.6276   -8.2249   22.0757 C   0  0  0  0  0  0
  -22.4261   -8.0282   21.3548 C   0  0  0  0  0  0
  -21.9896   -9.0252   20.4646 C   0  0  0  0  0  0
  -22.7218  -10.2132   20.3053 C   0  0  0  0  0  0
  -21.6851   -6.0726   22.5274 C   0  0  0  0  0  0
  -21.4016   -6.5629   23.8209 C   0  0  0  0  0  0
  -21.3663   -5.6786   24.9172 C   0  0  0  0  0  0
  -21.6045   -4.3048   24.7221 C   0  0  0  0  0  0
  -21.8821   -3.8141   23.4341 C   0  0  0  0  0  0
  -21.9196   -4.6956   22.3395 C   0  0  0  0  0  0
  -22.7878  -13.5255   21.1838 C   0  0  0  0  0  0
  -22.1659   -4.2148   21.0974 F   0  0  0  0  0  0
  -21.5637   -3.4529   25.7735 F   0  0  0  0  0  0
  -30.0390  -13.2682   20.4533 N   0  0  0  0  0  0
  -26.3038  -12.9311   20.3390 N   0  0  0  0  0  0
  -25.9309  -11.6472   20.5763 N   0  0  0  0  0  0
  -22.0517  -12.8236   22.0382 N   0  0  0  0  0  0
  -25.4387  -15.1867   20.4064 N   0  0  0  0  0  0
  -31.8308  -14.5914   20.0984 O   0  0  0  0  0  0
  -21.6632   -6.8870   21.4238 O   0  0  0  0  0  0
  -22.3561  -14.5571   20.6712 O   0  0  0  0  0  0
  -24.6125  -31.8699   23.2112 C   0  0  0  0  0  0
  -25.9028  -32.4831   23.8407 C   0  0  1  0  0  0
  -27.2395  -27.4599   20.0869 C   0  0  0  0  0  0
  -25.5901  -33.8631   24.2340 N   0  0  0  0  0  0
  -23.3982  -30.4935   21.5519 C   0  0  2  0  0  0
  -24.8436  -28.9598   20.1158 C   0  0  0  0  0  0
  -22.7395  -29.4665   22.5003 C   0  0  0  0  0  0
  -18.0274  -28.1380   22.8488 C   0  0  0  0  0  0
  -24.1484  -36.7324   23.2640 C   0  0  0  0  0  0
  -25.9237  -30.8445   21.3582 C   0  0  0  0  0  0
  -26.0014  -29.4796   20.7066 C   0  0  0  0  0  0
  -27.2007  -28.7376   20.6851 C   0  0  0  0  0  0
  -26.0597  -26.9418   19.5027 C   0  0  0  0  0  0
  -24.8663  -27.6893   19.5134 C   0  0  0  0  0  0
  -23.6056  -29.8259   20.1653 C   0  0  0  0  0  0
  -25.4108  -36.3126   24.0340 C   0  0  1  0  0  0
  -20.5857  -28.3663   23.1327 C   0  0  2  0  0  0
  -20.6760  -26.9400   22.5434 C   0  0  0  0  0  0
  -19.5747  -26.6386   21.5220 C   0  0  0  0  0  0
  -18.1914  -26.7936   22.1600 C   0  0  0  0  0  0
  -19.1520  -28.8836   23.2906 C   0  0  0  0  0  0
  -18.9452  -30.1442   23.8920 C   0  0  0  0  0  0
  -17.6459  -30.6584   24.0569 C   0  0  0  0  0  0
  -25.9033  -34.9487   23.5138 C   0  0  0  0  0  0
  -16.5353  -29.9096   23.6318 C   0  0  0  0  0  0
  -16.7268  -28.6516   23.0338 C   0  0  0  0  0  0
  -26.4460  -31.6605   25.0721 C   0  0  0  0  0  0
  -25.3731  -31.3713   26.1480 C   0  0  0  0  0  0
  -27.0273  -30.3048   24.6075 C   0  0  0  0  0  0
  -27.6045  -32.4306   25.7486 C   0  0  0  0  0  0
  -27.5587  -37.1821   24.8459 C   0  0  0  0  0  0
  -21.4125  -29.3037   22.3743 N   0  0  0  0  0  0
  -26.4295  -37.3801   23.9408 N   0  0  0  0  0  0
  -24.6630  -31.0825   22.0997 N   0  0  0  0  0  0
  -23.4183  -28.8201   23.3028 O   0  0  0  0  0  0
  -28.4371  -26.7816   20.0810 O   0  0  0  0  0  0
  -26.5596  -34.8933   22.4700 O   0  0  0  0  0  0
  -23.5325  -32.1443   23.7526 O   0  0  0  0  0  0
  -28.3883  -17.7344   22.1421 C   0  0  0  0  0  0
  -28.2213  -20.1319   22.5025 C   0  0  0  0  0  0
  -29.6794  -17.8791   21.5840 C   0  0  0  0  0  0
  -30.2455  -19.1918   21.4847 C   0  0  0  0  0  0
  -29.5095  -20.3212   21.9500 C   0  0  0  0  0  0
  -27.6646  -18.8476   22.5950 C   0  0  0  0  0  0
  -30.3896  -16.6528   21.1122 C   0  0  0  0  0  0
  -29.4747  -22.6075   21.4567 C   0  0  0  0  0  0
  -29.8063  -24.8115   20.2157 C   0  0  0  0  0  0
  -32.7696  -19.1127   21.8926 C   0  0  0  0  0  0
  -31.6456  -19.4075   20.8897 C   0  0  0  0  0  0
  -28.3974  -25.3599   19.9640 C   0  0  0  0  0  0
  -30.0481  -24.0208   21.5157 C   0  0  2  0  0  0
  -30.0946  -21.5997   21.9445 N   0  0  0  0  0  0
  -29.9630  -15.4485   21.2159 N   0  0  0  0  0  0
  -31.5064  -23.9563   21.7179 N   0  3  0  0  0  0
  -30.7040  -25.0406   19.3932 O   0  0  0  0  0  0
  -26.4330  -18.6824   23.1335 F   0  0  0  0  0  0
  -31.4678  -12.3745   19.1204 H   0  0  0  0  0  0
  -30.3105  -11.2753   19.8082 H   0  0  0  0  0  0
  -29.7333  -11.7936   17.4191 H   0  0  0  0  0  0
  -29.6730  -13.5003   17.7868 H   0  0  0  0  0  0
  -27.8174  -11.3180   18.8006 H   0  0  0  0  0  0
  -27.3680  -12.6634   17.7879 H   0  0  0  0  0  0
  -27.7214  -14.2561   19.6035 H   0  0  0  0  0  0
  -28.6731  -11.9223   21.3267 H   0  0  0  0  0  0
  -28.4655  -13.5508   21.8864 H   0  0  0  0  0  0
  -25.2740   -9.5687   22.4749 H   0  0  0  0  0  0
  -23.9997   -7.4640   22.7466 H   0  0  0  0  0  0
  -21.0837   -8.8750   19.8937 H   0  0  0  0  0  0
  -22.3675  -10.9663   19.6151 H   0  0  0  0  0  0
  -21.2002   -7.6135   23.9712 H   0  0  0  0  0  0
  -21.1486   -6.0511   25.9075 H   0  0  0  0  0  0
  -22.0595   -2.7604   23.2846 H   0  0  0  0  0  0
  -22.4132  -11.9871   22.4718 H   0  0  0  0  0  0
  -21.1136  -13.1260   22.2613 H   0  0  0  0  0  0
  -24.6850  -15.8559   20.5200 H   0  0  0  0  0  0
  -26.3096  -15.6114   20.1129 H   0  0  0  0  0  0
  -26.7105  -32.5559   23.1179 H   0  0  0  0  0  0
  -25.0073  -33.9797   25.0495 H   0  0  0  0  0  0
  -22.6860  -31.3094   21.4127 H   0  0  0  0  0  0
  -23.3750  -35.9651   23.3284 H   0  0  0  0  0  0
  -24.3581  -36.8961   22.2057 H   0  0  0  0  0  0
  -23.7222  -37.6518   23.6664 H   0  0  0  0  0  0
  -26.0263  -31.6110   20.5886 H   0  0  0  0  0  0
  -26.8151  -30.9026   21.9712 H   0  0  0  0  0  0
  -28.0986  -29.1418   21.1310 H   0  0  0  0  0  0
  -26.0464  -25.9734   19.0244 H   0  0  0  0  0  0
  -23.9747  -27.2827   19.0559 H   0  0  0  0  0  0
  -23.7163  -30.6027   19.4080 H   0  0  0  0  0  0
  -22.7291  -29.2492   19.8654 H   0  0  0  0  0  0
  -25.1277  -36.2002   25.0832 H   0  0  0  0  0  0
  -20.9945  -28.3240   24.1446 H   0  0  0  0  0  0
  -20.5649  -26.2280   23.3626 H   0  0  0  0  0  0
  -21.6637  -26.7432   22.1247 H   0  0  0  0  0  0
  -19.6907  -25.6295   21.1247 H   0  0  0  0  0  0
  -19.6701  -27.3203   20.6754 H   0  0  0  0  0  0
  -17.4203  -26.6728   21.3975 H   0  0  0  0  0  0
  -18.0265  -26.0057   22.8962 H   0  0  0  0  0  0
  -19.7930  -30.7250   24.2302 H   0  0  0  0  0  0
  -17.5015  -31.6262   24.5175 H   0  0  0  0  0  0
  -15.5356  -30.3010   23.7612 H   0  0  0  0  0  0
  -15.8669  -28.0851   22.7022 H   0  0  0  0  0  0
  -24.5945  -30.6994   25.7851 H   0  0  0  0  0  0
  -24.8866  -32.2865   26.4865 H   0  0  0  0  0  0
  -25.8103  -30.8969   27.0272 H   0  0  0  0  0  0
  -26.2806  -29.6830   24.1123 H   0  0  0  0  0  0
  -27.4048  -29.7262   25.4511 H   0  0  0  0  0  0
  -27.8632  -30.4372   23.9198 H   0  0  0  0  0  0
  -27.2695  -33.3633   26.2036 H   0  0  0  0  0  0
  -28.3873  -32.6819   25.0315 H   0  0  0  0  0  0
  -28.0677  -31.8433   26.5423 H   0  0  0  0  0  0
  -28.2605  -38.0117   24.7509 H   0  0  0  0  0  0
  -28.1084  -36.2651   24.6273 H   0  0  0  0  0  0
  -27.2314  -37.1475   25.8864 H   0  0  0  0  0  0
  -20.9279  -29.8813   21.7012 H   0  0  0  0  0  0
  -26.0192  -38.2881   24.1417 H   0  0  0  0  0  0
  -27.9360  -16.7571   22.2302 H   0  0  0  0  0  0
  -27.6528  -20.9662   22.8873 H   0  0  0  0  0  0
  -31.3527  -16.8503   20.6373 H   0  0  0  0  0  0
  -28.4894  -22.5245   20.9871 H   0  0  0  0  0  0
  -33.7449  -19.3171   21.4500 H   0  0  0  0  0  0
  -32.7677  -18.0718   22.2152 H   0  0  0  0  0  0
  -32.6720  -19.7364   22.7810 H   0  0  0  0  0  0
  -31.7638  -20.4289   20.5314 H   0  0  0  0  0  0
  -31.7738  -18.8168   19.9832 H   0  0  0  0  0  0
  -27.6936  -24.9311   20.6781 H   0  0  0  0  0  0
  -28.0855  -25.0731   18.9594 H   0  0  0  0  0  0
  -29.5881  -24.5437   22.3539 H   0  0  0  0  0  0
  -31.9326  -23.7341   20.8359 H   0  0  0  0  0  0
  -31.7012  -23.2283   22.3829 H   0  0  0  0  0  0
  -31.8639  -24.8372   22.0390 H   0  0  0  0  0  0
  1 25  1  0  0  0
  1 30  2  0  0  0
  1 85  1  0  0  0
  2  3  1  0  0  0
  2 25  1  0  0  0
  2 89  1  0  0  0
  2 90  1  0  0  0
  3  4  1  0  0  0
  3 91  1  0  0  0
  3 92  1  0  0  0
  4  5  1  0  0  0
  4 93  1  0  0  0
  4 94  1  0  0  0
  5  6  1  0  0  0
  5 26  1  0  0  0
  5 95  1  0  0  0
  6 25  1  0  0  0
  6 96  1  0  0  0
  6 97  1  0  0  0
  7  8  2  0  0  0
  7 26  1  0  0  0
  7 29  1  0  0  0
  8  9  1  0  0  0
  8 22  1  0  0  0
  9 10  1  0  0  0
  9 27  2  0  0  0
 10 11  2  0  0  0
 10 15  1  0  0  0
 11 12  1  0  0  0
 11 98  1  0  0  0
 12 13  2  0  0  0
 12 99  1  0  0  0
 13 14  1  0  0  0
 13 31  1  0  0  0
 14 15  2  0  0  0
 14100  1  0  0  0
 15101  1  0  0  0
 16 17  2  0  0  0
 16 21  1  0  0  0
 16 31  1  0  0  0
 17 18  1  0  0  0
 17102  1  0  0  0
 18 19  2  0  0  0
 18103  1  0  0  0
 19 20  1  0  0  0
 19 24  1  0  0  0
 20 21  2  0  0  0
 20104  1  0  0  0
 21 23  1  0  0  0
 22 28  1  0  0  0
 22 32  2  0  0  0
 26 27  1  0  0  0
 28105  1  0  0  0
 28106  1  0  0  0
 29107  1  0  0  0
 29108  1  0  0  0
 33 34  1  0  0  0
 33 66  1  0  0  0
 33 70  2  0  0  0
 34 36  1  0  0  0
 34 59  1  0  0  0
 34109  1  0  0  0
 35 44  2  0  0  0
 35 45  1  0  0  0
 35 68  1  0  0  0
 36 56  1  0  0  0
 36110  1  0  0  0
 37 39  1  0  0  0
 37 47  1  0  0  0
 37 66  1  0  0  0
 37111  1  0  0  0
 38 43  2  0  0  0
 38 46  1  0  0  0
 38 47  1  0  0  0
 39 64  1  0  0  0
 39 67  2  0  0  0
 40 52  1  0  0  0
 40 53  2  0  0  0
 40 58  1  0  0  0
 41112  1  0  0  0
 41113  1  0  0  0
 41114  1  0  0  0
 41 48  1  0  0  0
 42 43  1  0  0  0
 42 66  1  0  0  0
 42115  1  0  0  0
 42116  1  0  0  0
 43 44  1  0  0  0
 44117  1  0  0  0
 45 46  2  0  0  0
 45118  1  0  0  0
 46119  1  0  0  0
 47120  1  0  0  0
 47121  1  0  0  0
 48 56  1  0  0  0
 48 65  1  0  0  0
 48122  1  0  0  0
 49 50  1  0  0  0
 49 53  1  0  0  0
 49 64  1  0  0  0
 49123  1  0  0  0
 50 51  1  0  0  0
 50124  1  0  0  0
 50125  1  0  0  0
 51 52  1  0  0  0
 51126  1  0  0  0
 51127  1  0  0  0
 52128  1  0  0  0
 52129  1  0  0  0
 53 54  1  0  0  0
 54 55  2  0  0  0
 54130  1  0  0  0
 55 57  1  0  0  0
 55131  1  0  0  0
 56 69  2  0  0  0
 57 58  2  0  0  0
 57132  1  0  0  0
 58133  1  0  0  0
 59 60  1  0  0  0
 59 61  1  0  0  0
 59 62  1  0  0  0
 60134  1  0  0  0
 60135  1  0  0  0
 60136  1  0  0  0
 61137  1  0  0  0
 61138  1  0  0  0
 61139  1  0  0  0
 62140  1  0  0  0
 62141  1  0  0  0
 62142  1  0  0  0
 63 65  1  0  0  0
 63143  1  0  0  0
 63144  1  0  0  0
 63145  1  0  0  0
 64146  1  0  0  0
 65147  1  0  0  0
 68 82  1  0  0  0
 71 73  2  0  0  0
 71 76  1  0  0  0
 71148  1  0  0  0
 72 75  1  0  0  0
 72 76  2  0  0  0
 72149  1  0  0  0
 73 74  1  0  0  0
 73 77  1  0  0  0
 74 75  2  0  0  0
 74 81  1  0  0  0
 75 84  1  0  0  0
 76 88  1  0  0  0
 77 85  2  0  0  0
 77150  1  0  0  0
 78 83  1  0  0  0
 78 84  2  0  0  0
 78151  1  0  0  0
 79 82  1  0  0  0
 79 83  1  0  0  0
 79 87  2  0  0  0
 80 81  1  0  0  0
 80152  1  0  0  0
 80153  1  0  0  0
 80154  1  0  0  0
 81155  1  0  0  0
 81156  1  0  0  0
 82157  1  0  0  0
 82158  1  0  0  0
 83 86  1  0  0  0
 83159  1  0  0  0
 86160  1  0  0  0
 86161  1  0  0  0
 86162  1  0  0  0
M  CHG  1  86   1
M  ISO  4   1 100  68 101  82 101  85 100
M  END
> <chiral flag>
0

> <version>
0

> <s_m_source_file>
/data/baiqing/PycharmProjects/Reinvent-master-3.2/result/LINK_invent/BTK/process_docking_weight1_custom_product_contain_oxygen_bond_distance_aromatic_linkinvent_7_9_3/rearranged_h_0167.sdf

> <i_m_source_file_index>
79

> <r_mmod_Potential_Energy-OPLS-2005>
-457.076904296875

> <r_mmod_Stretch_Energy-OPLS-2005>
40.9000778198242

> <r_mmod_Bend_Energy-OPLS-2005>
96.7028121948242

> <r_mmod_Torsional_Energy-OPLS-2005>
189.196670532227

> <r_mmod_Improper_Torsional_Energy-OPLS-2005>
3.34041905403137

> <r_mmod_Van_der_Waal_Energy-OPLS-2005>
188.374954223633

> <r_mmod_Electrostatic_Energy-OPLS-2005>
-490.713623046875

> <r_mmod_Solvation_Energy-OPLS-2005>
-495.347534179688

> <b_mmod_Minimization_Converged-OPLS-2005>
0

> <r_mmod_RMS_Derivative-OPLS-2005>
1.60002768039703

$$$$
80
                    3D
 Structure written by MMmdl.
164172  0  0  1  0            999 V2000
  -30.6552  -14.5078   20.5824 C   0  0  0  0  0  0
  -30.4362  -12.3335   19.4220 C   0  0  0  0  0  0
  -29.4979  -12.5191   18.2093 C   0  0  0  0  0  0
  -28.0202  -12.3658   18.6227 C   0  0  0  0  0  0
  -27.6638  -13.2034   19.8793 C   0  0  2  0  0  0
  -28.7043  -12.9688   20.9977 C   0  0  0  0  0  0
  -25.2617  -13.8177   20.5691 C   0  0  0  0  0  0
  -24.1847  -13.0451   20.9147 C   0  0  0  0  0  0
  -24.6394  -11.6913   20.8716 C   0  0  0  0  0  0
  -23.9062  -10.4297   21.0395 C   0  0  0  0  0  0
  -24.3614   -9.4217   21.9178 C   0  0  0  0  0  0
  -23.6294   -8.2251   22.0753 C   0  0  0  0  0  0
  -22.4277   -8.0285   21.3542 C   0  0  0  0  0  0
  -21.9910   -9.0255   20.4641 C   0  0  0  0  0  0
  -22.7235  -10.2135   20.3045 C   0  0  0  0  0  0
  -21.6856   -6.0737   22.5279 C   0  0  0  0  0  0
  -21.4015   -6.5642   23.8213 C   0  0  0  0  0  0
  -21.3658   -5.6795   24.9174 C   0  0  0  0  0  0
  -21.6042   -4.3057   24.7223 C   0  0  0  0  0  0
  -21.8820   -3.8148   23.4345 C   0  0  0  0  0  0
  -21.9194   -4.6964   22.3402 C   0  0  0  0  0  0
  -22.7872  -13.5249   21.1822 C   0  0  0  0  0  0
  -22.1663   -4.2150   21.0978 F   0  0  0  0  0  0
  -21.5630   -3.4541   25.7733 F   0  0  0  0  0  0
  -30.0332  -13.3023   20.4542 N   0  0  0  0  0  0
  -26.3040  -12.9324   20.3384 N   0  0  0  0  0  0
  -25.9319  -11.6486   20.5757 N   0  0  0  0  0  0
  -22.0515  -12.8225   22.0377 N   0  0  0  0  0  0
  -25.4369  -15.1905   20.4176 N   0  0  0  0  0  0
  -31.7658  -14.7513   20.0986 O   0  0  0  0  0  0
  -21.6639   -6.8882   21.4242 O   0  0  0  0  0  0
  -22.3554  -14.5557   20.6685 O   0  0  0  0  0  0
  -24.6168  -31.8658   23.2077 C   0  0  0  0  0  0
  -25.9051  -32.4809   23.8387 C   0  0  1  0  0  0
  -27.2335  -27.4088   20.1072 C   0  0  0  0  0  0
  -25.5902  -33.8609   24.2319 N   0  0  0  0  0  0
  -23.4073  -30.4881   21.5479 C   0  0  2  0  0  0
  -24.8559  -28.9458   20.1188 C   0  0  0  0  0  0
  -22.7420  -29.4654   22.4972 C   0  0  0  0  0  0
  -18.0273  -28.1381   22.8495 C   0  0  0  0  0  0
  -24.1483  -36.7304   23.2638 C   0  0  0  0  0  0
  -25.9379  -30.8222   21.3660 C   0  0  0  0  0  0
  -26.0168  -29.4518   20.7192 C   0  0  0  0  0  0
  -27.2116  -28.6899   20.7122 C   0  0  0  0  0  0
  -26.0602  -26.9224   19.4990 C   0  0  0  0  0  0
  -24.8728  -27.6799   19.5062 C   0  0  0  0  0  0
  -23.6192  -29.8169   20.1644 C   0  0  0  0  0  0
  -25.4106  -36.3103   24.0337 C   0  0  1  0  0  0
  -20.5866  -28.3676   23.1304 C   0  0  2  0  0  0
  -20.6760  -26.9408   22.5410 C   0  0  0  0  0  0
  -19.5742  -26.6395   21.5203 C   0  0  0  0  0  0
  -18.1920  -26.7931   22.1617 C   0  0  0  0  0  0
  -19.1522  -28.8843   23.2900 C   0  0  0  0  0  0
  -18.9451  -30.1445   23.8918 C   0  0  0  0  0  0
  -17.6455  -30.6589   24.0570 C   0  0  0  0  0  0
  -25.9037  -34.9470   23.5128 C   0  0  0  0  0  0
  -16.5347  -29.9093   23.6327 C   0  0  0  0  0  0
  -16.7262  -28.6504   23.0357 C   0  0  0  0  0  0
  -26.4479  -31.6589   25.0719 C   0  0  0  0  0  0
  -25.3743  -31.3681   26.1463 C   0  0  0  0  0  0
  -27.0333  -30.3038   24.6103 C   0  0  0  0  0  0
  -27.6045  -32.4317   25.7493 C   0  0  0  0  0  0
  -27.5576  -37.1810   24.8464 C   0  0  0  0  0  0
  -21.4143  -29.3048   22.3712 N   0  0  0  0  0  0
  -26.4291  -37.3788   23.9407 N   0  0  0  0  0  0
  -24.6722  -31.0738   22.0988 N   0  0  0  0  0  0
  -23.4176  -28.8191   23.3023 O   0  0  0  0  0  0
  -28.3743  -26.6337   20.0579 O   0  0  0  0  0  0
  -26.5601  -34.8924   22.4690 O   0  0  0  0  0  0
  -23.5352  -32.1418   23.7452 O   0  0  0  0  0  0
  -28.9817  -21.1930   19.0023 C   0  0  0  0  0  0
  -29.3102  -21.3381   21.3899 C   0  0  0  0  0  0
  -29.1705  -19.1100   20.3193 C   0  0  0  0  0  0
  -28.9886  -19.7750   19.0683 C   0  0  0  0  0  0
  -29.1217  -21.9986   20.1528 C   0  0  0  0  0  0
  -29.3451  -19.9212   21.4716 C   0  0  0  0  0  0
  -29.0464  -17.5972   20.4513 C   0  0  0  0  0  0
  -29.9510  -25.8766   21.7501 C   0  0  0  0  0  0
  -30.2949  -25.0621   22.9908 C   0  0  0  0  0  0
  -27.3116  -18.9101   17.3674 C   0  0  0  0  0  0
  -28.7908  -19.0168   17.7582 C   0  0  0  0  0  0
  -28.1602  -24.2042   20.8289 C   0  0  0  0  0  0
  -28.5436  -25.7007   21.1489 C   0  0  2  0  0  0
  -29.1085  -23.4100   20.0198 N   0  0  0  0  0  0
  -30.0855  -16.8740   20.9209 N   0  0  0  0  0  0
  -29.9075  -15.4675   21.1642 N   0  0  0  0  0  0
  -27.9939  -17.0396   20.1211 O   0  0  0  0  0  0
  -30.7727  -26.6726   21.2808 O   0  0  0  0  0  0
  -29.5157  -19.3456   22.6875 F   0  0  0  0  0  0
  -31.4764  -12.4632   19.1180 H   0  0  0  0  0  0
  -30.3646  -11.3173   19.8133 H   0  0  0  0  0  0
  -29.7441  -11.7988   17.4279 H   0  0  0  0  0  0
  -29.6524  -13.5077   17.7735 H   0  0  0  0  0  0
  -27.8395  -11.3086   18.8210 H   0  0  0  0  0  0
  -27.3655  -12.6355   17.7934 H   0  0  0  0  0  0
  -27.7101  -14.2525   19.5862 H   0  0  0  0  0  0
  -28.6905  -11.9245   21.3138 H   0  0  0  0  0  0
  -28.4551  -13.5403   21.8927 H   0  0  0  0  0  0
  -25.2759   -9.5699   22.4749 H   0  0  0  0  0  0
  -24.0002   -7.4649   22.7478 H   0  0  0  0  0  0
  -21.0842   -8.8775   19.8944 H   0  0  0  0  0  0
  -22.3696  -10.9671   19.6150 H   0  0  0  0  0  0
  -21.2006   -7.6151   23.9715 H   0  0  0  0  0  0
  -21.1481   -6.0523   25.9078 H   0  0  0  0  0  0
  -22.0598   -2.7611   23.2840 H   0  0  0  0  0  0
  -22.4128  -11.9868   22.4735 H   0  0  0  0  0  0
  -21.1131  -13.1247   22.2584 H   0  0  0  0  0  0
  -24.6746  -15.8464   20.5445 H   0  0  0  0  0  0
  -26.3121  -15.6513   20.1794 H   0  0  0  0  0  0
  -26.7121  -32.5523   23.1151 H   0  0  0  0  0  0
  -25.0066  -33.9765   25.0475 H   0  0  0  0  0  0
  -22.6977  -31.3056   21.4050 H   0  0  0  0  0  0
  -23.3754  -35.9627   23.3299 H   0  0  0  0  0  0
  -24.3580  -36.8926   22.2055 H   0  0  0  0  0  0
  -23.7226  -37.6502   23.6662 H   0  0  0  0  0  0
  -26.0530  -31.5846   20.5942 H   0  0  0  0  0  0
  -26.8248  -30.8789   21.9852 H   0  0  0  0  0  0
  -28.1114  -29.0784   21.1692 H   0  0  0  0  0  0
  -26.0669  -25.9554   19.0160 H   0  0  0  0  0  0
  -23.9823  -27.2854   19.0360 H   0  0  0  0  0  0
  -23.7301  -30.5898   19.4029 H   0  0  0  0  0  0
  -22.7425  -29.2381   19.8684 H   0  0  0  0  0  0
  -25.1283  -36.1970   25.0831 H   0  0  0  0  0  0
  -20.9967  -28.3246   24.1421 H   0  0  0  0  0  0
  -20.5650  -26.2285   23.3595 H   0  0  0  0  0  0
  -21.6632  -26.7445   22.1209 H   0  0  0  0  0  0
  -19.6906  -25.6313   21.1213 H   0  0  0  0  0  0
  -19.6679  -27.3215   20.6739 H   0  0  0  0  0  0
  -17.4190  -26.6689   21.4017 H   0  0  0  0  0  0
  -18.0322  -26.0063   22.9002 H   0  0  0  0  0  0
  -19.7928  -30.7247   24.2305 H   0  0  0  0  0  0
  -17.5018  -31.6269   24.5175 H   0  0  0  0  0  0
  -15.5349  -30.3007   23.7638 H   0  0  0  0  0  0
  -15.8658  -28.0825   22.7078 H   0  0  0  0  0  0
  -24.5915  -30.7032   25.7793 H   0  0  0  0  0  0
  -24.8931  -32.2827   26.4937 H   0  0  0  0  0  0
  -25.8097  -30.8829   27.0206 H   0  0  0  0  0  0
  -26.2887  -29.6780   24.1169 H   0  0  0  0  0  0
  -27.4127  -29.7292   25.4562 H   0  0  0  0  0  0
  -27.8706  -30.4372   23.9251 H   0  0  0  0  0  0
  -27.2670  -33.3625   26.2064 H   0  0  0  0  0  0
  -28.3863  -32.6858   25.0323 H   0  0  0  0  0  0
  -28.0703  -31.8441   26.5415 H   0  0  0  0  0  0
  -28.2590  -38.0109   24.7525 H   0  0  0  0  0  0
  -28.1077  -36.2646   24.6283 H   0  0  0  0  0  0
  -27.2298  -37.1451   25.8866 H   0  0  0  0  0  0
  -20.9297  -29.8782   21.6947 H   0  0  0  0  0  0
  -26.0181  -38.2866   24.1411 H   0  0  0  0  0  0
  -28.8440  -21.6659   18.0393 H   0  0  0  0  0  0
  -29.4410  -21.9097   22.2962 H   0  0  0  0  0  0
  -29.4185  -24.9492   23.6281 H   0  0  0  0  0  0
  -31.0791  -25.5527   23.5670 H   0  0  0  0  0  0
  -30.6440  -24.0718   22.7000 H   0  0  0  0  0  0
  -27.1968  -18.3653   16.4304 H   0  0  0  0  0  0
  -26.8660  -19.8961   17.2332 H   0  0  0  0  0  0
  -26.7344  -18.3828   18.1272 H   0  0  0  0  0  0
  -29.2402  -18.0247   17.7994 H   0  0  0  0  0  0
  -29.3323  -19.5389   16.9676 H   0  0  0  0  0  0
  -27.1912  -24.1895   20.3294 H   0  0  0  0  0  0
  -27.9964  -23.6952   21.7793 H   0  0  0  0  0  0
  -27.8638  -26.0203   21.9408 H   0  0  0  0  0  0
  -29.1559  -23.7350   19.0569 H   0  0  0  0  0  0
  -30.9963  -17.2221   21.1894 H   0  0  0  0  0  0
  -28.9633  -15.2816   21.4701 H   0  0  0  0  0  0
  1 25  1  0  0  0
  1 30  2  0  0  0
  1 86  1  0  0  0
  2  3  1  0  0  0
  2 25  1  0  0  0
  2 90  1  0  0  0
  2 91  1  0  0  0
  3  4  1  0  0  0
  3 92  1  0  0  0
  3 93  1  0  0  0
  4  5  1  0  0  0
  4 94  1  0  0  0
  4 95  1  0  0  0
  5  6  1  0  0  0
  5 26  1  0  0  0
  5 96  1  0  0  0
  6 25  1  0  0  0
  6 97  1  0  0  0
  6 98  1  0  0  0
  7  8  2  0  0  0
  7 26  1  0  0  0
  7 29  1  0  0  0
  8  9  1  0  0  0
  8 22  1  0  0  0
  9 10  1  0  0  0
  9 27  2  0  0  0
 10 11  2  0  0  0
 10 15  1  0  0  0
 11 12  1  0  0  0
 11 99  1  0  0  0
 12 13  2  0  0  0
 12100  1  0  0  0
 13 14  1  0  0  0
 13 31  1  0  0  0
 14 15  2  0  0  0
 14101  1  0  0  0
 15102  1  0  0  0
 16 17  2  0  0  0
 16 21  1  0  0  0
 16 31  1  0  0  0
 17 18  1  0  0  0
 17103  1  0  0  0
 18 19  2  0  0  0
 18104  1  0  0  0
 19 20  1  0  0  0
 19 24  1  0  0  0
 20 21  2  0  0  0
 20105  1  0  0  0
 21 23  1  0  0  0
 22 28  1  0  0  0
 22 32  2  0  0  0
 26 27  1  0  0  0
 28106  1  0  0  0
 28107  1  0  0  0
 29108  1  0  0  0
 29109  1  0  0  0
 33 34  1  0  0  0
 33 66  1  0  0  0
 33 70  2  0  0  0
 34 36  1  0  0  0
 34 59  1  0  0  0
 34110  1  0  0  0
 35 44  2  0  0  0
 35 45  1  0  0  0
 35 68  1  0  0  0
 36 56  1  0  0  0
 36111  1  0  0  0
 37 39  1  0  0  0
 37 47  1  0  0  0
 37 66  1  0  0  0
 37112  1  0  0  0
 38 43  2  0  0  0
 38 46  1  0  0  0
 38 47  1  0  0  0
 39 64  1  0  0  0
 39 67  2  0  0  0
 40 52  1  0  0  0
 40 53  2  0  0  0
 40 58  1  0  0  0
 41113  1  0  0  0
 41114  1  0  0  0
 41115  1  0  0  0
 41 48  1  0  0  0
 42 43  1  0  0  0
 42 66  1  0  0  0
 42116  1  0  0  0
 42117  1  0  0  0
 43 44  1  0  0  0
 44118  1  0  0  0
 45 46  2  0  0  0
 45119  1  0  0  0
 46120  1  0  0  0
 47121  1  0  0  0
 47122  1  0  0  0
 48 56  1  0  0  0
 48 65  1  0  0  0
 48123  1  0  0  0
 49 50  1  0  0  0
 49 53  1  0  0  0
 49 64  1  0  0  0
 49124  1  0  0  0
 50 51  1  0  0  0
 50125  1  0  0  0
 50126  1  0  0  0
 51 52  1  0  0  0
 51127  1  0  0  0
 51128  1  0  0  0
 52129  1  0  0  0
 52130  1  0  0  0
 53 54  1  0  0  0
 54 55  2  0  0  0
 54131  1  0  0  0
 55 57  1  0  0  0
 55132  1  0  0  0
 56 69  2  0  0  0
 57 58  2  0  0  0
 57133  1  0  0  0
 58134  1  0  0  0
 59 60  1  0  0  0
 59 61  1  0  0  0
 59 62  1  0  0  0
 60135  1  0  0  0
 60136  1  0  0  0
 60137  1  0  0  0
 61138  1  0  0  0
 61139  1  0  0  0
 61140  1  0  0  0
 62141  1  0  0  0
 62142  1  0  0  0
 62143  1  0  0  0
 63 65  1  0  0  0
 63144  1  0  0  0
 63145  1  0  0  0
 63146  1  0  0  0
 64147  1  0  0  0
 65148  1  0  0  0
 68 83  1  0  0  0
 71 74  2  0  0  0
 71 75  1  0  0  0
 71149  1  0  0  0
 72 75  2  0  0  0
 72 76  1  0  0  0
 72150  1  0  0  0
 73 74  1  0  0  0
 73 76  2  0  0  0
 73 77  1  0  0  0
 74 81  1  0  0  0
 75 84  1  0  0  0
 76 89  1  0  0  0
 77 85  1  0  0  0
 77 87  2  0  0  0
 78 79  1  0  0  0
 78 83  1  0  0  0
 78 88  2  0  0  0
 79151  1  0  0  0
 79152  1  0  0  0
 79153  1  0  0  0
 80 81  1  0  0  0
 80154  1  0  0  0
 80155  1  0  0  0
 80156  1  0  0  0
 81157  1  0  0  0
 81158  1  0  0  0
 82 84  1  0  0  0
 82159  1  0  0  0
 82160  1  0  0  0
 82 83  1  0  0  0
 83161  1  0  0  0
 84162  1  0  0  0
 85 86  1  0  0  0
 85163  1  0  0  0
 86164  1  0  0  0
M  ISO  4   1 100  68 101  83 101  86 100
M  END
> <chiral flag>
0

> <version>
0

> <s_m_source_file>
/data/baiqing/PycharmProjects/Reinvent-master-3.2/result/LINK_invent/BTK/process_docking_weight1_custom_product_contain_oxygen_bond_distance_aromatic_linkinvent_7_9_3/rearranged_h_0167.sdf

> <i_m_source_file_index>
80

> <r_mmod_Potential_Energy-OPLS-2005>
-10.1575155258179

> <r_mmod_Stretch_Energy-OPLS-2005>
48.5680084228516

> <r_mmod_Bend_Energy-OPLS-2005>
115.637489318848

> <r_mmod_Torsional_Energy-OPLS-2005>
254.243698120117

> <r_mmod_Improper_Torsional_Energy-OPLS-2005>
9.34988498687744

> <r_mmod_Van_der_Waal_Energy-OPLS-2005>
137.63737487793

> <r_mmod_Electrostatic_Energy-OPLS-2005>
-365.376190185547

> <r_mmod_Solvation_Energy-OPLS-2005>
-226.500930786133

> <b_mmod_Minimization_Converged-OPLS-2005>
0

> <r_mmod_RMS_Derivative-OPLS-2005>
0.761800646781921

$$$$
81
                    3D
 Structure written by MMmdl.
160168  0  0  1  0            999 V2000
  -30.6900  -14.5558   20.4893 C   0  0  0  0  0  0
  -30.4280  -12.3366   19.4466 C   0  0  0  0  0  0
  -29.5056  -12.5004   18.2194 C   0  0  0  0  0  0
  -28.0268  -12.3556   18.6304 C   0  0  0  0  0  0
  -27.6614  -13.2168   19.8703 C   0  0  2  0  0  0
  -28.7088  -13.0575   20.9977 C   0  0  0  0  0  0
  -25.2592  -13.8164   20.5680 C   0  0  0  0  0  0
  -24.1856  -13.0422   20.9177 C   0  0  0  0  0  0
  -24.6430  -11.6897   20.8739 C   0  0  0  0  0  0
  -23.9085  -10.4276   21.0401 C   0  0  0  0  0  0
  -24.3633   -9.4186   21.9175 C   0  0  0  0  0  0
  -23.6296   -8.2232   22.0755 C   0  0  0  0  0  0
  -22.4273   -8.0282   21.3545 C   0  0  0  0  0  0
  -21.9918   -9.0259   20.4649 C   0  0  0  0  0  0
  -22.7258  -10.2131   20.3055 C   0  0  0  0  0  0
  -21.6855   -6.0735   22.5283 C   0  0  0  0  0  0
  -21.4015   -6.5640   23.8216 C   0  0  0  0  0  0
  -21.3663   -5.6791   24.9177 C   0  0  0  0  0  0
  -21.6053   -4.3060   24.7231 C   0  0  0  0  0  0
  -21.8821   -3.8148   23.4347 C   0  0  0  0  0  0
  -21.9192   -4.6955   22.3405 C   0  0  0  0  0  0
  -22.7868  -13.5209   21.1843 C   0  0  0  0  0  0
  -22.1654   -4.2144   21.0977 F   0  0  0  0  0  0
  -21.5640   -3.4547   25.7742 F   0  0  0  0  0  0
  -30.0350  -13.3587   20.4355 N   0  0  0  0  0  0
  -26.3050  -12.9357   20.3380 N   0  0  0  0  0  0
  -25.9376  -11.6504   20.5796 N   0  0  0  0  0  0
  -22.0534  -12.8190   22.0407 N   0  0  0  0  0  0
  -25.4271  -15.1880   20.4062 N   0  0  0  0  0  0
  -31.8384  -14.6930   20.0624 O   0  0  0  0  0  0
  -21.6634   -6.8878   21.4246 O   0  0  0  0  0  0
  -22.3544  -14.5524   20.6702 O   0  0  0  0  0  0
  -24.6202  -31.8639   23.2042 C   0  0  0  0  0  0
  -25.9073  -32.4797   23.8337 C   0  0  1  0  0  0
  -27.2298  -27.3643   20.0822 C   0  0  0  0  0  0
  -25.5914  -33.8599   24.2270 N   0  0  0  0  0  0
  -23.4113  -30.4879   21.5471 C   0  0  2  0  0  0
  -24.8563  -28.9507   20.1096 C   0  0  0  0  0  0
  -22.7424  -29.4646   22.4948 C   0  0  0  0  0  0
  -18.0279  -28.1386   22.8471 C   0  0  0  0  0  0
  -24.1500  -36.7308   23.2637 C   0  0  0  0  0  0
  -25.9494  -30.8017   21.3727 C   0  0  0  0  0  0
  -26.0226  -29.4326   20.7168 C   0  0  0  0  0  0
  -27.2072  -28.6452   20.7051 C   0  0  0  0  0  0
  -26.0407  -26.9319   19.4453 C   0  0  0  0  0  0
  -24.8652  -27.7018   19.4715 C   0  0  0  0  0  0
  -23.6226  -29.8251   20.1621 C   0  0  0  0  0  0
  -25.4122  -36.3087   24.0322 C   0  0  1  0  0  0
  -20.5876  -28.3678   23.1305 C   0  0  2  0  0  0
  -20.6787  -26.9408   22.5426 C   0  0  0  0  0  0
  -19.5759  -26.6391   21.5227 C   0  0  0  0  0  0
  -18.1925  -26.7932   22.1618 C   0  0  0  0  0  0
  -19.1524  -28.8839   23.2895 C   0  0  0  0  0  0
  -18.9461  -30.1445   23.8909 C   0  0  0  0  0  0
  -17.6464  -30.6588   24.0555 C   0  0  0  0  0  0
  -25.9056  -34.9468   23.5098 C   0  0  0  0  0  0
  -16.5355  -29.9087   23.6326 C   0  0  0  0  0  0
  -16.7272  -28.6508   23.0338 C   0  0  0  0  0  0
  -26.4475  -31.6574   25.0679 C   0  0  0  0  0  0
  -25.3725  -31.3693   26.1413 C   0  0  0  0  0  0
  -27.0292  -30.3003   24.6083 C   0  0  0  0  0  0
  -27.6049  -32.4297   25.7441 C   0  0  0  0  0  0
  -27.5577  -37.1802   24.8455 C   0  0  0  0  0  0
  -21.4140  -29.3043   22.3690 N   0  0  0  0  0  0
  -26.4307  -37.3779   23.9388 N   0  0  0  0  0  0
  -24.6787  -31.0668   22.0990 N   0  0  0  0  0  0
  -23.4160  -28.8179   23.3013 O   0  0  0  0  0  0
  -28.3751  -26.5644   20.1111 O   0  0  0  0  0  0
  -26.5632  -34.8932   22.4670 O   0  0  0  0  0  0
  -23.5379  -32.1445   23.7404 O   0  0  0  0  0  0
  -29.7946  -18.2586   18.1672 C   0  0  0  0  0  0
  -30.0642  -19.4483   18.8753 C   0  0  0  0  0  0
  -29.7771  -17.0133   18.8263 C   0  0  0  0  0  0
  -30.3060  -19.4168   20.2656 C   0  0  0  0  0  0
  -30.0267  -16.9290   20.2142 C   0  0  0  0  0  0
  -30.2724  -18.1409   20.9278 C   0  0  0  0  0  0
  -30.7128  -20.6720   20.9737 C   0  0  0  0  0  0
  -27.8427  -22.0250   20.0923 C   0  0  0  0  0  0
  -29.2800  -24.1862   20.2979 C   0  0  0  0  0  0
  -27.2623  -21.8777   21.4927 C   0  0  0  0  0  0
  -28.2718  -25.1781   19.6363 C   0  0  0  0  0  0
  -29.2402  -22.6480   19.9433 C   0  0  1  0  0  0
  -29.9698  -15.6400   20.8678 N   0  0  0  0  0  0
  -30.2416  -21.9439   20.8013 N   0  0  0  0  0  0
  -31.6951  -20.5639   21.8693 N   0  3  0  0  0  0
  -27.2026  -21.5998   19.1290 O   0  0  0  0  0  0
  -30.1220  -24.6131   21.0982 O   0  0  0  0  0  0
  -30.5190  -18.0628   22.2597 F   0  0  0  0  0  0
  -31.4745  -12.4174   19.1460 H   0  0  0  0  0  0
  -30.3217  -11.3386   19.8757 H   0  0  0  0  0  0
  -29.7543  -11.7623   17.4560 H   0  0  0  0  0  0
  -29.6670  -13.4782   17.7635 H   0  0  0  0  0  0
  -27.8496  -11.3017   18.8480 H   0  0  0  0  0  0
  -27.3751  -12.6053   17.7917 H   0  0  0  0  0  0
  -27.6858  -14.2562   19.5434 H   0  0  0  0  0  0
  -28.7015  -12.0377   21.3867 H   0  0  0  0  0  0
  -28.4722  -13.7032   21.8445 H   0  0  0  0  0  0
  -25.2792   -9.5650   22.4727 H   0  0  0  0  0  0
  -24.0017   -7.4620   22.7473 H   0  0  0  0  0  0
  -21.0851   -8.8773   19.8950 H   0  0  0  0  0  0
  -22.3728  -10.9661   19.6152 H   0  0  0  0  0  0
  -21.1996   -7.6145   23.9723 H   0  0  0  0  0  0
  -21.1494   -6.0514   25.9082 H   0  0  0  0  0  0
  -22.0598   -2.7608   23.2850 H   0  0  0  0  0  0
  -22.4173  -11.9835   22.4740 H   0  0  0  0  0  0
  -21.1168  -13.1220   22.2675 H   0  0  0  0  0  0
  -24.6547  -15.8373   20.5102 H   0  0  0  0  0  0
  -26.2734  -15.6316   20.0737 H   0  0  0  0  0  0
  -26.7098  -32.5453   23.1046 H   0  0  0  0  0  0
  -25.0028  -33.9741   25.0381 H   0  0  0  0  0  0
  -22.7050  -31.3085   21.4054 H   0  0  0  0  0  0
  -23.3756  -35.9646   23.3308 H   0  0  0  0  0  0
  -24.3583  -36.8936   22.2048 H   0  0  0  0  0  0
  -23.7274  -37.6527   23.6661 H   0  0  0  0  0  0
  -26.0789  -31.5642   20.6026 H   0  0  0  0  0  0
  -26.8332  -30.8521   21.9973 H   0  0  0  0  0  0
  -28.1022  -29.0071   21.1923 H   0  0  0  0  0  0
  -25.9829  -25.9998   18.9040 H   0  0  0  0  0  0
  -23.9727  -27.3289   18.9859 H   0  0  0  0  0  0
  -23.7326  -30.6029   19.4059 H   0  0  0  0  0  0
  -22.7441  -29.2510   19.8612 H   0  0  0  0  0  0
  -25.1303  -36.1951   25.0818 H   0  0  0  0  0  0
  -20.9973  -28.3284   24.1426 H   0  0  0  0  0  0
  -20.5726  -26.2274   23.3617 H   0  0  0  0  0  0
  -21.6643  -26.7474   22.1188 H   0  0  0  0  0  0
  -19.6927  -25.6314   21.1222 H   0  0  0  0  0  0
  -19.6712  -27.3227   20.6782 H   0  0  0  0  0  0
  -17.4209  -26.6682   21.4013 H   0  0  0  0  0  0
  -18.0311  -26.0091   22.9024 H   0  0  0  0  0  0
  -19.7946  -30.7241   24.2285 H   0  0  0  0  0  0
  -17.5033  -31.6266   24.5157 H   0  0  0  0  0  0
  -15.5353  -30.2989   23.7657 H   0  0  0  0  0  0
  -15.8675  -28.0837   22.7039 H   0  0  0  0  0  0
  -24.5913  -30.7032   25.7727 H   0  0  0  0  0  0
  -24.8886  -32.2842   26.4838 H   0  0  0  0  0  0
  -25.8063  -30.8865   27.0170 H   0  0  0  0  0  0
  -26.2828  -29.6775   24.1149 H   0  0  0  0  0  0
  -27.4043  -29.7244   25.4542 H   0  0  0  0  0  0
  -27.8667  -30.4277   23.9233 H   0  0  0  0  0  0
  -27.2680  -33.3604   26.2016 H   0  0  0  0  0  0
  -28.3861  -32.6856   25.0268 H   0  0  0  0  0  0
  -28.0705  -31.8414   26.5352 H   0  0  0  0  0  0
  -28.2598  -38.0100   24.7523 H   0  0  0  0  0  0
  -28.1080  -36.2635   24.6273 H   0  0  0  0  0  0
  -27.2291  -37.1458   25.8861 H   0  0  0  0  0  0
  -20.9301  -29.8757   21.6907 H   0  0  0  0  0  0
  -26.0190  -38.2851   24.1410 H   0  0  0  0  0  0
  -29.6063  -18.2982   17.1031 H   0  0  0  0  0  0
  -30.1109  -20.3813   18.3315 H   0  0  0  0  0  0
  -29.5619  -16.1239   18.2498 H   0  0  0  0  0  0
  -27.3241  -20.8360   21.8058 H   0  0  0  0  0  0
  -26.2146  -22.1782   21.5061 H   0  0  0  0  0  0
  -27.8091  -22.4879   22.2108 H   0  0  0  0  0  0
  -27.2870  -24.7679   19.8487 H   0  0  0  0  0  0
  -28.4131  -25.1539   18.5551 H   0  0  0  0  0  0
  -29.5524  -22.5362   18.9054 H   0  0  0  0  0  0
  -29.1303  -15.4555   21.3946 H   0  0  0  0  0  0
  -30.6524  -22.6631   21.3858 H   0  0  0  0  0  0
  -32.0417  -19.6376   22.0774 H   0  0  0  0  0  0
  -32.0931  -21.3385   22.3758 H   0  0  0  0  0  0
  1 25  1  0  0  0
  1 30  2  0  0  0
  1 83  1  0  0  0
  2  3  1  0  0  0
  2 25  1  0  0  0
  2 89  1  0  0  0
  2 90  1  0  0  0
  3  4  1  0  0  0
  3 91  1  0  0  0
  3 92  1  0  0  0
  4  5  1  0  0  0
  4 93  1  0  0  0
  4 94  1  0  0  0
  5  6  1  0  0  0
  5 26  1  0  0  0
  5 95  1  0  0  0
  6 25  1  0  0  0
  6 96  1  0  0  0
  6 97  1  0  0  0
  7  8  2  0  0  0
  7 26  1  0  0  0
  7 29  1  0  0  0
  8  9  1  0  0  0
  8 22  1  0  0  0
  9 10  1  0  0  0
  9 27  2  0  0  0
 10 11  2  0  0  0
 10 15  1  0  0  0
 11 12  1  0  0  0
 11 98  1  0  0  0
 12 13  2  0  0  0
 12 99  1  0  0  0
 13 14  1  0  0  0
 13 31  1  0  0  0
 14 15  2  0  0  0
 14100  1  0  0  0
 15101  1  0  0  0
 16 17  2  0  0  0
 16 21  1  0  0  0
 16 31  1  0  0  0
 17 18  1  0  0  0
 17102  1  0  0  0
 18 19  2  0  0  0
 18103  1  0  0  0
 19 20  1  0  0  0
 19 24  1  0  0  0
 20 21  2  0  0  0
 20104  1  0  0  0
 21 23  1  0  0  0
 22 28  1  0  0  0
 22 32  2  0  0  0
 26 27  1  0  0  0
 28105  1  0  0  0
 28106  1  0  0  0
 29107  1  0  0  0
 29108  1  0  0  0
 33 34  1  0  0  0
 33 66  1  0  0  0
 33 70  2  0  0  0
 34 36  1  0  0  0
 34 59  1  0  0  0
 34109  1  0  0  0
 35 44  2  0  0  0
 35 45  1  0  0  0
 35 68  1  0  0  0
 36 56  1  0  0  0
 36110  1  0  0  0
 37 39  1  0  0  0
 37 47  1  0  0  0
 37 66  1  0  0  0
 37111  1  0  0  0
 38 43  2  0  0  0
 38 46  1  0  0  0
 38 47  1  0  0  0
 39 64  1  0  0  0
 39 67  2  0  0  0
 40 52  1  0  0  0
 40 53  2  0  0  0
 40 58  1  0  0  0
 41112  1  0  0  0
 41113  1  0  0  0
 41114  1  0  0  0
 41 48  1  0  0  0
 42 43  1  0  0  0
 42 66  1  0  0  0
 42115  1  0  0  0
 42116  1  0  0  0
 43 44  1  0  0  0
 44117  1  0  0  0
 45 46  2  0  0  0
 45118  1  0  0  0
 46119  1  0  0  0
 47120  1  0  0  0
 47121  1  0  0  0
 48 56  1  0  0  0
 48 65  1  0  0  0
 48122  1  0  0  0
 49 50  1  0  0  0
 49 53  1  0  0  0
 49 64  1  0  0  0
 49123  1  0  0  0
 50 51  1  0  0  0
 50124  1  0  0  0
 50125  1  0  0  0
 51 52  1  0  0  0
 51126  1  0  0  0
 51127  1  0  0  0
 52128  1  0  0  0
 52129  1  0  0  0
 53 54  1  0  0  0
 54 55  2  0  0  0
 54130  1  0  0  0
 55 57  1  0  0  0
 55131  1  0  0  0
 56 69  2  0  0  0
 57 58  2  0  0  0
 57132  1  0  0  0
 58133  1  0  0  0
 59 60  1  0  0  0
 59 61  1  0  0  0
 59 62  1  0  0  0
 60134  1  0  0  0
 60135  1  0  0  0
 60136  1  0  0  0
 61137  1  0  0  0
 61138  1  0  0  0
 61139  1  0  0  0
 62140  1  0  0  0
 62141  1  0  0  0
 62142  1  0  0  0
 63 65  1  0  0  0
 63143  1  0  0  0
 63144  1  0  0  0
 63145  1  0  0  0
 64146  1  0  0  0
 65147  1  0  0  0
 68 81  1  0  0  0
 71 72  2  0  0  0
 71 73  1  0  0  0
 71148  1  0  0  0
 72 74  1  0  0  0
 72149  1  0  0  0
 73 75  2  0  0  0
 73150  1  0  0  0
 74 76  2  0  0  0
 74 77  1  0  0  0
 75 76  1  0  0  0
 75 83  1  0  0  0
 76 88  1  0  0  0
 77 84  1  0  0  0
 77 85  2  0  0  0
 78 80  1  0  0  0
 78 82  1  0  0  0
 78 86  2  0  0  0
 79 81  1  0  0  0
 79 82  1  0  0  0
 79 87  2  0  0  0
 80151  1  0  0  0
 80152  1  0  0  0
 80153  1  0  0  0
 81154  1  0  0  0
 81155  1  0  0  0
 82 84  1  0  0  0
 82156  1  0  0  0
 83157  1  0  0  0
 84158  1  0  0  0
 85159  1  0  0  0
 85160  1  0  0  0
M  CHG  1  85   1
M  ISO  4   1 100  68 101  81 101  83 100
M  END
> <chiral flag>
0

> <version>
0

> <s_m_source_file>
/data/baiqing/PycharmProjects/Reinvent-master-3.2/result/LINK_invent/BTK/process_docking_weight1_custom_product_contain_oxygen_bond_distance_aromatic_linkinvent_7_9_3/rearranged_h_0167.sdf

> <i_m_source_file_index>
81

> <r_mmod_Potential_Energy-OPLS-2005>
-350.02197265625

> <r_mmod_Stretch_Energy-OPLS-2005>
59.8132133483887

> <r_mmod_Bend_Energy-OPLS-2005>
132.009048461914

> <r_mmod_Torsional_Energy-OPLS-2005>
250.372497558594

> <r_mmod_Improper_Torsional_Energy-OPLS-2005>
6.08478546142578

> <r_mmod_Van_der_Waal_Energy-OPLS-2005>
147.555465698242

> <r_mmod_Electrostatic_Energy-OPLS-2005>
-516.962341308594

> <r_mmod_Solvation_Energy-OPLS-2005>
-457.737274169922

> <b_mmod_Minimization_Converged-OPLS-2005>
0

> <r_mmod_RMS_Derivative-OPLS-2005>
2.49576497077942

$$$$
82
                    3D
 Structure written by MMmdl.
157165  0  0  1  0            999 V2000
  -30.6996  -14.4947   20.5759 C   0  0  0  0  0  0
  -30.4280  -12.3292   19.4137 C   0  0  0  0  0  0
  -29.4874  -12.5031   18.1988 C   0  0  0  0  0  0
  -28.0122  -12.3664   18.6223 C   0  0  0  0  0  0
  -27.6617  -13.2066   19.8784 C   0  0  2  0  0  0
  -28.7096  -12.9947   20.9951 C   0  0  0  0  0  0
  -25.2628  -13.8157   20.5769 C   0  0  0  0  0  0
  -24.1844  -13.0436   20.9166 C   0  0  0  0  0  0
  -24.6381  -11.6887   20.8735 C   0  0  0  0  0  0
  -23.9046  -10.4291   21.0446 C   0  0  0  0  0  0
  -24.3598   -9.4193   21.9217 C   0  0  0  0  0  0
  -23.6281   -8.2230   22.0769 C   0  0  0  0  0  0
  -22.4258   -8.0297   21.3567 C   0  0  0  0  0  0
  -21.9899   -9.0262   20.4663 C   0  0  0  0  0  0
  -22.7231  -10.2141   20.3079 C   0  0  0  0  0  0
  -21.6856   -6.0729   22.5271 C   0  0  0  0  0  0
  -21.4022   -6.5615   23.8208 C   0  0  0  0  0  0
  -21.3668   -5.6761   24.9151 C   0  0  0  0  0  0
  -21.6043   -4.3030   24.7200 C   0  0  0  0  0  0
  -21.8825   -3.8122   23.4322 C   0  0  0  0  0  0
  -21.9195   -4.6950   22.3375 C   0  0  0  0  0  0
  -22.7866  -13.5282   21.1766 C   0  0  0  0  0  0
  -22.1667   -4.2135   21.0962 F   0  0  0  0  0  0
  -21.5631   -3.4517   25.7718 F   0  0  0  0  0  0
  -30.0302  -13.3171   20.4294 N   0  0  0  0  0  0
  -26.3043  -12.9320   20.3420 N   0  0  0  0  0  0
  -25.9319  -11.6470   20.5765 N   0  0  0  0  0  0
  -22.0468  -12.8343   22.0334 N   0  0  0  0  0  0
  -25.4363  -15.1899   20.4297 N   0  0  0  0  0  0
  -31.8406  -14.6701   20.1450 O   0  0  0  0  0  0
  -21.6632   -6.8892   21.4244 O   0  0  0  0  0  0
  -22.3604  -14.5591   20.6590 O   0  0  0  0  0  0
  -24.6187  -31.8675   23.2053 C   0  0  0  0  0  0
  -25.9087  -32.4779   23.8361 C   0  0  1  0  0  0
  -27.2404  -27.3968   20.1150 C   0  0  0  0  0  0
  -25.5983  -33.8580   24.2325 N   0  0  0  0  0  0
  -23.4072  -30.4928   21.5427 C   0  0  2  0  0  0
  -24.8532  -28.9468   20.1130 C   0  0  0  0  0  0
  -22.7425  -29.4669   22.4917 C   0  0  0  0  0  0
  -18.0296  -28.1401   22.8487 C   0  0  0  0  0  0
  -24.1506  -36.7287   23.2627 C   0  0  0  0  0  0
  -25.9377  -30.8222   21.3653 C   0  0  0  0  0  0
  -26.0127  -29.4529   20.7111 C   0  0  0  0  0  0
  -27.2014  -28.6855   20.7041 C   0  0  0  0  0  0
  -26.0539  -26.9072   19.5186 C   0  0  0  0  0  0
  -24.8729  -27.6758   19.5100 C   0  0  0  0  0  0
  -23.6188  -29.8217   20.1587 C   0  0  0  0  0  0
  -25.4137  -36.3094   24.0330 C   0  0  1  0  0  0
  -20.5886  -28.3693   23.1302 C   0  0  2  0  0  0
  -20.6764  -26.9434   22.5397 C   0  0  0  0  0  0
  -19.5741  -26.6405   21.5184 C   0  0  0  0  0  0
  -18.1918  -26.7964   22.1600 C   0  0  0  0  0  0
  -19.1545  -28.8846   23.2912 C   0  0  0  0  0  0
  -18.9481  -30.1438   23.8957 C   0  0  0  0  0  0
  -17.6488  -30.6602   24.0586 C   0  0  0  0  0  0
  -25.9058  -34.9443   23.5114 C   0  0  0  0  0  0
  -16.5376  -29.9110   23.6334 C   0  0  0  0  0  0
  -16.7284  -28.6516   23.0365 C   0  0  0  0  0  0
  -26.4528  -31.6563   25.0696 C   0  0  0  0  0  0
  -25.3786  -31.3659   26.1431 C   0  0  0  0  0  0
  -27.0401  -30.3018   24.6091 C   0  0  0  0  0  0
  -27.6111  -32.4312   25.7462 C   0  0  0  0  0  0
  -27.5604  -37.1792   24.8458 C   0  0  0  0  0  0
  -21.4140  -29.3090   22.3697 N   0  0  0  0  0  0
  -26.4317  -37.3798   23.9400 N   0  0  0  0  0  0
  -24.6717  -31.0767   22.0957 N   0  0  0  0  0  0
  -23.4173  -28.8181   23.2932 O   0  0  0  0  0  0
  -28.4372  -26.6908   20.1573 O   0  0  0  0  0  0
  -26.5568  -34.8913   22.4652 O   0  0  0  0  0  0
  -23.5376  -32.1447   23.7418 O   0  0  0  0  0  0
  -31.5190  -17.1432   22.1015 C   0  0  0  0  0  0
  -31.1556  -19.5497   21.8330 C   0  0  0  0  0  0
  -30.4087  -16.8692   21.2720 C   0  0  0  0  0  0
  -30.0436  -19.3127   20.9931 C   0  0  0  0  0  0
  -31.8858  -18.4766   22.3821 C   0  0  0  0  0  0
  -29.6798  -17.9620   20.7220 C   0  0  0  0  0  0
  -28.4598  -22.7684   20.2027 C   0  0  0  0  0  0
  -30.0321  -25.2725   19.1258 C   0  0  0  0  0  0
  -28.3281  -24.2266   20.7290 C   0  0  0  0  0  0
  -29.4214  -21.7788   20.9127 C   0  0  0  0  0  0
  -28.5880  -25.3372   19.6598 C   0  0  1  0  0  0
  -29.9691  -15.5209   21.0568 N   0  0  0  0  0  0
  -29.3049  -20.3841   20.4338 N   0  0  0  0  0  0
  -27.8120  -22.3933   19.2195 O   0  0  0  0  0  0
  -32.9406  -18.7296   23.1918 F   0  0  0  0  0  0
  -28.6131  -17.7080   19.9232 F   0  0  0  0  0  0
  -31.4682  -12.4418   19.1087 H   0  0  0  0  0  0
  -30.3487  -11.3203   19.8209 H   0  0  0  0  0  0
  -29.7176  -11.7698   17.4238 H   0  0  0  0  0  0
  -29.6445  -13.4811   17.7420 H   0  0  0  0  0  0
  -27.8195  -11.3110   18.8123 H   0  0  0  0  0  0
  -27.3598  -12.6478   17.7950 H   0  0  0  0  0  0
  -27.7057  -14.2503   19.5707 H   0  0  0  0  0  0
  -28.6983  -11.9564   21.3287 H   0  0  0  0  0  0
  -28.4745  -13.5888   21.8804 H   0  0  0  0  0  0
  -25.2755   -9.5634   22.4789 H   0  0  0  0  0  0
  -23.9963   -7.4605   22.7494 H   0  0  0  0  0  0
  -21.0824   -8.8796   19.8989 H   0  0  0  0  0  0
  -22.3729  -10.9666   19.6164 H   0  0  0  0  0  0
  -21.2041   -7.6126   23.9708 H   0  0  0  0  0  0
  -21.1488   -6.0490   25.9063 H   0  0  0  0  0  0
  -22.0608   -2.7593   23.2811 H   0  0  0  0  0  0
  -22.4044  -12.0047   22.4816 H   0  0  0  0  0  0
  -21.1090  -13.1453   22.2442 H   0  0  0  0  0  0
  -24.6760  -15.8457   20.5862 H   0  0  0  0  0  0
  -26.2933  -15.6442   20.1404 H   0  0  0  0  0  0
  -26.7154  -32.5481   23.1113 H   0  0  0  0  0  0
  -25.0258  -33.9693   25.0559 H   0  0  0  0  0  0
  -22.6993  -31.3118   21.3974 H   0  0  0  0  0  0
  -23.3780  -35.9605   23.3273 H   0  0  0  0  0  0
  -24.3561  -36.8925   22.2038 H   0  0  0  0  0  0
  -23.7225  -37.6474   23.6653 H   0  0  0  0  0  0
  -26.0645  -31.5952   20.6049 H   0  0  0  0  0  0
  -26.8149  -30.8610   21.9972 H   0  0  0  0  0  0
  -28.0969  -29.0753   21.1661 H   0  0  0  0  0  0
  -26.0110  -25.9331   19.0566 H   0  0  0  0  0  0
  -23.9820  -27.2769   19.0413 H   0  0  0  0  0  0
  -23.7359  -30.5938   19.3994 H   0  0  0  0  0  0
  -22.7420  -29.2515   19.8559 H   0  0  0  0  0  0
  -25.1327  -36.1942   25.0823 H   0  0  0  0  0  0
  -21.0029  -28.3233   24.1410 H   0  0  0  0  0  0
  -20.5588  -26.2340   23.3591 H   0  0  0  0  0  0
  -21.6640  -26.7439   22.1251 H   0  0  0  0  0  0
  -19.6917  -25.6302   21.1253 H   0  0  0  0  0  0
  -19.6674  -27.3171   20.6678 H   0  0  0  0  0  0
  -17.4177  -26.6718   21.4022 H   0  0  0  0  0  0
  -18.0284  -26.0118   22.9008 H   0  0  0  0  0  0
  -19.7956  -30.7215   24.2370 H   0  0  0  0  0  0
  -17.5068  -31.6283   24.5175 H   0  0  0  0  0  0
  -15.5380  -30.3033   23.7640 H   0  0  0  0  0  0
  -15.8690  -28.0840   22.7105 H   0  0  0  0  0  0
  -24.6006  -30.6957   25.7749 H   0  0  0  0  0  0
  -24.8909  -32.2806   26.4831 H   0  0  0  0  0  0
  -25.8128  -30.8874   27.0214 H   0  0  0  0  0  0
  -26.2942  -29.6694   24.1267 H   0  0  0  0  0  0
  -27.4326  -29.7334   25.4525 H   0  0  0  0  0  0
  -27.8721  -30.4327   23.9158 H   0  0  0  0  0  0
  -27.2752  -33.3657   26.1966 H   0  0  0  0  0  0
  -28.3963  -32.6786   25.0305 H   0  0  0  0  0  0
  -28.0748  -31.8480   26.5422 H   0  0  0  0  0  0
  -28.2619  -38.0099   24.7581 H   0  0  0  0  0  0
  -28.1103  -36.2638   24.6240 H   0  0  0  0  0  0
  -27.2293  -37.1414   25.8845 H   0  0  0  0  0  0
  -20.9262  -29.8949   21.7069 H   0  0  0  0  0  0
  -26.0213  -38.2875   24.1416 H   0  0  0  0  0  0
  -32.0842  -16.3390   22.5513 H   0  0  0  0  0  0
  -31.4690  -20.5563   22.0677 H   0  0  0  0  0  0
  -30.1639  -25.9389   18.2742 H   0  0  0  0  0  0
  -30.2957  -24.2726   18.7863 H   0  0  0  0  0  0
  -30.7566  -25.5563   19.8903 H   0  0  0  0  0  0
  -28.9878  -24.3621   21.5872 H   0  0  0  0  0  0
  -27.3124  -24.3393   21.1098 H   0  0  0  0  0  0
  -29.2338  -21.8149   21.9877 H   0  0  0  0  0  0
  -30.4415  -22.1323   20.7512 H   0  0  0  0  0  0
  -27.9389  -25.1548   18.8058 H   0  0  0  0  0  0
  -28.9846  -15.3376   21.1840 H   0  0  0  0  0  0
  -28.4972  -20.1676   19.8497 H   0  0  0  0  0  0
  1 25  1  0  0  0
  1 30  2  0  0  0
  1 82  1  0  0  0
  2  3  1  0  0  0
  2 25  1  0  0  0
  2 87  1  0  0  0
  2 88  1  0  0  0
  3  4  1  0  0  0
  3 89  1  0  0  0
  3 90  1  0  0  0
  4  5  1  0  0  0
  4 91  1  0  0  0
  4 92  1  0  0  0
  5  6  1  0  0  0
  5 26  1  0  0  0
  5 93  1  0  0  0
  6 25  1  0  0  0
  6 94  1  0  0  0
  6 95  1  0  0  0
  7  8  2  0  0  0
  7 26  1  0  0  0
  7 29  1  0  0  0
  8  9  1  0  0  0
  8 22  1  0  0  0
  9 10  1  0  0  0
  9 27  2  0  0  0
 10 11  2  0  0  0
 10 15  1  0  0  0
 11 12  1  0  0  0
 11 96  1  0  0  0
 12 13  2  0  0  0
 12 97  1  0  0  0
 13 14  1  0  0  0
 13 31  1  0  0  0
 14 15  2  0  0  0
 14 98  1  0  0  0
 15 99  1  0  0  0
 16 17  2  0  0  0
 16 21  1  0  0  0
 16 31  1  0  0  0
 17 18  1  0  0  0
 17100  1  0  0  0
 18 19  2  0  0  0
 18101  1  0  0  0
 19 20  1  0  0  0
 19 24  1  0  0  0
 20 21  2  0  0  0
 20102  1  0  0  0
 21 23  1  0  0  0
 22 28  1  0  0  0
 22 32  2  0  0  0
 26 27  1  0  0  0
 28103  1  0  0  0
 28104  1  0  0  0
 29105  1  0  0  0
 29106  1  0  0  0
 33 34  1  0  0  0
 33 66  1  0  0  0
 33 70  2  0  0  0
 34 36  1  0  0  0
 34 59  1  0  0  0
 34107  1  0  0  0
 35 44  2  0  0  0
 35 45  1  0  0  0
 35 68  1  0  0  0
 36 56  1  0  0  0
 36108  1  0  0  0
 37 39  1  0  0  0
 37 47  1  0  0  0
 37 66  1  0  0  0
 37109  1  0  0  0
 38 43  2  0  0  0
 38 46  1  0  0  0
 38 47  1  0  0  0
 39 64  1  0  0  0
 39 67  2  0  0  0
 40 52  1  0  0  0
 40 53  2  0  0  0
 40 58  1  0  0  0
 41110  1  0  0  0
 41111  1  0  0  0
 41112  1  0  0  0
 41 48  1  0  0  0
 42 43  1  0  0  0
 42 66  1  0  0  0
 42113  1  0  0  0
 42114  1  0  0  0
 43 44  1  0  0  0
 44115  1  0  0  0
 45 46  2  0  0  0
 45116  1  0  0  0
 46117  1  0  0  0
 47118  1  0  0  0
 47119  1  0  0  0
 48 56  1  0  0  0
 48 65  1  0  0  0
 48120  1  0  0  0
 49 50  1  0  0  0
 49 53  1  0  0  0
 49 64  1  0  0  0
 49121  1  0  0  0
 50 51  1  0  0  0
 50122  1  0  0  0
 50123  1  0  0  0
 51 52  1  0  0  0
 51124  1  0  0  0
 51125  1  0  0  0
 52126  1  0  0  0
 52127  1  0  0  0
 53 54  1  0  0  0
 54 55  2  0  0  0
 54128  1  0  0  0
 55 57  1  0  0  0
 55129  1  0  0  0
 56 69  2  0  0  0
 57 58  2  0  0  0
 57130  1  0  0  0
 58131  1  0  0  0
 59 60  1  0  0  0
 59 61  1  0  0  0
 59 62  1  0  0  0
 60132  1  0  0  0
 60133  1  0  0  0
 60134  1  0  0  0
 61135  1  0  0  0
 61136  1  0  0  0
 61137  1  0  0  0
 62138  1  0  0  0
 62139  1  0  0  0
 62140  1  0  0  0
 63 65  1  0  0  0
 63141  1  0  0  0
 63142  1  0  0  0
 63143  1  0  0  0
 64144  1  0  0  0
 65145  1  0  0  0
 68 81  1  0  0  0
 71 73  2  0  0  0
 71 75  1  0  0  0
 71146  1  0  0  0
 72 74  1  0  0  0
 72 75  2  0  0  0
 72147  1  0  0  0
 73 76  1  0  0  0
 73 82  1  0  0  0
 74 76  2  0  0  0
 74 83  1  0  0  0
 75 85  1  0  0  0
 76 86  1  0  0  0
 77 79  1  0  0  0
 77 80  1  0  0  0
 77 84  2  0  0  0
 78148  1  0  0  0
 78149  1  0  0  0
 78150  1  0  0  0
 78 81  1  0  0  0
 79 81  1  0  0  0
 79151  1  0  0  0
 79152  1  0  0  0
 80 83  1  0  0  0
 80153  1  0  0  0
 80154  1  0  0  0
 81155  1  0  0  0
 82156  1  0  0  0
 83157  1  0  0  0
M  ISO  4   1 100  68 101  81 101  82 100
M  END
> <chiral flag>
0

> <version>
0

> <s_m_source_file>
/data/baiqing/PycharmProjects/Reinvent-master-3.2/result/LINK_invent/BTK/process_docking_weight1_custom_product_contain_oxygen_bond_distance_aromatic_linkinvent_7_9_3/rearranged_h_0167.sdf

> <i_m_source_file_index>
82

> <r_mmod_Potential_Energy-OPLS-2005>
-17.5891742706299

> <r_mmod_Stretch_Energy-OPLS-2005>
46.200855255127

> <r_mmod_Bend_Energy-OPLS-2005>
120.201095581055

> <r_mmod_Torsional_Energy-OPLS-2005>
204.051086425781

> <r_mmod_Improper_Torsional_Energy-OPLS-2005>
4.59882926940918

> <r_mmod_Van_der_Waal_Energy-OPLS-2005>
149.231567382812

> <r_mmod_Electrostatic_Energy-OPLS-2005>
-342.234008789062

> <r_mmod_Solvation_Energy-OPLS-2005>
-217.493789672852

> <b_mmod_Minimization_Converged-OPLS-2005>
0

> <r_mmod_RMS_Derivative-OPLS-2005>
5.30118656158447

$$$$
83
                    3D
 Structure written by MMmdl.
155163  0  0  1  0            999 V2000
  -30.7518  -14.3898   20.6078 C   0  0  0  0  0  0
  -30.4088  -12.2668   19.4013 C   0  0  0  0  0  0
  -29.4830  -12.5063   18.1936 C   0  0  0  0  0  0
  -28.0055  -12.3763   18.6124 C   0  0  0  0  0  0
  -27.6668  -13.2056   19.8809 C   0  0  2  0  0  0
  -28.7125  -12.9698   20.9957 C   0  0  0  0  0  0
  -25.2615  -13.8163   20.5697 C   0  0  0  0  0  0
  -24.1860  -13.0445   20.9178 C   0  0  0  0  0  0
  -24.6404  -11.6909   20.8738 C   0  0  0  0  0  0
  -23.9067  -10.4298   21.0408 C   0  0  0  0  0  0
  -24.3619   -9.4210   21.9179 C   0  0  0  0  0  0
  -23.6296   -8.2243   22.0752 C   0  0  0  0  0  0
  -22.4275   -8.0286   21.3543 C   0  0  0  0  0  0
  -21.9911   -9.0261   20.4644 C   0  0  0  0  0  0
  -22.7242  -10.2139   20.3053 C   0  0  0  0  0  0
  -21.6851   -6.0739   22.5280 C   0  0  0  0  0  0
  -21.4011   -6.5639   23.8217 C   0  0  0  0  0  0
  -21.3658   -5.6791   24.9174 C   0  0  0  0  0  0
  -21.6045   -4.3056   24.7223 C   0  0  0  0  0  0
  -21.8818   -3.8148   23.4342 C   0  0  0  0  0  0
  -21.9191   -4.6965   22.3403 C   0  0  0  0  0  0
  -22.7879  -13.5249   21.1839 C   0  0  0  0  0  0
  -22.1662   -4.2156   21.0978 F   0  0  0  0  0  0
  -21.5626   -3.4539   25.7730 F   0  0  0  0  0  0
  -30.0464  -13.2418   20.4396 N   0  0  0  0  0  0
  -26.3066  -12.9331   20.3424 N   0  0  0  0  0  0
  -25.9339  -11.6491   20.5794 N   0  0  0  0  0  0
  -22.0519  -12.8240   22.0390 N   0  0  0  0  0  0
  -25.4351  -15.1879   20.4109 N   0  0  0  0  0  0
  -31.8409  -14.5716   20.0548 O   0  0  0  0  0  0
  -21.6639   -6.8884   21.4244 O   0  0  0  0  0  0
  -22.3572  -14.5567   20.6705 O   0  0  0  0  0  0
  -24.6112  -31.8719   23.2098 C   0  0  0  0  0  0
  -25.9025  -32.4835   23.8388 C   0  0  1  0  0  0
  -27.2413  -27.4723   20.0876 C   0  0  0  0  0  0
  -25.5902  -33.8628   24.2319 N   0  0  0  0  0  0
  -23.3962  -30.4942   21.5526 C   0  0  2  0  0  0
  -24.8423  -28.9584   20.1193 C   0  0  0  0  0  0
  -22.7375  -29.4677   22.5031 C   0  0  0  0  0  0
  -18.0264  -28.1368   22.8512 C   0  0  0  0  0  0
  -24.1490  -36.7313   23.2635 C   0  0  0  0  0  0
  -25.9212  -30.8472   21.3557 C   0  0  0  0  0  0
  -25.9991  -29.4797   20.7136 C   0  0  0  0  0  0
  -27.2017  -28.7439   20.7010 C   0  0  0  0  0  0
  -26.0723  -26.9566   19.4962 C   0  0  0  0  0  0
  -24.8699  -27.6890   19.5117 C   0  0  0  0  0  0
  -23.6010  -29.8201   20.1686 C   0  0  0  0  0  0
  -25.4115  -36.3109   24.0333 C   0  0  1  0  0  0
  -20.5856  -28.3632   23.1360 C   0  0  2  0  0  0
  -20.6764  -26.9378   22.5428 C   0  0  0  0  0  0
  -19.5733  -26.6383   21.5226 C   0  0  0  0  0  0
  -18.1909  -26.7914   22.1639 C   0  0  0  0  0  0
  -19.1513  -28.8820   23.2932 C   0  0  0  0  0  0
  -18.9449  -30.1447   23.8910 C   0  0  0  0  0  0
  -17.6447  -30.6579   24.0568 C   0  0  0  0  0  0
  -25.9050  -34.9480   23.5126 C   0  0  0  0  0  0
  -16.5334  -29.9085   23.6321 C   0  0  0  0  0  0
  -16.7256  -28.6500   23.0353 C   0  0  0  0  0  0
  -26.4453  -31.6610   25.0712 C   0  0  0  0  0  0
  -25.3720  -31.3716   26.1462 C   0  0  0  0  0  0
  -27.0282  -30.3058   24.6044 C   0  0  0  0  0  0
  -27.6042  -32.4310   25.7471 C   0  0  0  0  0  0
  -27.5590  -37.1812   24.8460 C   0  0  0  0  0  0
  -21.4112  -29.3017   22.3765 N   0  0  0  0  0  0
  -26.4292  -37.3805   23.9413 N   0  0  0  0  0  0
  -24.6611  -31.0882   22.0960 N   0  0  0  0  0  0
  -23.4164  -28.8229   23.3060 O   0  0  0  0  0  0
  -28.3829  -26.7139   19.9943 O   0  0  0  0  0  0
  -26.5598  -34.8930   22.4682 O   0  0  0  0  0  0
  -23.5322  -32.1460   23.7524 O   0  0  0  0  0  0
  -30.0960  -19.2459   21.2277 C   0  0  0  0  0  0
  -30.0930  -18.0185   23.3358 C   0  0  0  0  0  0
  -29.2660  -20.3097   23.2514 C   0  0  0  0  0  0
  -30.3629  -18.0632   21.9534 C   0  0  0  0  0  0
  -29.5584  -20.3857   21.8659 C   0  0  0  0  0  0
  -29.5373  -19.1368   23.9809 C   0  0  0  0  0  0
  -29.1351  -26.5142   21.1181 C   0  0  0  0  0  0
  -29.5024  -22.6950   21.5532 C   0  0  0  0  0  0
  -29.5397  -25.3017   21.5605 C   0  0  0  0  0  0
  -29.1799  -24.0180   20.8752 C   0  0  0  0  0  0
  -30.9679  -16.8574   21.2539 C   0  0  0  0  0  0
  -30.1638  -15.5460   21.4329 C   0  0  0  0  0  0
  -29.2857  -21.5213   21.0866 N   0  0  0  0  0  0
  -28.6143  -23.9959   19.7749 O   0  0  0  0  0  0
  -30.2975  -25.2375   22.6667 O   0  0  0  0  0  0
  -29.2596  -19.0859   25.3055 F   0  0  0  0  0  0
  -31.4546  -12.3357   19.0967 H   0  0  0  0  0  0
  -30.2808  -11.2526   19.7834 H   0  0  0  0  0  0
  -29.7095  -11.7963   17.3971 H   0  0  0  0  0  0
  -29.6656  -13.4992   17.7791 H   0  0  0  0  0  0
  -27.8048  -11.3198   18.7957 H   0  0  0  0  0  0
  -27.3535  -12.6697   17.7886 H   0  0  0  0  0  0
  -27.7183  -14.2563   19.5961 H   0  0  0  0  0  0
  -28.6699  -11.9356   21.3414 H   0  0  0  0  0  0
  -28.4913  -13.5780   21.8725 H   0  0  0  0  0  0
  -25.2770   -9.5678   22.4752 H   0  0  0  0  0  0
  -24.0007   -7.4630   22.7471 H   0  0  0  0  0  0
  -21.0842   -8.8782   19.8951 H   0  0  0  0  0  0
  -22.3708  -10.9674   19.6161 H   0  0  0  0  0  0
  -21.2006   -7.6147   23.9719 H   0  0  0  0  0  0
  -21.1482   -6.0518   25.9078 H   0  0  0  0  0  0
  -22.0598   -2.7612   23.2838 H   0  0  0  0  0  0
  -22.4130  -11.9896   22.4765 H   0  0  0  0  0  0
  -21.1142  -13.1275   22.2607 H   0  0  0  0  0  0
  -24.6738  -15.8490   20.5247 H   0  0  0  0  0  0
  -26.2998  -15.6262   20.1176 H   0  0  0  0  0  0
  -26.7110  -32.5547   23.1177 H   0  0  0  0  0  0
  -25.0090  -33.9785   25.0484 H   0  0  0  0  0  0
  -22.6820  -31.3091   21.4164 H   0  0  0  0  0  0
  -23.3745  -35.9653   23.3296 H   0  0  0  0  0  0
  -24.3616  -36.8916   22.2052 H   0  0  0  0  0  0
  -23.7233  -37.6517   23.6646 H   0  0  0  0  0  0
  -26.0316  -31.6059   20.5796 H   0  0  0  0  0  0
  -26.8111  -30.9056   21.9711 H   0  0  0  0  0  0
  -28.0926  -29.1676   21.1424 H   0  0  0  0  0  0
  -26.0990  -25.9869   19.0196 H   0  0  0  0  0  0
  -23.9819  -27.2786   19.0506 H   0  0  0  0  0  0
  -23.6969  -30.5921   19.4043 H   0  0  0  0  0  0
  -22.7252  -29.2339   19.8823 H   0  0  0  0  0  0
  -25.1291  -36.1976   25.0824 H   0  0  0  0  0  0
  -20.9980  -28.3192   24.1471 H   0  0  0  0  0  0
  -20.5694  -26.2229   23.3607 H   0  0  0  0  0  0
  -21.6644  -26.7446   22.1226 H   0  0  0  0  0  0
  -19.6878  -25.6303   21.1236 H   0  0  0  0  0  0
  -19.6672  -27.3214   20.6772 H   0  0  0  0  0  0
  -17.4202  -26.6691   21.4009 H   0  0  0  0  0  0
  -18.0279  -26.0043   22.9021 H   0  0  0  0  0  0
  -19.7927  -30.7279   24.2260 H   0  0  0  0  0  0
  -17.4998  -31.6250   24.5180 H   0  0  0  0  0  0
  -15.5334  -30.2988   23.7643 H   0  0  0  0  0  0
  -15.8661  -28.0835   22.7045 H   0  0  0  0  0  0
  -24.5882  -30.7073   25.7808 H   0  0  0  0  0  0
  -24.8917  -32.2868   26.4914 H   0  0  0  0  0  0
  -25.8061  -30.8882   27.0217 H   0  0  0  0  0  0
  -26.2820  -29.6828   24.1085 H   0  0  0  0  0  0
  -27.4079  -29.7268   25.4475 H   0  0  0  0  0  0
  -27.8636  -30.4405   23.9162 H   0  0  0  0  0  0
  -27.2685  -33.3600   26.2087 H   0  0  0  0  0  0
  -28.3833  -32.6880   25.0285 H   0  0  0  0  0  0
  -28.0733  -31.8409   26.5354 H   0  0  0  0  0  0
  -28.2607  -38.0119   24.7574 H   0  0  0  0  0  0
  -28.1092  -36.2663   24.6203 H   0  0  0  0  0  0
  -27.2339  -37.1371   25.8872 H   0  0  0  0  0  0
  -20.9252  -29.8724   21.6992 H   0  0  0  0  0  0
  -26.0169  -38.2877   24.1418 H   0  0  0  0  0  0
  -30.3138  -19.2846   20.1691 H   0  0  0  0  0  0
  -30.3077  -17.1284   23.9093 H   0  0  0  0  0  0
  -28.8251  -21.1444   23.7757 H   0  0  0  0  0  0
  -29.3884  -27.4406   21.6121 H   0  0  0  0  0  0
  -29.9611  -22.7893   22.5416 H   0  0  0  0  0  0
  -31.9828  -16.7234   21.6321 H   0  0  0  0  0  0
  -31.0729  -17.0807   20.1900 H   0  0  0  0  0  0
  -29.1343  -15.7173   21.1184 H   0  0  0  0  0  0
  -30.1405  -15.2471   22.4801 H   0  0  0  0  0  0
  -30.4383  -26.1265   22.9667 H   0  0  0  0  0  0
  1 25  1  0  0  0
  1 30  2  0  0  0
  1 82  1  0  0  0
  2  3  1  0  0  0
  2 25  1  0  0  0
  2 87  1  0  0  0
  2 88  1  0  0  0
  3  4  1  0  0  0
  3 89  1  0  0  0
  3 90  1  0  0  0
  4  5  1  0  0  0
  4 91  1  0  0  0
  4 92  1  0  0  0
  5  6  1  0  0  0
  5 26  1  0  0  0
  5 93  1  0  0  0
  6 25  1  0  0  0
  6 94  1  0  0  0
  6 95  1  0  0  0
  7  8  2  0  0  0
  7 26  1  0  0  0
  7 29  1  0  0  0
  8  9  1  0  0  0
  8 22  1  0  0  0
  9 10  1  0  0  0
  9 27  2  0  0  0
 10 11  2  0  0  0
 10 15  1  0  0  0
 11 12  1  0  0  0
 11 96  1  0  0  0
 12 13  2  0  0  0
 12 97  1  0  0  0
 13 14  1  0  0  0
 13 31  1  0  0  0
 14 15  2  0  0  0
 14 98  1  0  0  0
 15 99  1  0  0  0
 16 17  2  0  0  0
 16 21  1  0  0  0
 16 31  1  0  0  0
 17 18  1  0  0  0
 17100  1  0  0  0
 18 19  2  0  0  0
 18101  1  0  0  0
 19 20  1  0  0  0
 19 24  1  0  0  0
 20 21  2  0  0  0
 20102  1  0  0  0
 21 23  1  0  0  0
 22 28  1  0  0  0
 22 32  2  0  0  0
 26 27  1  0  0  0
 28103  1  0  0  0
 28104  1  0  0  0
 29105  1  0  0  0
 29106  1  0  0  0
 33 34  1  0  0  0
 33 66  1  0  0  0
 33 70  2  0  0  0
 34 36  1  0  0  0
 34 59  1  0  0  0
 34107  1  0  0  0
 35 44  2  0  0  0
 35 45  1  0  0  0
 35 68  1  0  0  0
 36 56  1  0  0  0
 36108  1  0  0  0
 37 39  1  0  0  0
 37 47  1  0  0  0
 37 66  1  0  0  0
 37109  1  0  0  0
 38 43  2  0  0  0
 38 46  1  0  0  0
 38 47  1  0  0  0
 39 64  1  0  0  0
 39 67  2  0  0  0
 40 52  1  0  0  0
 40 53  2  0  0  0
 40 58  1  0  0  0
 41110  1  0  0  0
 41111  1  0  0  0
 41112  1  0  0  0
 41 48  1  0  0  0
 42 43  1  0  0  0
 42 66  1  0  0  0
 42113  1  0  0  0
 42114  1  0  0  0
 43 44  1  0  0  0
 44115  1  0  0  0
 45 46  2  0  0  0
 45116  1  0  0  0
 46117  1  0  0  0
 47118  1  0  0  0
 47119  1  0  0  0
 48 56  1  0  0  0
 48 65  1  0  0  0
 48120  1  0  0  0
 49 50  1  0  0  0
 49 53  1  0  0  0
 49 64  1  0  0  0
 49121  1  0  0  0
 50 51  1  0  0  0
 50122  1  0  0  0
 50123  1  0  0  0
 51 52  1  0  0  0
 51124  1  0  0  0
 51125  1  0  0  0
 52126  1  0  0  0
 52127  1  0  0  0
 53 54  1  0  0  0
 54 55  2  0  0  0
 54128  1  0  0  0
 55 57  1  0  0  0
 55129  1  0  0  0
 56 69  2  0  0  0
 57 58  2  0  0  0
 57130  1  0  0  0
 58131  1  0  0  0
 59 60  1  0  0  0
 59 61  1  0  0  0
 59 62  1  0  0  0
 60132  1  0  0  0
 60133  1  0  0  0
 60134  1  0  0  0
 61135  1  0  0  0
 61136  1  0  0  0
 61137  1  0  0  0
 62138  1  0  0  0
 62139  1  0  0  0
 62140  1  0  0  0
 63 65  1  0  0  0
 63141  1  0  0  0
 63142  1  0  0  0
 63143  1  0  0  0
 64144  1  0  0  0
 65145  1  0  0  0
 68 77  1  0  0  0
 71 74  2  0  0  0
 71 75  1  0  0  0
 71146  1  0  0  0
 72 74  1  0  0  0
 72 76  2  0  0  0
 72147  1  0  0  0
 73 75  2  0  0  0
 73 76  1  0  0  0
 73148  1  0  0  0
 74 81  1  0  0  0
 75 83  1  0  0  0
 76 86  1  0  0  0
 77 79  2  0  0  0
 77149  1  0  0  0
 78 80  1  0  0  0
 78 83  2  0  0  0
 78150  1  0  0  0
 79 80  1  0  0  0
 79 85  1  0  0  0
 80 84  2  0  0  0
 81 82  1  0  0  0
 81151  1  0  0  0
 81152  1  0  0  0
 82153  1  0  0  0
 82154  1  0  0  0
 85155  1  0  0  0
M  ISO  4   1 100  68 101  77 101  82 100
M  END
> <chiral flag>
0

> <version>
0

> <s_m_source_file>
/data/baiqing/PycharmProjects/Reinvent-master-3.2/result/LINK_invent/BTK/process_docking_weight1_custom_product_contain_oxygen_bond_distance_aromatic_linkinvent_7_9_3/rearranged_h_0167.sdf

> <i_m_source_file_index>
83

> <r_mmod_Potential_Energy-OPLS-2005>
25.2672691345215

> <r_mmod_Stretch_Energy-OPLS-2005>
35.7875366210938

> <r_mmod_Bend_Energy-OPLS-2005>
93.7784271240234

> <r_mmod_Torsional_Energy-OPLS-2005>
171.931579589844

> <r_mmod_Improper_Torsional_Energy-OPLS-2005>
2.29111623764038

> <r_mmod_Van_der_Waal_Energy-OPLS-2005>
165.555313110352

> <r_mmod_Electrostatic_Energy-OPLS-2005>
-228.251663208008

> <r_mmod_Solvation_Energy-OPLS-2005>
-223.736145019531

> <b_mmod_Minimization_Converged-OPLS-2005>
0

> <r_mmod_RMS_Derivative-OPLS-2005>
2.27774238586426

$$$$
84
                    3D
 Structure written by MMmdl.
157165  0  0  1  0            999 V2000
  -30.6849  -14.5716   20.5770 C   0  0  0  0  0  0
  -30.4328  -12.3760   19.4283 C   0  0  0  0  0  0
  -29.4975  -12.5024   18.2046 C   0  0  0  0  0  0
  -28.0250  -12.3392   18.6265 C   0  0  0  0  0  0
  -27.6573  -13.2047   19.8583 C   0  0  2  0  0  0
  -28.7023  -13.0439   20.9844 C   0  0  0  0  0  0
  -25.2638  -13.8159   20.5634 C   0  0  0  0  0  0
  -24.1887  -13.0485   20.9135 C   0  0  0  0  0  0
  -24.6392  -11.6938   20.8686 C   0  0  0  0  0  0
  -23.9047  -10.4347   21.0366 C   0  0  0  0  0  0
  -24.3625   -9.4275   21.9144 C   0  0  0  0  0  0
  -23.6288   -8.2317   22.0756 C   0  0  0  0  0  0
  -22.4272   -8.0335   21.3537 C   0  0  0  0  0  0
  -21.9882   -9.0311   20.4642 C   0  0  0  0  0  0
  -22.7218  -10.2181   20.3029 C   0  0  0  0  0  0
  -21.6876   -6.0774   22.5308 C   0  0  0  0  0  0
  -21.4033   -6.5666   23.8248 C   0  0  0  0  0  0
  -21.3620   -5.6788   24.9190 C   0  0  0  0  0  0
  -21.6047   -4.3058   24.7219 C   0  0  0  0  0  0
  -21.8814   -3.8165   23.4332 C   0  0  0  0  0  0
  -21.9207   -4.7002   22.3405 C   0  0  0  0  0  0
  -22.7939  -13.5328   21.1797 C   0  0  0  0  0  0
  -22.1677   -4.2207   21.0988 F   0  0  0  0  0  0
  -21.5611   -3.4528   25.7716 F   0  0  0  0  0  0
  -30.0178  -13.3870   20.4163 N   0  0  0  0  0  0
  -26.3025  -12.9302   20.3264 N   0  0  0  0  0  0
  -25.9321  -11.6474   20.5692 N   0  0  0  0  0  0
  -22.0570  -12.8356   22.0361 N   0  0  0  0  0  0
  -25.4452  -15.1865   20.4044 N   0  0  0  0  0  0
  -31.8444  -14.7288   20.1944 O   0  0  0  0  0  0
  -21.6655   -6.8928   21.4274 O   0  0  0  0  0  0
  -22.3658  -14.5652   20.6653 O   0  0  0  0  0  0
  -24.6222  -31.8655   23.2110 C   0  0  0  0  0  0
  -25.9094  -32.4857   23.8444 C   0  0  1  0  0  0
  -27.2487  -27.3744   20.1186 C   0  0  0  0  0  0
  -25.5931  -33.8654   24.2367 N   0  0  0  0  0  0
  -23.4206  -30.4826   21.5524 C   0  0  2  0  0  0
  -24.8720  -28.9405   20.1280 C   0  0  0  0  0  0
  -22.7484  -29.4631   22.5003 C   0  0  0  0  0  0
  -18.0270  -28.1428   22.8513 C   0  0  0  0  0  0
  -24.1469  -36.7307   23.2629 C   0  0  0  0  0  0
  -25.9533  -30.8132   21.3729 C   0  0  0  0  0  0
  -26.0353  -29.4369   20.7304 C   0  0  0  0  0  0
  -27.2301  -28.6635   20.7203 C   0  0  0  0  0  0
  -26.0665  -26.9056   19.5075 C   0  0  0  0  0  0
  -24.8871  -27.6763   19.5114 C   0  0  0  0  0  0
  -23.6373  -29.8163   20.1691 C   0  0  0  0  0  0
  -25.4087  -36.3118   24.0330 C   0  0  1  0  0  0
  -20.5875  -28.3707   23.1337 C   0  0  2  0  0  0
  -20.6790  -26.9440   22.5454 C   0  0  0  0  0  0
  -19.5742  -26.6403   21.5276 C   0  0  0  0  0  0
  -18.1906  -26.7969   22.1681 C   0  0  0  0  0  0
  -19.1522  -28.8881   23.2906 C   0  0  0  0  0  0
  -18.9440  -30.1479   23.8928 C   0  0  0  0  0  0
  -17.6441  -30.6640   24.0575 C   0  0  0  0  0  0
  -25.9031  -34.9498   23.5144 C   0  0  0  0  0  0
  -16.5337  -29.9126   23.6356 C   0  0  0  0  0  0
  -16.7239  -28.6548   23.0374 C   0  0  0  0  0  0
  -26.4481  -31.6657   25.0805 C   0  0  0  0  0  0
  -25.3694  -31.3817   26.1528 C   0  0  0  0  0  0
  -27.0308  -30.3093   24.6211 C   0  0  0  0  0  0
  -27.6097  -32.4355   25.7556 C   0  0  0  0  0  0
  -27.5579  -37.1823   24.8467 C   0  0  0  0  0  0
  -21.4214  -29.3095   22.3797 N   0  0  0  0  0  0
  -26.4273  -37.3809   23.9425 N   0  0  0  0  0  0
  -24.6852  -31.0666   22.1053 N   0  0  0  0  0  0
  -23.4213  -28.8111   23.3050 O   0  0  0  0  0  0
  -28.3862  -26.5723   20.0973 O   0  0  0  0  0  0
  -26.5583  -34.8926   22.4705 O   0  0  0  0  0  0
  -23.5395  -32.1457   23.7434 O   0  0  0  0  0  0
  -31.9719  -18.5761   22.3414 C   0  0  0  0  0  0
  -31.5131  -20.8906   21.7385 C   0  0  0  0  0  0
  -30.8008  -18.1265   21.6872 C   0  0  0  0  0  0
  -30.0079  -19.1071   20.9864 C   0  0  0  0  0  0
  -30.3600  -20.5084   21.0182 C   0  0  0  0  0  0
  -32.3208  -19.9369   22.3761 C   0  0  0  0  0  0
  -29.1142  -24.1027   20.1735 C   0  0  0  0  0  0
  -28.7724  -18.6618   20.2147 C   0  0  0  0  0  0
  -30.3930  -16.6538   22.0307 C   0  0  0  0  0  0
  -29.2260  -22.7871   21.0240 C   0  0  0  0  0  0
  -28.2448  -25.2712   20.7538 C   0  0  0  0  0  0
  -29.6230  -21.5203   20.3351 N   0  0  0  0  0  0
  -29.9546  -15.6064   21.0687 N   0  0  0  0  0  0
  -29.6958  -24.2059   19.0862 O   0  0  0  0  0  0
  -33.4270  -20.3379   23.0499 F   0  0  0  0  0  0
  -31.4760  -12.4964   19.1259 H   0  0  0  0  0  0
  -30.3598  -11.3751   19.8586 H   0  0  0  0  0  0
  -29.7588  -11.7455   17.4616 H   0  0  0  0  0  0
  -29.6268  -13.4724   17.7206 H   0  0  0  0  0  0
  -27.8742  -11.2867   18.8628 H   0  0  0  0  0  0
  -27.3569  -12.5757   17.7966 H   0  0  0  0  0  0
  -27.6854  -14.2415   19.5235 H   0  0  0  0  0  0
  -28.7048  -12.0168   21.3577 H   0  0  0  0  0  0
  -28.4465  -13.6588   21.8501 H   0  0  0  0  0  0
  -25.2829   -9.5762   22.4653 H   0  0  0  0  0  0
  -24.0028   -7.4725   22.7485 H   0  0  0  0  0  0
  -21.0809   -8.8833   19.8947 H   0  0  0  0  0  0
  -22.3704  -10.9705   19.6107 H   0  0  0  0  0  0
  -21.2051   -7.6170   23.9776 H   0  0  0  0  0  0
  -21.1399   -6.0504   25.9093 H   0  0  0  0  0  0
  -22.0598   -2.7628   23.2819 H   0  0  0  0  0  0
  -22.4175  -12.0026   22.4744 H   0  0  0  0  0  0
  -21.1205  -13.1413   22.2558 H   0  0  0  0  0  0
  -24.6855  -15.8480   20.5160 H   0  0  0  0  0  0
  -26.2928  -15.6125   20.0499 H   0  0  0  0  0  0
  -26.7188  -32.5532   23.1238 H   0  0  0  0  0  0
  -25.0140  -33.9819   25.0551 H   0  0  0  0  0  0
  -22.7113  -31.2998   21.4133 H   0  0  0  0  0  0
  -23.3752  -35.9637   23.3303 H   0  0  0  0  0  0
  -24.3562  -36.8898   22.2051 H   0  0  0  0  0  0
  -23.7210  -37.6501   23.6628 H   0  0  0  0  0  0
  -26.0494  -31.5638   20.5875 H   0  0  0  0  0  0
  -26.8459  -30.8886   21.9812 H   0  0  0  0  0  0
  -28.1277  -29.0406   21.1919 H   0  0  0  0  0  0
  -26.0542  -25.9361   19.0299 H   0  0  0  0  0  0
  -23.9971  -27.2906   19.0351 H   0  0  0  0  0  0
  -23.7569  -30.5941   19.4145 H   0  0  0  0  0  0
  -22.7612  -29.2418   19.8649 H   0  0  0  0  0  0
  -25.1265  -36.1995   25.0820 H   0  0  0  0  0  0
  -20.9913  -28.3224   24.1486 H   0  0  0  0  0  0
  -21.6665  -26.7472   22.1228 H   0  0  0  0  0  0
  -20.5718  -26.2345   23.3649 H   0  0  0  0  0  0
  -19.6657  -27.3203   20.6812 H   0  0  0  0  0  0
  -19.6897  -25.6307   21.1339 H   0  0  0  0  0  0
  -17.4167  -26.6760   21.4095 H   0  0  0  0  0  0
  -18.0290  -26.0159   22.9090 H   0  0  0  0  0  0
  -19.7919  -30.7293   24.2299 H   0  0  0  0  0  0
  -17.4982  -31.6328   24.5151 H   0  0  0  0  0  0
  -15.5331  -30.3027   23.7658 H   0  0  0  0  0  0
  -15.8628  -28.0848   22.7110 H   0  0  0  0  0  0
  -24.5883  -30.7147   25.7861 H   0  0  0  0  0  0
  -24.8845  -32.2985   26.4909 H   0  0  0  0  0  0
  -25.7984  -30.9036   27.0344 H   0  0  0  0  0  0
  -26.2901  -29.6936   24.1100 H   0  0  0  0  0  0
  -27.3889  -29.7279   25.4723 H   0  0  0  0  0  0
  -27.8815  -30.4448   23.9532 H   0  0  0  0  0  0
  -27.2791  -33.3675   26.2180 H   0  0  0  0  0  0
  -28.3896  -32.6888   25.0355 H   0  0  0  0  0  0
  -28.0791  -31.8431   26.5422 H   0  0  0  0  0  0
  -28.2599  -38.0115   24.7495 H   0  0  0  0  0  0
  -28.1050  -36.2646   24.6288 H   0  0  0  0  0  0
  -27.2299  -37.1492   25.8866 H   0  0  0  0  0  0
  -20.9359  -29.8873   21.7053 H   0  0  0  0  0  0
  -26.0158  -38.2877   24.1460 H   0  0  0  0  0  0
  -32.5958  -17.8873   22.8962 H   0  0  0  0  0  0
  -31.8122  -21.9274   21.8002 H   0  0  0  0  0  0
  -28.0323  -19.4572   20.1015 H   0  0  0  0  0  0
  -28.2700  -17.8294   20.7016 H   0  0  0  0  0  0
  -29.0747  -18.3324   19.2232 H   0  0  0  0  0  0
  -29.5650  -16.7576   22.7337 H   0  0  0  0  0  0
  -31.1899  -16.2127   22.6318 H   0  0  0  0  0  0
  -28.2412  -22.5960   21.4541 H   0  0  0  0  0  0
  -29.8770  -23.0066   21.8732 H   0  0  0  0  0  0
  -28.5173  -25.3998   21.8021 H   0  0  0  0  0  0
  -27.2039  -24.9344   20.7527 H   0  0  0  0  0  0
  -28.9277  -21.1879   19.6744 H   0  0  0  0  0  0
  -28.9788  -15.3743   21.1588 H   0  0  0  0  0  0
  1 25  1  0  0  0
  1 30  2  0  0  0
  1 83  1  0  0  0
  2  3  1  0  0  0
  2 25  1  0  0  0
  2 86  1  0  0  0
  2 87  1  0  0  0
  3  4  1  0  0  0
  3 88  1  0  0  0
  3 89  1  0  0  0
  4  5  1  0  0  0
  4 90  1  0  0  0
  4 91  1  0  0  0
  5  6  1  0  0  0
  5 26  1  0  0  0
  5 92  1  0  0  0
  6 25  1  0  0  0
  6 93  1  0  0  0
  6 94  1  0  0  0
  7  8  2  0  0  0
  7 26  1  0  0  0
  7 29  1  0  0  0
  8  9  1  0  0  0
  8 22  1  0  0  0
  9 10  1  0  0  0
  9 27  2  0  0  0
 10 11  2  0  0  0
 10 15  1  0  0  0
 11 12  1  0  0  0
 11 95  1  0  0  0
 12 13  2  0  0  0
 12 96  1  0  0  0
 13 14  1  0  0  0
 13 31  1  0  0  0
 14 15  2  0  0  0
 14 97  1  0  0  0
 15 98  1  0  0  0
 16 17  2  0  0  0
 16 21  1  0  0  0
 16 31  1  0  0  0
 17 18  1  0  0  0
 17 99  1  0  0  0
 18 19  2  0  0  0
 18100  1  0  0  0
 19 20  1  0  0  0
 19 24  1  0  0  0
 20 21  2  0  0  0
 20101  1  0  0  0
 21 23  1  0  0  0
 22 28  1  0  0  0
 22 32  2  0  0  0
 26 27  1  0  0  0
 28102  1  0  0  0
 28103  1  0  0  0
 29104  1  0  0  0
 29105  1  0  0  0
 33 34  1  0  0  0
 33 66  1  0  0  0
 33 70  2  0  0  0
 34 36  1  0  0  0
 34 59  1  0  0  0
 34106  1  0  0  0
 35 44  2  0  0  0
 35 45  1  0  0  0
 35 68  1  0  0  0
 36 56  1  0  0  0
 36107  1  0  0  0
 37 39  1  0  0  0
 37 47  1  0  0  0
 37 66  1  0  0  0
 37108  1  0  0  0
 38 43  2  0  0  0
 38 46  1  0  0  0
 38 47  1  0  0  0
 39 64  1  0  0  0
 39 67  2  0  0  0
 40 52  1  0  0  0
 40 53  2  0  0  0
 40 58  1  0  0  0
 41109  1  0  0  0
 41110  1  0  0  0
 41111  1  0  0  0
 41 48  1  0  0  0
 42 43  1  0  0  0
 42 66  1  0  0  0
 42112  1  0  0  0
 42113  1  0  0  0
 43 44  1  0  0  0
 44114  1  0  0  0
 45 46  2  0  0  0
 45115  1  0  0  0
 46116  1  0  0  0
 47117  1  0  0  0
 47118  1  0  0  0
 48 56  1  0  0  0
 48 65  1  0  0  0
 48119  1  0  0  0
 49 50  1  0  0  0
 49 53  1  0  0  0
 49 64  1  0  0  0
 49120  1  0  0  0
 50 51  1  0  0  0
 50121  1  0  0  0
 50122  1  0  0  0
 51 52  1  0  0  0
 51123  1  0  0  0
 51124  1  0  0  0
 52125  1  0  0  0
 52126  1  0  0  0
 53 54  1  0  0  0
 54 55  2  0  0  0
 54127  1  0  0  0
 55 57  1  0  0  0
 55128  1  0  0  0
 56 69  2  0  0  0
 57 58  2  0  0  0
 57129  1  0  0  0
 58130  1  0  0  0
 59 60  1  0  0  0
 59 61  1  0  0  0
 59 62  1  0  0  0
 60131  1  0  0  0
 60132  1  0  0  0
 60133  1  0  0  0
 61134  1  0  0  0
 61135  1  0  0  0
 61136  1  0  0  0
 62137  1  0  0  0
 62138  1  0  0  0
 62139  1  0  0  0
 63 65  1  0  0  0
 63140  1  0  0  0
 63141  1  0  0  0
 63142  1  0  0  0
 64143  1  0  0  0
 65144  1  0  0  0
 68 81  1  0  0  0
 71 73  2  0  0  0
 71 76  1  0  0  0
 71145  1  0  0  0
 72 75  1  0  0  0
 72 76  2  0  0  0
 72146  1  0  0  0
 73 74  1  0  0  0
 73 79  1  0  0  0
 74 75  2  0  0  0
 74 78  1  0  0  0
 75 82  1  0  0  0
 76 85  1  0  0  0
 77 80  1  0  0  0
 77 81  1  0  0  0
 77 84  2  0  0  0
 78147  1  0  0  0
 78148  1  0  0  0
 78149  1  0  0  0
 79 83  1  0  0  0
 79150  1  0  0  0
 79151  1  0  0  0
 80 82  1  0  0  0
 80152  1  0  0  0
 80153  1  0  0  0
 81154  1  0  0  0
 81155  1  0  0  0
 82156  1  0  0  0
 83157  1  0  0  0
M  ISO  4   1 100  68 101  81 101  83 100
M  END
> <chiral flag>
0

> <version>
0

> <s_m_source_file>
/data/baiqing/PycharmProjects/Reinvent-master-3.2/result/LINK_invent/BTK/process_docking_weight1_custom_product_contain_oxygen_bond_distance_aromatic_linkinvent_7_9_3/rearranged_h_0167.sdf

> <i_m_source_file_index>
84

> <r_mmod_Potential_Energy-OPLS-2005>
16.1988525390625

> <r_mmod_Stretch_Energy-OPLS-2005>
66.0547180175781

> <r_mmod_Bend_Energy-OPLS-2005>
144.286758422852

> <r_mmod_Torsional_Energy-OPLS-2005>
241.465789794922

> <r_mmod_Improper_Torsional_Energy-OPLS-2005>
9.3304557800293

> <r_mmod_Van_der_Waal_Energy-OPLS-2005>
140.512939453125

> <r_mmod_Electrostatic_Energy-OPLS-2005>
-362.038024902344

> <r_mmod_Solvation_Energy-OPLS-2005>
-253.037872314453

> <b_mmod_Minimization_Converged-OPLS-2005>
0

> <r_mmod_RMS_Derivative-OPLS-2005>
5.56808948516846

$$$$
85
                    3D
 Structure written by MMmdl.
161169  0  0  1  0            999 V2000
  -30.6919  -14.5689   20.5231 C   0  0  0  0  0  0
  -30.4176  -12.3588   19.4400 C   0  0  0  0  0  0
  -29.4938  -12.4967   18.2132 C   0  0  0  0  0  0
  -28.0176  -12.3484   18.6289 C   0  0  0  0  0  0
  -27.6490  -13.2204   19.8598 C   0  0  2  0  0  0
  -28.6959  -13.0828   20.9879 C   0  0  0  0  0  0
  -25.2535  -13.8186   20.5687 C   0  0  0  0  0  0
  -24.1813  -13.0442   20.9195 C   0  0  0  0  0  0
  -24.6391  -11.6915   20.8757 C   0  0  0  0  0  0
  -23.9070  -10.4295   21.0415 C   0  0  0  0  0  0
  -24.3621   -9.4207   21.9190 C   0  0  0  0  0  0
  -23.6294   -8.2244   22.0757 C   0  0  0  0  0  0
  -22.4279   -8.0285   21.3545 C   0  0  0  0  0  0
  -21.9917   -9.0260   20.4649 C   0  0  0  0  0  0
  -22.7246  -10.2136   20.3061 C   0  0  0  0  0  0
  -21.6853   -6.0739   22.5280 C   0  0  0  0  0  0
  -21.4012   -6.5642   23.8213 C   0  0  0  0  0  0
  -21.3659   -5.6795   24.9175 C   0  0  0  0  0  0
  -21.6043   -4.3058   24.7224 C   0  0  0  0  0  0
  -21.8819   -3.8149   23.4346 C   0  0  0  0  0  0
  -21.9191   -4.6967   22.3402 C   0  0  0  0  0  0
  -22.7836  -13.5229   21.1857 C   0  0  0  0  0  0
  -22.1660   -4.2155   21.0979 F   0  0  0  0  0  0
  -21.5631   -3.4541   25.7737 F   0  0  0  0  0  0
  -30.0107  -13.3911   20.4109 N   0  0  0  0  0  0
  -26.2969  -12.9378   20.3325 N   0  0  0  0  0  0
  -25.9318  -11.6527   20.5773 N   0  0  0  0  0  0
  -22.0478  -12.8215   22.0410 N   0  0  0  0  0  0
  -25.4229  -15.1907   20.4075 N   0  0  0  0  0  0
  -31.8610  -14.6700   20.1414 O   0  0  0  0  0  0
  -21.6638   -6.8881   21.4243 O   0  0  0  0  0  0
  -22.3519  -14.5536   20.6710 O   0  0  0  0  0  0
  -24.6206  -31.8631   23.2051 C   0  0  0  0  0  0
  -25.9068  -32.4797   23.8366 C   0  0  1  0  0  0
  -27.2227  -27.3747   20.1108 C   0  0  0  0  0  0
  -25.5904  -33.8594   24.2296 N   0  0  0  0  0  0
  -23.4120  -30.4862   21.5464 C   0  0  2  0  0  0
  -24.8597  -28.9478   20.1091 C   0  0  0  0  0  0
  -22.7451  -29.4629   22.4952 C   0  0  0  0  0  0
  -18.0280  -28.1380   22.8483 C   0  0  0  0  0  0
  -24.1489  -36.7308   23.2637 C   0  0  0  0  0  0
  -25.9468  -30.8126   21.3661 C   0  0  0  0  0  0
  -26.0247  -29.4439   20.7098 C   0  0  0  0  0  0
  -27.2146  -28.6671   20.7021 C   0  0  0  0  0  0
  -26.0433  -26.9118   19.4934 C   0  0  0  0  0  0
  -24.8676  -27.6848   19.4933 C   0  0  0  0  0  0
  -23.6238  -29.8206   20.1611 C   0  0  0  0  0  0
  -25.4114  -36.3099   24.0336 C   0  0  1  0  0  0
  -20.5877  -28.3671   23.1302 C   0  0  2  0  0  0
  -20.6772  -26.9403   22.5415 C   0  0  0  0  0  0
  -19.5752  -26.6384   21.5214 C   0  0  0  0  0  0
  -18.1927  -26.7926   22.1622 C   0  0  0  0  0  0
  -19.1530  -28.8843   23.2884 C   0  0  0  0  0  0
  -18.9458  -30.1443   23.8901 C   0  0  0  0  0  0
  -17.6460  -30.6581   24.0560 C   0  0  0  0  0  0
  -25.9047  -34.9464   23.5120 C   0  0  0  0  0  0
  -16.5348  -29.9084   23.6330 C   0  0  0  0  0  0
  -16.7267  -28.6501   23.0348 C   0  0  0  0  0  0
  -26.4479  -31.6588   25.0714 C   0  0  0  0  0  0
  -25.3734  -31.3701   26.1458 C   0  0  0  0  0  0
  -27.0314  -30.3027   24.6114 C   0  0  0  0  0  0
  -27.6043  -32.4315   25.7486 C   0  0  0  0  0  0
  -27.5581  -37.1805   24.8463 C   0  0  0  0  0  0
  -21.4169  -29.3029   22.3702 N   0  0  0  0  0  0
  -26.4294  -37.3791   23.9414 N   0  0  0  0  0  0
  -24.6783  -31.0690   22.0972 N   0  0  0  0  0  0
  -23.4199  -28.8164   23.3007 O   0  0  0  0  0  0
  -28.3246  -26.5333   20.1420 O   0  0  0  0  0  0
  -26.5613  -34.8920   22.4682 O   0  0  0  0  0  0
  -23.5385  -32.1404   23.7409 O   0  0  0  0  0  0
  -29.8756  -18.2347   20.7594 C   0  0  0  0  0  0
  -31.6860  -19.5207   21.7797 C   0  0  0  0  0  0
  -31.7246  -17.0918   21.8855 C   0  0  0  0  0  0
  -30.4745  -19.5077   21.0532 C   0  0  0  0  0  0
  -30.5185  -17.0049   21.1477 C   0  0  0  0  0  0
  -32.2996  -18.3325   22.1988 C   0  0  0  0  0  0
  -29.9686  -20.8617   20.6658 C   0  0  0  0  0  0
  -28.5948  -23.9747   20.4572 C   0  0  0  0  0  0
  -28.4101  -22.9464   22.7682 C   0  0  0  0  0  0
  -26.6034  -22.5407   21.0440 C   0  0  0  0  0  0
  -28.1276  -25.3710   21.0070 C   0  0  0  0  0  0
  -28.1340  -22.6889   21.2657 C   0  0  0  0  0  0
  -30.8167  -21.7031   20.0850 N   0  0  0  0  0  0
  -29.9788  -15.6852   20.8579 N   0  0  0  0  0  0
  -28.7305  -21.3157   20.9728 N   0  3  0  0  0  0
  -29.2793  -23.8841   19.4318 O   0  0  0  0  0  0
  -33.4535  -18.3847   22.9068 F   0  0  0  0  0  0
  -31.4622  -12.4519   19.1377 H   0  0  0  0  0  0
  -30.3239  -11.3666   19.8838 H   0  0  0  0  0  0
  -29.7471  -11.7465   17.4631 H   0  0  0  0  0  0
  -29.6468  -13.4677   17.7391 H   0  0  0  0  0  0
  -27.8452  -11.2959   18.8563 H   0  0  0  0  0  0
  -27.3634  -12.5872   17.7896 H   0  0  0  0  0  0
  -27.6661  -14.2552   19.5176 H   0  0  0  0  0  0
  -28.6944  -12.0697   21.3930 H   0  0  0  0  0  0
  -28.4574  -13.7427   21.8240 H   0  0  0  0  0  0
  -25.2767   -9.5682   22.4765 H   0  0  0  0  0  0
  -24.0005   -7.4632   22.7476 H   0  0  0  0  0  0
  -21.0849   -8.8776   19.8951 H   0  0  0  0  0  0
  -22.3707  -10.9676   19.6170 H   0  0  0  0  0  0
  -21.2002   -7.6149   23.9718 H   0  0  0  0  0  0
  -21.1482   -6.0525   25.9077 H   0  0  0  0  0  0
  -22.0599   -2.7614   23.2843 H   0  0  0  0  0  0
  -22.4091  -11.9867   22.4787 H   0  0  0  0  0  0
  -21.1096  -13.1235   22.2621 H   0  0  0  0  0  0
  -24.6515  -15.8419   20.5084 H   0  0  0  0  0  0
  -26.2635  -15.6291   20.0547 H   0  0  0  0  0  0
  -26.7131  -32.5499   23.1118 H   0  0  0  0  0  0
  -25.0061  -33.9745   25.0444 H   0  0  0  0  0  0
  -22.7035  -31.3051   21.4053 H   0  0  0  0  0  0
  -23.3750  -35.9642   23.3312 H   0  0  0  0  0  0
  -24.3575  -36.8922   22.2047 H   0  0  0  0  0  0
  -23.7242  -37.6514   23.6651 H   0  0  0  0  0  0
  -26.0656  -31.5770   20.5969 H   0  0  0  0  0  0
  -26.8320  -30.8648   21.9884 H   0  0  0  0  0  0
  -28.1112  -29.0398   21.1771 H   0  0  0  0  0  0
  -26.0286  -25.9376   19.0245 H   0  0  0  0  0  0
  -23.9732  -27.2993   19.0229 H   0  0  0  0  0  0
  -23.7330  -30.5972   19.4028 H   0  0  0  0  0  0
  -22.7461  -29.2440   19.8638 H   0  0  0  0  0  0
  -25.1286  -36.1957   25.0831 H   0  0  0  0  0  0
  -20.9957  -28.3234   24.1429 H   0  0  0  0  0  0
  -20.5690  -26.2274   23.3601 H   0  0  0  0  0  0
  -21.6638  -26.7451   22.1198 H   0  0  0  0  0  0
  -19.6926  -25.6304   21.1229 H   0  0  0  0  0  0
  -19.6697  -27.3207   20.6757 H   0  0  0  0  0  0
  -17.4203  -26.6670   21.4018 H   0  0  0  0  0  0
  -18.0315  -26.0068   22.9017 H   0  0  0  0  0  0
  -19.7936  -30.7250   24.2274 H   0  0  0  0  0  0
  -17.5020  -31.6266   24.5158 H   0  0  0  0  0  0
  -15.5353  -30.2987   23.7658 H   0  0  0  0  0  0
  -15.8668  -28.0826   22.7064 H   0  0  0  0  0  0
  -24.5916  -30.7039   25.7797 H   0  0  0  0  0  0
  -24.8918  -32.2856   26.4901 H   0  0  0  0  0  0
  -25.8084  -30.8877   27.0220 H   0  0  0  0  0  0
  -26.2867  -29.6789   24.1162 H   0  0  0  0  0  0
  -27.4066  -29.7262   25.4578 H   0  0  0  0  0  0
  -27.8709  -30.4342   23.9283 H   0  0  0  0  0  0
  -27.2656  -33.3613   26.2065 H   0  0  0  0  0  0
  -28.3853  -32.6882   25.0316 H   0  0  0  0  0  0
  -28.0708  -31.8439   26.5403 H   0  0  0  0  0  0
  -28.2591  -38.0107   24.7520 H   0  0  0  0  0  0
  -28.1081  -36.2640   24.6279 H   0  0  0  0  0  0
  -27.2296  -37.1448   25.8862 H   0  0  0  0  0  0
  -20.9332  -29.8754   21.6925 H   0  0  0  0  0  0
  -26.0182  -38.2870   24.1415 H   0  0  0  0  0  0
  -28.9493  -18.2055   20.2023 H   0  0  0  0  0  0
  -32.1604  -20.4577   22.0374 H   0  0  0  0  0  0
  -32.2303  -16.2028   22.2308 H   0  0  0  0  0  0
  -27.6798  -23.6183   23.2202 H   0  0  0  0  0  0
  -29.3940  -23.3916   22.9243 H   0  0  0  0  0  0
  -28.3878  -22.0256   23.3507 H   0  0  0  0  0  0
  -26.0199  -22.9584   21.8652 H   0  0  0  0  0  0
  -26.2928  -21.5003   20.9471 H   0  0  0  0  0  0
  -26.2609  -23.0404   20.1357 H   0  0  0  0  0  0
  -28.6796  -25.5629   21.9267 H   0  0  0  0  0  0
  -27.0812  -25.2805   21.3023 H   0  0  0  0  0  0
  -31.7380  -21.3871   19.8212 H   0  0  0  0  0  0
  -30.4712  -22.5781   19.6995 H   0  0  0  0  0  0
  -28.9789  -15.5741   20.9241 H   0  0  0  0  0  0
  -28.1457  -20.5699   21.3252 H   0  0  0  0  0  0
  1 25  1  0  0  0
  1 30  2  0  0  0
  1 84  1  0  0  0
  2  3  1  0  0  0
  2 25  1  0  0  0
  2 88  1  0  0  0
  2 89  1  0  0  0
  3  4  1  0  0  0
  3 90  1  0  0  0
  3 91  1  0  0  0
  4  5  1  0  0  0
  4 92  1  0  0  0
  4 93  1  0  0  0
  5  6  1  0  0  0
  5 26  1  0  0  0
  5 94  1  0  0  0
  6 25  1  0  0  0
  6 95  1  0  0  0
  6 96  1  0  0  0
  7  8  2  0  0  0
  7 26  1  0  0  0
  7 29  1  0  0  0
  8  9  1  0  0  0
  8 22  1  0  0  0
  9 10  1  0  0  0
  9 27  2  0  0  0
 10 11  2  0  0  0
 10 15  1  0  0  0
 11 12  1  0  0  0
 11 97  1  0  0  0
 12 13  2  0  0  0
 12 98  1  0  0  0
 13 14  1  0  0  0
 13 31  1  0  0  0
 14 15  2  0  0  0
 14 99  1  0  0  0
 15100  1  0  0  0
 16 17  2  0  0  0
 16 21  1  0  0  0
 16 31  1  0  0  0
 17 18  1  0  0  0
 17101  1  0  0  0
 18 19  2  0  0  0
 18102  1  0  0  0
 19 20  1  0  0  0
 19 24  1  0  0  0
 20 21  2  0  0  0
 20103  1  0  0  0
 21 23  1  0  0  0
 22 28  1  0  0  0
 22 32  2  0  0  0
 26 27  1  0  0  0
 28104  1  0  0  0
 28105  1  0  0  0
 29106  1  0  0  0
 29107  1  0  0  0
 33 34  1  0  0  0
 33 66  1  0  0  0
 33 70  2  0  0  0
 34 36  1  0  0  0
 34 59  1  0  0  0
 34108  1  0  0  0
 35 44  2  0  0  0
 35 45  1  0  0  0
 35 68  1  0  0  0
 36 56  1  0  0  0
 36109  1  0  0  0
 37 39  1  0  0  0
 37 47  1  0  0  0
 37 66  1  0  0  0
 37110  1  0  0  0
 38 43  2  0  0  0
 38 46  1  0  0  0
 38 47  1  0  0  0
 39 64  1  0  0  0
 39 67  2  0  0  0
 40 52  1  0  0  0
 40 53  2  0  0  0
 40 58  1  0  0  0
 41111  1  0  0  0
 41112  1  0  0  0
 41113  1  0  0  0
 41 48  1  0  0  0
 42 43  1  0  0  0
 42 66  1  0  0  0
 42114  1  0  0  0
 42115  1  0  0  0
 43 44  1  0  0  0
 44116  1  0  0  0
 45 46  2  0  0  0
 45117  1  0  0  0
 46118  1  0  0  0
 47119  1  0  0  0
 47120  1  0  0  0
 48 56  1  0  0  0
 48 65  1  0  0  0
 48121  1  0  0  0
 49 50  1  0  0  0
 49 53  1  0  0  0
 49 64  1  0  0  0
 49122  1  0  0  0
 50 51  1  0  0  0
 50123  1  0  0  0
 50124  1  0  0  0
 51 52  1  0  0  0
 51125  1  0  0  0
 51126  1  0  0  0
 52127  1  0  0  0
 52128  1  0  0  0
 53 54  1  0  0  0
 54 55  2  0  0  0
 54129  1  0  0  0
 55 57  1  0  0  0
 55130  1  0  0  0
 56 69  2  0  0  0
 57 58  2  0  0  0
 57131  1  0  0  0
 58132  1  0  0  0
 59 60  1  0  0  0
 59 61  1  0  0  0
 59 62  1  0  0  0
 60133  1  0  0  0
 60134  1  0  0  0
 60135  1  0  0  0
 61136  1  0  0  0
 61137  1  0  0  0
 61138  1  0  0  0
 62139  1  0  0  0
 62140  1  0  0  0
 62141  1  0  0  0
 63 65  1  0  0  0
 63142  1  0  0  0
 63143  1  0  0  0
 63144  1  0  0  0
 64145  1  0  0  0
 65146  1  0  0  0
 68 81  1  0  0  0
 71 74  2  0  0  0
 71 75  1  0  0  0
 71147  1  0  0  0
 72 74  1  0  0  0
 72 76  2  0  0  0
 72148  1  0  0  0
 73 75  2  0  0  0
 73 76  1  0  0  0
 73149  1  0  0  0
 74 77  1  0  0  0
 75 84  1  0  0  0
 76 87  1  0  0  0
 77 83  1  0  0  0
 77 85  2  0  0  0
 78 81  1  0  0  0
 78 82  1  0  0  0
 78 86  2  0  0  0
 79150  1  0  0  0
 79151  1  0  0  0
 79152  1  0  0  0
 79 82  1  0  0  0
 80 82  1  0  0  0
 80153  1  0  0  0
 80154  1  0  0  0
 80155  1  0  0  0
 81156  1  0  0  0
 81157  1  0  0  0
 82 85  1  0  0  0
 83158  1  0  0  0
 83159  1  0  0  0
 84160  1  0  0  0
 85161  1  0  0  0
M  CHG  1  85   1
M  ISO  4   1 100  68 101  81 101  84 100
M  END
> <chiral flag>
0

> <version>
0

> <s_m_source_file>
/data/baiqing/PycharmProjects/Reinvent-master-3.2/result/LINK_invent/BTK/process_docking_weight1_custom_product_contain_oxygen_bond_distance_aromatic_linkinvent_7_9_3/rearranged_h_0167.sdf

> <i_m_source_file_index>
85

> <r_mmod_Potential_Energy-OPLS-2005>
-196.030563354492

> <r_mmod_Stretch_Energy-OPLS-2005>
67.5508193969727

> <r_mmod_Bend_Energy-OPLS-2005>
140.397842407227

> <r_mmod_Torsional_Energy-OPLS-2005>
264.828216552734

> <r_mmod_Improper_Torsional_Energy-OPLS-2005>
6.86918497085571

> <r_mmod_Van_der_Waal_Energy-OPLS-2005>
163.125549316406

> <r_mmod_Electrostatic_Energy-OPLS-2005>
-451.263549804688

> <r_mmod_Solvation_Energy-OPLS-2005>
-419.919250488281

> <b_mmod_Minimization_Converged-OPLS-2005>
0

> <r_mmod_RMS_Derivative-OPLS-2005>
1.07989525794983

$$$$
86
                    3D
 Structure written by MMmdl.
155163  0  0  1  0            999 V2000
  -30.6716  -14.7700   20.5240 C   0  0  0  0  0  0
  -30.4145  -12.4923   19.4934 C   0  0  0  0  0  0
  -29.5047  -12.5286   18.2483 C   0  0  0  0  0  0
  -28.0360  -12.3407   18.6623 C   0  0  0  0  0  0
  -27.6385  -13.2452   19.8588 C   0  0  2  0  0  0
  -28.6810  -13.2071   21.0000 C   0  0  0  0  0  0
  -25.2401  -13.8135   20.5473 C   0  0  0  0  0  0
  -24.1764  -13.0407   20.9188 C   0  0  0  0  0  0
  -24.6411  -11.6905   20.8811 C   0  0  0  0  0  0
  -23.9088  -10.4282   21.0458 C   0  0  0  0  0  0
  -24.3633   -9.4186   21.9218 C   0  0  0  0  0  0
  -23.6301   -8.2225   22.0768 C   0  0  0  0  0  0
  -22.4286   -8.0278   21.3549 C   0  0  0  0  0  0
  -21.9931   -9.0258   20.4653 C   0  0  0  0  0  0
  -22.7270  -10.2135   20.3083 C   0  0  0  0  0  0
  -21.6849   -6.0739   22.5279 C   0  0  0  0  0  0
  -21.4013   -6.5643   23.8212 C   0  0  0  0  0  0
  -21.3656   -5.6795   24.9172 C   0  0  0  0  0  0
  -21.6046   -4.3060   24.7224 C   0  0  0  0  0  0
  -21.8817   -3.8151   23.4345 C   0  0  0  0  0  0
  -21.9190   -4.6967   22.3401 C   0  0  0  0  0  0
  -22.7788  -13.5207   21.1846 C   0  0  0  0  0  0
  -22.1662   -4.2152   21.0979 F   0  0  0  0  0  0
  -21.5622   -3.4544   25.7738 F   0  0  0  0  0  0
  -29.9772  -13.5740   20.4215 N   0  0  0  0  0  0
  -26.2926  -12.9424   20.3329 N   0  0  0  0  0  0
  -25.9369  -11.6561   20.5882 N   0  0  0  0  0  0
  -22.0446  -12.8207   22.0420 N   0  0  0  0  0  0
  -25.3893  -15.1762   20.3331 N   0  0  0  0  0  0
  -31.8059  -14.8187   20.0411 O   0  0  0  0  0  0
  -21.6641   -6.8884   21.4242 O   0  0  0  0  0  0
  -22.3480  -14.5521   20.6702 O   0  0  0  0  0  0
  -24.6350  -31.8533   23.1974 C   0  0  0  0  0  0
  -25.9161  -32.4749   23.8330 C   0  0  1  0  0  0
  -27.2148  -27.2292   20.1389 C   0  0  0  0  0  0
  -25.5942  -33.8552   24.2249 N   0  0  0  0  0  0
  -23.4338  -30.4776   21.5412 C   0  0  2  0  0  0
  -24.8817  -28.9226   20.1109 C   0  0  0  0  0  0
  -22.7526  -29.4600   22.4894 C   0  0  0  0  0  0
  -18.0302  -28.1389   22.8481 C   0  0  0  0  0  0
  -24.1490  -36.7281   23.2641 C   0  0  0  0  0  0
  -25.9837  -30.7567   21.3839 C   0  0  0  0  0  0
  -26.0562  -29.3769   20.7250 C   0  0  0  0  0  0
  -27.2270  -28.5443   20.7272 C   0  0  0  0  0  0
  -26.0228  -26.8660   19.4726 C   0  0  0  0  0  0
  -24.8730  -27.6766   19.4706 C   0  0  0  0  0  0
  -23.6548  -29.8131   20.1576 C   0  0  0  0  0  0
  -25.4120  -36.3067   24.0324 C   0  0  1  0  0  0
  -20.5908  -28.3712   23.1252 C   0  0  2  0  0  0
  -20.6793  -26.9426   22.5410 C   0  0  0  0  0  0
  -19.5770  -26.6380   21.5211 C   0  0  0  0  0  0
  -18.1947  -26.7926   22.1617 C   0  0  0  0  0  0
  -19.1553  -28.8867   23.2863 C   0  0  0  0  0  0
  -18.9467  -30.1464   23.8887 C   0  0  0  0  0  0
  -17.6466  -30.6587   24.0558 C   0  0  0  0  0  0
  -25.9066  -34.9437   23.5092 C   0  0  0  0  0  0
  -16.5357  -29.9080   23.6330 C   0  0  0  0  0  0
  -16.7287  -28.6499   23.0352 C   0  0  0  0  0  0
  -26.4512  -31.6583   25.0732 C   0  0  0  0  0  0
  -25.3718  -31.3739   26.1438 C   0  0  0  0  0  0
  -27.0365  -30.2992   24.6248 C   0  0  0  0  0  0
  -27.6059  -32.4330   25.7510 C   0  0  0  0  0  0
  -27.5580  -37.1799   24.8466 C   0  0  0  0  0  0
  -21.4228  -29.3052   22.3626 N   0  0  0  0  0  0
  -26.4293  -37.3767   23.9406 N   0  0  0  0  0  0
  -24.7035  -31.0476   22.0966 N   0  0  0  0  0  0
  -23.4209  -28.8138   23.3002 O   0  0  0  0  0  0
  -28.2749  -26.2820   20.1966 O   0  0  0  0  0  0
  -26.5635  -34.8918   22.4659 O   0  0  0  0  0  0
  -23.5488  -32.1364   23.7245 O   0  0  0  0  0  0
  -28.0366  -16.9054   21.4209 C   0  0  0  0  0  0
  -27.6001  -19.2950   21.1835 C   0  0  0  0  0  0
  -27.1590  -18.0064   21.5480 C   0  0  0  0  0  0
  -29.3562  -17.0715   20.9660 C   0  0  0  0  0  0
  -28.9155  -19.4969   20.7455 C   0  0  0  0  0  0
  -25.8261  -17.8251   22.1871 C   0  0  0  0  0  0
  -28.9229  -23.6093   20.3161 C   0  0  0  0  0  0
  -24.7227  -18.7985   21.7872 C   0  0  0  0  0  0
  -28.4445  -22.0975   20.6301 C   0  0  0  0  0  0
  -27.8862  -24.8375   20.4822 C   0  0  0  0  0  0
  -29.7640  -18.3862   20.6583 N   0  0  0  0  0  0
  -30.2337  -15.8959   21.2169 N   0  0  0  0  0  0
  -29.3353  -20.8599   20.4582 N   0  0  0  0  0  0
  -25.5775  -16.9352   23.0059 O   0  0  0  0  0  0
  -30.0842  -23.8128   19.9461 O   0  0  0  0  0  0
  -31.4578  -12.5877   19.1898 H   0  0  0  0  0  0
  -30.3476  -11.5211   19.9870 H   0  0  0  0  0  0
  -29.7957  -11.7519   17.5395 H   0  0  0  0  0  0
  -29.6253  -13.4808   17.7299 H   0  0  0  0  0  0
  -27.9044  -11.2924   18.9334 H   0  0  0  0  0  0
  -27.3746  -12.5195   17.8142 H   0  0  0  0  0  0
  -27.6267  -14.2649   19.4718 H   0  0  0  0  0  0
  -28.7289  -12.2136   21.4479 H   0  0  0  0  0  0
  -28.4083  -13.8847   21.8071 H   0  0  0  0  0  0
  -25.2777   -9.5653   22.4796 H   0  0  0  0  0  0
  -24.0001   -7.4611   22.7485 H   0  0  0  0  0  0
  -21.0862   -8.8789   19.8949 H   0  0  0  0  0  0
  -22.3742  -10.9682   19.6191 H   0  0  0  0  0  0
  -21.2009   -7.6151   23.9716 H   0  0  0  0  0  0
  -21.1477   -6.0525   25.9075 H   0  0  0  0  0  0
  -22.0601   -2.7617   23.2843 H   0  0  0  0  0  0
  -22.4074  -11.9864   22.4793 H   0  0  0  0  0  0
  -21.1075  -13.1242   22.2660 H   0  0  0  0  0  0
  -24.5836  -15.7898   20.3424 H   0  0  0  0  0  0
  -26.2145  -15.5927   19.9228 H   0  0  0  0  0  0
  -26.7230  -32.5389   23.1069 H   0  0  0  0  0  0
  -25.0072  -33.9682   25.0384 H   0  0  0  0  0  0
  -22.7321  -31.3009   21.3938 H   0  0  0  0  0  0
  -23.3754  -35.9610   23.3298 H   0  0  0  0  0  0
  -24.3580  -36.8910   22.2057 H   0  0  0  0  0  0
  -23.7243  -37.6482   23.6668 H   0  0  0  0  0  0
  -26.1287  -31.5163   20.6144 H   0  0  0  0  0  0
  -26.8589  -30.8050   22.0203 H   0  0  0  0  0  0
  -28.1218  -28.8860   21.2276 H   0  0  0  0  0  0
  -25.9493  -25.9304   18.9405 H   0  0  0  0  0  0
  -23.9795  -27.3299   18.9696 H   0  0  0  0  0  0
  -23.7834  -30.5899   19.4032 H   0  0  0  0  0  0
  -22.7723  -29.2494   19.8505 H   0  0  0  0  0  0
  -25.1304  -36.1911   25.0817 H   0  0  0  0  0  0
  -21.0000  -28.3308   24.1374 H   0  0  0  0  0  0
  -20.5688  -26.2317   23.3614 H   0  0  0  0  0  0
  -21.6660  -26.7446   22.1213 H   0  0  0  0  0  0
  -19.6949  -25.6289   21.1242 H   0  0  0  0  0  0
  -19.6710  -27.3177   20.6730 H   0  0  0  0  0  0
  -17.4215  -26.6679   21.4019 H   0  0  0  0  0  0
  -18.0345  -26.0064   22.9016 H   0  0  0  0  0  0
  -19.7931  -30.7295   24.2261 H   0  0  0  0  0  0
  -17.5015  -31.6272   24.5154 H   0  0  0  0  0  0
  -15.5360  -30.2981   23.7662 H   0  0  0  0  0  0
  -15.8695  -28.0813   22.7063 H   0  0  0  0  0  0
  -24.5902  -30.7085   25.7757 H   0  0  0  0  0  0
  -24.8901  -32.2907   26.4843 H   0  0  0  0  0  0
  -25.8019  -30.8927   27.0231 H   0  0  0  0  0  0
  -26.2960  -29.6731   24.1257 H   0  0  0  0  0  0
  -27.4009  -29.7270   25.4792 H   0  0  0  0  0  0
  -27.8855  -30.4254   23.9527 H   0  0  0  0  0  0
  -27.2664  -33.3636   26.2068 H   0  0  0  0  0  0
  -28.3878  -32.6880   25.0347 H   0  0  0  0  0  0
  -28.0713  -31.8469   26.5444 H   0  0  0  0  0  0
  -28.2597  -38.0094   24.7509 H   0  0  0  0  0  0
  -28.1075  -36.2628   24.6297 H   0  0  0  0  0  0
  -27.2295  -37.1452   25.8867 H   0  0  0  0  0  0
  -20.9424  -29.8769   21.6819 H   0  0  0  0  0  0
  -26.0170  -38.2841   24.1398 H   0  0  0  0  0  0
  -27.6988  -15.9413   21.7705 H   0  0  0  0  0  0
  -26.9265  -20.1299   21.3033 H   0  0  0  0  0  0
  -24.7891  -19.0324   20.7248 H   0  0  0  0  0  0
  -24.8121  -19.7221   22.3575 H   0  0  0  0  0  0
  -23.7431  -18.3634   21.9810 H   0  0  0  0  0  0
  -27.5499  -21.9372   20.0284 H   0  0  0  0  0  0
  -28.1034  -22.1039   21.6655 H   0  0  0  0  0  0
  -27.5364  -24.8074   21.5143 H   0  0  0  0  0  0
  -27.0308  -24.5444   19.8805 H   0  0  0  0  0  0
  -31.1022  -16.2757   21.5577 H   0  0  0  0  0  0
  -30.2967  -21.0353   20.1847 H   0  0  0  0  0  0
  1 25  1  0  0  0
  1 30  2  0  0  0
  1 82  1  0  0  0
  2  3  1  0  0  0
  2 25  1  0  0  0
  2 86  1  0  0  0
  2 87  1  0  0  0
  3  4  1  0  0  0
  3 88  1  0  0  0
  3 89  1  0  0  0
  4  5  1  0  0  0
  4 90  1  0  0  0
  4 91  1  0  0  0
  5  6  1  0  0  0
  5 26  1  0  0  0
  5 92  1  0  0  0
  6 25  1  0  0  0
  6 93  1  0  0  0
  6 94  1  0  0  0
  7  8  2  0  0  0
  7 26  1  0  0  0
  7 29  1  0  0  0
  8  9  1  0  0  0
  8 22  1  0  0  0
  9 10  1  0  0  0
  9 27  2  0  0  0
 10 11  2  0  0  0
 10 15  1  0  0  0
 11 12  1  0  0  0
 11 95  1  0  0  0
 12 13  2  0  0  0
 12 96  1  0  0  0
 13 14  1  0  0  0
 13 31  1  0  0  0
 14 15  2  0  0  0
 14 97  1  0  0  0
 15 98  1  0  0  0
 16 17  2  0  0  0
 16 21  1  0  0  0
 16 31  1  0  0  0
 17 18  1  0  0  0
 17 99  1  0  0  0
 18 19  2  0  0  0
 18100  1  0  0  0
 19 20  1  0  0  0
 19 24  1  0  0  0
 20 21  2  0  0  0
 20101  1  0  0  0
 21 23  1  0  0  0
 22 28  1  0  0  0
 22 32  2  0  0  0
 26 27  1  0  0  0
 28102  1  0  0  0
 28103  1  0  0  0
 29104  1  0  0  0
 29105  1  0  0  0
 33 34  1  0  0  0
 33 66  1  0  0  0
 33 70  2  0  0  0
 34 36  1  0  0  0
 34 59  1  0  0  0
 34106  1  0  0  0
 35 44  2  0  0  0
 35 45  1  0  0  0
 35 68  1  0  0  0
 36 56  1  0  0  0
 36107  1  0  0  0
 37 39  1  0  0  0
 37 47  1  0  0  0
 37 66  1  0  0  0
 37108  1  0  0  0
 38 43  2  0  0  0
 38 46  1  0  0  0
 38 47  1  0  0  0
 39 64  1  0  0  0
 39 67  2  0  0  0
 40 52  1  0  0  0
 40 53  2  0  0  0
 40 58  1  0  0  0
 41109  1  0  0  0
 41110  1  0  0  0
 41111  1  0  0  0
 41 48  1  0  0  0
 42 43  1  0  0  0
 42 66  1  0  0  0
 42112  1  0  0  0
 42113  1  0  0  0
 43 44  1  0  0  0
 44114  1  0  0  0
 45 46  2  0  0  0
 45115  1  0  0  0
 46116  1  0  0  0
 47117  1  0  0  0
 47118  1  0  0  0
 48 56  1  0  0  0
 48 65  1  0  0  0
 48119  1  0  0  0
 49 50  1  0  0  0
 49 53  1  0  0  0
 49 64  1  0  0  0
 49120  1  0  0  0
 50 51  1  0  0  0
 50121  1  0  0  0
 50122  1  0  0  0
 51 52  1  0  0  0
 51123  1  0  0  0
 51124  1  0  0  0
 52125  1  0  0  0
 52126  1  0  0  0
 53 54  1  0  0  0
 54 55  2  0  0  0
 54127  1  0  0  0
 55 57  1  0  0  0
 55128  1  0  0  0
 56 69  2  0  0  0
 57 58  2  0  0  0
 57129  1  0  0  0
 58130  1  0  0  0
 59 60  1  0  0  0
 59 61  1  0  0  0
 59 62  1  0  0  0
 60131  1  0  0  0
 60132  1  0  0  0
 60133  1  0  0  0
 61134  1  0  0  0
 61135  1  0  0  0
 61136  1  0  0  0
 62137  1  0  0  0
 62138  1  0  0  0
 62139  1  0  0  0
 63 65  1  0  0  0
 63140  1  0  0  0
 63141  1  0  0  0
 63142  1  0  0  0
 64143  1  0  0  0
 65144  1  0  0  0
 68 80  1  0  0  0
 71 73  2  0  0  0
 71 74  1  0  0  0
 71145  1  0  0  0
 72 73  1  0  0  0
 72 75  2  0  0  0
 72146  1  0  0  0
 73 76  1  0  0  0
 74 81  2  0  0  0
 74 82  1  0  0  0
 75 81  1  0  0  0
 75 83  1  0  0  0
 76 78  1  0  0  0
 76 84  2  0  0  0
 77 79  1  0  0  0
 77 80  1  0  0  0
 77 85  2  0  0  0
 78147  1  0  0  0
 78148  1  0  0  0
 78149  1  0  0  0
 79 83  1  0  0  0
 79150  1  0  0  0
 79151  1  0  0  0
 80152  1  0  0  0
 80153  1  0  0  0
 82154  1  0  0  0
 83155  1  0  0  0
M  ISO  4   1 100  68 101  80 101  82 100
M  END
> <chiral flag>
0

> <version>
0

> <s_m_source_file>
/data/baiqing/PycharmProjects/Reinvent-master-3.2/result/LINK_invent/BTK/process_docking_weight1_custom_product_contain_oxygen_bond_distance_aromatic_linkinvent_7_9_3/rearranged_h_0167.sdf

> <i_m_source_file_index>
86

> <r_mmod_Potential_Energy-OPLS-2005>
10.2413444519043

> <r_mmod_Stretch_Energy-OPLS-2005>
145.476425170898

> <r_mmod_Bend_Energy-OPLS-2005>
239.148895263672

> <r_mmod_Torsional_Energy-OPLS-2005>
281.059173583984

> <r_mmod_Improper_Torsional_Energy-OPLS-2005>
11.4633188247681

> <r_mmod_Van_der_Waal_Energy-OPLS-2005>
137.798828125

> <r_mmod_Electrostatic_Energy-OPLS-2005>
-647.322326660156

> <r_mmod_Solvation_Energy-OPLS-2005>
-260.904083251953

> <b_mmod_Minimization_Converged-OPLS-2005>
0

> <r_mmod_RMS_Derivative-OPLS-2005>
1.00795221328735

$$$$
87
                    3D
 Structure written by MMmdl.
154162  0  0  1  0            999 V2000
  -30.6134  -14.7211   20.4975 C   0  0  0  0  0  0
  -30.4360  -12.4517   19.4563 C   0  0  0  0  0  0
  -29.5068  -12.5039   18.2237 C   0  0  0  0  0  0
  -28.0313  -12.3340   18.6395 C   0  0  0  0  0  0
  -27.6392  -13.2293   19.8456 C   0  0  2  0  0  0
  -28.6840  -13.1487   20.9774 C   0  0  0  0  0  0
  -25.2488  -13.8181   20.5669 C   0  0  0  0  0  0
  -24.1791  -13.0434   20.9198 C   0  0  0  0  0  0
  -24.6381  -11.6913   20.8738 C   0  0  0  0  0  0
  -23.9067  -10.4282   21.0411 C   0  0  0  0  0  0
  -24.3622   -9.4201   21.9194 C   0  0  0  0  0  0
  -23.6284   -8.2246   22.0771 C   0  0  0  0  0  0
  -22.4270   -8.0275   21.3551 C   0  0  0  0  0  0
  -21.9902   -9.0254   20.4659 C   0  0  0  0  0  0
  -22.7241  -10.2127   20.3059 C   0  0  0  0  0  0
  -21.6854   -6.0732   22.5281 C   0  0  0  0  0  0
  -21.4008   -6.5632   23.8214 C   0  0  0  0  0  0
  -21.3657   -5.6786   24.9176 C   0  0  0  0  0  0
  -21.6041   -4.3048   24.7224 C   0  0  0  0  0  0
  -21.8824   -3.8144   23.4341 C   0  0  0  0  0  0
  -21.9186   -4.6961   22.3397 C   0  0  0  0  0  0
  -22.7813  -13.5203   21.1870 C   0  0  0  0  0  0
  -22.1663   -4.2136   21.0981 F   0  0  0  0  0  0
  -21.5626   -3.4537   25.7746 F   0  0  0  0  0  0
  -29.9844  -13.5029   20.3948 N   0  0  0  0  0  0
  -26.2910  -12.9397   20.3233 N   0  0  0  0  0  0
  -25.9309  -11.6542   20.5722 N   0  0  0  0  0  0
  -22.0465  -12.8189   22.0433 N   0  0  0  0  0  0
  -25.4117  -15.1916   20.4095 N   0  0  0  0  0  0
  -31.8094  -14.8217   20.2074 O   0  0  0  0  0  0
  -21.6637   -6.8874   21.4240 O   0  0  0  0  0  0
  -22.3490  -14.5519   20.6734 O   0  0  0  0  0  0
  -24.6288  -31.8562   23.1976 C   0  0  0  0  0  0
  -25.9115  -32.4763   23.8330 C   0  0  1  0  0  0
  -27.2235  -27.2539   20.1708 C   0  0  0  0  0  0
  -25.5905  -33.8560   24.2243 N   0  0  0  0  0  0
  -23.4265  -30.4745   21.5401 C   0  0  2  0  0  0
  -24.8795  -28.9156   20.1169 C   0  0  0  0  0  0
  -22.7489  -29.4574   22.4900 C   0  0  0  0  0  0
  -18.0284  -28.1360   22.8476 C   0  0  0  0  0  0
  -24.1495  -36.7295   23.2644 C   0  0  0  0  0  0
  -25.9712  -30.7699   21.3769 C   0  0  0  0  0  0
  -26.0501  -29.3897   20.7239 C   0  0  0  0  0  0
  -27.2297  -28.5735   20.7356 C   0  0  0  0  0  0
  -26.0325  -26.8409   19.5378 C   0  0  0  0  0  0
  -24.8747  -27.6491   19.5099 C   0  0  0  0  0  0
  -23.6479  -29.8044   20.1574 C   0  0  0  0  0  0
  -25.4119  -36.3068   24.0327 C   0  0  1  0  0  0
  -20.5884  -28.3665   23.1258 C   0  0  2  0  0  0
  -20.6762  -26.9374   22.5410 C   0  0  0  0  0  0
  -19.5753  -26.6341   21.5202 C   0  0  0  0  0  0
  -18.1919  -26.7891   22.1611 C   0  0  0  0  0  0
  -19.1547  -28.8824   23.2857 C   0  0  0  0  0  0
  -18.9479  -30.1417   23.8867 C   0  0  0  0  0  0
  -17.6485  -30.6567   24.0539 C   0  0  0  0  0  0
  -25.9037  -34.9447   23.5097 C   0  0  0  0  0  0
  -16.5367  -29.9049   23.6347 C   0  0  0  0  0  0
  -16.7277  -28.6475   23.0340 C   0  0  0  0  0  0
  -26.4473  -31.6592   25.0739 C   0  0  0  0  0  0
  -25.3678  -31.3771   26.1452 C   0  0  0  0  0  0
  -27.0331  -30.3009   24.6228 C   0  0  0  0  0  0
  -27.6012  -32.4354   25.7502 C   0  0  0  0  0  0
  -27.5586  -37.1793   24.8463 C   0  0  0  0  0  0
  -21.4197  -29.3025   22.3660 N   0  0  0  0  0  0
  -26.4312  -37.3760   23.9412 N   0  0  0  0  0  0
  -24.6949  -31.0519   22.0957 N   0  0  0  0  0  0
  -23.4200  -28.8103   23.2977 O   0  0  0  0  0  0
  -28.3054  -26.3451   20.2107 O   0  0  0  0  0  0
  -26.5648  -34.8939   22.4683 O   0  0  0  0  0  0
  -23.5440  -32.1363   23.7274 O   0  0  0  0  0  0
  -29.4855  -18.4542   20.5945 C   0  0  0  0  0  0
  -31.2391  -17.4475   21.9181 C   0  0  0  0  0  0
  -30.9023  -19.9107   21.9721 C   0  0  0  0  0  0
  -30.1853  -17.2485   21.0129 C   0  0  0  0  0  0
  -29.8041  -19.8106   21.0408 C   0  0  0  0  0  0
  -31.5808  -18.7271   22.3885 C   0  0  0  0  0  0
  -28.7852  -23.6819   20.3258 C   0  0  0  0  0  0
  -28.6648  -22.2881   21.1328 C   0  0  0  0  0  0
  -28.0621  -25.0092   20.8711 C   0  0  0  0  0  0
  -31.3904  -21.2408   22.5763 C   0  0  0  0  0  0
  -29.8233  -15.8517   20.6601 N   0  0  0  0  0  0
  -29.0563  -20.9505   20.5021 N   0  0  0  0  0  0
  -29.4191  -23.7094   19.2654 O   0  0  0  0  0  0
  -32.5912  -18.7746   23.2926 F   0  0  0  0  0  0
  -30.5934  -21.5828   23.5898 F   0  0  0  0  0  0
  -32.6306  -21.1882   23.0645 F   0  0  0  0  0  0
  -31.4155  -22.2263   21.6836 F   0  0  0  0  0  0
  -31.4748  -12.5913   19.1507 H   0  0  0  0  0  0
  -30.3957  -11.4718   19.9334 H   0  0  0  0  0  0
  -29.7849  -11.7295   17.5083 H   0  0  0  0  0  0
  -29.6354  -13.4580   17.7095 H   0  0  0  0  0  0
  -27.8801  -11.2838   18.8928 H   0  0  0  0  0  0
  -27.3779  -12.5379   17.7895 H   0  0  0  0  0  0
  -27.6368  -14.2524   19.4720 H   0  0  0  0  0  0
  -28.7166  -12.1442   21.4037 H   0  0  0  0  0  0
  -28.4239  -13.8214   21.7957 H   0  0  0  0  0  0
  -25.2766   -9.5671   22.4768 H   0  0  0  0  0  0
  -23.9985   -7.4633   22.7495 H   0  0  0  0  0  0
  -21.0830   -8.8774   19.8965 H   0  0  0  0  0  0
  -22.3701  -10.9670   19.6163 H   0  0  0  0  0  0
  -21.2013   -7.6142   23.9706 H   0  0  0  0  0  0
  -21.1471   -6.0525   25.9074 H   0  0  0  0  0  0
  -22.0607   -2.7600   23.2856 H   0  0  0  0  0  0
  -22.4070  -11.9810   22.4775 H   0  0  0  0  0  0
  -21.1091  -13.1234   22.2698 H   0  0  0  0  0  0
  -24.6332  -15.8340   20.5208 H   0  0  0  0  0  0
  -26.2396  -15.6416   20.0412 H   0  0  0  0  0  0
  -26.7189  -32.5440   23.1085 H   0  0  0  0  0  0
  -25.0004  -33.9696   25.0350 H   0  0  0  0  0  0
  -22.7213  -31.2959   21.3930 H   0  0  0  0  0  0
  -23.3760  -35.9627   23.3316 H   0  0  0  0  0  0
  -24.3573  -36.8910   22.2058 H   0  0  0  0  0  0
  -23.7264  -37.6498   23.6670 H   0  0  0  0  0  0
  -26.1065  -31.5314   20.6063 H   0  0  0  0  0  0
  -26.8483  -30.8224   22.0081 H   0  0  0  0  0  0
  -28.1219  -28.9285   21.2311 H   0  0  0  0  0  0
  -25.9890  -25.8601   19.0875 H   0  0  0  0  0  0
  -23.9755  -27.2749   19.0397 H   0  0  0  0  0  0
  -23.7734  -30.5787   19.3997 H   0  0  0  0  0  0
  -22.7659  -29.2365   19.8538 H   0  0  0  0  0  0
  -25.1297  -36.1934   25.0823 H   0  0  0  0  0  0
  -20.9977  -28.3263   24.1371 H   0  0  0  0  0  0
  -20.5600  -26.2274   23.3613 H   0  0  0  0  0  0
  -21.6616  -26.7345   22.1218 H   0  0  0  0  0  0
  -19.6895  -25.6247   21.1236 H   0  0  0  0  0  0
  -19.6694  -27.3159   20.6737 H   0  0  0  0  0  0
  -17.4165  -26.6641   21.4025 H   0  0  0  0  0  0
  -18.0310  -26.0030   22.9016 H   0  0  0  0  0  0
  -19.7973  -30.7219   24.2215 H   0  0  0  0  0  0
  -17.5056  -31.6250   24.5136 H   0  0  0  0  0  0
  -15.5363  -30.2941   23.7673 H   0  0  0  0  0  0
  -15.8677  -28.0785   22.7055 H   0  0  0  0  0  0
  -24.5854  -30.7111   25.7797 H   0  0  0  0  0  0
  -24.8867  -32.2947   26.4843 H   0  0  0  0  0  0
  -25.7979  -30.8984   27.0257 H   0  0  0  0  0  0
  -26.2941  -29.6736   24.1233 H   0  0  0  0  0  0
  -27.3978  -29.7295   25.4770 H   0  0  0  0  0  0
  -27.8819  -30.4273   23.9506 H   0  0  0  0  0  0
  -27.2614  -33.3692   26.1992 H   0  0  0  0  0  0
  -28.3850  -32.6853   25.0340 H   0  0  0  0  0  0
  -28.0626  -31.8538   26.5476 H   0  0  0  0  0  0
  -28.2565  -38.0103   24.7493 H   0  0  0  0  0  0
  -28.1094  -36.2644   24.6301 H   0  0  0  0  0  0
  -27.2292  -37.1442   25.8846 H   0  0  0  0  0  0
  -20.9354  -29.8815   21.6960 H   0  0  0  0  0  0
  -26.0196  -38.2842   24.1397 H   0  0  0  0  0  0
  -28.6658  -18.3340   19.9002 H   0  0  0  0  0  0
  -31.7869  -16.6019   22.3067 H   0  0  0  0  0  0
  -27.6004  -22.2069   21.3581 H   0  0  0  0  0  0
  -29.1157  -22.4182   22.1123 H   0  0  0  0  0  0
  -28.3561  -25.1185   21.9156 H   0  0  0  0  0  0
  -26.9965  -24.7850   20.8924 H   0  0  0  0  0  0
  -28.8314  -15.6665   20.6082 H   0  0  0  0  0  0
  -28.3903  -20.6871   19.7818 H   0  0  0  0  0  0
  1 25  1  0  0  0
  1 30  2  0  0  0
  1 81  1  0  0  0
  2  3  1  0  0  0
  2 25  1  0  0  0
  2 88  1  0  0  0
  2 89  1  0  0  0
  3  4  1  0  0  0
  3 90  1  0  0  0
  3 91  1  0  0  0
  4  5  1  0  0  0
  4 92  1  0  0  0
  4 93  1  0  0  0
  5  6  1  0  0  0
  5 26  1  0  0  0
  5 94  1  0  0  0
  6 25  1  0  0  0
  6 95  1  0  0  0
  6 96  1  0  0  0
  7  8  2  0  0  0
  7 26  1  0  0  0
  7 29  1  0  0  0
  8  9  1  0  0  0
  8 22  1  0  0  0
  9 10  1  0  0  0
  9 27  2  0  0  0
 10 11  2  0  0  0
 10 15  1  0  0  0
 11 12  1  0  0  0
 11 97  1  0  0  0
 12 13  2  0  0  0
 12 98  1  0  0  0
 13 14  1  0  0  0
 13 31  1  0  0  0
 14 15  2  0  0  0
 14 99  1  0  0  0
 15100  1  0  0  0
 16 17  2  0  0  0
 16 21  1  0  0  0
 16 31  1  0  0  0
 17 18  1  0  0  0
 17101  1  0  0  0
 18 19  2  0  0  0
 18102  1  0  0  0
 19 20  1  0  0  0
 19 24  1  0  0  0
 20 21  2  0  0  0
 20103  1  0  0  0
 21 23  1  0  0  0
 22 28  1  0  0  0
 22 32  2  0  0  0
 26 27  1  0  0  0
 28104  1  0  0  0
 28105  1  0  0  0
 29106  1  0  0  0
 29107  1  0  0  0
 33 34  1  0  0  0
 33 66  1  0  0  0
 33 70  2  0  0  0
 34 36  1  0  0  0
 34 59  1  0  0  0
 34108  1  0  0  0
 35 44  2  0  0  0
 35 45  1  0  0  0
 35 68  1  0  0  0
 36 56  1  0  0  0
 36109  1  0  0  0
 37 39  1  0  0  0
 37 47  1  0  0  0
 37 66  1  0  0  0
 37110  1  0  0  0
 38 43  2  0  0  0
 38 46  1  0  0  0
 38 47  1  0  0  0
 39 64  1  0  0  0
 39 67  2  0  0  0
 40 52  1  0  0  0
 40 53  2  0  0  0
 40 58  1  0  0  0
 41111  1  0  0  0
 41112  1  0  0  0
 41113  1  0  0  0
 41 48  1  0  0  0
 42 43  1  0  0  0
 42 66  1  0  0  0
 42114  1  0  0  0
 42115  1  0  0  0
 43 44  1  0  0  0
 44116  1  0  0  0
 45 46  2  0  0  0
 45117  1  0  0  0
 46118  1  0  0  0
 47119  1  0  0  0
 47120  1  0  0  0
 48 56  1  0  0  0
 48 65  1  0  0  0
 48121  1  0  0  0
 49 50  1  0  0  0
 49 53  1  0  0  0
 49 64  1  0  0  0
 49122  1  0  0  0
 50 51  1  0  0  0
 50123  1  0  0  0
 50124  1  0  0  0
 51 52  1  0  0  0
 51125  1  0  0  0
 51126  1  0  0  0
 52127  1  0  0  0
 52128  1  0  0  0
 53 54  1  0  0  0
 54 55  2  0  0  0
 54129  1  0  0  0
 55 57  1  0  0  0
 55130  1  0  0  0
 56 69  2  0  0  0
 57 58  2  0  0  0
 57131  1  0  0  0
 58132  1  0  0  0
 59 60  1  0  0  0
 59 61  1  0  0  0
 59 62  1  0  0  0
 60133  1  0  0  0
 60134  1  0  0  0
 60135  1  0  0  0
 61136  1  0  0  0
 61137  1  0  0  0
 61138  1  0  0  0
 62139  1  0  0  0
 62140  1  0  0  0
 62141  1  0  0  0
 63 65  1  0  0  0
 63142  1  0  0  0
 63143  1  0  0  0
 63144  1  0  0  0
 64145  1  0  0  0
 65146  1  0  0  0
 68 79  1  0  0  0
 71 74  2  0  0  0
 71 75  1  0  0  0
 71147  1  0  0  0
 72 74  1  0  0  0
 72 76  2  0  0  0
 72148  1  0  0  0
 73 75  2  0  0  0
 73 76  1  0  0  0
 73 80  1  0  0  0
 74 81  1  0  0  0
 75 82  1  0  0  0
 76 84  1  0  0  0
 77 78  1  0  0  0
 77 79  1  0  0  0
 77 83  2  0  0  0
 78 82  1  0  0  0
 78149  1  0  0  0
 78150  1  0  0  0
 79151  1  0  0  0
 79152  1  0  0  0
 80 85  1  0  0  0
 80 86  1  0  0  0
 80 87  1  0  0  0
 81153  1  0  0  0
 82154  1  0  0  0
M  ISO  4   1 100  68 101  79 101  81 100
M  END
> <chiral flag>
0

> <version>
0

> <s_m_source_file>
/data/baiqing/PycharmProjects/Reinvent-master-3.2/result/LINK_invent/BTK/process_docking_weight1_custom_product_contain_oxygen_bond_distance_aromatic_linkinvent_7_9_3/rearranged_h_0167.sdf

> <i_m_source_file_index>
87

> <r_mmod_Potential_Energy-OPLS-2005>
415.180114746094

> <r_mmod_Stretch_Energy-OPLS-2005>
134.512435913086

> <r_mmod_Bend_Energy-OPLS-2005>
183.590103149414

> <r_mmod_Torsional_Energy-OPLS-2005>
237.955612182617

> <r_mmod_Improper_Torsional_Energy-OPLS-2005>
8.7099084854126

> <r_mmod_Van_der_Waal_Energy-OPLS-2005>
143.873580932617

> <r_mmod_Electrostatic_Energy-OPLS-2005>
-127.69270324707

> <r_mmod_Solvation_Energy-OPLS-2005>
-250.73583984375

> <b_mmod_Minimization_Converged-OPLS-2005>
0

> <r_mmod_RMS_Derivative-OPLS-2005>
4.54895401000977

$$$$
89
                    3D
 Structure written by MMmdl.
161169  0  0  1  0            999 V2000
  -30.7461  -14.3222   20.7500 C   0  0  0  0  0  0
  -30.4324  -12.2920   19.3709 C   0  0  0  0  0  0
  -29.4821  -12.5424   18.1840 C   0  0  0  0  0  0
  -28.0074  -12.3919   18.6022 C   0  0  0  0  0  0
  -27.6746  -13.1913   19.8868 C   0  0  2  0  0  0
  -28.7083  -12.8725   20.9872 C   0  0  0  0  0  0
  -25.2657  -13.8146   20.5694 C   0  0  0  0  0  0
  -24.1870  -13.0453   20.9192 C   0  0  0  0  0  0
  -24.6404  -11.6912   20.8770 C   0  0  0  0  0  0
  -23.9041  -10.4312   21.0420 C   0  0  0  0  0  0
  -24.3606   -9.4220   21.9179 C   0  0  0  0  0  0
  -23.6289   -8.2251   22.0753 C   0  0  0  0  0  0
  -22.4265   -8.0292   21.3553 C   0  0  0  0  0  0
  -21.9897   -9.0271   20.4655 C   0  0  0  0  0  0
  -22.7229  -10.2151   20.3059 C   0  0  0  0  0  0
  -21.6853   -6.0743   22.5285 C   0  0  0  0  0  0
  -21.4013   -6.5639   23.8226 C   0  0  0  0  0  0
  -21.3661   -5.6789   24.9185 C   0  0  0  0  0  0
  -21.6033   -4.3049   24.7227 C   0  0  0  0  0  0
  -21.8812   -3.8148   23.4346 C   0  0  0  0  0  0
  -21.9194   -4.6969   22.3405 C   0  0  0  0  0  0
  -22.7899  -13.5270   21.1847 C   0  0  0  0  0  0
  -22.1662   -4.2169   21.0981 F   0  0  0  0  0  0
  -21.5637   -3.4523   25.7730 F   0  0  0  0  0  0
  -30.0618  -13.1823   20.4787 N   0  0  0  0  0  0
  -26.3083  -12.9288   20.3412 N   0  0  0  0  0  0
  -25.9325  -11.6459   20.5780 N   0  0  0  0  0  0
  -22.0510  -12.8313   22.0416 N   0  0  0  0  0  0
  -25.4398  -15.1861   20.4117 N   0  0  0  0  0  0
  -31.6938  -14.7382   20.0747 O   0  0  0  0  0  0
  -21.6641   -6.8883   21.4244 O   0  0  0  0  0  0
  -22.3583  -14.5559   20.6652 O   0  0  0  0  0  0
  -24.6112  -31.8688   23.2118 C   0  0  0  0  0  0
  -25.9017  -32.4847   23.8382 C   0  0  1  0  0  0
  -27.2525  -27.4594   20.1107 C   0  0  0  0  0  0
  -25.5851  -33.8635   24.2325 N   0  0  0  0  0  0
  -23.4016  -30.4894   21.5502 C   0  0  2  0  0  0
  -24.8559  -28.9510   20.1223 C   0  0  0  0  0  0
  -22.7386  -29.4663   22.5009 C   0  0  0  0  0  0
  -18.0256  -28.1412   22.8477 C   0  0  0  0  0  0
  -24.1472  -36.7320   23.2644 C   0  0  0  0  0  0
  -25.9236  -30.8447   21.3591 C   0  0  0  0  0  0
  -26.0103  -29.4753   20.7192 C   0  0  0  0  0  0
  -27.2134  -28.7361   20.7117 C   0  0  0  0  0  0
  -26.0866  -26.9420   19.5095 C   0  0  0  0  0  0
  -24.8863  -27.6817   19.5163 C   0  0  0  0  0  0
  -23.6141  -29.8138   20.1668 C   0  0  0  0  0  0
  -25.4098  -36.3130   24.0346 C   0  0  1  0  0  0
  -20.5837  -28.3662   23.1346 C   0  0  2  0  0  0
  -20.6742  -26.9413   22.5425 C   0  0  0  0  0  0
  -19.5715  -26.6415   21.5215 C   0  0  0  0  0  0
  -18.1899  -26.7951   22.1629 C   0  0  0  0  0  0
  -19.1509  -28.8849   23.2911 C   0  0  0  0  0  0
  -18.9451  -30.1455   23.8929 C   0  0  0  0  0  0
  -17.6464  -30.6613   24.0574 C   0  0  0  0  0  0
  -25.9019  -34.9496   23.5141 C   0  0  0  0  0  0
  -16.5349  -29.9142   23.6313 C   0  0  0  0  0  0
  -16.7251  -28.6559   23.0317 C   0  0  0  0  0  0
  -26.4531  -31.6634   25.0687 C   0  0  0  0  0  0
  -25.3873  -31.3655   26.1497 C   0  0  0  0  0  0
  -27.0426  -30.3132   24.6006 C   0  0  0  0  0  0
  -27.6134  -32.4366   25.7394 C   0  0  0  0  0  0
  -27.5585  -37.1814   24.8453 C   0  0  0  0  0  0
  -21.4112  -29.3039   22.3757 N   0  0  0  0  0  0
  -26.4301  -37.3789   23.9393 N   0  0  0  0  0  0
  -24.6635  -31.0809   22.1001 N   0  0  0  0  0  0
  -23.4162  -28.8205   23.3056 O   0  0  0  0  0  0
  -28.4234  -26.7434   20.0676 O   0  0  0  0  0  0
  -26.5604  -34.8957   22.4711 O   0  0  0  0  0  0
  -23.5313  -32.1399   23.7555 O   0  0  0  0  0  0
  -28.4279  -18.5676   22.4839 C   0  0  0  0  0  0
  -30.1564  -17.2905   21.3293 C   0  0  0  0  0  0
  -28.0917  -17.4383   23.2628 C   0  0  0  0  0  0
  -29.4627  -18.5068   21.5216 C   0  0  0  0  0  0
  -29.8102  -16.1469   22.0859 C   0  0  0  0  0  0
  -28.7942  -16.2330   23.0575 C   0  0  0  0  0  0
  -28.8686  -23.3448   19.8954 C   0  0  0  0  0  0
  -29.6436  -22.0040   19.9444 C   0  0  0  0  0  0
  -29.4744  -24.6020   20.5666 C   0  0  0  0  0  0
  -26.3373  -18.8517   24.5500 C   0  0  0  0  0  0
  -26.9729  -17.4737   24.3010 C   0  0  0  0  0  0
  -29.0944  -20.9016   20.8628 C   0  0  0  0  0  0
  -28.5017  -25.6935   21.0370 C   0  0  0  0  0  0
  -30.4098  -14.8725   21.9222 N   0  0  0  0  0  0
  -29.8127  -19.6239   20.7461 N   0  0  0  0  0  0
  -27.7720  -23.4037   19.3201 O   0  0  0  0  0  0
  -30.6382  -21.7964   19.2319 O   0  0  0  0  0  0
  -30.6980  -24.7397   20.7132 O   0  0  0  0  0  0
  -28.4793  -15.1332   23.7851 F   0  0  0  0  0  0
  -31.4691  -12.4382   19.0627 H   0  0  0  0  0  0
  -30.3663  -11.2531   19.6964 H   0  0  0  0  0  0
  -29.7063  -11.8529   17.3691 H   0  0  0  0  0  0
  -29.6528  -13.5443   17.7880 H   0  0  0  0  0  0
  -27.8085  -11.3312   18.7653 H   0  0  0  0  0  0
  -27.3535  -12.7046   17.7866 H   0  0  0  0  0  0
  -27.7507  -14.2532   19.6493 H   0  0  0  0  0  0
  -28.6686  -11.8097   21.2353 H   0  0  0  0  0  0
  -28.4399  -13.3887   21.9086 H   0  0  0  0  0  0
  -25.2759   -9.5709   22.4744 H   0  0  0  0  0  0
  -24.0017   -7.4632   22.7452 H   0  0  0  0  0  0
  -21.0826   -8.8773   19.8962 H   0  0  0  0  0  0
  -22.3668  -10.9684   19.6169 H   0  0  0  0  0  0
  -21.1995   -7.6149   23.9739 H   0  0  0  0  0  0
  -21.1493   -6.0517   25.9094 H   0  0  0  0  0  0
  -22.0588   -2.7610   23.2840 H   0  0  0  0  0  0
  -22.4098  -12.0013   22.4900 H   0  0  0  0  0  0
  -21.1113  -13.1372   22.2530 H   0  0  0  0  0  0
  -24.6775  -15.8413   20.5303 H   0  0  0  0  0  0
  -26.2948  -15.6269   20.0994 H   0  0  0  0  0  0
  -26.7081  -32.5602   23.1155 H   0  0  0  0  0  0
  -24.9958  -33.9795   25.0436 H   0  0  0  0  0  0
  -22.6907  -31.3054   21.4058 H   0  0  0  0  0  0
  -23.3749  -35.9642   23.3304 H   0  0  0  0  0  0
  -24.3568  -36.8902   22.2055 H   0  0  0  0  0  0
  -23.7215  -37.6528   23.6637 H   0  0  0  0  0  0
  -26.0185  -31.6065   20.5843 H   0  0  0  0  0  0
  -26.8162  -30.9139   21.9690 H   0  0  0  0  0  0
  -28.1087  -29.1413   21.1617 H   0  0  0  0  0  0
  -26.1131  -25.9730   19.0280 H   0  0  0  0  0  0
  -23.9987  -27.2697   19.0550 H   0  0  0  0  0  0
  -23.7199  -30.5842   19.4006 H   0  0  0  0  0  0
  -22.7429  -29.2260   19.8716 H   0  0  0  0  0  0
  -25.1290  -36.1999   25.0841 H   0  0  0  0  0  0
  -20.9912  -28.3246   24.1469 H   0  0  0  0  0  0
  -20.5620  -26.2278   23.3598 H   0  0  0  0  0  0
  -21.6622  -26.7457   22.1244 H   0  0  0  0  0  0
  -19.6861  -25.6318   21.1246 H   0  0  0  0  0  0
  -19.6686  -27.3234   20.6751 H   0  0  0  0  0  0
  -17.4164  -26.6657   21.4052 H   0  0  0  0  0  0
  -18.0342  -26.0127   22.9052 H   0  0  0  0  0  0
  -19.7945  -30.7230   24.2341 H   0  0  0  0  0  0
  -17.5046  -31.6282   24.5184 H   0  0  0  0  0  0
  -15.5354  -30.3067   23.7626 H   0  0  0  0  0  0
  -15.8637  -28.0903   22.7010 H   0  0  0  0  0  0
  -24.6170  -30.6806   25.7906 H   0  0  0  0  0  0
  -24.8915  -32.2746   26.4871 H   0  0  0  0  0  0
  -25.8385  -30.9009   27.0282 H   0  0  0  0  0  0
  -26.2966  -29.6845   24.1132 H   0  0  0  0  0  0
  -27.4403  -29.7402   25.4405 H   0  0  0  0  0  0
  -27.8698  -30.4582   23.9040 H   0  0  0  0  0  0
  -27.2772  -33.3578   26.2157 H   0  0  0  0  0  0
  -28.3827  -32.7066   25.0129 H   0  0  0  0  0  0
  -28.0993  -31.8401   26.5120 H   0  0  0  0  0  0
  -28.2617  -38.0098   24.7510 H   0  0  0  0  0  0
  -28.1080  -36.2647   24.6280 H   0  0  0  0  0  0
  -27.2289  -37.1446   25.8849 H   0  0  0  0  0  0
  -20.9287  -29.8790   21.6985 H   0  0  0  0  0  0
  -26.0224  -38.2872   24.1386 H   0  0  0  0  0  0
  -27.8845  -19.4872   22.6289 H   0  0  0  0  0  0
  -30.9444  -17.2306   20.5923 H   0  0  0  0  0  0
  -25.5556  -18.7857   25.3079 H   0  0  0  0  0  0
  -25.8744  -19.2542   23.6483 H   0  0  0  0  0  0
  -27.0748  -19.5720   24.9053 H   0  0  0  0  0  0
  -27.3547  -17.0839   25.2468 H   0  0  0  0  0  0
  -26.2005  -16.7746   23.9791 H   0  0  0  0  0  0
  -28.0403  -20.7538   20.6225 H   0  0  0  0  0  0
  -29.1462  -21.2572   21.8924 H   0  0  0  0  0  0
  -28.8683  -26.1089   21.9783 H   0  0  0  0  0  0
  -27.5247  -25.2518   21.2426 H   0  0  0  0  0  0
  -29.9788  -14.1985   22.5415 H   0  0  0  0  0  0
  -30.5654  -19.5800   20.0616 H   0  0  0  0  0  0
  1 25  1  0  0  0
  1 30  2  0  0  0
  1 84  1  0  0  0
  2  3  1  0  0  0
  2 25  1  0  0  0
  2 90  1  0  0  0
  2 91  1  0  0  0
  3  4  1  0  0  0
  3 92  1  0  0  0
  3 93  1  0  0  0
  4  5  1  0  0  0
  4 94  1  0  0  0
  4 95  1  0  0  0
  5  6  1  0  0  0
  5 26  1  0  0  0
  5 96  1  0  0  0
  6 25  1  0  0  0
  6 97  1  0  0  0
  6 98  1  0  0  0
  7  8  2  0  0  0
  7 26  1  0  0  0
  7 29  1  0  0  0
  8  9  1  0  0  0
  8 22  1  0  0  0
  9 10  1  0  0  0
  9 27  2  0  0  0
 10 11  2  0  0  0
 10 15  1  0  0  0
 11 12  1  0  0  0
 11 99  1  0  0  0
 12 13  2  0  0  0
 12100  1  0  0  0
 13 14  1  0  0  0
 13 31  1  0  0  0
 14 15  2  0  0  0
 14101  1  0  0  0
 15102  1  0  0  0
 16 17  2  0  0  0
 16 21  1  0  0  0
 16 31  1  0  0  0
 17 18  1  0  0  0
 17103  1  0  0  0
 18 19  2  0  0  0
 18104  1  0  0  0
 19 20  1  0  0  0
 19 24  1  0  0  0
 20 21  2  0  0  0
 20105  1  0  0  0
 21 23  1  0  0  0
 22 28  1  0  0  0
 22 32  2  0  0  0
 26 27  1  0  0  0
 28106  1  0  0  0
 28107  1  0  0  0
 29108  1  0  0  0
 29109  1  0  0  0
 33 34  1  0  0  0
 33 66  1  0  0  0
 33 70  2  0  0  0
 34 36  1  0  0  0
 34 59  1  0  0  0
 34110  1  0  0  0
 35 44  2  0  0  0
 35 45  1  0  0  0
 35 68  1  0  0  0
 36 56  1  0  0  0
 36111  1  0  0  0
 37 39  1  0  0  0
 37 47  1  0  0  0
 37 66  1  0  0  0
 37112  1  0  0  0
 38 43  2  0  0  0
 38 46  1  0  0  0
 38 47  1  0  0  0
 39 64  1  0  0  0
 39 67  2  0  0  0
 40 52  1  0  0  0
 40 53  2  0  0  0
 40 58  1  0  0  0
 41113  1  0  0  0
 41114  1  0  0  0
 41115  1  0  0  0
 41 48  1  0  0  0
 42 43  1  0  0  0
 42 66  1  0  0  0
 42116  1  0  0  0
 42117  1  0  0  0
 43 44  1  0  0  0
 44118  1  0  0  0
 45 46  2  0  0  0
 45119  1  0  0  0
 46120  1  0  0  0
 47121  1  0  0  0
 47122  1  0  0  0
 48 56  1  0  0  0
 48 65  1  0  0  0
 48123  1  0  0  0
 49 50  1  0  0  0
 49 53  1  0  0  0
 49 64  1  0  0  0
 49124  1  0  0  0
 50 51  1  0  0  0
 50125  1  0  0  0
 50126  1  0  0  0
 51 52  1  0  0  0
 51127  1  0  0  0
 51128  1  0  0  0
 52129  1  0  0  0
 52130  1  0  0  0
 53 54  1  0  0  0
 54 55  2  0  0  0
 54131  1  0  0  0
 55 57  1  0  0  0
 55132  1  0  0  0
 56 69  2  0  0  0
 57 58  2  0  0  0
 57133  1  0  0  0
 58134  1  0  0  0
 59 60  1  0  0  0
 59 61  1  0  0  0
 59 62  1  0  0  0
 60135  1  0  0  0
 60136  1  0  0  0
 60137  1  0  0  0
 61138  1  0  0  0
 61139  1  0  0  0
 61140  1  0  0  0
 62141  1  0  0  0
 62142  1  0  0  0
 62143  1  0  0  0
 63 65  1  0  0  0
 63144  1  0  0  0
 63145  1  0  0  0
 63146  1  0  0  0
 64147  1  0  0  0
 65148  1  0  0  0
 68 83  1  0  0  0
 71 73  2  0  0  0
 71 74  1  0  0  0
 71149  1  0  0  0
 72 74  2  0  0  0
 72 75  1  0  0  0
 72150  1  0  0  0
 73 76  1  0  0  0
 73 81  1  0  0  0
 74 85  1  0  0  0
 75 76  2  0  0  0
 75 84  1  0  0  0
 76 89  1  0  0  0
 77 78  1  0  0  0
 77 79  1  0  0  0
 77 86  2  0  0  0
 78 82  1  0  0  0
 78 87  2  0  0  0
 79 83  1  0  0  0
 79 88  2  0  0  0
 80 81  1  0  0  0
 80151  1  0  0  0
 80152  1  0  0  0
 80153  1  0  0  0
 81154  1  0  0  0
 81155  1  0  0  0
 82 85  1  0  0  0
 82156  1  0  0  0
 82157  1  0  0  0
 83158  1  0  0  0
 83159  1  0  0  0
 84160  1  0  0  0
 85161  1  0  0  0
M  ISO  4   1 100  68 101  83 101  84 100
M  END
> <chiral flag>
0

> <version>
0

> <s_m_source_file>
/data/baiqing/PycharmProjects/Reinvent-master-3.2/result/LINK_invent/BTK/process_docking_weight1_custom_product_contain_oxygen_bond_distance_aromatic_linkinvent_7_9_3/rearranged_h_0167.sdf

> <i_m_source_file_index>
88

> <r_mmod_Potential_Energy-OPLS-2005>
63.1499977111816

> <r_mmod_Stretch_Energy-OPLS-2005>
35.9786911010742

> <r_mmod_Bend_Energy-OPLS-2005>
105.190795898438

> <r_mmod_Torsional_Energy-OPLS-2005>
262.327789306641

> <r_mmod_Improper_Torsional_Energy-OPLS-2005>
7.64366626739502

> <r_mmod_Van_der_Waal_Energy-OPLS-2005>
144.829360961914

> <r_mmod_Electrostatic_Energy-OPLS-2005>
-257.926940917969

> <r_mmod_Solvation_Energy-OPLS-2005>
-244.270172119141

> <b_mmod_Minimization_Converged-OPLS-2005>
0

> <r_mmod_RMS_Derivative-OPLS-2005>
3.50054812431335

$$$$
90
                    3D
 Structure written by MMmdl.
175183  0  0  1  0            999 V2000
  -30.6883  -14.5070   20.5186 C   0  0  0  0  0  0
  -30.4248  -12.3022   19.4414 C   0  0  0  0  0  0
  -29.5029  -12.4256   18.2105 C   0  0  0  0  0  0
  -28.0154  -12.3348   18.6229 C   0  0  0  0  0  0
  -27.6524  -13.1986   19.8642 C   0  0  2  0  0  0
  -28.6974  -13.0370   20.9877 C   0  0  0  0  0  0
  -25.2593  -13.8151   20.5698 C   0  0  0  0  0  0
  -24.1820  -13.0442   20.9166 C   0  0  0  0  0  0
  -24.6351  -11.6901   20.8734 C   0  0  0  0  0  0
  -23.9024  -10.4296   21.0421 C   0  0  0  0  0  0
  -24.3597   -9.4208   21.9188 C   0  0  0  0  0  0
  -23.6279   -8.2244   22.0757 C   0  0  0  0  0  0
  -22.4253   -8.0290   21.3552 C   0  0  0  0  0  0
  -21.9876   -9.0261   20.4649 C   0  0  0  0  0  0
  -22.7209  -10.2139   20.3055 C   0  0  0  0  0  0
  -21.6834   -6.0738   22.5278 C   0  0  0  0  0  0
  -21.4021   -6.5639   23.8212 C   0  0  0  0  0  0
  -21.3656   -5.6793   24.9172 C   0  0  0  0  0  0
  -21.6028   -4.3047   24.7222 C   0  0  0  0  0  0
  -21.8822   -3.8153   23.4353 C   0  0  0  0  0  0
  -21.9200   -4.6957   22.3399 C   0  0  0  0  0  0
  -22.7844  -13.5244   21.1835 C   0  0  0  0  0  0
  -22.1668   -4.2167   21.0973 F   0  0  0  0  0  0
  -21.5616   -3.4528   25.7737 F   0  0  0  0  0  0
  -30.0166  -13.3301   20.4106 N   0  0  0  0  0  0
  -26.2980  -12.9272   20.3341 N   0  0  0  0  0  0
  -25.9276  -11.6452   20.5779 N   0  0  0  0  0  0
  -22.0470  -12.8257   22.0406 N   0  0  0  0  0  0
  -25.4398  -15.1877   20.4156 N   0  0  0  0  0  0
  -31.8516  -14.6504   20.1339 O   0  0  0  0  0  0
  -21.6622   -6.8878   21.4237 O   0  0  0  0  0  0
  -22.3531  -14.5549   20.6685 O   0  0  0  0  0  0
  -24.6107  -31.8678   23.2086 C   0  0  0  0  0  0
  -25.9007  -32.4823   23.8389 C   0  0  1  0  0  0
  -27.2409  -27.4625   20.1197 C   0  0  0  0  0  0
  -25.5877  -33.8623   24.2321 N   0  0  0  0  0  0
  -23.3983  -30.4877   21.5458 C   0  0  2  0  0  0
  -24.8512  -28.9603   20.1013 C   0  0  0  0  0  0
  -22.7402  -29.4641   22.4977 C   0  0  0  0  0  0
  -18.0262  -28.1377   22.8483 C   0  0  0  0  0  0
  -24.1486  -36.7317   23.2627 C   0  0  0  0  0  0
  -25.9194  -30.8499   21.3510 C   0  0  0  0  0  0
  -26.0026  -29.4864   20.6987 C   0  0  0  0  0  0
  -27.1998  -28.7431   20.7050 C   0  0  0  0  0  0
  -26.0821  -26.9393   19.5096 C   0  0  0  0  0  0
  -24.8860  -27.6886   19.4966 C   0  0  0  0  0  0
  -23.6046  -29.8167   20.1582 C   0  0  0  0  0  0
  -25.4098  -36.3107   24.0331 C   0  0  1  0  0  0
  -20.5855  -28.3651   23.1328 C   0  0  2  0  0  0
  -20.6753  -26.9387   22.5415 C   0  0  0  0  0  0
  -19.5734  -26.6382   21.5207 C   0  0  0  0  0  0
  -18.1910  -26.7916   22.1623 C   0  0  0  0  0  0
  -19.1515  -28.8833   23.2898 C   0  0  0  0  0  0
  -18.9447  -30.1440   23.8910 C   0  0  0  0  0  0
  -17.6453  -30.6581   24.0565 C   0  0  0  0  0  0
  -25.9030  -34.9476   23.5125 C   0  0  0  0  0  0
  -16.5343  -29.9086   23.6327 C   0  0  0  0  0  0
  -16.7256  -28.6508   23.0339 C   0  0  0  0  0  0
  -26.4459  -31.6600   25.0697 C   0  0  0  0  0  0
  -25.3759  -31.3708   26.1483 C   0  0  0  0  0  0
  -27.0269  -30.3049   24.6024 C   0  0  0  0  0  0
  -27.6048  -32.4309   25.7448 C   0  0  0  0  0  0
  -27.5592  -37.1771   24.8436 C   0  0  0  0  0  0
  -21.4129  -29.3015   22.3736 N   0  0  0  0  0  0
  -26.4269  -37.3802   23.9437 N   0  0  0  0  0  0
  -24.6604  -31.0825   22.0948 N   0  0  0  0  0  0
  -23.4189  -28.8185   23.3017 O   0  0  0  0  0  0
  -28.3737  -26.7074   20.2976 O   0  0  0  0  0  0
  -26.5597  -34.8934   22.4687 O   0  0  0  0  0  0
  -23.5311  -32.1406   23.7514 O   0  0  0  0  0  0
  -28.7749  -17.2664   17.6954 C   0  0  0  0  0  0
  -28.8211  -18.6220   18.0557 C   0  0  0  0  0  0
  -29.1566  -16.2786   18.6201 C   0  0  0  0  0  0
  -29.5873  -17.9939   20.2934 C   0  0  0  0  0  0
  -29.2379  -19.0028   19.3505 C   0  0  0  0  0  0
  -29.5679  -16.6172   19.9304 C   0  0  0  0  0  0
  -29.4028  -20.4450   19.6291 C   0  0  0  0  0  0
  -29.1164  -23.7483   19.8906 C   0  0  0  0  0  0
  -27.3810  -24.1016   15.3045 C   0  0  0  0  0  0
  -29.6740  -24.4661   16.1545 C   0  0  0  0  0  0
  -28.8560  -22.1211   15.6757 C   0  0  0  0  0  0
  -29.8376  -27.2683   18.6355 C   0  0  0  0  0  0
  -29.8150  -25.0926   19.5946 C   0  0  0  0  0  0
  -27.9082  -23.3585   17.6606 C   0  0  0  0  0  0
  -28.9161  -22.7814   18.7018 C   0  0  2  0  0  0
  -28.4676  -23.5076   16.2180 C   0  0  0  0  0  0
  -29.9590  -15.5924   20.8606 N   0  0  0  0  0  0
  -28.5897  -21.3684   19.0705 N   0  0  0  0  0  0
  -28.9693  -26.1907   19.1015 N   0  0  0  0  0  0
  -30.4321  -20.8585   20.3671 N   0  3  0  0  0  0
  -28.7943  -23.4527   21.0450 O   0  0  0  0  0  0
  -31.4702  -12.3947   19.1458 H   0  0  0  0  0  0
  -30.3311  -11.3123   19.8916 H   0  0  0  0  0  0
  -29.7314  -11.6264   17.5020 H   0  0  0  0  0  0
  -29.7095  -13.3486   17.6733 H   0  0  0  0  0  0
  -27.8113  -11.2852   18.8410 H   0  0  0  0  0  0
  -27.3715  -12.6014   17.7842 H   0  0  0  0  0  0
  -27.6646  -14.2349   19.5411 H   0  0  0  0  0  0
  -28.6815  -12.0224   21.3880 H   0  0  0  0  0  0
  -28.4675  -13.6954   21.8266 H   0  0  0  0  0  0
  -25.2763   -9.5680   22.4745 H   0  0  0  0  0  0
  -24.0014   -7.4606   22.7447 H   0  0  0  0  0  0
  -21.0819   -8.8756   19.8938 H   0  0  0  0  0  0
  -22.3686  -10.9662   19.6146 H   0  0  0  0  0  0
  -21.2027   -7.6154   23.9723 H   0  0  0  0  0  0
  -21.1456   -6.0517   25.9070 H   0  0  0  0  0  0
  -22.0613   -2.7615   23.2824 H   0  0  0  0  0  0
  -22.4075  -11.9927   22.4812 H   0  0  0  0  0  0
  -21.1089  -13.1288   22.2598 H   0  0  0  0  0  0
  -24.6897  -15.8585   20.5359 H   0  0  0  0  0  0
  -26.3150  -15.6165   20.1417 H   0  0  0  0  0  0
  -26.7079  -32.5560   23.1162 H   0  0  0  0  0  0
  -25.0034  -33.9785   25.0470 H   0  0  0  0  0  0
  -22.6830  -31.3008   21.4073 H   0  0  0  0  0  0
  -23.3757  -35.9635   23.3235 H   0  0  0  0  0  0
  -24.3604  -36.8989   22.2051 H   0  0  0  0  0  0
  -23.7222  -37.6498   23.6681 H   0  0  0  0  0  0
  -26.0187  -31.6150   20.5801 H   0  0  0  0  0  0
  -26.8112  -30.9121   21.9621 H   0  0  0  0  0  0
  -28.0844  -29.1298   21.1922 H   0  0  0  0  0  0
  -26.0972  -25.9481   19.0817 H   0  0  0  0  0  0
  -23.9989  -27.2754   19.0381 H   0  0  0  0  0  0
  -23.7012  -30.5902   19.3953 H   0  0  0  0  0  0
  -22.7327  -29.2259   19.8711 H   0  0  0  0  0  0
  -25.1257  -36.1945   25.0819 H   0  0  0  0  0  0
  -20.9939  -28.3204   24.1454 H   0  0  0  0  0  0
  -20.5658  -26.2246   23.3589 H   0  0  0  0  0  0
  -21.6625  -26.7426   22.1214 H   0  0  0  0  0  0
  -19.6890  -25.6298   21.1223 H   0  0  0  0  0  0
  -19.6674  -27.3207   20.6745 H   0  0  0  0  0  0
  -17.4170  -26.6642   21.4035 H   0  0  0  0  0  0
  -18.0324  -26.0069   22.9038 H   0  0  0  0  0  0
  -19.7929  -30.7243   24.2289 H   0  0  0  0  0  0
  -17.5014  -31.6269   24.5151 H   0  0  0  0  0  0
  -15.5345  -30.2995   23.7649 H   0  0  0  0  0  0
  -15.8649  -28.0836   22.7049 H   0  0  0  0  0  0
  -24.5876  -30.7111   25.7828 H   0  0  0  0  0  0
  -24.9036  -32.2891   26.4993 H   0  0  0  0  0  0
  -25.8149  -30.8821   27.0191 H   0  0  0  0  0  0
  -26.2776  -29.6816   24.1130 H   0  0  0  0  0  0
  -27.4120  -29.7267   25.4429 H   0  0  0  0  0  0
  -27.8575  -30.4375   23.9083 H   0  0  0  0  0  0
  -27.2665  -33.3589   26.2072 H   0  0  0  0  0  0
  -28.3833  -32.6909   25.0258 H   0  0  0  0  0  0
  -28.0747  -31.8415   26.5329 H   0  0  0  0  0  0
  -28.2514  -38.0160   24.7642 H   0  0  0  0  0  0
  -28.1186  -36.2713   24.6053 H   0  0  0  0  0  0
  -27.2348  -37.1163   25.8838 H   0  0  0  0  0  0
  -20.9269  -29.8751   21.6978 H   0  0  0  0  0  0
  -26.0148  -38.2847   24.1558 H   0  0  0  0  0  0
  -28.4676  -16.9794   16.6989 H   0  0  0  0  0  0
  -28.5655  -19.3653   17.3114 H   0  0  0  0  0  0
  -29.1271  -15.2559   18.2963 H   0  0  0  0  0  0
  -29.9121  -18.2857   21.2821 H   0  0  0  0  0  0
  -27.7503  -24.2318   14.2861 H   0  0  0  0  0  0
  -27.0510  -25.0831   15.6505 H   0  0  0  0  0  0
  -26.5021  -23.4602   15.2504 H   0  0  0  0  0  0
  -30.0257  -24.6000   15.1305 H   0  0  0  0  0  0
  -30.5284  -24.1232   16.7352 H   0  0  0  0  0  0
  -29.3983  -25.4567   16.5125 H   0  0  0  0  0  0
  -29.2980  -22.1856   14.6813 H   0  0  0  0  0  0
  -27.9800  -21.4755   15.6064 H   0  0  0  0  0  0
  -29.5783  -21.6145   16.3144 H   0  0  0  0  0  0
  -30.4901  -26.9383   17.8272 H   0  0  0  0  0  0
  -30.4716  -27.6549   19.4357 H   0  0  0  0  0  0
  -29.2431  -28.0952   18.2467 H   0  0  0  0  0  0
  -30.5812  -24.8790   18.8506 H   0  0  0  0  0  0
  -30.3581  -25.4142   20.4835 H   0  0  0  0  0  0
  -27.5131  -24.3215   17.9884 H   0  0  0  0  0  0
  -27.0204  -22.7272   17.6238 H   0  0  0  0  0  0
  -29.8894  -22.7102   18.2171 H   0  0  0  0  0  0
  -30.1528  -15.9130   21.7976 H   0  0  0  0  0  0
  -27.6750  -21.0301   18.8051 H   0  0  0  0  0  0
  -31.1271  -20.1925   20.6669 H   0  0  0  0  0  0
  -30.3642  -21.7392   20.8500 H   0  0  0  0  0  0
  1 25  1  0  0  0
  1 30  2  0  0  0
  1 87  1  0  0  0
  2  3  1  0  0  0
  2 25  1  0  0  0
  2 92  1  0  0  0
  2 93  1  0  0  0
  3  4  1  0  0  0
  3 94  1  0  0  0
  3 95  1  0  0  0
  4  5  1  0  0  0
  4 96  1  0  0  0
  4 97  1  0  0  0
  5  6  1  0  0  0
  5 26  1  0  0  0
  5 98  1  0  0  0
  6 25  1  0  0  0
  6 99  1  0  0  0
  6100  1  0  0  0
  7  8  2  0  0  0
  7 26  1  0  0  0
  7 29  1  0  0  0
  8  9  1  0  0  0
  8 22  1  0  0  0
  9 10  1  0  0  0
  9 27  2  0  0  0
 10 11  2  0  0  0
 10 15  1  0  0  0
 11 12  1  0  0  0
 11101  1  0  0  0
 12 13  2  0  0  0
 12102  1  0  0  0
 13 14  1  0  0  0
 13 31  1  0  0  0
 14 15  2  0  0  0
 14103  1  0  0  0
 15104  1  0  0  0
 16 17  2  0  0  0
 16 21  1  0  0  0
 16 31  1  0  0  0
 17 18  1  0  0  0
 17105  1  0  0  0
 18 19  2  0  0  0
 18106  1  0  0  0
 19 20  1  0  0  0
 19 24  1  0  0  0
 20 21  2  0  0  0
 20107  1  0  0  0
 21 23  1  0  0  0
 22 28  1  0  0  0
 22 32  2  0  0  0
 26 27  1  0  0  0
 28108  1  0  0  0
 28109  1  0  0  0
 29110  1  0  0  0
 29111  1  0  0  0
 33 34  1  0  0  0
 33 66  1  0  0  0
 33 70  2  0  0  0
 34 36  1  0  0  0
 34 59  1  0  0  0
 34112  1  0  0  0
 35 44  2  0  0  0
 35 45  1  0  0  0
 35 68  1  0  0  0
 36 56  1  0  0  0
 36113  1  0  0  0
 37 39  1  0  0  0
 37 47  1  0  0  0
 37 66  1  0  0  0
 37114  1  0  0  0
 38 43  2  0  0  0
 38 46  1  0  0  0
 38 47  1  0  0  0
 39 64  1  0  0  0
 39 67  2  0  0  0
 40 52  1  0  0  0
 40 53  2  0  0  0
 40 58  1  0  0  0
 41115  1  0  0  0
 41116  1  0  0  0
 41117  1  0  0  0
 41 48  1  0  0  0
 42 43  1  0  0  0
 42 66  1  0  0  0
 42118  1  0  0  0
 42119  1  0  0  0
 43 44  1  0  0  0
 44120  1  0  0  0
 45 46  2  0  0  0
 45121  1  0  0  0
 46122  1  0  0  0
 47123  1  0  0  0
 47124  1  0  0  0
 48 56  1  0  0  0
 48 65  1  0  0  0
 48125  1  0  0  0
 49 50  1  0  0  0
 49 53  1  0  0  0
 49 64  1  0  0  0
 49126  1  0  0  0
 50 51  1  0  0  0
 50127  1  0  0  0
 50128  1  0  0  0
 51 52  1  0  0  0
 51129  1  0  0  0
 51130  1  0  0  0
 52131  1  0  0  0
 52132  1  0  0  0
 53 54  1  0  0  0
 54 55  2  0  0  0
 54133  1  0  0  0
 55 57  1  0  0  0
 55134  1  0  0  0
 56 69  2  0  0  0
 57 58  2  0  0  0
 57135  1  0  0  0
 58136  1  0  0  0
 59 60  1  0  0  0
 59 61  1  0  0  0
 59 62  1  0  0  0
 60137  1  0  0  0
 60138  1  0  0  0
 60139  1  0  0  0
 61140  1  0  0  0
 61141  1  0  0  0
 61142  1  0  0  0
 62143  1  0  0  0
 62144  1  0  0  0
 62145  1  0  0  0
 63 65  1  0  0  0
 63146  1  0  0  0
 63147  1  0  0  0
 63148  1  0  0  0
 64149  1  0  0  0
 65150  1  0  0  0
 68 89  1  0  0  0
 71 72  2  0  0  0
 71 73  1  0  0  0
 71151  1  0  0  0
 72 75  1  0  0  0
 72152  1  0  0  0
 73 76  2  0  0  0
 73153  1  0  0  0
 74 75  2  0  0  0
 74 76  1  0  0  0
 74154  1  0  0  0
 75 77  1  0  0  0
 76 87  1  0  0  0
 77 88  1  0  0  0
 77 90  2  0  0  0
 78 83  1  0  0  0
 78 85  1  0  0  0
 78 91  2  0  0  0
 79155  1  0  0  0
 79156  1  0  0  0
 79157  1  0  0  0
 79 86  1  0  0  0
 80 86  1  0  0  0
 80158  1  0  0  0
 80159  1  0  0  0
 80160  1  0  0  0
 81 86  1  0  0  0
 81161  1  0  0  0
 81162  1  0  0  0
 81163  1  0  0  0
 82 89  1  0  0  0
 82164  1  0  0  0
 82165  1  0  0  0
 82166  1  0  0  0
 83 89  1  0  0  0
 83167  1  0  0  0
 83168  1  0  0  0
 84 86  1  0  0  0
 84169  1  0  0  0
 84170  1  0  0  0
 84 85  1  0  0  0
 85 88  1  0  0  0
 85171  1  0  0  0
 87172  1  0  0  0
 88173  1  0  0  0
 90174  1  0  0  0
 90175  1  0  0  0
M  CHG  1  90   1
M  ISO  4   1 100  68 101  87 100  89 101
M  END
> <chiral flag>
0

> <version>
0

> <s_m_source_file>
/data/baiqing/PycharmProjects/Reinvent-master-3.2/result/LINK_invent/BTK/process_docking_weight1_custom_product_contain_oxygen_bond_distance_aromatic_linkinvent_7_9_3/rearranged_h_0167.sdf

> <i_m_source_file_index>
89

> <r_mmod_Potential_Energy-OPLS-2005>
-174.37043762207

> <r_mmod_Stretch_Energy-OPLS-2005>
41.7709541320801

> <r_mmod_Bend_Energy-OPLS-2005>
113.120132446289

> <r_mmod_Torsional_Energy-OPLS-2005>
316.844360351562

> <r_mmod_Improper_Torsional_Energy-OPLS-2005>
9.81073093414307

> <r_mmod_Van_der_Waal_Energy-OPLS-2005>
147.856536865234

> <r_mmod_Electrostatic_Energy-OPLS-2005>
-396.852325439453

> <r_mmod_Solvation_Energy-OPLS-2005>
-432.038391113281

> <b_mmod_Minimization_Converged-OPLS-2005>
0

> <r_mmod_RMS_Derivative-OPLS-2005>
3.32044053077698

$$$$
91
                    3D
 Structure written by MMmdl.
155163  0  0  1  0            999 V2000
  -30.2383  -14.4741   19.4163 C   0  0  0  0  0  0
  -30.7883  -12.1991   19.4588 C   0  0  0  0  0  0
  -29.7307  -11.8258   18.4434 C   0  0  0  0  0  0
  -28.4308  -11.7851   19.2609 C   0  0  0  0  0  0
  -28.1598  -12.9736   20.4545 C   0  0  2  0  0  0
  -29.3481  -13.0995   21.2550 C   0  0  0  0  0  0
  -25.9653  -14.1616   20.8771 C   0  0  0  0  0  0
  -24.2054  -13.6346   20.6469 C   0  0  0  0  0  0
  -23.9805  -12.3752   20.3193 C   0  0  0  0  0  0
  -23.6338  -10.8464   20.8457 C   0  0  0  0  0  0
  -24.2071   -9.8441   21.7605 C   0  0  0  0  0  0
  -23.6330   -8.5409   22.0003 C   0  0  0  0  0  0
  -22.4500   -8.1509   21.3283 C   0  0  0  0  0  0
  -21.9294   -9.0697   20.4065 C   0  0  0  0  0  0
  -22.5041  -10.3390   20.1777 C   0  0  0  0  0  0
  -21.7579   -6.1191   22.5231 C   0  0  0  0  0  0
  -21.4539   -6.5990   23.8155 C   0  0  0  0  0  0
  -21.3835   -5.7068   24.9073 C   0  0  0  0  0  0
  -21.6017   -4.3287   24.7135 C   0  0  0  0  0  0
  -21.8729   -3.8403   23.4243 C   0  0  0  0  0  0
  -21.9418   -4.7294   22.3348 C   0  0  0  0  0  0
  -22.6681  -14.0045   21.0822 C   0  0  0  0  0  0
  -22.1752   -4.2356   21.0936 F   0  0  0  0  0  0
  -21.5493   -3.4735   25.7630 F   0  0  0  0  0  0
  -30.2859  -13.3569   20.1744 N   0  0  0  0  0  0
  -26.8617  -13.6491   21.0359 N   0  0  0  0  0  0
  -24.9998  -13.5101   20.6078 N   0  0  0  0  0  0
  -22.0515  -13.2118   21.9867 N   0  0  0  0  0  0
  -26.9279  -15.2612   21.1732 N   0  0  0  0  0  0
  -31.2643  -15.1601   19.5409 O   0  0  0  0  0  0
  -21.7818   -6.9371   21.4142 O   0  0  0  0  0  0
  -22.0762  -14.9131   20.5395 O   0  0  0  0  0  0
  -24.6957  -31.7792   23.1532 C   0  0  0  0  0  0
  -25.9507  -32.4307   23.8038 C   0  0  1  0  0  0
  -26.6411  -26.3032   20.3441 C   0  0  0  0  0  0
  -25.6055  -33.8171   24.1884 N   0  0  0  0  0  0
  -23.5061  -30.4133   21.5175 C   0  0  2  0  0  0
  -24.8729  -28.7341   20.0754 C   0  0  0  0  0  0
  -22.7704  -29.4259   22.4656 C   0  0  0  0  0  0
  -18.0341  -28.1418   22.8481 C   0  0  0  0  0  0
  -24.1524  -36.7090   23.2650 C   0  0  0  0  0  0
  -26.0834  -30.3660   21.4783 C   0  0  0  0  0  0
  -26.0363  -28.9097   20.8250 C   0  0  0  0  0  0
  -26.9344  -27.7015   20.9390 C   0  0  0  0  0  0
  -25.6272  -26.4687   19.3978 C   0  0  0  0  0  0
  -24.7450  -27.5698   19.3137 C   0  0  0  0  0  0
  -23.7455  -29.7677   20.1243 C   0  0  0  0  0  0
  -25.4176  -36.2815   24.0268 C   0  0  1  0  0  0
  -20.5960  -28.3764   23.1148 C   0  0  2  0  0  0
  -20.6799  -26.9429   22.5407 C   0  0  0  0  0  0
  -19.5764  -26.6366   21.5232 C   0  0  0  0  0  0
  -18.1955  -26.7952   22.1640 C   0  0  0  0  0  0
  -19.1604  -28.8919   23.2806 C   0  0  0  0  0  0
  -18.9508  -30.1516   23.8826 C   0  0  0  0  0  0
  -17.6490  -30.6594   24.0558 C   0  0  0  0  0  0
  -25.9166  -34.9191   23.4916 C   0  0  0  0  0  0
  -16.5384  -29.9071   23.6355 C   0  0  0  0  0  0
  -16.7324  -28.6503   23.0367 C   0  0  0  0  0  0
  -26.4625  -31.6465   25.0764 C   0  0  0  0  0  0
  -25.3634  -31.3845   26.1341 C   0  0  0  0  0  0
  -27.0564  -30.2753   24.6922 C   0  0  0  0  0  0
  -27.6067  -32.4389   25.7527 C   0  0  0  0  0  0
  -27.5576  -37.1705   24.8457 C   0  0  0  0  0  0
  -21.4356  -29.2987   22.3410 N   0  0  0  0  0  0
  -26.4277  -37.3613   23.9398 N   0  0  0  0  0  0
  -24.7948  -30.8968   22.0981 N   0  0  0  0  0  0
  -23.4120  -28.7794   23.2981 O   0  0  0  0  0  0
  -27.0407  -24.7698   20.5713 O   0  0  0  0  0  0
  -26.5822  -34.8790   22.4546 O   0  0  0  0  0  0
  -23.5964  -32.1083   23.6348 O   0  0  0  0  0  0
  -25.4936  -12.4949   22.5024 C   0  0  0  0  0  0
  -26.1564  -11.6508   20.4404 C   0  0  0  0  0  0
  -24.8210  -14.6304   22.7088 C   0  0  0  0  0  0
  -26.1900  -13.3077   18.7450 C   0  0  0  0  0  0
  -25.2931  -15.2489   19.0542 C   0  0  0  0  0  0
  -24.7209  -16.0569   20.9575 C   0  0  0  0  0  0
  -25.4121  -19.2404   20.6227 C   0  0  0  0  0  0
  -26.0267  -21.1951   21.0014 C   0  0  0  0  0  0
  -27.6496  -13.9086   17.9130 C   0  0  0  0  0  0
  -26.1919  -23.0754   20.2936 C   0  0  0  0  0  0
  -25.3071  -16.2344   17.9055 C   0  0  0  0  0  0
  -25.0723  -17.8008   21.1863 N   0  0  0  0  0  0
  -29.1365  -14.6159   18.4155 N   0  0  0  0  0  0
  -26.4536  -21.2294   22.1615 O   0  0  0  0  0  0
  -26.4010  -16.9945   17.9550 F   0  0  0  0  0  0
  -25.2623  -15.5993   16.7340 F   0  0  0  0  0  0
  -24.2356  -17.0216   17.9808 F   0  0  0  0  0  0
  -31.7359  -12.4134   18.9642 H   0  0  0  0  0  0
  -30.9808  -11.3760   20.1476 H   0  0  0  0  0  0
  -29.9393  -10.8244   18.0606 H   0  0  0  0  0  0
  -29.7581  -12.4369   17.5461 H   0  0  0  0  0  0
  -28.5735  -10.8717   19.8415 H   0  0  0  0  0  0
  -27.6565  -11.4696   18.5613 H   0  0  0  0  0  0
  -28.1362  -13.8615   20.0695 H   0  0  0  0  0  0
  -29.5746  -12.1892   21.8083 H   0  0  0  0  0  0
  -29.3158  -13.9360   21.9544 H   0  0  0  0  0  0
  -25.1156  -10.0427   22.3027 H   0  0  0  0  0  0
  -24.1096   -7.8611   22.6920 H   0  0  0  0  0  0
  -21.0446   -8.7986   19.8492 H   0  0  0  0  0  0
  -22.0154  -10.9750   19.4504 H   0  0  0  0  0  0
  -21.2756   -7.6524   23.9688 H   0  0  0  0  0  0
  -21.1654   -6.0833   25.8956 H   0  0  0  0  0  0
  -22.0267   -2.7832   23.2686 H   0  0  0  0  0  0
  -22.5524  -12.4590   22.4321 H   0  0  0  0  0  0
  -21.1006  -13.4007   22.2638 H   0  0  0  0  0  0
  -26.4953  -16.1429   21.4304 H   0  0  0  0  0  0
  -27.7278  -15.0474   21.7494 H   0  0  0  0  0  0
  -26.7517  -32.4608   23.0651 H   0  0  0  0  0  0
  -25.0115  -33.9224   24.9980 H   0  0  0  0  0  0
  -22.8463  -31.2683   21.3591 H   0  0  0  0  0  0
  -23.3828  -35.9379   23.3218 H   0  0  0  0  0  0
  -24.3597  -36.8856   22.2082 H   0  0  0  0  0  0
  -23.7237  -37.6213   23.6806 H   0  0  0  0  0  0
  -26.3435  -31.0617   20.6800 H   0  0  0  0  0  0
  -26.9283  -30.4012   22.1513 H   0  0  0  0  0  0
  -27.7656  -27.7679   21.6269 H   0  0  0  0  0  0
  -25.3477  -25.6038   18.8118 H   0  0  0  0  0  0
  -23.8839  -27.4727   18.6653 H   0  0  0  0  0  0
  -23.9871  -30.5510   19.4064 H   0  0  0  0  0  0
  -22.8233  -29.3121   19.7621 H   0  0  0  0  0  0
  -25.1397  -36.1569   25.0764 H   0  0  0  0  0  0
  -21.0075  -28.3403   24.1266 H   0  0  0  0  0  0
  -20.5692  -26.2386   23.3670 H   0  0  0  0  0  0
  -21.6659  -26.7382   22.1208 H   0  0  0  0  0  0
  -19.6904  -25.6258   21.1310 H   0  0  0  0  0  0
  -19.6698  -27.3138   20.6732 H   0  0  0  0  0  0
  -17.4228  -26.6734   21.4036 H   0  0  0  0  0  0
  -18.0315  -26.0104   22.9040 H   0  0  0  0  0  0
  -19.7983  -30.7375   24.2130 H   0  0  0  0  0  0
  -17.5033  -31.6262   24.5179 H   0  0  0  0  0  0
  -15.5378  -30.2928   23.7718 H   0  0  0  0  0  0
  -15.8747  -28.0783   22.7097 H   0  0  0  0  0  0
  -24.5890  -30.7127   25.7629 H   0  0  0  0  0  0
  -24.8728  -32.3058   26.4478 H   0  0  0  0  0  0
  -25.7739  -30.9185   27.0310 H   0  0  0  0  0  0
  -26.3251  -29.6245   24.2121 H   0  0  0  0  0  0
  -27.4007  -29.7397   25.5782 H   0  0  0  0  0  0
  -27.9278  -30.3760   24.0457 H   0  0  0  0  0  0
  -27.2644  -33.3827   26.1789 H   0  0  0  0  0  0
  -28.3995  -32.6729   25.0411 H   0  0  0  0  0  0
  -28.0627  -31.8751   26.5678 H   0  0  0  0  0  0
  -28.2525  -38.0069   24.7552 H   0  0  0  0  0  0
  -28.1153  -36.2582   24.6254 H   0  0  0  0  0  0
  -27.2280  -37.1286   25.8858 H   0  0  0  0  0  0
  -20.9624  -29.8682   21.6535 H   0  0  0  0  0  0
  -26.0086  -38.2651   24.1443 H   0  0  0  0  0  0
  -25.5573  -11.8812   23.3897 H   0  0  0  0  0  0
  -26.5464  -10.6483   20.3600 H   0  0  0  0  0  0
  -24.6489  -15.0102   23.7031 H   0  0  0  0  0  0
  -25.2976  -19.2144   19.5364 H   0  0  0  0  0  0
  -27.2908  -14.7267   17.3065 H   0  0  0  0  0  0
  -27.8509  -13.1958   17.1167 H   0  0  0  0  0  0
  -25.1518  -23.3843   20.3843 H   0  0  0  0  0  0
  -26.3150  -22.9135   19.2232 H   0  0  0  0  0  0
  -29.3274  -15.4354   17.8576 H   0  0  0  0  0  0
  1 25  1  0  0  0
  1 30  2  0  0  0
  1 83  1  0  0  0
  2  3  1  0  0  0
  2 25  1  0  0  0
  2 88  1  0  0  0
  2 89  1  0  0  0
  3  4  1  0  0  0
  3 90  1  0  0  0
  3 91  1  0  0  0
  4  5  1  0  0  0
  4 92  1  0  0  0
  4 93  1  0  0  0
  5  6  1  0  0  0
  5 26  1  0  0  0
  5 94  1  0  0  0
  6 25  1  0  0  0
  6 95  1  0  0  0
  6 96  1  0  0  0
  7  8  2  0  0  0
  7 26  1  0  0  0
  7 29  1  0  0  0
  8  9  1  0  0  0
  8 22  1  0  0  0
  9 10  1  0  0  0
  9 27  2  0  0  0
 10 11  2  0  0  0
 10 15  1  0  0  0
 11 12  1  0  0  0
 11 97  1  0  0  0
 12 13  2  0  0  0
 12 98  1  0  0  0
 13 14  1  0  0  0
 13 31  1  0  0  0
 14 15  2  0  0  0
 14 99  1  0  0  0
 15100  1  0  0  0
 16 17  2  0  0  0
 16 21  1  0  0  0
 16 31  1  0  0  0
 17 18  1  0  0  0
 17101  1  0  0  0
 18 19  2  0  0  0
 18102  1  0  0  0
 19 20  1  0  0  0
 19 24  1  0  0  0
 20 21  2  0  0  0
 20103  1  0  0  0
 21 23  1  0  0  0
 22 28  1  0  0  0
 22 32  2  0  0  0
 26 27  1  0  0  0
 28104  1  0  0  0
 28105  1  0  0  0
 29106  1  0  0  0
 29107  1  0  0  0
 33 34  1  0  0  0
 33 66  1  0  0  0
 33 70  2  0  0  0
 34 36  1  0  0  0
 34 59  1  0  0  0
 34108  1  0  0  0
 35 44  2  0  0  0
 35 45  1  0  0  0
 35 68  1  0  0  0
 36 56  1  0  0  0
 36109  1  0  0  0
 37 39  1  0  0  0
 37 47  1  0  0  0
 37 66  1  0  0  0
 37110  1  0  0  0
 38 43  2  0  0  0
 38 46  1  0  0  0
 38 47  1  0  0  0
 39 64  1  0  0  0
 39 67  2  0  0  0
 40 52  1  0  0  0
 40 53  2  0  0  0
 40 58  1  0  0  0
 41111  1  0  0  0
 41112  1  0  0  0
 41113  1  0  0  0
 41 48  1  0  0  0
 42 43  1  0  0  0
 42 66  1  0  0  0
 42114  1  0  0  0
 42115  1  0  0  0
 43 44  1  0  0  0
 44116  1  0  0  0
 45 46  2  0  0  0
 45117  1  0  0  0
 46118  1  0  0  0
 47119  1  0  0  0
 47120  1  0  0  0
 48 56  1  0  0  0
 48 65  1  0  0  0
 48121  1  0  0  0
 49 50  1  0  0  0
 49 53  1  0  0  0
 49 64  1  0  0  0
 49122  1  0  0  0
 50 51  1  0  0  0
 50123  1  0  0  0
 50124  1  0  0  0
 51 52  1  0  0  0
 51125  1  0  0  0
 51126  1  0  0  0
 52127  1  0  0  0
 52128  1  0  0  0
 53 54  1  0  0  0
 54 55  2  0  0  0
 54129  1  0  0  0
 55 57  1  0  0  0
 55130  1  0  0  0
 56 69  2  0  0  0
 57 58  2  0  0  0
 57131  1  0  0  0
 58132  1  0  0  0
 59 60  1  0  0  0
 59 61  1  0  0  0
 59 62  1  0  0  0
 60133  1  0  0  0
 60134  1  0  0  0
 60135  1  0  0  0
 61136  1  0  0  0
 61137  1  0  0  0
 61138  1  0  0  0
 62139  1  0  0  0
 62140  1  0  0  0
 62141  1  0  0  0
 63 65  1  0  0  0
 63142  1  0  0  0
 63143  1  0  0  0
 63144  1  0  0  0
 64145  1  0  0  0
 65146  1  0  0  0
 68 80  1  0  0  0
 71 72  2  0  0  0
 71 73  1  0  0  0
 71147  1  0  0  0
 72 74  1  0  0  0
 72148  1  0  0  0
 73 76  2  0  0  0
 73149  1  0  0  0
 74 75  2  0  0  0
 74 79  1  0  0  0
 75 76  1  0  0  0
 75 81  1  0  0  0
 76 82  1  0  0  0
 77 78  1  0  0  0
 77 82  2  0  0  0
 77150  1  0  0  0
 78 80  1  0  0  0
 78 84  2  0  0  0
 79 83  1  0  0  0
 79151  1  0  0  0
 79152  1  0  0  0
 80153  1  0  0  0
 80154  1  0  0  0
 81 85  1  0  0  0
 81 86  1  0  0  0
 81 87  1  0  0  0
 83155  1  0  0  0
M  ISO  4   1 100  68 101  80 101  83 100
M  END
> <chiral flag>
0

> <version>
0

> <s_m_source_file>
/data/baiqing/PycharmProjects/Reinvent-master-3.2/result/LINK_invent/BTK/process_docking_weight1_custom_product_contain_oxygen_bond_distance_aromatic_linkinvent_7_9_3/rearranged_h_0167.sdf

> <i_m_source_file_index>
90

> <r_mmod_Potential_Energy-OPLS-2005>
22573.869140625

> <r_mmod_Stretch_Energy-OPLS-2005>
12261.1083984375

> <r_mmod_Bend_Energy-OPLS-2005>
2702.19555664062

> <r_mmod_Torsional_Energy-OPLS-2005>
633.9873046875

> <r_mmod_Improper_Torsional_Energy-OPLS-2005>
85.6593704223633

> <r_mmod_Van_der_Waal_Energy-OPLS-2005>
4565.73486328125

> <r_mmod_Electrostatic_Energy-OPLS-2005>
-285.302368164062

> <r_mmod_Solvation_Energy-OPLS-2005>
-248.016952514648

> <b_mmod_Minimization_Converged-OPLS-2005>
0

> <r_mmod_RMS_Derivative-OPLS-2005>
5.982590675354

$$$$
92
                    3D
 Structure written by MMmdl.
156164  0  0  1  0            999 V2000
  -30.6819  -14.5010   20.5647 C   0  0  0  0  0  0
  -30.4288  -12.3188   19.4333 C   0  0  0  0  0  0
  -29.5035  -12.5039   18.2125 C   0  0  0  0  0  0
  -28.0205  -12.3728   18.6151 C   0  0  0  0  0  0
  -27.6604  -13.2092   19.8727 C   0  0  2  0  0  0
  -28.7010  -12.9957   20.9950 C   0  0  0  0  0  0
  -25.2578  -13.8166   20.5665 C   0  0  0  0  0  0
  -24.1839  -13.0446   20.9199 C   0  0  0  0  0  0
  -24.6393  -11.6912   20.8752 C   0  0  0  0  0  0
  -23.9060  -10.4299   21.0415 C   0  0  0  0  0  0
  -24.3618   -9.4217   21.9182 C   0  0  0  0  0  0
  -23.6295   -8.2254   22.0747 C   0  0  0  0  0  0
  -22.4274   -8.0286   21.3546 C   0  0  0  0  0  0
  -21.9912   -9.0259   20.4653 C   0  0  0  0  0  0
  -22.7239  -10.2139   20.3062 C   0  0  0  0  0  0
  -21.6857   -6.0740   22.5282 C   0  0  0  0  0  0
  -21.4022   -6.5640   23.8218 C   0  0  0  0  0  0
  -21.3665   -5.6787   24.9173 C   0  0  0  0  0  0
  -21.6042   -4.3050   24.7223 C   0  0  0  0  0  0
  -21.8811   -3.8148   23.4341 C   0  0  0  0  0  0
  -21.9193   -4.6968   22.3401 C   0  0  0  0  0  0
  -22.7861  -13.5247   21.1853 C   0  0  0  0  0  0
  -22.1653   -4.2155   21.0978 F   0  0  0  0  0  0
  -21.5635   -3.4529   25.7734 F   0  0  0  0  0  0
  -30.0304  -13.3097   20.4448 N   0  0  0  0  0  0
  -26.3012  -12.9338   20.3323 N   0  0  0  0  0  0
  -25.9322  -11.6500   20.5760 N   0  0  0  0  0  0
  -22.0477  -12.8266   22.0411 N   0  0  0  0  0  0
  -25.4266  -15.1888   20.4048 N   0  0  0  0  0  0
  -31.8201  -14.6708   20.1151 O   0  0  0  0  0  0
  -21.6639   -6.8881   21.4241 O   0  0  0  0  0  0
  -22.3554  -14.5536   20.6672 O   0  0  0  0  0  0
  -24.6141  -31.8676   23.2095 C   0  0  0  0  0  0
  -25.9023  -32.4844   23.8367 C   0  0  1  0  0  0
  -27.2298  -27.4388   20.1006 C   0  0  0  0  0  0
  -25.5864  -33.8636   24.2297 N   0  0  0  0  0  0
  -23.4012  -30.4899   21.5508 C   0  0  2  0  0  0
  -24.8483  -28.9541   20.1167 C   0  0  0  0  0  0
  -22.7395  -29.4665   22.5009 C   0  0  0  0  0  0
  -18.0265  -28.1379   22.8485 C   0  0  0  0  0  0
  -24.1486  -36.7323   23.2632 C   0  0  0  0  0  0
  -25.9276  -30.8384   21.3562 C   0  0  0  0  0  0
  -26.0086  -29.4707   20.7079 C   0  0  0  0  0  0
  -27.2074  -28.7211   20.6942 C   0  0  0  0  0  0
  -26.0565  -26.9322   19.5075 C   0  0  0  0  0  0
  -24.8660  -27.6835   19.5133 C   0  0  0  0  0  0
  -23.6092  -29.8193   20.1656 C   0  0  0  0  0  0
  -25.4100  -36.3120   24.0338 C   0  0  1  0  0  0
  -20.5847  -28.3658   23.1335 C   0  0  2  0  0  0
  -20.6748  -26.9395   22.5427 C   0  0  0  0  0  0
  -19.5737  -26.6383   21.5210 C   0  0  0  0  0  0
  -18.1914  -26.7923   22.1623 C   0  0  0  0  0  0
  -19.1510  -28.8828   23.2908 C   0  0  0  0  0  0
  -18.9450  -30.1429   23.8926 C   0  0  0  0  0  0
  -17.6457  -30.6590   24.0558 C   0  0  0  0  0  0
  -25.9022  -34.9494   23.5117 C   0  0  0  0  0  0
  -16.5344  -29.9108   23.6314 C   0  0  0  0  0  0
  -16.7247  -28.6518   23.0338 C   0  0  0  0  0  0
  -26.4496  -31.6645   25.0680 C   0  0  0  0  0  0
  -25.3801  -31.3741   26.1464 C   0  0  0  0  0  0
  -27.0358  -30.3124   24.6001 C   0  0  0  0  0  0
  -27.6080  -32.4397   25.7402 C   0  0  0  0  0  0
  -27.5580  -37.1810   24.8452 C   0  0  0  0  0  0
  -21.4119  -29.3039   22.3754 N   0  0  0  0  0  0
  -26.4286  -37.3807   23.9412 N   0  0  0  0  0  0
  -24.6669  -31.0788   22.0986 N   0  0  0  0  0  0
  -23.4174  -28.8211   23.3052 O   0  0  0  0  0  0
  -28.3733  -26.6769   20.0874 O   0  0  0  0  0  0
  -26.5622  -34.8952   22.4699 O   0  0  0  0  0  0
  -23.5337  -32.1418   23.7497 O   0  0  0  0  0  0
  -29.0658  -17.7669   21.3143 C   0  0  0  0  0  0
  -30.4077  -19.6539   21.3863 C   0  0  0  0  0  0
  -30.1869  -16.9152   21.1132 C   0  0  0  0  0  0
  -31.5397  -18.8127   21.1542 C   0  0  0  0  0  0
  -28.5979  -24.2283   20.4620 C   0  0  0  0  0  0
  -29.8002  -23.4016   21.0133 C   0  0  0  0  0  0
  -30.4409  -21.2821   23.3071 C   0  0  0  0  0  0
  -28.3837  -25.6297   21.0787 C   0  0  0  0  0  0
  -30.5387  -21.1431   21.7738 C   0  0  2  0  0  0
  -29.1632  -19.1174   21.4442 N   0  0  0  0  0  0
  -31.4237  -17.4719   21.0151 N   0  0  0  0  0  0
  -32.8481  -19.2800   21.0911 N   0  0  0  0  0  0
  -29.9282  -15.5073   21.0612 N   0  0  0  0  0  0
  -29.5824  -22.0717   21.1354 N   0  0  0  0  0  0
  -27.8321  -23.7801   19.5996 O   0  0  0  0  0  0
  -30.8623  -23.9437   21.3342 O   0  0  0  0  0  0
  -31.4740  -12.4228   19.1364 H   0  0  0  0  0  0
  -30.3342  -11.3101   19.8394 H   0  0  0  0  0  0
  -29.7471  -11.7671   17.4460 H   0  0  0  0  0  0
  -29.6787  -13.4822   17.7635 H   0  0  0  0  0  0
  -27.8200  -11.3175   18.8007 H   0  0  0  0  0  0
  -27.3798  -12.6557   17.7789 H   0  0  0  0  0  0
  -27.7000  -14.2570   19.5762 H   0  0  0  0  0  0
  -28.6823  -11.9596   21.3352 H   0  0  0  0  0  0
  -28.4578  -13.5924   21.8750 H   0  0  0  0  0  0
  -25.2767   -9.5695   22.4747 H   0  0  0  0  0  0
  -24.0015   -7.4643   22.7458 H   0  0  0  0  0  0
  -21.0839   -8.8772   19.8959 H   0  0  0  0  0  0
  -22.3690  -10.9672   19.6171 H   0  0  0  0  0  0
  -21.2005   -7.6148   23.9723 H   0  0  0  0  0  0
  -21.1503   -6.0516   25.9076 H   0  0  0  0  0  0
  -22.0584   -2.7611   23.2836 H   0  0  0  0  0  0
  -22.4078  -11.9963   22.4876 H   0  0  0  0  0  0
  -21.1078  -13.1290   22.2555 H   0  0  0  0  0  0
  -24.6469  -15.8313   20.4969 H   0  0  0  0  0  0
  -26.2521  -15.6241   20.0149 H   0  0  0  0  0  0
  -26.7069  -32.5573   23.1109 H   0  0  0  0  0  0
  -24.9946  -33.9802   25.0390 H   0  0  0  0  0  0
  -22.6899  -31.3063   21.4103 H   0  0  0  0  0  0
  -23.3758  -35.9647   23.3296 H   0  0  0  0  0  0
  -24.3585  -36.8935   22.2046 H   0  0  0  0  0  0
  -23.7230  -37.6522   23.6652 H   0  0  0  0  0  0
  -26.0256  -31.5989   20.5806 H   0  0  0  0  0  0
  -26.8208  -30.9030   21.9656 H   0  0  0  0  0  0
  -28.1070  -29.1172   21.1452 H   0  0  0  0  0  0
  -26.0660  -25.9534   19.0501 H   0  0  0  0  0  0
  -23.9738  -27.2771   19.0575 H   0  0  0  0  0  0
  -23.7130  -30.5924   19.4034 H   0  0  0  0  0  0
  -22.7347  -29.2344   19.8741 H   0  0  0  0  0  0
  -25.1278  -36.1978   25.0834 H   0  0  0  0  0  0
  -20.9913  -28.3193   24.1463 H   0  0  0  0  0  0
  -20.5626  -26.2253   23.3601 H   0  0  0  0  0  0
  -21.6630  -26.7430   22.1232 H   0  0  0  0  0  0
  -19.6896  -25.6295   21.1235 H   0  0  0  0  0  0
  -19.6696  -27.3188   20.6737 H   0  0  0  0  0  0
  -17.4184  -26.6643   21.4032 H   0  0  0  0  0  0
  -18.0335  -26.0065   22.9032 H   0  0  0  0  0  0
  -19.7929  -30.7213   24.2328 H   0  0  0  0  0  0
  -17.5032  -31.6273   24.5151 H   0  0  0  0  0  0
  -15.5351  -30.3035   23.7626 H   0  0  0  0  0  0
  -15.8635  -28.0852   22.7056 H   0  0  0  0  0  0
  -24.6011  -30.7007   25.7855 H   0  0  0  0  0  0
  -24.8945  -32.2900   26.4859 H   0  0  0  0  0  0
  -25.8220  -30.9018   27.0248 H   0  0  0  0  0  0
  -26.2903  -29.6887   24.1050 H   0  0  0  0  0  0
  -27.4217  -29.7350   25.4418 H   0  0  0  0  0  0
  -27.8669  -30.4533   23.9090 H   0  0  0  0  0  0
  -27.2679  -33.3651   26.2059 H   0  0  0  0  0  0
  -28.3813  -32.7067   25.0182 H   0  0  0  0  0  0
  -28.0850  -31.8493   26.5238 H   0  0  0  0  0  0
  -28.2593  -38.0107   24.7518 H   0  0  0  0  0  0
  -28.1085  -36.2646   24.6255 H   0  0  0  0  0  0
  -27.2308  -37.1430   25.8855 H   0  0  0  0  0  0
  -20.9264  -29.8782   21.7002 H   0  0  0  0  0  0
  -26.0178  -38.2882   24.1435 H   0  0  0  0  0  0
  -28.0681  -17.3596   21.3921 H   0  0  0  0  0  0
  -31.1774  -20.6482   23.8012 H   0  0  0  0  0  0
  -29.4564  -20.9835   23.6699 H   0  0  0  0  0  0
  -30.6234  -22.3039   23.6389 H   0  0  0  0  0  0
  -29.1741  -25.8406   21.7998 H   0  0  0  0  0  0
  -27.4495  -25.6125   21.6426 H   0  0  0  0  0  0
  -31.5389  -21.4639   21.4783 H   0  0  0  0  0  0
  -33.0348  -20.2670   20.9539 H   0  0  0  0  0  0
  -33.5780  -18.6630   20.7537 H   0  0  0  0  0  0
  -29.0007  -15.2317   21.3422 H   0  0  0  0  0  0
  -28.6959  -21.7003   20.8183 H   0  0  0  0  0  0
  1 25  1  0  0  0
  1 30  2  0  0  0
  1 83  1  0  0  0
  2  3  1  0  0  0
  2 25  1  0  0  0
  2 87  1  0  0  0
  2 88  1  0  0  0
  3  4  1  0  0  0
  3 89  1  0  0  0
  3 90  1  0  0  0
  4  5  1  0  0  0
  4 91  1  0  0  0
  4 92  1  0  0  0
  5  6  1  0  0  0
  5 26  1  0  0  0
  5 93  1  0  0  0
  6 25  1  0  0  0
  6 94  1  0  0  0
  6 95  1  0  0  0
  7  8  2  0  0  0
  7 26  1  0  0  0
  7 29  1  0  0  0
  8  9  1  0  0  0
  8 22  1  0  0  0
  9 10  1  0  0  0
  9 27  2  0  0  0
 10 11  2  0  0  0
 10 15  1  0  0  0
 11 12  1  0  0  0
 11 96  1  0  0  0
 12 13  2  0  0  0
 12 97  1  0  0  0
 13 14  1  0  0  0
 13 31  1  0  0  0
 14 15  2  0  0  0
 14 98  1  0  0  0
 15 99  1  0  0  0
 16 17  2  0  0  0
 16 21  1  0  0  0
 16 31  1  0  0  0
 17 18  1  0  0  0
 17100  1  0  0  0
 18 19  2  0  0  0
 18101  1  0  0  0
 19 20  1  0  0  0
 19 24  1  0  0  0
 20 21  2  0  0  0
 20102  1  0  0  0
 21 23  1  0  0  0
 22 28  1  0  0  0
 22 32  2  0  0  0
 26 27  1  0  0  0
 28103  1  0  0  0
 28104  1  0  0  0
 29105  1  0  0  0
 29106  1  0  0  0
 33 34  1  0  0  0
 33 66  1  0  0  0
 33 70  2  0  0  0
 34 36  1  0  0  0
 34 59  1  0  0  0
 34107  1  0  0  0
 35 44  2  0  0  0
 35 45  1  0  0  0
 35 68  1  0  0  0
 36 56  1  0  0  0
 36108  1  0  0  0
 37 39  1  0  0  0
 37 47  1  0  0  0
 37 66  1  0  0  0
 37109  1  0  0  0
 38 43  2  0  0  0
 38 46  1  0  0  0
 38 47  1  0  0  0
 39 64  1  0  0  0
 39 67  2  0  0  0
 40 52  1  0  0  0
 40 53  2  0  0  0
 40 58  1  0  0  0
 41110  1  0  0  0
 41111  1  0  0  0
 41112  1  0  0  0
 41 48  1  0  0  0
 42 43  1  0  0  0
 42 66  1  0  0  0
 42113  1  0  0  0
 42114  1  0  0  0
 43 44  1  0  0  0
 44115  1  0  0  0
 45 46  2  0  0  0
 45116  1  0  0  0
 46117  1  0  0  0
 47118  1  0  0  0
 47119  1  0  0  0
 48 56  1  0  0  0
 48 65  1  0  0  0
 48120  1  0  0  0
 49 50  1  0  0  0
 49 53  1  0  0  0
 49 64  1  0  0  0
 49121  1  0  0  0
 50 51  1  0  0  0
 50122  1  0  0  0
 50123  1  0  0  0
 51 52  1  0  0  0
 51124  1  0  0  0
 51125  1  0  0  0
 52126  1  0  0  0
 52127  1  0  0  0
 53 54  1  0  0  0
 54 55  2  0  0  0
 54128  1  0  0  0
 55 57  1  0  0  0
 55129  1  0  0  0
 56 69  2  0  0  0
 57 58  2  0  0  0
 57130  1  0  0  0
 58131  1  0  0  0
 59 60  1  0  0  0
 59 61  1  0  0  0
 59 62  1  0  0  0
 60132  1  0  0  0
 60133  1  0  0  0
 60134  1  0  0  0
 61135  1  0  0  0
 61136  1  0  0  0
 61137  1  0  0  0
 62138  1  0  0  0
 62139  1  0  0  0
 62140  1  0  0  0
 63 65  1  0  0  0
 63141  1  0  0  0
 63142  1  0  0  0
 63143  1  0  0  0
 64144  1  0  0  0
 65145  1  0  0  0
 68 78  1  0  0  0
 71 73  2  0  0  0
 71 80  1  0  0  0
 71146  1  0  0  0
 72 74  1  0  0  0
 72 79  1  0  0  0
 72 80  2  0  0  0
 73 81  1  0  0  0
 73 83  1  0  0  0
 74 81  2  0  0  0
 74 82  1  0  0  0
 75 76  1  0  0  0
 75 78  1  0  0  0
 75 85  2  0  0  0
 76 84  1  0  0  0
 76 86  2  0  0  0
 77147  1  0  0  0
 77148  1  0  0  0
 77149  1  0  0  0
 77 79  1  0  0  0
 78150  1  0  0  0
 78151  1  0  0  0
 79 84  1  0  0  0
 79152  1  0  0  0
 82153  1  0  0  0
 82154  1  0  0  0
 83155  1  0  0  0
 84156  1  0  0  0
M  ISO  4   1 100  68 101  78 101  83 100
M  END
> <chiral flag>
0

> <version>
0

> <s_m_source_file>
/data/baiqing/PycharmProjects/Reinvent-master-3.2/result/LINK_invent/BTK/process_docking_weight1_custom_product_contain_oxygen_bond_distance_aromatic_linkinvent_7_9_3/rearranged_h_0167.sdf

> <i_m_source_file_index>
91

> <r_mmod_Potential_Energy-OPLS-2005>
-37.4071922302246

> <r_mmod_Stretch_Energy-OPLS-2005>
43.961669921875

> <r_mmod_Bend_Energy-OPLS-2005>
105.606063842773

> <r_mmod_Torsional_Energy-OPLS-2005>
230.198226928711

> <r_mmod_Improper_Torsional_Energy-OPLS-2005>
6.78747797012329

> <r_mmod_Van_der_Waal_Energy-OPLS-2005>
154.297958374023

> <r_mmod_Electrostatic_Energy-OPLS-2005>
-328.671661376953

> <r_mmod_Solvation_Energy-OPLS-2005>
-263.697021484375

> <b_mmod_Minimization_Converged-OPLS-2005>
0

> <r_mmod_RMS_Derivative-OPLS-2005>
2.23502993583679

$$$$
93
                    3D
 Structure written by MMmdl.
153161  0  0  1  0            999 V2000
  -30.6894  -14.5076   20.5307 C   0  0  0  0  0  0
  -30.4159  -12.3092   19.4423 C   0  0  0  0  0  0
  -29.4953  -12.4856   18.2166 C   0  0  0  0  0  0
  -28.0163  -12.3430   18.6265 C   0  0  0  0  0  0
  -27.6536  -13.2104   19.8608 C   0  0  2  0  0  0
  -28.6958  -13.0482   20.9906 C   0  0  0  0  0  0
  -25.2568  -13.8171   20.5684 C   0  0  0  0  0  0
  -24.1828  -13.0441   20.9178 C   0  0  0  0  0  0
  -24.6390  -11.6909   20.8740 C   0  0  0  0  0  0
  -23.9057  -10.4294   21.0407 C   0  0  0  0  0  0
  -24.3609   -9.4211   21.9191 C   0  0  0  0  0  0
  -23.6283   -8.2245   22.0761 C   0  0  0  0  0  0
  -22.4265   -8.0282   21.3546 C   0  0  0  0  0  0
  -21.9901   -9.0259   20.4649 C   0  0  0  0  0  0
  -22.7227  -10.2138   20.3060 C   0  0  0  0  0  0
  -21.6849   -6.0733   22.5276 C   0  0  0  0  0  0
  -21.4010   -6.5639   23.8211 C   0  0  0  0  0  0
  -21.3662   -5.6793   24.9175 C   0  0  0  0  0  0
  -21.6043   -4.3056   24.7227 C   0  0  0  0  0  0
  -21.8821   -3.8146   23.4348 C   0  0  0  0  0  0
  -21.9192   -4.6960   22.3400 C   0  0  0  0  0  0
  -22.7848  -13.5232   21.1846 C   0  0  0  0  0  0
  -22.1659   -4.2144   21.0976 F   0  0  0  0  0  0
  -21.5635   -3.4542   25.7743 F   0  0  0  0  0  0
  -30.0257  -13.3230   20.4349 N   0  0  0  0  0  0
  -26.2991  -12.9343   20.3318 N   0  0  0  0  0  0
  -25.9313  -11.6503   20.5755 N   0  0  0  0  0  0
  -22.0495  -12.8232   22.0406 N   0  0  0  0  0  0
  -25.4304  -15.1894   20.4116 N   0  0  0  0  0  0
  -31.8439  -14.6257   20.1100 O   0  0  0  0  0  0
  -21.6633   -6.8875   21.4236 O   0  0  0  0  0  0
  -22.3531  -14.5537   20.6693 O   0  0  0  0  0  0
  -24.6159  -31.8666   23.2086 C   0  0  0  0  0  0
  -25.9058  -32.4808   23.8379 C   0  0  1  0  0  0
  -27.2305  -27.4248   20.1049 C   0  0  0  0  0  0
  -25.5915  -33.8604   24.2312 N   0  0  0  0  0  0
  -23.4031  -30.4888   21.5488 C   0  0  2  0  0  0
  -24.8496  -28.9517   20.1156 C   0  0  0  0  0  0
  -22.7413  -29.4642   22.4985 C   0  0  0  0  0  0
  -18.0261  -28.1356   22.8489 C   0  0  0  0  0  0
  -24.1482  -36.7302   23.2635 C   0  0  0  0  0  0
  -25.9316  -30.8321   21.3609 C   0  0  0  0  0  0
  -26.0105  -29.4652   20.7083 C   0  0  0  0  0  0
  -27.2077  -28.7108   20.6951 C   0  0  0  0  0  0
  -26.0539  -26.9251   19.5092 C   0  0  0  0  0  0
  -24.8667  -27.6818   19.5110 C   0  0  0  0  0  0
  -23.6121  -29.8197   20.1637 C   0  0  0  0  0  0
  -25.4106  -36.3092   24.0325 C   0  0  1  0  0  0
  -20.5857  -28.3650   23.1305 C   0  0  2  0  0  0
  -20.6755  -26.9384   22.5412 C   0  0  0  0  0  0
  -19.5742  -26.6369   21.5200 C   0  0  0  0  0  0
  -18.1911  -26.7907   22.1604 C   0  0  0  0  0  0
  -19.1515  -28.8817   23.2891 C   0  0  0  0  0  0
  -18.9454  -30.1423   23.8902 C   0  0  0  0  0  0
  -17.6460  -30.6574   24.0553 C   0  0  0  0  0  0
  -25.9041  -34.9462   23.5114 C   0  0  0  0  0  0
  -16.5350  -29.9080   23.6315 C   0  0  0  0  0  0
  -16.7254  -28.6484   23.0356 C   0  0  0  0  0  0
  -26.4489  -31.6598   25.0712 C   0  0  0  0  0  0
  -25.3774  -31.3691   26.1471 C   0  0  0  0  0  0
  -27.0332  -30.3048   24.6087 C   0  0  0  0  0  0
  -27.6057  -32.4338   25.7487 C   0  0  0  0  0  0
  -27.5587  -37.1785   24.8450 C   0  0  0  0  0  0
  -21.4144  -29.3024   22.3722 N   0  0  0  0  0  0
  -26.4282  -37.3797   23.9420 N   0  0  0  0  0  0
  -24.6678  -31.0770   22.0976 N   0  0  0  0  0  0
  -23.4180  -28.8184   23.3030 O   0  0  0  0  0  0
  -28.3860  -26.6733   20.1035 O   0  0  0  0  0  0
  -26.5603  -34.8928   22.4674 O   0  0  0  0  0  0
  -23.5356  -32.1413   23.7497 O   0  0  0  0  0  0
  -29.6536  -19.4148   19.6338 C   0  0  0  0  0  0
  -29.9605  -18.4450   20.6426 C   0  0  0  0  0  0
  -29.6238  -19.0584   21.8260 C   0  0  0  0  0  0
  -29.2212  -20.5413   20.2768 C   0  0  0  0  0  0
  -28.7309  -22.8195   20.3116 C   0  0  0  0  0  0
  -28.4944  -24.2087   19.7241 C   0  0  0  0  0  0
  -29.7128  -18.6396   23.2547 C   0  0  0  0  0  0
  -30.6293  -17.0886   20.4134 C   0  0  0  0  0  0
  -28.2819  -25.3697   20.7209 C   0  0  0  0  0  0
  -29.9605  -15.8030   20.9951 C   0  0  0  0  0  0
  -28.9348  -21.7395   19.6488 N   0  0  0  0  0  0
  -28.4729  -24.4178   18.5022 O   0  0  0  0  0  0
  -29.1731  -20.3376   21.6189 O   0  0  0  0  0  0
  -31.4628  -12.3874   19.1455 H   0  0  0  0  0  0
  -30.3031  -11.3101   19.8660 H   0  0  0  0  0  0
  -29.7413  -11.7479   17.4517 H   0  0  0  0  0  0
  -29.6614  -13.4650   17.7648 H   0  0  0  0  0  0
  -27.8380  -11.2903   18.8494 H   0  0  0  0  0  0
  -27.3651  -12.5892   17.7873 H   0  0  0  0  0  0
  -27.6772  -14.2453   19.5222 H   0  0  0  0  0  0
  -28.6683  -12.0339   21.3920 H   0  0  0  0  0  0
  -28.4653  -13.7091   21.8273 H   0  0  0  0  0  0
  -25.2755   -9.5686   22.4771 H   0  0  0  0  0  0
  -23.9993   -7.4636   22.7491 H   0  0  0  0  0  0
  -21.0833   -8.8778   19.8955 H   0  0  0  0  0  0
  -22.3687  -10.9682   19.6176 H   0  0  0  0  0  0
  -21.1996   -7.6148   23.9708 H   0  0  0  0  0  0
  -21.1485   -6.0528   25.9077 H   0  0  0  0  0  0
  -22.0598   -2.7606   23.2851 H   0  0  0  0  0  0
  -22.4105  -11.9887   22.4791 H   0  0  0  0  0  0
  -21.1126  -13.1281   22.2636 H   0  0  0  0  0  0
  -24.6691  -15.8493   20.5272 H   0  0  0  0  0  0
  -26.2915  -15.6284   20.1101 H   0  0  0  0  0  0
  -26.7126  -32.5513   23.1143 H   0  0  0  0  0  0
  -25.0094  -33.9759   25.0474 H   0  0  0  0  0  0
  -22.6920  -31.3053   21.4097 H   0  0  0  0  0  0
  -23.3755  -35.9621   23.3255 H   0  0  0  0  0  0
  -24.3591  -36.8971   22.2061 H   0  0  0  0  0  0
  -23.7219  -37.6477   23.6695 H   0  0  0  0  0  0
  -26.0467  -31.6001   20.5944 H   0  0  0  0  0  0
  -26.8173  -30.8835   21.9813 H   0  0  0  0  0  0
  -28.1052  -29.1026   21.1553 H   0  0  0  0  0  0
  -26.0520  -25.9518   19.0389 H   0  0  0  0  0  0
  -23.9754  -27.2804   19.0492 H   0  0  0  0  0  0
  -23.7193  -30.5934   19.4026 H   0  0  0  0  0  0
  -22.7359  -29.2393   19.8692 H   0  0  0  0  0  0
  -25.1281  -36.1944   25.0818 H   0  0  0  0  0  0
  -20.9936  -28.3223   24.1431 H   0  0  0  0  0  0
  -20.5644  -26.2262   23.3598 H   0  0  0  0  0  0
  -21.6633  -26.7421   22.1224 H   0  0  0  0  0  0
  -19.6904  -25.6278   21.1223 H   0  0  0  0  0  0
  -19.6685  -27.3178   20.6727 H   0  0  0  0  0  0
  -17.4188  -26.6648   21.4000 H   0  0  0  0  0  0
  -18.0311  -26.0042   22.8988 H   0  0  0  0  0  0
  -19.7938  -30.7214   24.2302 H   0  0  0  0  0  0
  -17.5027  -31.6260   24.5152 H   0  0  0  0  0  0
  -15.5353  -30.2990   23.7641 H   0  0  0  0  0  0
  -15.8649  -28.0802   22.7101 H   0  0  0  0  0  0
  -24.5945  -30.7038   25.7809 H   0  0  0  0  0  0
  -24.8970  -32.2838   26.4953 H   0  0  0  0  0  0
  -25.8148  -30.8841   27.0207 H   0  0  0  0  0  0
  -26.2853  -29.6783   24.1208 H   0  0  0  0  0  0
  -27.4169  -29.7324   25.4540 H   0  0  0  0  0  0
  -27.8661  -30.4355   23.9177 H   0  0  0  0  0  0
  -27.2653  -33.3627   26.2085 H   0  0  0  0  0  0
  -28.3864  -32.6931   25.0319 H   0  0  0  0  0  0
  -28.0731  -31.8457   26.5396 H   0  0  0  0  0  0
  -28.2552  -38.0140   24.7604 H   0  0  0  0  0  0
  -28.1137  -36.2677   24.6142 H   0  0  0  0  0  0
  -27.2314  -37.1278   25.8853 H   0  0  0  0  0  0
  -20.9305  -29.8771   21.6964 H   0  0  0  0  0  0
  -26.0150  -38.2846   24.1517 H   0  0  0  0  0  0
  -29.7979  -19.3181   18.5657 H   0  0  0  0  0  0
  -28.7308  -22.7877   21.4049 H   0  0  0  0  0  0
  -30.4005  -17.8032   23.3742 H   0  0  0  0  0  0
  -28.7367  -18.3348   23.6312 H   0  0  0  0  0  0
  -30.0761  -19.4561   23.8786 H   0  0  0  0  0  0
  -31.6418  -17.1715   20.8111 H   0  0  0  0  0  0
  -30.7482  -16.9689   19.3346 H   0  0  0  0  0  0
  -29.0438  -25.3028   21.4975 H   0  0  0  0  0  0
  -27.3207  -25.2414   21.2205 H   0  0  0  0  0  0
  -28.9235  -15.7765   20.6655 H   0  0  0  0  0  0
  -29.9464  -15.8318   22.0843 H   0  0  0  0  0  0
  1 25  1  0  0  0
  1 30  2  0  0  0
  1 80  1  0  0  0
  2  3  1  0  0  0
  2 25  1  0  0  0
  2 84  1  0  0  0
  2 85  1  0  0  0
  3  4  1  0  0  0
  3 86  1  0  0  0
  3 87  1  0  0  0
  4  5  1  0  0  0
  4 88  1  0  0  0
  4 89  1  0  0  0
  5  6  1  0  0  0
  5 26  1  0  0  0
  5 90  1  0  0  0
  6 25  1  0  0  0
  6 91  1  0  0  0
  6 92  1  0  0  0
  7  8  2  0  0  0
  7 26  1  0  0  0
  7 29  1  0  0  0
  8  9  1  0  0  0
  8 22  1  0  0  0
  9 10  1  0  0  0
  9 27  2  0  0  0
 10 11  2  0  0  0
 10 15  1  0  0  0
 11 12  1  0  0  0
 11 93  1  0  0  0
 12 13  2  0  0  0
 12 94  1  0  0  0
 13 14  1  0  0  0
 13 31  1  0  0  0
 14 15  2  0  0  0
 14 95  1  0  0  0
 15 96  1  0  0  0
 16 17  2  0  0  0
 16 21  1  0  0  0
 16 31  1  0  0  0
 17 18  1  0  0  0
 17 97  1  0  0  0
 18 19  2  0  0  0
 18 98  1  0  0  0
 19 20  1  0  0  0
 19 24  1  0  0  0
 20 21  2  0  0  0
 20 99  1  0  0  0
 21 23  1  0  0  0
 22 28  1  0  0  0
 22 32  2  0  0  0
 26 27  1  0  0  0
 28100  1  0  0  0
 28101  1  0  0  0
 29102  1  0  0  0
 29103  1  0  0  0
 33 34  1  0  0  0
 33 66  1  0  0  0
 33 70  2  0  0  0
 34 36  1  0  0  0
 34 59  1  0  0  0
 34104  1  0  0  0
 35 44  2  0  0  0
 35 45  1  0  0  0
 35 68  1  0  0  0
 36 56  1  0  0  0
 36105  1  0  0  0
 37 39  1  0  0  0
 37 47  1  0  0  0
 37 66  1  0  0  0
 37106  1  0  0  0
 38 43  2  0  0  0
 38 46  1  0  0  0
 38 47  1  0  0  0
 39 64  1  0  0  0
 39 67  2  0  0  0
 40 52  1  0  0  0
 40 53  2  0  0  0
 40 58  1  0  0  0
 41107  1  0  0  0
 41108  1  0  0  0
 41109  1  0  0  0
 41 48  1  0  0  0
 42 43  1  0  0  0
 42 66  1  0  0  0
 42110  1  0  0  0
 42111  1  0  0  0
 43 44  1  0  0  0
 44112  1  0  0  0
 45 46  2  0  0  0
 45113  1  0  0  0
 46114  1  0  0  0
 47115  1  0  0  0
 47116  1  0  0  0
 48 56  1  0  0  0
 48 65  1  0  0  0
 48117  1  0  0  0
 49 50  1  0  0  0
 49 53  1  0  0  0
 49 64  1  0  0  0
 49118  1  0  0  0
 50 51  1  0  0  0
 50119  1  0  0  0
 50120  1  0  0  0
 51 52  1  0  0  0
 51121  1  0  0  0
 51122  1  0  0  0
 52123  1  0  0  0
 52124  1  0  0  0
 53 54  1  0  0  0
 54 55  2  0  0  0
 54125  1  0  0  0
 55 57  1  0  0  0
 55126  1  0  0  0
 56 69  2  0  0  0
 57 58  2  0  0  0
 57127  1  0  0  0
 58128  1  0  0  0
 59 60  1  0  0  0
 59 61  1  0  0  0
 59 62  1  0  0  0
 60129  1  0  0  0
 60130  1  0  0  0
 60131  1  0  0  0
 61132  1  0  0  0
 61133  1  0  0  0
 61134  1  0  0  0
 62135  1  0  0  0
 62136  1  0  0  0
 62137  1  0  0  0
 63 65  1  0  0  0
 63138  1  0  0  0
 63139  1  0  0  0
 63140  1  0  0  0
 64141  1  0  0  0
 65142  1  0  0  0
 68 79  1  0  0  0
 71 72  1  0  0  0
 71 74  2  0  0  0
 71143  1  0  0  0
 72 73  2  0  0  0
 72 78  1  0  0  0
 73 77  1  0  0  0
 73 83  1  0  0  0
 74 81  1  0  0  0
 74 83  1  0  0  0
 75 76  1  0  0  0
 75 81  2  0  0  0
 75144  1  0  0  0
 76 79  1  0  0  0
 76 82  2  0  0  0
 77145  1  0  0  0
 77146  1  0  0  0
 77147  1  0  0  0
 78 80  1  0  0  0
 78148  1  0  0  0
 78149  1  0  0  0
 79150  1  0  0  0
 79151  1  0  0  0
 80152  1  0  0  0
 80153  1  0  0  0
M  ISO  4   1 100  68 101  79 101  80 100
M  END
> <chiral flag>
0

> <version>
0

> <s_m_source_file>
/data/baiqing/PycharmProjects/Reinvent-master-3.2/result/LINK_invent/BTK/process_docking_weight1_custom_product_contain_oxygen_bond_distance_aromatic_linkinvent_7_9_3/rearranged_h_0167.sdf

> <i_m_source_file_index>
92

> <r_mmod_Potential_Energy-OPLS-2005>
-74.0862731933594

> <r_mmod_Stretch_Energy-OPLS-2005>
39.6023788452148

> <r_mmod_Bend_Energy-OPLS-2005>
102.257797241211

> <r_mmod_Torsional_Energy-OPLS-2005>
191.065658569336

> <r_mmod_Improper_Torsional_Energy-OPLS-2005>
4.19280529022217

> <r_mmod_Van_der_Waal_Energy-OPLS-2005>
124.369812011719

> <r_mmod_Electrostatic_Energy-OPLS-2005>
-326.934204101562

> <r_mmod_Solvation_Energy-OPLS-2005>
-226.33528137207

> <b_mmod_Minimization_Converged-OPLS-2005>
0

> <r_mmod_RMS_Derivative-OPLS-2005>
1.54477298259735

$$$$
94
                    3D
 Structure written by MMmdl.
153161  0  0  1  0            999 V2000
  -30.6876  -14.5839   20.4858 C   0  0  0  0  0  0
  -30.4114  -12.3547   19.4596 C   0  0  0  0  0  0
  -29.4987  -12.4856   18.2238 C   0  0  0  0  0  0
  -28.0206  -12.3441   18.6344 C   0  0  0  0  0  0
  -27.6461  -13.2256   19.8572 C   0  0  2  0  0  0
  -28.6887  -13.1103   20.9912 C   0  0  0  0  0  0
  -25.2509  -13.8198   20.5669 C   0  0  0  0  0  0
  -24.1799  -13.0444   20.9195 C   0  0  0  0  0  0
  -24.6383  -11.6922   20.8747 C   0  0  0  0  0  0
  -23.9062  -10.4297   21.0412 C   0  0  0  0  0  0
  -24.3617   -9.4210   21.9187 C   0  0  0  0  0  0
  -23.6292   -8.2244   22.0754 C   0  0  0  0  0  0
  -22.4273   -8.0283   21.3544 C   0  0  0  0  0  0
  -21.9910   -9.0257   20.4646 C   0  0  0  0  0  0
  -22.7237  -10.2136   20.3057 C   0  0  0  0  0  0
  -21.6854   -6.0732   22.5275 C   0  0  0  0  0  0
  -21.4016   -6.5637   23.8209 C   0  0  0  0  0  0
  -21.3661   -5.6789   24.9173 C   0  0  0  0  0  0
  -21.6044   -4.3054   24.7223 C   0  0  0  0  0  0
  -21.8820   -3.8142   23.4348 C   0  0  0  0  0  0
  -21.9192   -4.6957   22.3402 C   0  0  0  0  0  0
  -22.7821  -13.5227   21.1862 C   0  0  0  0  0  0
  -22.1659   -4.2143   21.0981 F   0  0  0  0  0  0
  -21.5633   -3.4537   25.7738 F   0  0  0  0  0  0
  -30.0046  -13.4040   20.4134 N   0  0  0  0  0  0
  -26.2947  -12.9401   20.3301 N   0  0  0  0  0  0
  -25.9315  -11.6545   20.5771 N   0  0  0  0  0  0
  -22.0469  -12.8214   22.0420 N   0  0  0  0  0  0
  -25.4194  -15.1915   20.4067 N   0  0  0  0  0  0
  -31.8709  -14.6539   20.1462 O   0  0  0  0  0  0
  -21.6641   -6.8875   21.4239 O   0  0  0  0  0  0
  -22.3500  -14.5527   20.6711 O   0  0  0  0  0  0
  -24.6219  -31.8648   23.2052 C   0  0  0  0  0  0
  -25.9083  -32.4811   23.8369 C   0  0  1  0  0  0
  -27.2260  -27.3697   20.0984 C   0  0  0  0  0  0
  -25.5910  -33.8605   24.2293 N   0  0  0  0  0  0
  -23.4132  -30.4882   21.5476 C   0  0  2  0  0  0
  -24.8588  -28.9491   20.1083 C   0  0  0  0  0  0
  -22.7461  -29.4654   22.4965 C   0  0  0  0  0  0
  -18.0283  -28.1396   22.8497 C   0  0  0  0  0  0
  -24.1487  -36.7302   23.2636 C   0  0  0  0  0  0
  -25.9500  -30.8073   21.3710 C   0  0  0  0  0  0
  -26.0246  -29.4390   20.7120 C   0  0  0  0  0  0
  -27.2116  -28.6559   20.7057 C   0  0  0  0  0  0
  -26.0367  -26.9100   19.4920 C   0  0  0  0  0  0
  -24.8631  -27.6860   19.4941 C   0  0  0  0  0  0
  -23.6247  -29.8234   20.1616 C   0  0  0  0  0  0
  -25.4112  -36.3105   24.0333 C   0  0  1  0  0  0
  -20.5879  -28.3697   23.1300 C   0  0  2  0  0  0
  -20.6778  -26.9423   22.5419 C   0  0  0  0  0  0
  -19.5750  -26.6395   21.5224 C   0  0  0  0  0  0
  -18.1927  -26.7939   22.1629 C   0  0  0  0  0  0
  -19.1536  -28.8864   23.2895 C   0  0  0  0  0  0
  -18.9466  -30.1464   23.8916 C   0  0  0  0  0  0
  -17.6465  -30.6595   24.0571 C   0  0  0  0  0  0
  -25.9046  -34.9472   23.5116 C   0  0  0  0  0  0
  -16.5356  -29.9093   23.6332 C   0  0  0  0  0  0
  -16.7274  -28.6511   23.0360 C   0  0  0  0  0  0
  -26.4472  -31.6613   25.0731 C   0  0  0  0  0  0
  -25.3710  -31.3754   26.1470 C   0  0  0  0  0  0
  -27.0310  -30.3043   24.6169 C   0  0  0  0  0  0
  -27.6049  -32.4335   25.7491 C   0  0  0  0  0  0
  -27.5588  -37.1806   24.8460 C   0  0  0  0  0  0
  -21.4177  -29.3047   22.3696 N   0  0  0  0  0  0
  -26.4296  -37.3796   23.9412 N   0  0  0  0  0  0
  -24.6802  -31.0694   22.0986 N   0  0  0  0  0  0
  -23.4206  -28.8204   23.3040 O   0  0  0  0  0  0
  -28.3305  -26.5260   20.1676 O   0  0  0  0  0  0
  -26.5620  -34.8937   22.4685 O   0  0  0  0  0  0
  -23.5398  -32.1435   23.7410 O   0  0  0  0  0  0
  -28.5636  -20.2820   21.2096 C   0  0  0  0  0  0
  -28.9057  -18.8914   21.4468 C   0  0  0  0  0  0
  -29.8115  -18.3893   20.5333 C   0  0  0  0  0  0
  -29.1771  -20.8624   20.1190 C   0  0  0  0  0  0
  -28.6351  -25.7347   19.0728 C   0  0  0  0  0  0
  -28.8406  -24.3836   18.9677 C   0  0  0  0  0  0
  -28.7355  -23.3513   20.0353 C   0  0  0  0  0  0
  -30.6142  -17.0757   20.4963 C   0  0  0  0  0  0
  -28.3665  -18.0875   22.5988 C   0  0  0  0  0  0
  -29.0987  -22.1229   19.5675 N   0  0  0  0  0  0
  -29.9871  -15.7348   20.7098 N   0  0  0  0  0  0
  -28.3659  -23.5457   21.1953 O   0  0  0  0  0  0
  -29.1733  -23.9428   17.7389 O   0  0  0  0  0  0
  -27.5054  -18.7898   23.3357 F   0  0  0  0  0  0
  -27.7302  -16.9989   22.1634 F   0  0  0  0  0  0
  -29.3485  -17.6848   23.4049 F   0  0  0  0  0  0
  -30.1684  -19.6362   19.3426 S   0  0  0  0  0  0
  -31.4588  -12.4355   19.1641 H   0  0  0  0  0  0
  -30.3056  -11.3690   19.9151 H   0  0  0  0  0  0
  -29.7547  -11.7262   17.4834 H   0  0  0  0  0  0
  -29.6593  -13.4516   17.7426 H   0  0  0  0  0  0
  -27.8470  -11.2938   18.8700 H   0  0  0  0  0  0
  -27.3705  -12.5759   17.7899 H   0  0  0  0  0  0
  -27.6583  -14.2564   19.5035 H   0  0  0  0  0  0
  -28.6825  -12.1088   21.4239 H   0  0  0  0  0  0
  -28.4517  -13.7973   21.8051 H   0  0  0  0  0  0
  -25.2764   -9.5690   22.4760 H   0  0  0  0  0  0
  -24.0004   -7.4638   22.7473 H   0  0  0  0  0  0
  -21.0841   -8.8780   19.8949 H   0  0  0  0  0  0
  -22.3701  -10.9680   19.6166 H   0  0  0  0  0  0
  -21.2008   -7.6144   23.9711 H   0  0  0  0  0  0
  -21.1483   -6.0520   25.9075 H   0  0  0  0  0  0
  -22.0598   -2.7602   23.2851 H   0  0  0  0  0  0
  -22.4091  -11.9875   22.4804 H   0  0  0  0  0  0
  -21.1088  -13.1243   22.2630 H   0  0  0  0  0  0
  -24.6550  -15.8464   20.5274 H   0  0  0  0  0  0
  -26.2738  -15.6350   20.0970 H   0  0  0  0  0  0
  -26.7159  -32.5510   23.1129 H   0  0  0  0  0  0
  -25.0057  -33.9738   25.0440 H   0  0  0  0  0  0
  -22.7054  -31.3078   21.4077 H   0  0  0  0  0  0
  -23.3761  -35.9623   23.3308 H   0  0  0  0  0  0
  -24.3566  -36.8905   22.2044 H   0  0  0  0  0  0
  -23.7227  -37.6506   23.6648 H   0  0  0  0  0  0
  -26.0753  -31.5739   20.6048 H   0  0  0  0  0  0
  -26.8331  -30.8547   21.9975 H   0  0  0  0  0  0
  -28.1059  -29.0222   21.1896 H   0  0  0  0  0  0
  -26.0020  -25.9277   19.0424 H   0  0  0  0  0  0
  -23.9650  -27.2983   19.0327 H   0  0  0  0  0  0
  -23.7379  -30.6005   19.4041 H   0  0  0  0  0  0
  -22.7467  -29.2475   19.8628 H   0  0  0  0  0  0
  -25.1285  -36.1968   25.0825 H   0  0  0  0  0  0
  -20.9960  -28.3275   24.1426 H   0  0  0  0  0  0
  -20.5689  -26.2307   23.3617 H   0  0  0  0  0  0
  -21.6649  -26.7463   22.1211 H   0  0  0  0  0  0
  -19.6903  -25.6306   21.1252 H   0  0  0  0  0  0
  -19.6680  -27.3215   20.6762 H   0  0  0  0  0  0
  -17.4193  -26.6705   21.4027 H   0  0  0  0  0  0
  -18.0310  -26.0075   22.9019 H   0  0  0  0  0  0
  -19.7941  -30.7277   24.2290 H   0  0  0  0  0  0
  -17.5021  -31.6274   24.5176 H   0  0  0  0  0  0
  -15.5358  -30.3009   23.7646 H   0  0  0  0  0  0
  -15.8670  -28.0831   22.7079 H   0  0  0  0  0  0
  -24.5867  -30.7121   25.7802 H   0  0  0  0  0  0
  -24.8927  -32.2929   26.4908 H   0  0  0  0  0  0
  -25.8027  -30.8920   27.0237 H   0  0  0  0  0  0
  -26.2882  -29.6815   24.1178 H   0  0  0  0  0  0
  -27.3999  -29.7277   25.4658 H   0  0  0  0  0  0
  -27.8747  -30.4338   23.9387 H   0  0  0  0  0  0
  -27.2663  -33.3616   26.2104 H   0  0  0  0  0  0
  -28.3834  -32.6924   25.0304 H   0  0  0  0  0  0
  -28.0752  -31.8449   26.5374 H   0  0  0  0  0  0
  -28.2616  -38.0101   24.7536 H   0  0  0  0  0  0
  -28.1077  -36.2637   24.6255 H   0  0  0  0  0  0
  -27.2305  -37.1416   25.8863 H   0  0  0  0  0  0
  -20.9361  -29.8749   21.6885 H   0  0  0  0  0  0
  -26.0188  -38.2875   24.1429 H   0  0  0  0  0  0
  -27.8761  -20.8044   21.8603 H   0  0  0  0  0  0
  -28.7254  -26.3672   18.1999 H   0  0  0  0  0  0
  -31.4276  -17.1661   21.2184 H   0  0  0  0  0  0
  -31.1145  -17.0374   19.5261 H   0  0  0  0  0  0
  -29.4148  -22.1965   18.6071 H   0  0  0  0  0  0
  -29.0038  -15.6778   20.9278 H   0  0  0  0  0  0
  -29.2153  -24.6962   17.1646 H   0  0  0  0  0  0
  1 25  1  0  0  0
  1 30  2  0  0  0
  1 81  1  0  0  0
  2  3  1  0  0  0
  2 25  1  0  0  0
  2 88  1  0  0  0
  2 89  1  0  0  0
  3  4  1  0  0  0
  3 90  1  0  0  0
  3 91  1  0  0  0
  4  5  1  0  0  0
  4 92  1  0  0  0
  4 93  1  0  0  0
  5  6  1  0  0  0
  5 26  1  0  0  0
  5 94  1  0  0  0
  6 25  1  0  0  0
  6 95  1  0  0  0
  6 96  1  0  0  0
  7  8  2  0  0  0
  7 26  1  0  0  0
  7 29  1  0  0  0
  8  9  1  0  0  0
  8 22  1  0  0  0
  9 10  1  0  0  0
  9 27  2  0  0  0
 10 11  2  0  0  0
 10 15  1  0  0  0
 11 12  1  0  0  0
 11 97  1  0  0  0
 12 13  2  0  0  0
 12 98  1  0  0  0
 13 14  1  0  0  0
 13 31  1  0  0  0
 14 15  2  0  0  0
 14 99  1  0  0  0
 15100  1  0  0  0
 16 17  2  0  0  0
 16 21  1  0  0  0
 16 31  1  0  0  0
 17 18  1  0  0  0
 17101  1  0  0  0
 18 19  2  0  0  0
 18102  1  0  0  0
 19 20  1  0  0  0
 19 24  1  0  0  0
 20 21  2  0  0  0
 20103  1  0  0  0
 21 23  1  0  0  0
 22 28  1  0  0  0
 22 32  2  0  0  0
 26 27  1  0  0  0
 28104  1  0  0  0
 28105  1  0  0  0
 29106  1  0  0  0
 29107  1  0  0  0
 33 34  1  0  0  0
 33 66  1  0  0  0
 33 70  2  0  0  0
 34 36  1  0  0  0
 34 59  1  0  0  0
 34108  1  0  0  0
 35 44  2  0  0  0
 35 45  1  0  0  0
 35 68  1  0  0  0
 36 56  1  0  0  0
 36109  1  0  0  0
 37 39  1  0  0  0
 37 47  1  0  0  0
 37 66  1  0  0  0
 37110  1  0  0  0
 38 43  2  0  0  0
 38 46  1  0  0  0
 38 47  1  0  0  0
 39 64  1  0  0  0
 39 67  2  0  0  0
 40 52  1  0  0  0
 40 53  2  0  0  0
 40 58  1  0  0  0
 41111  1  0  0  0
 41112  1  0  0  0
 41113  1  0  0  0
 41 48  1  0  0  0
 42 43  1  0  0  0
 42 66  1  0  0  0
 42114  1  0  0  0
 42115  1  0  0  0
 43 44  1  0  0  0
 44116  1  0  0  0
 45 46  2  0  0  0
 45117  1  0  0  0
 46118  1  0  0  0
 47119  1  0  0  0
 47120  1  0  0  0
 48 56  1  0  0  0
 48 65  1  0  0  0
 48121  1  0  0  0
 49 50  1  0  0  0
 49 53  1  0  0  0
 49 64  1  0  0  0
 49122  1  0  0  0
 50 51  1  0  0  0
 50123  1  0  0  0
 50124  1  0  0  0
 51 52  1  0  0  0
 51125  1  0  0  0
 51126  1  0  0  0
 52127  1  0  0  0
 52128  1  0  0  0
 53 54  1  0  0  0
 54 55  2  0  0  0
 54129  1  0  0  0
 55 57  1  0  0  0
 55130  1  0  0  0
 56 69  2  0  0  0
 57 58  2  0  0  0
 57131  1  0  0  0
 58132  1  0  0  0
 59 60  1  0  0  0
 59 61  1  0  0  0
 59 62  1  0  0  0
 60133  1  0  0  0
 60134  1  0  0  0
 60135  1  0  0  0
 61136  1  0  0  0
 61137  1  0  0  0
 61138  1  0  0  0
 62139  1  0  0  0
 62140  1  0  0  0
 62141  1  0  0  0
 63 65  1  0  0  0
 63142  1  0  0  0
 63143  1  0  0  0
 63144  1  0  0  0
 64145  1  0  0  0
 65146  1  0  0  0
 68 75  1  0  0  0
 71 72  1  0  0  0
 71 74  2  0  0  0
 71147  1  0  0  0
 72 73  2  0  0  0
 72 79  1  0  0  0
 73 78  1  0  0  0
 73 87  1  0  0  0
 74 80  1  0  0  0
 74 87  1  0  0  0
 75 76  2  0  0  0
 75148  1  0  0  0
 76 77  1  0  0  0
 76 83  1  0  0  0
 77 80  1  0  0  0
 77 82  2  0  0  0
 78 81  1  0  0  0
 78149  1  0  0  0
 78150  1  0  0  0
 79 84  1  0  0  0
 79 85  1  0  0  0
 79 86  1  0  0  0
 80151  1  0  0  0
 81152  1  0  0  0
 83153  1  0  0  0
M  ISO  4   1 100  68 101  75 101  81 100
M  END
> <chiral flag>
0

> <version>
0

> <s_m_source_file>
/data/baiqing/PycharmProjects/Reinvent-master-3.2/result/LINK_invent/BTK/process_docking_weight1_custom_product_contain_oxygen_bond_distance_aromatic_linkinvent_7_9_3/rearranged_h_0167.sdf

> <i_m_source_file_index>
93

> <r_mmod_Potential_Energy-OPLS-2005>
-68.3341293334961

> <r_mmod_Stretch_Energy-OPLS-2005>
53.9237289428711

> <r_mmod_Bend_Energy-OPLS-2005>
159.022308349609

> <r_mmod_Torsional_Energy-OPLS-2005>
209.632141113281

> <r_mmod_Improper_Torsional_Energy-OPLS-2005>
6.0395073890686

> <r_mmod_Van_der_Waal_Energy-OPLS-2005>
129.753601074219

> <r_mmod_Electrostatic_Energy-OPLS-2005>
-439.772064208984

> <r_mmod_Solvation_Energy-OPLS-2005>
-225.080276489258

> <b_mmod_Minimization_Converged-OPLS-2005>
0

> <r_mmod_RMS_Derivative-OPLS-2005>
1.34269535541534

$$$$
95
                    3D
 Structure written by MMmdl.
153161  0  0  1  0            999 V2000
  -30.6774  -14.5310   20.5568 C   0  0  0  0  0  0
  -30.4313  -12.3445   19.4277 C   0  0  0  0  0  0
  -29.4945  -12.4979   18.2114 C   0  0  0  0  0  0
  -28.0201  -12.3415   18.6343 C   0  0  0  0  0  0
  -27.6575  -13.2080   19.8696 C   0  0  2  0  0  0
  -28.7012  -13.0246   20.9938 C   0  0  0  0  0  0
  -25.2584  -13.8184   20.5714 C   0  0  0  0  0  0
  -24.1836  -13.0450   20.9209 C   0  0  0  0  0  0
  -24.6390  -11.6913   20.8758 C   0  0  0  0  0  0
  -23.9059  -10.4294   21.0417 C   0  0  0  0  0  0
  -24.3602   -9.4212   21.9201 C   0  0  0  0  0  0
  -23.6279   -8.2245   22.0770 C   0  0  0  0  0  0
  -22.4266   -8.0284   21.3552 C   0  0  0  0  0  0
  -21.9898   -9.0256   20.4652 C   0  0  0  0  0  0
  -22.7225  -10.2139   20.3065 C   0  0  0  0  0  0
  -21.6844   -6.0734   22.5274 C   0  0  0  0  0  0
  -21.4004   -6.5639   23.8206 C   0  0  0  0  0  0
  -21.3653   -5.6795   24.9176 C   0  0  0  0  0  0
  -21.6051   -4.3057   24.7229 C   0  0  0  0  0  0
  -21.8814   -3.8144   23.4346 C   0  0  0  0  0  0
  -21.9187   -4.6962   22.3400 C   0  0  0  0  0  0
  -22.7852  -13.5247   21.1859 C   0  0  0  0  0  0
  -22.1658   -4.2145   21.0978 F   0  0  0  0  0  0
  -21.5631   -3.4542   25.7742 F   0  0  0  0  0  0
  -30.0239  -13.3418   20.4308 N   0  0  0  0  0  0
  -26.3000  -12.9338   20.3354 N   0  0  0  0  0  0
  -25.9312  -11.6501   20.5779 N   0  0  0  0  0  0
  -22.0477  -12.8241   22.0403 N   0  0  0  0  0  0
  -25.4341  -15.1902   20.4163 N   0  0  0  0  0  0
  -31.8207  -14.7092   20.1298 O   0  0  0  0  0  0
  -21.6633   -6.8878   21.4238 O   0  0  0  0  0  0
  -22.3541  -14.5550   20.6695 O   0  0  0  0  0  0
  -24.6199  -31.8658   23.2111 C   0  0  0  0  0  0
  -25.9069  -32.4805   23.8405 C   0  0  1  0  0  0
  -27.2272  -27.3838   20.0834 C   0  0  0  0  0  0
  -25.5910  -33.8601   24.2331 N   0  0  0  0  0  0
  -23.4098  -30.4916   21.5534 C   0  0  2  0  0  0
  -24.8531  -28.9587   20.1148 C   0  0  0  0  0  0
  -22.7452  -29.4642   22.4986 C   0  0  0  0  0  0
  -18.0287  -28.1353   22.8494 C   0  0  0  0  0  0
  -24.1482  -36.7323   23.2643 C   0  0  0  0  0  0
  -25.9466  -30.8101   21.3771 C   0  0  0  0  0  0
  -26.0206  -29.4431   20.7187 C   0  0  0  0  0  0
  -27.2080  -28.6639   20.7024 C   0  0  0  0  0  0
  -26.0305  -26.9394   19.4647 C   0  0  0  0  0  0
  -24.8553  -27.7070   19.4857 C   0  0  0  0  0  0
  -23.6209  -29.8339   20.1659 C   0  0  0  0  0  0
  -25.4100  -36.3103   24.0340 C   0  0  1  0  0  0
  -20.5883  -28.3669   23.1298 C   0  0  2  0  0  0
  -20.6775  -26.9401   22.5417 C   0  0  0  0  0  0
  -19.5752  -26.6384   21.5208 C   0  0  0  0  0  0
  -18.1924  -26.7907   22.1612 C   0  0  0  0  0  0
  -19.1539  -28.8825   23.2891 C   0  0  0  0  0  0
  -18.9474  -30.1427   23.8908 C   0  0  0  0  0  0
  -17.6479  -30.6569   24.0561 C   0  0  0  0  0  0
  -25.9039  -34.9465   23.5134 C   0  0  0  0  0  0
  -16.5365  -29.9071   23.6314 C   0  0  0  0  0  0
  -16.7280  -28.6479   23.0349 C   0  0  0  0  0  0
  -26.4490  -31.6582   25.0742 C   0  0  0  0  0  0
  -25.3754  -31.3673   26.1491 C   0  0  0  0  0  0
  -27.0331  -30.3011   24.6142 C   0  0  0  0  0  0
  -27.6052  -32.4319   25.7505 C   0  0  0  0  0  0
  -27.5586  -37.1804   24.8464 C   0  0  0  0  0  0
  -21.4176  -29.3040   22.3712 N   0  0  0  0  0  0
  -26.4290  -37.3794   23.9421 N   0  0  0  0  0  0
  -24.6763  -31.0708   22.1044 N   0  0  0  0  0  0
  -23.4202  -28.8170   23.3028 O   0  0  0  0  0  0
  -28.3766  -26.5916   20.1024 O   0  0  0  0  0  0
  -26.5625  -34.8926   22.4710 O   0  0  0  0  0  0
  -23.5374  -32.1429   23.7487 O   0  0  0  0  0  0
  -29.4129  -18.5697   17.9148 C   0  0  0  0  0  0
  -29.6853  -17.5877   18.8779 C   0  0  0  0  0  0
  -29.4332  -19.9208   18.2976 C   0  0  0  0  0  0
  -29.9881  -17.9891   20.1895 C   0  0  0  0  0  0
  -29.6894  -20.2861   19.6393 C   0  0  0  0  0  0
  -29.0660  -22.7430   19.4596 C   0  0  0  0  0  0
  -30.3756  -16.9518   21.2637 C   0  0  0  0  0  0
  -29.3763  -24.1848   19.9698 C   0  0  0  0  0  0
  -28.2248  -25.2060   19.6785 C   0  0  0  0  0  0
  -29.9820  -19.3078   20.5503 N   0  0  0  0  0  0
  -29.7168  -21.6807   20.0108 N   0  0  0  0  0  0
  -29.9432  -15.5527   21.0438 N   0  0  0  0  0  0
  -28.2117  -22.6126   18.5771 O   0  0  0  0  0  0
  -31.4706  -12.4657   19.1168 H   0  0  0  0  0  0
  -30.3629  -11.3393   19.8461 H   0  0  0  0  0  0
  -29.7435  -11.7573   17.4506 H   0  0  0  0  0  0
  -29.6427  -13.4746   17.7489 H   0  0  0  0  0  0
  -27.8560  -11.2880   18.8672 H   0  0  0  0  0  0
  -27.3575  -12.5741   17.8000 H   0  0  0  0  0  0
  -27.6919  -14.2479   19.5442 H   0  0  0  0  0  0
  -28.6915  -11.9976   21.3607 H   0  0  0  0  0  0
  -28.4559  -13.6453   21.8563 H   0  0  0  0  0  0
  -25.2738   -9.5692   22.4791 H   0  0  0  0  0  0
  -23.9974   -7.4647   22.7500 H   0  0  0  0  0  0
  -21.0822   -8.8773   19.8964 H   0  0  0  0  0  0
  -22.3671  -10.9685   19.6177 H   0  0  0  0  0  0
  -21.1991   -7.6145   23.9706 H   0  0  0  0  0  0
  -21.1483   -6.0531   25.9081 H   0  0  0  0  0  0
  -22.0601   -2.7602   23.2849 H   0  0  0  0  0  0
  -22.4036  -11.9866   22.4760 H   0  0  0  0  0  0
  -21.1111  -13.1303   22.2640 H   0  0  0  0  0  0
  -24.6753  -15.8528   20.5413 H   0  0  0  0  0  0
  -26.2913  -15.6276   20.1002 H   0  0  0  0  0  0
  -26.7124  -32.5501   23.1154 H   0  0  0  0  0  0
  -25.0006  -33.9743   25.0433 H   0  0  0  0  0  0
  -22.6997  -31.3099   21.4173 H   0  0  0  0  0  0
  -23.3734  -35.9665   23.3291 H   0  0  0  0  0  0
  -24.3565  -36.8958   22.2058 H   0  0  0  0  0  0
  -23.7243  -37.6526   23.6667 H   0  0  0  0  0  0
  -26.0715  -31.5772   20.6112 H   0  0  0  0  0  0
  -26.8299  -30.8578   22.0026 H   0  0  0  0  0  0
  -28.1054  -29.0312   21.1813 H   0  0  0  0  0  0
  -25.9644  -25.9911   18.9523 H   0  0  0  0  0  0
  -23.9597  -27.3316   19.0079 H   0  0  0  0  0  0
  -23.7404  -30.6149   19.4147 H   0  0  0  0  0  0
  -22.7410  -29.2632   19.8642 H   0  0  0  0  0  0
  -25.1260  -36.1977   25.0835 H   0  0  0  0  0  0
  -20.9959  -28.3260   24.1428 H   0  0  0  0  0  0
  -20.5670  -26.2299   23.3628 H   0  0  0  0  0  0
  -21.6645  -26.7435   22.1216 H   0  0  0  0  0  0
  -19.6921  -25.6305   21.1223 H   0  0  0  0  0  0
  -19.6676  -27.3216   20.6748 H   0  0  0  0  0  0
  -17.4212  -26.6693   21.4000 H   0  0  0  0  0  0
  -18.0284  -26.0020   22.8975 H   0  0  0  0  0  0
  -19.7958  -30.7215   24.2306 H   0  0  0  0  0  0
  -17.5045  -31.6250   24.5172 H   0  0  0  0  0  0
  -15.5362  -30.2982   23.7628 H   0  0  0  0  0  0
  -15.8680  -28.0801   22.7056 H   0  0  0  0  0  0
  -24.6021  -30.6891   25.7863 H   0  0  0  0  0  0
  -24.8825  -32.2795   26.4856 H   0  0  0  0  0  0
  -25.8140  -30.8966   27.0300 H   0  0  0  0  0  0
  -26.2869  -29.6759   24.1219 H   0  0  0  0  0  0
  -27.4100  -29.7270   25.4615 H   0  0  0  0  0  0
  -27.8716  -30.4309   23.9293 H   0  0  0  0  0  0
  -27.2660  -33.3624   26.2077 H   0  0  0  0  0  0
  -28.3866  -32.6871   25.0330 H   0  0  0  0  0  0
  -28.0717  -31.8449   26.5435 H   0  0  0  0  0  0
  -28.2591  -38.0118   24.7526 H   0  0  0  0  0  0
  -28.1094  -36.2644   24.6250 H   0  0  0  0  0  0
  -27.2315  -37.1424   25.8873 H   0  0  0  0  0  0
  -20.9355  -29.8795   21.6951 H   0  0  0  0  0  0
  -26.0181  -38.2874   24.1418 H   0  0  0  0  0  0
  -29.2073  -18.2921   16.8907 H   0  0  0  0  0  0
  -29.6918  -16.5468   18.5916 H   0  0  0  0  0  0
  -29.2540  -20.6658   17.5368 H   0  0  0  0  0  0
  -29.9519  -17.2753   22.2153 H   0  0  0  0  0  0
  -31.4577  -16.9892   21.3904 H   0  0  0  0  0  0
  -30.2923  -24.5245   19.4849 H   0  0  0  0  0  0
  -29.5789  -24.1522   21.0395 H   0  0  0  0  0  0
  -27.3357  -24.7859   20.1535 H   0  0  0  0  0  0
  -28.0459  -25.2230   18.6008 H   0  0  0  0  0  0
  -30.2913  -21.8943   20.8136 H   0  0  0  0  0  0
  -28.9946  -15.3387   21.3061 H   0  0  0  0  0  0
  1 25  1  0  0  0
  1 30  2  0  0  0
  1 82  1  0  0  0
  2  3  1  0  0  0
  2 25  1  0  0  0
  2 84  1  0  0  0
  2 85  1  0  0  0
  3  4  1  0  0  0
  3 86  1  0  0  0
  3 87  1  0  0  0
  4  5  1  0  0  0
  4 88  1  0  0  0
  4 89  1  0  0  0
  5  6  1  0  0  0
  5 26  1  0  0  0
  5 90  1  0  0  0
  6 25  1  0  0  0
  6 91  1  0  0  0
  6 92  1  0  0  0
  7  8  2  0  0  0
  7 26  1  0  0  0
  7 29  1  0  0  0
  8  9  1  0  0  0
  8 22  1  0  0  0
  9 10  1  0  0  0
  9 27  2  0  0  0
 10 11  2  0  0  0
 10 15  1  0  0  0
 11 12  1  0  0  0
 11 93  1  0  0  0
 12 13  2  0  0  0
 12 94  1  0  0  0
 13 14  1  0  0  0
 13 31  1  0  0  0
 14 15  2  0  0  0
 14 95  1  0  0  0
 15 96  1  0  0  0
 16 17  2  0  0  0
 16 21  1  0  0  0
 16 31  1  0  0  0
 17 18  1  0  0  0
 17 97  1  0  0  0
 18 19  2  0  0  0
 18 98  1  0  0  0
 19 20  1  0  0  0
 19 24  1  0  0  0
 20 21  2  0  0  0
 20 99  1  0  0  0
 21 23  1  0  0  0
 22 28  1  0  0  0
 22 32  2  0  0  0
 26 27  1  0  0  0
 28100  1  0  0  0
 28101  1  0  0  0
 29102  1  0  0  0
 29103  1  0  0  0
 33 34  1  0  0  0
 33 66  1  0  0  0
 33 70  2  0  0  0
 34 36  1  0  0  0
 34 59  1  0  0  0
 34104  1  0  0  0
 35 44  2  0  0  0
 35 45  1  0  0  0
 35 68  1  0  0  0
 36 56  1  0  0  0
 36105  1  0  0  0
 37 39  1  0  0  0
 37 47  1  0  0  0
 37 66  1  0  0  0
 37106  1  0  0  0
 38 43  2  0  0  0
 38 46  1  0  0  0
 38 47  1  0  0  0
 39 64  1  0  0  0
 39 67  2  0  0  0
 40 52  1  0  0  0
 40 53  2  0  0  0
 40 58  1  0  0  0
 41107  1  0  0  0
 41108  1  0  0  0
 41109  1  0  0  0
 41 48  1  0  0  0
 42 43  1  0  0  0
 42 66  1  0  0  0
 42110  1  0  0  0
 42111  1  0  0  0
 43 44  1  0  0  0
 44112  1  0  0  0
 45 46  2  0  0  0
 45113  1  0  0  0
 46114  1  0  0  0
 47115  1  0  0  0
 47116  1  0  0  0
 48 56  1  0  0  0
 48 65  1  0  0  0
 48117  1  0  0  0
 49 50  1  0  0  0
 49 53  1  0  0  0
 49 64  1  0  0  0
 49118  1  0  0  0
 50 51  1  0  0  0
 50119  1  0  0  0
 50120  1  0  0  0
 51 52  1  0  0  0
 51121  1  0  0  0
 51122  1  0  0  0
 52123  1  0  0  0
 52124  1  0  0  0
 53 54  1  0  0  0
 54 55  2  0  0  0
 54125  1  0  0  0
 55 57  1  0  0  0
 55126  1  0  0  0
 56 69  2  0  0  0
 57 58  2  0  0  0
 57127  1  0  0  0
 58128  1  0  0  0
 59 60  1  0  0  0
 59 61  1  0  0  0
 59 62  1  0  0  0
 60129  1  0  0  0
 60130  1  0  0  0
 60131  1  0  0  0
 61132  1  0  0  0
 61133  1  0  0  0
 61134  1  0  0  0
 62135  1  0  0  0
 62136  1  0  0  0
 62137  1  0  0  0
 63 65  1  0  0  0
 63138  1  0  0  0
 63139  1  0  0  0
 63140  1  0  0  0
 64141  1  0  0  0
 65142  1  0  0  0
 68 79  1  0  0  0
 71 72  2  0  0  0
 71 73  1  0  0  0
 71143  1  0  0  0
 72 74  1  0  0  0
 72144  1  0  0  0
 73 75  2  0  0  0
 73145  1  0  0  0
 74 77  1  0  0  0
 74 80  2  0  0  0
 75 80  1  0  0  0
 75 81  1  0  0  0
 76 78  1  0  0  0
 76 81  1  0  0  0
 76 83  2  0  0  0
 77 82  1  0  0  0
 77146  1  0  0  0
 77147  1  0  0  0
 78 79  1  0  0  0
 78148  1  0  0  0
 78149  1  0  0  0
 79150  1  0  0  0
 79151  1  0  0  0
 81152  1  0  0  0
 82153  1  0  0  0
M  ISO  4   1 100  68 101  79 101  82 100
M  END
> <chiral flag>
0

> <version>
0

> <s_m_source_file>
/data/baiqing/PycharmProjects/Reinvent-master-3.2/result/LINK_invent/BTK/process_docking_weight1_custom_product_contain_oxygen_bond_distance_aromatic_linkinvent_7_9_3/rearranged_h_0167.sdf

> <i_m_source_file_index>
94

> <r_mmod_Potential_Energy-OPLS-2005>
-376.435852050781

> <r_mmod_Stretch_Energy-OPLS-2005>
50.5017166137695

> <r_mmod_Bend_Energy-OPLS-2005>
109.749618530273

> <r_mmod_Torsional_Energy-OPLS-2005>
197.816055297852

> <r_mmod_Improper_Torsional_Energy-OPLS-2005>
3.32904267311096

> <r_mmod_Van_der_Waal_Energy-OPLS-2005>
166.225158691406

> <r_mmod_Electrostatic_Energy-OPLS-2005>
-687.026733398438

> <r_mmod_Solvation_Energy-OPLS-2005>
-240.218536376953

> <b_mmod_Minimization_Converged-OPLS-2005>
0

> <r_mmod_RMS_Derivative-OPLS-2005>
2.47998309135437

$$$$
96
                    3D
 Structure written by MMmdl.
157165  0  0  1  0            999 V2000
  -30.6424  -14.5393   20.5822 C   0  0  0  0  0  0
  -30.4476  -12.3509   19.4298 C   0  0  0  0  0  0
  -29.5113  -12.5271   18.2141 C   0  0  0  0  0  0
  -28.0310  -12.3637   18.6201 C   0  0  0  0  0  0
  -27.6633  -13.1997   19.8756 C   0  0  2  0  0  0
  -28.7057  -12.9640   20.9931 C   0  0  0  0  0  0
  -25.2587  -13.8137   20.5666 C   0  0  0  0  0  0
  -24.1820  -13.0441   20.9163 C   0  0  0  0  0  0
  -24.6361  -11.6902   20.8741 C   0  0  0  0  0  0
  -23.9038  -10.4294   21.0418 C   0  0  0  0  0  0
  -24.3589   -9.4208   21.9191 C   0  0  0  0  0  0
  -23.6263   -8.2244   22.0763 C   0  0  0  0  0  0
  -22.4245   -8.0281   21.3548 C   0  0  0  0  0  0
  -21.9872   -9.0272   20.4664 C   0  0  0  0  0  0
  -22.7218  -10.2141   20.3072 C   0  0  0  0  0  0
  -21.6841   -6.0736   22.5284 C   0  0  0  0  0  0
  -21.4013   -6.5634   23.8222 C   0  0  0  0  0  0
  -21.3664   -5.6782   24.9177 C   0  0  0  0  0  0
  -21.6043   -4.3047   24.7220 C   0  0  0  0  0  0
  -21.8816   -3.8145   23.4341 C   0  0  0  0  0  0
  -21.9175   -4.6964   22.3400 C   0  0  0  0  0  0
  -22.7849  -13.5272   21.1804 C   0  0  0  0  0  0
  -22.1645   -4.2159   21.0978 F   0  0  0  0  0  0
  -21.5620   -3.4523   25.7726 F   0  0  0  0  0  0
  -30.0353  -13.3190   20.4554 N   0  0  0  0  0  0
  -26.3005  -12.9281   20.3316 N   0  0  0  0  0  0
  -25.9273  -11.6455   20.5727 N   0  0  0  0  0  0
  -22.0439  -12.8335   22.0370 N   0  0  0  0  0  0
  -25.4346  -15.1864   20.4156 N   0  0  0  0  0  0
  -31.7548  -14.7871   20.1084 O   0  0  0  0  0  0
  -21.6609   -6.8879   21.4248 O   0  0  0  0  0  0
  -22.3580  -14.5594   20.6647 O   0  0  0  0  0  0
  -24.6245  -31.8625   23.2042 C   0  0  0  0  0  0
  -25.9113  -32.4796   23.8353 C   0  0  1  0  0  0
  -27.2331  -27.3638   20.0989 C   0  0  0  0  0  0
  -25.5940  -33.8589   24.2280 N   0  0  0  0  0  0
  -23.4136  -30.4874   21.5481 C   0  0  2  0  0  0
  -24.8581  -28.9469   20.1115 C   0  0  0  0  0  0
  -22.7467  -29.4636   22.4982 C   0  0  0  0  0  0
  -18.0284  -28.1374   22.8489 C   0  0  0  0  0  0
  -24.1490  -36.7275   23.2644 C   0  0  0  0  0  0
  -25.9507  -30.8076   21.3661 C   0  0  0  0  0  0
  -26.0257  -29.4392   20.7051 C   0  0  0  0  0  0
  -27.2161  -28.6626   20.6819 C   0  0  0  0  0  0
  -26.0291  -26.8969   19.5197 C   0  0  0  0  0  0
  -24.8593  -27.6783   19.5124 C   0  0  0  0  0  0
  -23.6230  -29.8207   20.1624 C   0  0  0  0  0  0
  -25.4115  -36.3070   24.0334 C   0  0  1  0  0  0
  -20.5883  -28.3656   23.1305 C   0  0  2  0  0  0
  -20.6768  -26.9389   22.5407 C   0  0  0  0  0  0
  -19.5740  -26.6377   21.5208 C   0  0  0  0  0  0
  -18.1923  -26.7924   22.1619 C   0  0  0  0  0  0
  -19.1536  -28.8838   23.2889 C   0  0  0  0  0  0
  -18.9462  -30.1449   23.8887 C   0  0  0  0  0  0
  -17.6460  -30.6574   24.0570 C   0  0  0  0  0  0
  -25.9055  -34.9452   23.5102 C   0  0  0  0  0  0
  -16.5359  -29.9064   23.6338 C   0  0  0  0  0  0
  -16.7272  -28.6491   23.0351 C   0  0  0  0  0  0
  -26.4527  -31.6593   25.0703 C   0  0  0  0  0  0
  -25.3777  -31.3719   26.1434 C   0  0  0  0  0  0
  -27.0358  -30.3023   24.6110 C   0  0  0  0  0  0
  -27.6080  -32.4340   25.7453 C   0  0  0  0  0  0
  -27.5585  -37.1774   24.8467 C   0  0  0  0  0  0
  -21.4193  -29.3017   22.3713 N   0  0  0  0  0  0
  -26.4295  -37.3770   23.9415 N   0  0  0  0  0  0
  -24.6817  -31.0680   22.0965 N   0  0  0  0  0  0
  -23.4212  -28.8194   23.3058 O   0  0  0  0  0  0
  -28.4002  -26.5922   20.1138 O   0  0  0  0  0  0
  -26.5623  -34.8941   22.4665 O   0  0  0  0  0  0
  -23.5417  -32.1421   23.7380 O   0  0  0  0  0  0
  -28.8882  -17.5190   21.9621 C   0  0  0  0  0  0
  -29.0522  -18.9395   22.0228 C   0  0  0  0  0  0
  -30.1616  -19.3908   21.3466 C   0  0  0  0  0  0
  -29.8673  -16.8302   21.2896 C   0  0  0  0  0  0
  -29.3632  -22.9310   21.1054 C   0  0  0  0  0  0
  -28.1287  -19.8103   22.8138 C   0  0  0  0  0  0
  -28.3546  -24.8310   18.3894 C   0  0  0  0  0  0
  -30.7463  -20.8076   21.3620 C   0  0  0  0  0  0
  -29.5519  -24.3900   20.5768 C   0  0  0  0  0  0
  -28.3430  -25.1394   19.9027 C   0  0  1  0  0  0
  -29.8592  -15.4608   21.1952 N   0  0  0  0  0  0
  -30.1097  -21.9172   20.5938 N   0  0  0  0  0  0
  -28.6378  -22.7622   22.0848 O   0  0  0  0  0  0
  -31.0129  -18.0037   20.6331 S   0  0  0  0  0  0
  -31.4903  -12.4865   19.1373 H   0  0  0  0  0  0
  -30.3833  -11.3351   19.8270 H   0  0  0  0  0  0
  -29.7727  -11.8099   17.4348 H   0  0  0  0  0  0
  -29.6602  -13.5146   17.7762 H   0  0  0  0  0  0
  -27.8559  -11.3055   18.8246 H   0  0  0  0  0  0
  -27.3816  -12.6243   17.7836 H   0  0  0  0  0  0
  -27.7103  -14.2485   19.5807 H   0  0  0  0  0  0
  -28.6962  -11.9132   21.2892 H   0  0  0  0  0  0
  -28.4443  -13.5095   21.9003 H   0  0  0  0  0  0
  -25.2739   -9.5660   22.4765 H   0  0  0  0  0  0
  -23.9961   -7.4627   22.7489 H   0  0  0  0  0  0
  -21.0792   -8.8837   19.8971 H   0  0  0  0  0  0
  -22.3716  -10.9691   19.6185 H   0  0  0  0  0  0
  -21.2032   -7.6144   23.9737 H   0  0  0  0  0  0
  -21.1478   -6.0500   25.9085 H   0  0  0  0  0  0
  -22.0585   -2.7607   23.2831 H   0  0  0  0  0  0
  -22.3957  -12.0035   22.4887 H   0  0  0  0  0  0
  -21.1084  -13.1470   22.2522 H   0  0  0  0  0  0
  -24.6731  -15.8454   20.5388 H   0  0  0  0  0  0
  -26.2897  -15.6269   20.1010 H   0  0  0  0  0  0
  -26.7168  -32.5470   23.1084 H   0  0  0  0  0  0
  -25.0104  -33.9745   25.0432 H   0  0  0  0  0  0
  -22.7041  -31.3059   21.4089 H   0  0  0  0  0  0
  -23.3771  -35.9592   23.3316 H   0  0  0  0  0  0
  -24.3580  -36.8892   22.2059 H   0  0  0  0  0  0
  -23.7248  -37.6482   23.6658 H   0  0  0  0  0  0
  -26.0804  -31.5803   20.6067 H   0  0  0  0  0  0
  -26.8314  -30.8501   21.9947 H   0  0  0  0  0  0
  -28.1197  -29.0460   21.1352 H   0  0  0  0  0  0
  -25.9516  -25.9186   19.0743 H   0  0  0  0  0  0
  -23.9580  -27.2912   19.0580 H   0  0  0  0  0  0
  -23.7338  -30.5973   19.4053 H   0  0  0  0  0  0
  -22.7434  -29.2464   19.8676 H   0  0  0  0  0  0
  -25.1303  -36.1917   25.0835 H   0  0  0  0  0  0
  -20.9965  -28.3211   24.1432 H   0  0  0  0  0  0
  -20.5666  -26.2269   23.3597 H   0  0  0  0  0  0
  -21.6645  -26.7422   22.1216 H   0  0  0  0  0  0
  -19.6909  -25.6290   21.1238 H   0  0  0  0  0  0
  -19.6690  -27.3200   20.6750 H   0  0  0  0  0  0
  -17.4203  -26.6692   21.4011 H   0  0  0  0  0  0
  -18.0313  -26.0057   22.9001 H   0  0  0  0  0  0
  -19.7941  -30.7278   24.2242 H   0  0  0  0  0  0
  -17.5012  -31.6262   24.5158 H   0  0  0  0  0  0
  -15.5354  -30.2961   23.7655 H   0  0  0  0  0  0
  -15.8683  -28.0811   22.7041 H   0  0  0  0  0  0
  -24.5929  -30.7102   25.7761 H   0  0  0  0  0  0
  -24.9003  -32.2885   26.4891 H   0  0  0  0  0  0
  -25.8115  -30.8867   27.0177 H   0  0  0  0  0  0
  -26.2899  -29.6755   24.1204 H   0  0  0  0  0  0
  -27.4179  -29.7294   25.4567 H   0  0  0  0  0  0
  -27.8719  -30.4344   23.9237 H   0  0  0  0  0  0
  -27.2681  -33.3623   26.2047 H   0  0  0  0  0  0
  -28.3855  -32.6934   25.0260 H   0  0  0  0  0  0
  -28.0787  -31.8476   26.5346 H   0  0  0  0  0  0
  -28.2592  -38.0074   24.7532 H   0  0  0  0  0  0
  -28.1087  -36.2613   24.6264 H   0  0  0  0  0  0
  -27.2314  -37.1421   25.8872 H   0  0  0  0  0  0
  -20.9357  -29.8724   21.6923 H   0  0  0  0  0  0
  -26.0177  -38.2850   24.1415 H   0  0  0  0  0  0
  -28.0582  -17.0414   22.4629 H   0  0  0  0  0  0
  -27.4609  -19.2190   23.4393 H   0  0  0  0  0  0
  -27.5136  -20.4278   22.1574 H   0  0  0  0  0  0
  -28.6857  -20.4666   23.4824 H   0  0  0  0  0  0
  -28.2554  -23.7595   18.2120 H   0  0  0  0  0  0
  -29.2891  -25.1532   17.9316 H   0  0  0  0  0  0
  -27.5566  -25.3210   17.8365 H   0  0  0  0  0  0
  -31.7777  -20.7526   21.0108 H   0  0  0  0  0  0
  -30.8485  -21.1234   22.4024 H   0  0  0  0  0  0
  -30.4340  -24.4359   19.9368 H   0  0  0  0  0  0
  -29.8235  -24.9620   21.4615 H   0  0  0  0  0  0
  -27.4242  -24.7495   20.3483 H   0  0  0  0  0  0
  -29.0256  -15.0356   21.5709 H   0  0  0  0  0  0
  -30.5915  -22.1390   19.7320 H   0  0  0  0  0  0
  1 25  1  0  0  0
  1 30  2  0  0  0
  1 81  1  0  0  0
  2  3  1  0  0  0
  2 25  1  0  0  0
  2 85  1  0  0  0
  2 86  1  0  0  0
  3  4  1  0  0  0
  3 87  1  0  0  0
  3 88  1  0  0  0
  4  5  1  0  0  0
  4 89  1  0  0  0
  4 90  1  0  0  0
  5  6  1  0  0  0
  5 26  1  0  0  0
  5 91  1  0  0  0
  6 25  1  0  0  0
  6 92  1  0  0  0
  6 93  1  0  0  0
  7  8  2  0  0  0
  7 26  1  0  0  0
  7 29  1  0  0  0
  8  9  1  0  0  0
  8 22  1  0  0  0
  9 10  1  0  0  0
  9 27  2  0  0  0
 10 11  2  0  0  0
 10 15  1  0  0  0
 11 12  1  0  0  0
 11 94  1  0  0  0
 12 13  2  0  0  0
 12 95  1  0  0  0
 13 14  1  0  0  0
 13 31  1  0  0  0
 14 15  2  0  0  0
 14 96  1  0  0  0
 15 97  1  0  0  0
 16 17  2  0  0  0
 16 21  1  0  0  0
 16 31  1  0  0  0
 17 18  1  0  0  0
 17 98  1  0  0  0
 18 19  2  0  0  0
 18 99  1  0  0  0
 19 20  1  0  0  0
 19 24  1  0  0  0
 20 21  2  0  0  0
 20100  1  0  0  0
 21 23  1  0  0  0
 22 28  1  0  0  0
 22 32  2  0  0  0
 26 27  1  0  0  0
 28101  1  0  0  0
 28102  1  0  0  0
 29103  1  0  0  0
 29104  1  0  0  0
 33 34  1  0  0  0
 33 66  1  0  0  0
 33 70  2  0  0  0
 34 36  1  0  0  0
 34 59  1  0  0  0
 34105  1  0  0  0
 35 44  2  0  0  0
 35 45  1  0  0  0
 35 68  1  0  0  0
 36 56  1  0  0  0
 36106  1  0  0  0
 37 39  1  0  0  0
 37 47  1  0  0  0
 37 66  1  0  0  0
 37107  1  0  0  0
 38 43  2  0  0  0
 38 46  1  0  0  0
 38 47  1  0  0  0
 39 64  1  0  0  0
 39 67  2  0  0  0
 40 52  1  0  0  0
 40 53  2  0  0  0
 40 58  1  0  0  0
 41108  1  0  0  0
 41109  1  0  0  0
 41110  1  0  0  0
 41 48  1  0  0  0
 42 43  1  0  0  0
 42 66  1  0  0  0
 42111  1  0  0  0
 42112  1  0  0  0
 43 44  1  0  0  0
 44113  1  0  0  0
 45 46  2  0  0  0
 45114  1  0  0  0
 46115  1  0  0  0
 47116  1  0  0  0
 47117  1  0  0  0
 48 56  1  0  0  0
 48 65  1  0  0  0
 48118  1  0  0  0
 49 50  1  0  0  0
 49 53  1  0  0  0
 49 64  1  0  0  0
 49119  1  0  0  0
 50 51  1  0  0  0
 50120  1  0  0  0
 50121  1  0  0  0
 51 52  1  0  0  0
 51122  1  0  0  0
 51123  1  0  0  0
 52124  1  0  0  0
 52125  1  0  0  0
 53 54  1  0  0  0
 54 55  2  0  0  0
 54126  1  0  0  0
 55 57  1  0  0  0
 55127  1  0  0  0
 56 69  2  0  0  0
 57 58  2  0  0  0
 57128  1  0  0  0
 58129  1  0  0  0
 59 60  1  0  0  0
 59 61  1  0  0  0
 59 62  1  0  0  0
 60130  1  0  0  0
 60131  1  0  0  0
 60132  1  0  0  0
 61133  1  0  0  0
 61134  1  0  0  0
 61135  1  0  0  0
 62136  1  0  0  0
 62137  1  0  0  0
 62138  1  0  0  0
 63 65  1  0  0  0
 63139  1  0  0  0
 63140  1  0  0  0
 63141  1  0  0  0
 64142  1  0  0  0
 65143  1  0  0  0
 68 80  1  0  0  0
 71 72  1  0  0  0
 71 74  2  0  0  0
 71144  1  0  0  0
 72 73  2  0  0  0
 72 76  1  0  0  0
 73 78  1  0  0  0
 73 84  1  0  0  0
 74 81  1  0  0  0
 74 84  1  0  0  0
 75 79  1  0  0  0
 75 82  1  0  0  0
 75 83  2  0  0  0
 76145  1  0  0  0
 76146  1  0  0  0
 76147  1  0  0  0
 77148  1  0  0  0
 77149  1  0  0  0
 77150  1  0  0  0
 77 80  1  0  0  0
 78 82  1  0  0  0
 78151  1  0  0  0
 78152  1  0  0  0
 79 80  1  0  0  0
 79153  1  0  0  0
 79154  1  0  0  0
 80155  1  0  0  0
 81156  1  0  0  0
 82157  1  0  0  0
M  ISO  4   1 100  68 101  80 101  81 100
M  END
> <chiral flag>
0

> <version>
0

> <s_m_source_file>
/data/baiqing/PycharmProjects/Reinvent-master-3.2/result/LINK_invent/BTK/process_docking_weight1_custom_product_contain_oxygen_bond_distance_aromatic_linkinvent_7_9_3/rearranged_h_0167.sdf

> <i_m_source_file_index>
95

> <r_mmod_Potential_Energy-OPLS-2005>
-85.4946975708008

> <r_mmod_Stretch_Energy-OPLS-2005>
54.9205551147461

> <r_mmod_Bend_Energy-OPLS-2005>
151.329864501953

> <r_mmod_Torsional_Energy-OPLS-2005>
206.335357666016

> <r_mmod_Improper_Torsional_Energy-OPLS-2005>
7.27437019348145

> <r_mmod_Van_der_Waal_Energy-OPLS-2005>
124.210075378418

> <r_mmod_Electrostatic_Energy-OPLS-2005>
-417.266448974609

> <r_mmod_Solvation_Energy-OPLS-2005>
-237.107269287109

> <b_mmod_Minimization_Converged-OPLS-2005>
0

> <r_mmod_RMS_Derivative-OPLS-2005>
3.67867946624756

$$$$
