0
                    3D
 Structure written by MMmdl.
157166  0  0  1  0            999 V2000
  -30.4353  -15.2087   20.3723 C   0  0  0  0  0  0
  -30.4446  -12.7636   19.5296 C   0  0  0  0  0  0
  -29.5379  -12.5681   18.2883 C   0  0  0  0  0  0
  -28.0819  -12.3044   18.7116 C   0  0  0  0  0  0
  -27.6185  -13.2699   19.8318 C   0  0  2  0  0  0
  -28.6517  -13.4023   20.9710 C   0  0  0  0  0  0
  -25.2415  -13.8240   20.5733 C   0  0  0  0  0  0
  -24.1760  -13.0440   20.9250 C   0  0  0  0  0  0
  -24.6405  -11.6932   20.8767 C   0  0  0  0  0  0
  -23.9097  -10.4293   21.0412 C   0  0  0  0  0  0
  -24.3642   -9.4207   21.9185 C   0  0  0  0  0  0
  -23.6306   -8.2250   22.0755 C   0  0  0  0  0  0
  -22.4289   -8.0290   21.3548 C   0  0  0  0  0  0
  -21.9933   -9.0266   20.4652 C   0  0  0  0  0  0
  -22.7271  -10.2137   20.3059 C   0  0  0  0  0  0
  -21.6856   -6.0745   22.5278 C   0  0  0  0  0  0
  -21.4009   -6.5645   23.8214 C   0  0  0  0  0  0
  -21.3656   -5.6796   24.9172 C   0  0  0  0  0  0
  -21.6040   -4.3057   24.7218 C   0  0  0  0  0  0
  -21.8821   -3.8154   23.4340 C   0  0  0  0  0  0
  -21.9188   -4.6973   22.3395 C   0  0  0  0  0  0
  -22.7776  -13.5193   21.1891 C   0  0  0  0  0  0
  -22.1660   -4.2158   21.0976 F   0  0  0  0  0  0
  -21.5625   -3.4538   25.7731 F   0  0  0  0  0  0
  -29.8966  -13.8953   20.3605 N   0  0  0  0  0  0
  -26.2843  -12.9508   20.3237 N   0  0  0  0  0  0
  -25.9342  -11.6615   20.5730 N   0  0  0  0  0  0
  -22.0433  -12.8182   22.0452 N   0  0  0  0  0  0
  -25.4070  -15.1970   20.4169 N   0  0  0  0  0  0
  -31.6431  -15.2481   20.0935 O   0  0  0  0  0  0
  -21.6644   -6.8894   21.4246 O   0  0  0  0  0  0
  -22.3456  -14.5492   20.6729 O   0  0  0  0  0  0
  -24.6586  -31.8272   23.1706 C   0  0  0  0  0  0
  -25.9285  -32.4607   23.8165 C   0  0  1  0  0  0
  -27.2224  -26.9643   20.1854 C   0  0  0  0  0  0
  -25.5984  -33.8423   24.2091 N   0  0  0  0  0  0
  -23.4714  -30.4373   21.5177 C   0  0  2  0  0  0
  -24.9245  -28.8260   20.1068 C   0  0  0  0  0  0
  -22.7639  -29.4468   22.4788 C   0  0  0  0  0  0
  -18.0318  -28.1422   22.8498 C   0  0  0  0  0  0
  -24.1477  -36.7198   23.2651 C   0  0  0  0  0  0
  -26.0360  -30.6455   21.3938 C   0  0  0  0  0  0
  -26.1032  -29.2373   20.7399 C   0  0  0  0  0  0
  -27.2438  -28.3254   20.7561 C   0  0  0  0  0  0
  -26.0182  -26.6914   19.4998 C   0  0  0  0  0  0
  -24.9045  -27.5739   19.4676 C   0  0  0  0  0  0
  -23.7078  -29.7491   20.1437 C   0  0  0  0  0  0
  -25.4124  -36.2971   24.0304 C   0  0  1  0  0  0
  -20.5944  -28.3759   23.1217 C   0  0  2  0  0  0
  -20.6796  -26.9448   22.5415 C   0  0  0  0  0  0
  -19.5760  -26.6397   21.5232 C   0  0  0  0  0  0
  -18.1947  -26.7964   22.1637 C   0  0  0  0  0  0
  -19.1584  -28.8911   23.2848 C   0  0  0  0  0  0
  -18.9490  -30.1508   23.8865 C   0  0  0  0  0  0
  -17.6483  -30.6616   24.0566 C   0  0  0  0  0  0
  -25.9091  -34.9361   23.5016 C   0  0  0  0  0  0
  -16.5376  -29.9105   23.6360 C   0  0  0  0  0  0
  -16.7301  -28.6526   23.0382 C   0  0  0  0  0  0
  -26.4561  -31.6542   25.0679 C   0  0  0  0  0  0
  -25.3703  -31.3816   26.1355 C   0  0  0  0  0  0
  -27.0441  -30.2910   24.6372 C   0  0  0  0  0  0
  -27.6061  -32.4351   25.7469 C   0  0  0  0  0  0
  -27.5548  -37.1775   24.8488 C   0  0  0  0  0  0
  -21.4314  -29.3049   22.3549 N   0  0  0  0  0  0
  -26.4273  -37.3700   23.9402 N   0  0  0  0  0  0
  -24.7423  -30.9975   22.0810 N   0  0  0  0  0  0
  -23.4212  -28.8063   23.3028 O   0  0  0  0  0  0
  -28.2583  -25.9134   20.3135 O   0  0  0  0  0  0
  -26.5686  -34.8891   22.4599 O   0  0  0  0  0  0
  -23.5672  -32.1226   23.6834 O   0  0  0  0  0  0
  -30.7031  -19.9801   19.0191 C   0  0  0  0  0  0
  -30.6563  -18.5845   19.3910 C   0  0  0  0  0  0
  -28.8249  -19.1434   20.7878 C   0  0  0  0  0  0
  -29.8374  -21.0256   19.4980 C   0  0  0  0  0  0
  -28.8643  -20.6279   20.4434 C   0  0  0  0  0  0
  -29.7041  -18.0169   20.2869 C   0  0  0  0  0  0
  -27.6794  -23.1439   20.8952 C   0  0  0  0  0  0
  -29.7509  -23.6853   19.7122 C   0  0  0  0  0  0
  -28.3041  -24.3172   19.9307 C   0  0  2  0  0  0
  -31.2434  -22.9825   16.9711 C   0  0  0  0  0  0
  -29.9079  -22.4494   17.5049 C   0  0  0  0  0  0
  -27.9479  -21.7305   20.9824 N   0  0  0  0  0  0
  -29.8865  -22.3727   18.9649 N   0  0  0  0  0  0
  -29.6326  -16.4316   20.5618 N   0  0  0  0  0  0
  -26.8197  -23.5524   21.6790 O   0  0  0  0  0  0
  -31.4645  -12.9647   19.1990 H   0  0  0  0  0  0
  -30.5040  -11.8451   20.1156 H   0  0  0  0  0  0
  -29.9054  -11.7443   17.6755 H   0  0  0  0  0  0
  -29.5816  -13.4602   17.6629 H   0  0  0  0  0  0
  -28.0265  -11.2766   19.0728 H   0  0  0  0  0  0
  -27.4140  -12.3626   17.8512 H   0  0  0  0  0  0
  -27.5498  -14.2474   19.3522 H   0  0  0  0  0  0
  -28.8014  -12.4520   21.4868 H   0  0  0  0  0  0
  -28.2983  -14.1108   21.7220 H   0  0  0  0  0  0
  -25.2786   -9.5663   22.4764 H   0  0  0  0  0  0
  -24.0003   -7.4632   22.7474 H   0  0  0  0  0  0
  -21.0861   -8.8792   19.8960 H   0  0  0  0  0  0
  -22.3734  -10.9677   19.6167 H   0  0  0  0  0  0
  -21.2014   -7.6159   23.9712 H   0  0  0  0  0  0
  -21.1469   -6.0530   25.9071 H   0  0  0  0  0  0
  -22.0603   -2.7618   23.2833 H   0  0  0  0  0  0
  -22.4050  -11.9844   22.4843 H   0  0  0  0  0  0
  -21.1047  -13.1199   22.2657 H   0  0  0  0  0  0
  -24.6363  -15.8466   20.5269 H   0  0  0  0  0  0
  -26.2441  -15.6356   20.0559 H   0  0  0  0  0  0
  -26.7362  -32.5148   23.0892 H   0  0  0  0  0  0
  -25.0133  -33.9509   25.0244 H   0  0  0  0  0  0
  -22.7835  -31.2680   21.3490 H   0  0  0  0  0  0
  -23.3721  -35.9548   23.3364 H   0  0  0  0  0  0
  -24.3539  -36.8779   22.2053 H   0  0  0  0  0  0
  -23.7261  -37.6418   23.6665 H   0  0  0  0  0  0
  -26.2115  -31.3870   20.6125 H   0  0  0  0  0  0
  -26.8996  -30.7042   22.0449 H   0  0  0  0  0  0
  -28.1353  -28.6387   21.2803 H   0  0  0  0  0  0
  -25.9029  -25.7294   19.0218 H   0  0  0  0  0  0
  -24.0074  -27.2550   18.9540 H   0  0  0  0  0  0
  -23.8578  -30.5158   19.3829 H   0  0  0  0  0  0
  -22.8189  -29.1983   19.8307 H   0  0  0  0  0  0
  -25.1328  -36.1771   25.0795 H   0  0  0  0  0  0
  -21.0047  -28.3351   24.1329 H   0  0  0  0  0  0
  -20.5686  -26.2376   23.3650 H   0  0  0  0  0  0
  -21.6662  -26.7442   22.1206 H   0  0  0  0  0  0
  -19.6906  -25.6292   21.1296 H   0  0  0  0  0  0
  -19.6685  -27.3184   20.6741 H   0  0  0  0  0  0
  -17.4221  -26.6741   21.4029 H   0  0  0  0  0  0
  -18.0313  -26.0109   22.9028 H   0  0  0  0  0  0
  -19.7966  -30.7357   24.2192 H   0  0  0  0  0  0
  -17.5040  -31.6288   24.5182 H   0  0  0  0  0  0
  -15.5377  -30.3000   23.7704 H   0  0  0  0  0  0
  -15.8703  -28.0840   22.7106 H   0  0  0  0  0  0
  -24.5857  -30.7197   25.7689 H   0  0  0  0  0  0
  -24.8924  -32.3035   26.4672 H   0  0  0  0  0  0
  -25.7937  -30.9052   27.0203 H   0  0  0  0  0  0
  -26.3091  -29.6611   24.1349 H   0  0  0  0  0  0
  -27.3974  -29.7253   25.5003 H   0  0  0  0  0  0
  -27.9038  -30.4115   23.9776 H   0  0  0  0  0  0
  -27.2635  -33.3706   26.1908 H   0  0  0  0  0  0
  -28.3930  -32.6829   25.0336 H   0  0  0  0  0  0
  -28.0659  -31.8566   26.5491 H   0  0  0  0  0  0
  -28.2629  -38.0007   24.7439 H   0  0  0  0  0  0
  -28.0976  -36.2537   24.6434 H   0  0  0  0  0  0
  -27.2271  -37.1580   25.8898 H   0  0  0  0  0  0
  -20.9549  -29.8713   21.6674 H   0  0  0  0  0  0
  -26.0118  -38.2766   24.1353 H   0  0  0  0  0  0
  -31.4613  -20.2494   18.2994 H   0  0  0  0  0  0
  -31.3756  -17.9250   18.9276 H   0  0  0  0  0  0
  -28.0513  -18.8514   21.4824 H   0  0  0  0  0  0
  -30.2473  -23.5807   20.6791 H   0  0  0  0  0  0
  -30.3468  -24.4290   19.1857 H   0  0  0  0  0  0
  -27.7750  -24.2428   18.9810 H   0  0  0  0  0  0
  -31.2412  -22.9867   15.8809 H   0  0  0  0  0  0
  -32.0808  -22.3640   17.2943 H   0  0  0  0  0  0
  -31.4382  -24.0044   17.2969 H   0  0  0  0  0  0
  -29.7000  -21.4748   17.0597 H   0  0  0  0  0  0
  -29.0950  -23.0981   17.1726 H   0  0  0  0  0  0
  -27.3154  -21.3508   21.6711 H   0  0  0  0  0  0
  -28.7298  -16.1649   20.9258 H   0  0  0  0  0  0
  1 25  1  0  0  0
  1 30  2  0  0  0
  1 84  1  0  0  0
  2  3  1  0  0  0
  2 25  1  0  0  0
  2 86  1  0  0  0
  2 87  1  0  0  0
  3  4  1  0  0  0
  3 88  1  0  0  0
  3 89  1  0  0  0
  4  5  1  0  0  0
  4 90  1  0  0  0
  4 91  1  0  0  0
  5  6  1  0  0  0
  5 26  1  0  0  0
  5 92  1  0  0  0
  6 25  1  0  0  0
  6 93  1  0  0  0
  6 94  1  0  0  0
  7  8  2  0  0  0
  7 26  1  0  0  0
  7 29  1  0  0  0
  8  9  1  0  0  0
  8 22  1  0  0  0
  9 10  1  0  0  0
  9 27  2  0  0  0
 10 11  2  0  0  0
 10 15  1  0  0  0
 11 12  1  0  0  0
 11 95  1  0  0  0
 12 13  2  0  0  0
 12 96  1  0  0  0
 13 14  1  0  0  0
 13 31  1  0  0  0
 14 15  2  0  0  0
 14 97  1  0  0  0
 15 98  1  0  0  0
 16 17  2  0  0  0
 16 21  1  0  0  0
 16 31  1  0  0  0
 17 18  1  0  0  0
 17 99  1  0  0  0
 18 19  2  0  0  0
 18100  1  0  0  0
 19 20  1  0  0  0
 19 24  1  0  0  0
 20 21  2  0  0  0
 20101  1  0  0  0
 21 23  1  0  0  0
 22 28  1  0  0  0
 22 32  2  0  0  0
 26 27  1  0  0  0
 28102  1  0  0  0
 28103  1  0  0  0
 29104  1  0  0  0
 29105  1  0  0  0
 33 34  1  0  0  0
 33 66  1  0  0  0
 33 70  2  0  0  0
 34 36  1  0  0  0
 34 59  1  0  0  0
 34106  1  0  0  0
 35 44  2  0  0  0
 35 45  1  0  0  0
 35 68  1  0  0  0
 36 56  1  0  0  0
 36107  1  0  0  0
 37 39  1  0  0  0
 37 47  1  0  0  0
 37 66  1  0  0  0
 37108  1  0  0  0
 38 43  2  0  0  0
 38 46  1  0  0  0
 38 47  1  0  0  0
 39 64  1  0  0  0
 39 67  2  0  0  0
 40 52  1  0  0  0
 40 53  2  0  0  0
 40 58  1  0  0  0
 41109  1  0  0  0
 41110  1  0  0  0
 41111  1  0  0  0
 41 48  1  0  0  0
 42 43  1  0  0  0
 42 66  1  0  0  0
 42112  1  0  0  0
 42113  1  0  0  0
 43 44  1  0  0  0
 44114  1  0  0  0
 45 46  2  0  0  0
 45115  1  0  0  0
 46116  1  0  0  0
 47117  1  0  0  0
 47118  1  0  0  0
 48 56  1  0  0  0
 48 65  1  0  0  0
 48119  1  0  0  0
 49 50  1  0  0  0
 49 53  1  0  0  0
 49 64  1  0  0  0
 49120  1  0  0  0
 50 51  1  0  0  0
 50121  1  0  0  0
 50122  1  0  0  0
 51 52  1  0  0  0
 51123  1  0  0  0
 51124  1  0  0  0
 52125  1  0  0  0
 52126  1  0  0  0
 53 54  1  0  0  0
 54 55  2  0  0  0
 54127  1  0  0  0
 55 57  1  0  0  0
 55128  1  0  0  0
 56 69  2  0  0  0
 57 58  2  0  0  0
 57129  1  0  0  0
 58130  1  0  0  0
 59 60  1  0  0  0
 59 61  1  0  0  0
 59 62  1  0  0  0
 60131  1  0  0  0
 60132  1  0  0  0
 60133  1  0  0  0
 61134  1  0  0  0
 61135  1  0  0  0
 61136  1  0  0  0
 62137  1  0  0  0
 62138  1  0  0  0
 62139  1  0  0  0
 63 65  1  0  0  0
 63140  1  0  0  0
 63141  1  0  0  0
 63142  1  0  0  0
 64143  1  0  0  0
 65144  1  0  0  0
 68 79  1  0  0  0
 71 72  2  0  0  0
 71 74  1  0  0  0
 71145  1  0  0  0
 72 76  1  0  0  0
 72146  1  0  0  0
 73 75  1  0  0  0
 73 76  2  0  0  0
 73147  1  0  0  0
 74 75  2  0  0  0
 74 83  1  0  0  0
 75 82  1  0  0  0
 76 84  1  0  0  0
 77 79  1  0  0  0
 77 82  1  0  0  0
 77 85  2  0  0  0
 78 79  1  0  0  0
 78 83  1  0  0  0
 78148  1  0  0  0
 78149  1  0  0  0
 79150  1  0  0  0
 80 81  1  0  0  0
 80151  1  0  0  0
 80152  1  0  0  0
 80153  1  0  0  0
 81 83  1  0  0  0
 81154  1  0  0  0
 81155  1  0  0  0
 82156  1  0  0  0
 84157  1  0  0  0
M  ISO  4   1 100  68 101  79 101  84 100
M  END
> <chiral flag>
0

> <version>
0

> <s_m_source_file>
/data/baiqing/PycharmProjects/Reinvent-master-3.2/result/LINK_invent/BTK/process_docking_weight1_custom_product_contain_oxygen_bond_distance_aromatic_linkinvent_7_9_3/rearranged_h_0029.sdf

> <i_m_source_file_index>
1

> <r_mmod_Potential_Energy-OPLS-2005>
1000.44348144531

> <r_mmod_Stretch_Energy-OPLS-2005>
426.734222412109

> <r_mmod_Bend_Energy-OPLS-2005>
418.171783447266

> <r_mmod_Torsional_Energy-OPLS-2005>
235.981475830078

> <r_mmod_Improper_Torsional_Energy-OPLS-2005>
3.50431394577026

> <r_mmod_Van_der_Waal_Energy-OPLS-2005>
129.235000610352

> <r_mmod_Electrostatic_Energy-OPLS-2005>
-368.958312988281

> <r_mmod_Solvation_Energy-OPLS-2005>
-244.587097167969

> <b_mmod_Minimization_Converged-OPLS-2005>
0

> <r_mmod_RMS_Derivative-OPLS-2005>
1.92845284938812

$$$$
1
                    3D
 Structure written by MMmdl.
183192  0  0  1  0            999 V2000
  -30.6306  -14.8455   20.4289 C   0  0  0  0  0  0
  -30.4207  -12.5321   19.4683 C   0  0  0  0  0  0
  -29.4955  -12.4971   18.2340 C   0  0  0  0  0  0
  -28.0338  -12.2910   18.6709 C   0  0  0  0  0  0
  -27.6240  -13.2200   19.8403 C   0  0  2  0  0  0
  -28.6834  -13.2181   20.9715 C   0  0  0  0  0  0
  -25.2401  -13.8170   20.5791 C   0  0  0  0  0  0
  -24.1704  -13.0414   20.9315 C   0  0  0  0  0  0
  -24.6312  -11.6895   20.8841 C   0  0  0  0  0  0
  -23.9019  -10.4271   21.0470 C   0  0  0  0  0  0
  -24.3585   -9.4207   21.9247 C   0  0  0  0  0  0
  -23.6294   -8.2230   22.0756 C   0  0  0  0  0  0
  -22.4277   -8.0274   21.3562 C   0  0  0  0  0  0
  -21.9907   -9.0241   20.4657 C   0  0  0  0  0  0
  -22.7204  -10.2128   20.3092 C   0  0  0  0  0  0
  -21.6836   -6.0792   22.5330 C   0  0  0  0  0  0
  -21.4008   -6.5683   23.8276 C   0  0  0  0  0  0
  -21.3632   -5.6807   24.9233 C   0  0  0  0  0  0
  -21.6026   -4.3079   24.7250 C   0  0  0  0  0  0
  -21.8805   -3.8185   23.4370 C   0  0  0  0  0  0
  -21.9191   -4.7027   22.3442 C   0  0  0  0  0  0
  -22.7741  -13.5233   21.1978 C   0  0  0  0  0  0
  -22.1655   -4.2217   21.1018 F   0  0  0  0  0  0
  -21.5592   -3.4528   25.7753 F   0  0  0  0  0  0
  -29.9524  -13.6326   20.3574 N   0  0  0  0  0  0
  -26.2831  -12.9359   20.3356 N   0  0  0  0  0  0
  -25.9250  -11.6537   20.5891 N   0  0  0  0  0  0
  -22.0281  -12.8265   22.0495 N   0  0  0  0  0  0
  -25.3918  -15.1904   20.4177 N   0  0  0  0  0  0
  -31.8311  -14.8130   20.1366 O   0  0  0  0  0  0
  -21.6618   -6.8899   21.4284 O   0  0  0  0  0  0
  -22.3497  -14.5562   20.6827 O   0  0  0  0  0  0
  -24.6343  -31.8535   23.2003 C   0  0  0  0  0  0
  -25.9197  -32.4719   23.8321 C   0  0  1  0  0  0
  -27.2044  -27.2494   20.0883 C   0  0  0  0  0  0
  -25.6005  -33.8533   24.2234 N   0  0  0  0  0  0
  -23.4294  -30.4775   21.5433 C   0  0  2  0  0  0
  -24.8667  -28.9263   20.1050 C   0  0  0  0  0  0
  -22.7499  -29.4606   22.4897 C   0  0  0  0  0  0
  -18.0322  -28.1433   22.8531 C   0  0  0  0  0  0
  -24.1497  -36.7262   23.2623 C   0  0  0  0  0  0
  -25.9737  -30.7510   21.3888 C   0  0  0  0  0  0
  -26.0372  -29.3749   20.7242 C   0  0  0  0  0  0
  -27.2035  -28.5455   20.7156 C   0  0  0  0  0  0
  -26.0099  -26.8703   19.4404 C   0  0  0  0  0  0
  -24.8551  -27.6798   19.4620 C   0  0  0  0  0  0
  -23.6435  -29.8196   20.1582 C   0  0  0  0  0  0
  -25.4126  -36.3018   24.0281 C   0  0  1  0  0  0
  -20.5910  -28.3750   23.1273 C   0  0  2  0  0  0
  -20.6824  -26.9461   22.5427 C   0  0  0  0  0  0
  -19.5778  -26.6417   21.5276 C   0  0  0  0  0  0
  -18.1954  -26.7962   22.1656 C   0  0  0  0  0  0
  -19.1574  -28.8910   23.2880 C   0  0  0  0  0  0
  -18.9481  -30.1525   23.8873 C   0  0  0  0  0  0
  -17.6469  -30.6607   24.0624 C   0  0  0  0  0  0
  -25.9079  -34.9397   23.5034 C   0  0  0  0  0  0
  -16.5367  -29.9109   23.6355 C   0  0  0  0  0  0
  -16.7298  -28.6546   23.0348 C   0  0  0  0  0  0
  -26.4565  -31.6557   25.0706 C   0  0  0  0  0  0
  -25.3786  -31.3752   26.1426 C   0  0  0  0  0  0
  -27.0459  -30.2966   24.6242 C   0  0  0  0  0  0
  -27.6090  -32.4348   25.7513 C   0  0  0  0  0  0
  -27.5568  -37.1751   24.8427 C   0  0  0  0  0  0
  -21.4204  -29.3080   22.3627 N   0  0  0  0  0  0
  -26.4260  -37.3736   23.9390 N   0  0  0  0  0  0
  -24.6979  -31.0444   22.1012 N   0  0  0  0  0  0
  -23.4192  -28.8130   23.2979 O   0  0  0  0  0  0
  -28.3146  -26.3710   20.1443 O   0  0  0  0  0  0
  -26.5603  -34.8877   22.4583 O   0  0  0  0  0  0
  -23.5491  -32.1420   23.7272 O   0  0  0  0  0  0
  -32.7627  -17.9426   22.3888 C   0  0  0  0  0  0
  -32.9107  -19.1327   21.6866 C   0  0  0  0  0  0
  -31.7541  -17.0575   22.0055 C   0  0  0  0  0  0
  -31.9556  -19.5249   20.7349 C   0  0  0  0  0  0
  -30.7482  -18.7717   20.5252 C   0  0  0  0  0  0
  -30.7966  -17.3478   20.9961 C   0  0  0  0  0  0
  -34.1635  -21.4425   16.9090 C   0  0  0  0  0  0
  -33.0957  -20.3784   16.6729 C   0  0  0  0  0  0
  -34.1251  -21.6719   18.4257 C   0  0  0  0  0  0
  -33.1972  -19.5198   17.9304 C   0  0  0  0  0  0
  -24.7792  -22.9296   21.2800 C   0  0  0  0  0  0
  -28.5963  -16.3856   20.4176 C   0  0  0  0  0  0
  -32.3678  -20.7555   19.9182 C   0  0  0  0  0  0
  -29.5826  -19.6250   19.8152 C   0  0  0  0  0  0
  -26.0908  -23.7195   21.2164 C   0  0  0  0  0  0
  -29.1444  -22.3100   19.6252 C   0  0  0  0  0  0
  -28.3941  -25.0239   19.4756 C   0  0  0  0  0  0
  -28.3330  -23.5761   20.2440 C   0  0  1  0  0  0
  -26.9605  -23.0731   20.2441 N   0  0  0  0  0  0
  -30.0167  -16.1231   20.6304 N   0  0  0  0  0  0
  -33.5206  -20.4574   19.0342 N   0  3  0  0  0  0
  -29.1764  -20.9943   20.4341 N   0  3  0  0  0  0
  -31.4536  -12.6561   19.1375 H   0  0  0  0  0  0
  -30.4008  -11.5759   19.9950 H   0  0  0  0  0  0
  -29.7981  -11.6974   17.5562 H   0  0  0  0  0  0
  -29.5903  -13.4288   17.6748 H   0  0  0  0  0  0
  -27.9350  -11.2497   18.9812 H   0  0  0  0  0  0
  -27.3609  -12.4207   17.8218 H   0  0  0  0  0  0
  -27.5733  -14.2066   19.3898 H   0  0  0  0  0  0
  -28.7664  -12.2249   21.4080 H   0  0  0  0  0  0
  -28.4206  -13.8699   21.8030 H   0  0  0  0  0  0
  -25.2705   -9.5715   22.4868 H   0  0  0  0  0  0
  -24.0019   -7.4606   22.7450 H   0  0  0  0  0  0
  -21.0837   -8.8751   19.8956 H   0  0  0  0  0  0
  -22.3658  -10.9696   19.6210 H   0  0  0  0  0  0
  -21.1987   -7.6187   23.9824 H   0  0  0  0  0  0
  -21.1457   -6.0525   25.9138 H   0  0  0  0  0  0
  -22.0592   -2.7658   23.2854 H   0  0  0  0  0  0
  -22.3767  -11.9928   22.5013 H   0  0  0  0  0  0
  -21.0876  -13.1358   22.2537 H   0  0  0  0  0  0
  -24.6208  -15.8302   20.5697 H   0  0  0  0  0  0
  -26.2371  -15.6534   20.1109 H   0  0  0  0  0  0
  -26.7227  -32.5316   23.1018 H   0  0  0  0  0  0
  -25.0227  -33.9746   25.0428 H   0  0  0  0  0  0
  -22.7314  -31.3032   21.4044 H   0  0  0  0  0  0
  -23.3749  -35.9596   23.3246 H   0  0  0  0  0  0
  -24.3571  -36.8969   22.2043 H   0  0  0  0  0  0
  -23.7284  -37.6444   23.6719 H   0  0  0  0  0  0
  -26.1121  -31.5200   20.6275 H   0  0  0  0  0  0
  -26.8507  -30.7948   22.0192 H   0  0  0  0  0  0
  -28.0964  -28.8771   21.2267 H   0  0  0  0  0  0
  -25.9216  -25.9231   18.9335 H   0  0  0  0  0  0
  -23.9547  -27.3323   18.9747 H   0  0  0  0  0  0
  -23.7760  -30.6055   19.4140 H   0  0  0  0  0  0
  -22.7570  -29.2648   19.8467 H   0  0  0  0  0  0
  -25.1319  -36.1813   25.0758 H   0  0  0  0  0  0
  -21.0033  -28.3372   24.1371 H   0  0  0  0  0  0
  -20.5851  -26.2360   23.3649 H   0  0  0  0  0  0
  -21.6669  -26.7558   22.1130 H   0  0  0  0  0  0
  -19.6938  -25.6339   21.1296 H   0  0  0  0  0  0
  -19.6681  -27.3246   20.6815 H   0  0  0  0  0  0
  -17.4242  -26.6811   21.4028 H   0  0  0  0  0  0
  -18.0258  -26.0099   22.9010 H   0  0  0  0  0  0
  -19.7939  -30.7418   24.2132 H   0  0  0  0  0  0
  -17.4993  -31.6244   24.5289 H   0  0  0  0  0  0
  -15.5350  -30.2999   23.7669 H   0  0  0  0  0  0
  -15.8706  -28.0879   22.6983 H   0  0  0  0  0  0
  -24.5918  -30.7164   25.7743 H   0  0  0  0  0  0
  -24.9069  -32.2980   26.4829 H   0  0  0  0  0  0
  -25.8086  -30.8921   27.0219 H   0  0  0  0  0  0
  -26.3082  -29.6631   24.1297 H   0  0  0  0  0  0
  -27.4177  -29.7272   25.4771 H   0  0  0  0  0  0
  -27.8950  -30.4209   23.9504 H   0  0  0  0  0  0
  -27.2631  -33.3625   26.2094 H   0  0  0  0  0  0
  -28.3920  -32.6976   25.0378 H   0  0  0  0  0  0
  -28.0760  -31.8512   26.5452 H   0  0  0  0  0  0
  -28.2487  -38.0124   24.7522 H   0  0  0  0  0  0
  -28.1158  -36.2654   24.6196 H   0  0  0  0  0  0
  -27.2280  -37.1315   25.8818 H   0  0  0  0  0  0
  -20.9389  -29.8765   21.6814 H   0  0  0  0  0  0
  -26.0109  -38.2766   24.1506 H   0  0  0  0  0  0
  -33.4779  -17.6656   23.1518 H   0  0  0  0  0  0
  -33.7767  -19.7497   21.8859 H   0  0  0  0  0  0
  -31.7529  -16.0982   22.4999 H   0  0  0  0  0  0
  -33.9846  -22.3562   16.3401 H   0  0  0  0  0  0
  -35.1392  -21.0517   16.6170 H   0  0  0  0  0  0
  -33.2555  -19.8055   15.7586 H   0  0  0  0  0  0
  -32.1072  -20.8388   16.6139 H   0  0  0  0  0  0
  -33.5296  -22.5599   18.6523 H   0  0  0  0  0  0
  -35.1232  -21.8487   18.8330 H   0  0  0  0  0  0
  -34.0261  -18.8175   17.8396 H   0  0  0  0  0  0
  -32.3019  -18.9237   18.0961 H   0  0  0  0  0  0
  -24.0795  -23.3976   21.9749 H   0  0  0  0  0  0
  -24.9511  -21.9074   21.6246 H   0  0  0  0  0  0
  -24.2914  -22.8773   20.3032 H   0  0  0  0  0  0
  -28.3094  -17.3251   20.8788 H   0  0  0  0  0  0
  -27.9489  -15.6948   20.9350 H   0  0  0  0  0  0
  -28.3460  -16.4173   19.3545 H   0  0  0  0  0  0
  -32.6183  -21.5670   20.6073 H   0  0  0  0  0  0
  -31.5923  -21.1271   19.2645 H   0  0  0  0  0  0
  -28.6701  -19.0458   19.7393 H   0  0  0  0  0  0
  -29.8481  -19.7830   18.7694 H   0  0  0  0  0  0
  -26.5661  -23.7422   22.1996 H   0  0  0  0  0  0
  -25.8890  -24.7499   20.9306 H   0  0  0  0  0  0
  -30.1622  -22.6522   19.4689 H   0  0  0  0  0  0
  -28.7588  -22.0909   18.6268 H   0  0  0  0  0  0
  -27.7629  -24.9988   18.5866 H   0  0  0  0  0  0
  -29.3933  -25.0550   19.0361 H   0  0  0  0  0  0
  -28.6869  -23.7168   21.2684 H   0  0  0  0  0  0
  -26.5617  -23.1743   19.3133 H   0  0  0  0  0  0
  -34.2260  -20.0160   19.6083 H   0  0  0  0  0  0
  -29.7182  -21.1460   21.2682 H   0  0  0  0  0  0
  -28.2267  -20.8826   20.7508 H   0  0  0  0  0  0
  1 25  1  0  0  0
  1 30  2  0  0  0
  1 90  1  0  0  0
  2  3  1  0  0  0
  2 25  1  0  0  0
  2 93  1  0  0  0
  2 94  1  0  0  0
  3  4  1  0  0  0
  3 95  1  0  0  0
  3 96  1  0  0  0
  4  5  1  0  0  0
  4 97  1  0  0  0
  4 98  1  0  0  0
  5  6  1  0  0  0
  5 26  1  0  0  0
  5 99  1  0  0  0
  6 25  1  0  0  0
  6100  1  0  0  0
  6101  1  0  0  0
  7  8  2  0  0  0
  7 26  1  0  0  0
  7 29  1  0  0  0
  8  9  1  0  0  0
  8 22  1  0  0  0
  9 10  1  0  0  0
  9 27  2  0  0  0
 10 11  2  0  0  0
 10 15  1  0  0  0
 11 12  1  0  0  0
 11102  1  0  0  0
 12 13  2  0  0  0
 12103  1  0  0  0
 13 14  1  0  0  0
 13 31  1  0  0  0
 14 15  2  0  0  0
 14104  1  0  0  0
 15105  1  0  0  0
 16 17  2  0  0  0
 16 21  1  0  0  0
 16 31  1  0  0  0
 17 18  1  0  0  0
 17106  1  0  0  0
 18 19  2  0  0  0
 18107  1  0  0  0
 19 20  1  0  0  0
 19 24  1  0  0  0
 20 21  2  0  0  0
 20108  1  0  0  0
 21 23  1  0  0  0
 22 28  1  0  0  0
 22 32  2  0  0  0
 26 27  1  0  0  0
 28109  1  0  0  0
 28110  1  0  0  0
 29111  1  0  0  0
 29112  1  0  0  0
 33 34  1  0  0  0
 33 66  1  0  0  0
 33 70  2  0  0  0
 34 36  1  0  0  0
 34 59  1  0  0  0
 34113  1  0  0  0
 35 44  2  0  0  0
 35 45  1  0  0  0
 35 68  1  0  0  0
 36 56  1  0  0  0
 36114  1  0  0  0
 37 39  1  0  0  0
 37 47  1  0  0  0
 37 66  1  0  0  0
 37115  1  0  0  0
 38 43  2  0  0  0
 38 46  1  0  0  0
 38 47  1  0  0  0
 39 64  1  0  0  0
 39 67  2  0  0  0
 40 52  1  0  0  0
 40 53  2  0  0  0
 40 58  1  0  0  0
 41116  1  0  0  0
 41117  1  0  0  0
 41118  1  0  0  0
 41 48  1  0  0  0
 42 43  1  0  0  0
 42 66  1  0  0  0
 42119  1  0  0  0
 42120  1  0  0  0
 43 44  1  0  0  0
 44121  1  0  0  0
 45 46  2  0  0  0
 45122  1  0  0  0
 46123  1  0  0  0
 47124  1  0  0  0
 47125  1  0  0  0
 48 56  1  0  0  0
 48 65  1  0  0  0
 48126  1  0  0  0
 49 50  1  0  0  0
 49 53  1  0  0  0
 49 64  1  0  0  0
 49127  1  0  0  0
 50 51  1  0  0  0
 50128  1  0  0  0
 50129  1  0  0  0
 51 52  1  0  0  0
 51130  1  0  0  0
 51131  1  0  0  0
 52132  1  0  0  0
 52133  1  0  0  0
 53 54  1  0  0  0
 54 55  2  0  0  0
 54134  1  0  0  0
 55 57  1  0  0  0
 55135  1  0  0  0
 56 69  2  0  0  0
 57 58  2  0  0  0
 57136  1  0  0  0
 58137  1  0  0  0
 59 60  1  0  0  0
 59 61  1  0  0  0
 59 62  1  0  0  0
 60138  1  0  0  0
 60139  1  0  0  0
 60140  1  0  0  0
 61141  1  0  0  0
 61142  1  0  0  0
 61143  1  0  0  0
 62144  1  0  0  0
 62145  1  0  0  0
 62146  1  0  0  0
 63 65  1  0  0  0
 63147  1  0  0  0
 63148  1  0  0  0
 63149  1  0  0  0
 64150  1  0  0  0
 65151  1  0  0  0
 68 87  1  0  0  0
 71 72  2  0  0  0
 71 73  1  0  0  0
 71152  1  0  0  0
 72 74  1  0  0  0
 72153  1  0  0  0
 73 76  2  0  0  0
 73154  1  0  0  0
 74 75  2  0  0  0
 74 83  1  0  0  0
 75 76  1  0  0  0
 75 84  1  0  0  0
 76 90  1  0  0  0
 77 78  1  0  0  0
 77 79  1  0  0  0
 77155  1  0  0  0
 77156  1  0  0  0
 78 80  1  0  0  0
 78157  1  0  0  0
 78158  1  0  0  0
 79 91  1  0  0  0
 79159  1  0  0  0
 79160  1  0  0  0
 80 91  1  0  0  0
 80161  1  0  0  0
 80162  1  0  0  0
 81 85  1  0  0  0
 81163  1  0  0  0
 81164  1  0  0  0
 81165  1  0  0  0
 82 90  1  0  0  0
 82166  1  0  0  0
 82167  1  0  0  0
 82168  1  0  0  0
 83169  1  0  0  0
 83170  1  0  0  0
 83 91  1  0  0  0
 84 92  1  0  0  0
 84171  1  0  0  0
 84172  1  0  0  0
 85 89  1  0  0  0
 85173  1  0  0  0
 85174  1  0  0  0
 86 92  1  0  0  0
 86175  1  0  0  0
 86176  1  0  0  0
 86 88  1  0  0  0
 87 88  1  0  0  0
 87177  1  0  0  0
 87178  1  0  0  0
 88 89  1  0  0  0
 88179  1  0  0  0
 89180  1  0  0  0
 91181  1  0  0  0
 92182  1  0  0  0
 92183  1  0  0  0
M  CHG  2  91   1  92   1
M  ISO  4   1 100  68 101  87 101  90 100
M  END
> <chiral flag>
0

> <version>
0

> <s_m_source_file>
/data/baiqing/PycharmProjects/Reinvent-master-3.2/result/LINK_invent/BTK/process_docking_weight1_custom_product_contain_oxygen_bond_distance_aromatic_linkinvent_7_9_3/rearranged_h_0029.sdf

> <i_m_source_file_index>
2

> <r_mmod_Potential_Energy-OPLS-2005>
303.581146240234

> <r_mmod_Stretch_Energy-OPLS-2005>
174.953567504883

> <r_mmod_Bend_Energy-OPLS-2005>
282.347290039062

> <r_mmod_Torsional_Energy-OPLS-2005>
387.435455322266

> <r_mmod_Improper_Torsional_Energy-OPLS-2005>
3.7485888004303

> <r_mmod_Van_der_Waal_Energy-OPLS-2005>
159.514114379883

> <r_mmod_Electrostatic_Energy-OPLS-2005>
120.859199523926

> <r_mmod_Solvation_Energy-OPLS-2005>
-939.337036132812

> <b_mmod_Minimization_Converged-OPLS-2005>
0

> <r_mmod_RMS_Derivative-OPLS-2005>
5.8459005355835

$$$$
2
                    3D
 Structure written by MMmdl.
160169  0  0  1  0            999 V2000
  -30.4774  -15.2072   20.3948 C   0  0  0  0  0  0
  -30.4103  -12.7810   19.5321 C   0  0  0  0  0  0
  -29.5153  -12.5789   18.2896 C   0  0  0  0  0  0
  -28.0717  -12.2882   18.7201 C   0  0  0  0  0  0
  -27.5945  -13.2729   19.8093 C   0  0  2  0  0  0
  -28.6072  -13.4665   20.9441 C   0  0  0  0  0  0
  -25.2335  -13.8256   20.5803 C   0  0  0  0  0  0
  -24.1683  -13.0484   20.9275 C   0  0  0  0  0  0
  -24.6357  -11.6975   20.8829 C   0  0  0  0  0  0
  -23.9129  -10.4317   21.0467 C   0  0  0  0  0  0
  -24.3685   -9.4213   21.9236 C   0  0  0  0  0  0
  -23.6363   -8.2232   22.0770 C   0  0  0  0  0  0
  -22.4345   -8.0272   21.3541 C   0  0  0  0  0  0
  -21.9996   -9.0245   20.4660 C   0  0  0  0  0  0
  -22.7346  -10.2118   20.3091 C   0  0  0  0  0  0
  -21.6862   -6.0761   22.5279 C   0  0  0  0  0  0
  -21.4016   -6.5660   23.8228 C   0  0  0  0  0  0
  -21.3674   -5.6817   24.9190 C   0  0  0  0  0  0
  -21.6065   -4.3071   24.7234 C   0  0  0  0  0  0
  -21.8819   -3.8165   23.4353 C   0  0  0  0  0  0
  -21.9202   -4.6987   22.3415 C   0  0  0  0  0  0
  -22.7703  -13.5216   21.1895 C   0  0  0  0  0  0
  -22.1668   -4.2182   21.0985 F   0  0  0  0  0  0
  -21.5639   -3.4544   25.7738 F   0  0  0  0  0  0
  -29.8734  -13.9284   20.3450 N   0  0  0  0  0  0
  -26.2717  -12.9527   20.3206 N   0  0  0  0  0  0
  -25.9272  -11.6656   20.5786 N   0  0  0  0  0  0
  -22.0384  -12.8152   22.0443 N   0  0  0  0  0  0
  -25.4083  -15.1981   20.4233 N   0  0  0  0  0  0
  -31.6784  -15.1896   20.0935 O   0  0  0  0  0  0
  -21.6674   -6.8881   21.4241 O   0  0  0  0  0  0
  -22.3408  -14.5541   20.6776 O   0  0  0  0  0  0
  -24.6613  -31.8291   23.1770 C   0  0  0  0  0  0
  -25.9340  -32.4614   23.8217 C   0  0  1  0  0  0
  -27.2131  -27.0036   20.1820 C   0  0  0  0  0  0
  -25.6032  -33.8438   24.2091 N   0  0  0  0  0  0
  -23.4645  -30.4482   21.5282 C   0  0  2  0  0  0
  -24.9053  -28.8358   20.1217 C   0  0  0  0  0  0
  -22.7658  -29.4490   22.4869 C   0  0  0  0  0  0
  -18.0282  -28.1458   22.8448 C   0  0  0  0  0  0
  -24.1477  -36.7224   23.2649 C   0  0  0  0  0  0
  -26.0257  -30.6677   21.3770 C   0  0  0  0  0  0
  -26.0884  -29.2562   20.7394 C   0  0  0  0  0  0
  -27.2427  -28.3642   20.7410 C   0  0  0  0  0  0
  -25.9974  -26.7013   19.5390 C   0  0  0  0  0  0
  -24.8811  -27.5745   19.4981 C   0  0  0  0  0  0
  -23.6937  -29.7686   20.1520 C   0  0  0  0  0  0
  -25.4101  -36.2931   24.0285 C   0  0  1  0  0  0
  -20.5913  -28.3739   23.1260 C   0  0  2  0  0  0
  -20.6776  -26.9455   22.5435 C   0  0  0  0  0  0
  -19.5742  -26.6402   21.5250 C   0  0  0  0  0  0
  -18.1908  -26.8008   22.1631 C   0  0  0  0  0  0
  -19.1549  -28.8913   23.2842 C   0  0  0  0  0  0
  -18.9481  -30.1525   23.8850 C   0  0  0  0  0  0
  -17.6461  -30.6624   24.0568 C   0  0  0  0  0  0
  -25.9073  -34.9343   23.4958 C   0  0  0  0  0  0
  -16.5344  -29.9115   23.6357 C   0  0  0  0  0  0
  -16.7273  -28.6571   23.0312 C   0  0  0  0  0  0
  -26.4576  -31.6560   25.0727 C   0  0  0  0  0  0
  -25.3745  -31.3800   26.1418 C   0  0  0  0  0  0
  -27.0410  -30.2947   24.6353 C   0  0  0  0  0  0
  -27.6071  -32.4362   25.7515 C   0  0  0  0  0  0
  -27.5501  -37.1767   24.8466 C   0  0  0  0  0  0
  -21.4329  -29.3051   22.3660 N   0  0  0  0  0  0
  -26.4181  -37.3715   23.9438 N   0  0  0  0  0  0
  -24.7390  -31.0068   22.0833 N   0  0  0  0  0  0
  -23.4260  -28.8023   23.3049 O   0  0  0  0  0  0
  -28.2857  -25.9973   20.1395 O   0  0  0  0  0  0
  -26.5671  -34.8889   22.4551 O   0  0  0  0  0  0
  -23.5697  -32.1189   23.6947 O   0  0  0  0  0  0
  -29.3097  -19.2917   17.9828 C   0  0  0  0  0  0
  -29.0915  -20.5217   18.6495 C   0  0  0  0  0  0
  -29.2995  -19.2998   20.6886 C   0  0  0  0  0  0
  -29.4886  -18.0354   18.6271 C   0  0  0  0  0  0
  -29.0249  -20.6711   20.0474 C   0  0  0  0  0  0
  -29.5665  -17.9213   20.0554 C   0  0  0  0  0  0
  -31.1264  -16.6490   24.2502 C   0  0  0  0  0  0
  -30.8409  -16.9895   22.9787 C   0  0  0  0  0  0
  -27.6166  -23.0808   19.9174 C   0  0  0  0  0  0
  -29.5117  -23.4005   20.3915 C   0  0  0  0  0  0
  -28.2612  -24.4289   20.5499 C   0  0  0  0  0  0
  -29.5335  -16.8255   17.6976 C   0  0  0  0  0  0
  -29.6058  -16.5231   22.2177 C   0  0  0  0  0  0
  -28.6601  -22.1462   20.5460 N   0  0  0  0  0  0
  -29.7969  -16.4822   20.7511 N   0  0  0  0  0  0
  -31.4290  -12.9640   19.1882 H   0  0  0  0  0  0
  -30.4454  -11.8819   20.1433 H   0  0  0  0  0  0
  -29.9109  -11.7582   17.6908 H   0  0  0  0  0  0
  -29.5432  -13.4732   17.6589 H   0  0  0  0  0  0
  -28.0521  -11.2746   19.1257 H   0  0  0  0  0  0
  -27.3989  -12.3070   17.8613 H   0  0  0  0  0  0
  -27.5061  -14.2429   19.3125 H   0  0  0  0  0  0
  -28.7197  -12.5927   21.5836 H   0  0  0  0  0  0
  -28.1675  -14.2380   21.5688 H   0  0  0  0  0  0
  -25.2792   -9.5676   22.4900 H   0  0  0  0  0  0
  -24.0068   -7.4618   22.7484 H   0  0  0  0  0  0
  -21.0953   -8.8843   19.8909 H   0  0  0  0  0  0
  -22.3889  -10.9713   19.6225 H   0  0  0  0  0  0
  -21.1992   -7.6167   23.9748 H   0  0  0  0  0  0
  -21.1501   -6.0531   25.9107 H   0  0  0  0  0  0
  -22.0575   -2.7618   23.2848 H   0  0  0  0  0  0
  -22.4093  -11.9829   22.4803 H   0  0  0  0  0  0
  -21.0985  -13.1098   22.2743 H   0  0  0  0  0  0
  -24.6393  -15.8555   20.5016 H   0  0  0  0  0  0
  -26.2597  -15.6095   20.0657 H   0  0  0  0  0  0
  -26.7415  -32.5164   23.0943 H   0  0  0  0  0  0
  -25.0262  -33.9584   25.0274 H   0  0  0  0  0  0
  -22.7738  -31.2796   21.3711 H   0  0  0  0  0  0
  -23.3673  -35.9624   23.3285 H   0  0  0  0  0  0
  -24.3522  -36.8904   22.2062 H   0  0  0  0  0  0
  -23.7316  -37.6445   23.6723 H   0  0  0  0  0  0
  -26.1770  -31.3931   20.5748 H   0  0  0  0  0  0
  -26.9069  -30.7440   22.0015 H   0  0  0  0  0  0
  -28.1522  -28.6971   21.2209 H   0  0  0  0  0  0
  -25.9017  -25.7372   19.0589 H   0  0  0  0  0  0
  -23.9803  -27.2433   18.9988 H   0  0  0  0  0  0
  -23.8527  -30.5459   19.4040 H   0  0  0  0  0  0
  -22.8005  -29.2384   19.8206 H   0  0  0  0  0  0
  -25.1316  -36.1641   25.0768 H   0  0  0  0  0  0
  -20.9969  -28.3296   24.1387 H   0  0  0  0  0  0
  -20.5696  -26.2367   23.3653 H   0  0  0  0  0  0
  -21.6641  -26.7482   22.1200 H   0  0  0  0  0  0
  -19.6896  -25.6304   21.1292 H   0  0  0  0  0  0
  -19.6669  -27.3213   20.6775 H   0  0  0  0  0  0
  -17.4196  -26.6755   21.4003 H   0  0  0  0  0  0
  -18.0237  -26.0188   22.9045 H   0  0  0  0  0  0
  -19.7949  -30.7377   24.2178 H   0  0  0  0  0  0
  -17.4998  -31.6297   24.5223 H   0  0  0  0  0  0
  -15.5361  -30.2986   23.7737 H   0  0  0  0  0  0
  -15.8668  -28.0912   22.6992 H   0  0  0  0  0  0
  -24.6005  -30.7016   25.7817 H   0  0  0  0  0  0
  -24.8833  -32.2979   26.4667 H   0  0  0  0  0  0
  -25.8038  -30.9171   27.0318 H   0  0  0  0  0  0
  -26.3008  -29.6698   24.1326 H   0  0  0  0  0  0
  -27.3969  -29.7236   25.4952 H   0  0  0  0  0  0
  -27.8959  -30.4185   23.9693 H   0  0  0  0  0  0
  -27.2688  -33.3795   26.1828 H   0  0  0  0  0  0
  -28.4009  -32.6706   25.0409 H   0  0  0  0  0  0
  -28.0576  -31.8643   26.5645 H   0  0  0  0  0  0
  -28.2514  -38.0057   24.7411 H   0  0  0  0  0  0
  -28.0958  -36.2560   24.6314 H   0  0  0  0  0  0
  -27.2236  -37.1470   25.8880 H   0  0  0  0  0  0
  -20.9559  -29.8808   21.6845 H   0  0  0  0  0  0
  -25.9959  -38.2743   24.1459 H   0  0  0  0  0  0
  -29.3064  -19.3587   16.9023 H   0  0  0  0  0  0
  -28.9455  -21.3869   18.0146 H   0  0  0  0  0  0
  -29.2994  -19.3027   21.7750 H   0  0  0  0  0  0
  -31.9976  -17.0310   24.7707 H   0  0  0  0  0  0
  -30.4916  -15.9790   24.8141 H   0  0  0  0  0  0
  -31.4991  -17.6544   22.4381 H   0  0  0  0  0  0
  -27.6170  -23.0574   18.8213 H   0  0  0  0  0  0
  -26.6041  -22.9152   20.2935 H   0  0  0  0  0  0
  -30.2667  -23.5038   21.1738 H   0  0  0  0  0  0
  -29.9853  -23.4824   19.4079 H   0  0  0  0  0  0
  -27.9870  -24.4430   21.6037 H   0  0  0  0  0  0
  -28.8136  -16.0586   17.9895 H   0  0  0  0  0  0
  -30.5407  -16.4139   17.6600 H   0  0  0  0  0  0
  -29.2452  -17.1108   16.6806 H   0  0  0  0  0  0
  -28.7759  -17.1697   22.5058 H   0  0  0  0  0  0
  -29.3239  -15.5529   22.6143 H   0  0  0  0  0  0
  1 25  1  0  0  0
  1 30  2  0  0  0
  1 85  1  0  0  0
  2  3  1  0  0  0
  2 25  1  0  0  0
  2 86  1  0  0  0
  2 87  1  0  0  0
  3  4  1  0  0  0
  3 88  1  0  0  0
  3 89  1  0  0  0
  4  5  1  0  0  0
  4 90  1  0  0  0
  4 91  1  0  0  0
  5  6  1  0  0  0
  5 26  1  0  0  0
  5 92  1  0  0  0
  6 25  1  0  0  0
  6 93  1  0  0  0
  6 94  1  0  0  0
  7  8  2  0  0  0
  7 26  1  0  0  0
  7 29  1  0  0  0
  8  9  1  0  0  0
  8 22  1  0  0  0
  9 10  1  0  0  0
  9 27  2  0  0  0
 10 11  2  0  0  0
 10 15  1  0  0  0
 11 12  1  0  0  0
 11 95  1  0  0  0
 12 13  2  0  0  0
 12 96  1  0  0  0
 13 14  1  0  0  0
 13 31  1  0  0  0
 14 15  2  0  0  0
 14 97  1  0  0  0
 15 98  1  0  0  0
 16 17  2  0  0  0
 16 21  1  0  0  0
 16 31  1  0  0  0
 17 18  1  0  0  0
 17 99  1  0  0  0
 18 19  2  0  0  0
 18100  1  0  0  0
 19 20  1  0  0  0
 19 24  1  0  0  0
 20 21  2  0  0  0
 20101  1  0  0  0
 21 23  1  0  0  0
 22 28  1  0  0  0
 22 32  2  0  0  0
 26 27  1  0  0  0
 28102  1  0  0  0
 28103  1  0  0  0
 29104  1  0  0  0
 29105  1  0  0  0
 33 34  1  0  0  0
 33 66  1  0  0  0
 33 70  2  0  0  0
 34 36  1  0  0  0
 34 59  1  0  0  0
 34106  1  0  0  0
 35 44  2  0  0  0
 35 45  1  0  0  0
 35 68  1  0  0  0
 36 56  1  0  0  0
 36107  1  0  0  0
 37 39  1  0  0  0
 37 47  1  0  0  0
 37 66  1  0  0  0
 37108  1  0  0  0
 38 43  2  0  0  0
 38 46  1  0  0  0
 38 47  1  0  0  0
 39 64  1  0  0  0
 39 67  2  0  0  0
 40 52  1  0  0  0
 40 53  2  0  0  0
 40 58  1  0  0  0
 41109  1  0  0  0
 41110  1  0  0  0
 41111  1  0  0  0
 41 48  1  0  0  0
 42 43  1  0  0  0
 42 66  1  0  0  0
 42112  1  0  0  0
 42113  1  0  0  0
 43 44  1  0  0  0
 44114  1  0  0  0
 45 46  2  0  0  0
 45115  1  0  0  0
 46116  1  0  0  0
 47117  1  0  0  0
 47118  1  0  0  0
 48 56  1  0  0  0
 48 65  1  0  0  0
 48119  1  0  0  0
 49 50  1  0  0  0
 49 53  1  0  0  0
 49 64  1  0  0  0
 49120  1  0  0  0
 50 51  1  0  0  0
 50121  1  0  0  0
 50122  1  0  0  0
 51 52  1  0  0  0
 51123  1  0  0  0
 51124  1  0  0  0
 52125  1  0  0  0
 52126  1  0  0  0
 53 54  1  0  0  0
 54 55  2  0  0  0
 54127  1  0  0  0
 55 57  1  0  0  0
 55128  1  0  0  0
 56 69  2  0  0  0
 57 58  2  0  0  0
 57129  1  0  0  0
 58130  1  0  0  0
 59 60  1  0  0  0
 59 61  1  0  0  0
 59 62  1  0  0  0
 60131  1  0  0  0
 60132  1  0  0  0
 60133  1  0  0  0
 61134  1  0  0  0
 61135  1  0  0  0
 61136  1  0  0  0
 62137  1  0  0  0
 62138  1  0  0  0
 62139  1  0  0  0
 63 65  1  0  0  0
 63140  1  0  0  0
 63141  1  0  0  0
 63142  1  0  0  0
 64143  1  0  0  0
 65144  1  0  0  0
 68 81  1  0  0  0
 71 72  2  0  0  0
 71 74  1  0  0  0
 71145  1  0  0  0
 72 75  1  0  0  0
 72146  1  0  0  0
 73 75  2  0  0  0
 73 76  1  0  0  0
 73147  1  0  0  0
 74 76  2  0  0  0
 74 82  1  0  0  0
 75 84  1  0  0  0
 76 85  1  0  0  0
 77 78  2  0  0  0
 77148  1  0  0  0
 77149  1  0  0  0
 78 83  1  0  0  0
 78150  1  0  0  0
 79 81  1  0  0  0
 79 84  1  0  0  0
 79151  1  0  0  0
 79152  1  0  0  0
 80 81  1  0  0  0
 80 84  1  0  0  0
 80153  1  0  0  0
 80154  1  0  0  0
 81155  1  0  0  0
 82156  1  0  0  0
 82157  1  0  0  0
 82158  1  0  0  0
 83 85  1  0  0  0
 83159  1  0  0  0
 83160  1  0  0  0
M  ISO  4   1 100  68 101  81 101  85 100
M  END
> <chiral flag>
0

> <version>
0

> <s_m_source_file>
/data/baiqing/PycharmProjects/Reinvent-master-3.2/result/LINK_invent/BTK/process_docking_weight1_custom_product_contain_oxygen_bond_distance_aromatic_linkinvent_7_9_3/rearranged_h_0029.sdf

> <i_m_source_file_index>
3

> <r_mmod_Potential_Energy-OPLS-2005>
1225.56994628906

> <r_mmod_Stretch_Energy-OPLS-2005>
445.730316162109

> <r_mmod_Bend_Energy-OPLS-2005>
433.522827148438

> <r_mmod_Torsional_Energy-OPLS-2005>
328.72705078125

> <r_mmod_Improper_Torsional_Energy-OPLS-2005>
10.7332744598389

> <r_mmod_Van_der_Waal_Energy-OPLS-2005>
128.042816162109

> <r_mmod_Electrostatic_Energy-OPLS-2005>
-276.327514648438

> <r_mmod_Solvation_Energy-OPLS-2005>
-216.17724609375

> <b_mmod_Minimization_Converged-OPLS-2005>
0

> <r_mmod_RMS_Derivative-OPLS-2005>
10.5426025390625

$$$$
3
                    3D
 Structure written by MMmdl.
172182  0  0  1  0            999 V2000
  -30.5534  -15.0613   20.3492 C   0  0  0  0  0  0
  -30.4367  -12.6705   19.4757 C   0  0  0  0  0  0
  -29.5228  -12.4855   18.2487 C   0  0  0  0  0  0
  -28.0589  -12.2735   18.6796 C   0  0  0  0  0  0
  -27.6124  -13.2537   19.7969 C   0  0  2  0  0  0
  -28.6619  -13.3950   20.9142 C   0  0  0  0  0  0
  -25.2444  -13.8242   20.5655 C   0  0  0  0  0  0
  -24.1769  -13.0482   20.9216 C   0  0  0  0  0  0
  -24.6372  -11.6957   20.8738 C   0  0  0  0  0  0
  -23.9067  -10.4320   21.0413 C   0  0  0  0  0  0
  -24.3612   -9.4238   21.9190 C   0  0  0  0  0  0
  -23.6281   -8.2272   22.0760 C   0  0  0  0  0  0
  -22.4264   -8.0296   21.3551 C   0  0  0  0  0  0
  -21.9914   -9.0280   20.4658 C   0  0  0  0  0  0
  -22.7245  -10.2153   20.3071 C   0  0  0  0  0  0
  -21.6852   -6.0736   22.5282 C   0  0  0  0  0  0
  -21.4025   -6.5645   23.8213 C   0  0  0  0  0  0
  -21.3658   -5.6789   24.9171 C   0  0  0  0  0  0
  -21.6028   -4.3049   24.7208 C   0  0  0  0  0  0
  -21.8818   -3.8144   23.4333 C   0  0  0  0  0  0
  -21.9189   -4.6967   22.3398 C   0  0  0  0  0  0
  -22.7800  -13.5253   21.1880 C   0  0  0  0  0  0
  -22.1673   -4.2164   21.0971 F   0  0  0  0  0  0
  -21.5613   -3.4526   25.7715 F   0  0  0  0  0  0
  -29.8974  -13.8278   20.2487 N   0  0  0  0  0  0
  -26.2821  -12.9456   20.3109 N   0  0  0  0  0  0
  -25.9300  -11.6594   20.5694 N   0  0  0  0  0  0
  -22.0455  -12.8236   22.0424 N   0  0  0  0  0  0
  -25.4193  -15.1954   20.4084 N   0  0  0  0  0  0
  -31.7872  -14.9616   20.4153 O   0  0  0  0  0  0
  -21.6640   -6.8881   21.4237 O   0  0  0  0  0  0
  -22.3473  -14.5568   20.6750 O   0  0  0  0  0  0
  -24.6501  -31.8379   23.1806 C   0  0  0  0  0  0
  -25.9246  -32.4661   23.8222 C   0  0  1  0  0  0
  -27.2145  -27.0616   20.1732 C   0  0  0  0  0  0
  -25.5964  -33.8470   24.2145 N   0  0  0  0  0  0
  -23.4557  -30.4519   21.5298 C   0  0  2  0  0  0
  -24.9048  -28.8554   20.1204 C   0  0  0  0  0  0
  -22.7597  -29.4508   22.4860 C   0  0  0  0  0  0
  -18.0319  -28.1358   22.8497 C   0  0  0  0  0  0
  -24.1490  -36.7235   23.2642 C   0  0  0  0  0  0
  -26.0156  -30.6890   21.3870 C   0  0  0  0  0  0
  -26.0863  -29.2878   20.7369 C   0  0  0  0  0  0
  -27.2440  -28.4109   20.7363 C   0  0  0  0  0  0
  -26.0037  -26.7375   19.5300 C   0  0  0  0  0  0
  -24.8785  -27.5954   19.5008 C   0  0  0  0  0  0
  -23.6854  -29.7699   20.1537 C   0  0  0  0  0  0
  -25.4124  -36.3008   24.0307 C   0  0  1  0  0  0
  -20.5929  -28.3712   23.1207 C   0  0  2  0  0  0
  -20.6835  -26.9417   22.5352 C   0  0  0  0  0  0
  -19.5734  -26.6253   21.5271 C   0  0  0  0  0  0
  -18.1961  -26.7842   22.1751 C   0  0  0  0  0  0
  -19.1577  -28.8868   23.2833 C   0  0  0  0  0  0
  -18.9491  -30.1458   23.8850 C   0  0  0  0  0  0
  -17.6488  -30.6580   24.0521 C   0  0  0  0  0  0
  -25.9090  -34.9397   23.5037 C   0  0  0  0  0  0
  -16.5374  -29.9060   23.6316 C   0  0  0  0  0  0
  -16.7306  -28.6458   23.0377 C   0  0  0  0  0  0
  -26.4523  -31.6567   25.0701 C   0  0  0  0  0  0
  -25.3662  -31.3818   26.1368 C   0  0  0  0  0  0
  -27.0388  -30.2948   24.6349 C   0  0  0  0  0  0
  -27.6036  -32.4344   25.7491 C   0  0  0  0  0  0
  -27.5572  -37.1772   24.8463 C   0  0  0  0  0  0
  -21.4278  -29.3049   22.3615 N   0  0  0  0  0  0
  -26.4285  -37.3729   23.9408 N   0  0  0  0  0  0
  -24.7274  -31.0158   22.0879 N   0  0  0  0  0  0
  -23.4221  -28.8060   23.3029 O   0  0  0  0  0  0
  -28.2764  -26.0684   20.1281 O   0  0  0  0  0  0
  -26.5675  -34.8895   22.4621 O   0  0  0  0  0  0
  -23.5603  -32.1320   23.6978 O   0  0  0  0  0  0
  -28.2248  -18.7283   22.1599 C   0  0  0  0  0  0
  -28.8275  -17.5914   21.5615 C   0  0  0  0  0  0
  -28.3031  -20.0382   21.6220 C   0  0  0  0  0  0
  -29.6024  -19.0838   19.8112 C   0  0  0  0  0  0
  -29.5443  -17.6603   20.3480 C   0  0  0  0  0  0
  -29.0181  -20.3269   20.4443 C   0  0  0  0  0  0
  -30.1778  -19.2841   18.4209 C   0  0  0  0  0  0
  -28.1457  -18.2326   15.2380 C   0  0  0  0  0  0
  -28.5965  -16.7617   15.1265 C   0  0  0  0  0  0
  -29.1205  -19.0858   16.0736 C   0  0  0  0  0  0
  -28.9723  -16.1469   16.4913 C   0  0  0  0  0  0
  -30.7127  -16.3952   18.4233 C   0  0  0  0  0  0
  -29.3695  -18.4230   17.4408 C   0  0  1  0  0  0
  -29.9954  -17.0423   17.2144 C   0  0  2  0  0  0
  -29.3042  -24.5218   21.7520 C   0  0  0  0  0  0
  -28.1811  -23.0230   19.9033 C   0  0  0  0  0  0
  -28.2232  -24.5731   20.6637 C   0  0  2  0  0  0
  -30.0296  -16.2861   19.7455 N   0  0  0  0  0  0
  -29.1650  -21.7838   20.0747 N   0  0  0  0  0  0
  -31.4592  -12.8456   19.1398 H   0  0  0  0  0  0
  -30.4646  -11.7679   20.0888 H   0  0  0  0  0  0
  -29.8659  -11.6435   17.6453 H   0  0  0  0  0  0
  -29.5935  -13.3618   17.6086 H   0  0  0  0  0  0
  -27.9718  -11.2442   19.0317 H   0  0  0  0  0  0
  -27.3986  -12.3549   17.8151 H   0  0  0  0  0  0
  -27.5394  -14.2262   19.3078 H   0  0  0  0  0  0
  -28.7929  -12.4603   21.4602 H   0  0  0  0  0  0
  -28.3456  -14.1435   21.6430 H   0  0  0  0  0  0
  -25.2770   -9.5704   22.4735 H   0  0  0  0  0  0
  -23.9991   -7.4665   22.7480 H   0  0  0  0  0  0
  -21.0847   -8.8811   19.8959 H   0  0  0  0  0  0
  -22.3730  -10.9680   19.6161 H   0  0  0  0  0  0
  -21.2064   -7.6159   23.9725 H   0  0  0  0  0  0
  -21.1471   -6.0524   25.9068 H   0  0  0  0  0  0
  -22.0598   -2.7605   23.2843 H   0  0  0  0  0  0
  -22.4043  -11.9904   22.4812 H   0  0  0  0  0  0
  -21.1084  -13.1292   22.2582 H   0  0  0  0  0  0
  -24.6619  -15.8592   20.5267 H   0  0  0  0  0  0
  -26.2759  -15.6299   20.0881 H   0  0  0  0  0  0
  -26.7299  -32.5236   23.0935 H   0  0  0  0  0  0
  -25.0093  -33.9582   25.0272 H   0  0  0  0  0  0
  -22.7634  -31.2804   21.3657 H   0  0  0  0  0  0
  -23.3765  -35.9558   23.3294 H   0  0  0  0  0  0
  -24.3581  -36.8892   22.2064 H   0  0  0  0  0  0
  -23.7240  -37.6417   23.6696 H   0  0  0  0  0  0
  -26.1775  -31.4381   20.6105 H   0  0  0  0  0  0
  -26.8837  -30.7428   22.0331 H   0  0  0  0  0  0
  -28.1519  -28.7489   21.2178 H   0  0  0  0  0  0
  -25.9209  -25.7745   19.0439 H   0  0  0  0  0  0
  -23.9782  -27.2604   19.0031 H   0  0  0  0  0  0
  -23.8245  -30.5371   19.3913 H   0  0  0  0  0  0
  -22.7977  -29.2157   19.8446 H   0  0  0  0  0  0
  -25.1315  -36.1820   25.0800 H   0  0  0  0  0  0
  -21.0021  -28.3264   24.1338 H   0  0  0  0  0  0
  -20.5853  -26.2342   23.3610 H   0  0  0  0  0  0
  -21.6658  -26.7441   22.1052 H   0  0  0  0  0  0
  -19.6875  -25.6085   21.1486 H   0  0  0  0  0  0
  -19.6600  -27.2907   20.6665 H   0  0  0  0  0  0
  -17.4135  -26.6437   21.4267 H   0  0  0  0  0  0
  -18.0460  -26.0083   22.9285 H   0  0  0  0  0  0
  -19.7971  -30.7279   24.2198 H   0  0  0  0  0  0
  -17.5029  -31.6268   24.5092 H   0  0  0  0  0  0
  -15.5382  -30.2950   23.7645 H   0  0  0  0  0  0
  -15.8705  -28.0723   22.7163 H   0  0  0  0  0  0
  -24.5829  -30.7176   25.7688 H   0  0  0  0  0  0
  -24.8851  -32.3030   26.4673 H   0  0  0  0  0  0
  -25.7898  -30.9061   27.0225 H   0  0  0  0  0  0
  -26.3038  -29.6661   24.1314 H   0  0  0  0  0  0
  -27.3927  -29.7265   25.4963 H   0  0  0  0  0  0
  -27.8968  -30.4175   23.9736 H   0  0  0  0  0  0
  -27.2630  -33.3679   26.1999 H   0  0  0  0  0  0
  -28.3896  -32.6873   25.0352 H   0  0  0  0  0  0
  -28.0658  -31.8519   26.5483 H   0  0  0  0  0  0
  -28.2564  -38.0084   24.7500 H   0  0  0  0  0  0
  -28.1089  -36.2614   24.6294 H   0  0  0  0  0  0
  -27.2299  -37.1426   25.8867 H   0  0  0  0  0  0
  -20.9476  -29.8803   21.6815 H   0  0  0  0  0  0
  -26.0144  -38.2794   24.1401 H   0  0  0  0  0  0
  -27.6806  -18.5909   23.0825 H   0  0  0  0  0  0
  -28.6929  -16.6355   22.0459 H   0  0  0  0  0  0
  -27.8292  -20.8468   22.1607 H   0  0  0  0  0  0
  -31.2465  -19.0755   18.3959 H   0  0  0  0  0  0
  -30.0901  -20.3298   18.1291 H   0  0  0  0  0  0
  -27.1532  -18.2700   15.6935 H   0  0  0  0  0  0
  -28.0451  -18.6647   14.2407 H   0  0  0  0  0  0
  -29.4558  -16.7053   14.4574 H   0  0  0  0  0  0
  -27.8130  -16.1674   14.6542 H   0  0  0  0  0  0
  -28.7052  -20.0854   16.2053 H   0  0  0  0  0  0
  -30.0625  -19.2110   15.5371 H   0  0  0  0  0  0
  -29.3831  -15.1534   16.3189 H   0  0  0  0  0  0
  -28.0823  -16.0200   17.1091 H   0  0  0  0  0  0
  -31.6539  -16.9198   18.5933 H   0  0  0  0  0  0
  -31.0364  -15.4203   18.0467 H   0  0  0  0  0  0
  -28.3759  -18.2882   17.8727 H   0  0  0  0  0  0
  -30.8065  -17.1861   16.4970 H   0  0  0  0  0  0
  -29.2388  -23.5946   22.3227 H   0  0  0  0  0  0
  -29.2003  -25.3467   22.4571 H   0  0  0  0  0  0
  -30.3031  -24.5687   21.3166 H   0  0  0  0  0  0
  -28.1685  -23.2272   18.8319 H   0  0  0  0  0  0
  -27.1844  -22.6188   20.0939 H   0  0  0  0  0  0
  -27.2811  -24.5757   21.2139 H   0  0  0  0  0  0
  -30.0183  -21.9506   19.5457 H   0  0  0  0  0  0
  1 25  1  0  0  0
  1 30  2  0  0  0
  1 88  1  0  0  0
  2  3  1  0  0  0
  2 25  1  0  0  0
  2 90  1  0  0  0
  2 91  1  0  0  0
  3  4  1  0  0  0
  3 92  1  0  0  0
  3 93  1  0  0  0
  4  5  1  0  0  0
  4 94  1  0  0  0
  4 95  1  0  0  0
  5  6  1  0  0  0
  5 26  1  0  0  0
  5 96  1  0  0  0
  6 25  1  0  0  0
  6 97  1  0  0  0
  6 98  1  0  0  0
  7  8  2  0  0  0
  7 26  1  0  0  0
  7 29  1  0  0  0
  8  9  1  0  0  0
  8 22  1  0  0  0
  9 10  1  0  0  0
  9 27  2  0  0  0
 10 11  2  0  0  0
 10 15  1  0  0  0
 11 12  1  0  0  0
 11 99  1  0  0  0
 12 13  2  0  0  0
 12100  1  0  0  0
 13 14  1  0  0  0
 13 31  1  0  0  0
 14 15  2  0  0  0
 14101  1  0  0  0
 15102  1  0  0  0
 16 17  2  0  0  0
 16 21  1  0  0  0
 16 31  1  0  0  0
 17 18  1  0  0  0
 17103  1  0  0  0
 18 19  2  0  0  0
 18104  1  0  0  0
 19 20  1  0  0  0
 19 24  1  0  0  0
 20 21  2  0  0  0
 20105  1  0  0  0
 21 23  1  0  0  0
 22 28  1  0  0  0
 22 32  2  0  0  0
 26 27  1  0  0  0
 28106  1  0  0  0
 28107  1  0  0  0
 29108  1  0  0  0
 29109  1  0  0  0
 33 34  1  0  0  0
 33 66  1  0  0  0
 33 70  2  0  0  0
 34 36  1  0  0  0
 34 59  1  0  0  0
 34110  1  0  0  0
 35 44  2  0  0  0
 35 45  1  0  0  0
 35 68  1  0  0  0
 36 56  1  0  0  0
 36111  1  0  0  0
 37 39  1  0  0  0
 37 47  1  0  0  0
 37 66  1  0  0  0
 37112  1  0  0  0
 38 43  2  0  0  0
 38 46  1  0  0  0
 38 47  1  0  0  0
 39 64  1  0  0  0
 39 67  2  0  0  0
 40 52  1  0  0  0
 40 53  2  0  0  0
 40 58  1  0  0  0
 41113  1  0  0  0
 41114  1  0  0  0
 41115  1  0  0  0
 41 48  1  0  0  0
 42 43  1  0  0  0
 42 66  1  0  0  0
 42116  1  0  0  0
 42117  1  0  0  0
 43 44  1  0  0  0
 44118  1  0  0  0
 45 46  2  0  0  0
 45119  1  0  0  0
 46120  1  0  0  0
 47121  1  0  0  0
 47122  1  0  0  0
 48 56  1  0  0  0
 48 65  1  0  0  0
 48123  1  0  0  0
 49 50  1  0  0  0
 49 53  1  0  0  0
 49 64  1  0  0  0
 49124  1  0  0  0
 50 51  1  0  0  0
 50125  1  0  0  0
 50126  1  0  0  0
 51 52  1  0  0  0
 51127  1  0  0  0
 51128  1  0  0  0
 52129  1  0  0  0
 52130  1  0  0  0
 53 54  1  0  0  0
 54 55  2  0  0  0
 54131  1  0  0  0
 55 57  1  0  0  0
 55132  1  0  0  0
 56 69  2  0  0  0
 57 58  2  0  0  0
 57133  1  0  0  0
 58134  1  0  0  0
 59 60  1  0  0  0
 59 61  1  0  0  0
 59 62  1  0  0  0
 60135  1  0  0  0
 60136  1  0  0  0
 60137  1  0  0  0
 61138  1  0  0  0
 61139  1  0  0  0
 61140  1  0  0  0
 62141  1  0  0  0
 62142  1  0  0  0
 62143  1  0  0  0
 63 65  1  0  0  0
 63144  1  0  0  0
 63145  1  0  0  0
 63146  1  0  0  0
 64147  1  0  0  0
 65148  1  0  0  0
 68 87  1  0  0  0
 71 72  2  0  0  0
 71 73  1  0  0  0
 71149  1  0  0  0
 72 75  1  0  0  0
 72150  1  0  0  0
 73 76  2  0  0  0
 73151  1  0  0  0
 74 75  2  0  0  0
 74 76  1  0  0  0
 74 77  1  0  0  0
 75 88  1  0  0  0
 76 89  1  0  0  0
 77152  1  0  0  0
 77153  1  0  0  0
 77 83  1  0  0  0
 78 79  1  0  0  0
 78 80  1  0  0  0
 78154  1  0  0  0
 78155  1  0  0  0
 79 81  1  0  0  0
 79156  1  0  0  0
 79157  1  0  0  0
 80 83  1  0  0  0
 80158  1  0  0  0
 80159  1  0  0  0
 81160  1  0  0  0
 81161  1  0  0  0
 81 84  1  0  0  0
 82 84  1  0  0  0
 82 88  1  0  0  0
 82162  1  0  0  0
 82163  1  0  0  0
 83 84  1  0  0  0
 83164  1  0  0  0
 84165  1  0  0  0
 85166  1  0  0  0
 85167  1  0  0  0
 85168  1  0  0  0
 85 87  1  0  0  0
 86 87  1  0  0  0
 86 89  1  0  0  0
 86169  1  0  0  0
 86170  1  0  0  0
 87171  1  0  0  0
 89172  1  0  0  0
M  ISO  4   1 100  68 101  87 101  88 100
M  END
> <chiral flag>
0

> <version>
0

> <s_m_source_file>
/data/baiqing/PycharmProjects/Reinvent-master-3.2/result/LINK_invent/BTK/process_docking_weight1_custom_product_contain_oxygen_bond_distance_aromatic_linkinvent_7_9_3/rearranged_h_0029.sdf

> <i_m_source_file_index>
4

> <r_mmod_Potential_Energy-OPLS-2005>
1075.20031738281

> <r_mmod_Stretch_Energy-OPLS-2005>
358.380432128906

> <r_mmod_Bend_Energy-OPLS-2005>
391.463623046875

> <r_mmod_Torsional_Energy-OPLS-2005>
387.548889160156

> <r_mmod_Improper_Torsional_Energy-OPLS-2005>
30.5615921020508

> <r_mmod_Van_der_Waal_Energy-OPLS-2005>
137.469192504883

> <r_mmod_Electrostatic_Energy-OPLS-2005>
-323.147003173828

> <r_mmod_Solvation_Energy-OPLS-2005>
-190.355392456055

> <b_mmod_Minimization_Converged-OPLS-2005>
0

> <r_mmod_RMS_Derivative-OPLS-2005>
3.46092557907104

$$$$
4
                    3D
 Structure written by MMmdl.
170180  0  0  1  0            999 V2000
  -30.5898  -14.7232   20.5412 C   0  0  0  0  0  0
  -30.4405  -12.4540   19.4824 C   0  0  0  0  0  0
  -29.5100  -12.5381   18.2494 C   0  0  0  0  0  0
  -28.0342  -12.3556   18.6519 C   0  0  0  0  0  0
  -27.6491  -13.2259   19.8765 C   0  0  2  0  0  0
  -28.6889  -13.0983   21.0128 C   0  0  0  0  0  0
  -25.2508  -13.8193   20.5696 C   0  0  0  0  0  0
  -24.1772  -13.0453   20.9179 C   0  0  0  0  0  0
  -24.6348  -11.6922   20.8739 C   0  0  0  0  0  0
  -23.9032  -10.4301   21.0407 C   0  0  0  0  0  0
  -24.3590   -9.4223   21.9187 C   0  0  0  0  0  0
  -23.6278   -8.2252   22.0759 C   0  0  0  0  0  0
  -22.4268   -8.0272   21.3540 C   0  0  0  0  0  0
  -21.9887   -9.0242   20.4647 C   0  0  0  0  0  0
  -22.7200  -10.2133   20.3056 C   0  0  0  0  0  0
  -21.6851   -6.0727   22.5261 C   0  0  0  0  0  0
  -21.4023   -6.5634   23.8197 C   0  0  0  0  0  0
  -21.3663   -5.6788   24.9159 C   0  0  0  0  0  0
  -21.6052   -4.3051   24.7212 C   0  0  0  0  0  0
  -21.8815   -3.8136   23.4329 C   0  0  0  0  0  0
  -21.9197   -4.6955   22.3389 C   0  0  0  0  0  0
  -22.7790  -13.5241   21.1846 C   0  0  0  0  0  0
  -22.1657   -4.2145   21.0965 F   0  0  0  0  0  0
  -21.5633   -3.4536   25.7724 F   0  0  0  0  0  0
  -30.0011  -13.4770   20.4604 N   0  0  0  0  0  0
  -26.2949  -12.9385   20.3378 N   0  0  0  0  0  0
  -25.9289  -11.6536   20.5791 N   0  0  0  0  0  0
  -22.0457  -12.8224   22.0409 N   0  0  0  0  0  0
  -25.4265  -15.1910   20.4086 N   0  0  0  0  0  0
  -31.7266  -14.9017   20.0882 O   0  0  0  0  0  0
  -21.6640   -6.8866   21.4228 O   0  0  0  0  0  0
  -22.3483  -14.5560   20.6719 O   0  0  0  0  0  0
  -24.6222  -31.8561   23.1954 C   0  0  0  0  0  0
  -25.9054  -32.4759   23.8289 C   0  0  1  0  0  0
  -27.2336  -27.2649   20.1580 C   0  0  0  0  0  0
  -25.5894  -33.8558   24.2217 N   0  0  0  0  0  0
  -23.4236  -30.4774   21.5325 C   0  0  2  0  0  0
  -24.8765  -28.9194   20.1127 C   0  0  0  0  0  0
  -22.7484  -29.4573   22.4822 C   0  0  0  0  0  0
  -18.0308  -28.1332   22.8443 C   0  0  0  0  0  0
  -24.1529  -36.7256   23.2648 C   0  0  0  0  0  0
  -25.9685  -30.7700   21.3809 C   0  0  0  0  0  0
  -26.0433  -29.3927   20.7238 C   0  0  0  0  0  0
  -27.2171  -28.5782   20.7348 C   0  0  0  0  0  0
  -26.0375  -26.8513   19.5219 C   0  0  0  0  0  0
  -24.8791  -27.6540   19.5032 C   0  0  0  0  0  0
  -23.6495  -29.8097   20.1494 C   0  0  0  0  0  0
  -25.4153  -36.3047   24.0339 C   0  0  1  0  0  0
  -20.5921  -28.3631   23.1250 C   0  0  2  0  0  0
  -20.6795  -26.9353   22.5378 C   0  0  0  0  0  0
  -19.5780  -26.6338   21.5170 C   0  0  0  0  0  0
  -18.1956  -26.7880   22.1591 C   0  0  0  0  0  0
  -19.1565  -28.8792   23.2852 C   0  0  0  0  0  0
  -18.9496  -30.1399   23.8872 C   0  0  0  0  0  0
  -17.6501  -30.6541   24.0529 C   0  0  0  0  0  0
  -25.9078  -34.9438   23.5077 C   0  0  0  0  0  0
  -16.5388  -29.9036   23.6326 C   0  0  0  0  0  0
  -16.7291  -28.6459   23.0324 C   0  0  0  0  0  0
  -26.4449  -31.6591   25.0668 C   0  0  0  0  0  0
  -25.3674  -31.3784   26.1401 C   0  0  0  0  0  0
  -27.0278  -30.3018   24.6111 C   0  0  0  0  0  0
  -27.5977  -32.4359   25.7444 C   0  0  0  0  0  0
  -27.5606  -37.1784   24.8471 C   0  0  0  0  0  0
  -21.4193  -29.3003   22.3624 N   0  0  0  0  0  0
  -26.4320  -37.3746   23.9410 N   0  0  0  0  0  0
  -24.6891  -31.0521   22.0925 N   0  0  0  0  0  0
  -23.4216  -28.8106   23.2887 O   0  0  0  0  0  0
  -28.3680  -26.4206   20.2357 O   0  0  0  0  0  0
  -26.5644  -34.8922   22.4644 O   0  0  0  0  0  0
  -23.5386  -32.1380   23.7265 O   0  0  0  0  0  0
  -28.9799  -17.9886   21.8373 C   0  0  0  0  0  0
  -30.6353  -18.0576   20.1347 C   0  0  0  0  0  0
  -28.9199  -19.4266   21.8872 C   0  0  0  0  0  0
  -29.7067  -20.2545   21.0084 C   0  0  0  0  0  0
  -29.8480  -17.2414   20.9939 C   0  0  0  0  0  0
  -30.5696  -19.4972   20.1413 C   0  0  0  0  0  0
  -29.3730  -19.2907   26.3892 C   0  0  0  0  0  0
  -28.2307  -20.2685   26.6604 C   0  0  0  0  0  0
  -29.1978  -18.9472   24.9113 C   0  0  0  0  0  0
  -27.9081  -20.9051   25.2980 C   0  0  0  0  0  0
  -28.1070  -23.8797   21.1082 C   0  0  0  0  0  0
  -29.6449  -24.1447   19.8613 C   0  0  0  0  0  0
  -28.3064  -24.9398   19.9724 C   0  0  2  0  0  0
  -28.0162  -20.0283   22.9698 C   0  0  0  0  0  0
  -29.8212  -21.8675   21.1413 C   0  0  0  0  0  0
  -29.8197  -15.7525   21.0558 N   0  0  0  0  0  0
  -28.7102  -20.1912   24.2760 N   0  3  0  0  0  0
  -28.9737  -22.9026   20.3688 N   0  3  1  0  0  0
  -31.6475  -20.3289   19.0785 Cl  0  0  0  0  0  0
  -31.4799  -12.6006   19.1840 H   0  0  0  0  0  0
  -30.3988  -11.4617   19.9323 H   0  0  0  0  0  0
  -29.7901  -11.7886   17.5102 H   0  0  0  0  0  0
  -29.6336  -13.5089   17.7674 H   0  0  0  0  0  0
  -27.8733  -11.3007   18.8764 H   0  0  0  0  0  0
  -27.3794  -12.5872   17.8103 H   0  0  0  0  0  0
  -27.6625  -14.2609   19.5358 H   0  0  0  0  0  0
  -28.7152  -12.0733   21.3874 H   0  0  0  0  0  0
  -28.4074  -13.7161   21.8675 H   0  0  0  0  0  0
  -25.2726   -9.5709   22.4768 H   0  0  0  0  0  0
  -23.9989   -7.4645   22.7474 H   0  0  0  0  0  0
  -21.0829   -8.8742   19.8944 H   0  0  0  0  0  0
  -22.3640  -10.9668   19.6175 H   0  0  0  0  0  0
  -21.2016   -7.6141   23.9695 H   0  0  0  0  0  0
  -21.1495   -6.0519   25.9061 H   0  0  0  0  0  0
  -22.0598   -2.7603   23.2822 H   0  0  0  0  0  0
  -22.4062  -11.9828   22.4698 H   0  0  0  0  0  0
  -21.1115  -13.1287   22.2743 H   0  0  0  0  0  0
  -24.6612  -15.8512   20.4909 H   0  0  0  0  0  0
  -26.2778  -15.6152   20.0628 H   0  0  0  0  0  0
  -26.7068  -32.5389   23.0975 H   0  0  0  0  0  0
  -25.0065  -33.9728   25.0376 H   0  0  0  0  0  0
  -22.7190  -31.2957   21.3788 H   0  0  0  0  0  0
  -23.3821  -35.9563   23.3305 H   0  0  0  0  0  0
  -24.3645  -36.8877   22.2067 H   0  0  0  0  0  0
  -23.7296  -37.6457   23.6678 H   0  0  0  0  0  0
  -26.1239  -31.5380   20.6227 H   0  0  0  0  0  0
  -26.8383  -30.8039   22.0224 H   0  0  0  0  0  0
  -28.1045  -28.9355   21.2387 H   0  0  0  0  0  0
  -25.9554  -25.8863   19.0488 H   0  0  0  0  0  0
  -23.9841  -27.2749   19.0297 H   0  0  0  0  0  0
  -23.7855  -30.5840   19.3946 H   0  0  0  0  0  0
  -22.7688  -29.2481   19.8307 H   0  0  0  0  0  0
  -25.1363  -36.1873   25.0842 H   0  0  0  0  0  0
  -21.0042  -28.3168   24.1360 H   0  0  0  0  0  0
  -20.5677  -26.2228   23.3567 H   0  0  0  0  0  0
  -21.6661  -26.7329   22.1173 H   0  0  0  0  0  0
  -19.6971  -25.6253   21.1188 H   0  0  0  0  0  0
  -19.6743  -27.3131   20.6695 H   0  0  0  0  0  0
  -17.4232  -26.6594   21.3987 H   0  0  0  0  0  0
  -18.0356  -26.0013   22.8987 H   0  0  0  0  0  0
  -19.7983  -30.7197   24.2226 H   0  0  0  0  0  0
  -17.5068  -31.6239   24.5096 H   0  0  0  0  0  0
  -15.5386  -30.2936   23.7672 H   0  0  0  0  0  0
  -15.8688  -28.0788   22.7038 H   0  0  0  0  0  0
  -24.5852  -30.7124   25.7736 H   0  0  0  0  0  0
  -24.8873  -32.2980   26.4725 H   0  0  0  0  0  0
  -25.7998  -30.9028   27.0210 H   0  0  0  0  0  0
  -26.2817  -29.6801   24.1135 H   0  0  0  0  0  0
  -27.4000  -29.7238   25.4571 H   0  0  0  0  0  0
  -27.8694  -30.4337   23.9321 H   0  0  0  0  0  0
  -27.2536  -33.3674   26.1955 H   0  0  0  0  0  0
  -28.3795  -32.6912   25.0274 H   0  0  0  0  0  0
  -28.0615  -31.8544   26.5409 H   0  0  0  0  0  0
  -28.2571  -38.0122   24.7517 H   0  0  0  0  0  0
  -28.1167  -36.2647   24.6304 H   0  0  0  0  0  0
  -27.2326  -37.1408   25.8874 H   0  0  0  0  0  0
  -20.9331  -29.8821   21.6939 H   0  0  0  0  0  0
  -26.0202  -38.2828   24.1399 H   0  0  0  0  0  0
  -28.3500  -17.4277   22.5160 H   0  0  0  0  0  0
  -31.3183  -17.5755   19.4512 H   0  0  0  0  0  0
  -29.3447  -18.4097   27.0314 H   0  0  0  0  0  0
  -30.3325  -19.7839   26.5471 H   0  0  0  0  0  0
  -28.4906  -21.0143   27.4118 H   0  0  0  0  0  0
  -27.3569  -19.7267   27.0255 H   0  0  0  0  0  0
  -28.4452  -18.1643   24.8140 H   0  0  0  0  0  0
  -30.1197  -18.5835   24.4551 H   0  0  0  0  0  0
  -28.1392  -21.9708   25.2771 H   0  0  0  0  0  0
  -26.8403  -20.8030   25.0999 H   0  0  0  0  0  0
  -27.0809  -23.5367   21.2344 H   0  0  0  0  0  0
  -28.5301  -24.1979   22.0664 H   0  0  0  0  0  0
  -30.4200  -24.5252   20.5351 H   0  0  0  0  0  0
  -30.0352  -24.0630   18.8466 H   0  0  0  0  0  0
  -27.6891  -24.7093   19.1035 H   0  0  0  0  0  0
  -27.1386  -19.3952   23.1132 H   0  0  0  0  0  0
  -27.6226  -20.9908   22.6420 H   0  0  0  0  0  0
  -30.8563  -22.1178   20.9119 H   0  0  0  0  0  0
  -29.7549  -22.1135   22.2003 H   0  0  0  0  0  0
  -29.0115  -15.3863   21.5359 H   0  0  0  0  0  0
  -29.5315  -20.7561   24.1206 H   0  0  0  0  0  0
  -28.4658  -22.4637   19.6163 H   0  0  0  0  0  0
  1 25  1  0  0  0
  1 30  2  0  0  0
  1 86  1  0  0  0
  2  3  1  0  0  0
  2 25  1  0  0  0
  2 90  1  0  0  0
  2 91  1  0  0  0
  3  4  1  0  0  0
  3 92  1  0  0  0
  3 93  1  0  0  0
  4  5  1  0  0  0
  4 94  1  0  0  0
  4 95  1  0  0  0
  5  6  1  0  0  0
  5 26  1  0  0  0
  5 96  1  0  0  0
  6 25  1  0  0  0
  6 97  1  0  0  0
  6 98  1  0  0  0
  7  8  2  0  0  0
  7 26  1  0  0  0
  7 29  1  0  0  0
  8  9  1  0  0  0
  8 22  1  0  0  0
  9 10  1  0  0  0
  9 27  2  0  0  0
 10 11  2  0  0  0
 10 15  1  0  0  0
 11 12  1  0  0  0
 11 99  1  0  0  0
 12 13  2  0  0  0
 12100  1  0  0  0
 13 14  1  0  0  0
 13 31  1  0  0  0
 14 15  2  0  0  0
 14101  1  0  0  0
 15102  1  0  0  0
 16 17  2  0  0  0
 16 21  1  0  0  0
 16 31  1  0  0  0
 17 18  1  0  0  0
 17103  1  0  0  0
 18 19  2  0  0  0
 18104  1  0  0  0
 19 20  1  0  0  0
 19 24  1  0  0  0
 20 21  2  0  0  0
 20105  1  0  0  0
 21 23  1  0  0  0
 22 28  1  0  0  0
 22 32  2  0  0  0
 26 27  1  0  0  0
 28106  1  0  0  0
 28107  1  0  0  0
 29108  1  0  0  0
 29109  1  0  0  0
 33 34  1  0  0  0
 33 66  1  0  0  0
 33 70  2  0  0  0
 34 36  1  0  0  0
 34 59  1  0  0  0
 34110  1  0  0  0
 35 44  2  0  0  0
 35 45  1  0  0  0
 35 68  1  0  0  0
 36 56  1  0  0  0
 36111  1  0  0  0
 37 39  1  0  0  0
 37 47  1  0  0  0
 37 66  1  0  0  0
 37112  1  0  0  0
 38 43  2  0  0  0
 38 46  1  0  0  0
 38 47  1  0  0  0
 39 64  1  0  0  0
 39 67  2  0  0  0
 40 52  1  0  0  0
 40 53  2  0  0  0
 40 58  1  0  0  0
 41113  1  0  0  0
 41114  1  0  0  0
 41115  1  0  0  0
 41 48  1  0  0  0
 42 43  1  0  0  0
 42 66  1  0  0  0
 42116  1  0  0  0
 42117  1  0  0  0
 43 44  1  0  0  0
 44118  1  0  0  0
 45 46  2  0  0  0
 45119  1  0  0  0
 46120  1  0  0  0
 47121  1  0  0  0
 47122  1  0  0  0
 48 56  1  0  0  0
 48 65  1  0  0  0
 48123  1  0  0  0
 49 50  1  0  0  0
 49 53  1  0  0  0
 49 64  1  0  0  0
 49124  1  0  0  0
 50 51  1  0  0  0
 50125  1  0  0  0
 50126  1  0  0  0
 51 52  1  0  0  0
 51127  1  0  0  0
 51128  1  0  0  0
 52129  1  0  0  0
 52130  1  0  0  0
 53 54  1  0  0  0
 54 55  2  0  0  0
 54131  1  0  0  0
 55 57  1  0  0  0
 55132  1  0  0  0
 56 69  2  0  0  0
 57 58  2  0  0  0
 57133  1  0  0  0
 58134  1  0  0  0
 59 60  1  0  0  0
 59 61  1  0  0  0
 59 62  1  0  0  0
 60135  1  0  0  0
 60136  1  0  0  0
 60137  1  0  0  0
 61138  1  0  0  0
 61139  1  0  0  0
 61140  1  0  0  0
 62141  1  0  0  0
 62142  1  0  0  0
 62143  1  0  0  0
 63 65  1  0  0  0
 63144  1  0  0  0
 63145  1  0  0  0
 63146  1  0  0  0
 64147  1  0  0  0
 65148  1  0  0  0
 68 83  1  0  0  0
 71 73  2  0  0  0
 71 75  1  0  0  0
 71149  1  0  0  0
 72 75  2  0  0  0
 72 76  1  0  0  0
 72150  1  0  0  0
 73 74  1  0  0  0
 73 84  1  0  0  0
 74 76  2  0  0  0
 74 85  1  0  0  0
 75 86  1  0  0  0
 76 89  1  0  0  0
 77 78  1  0  0  0
 77 79  1  0  0  0
 77151  1  0  0  0
 77152  1  0  0  0
 78 80  1  0  0  0
 78153  1  0  0  0
 78154  1  0  0  0
 79 87  1  0  0  0
 79155  1  0  0  0
 79156  1  0  0  0
 80 87  1  0  0  0
 80157  1  0  0  0
 80158  1  0  0  0
 81 83  1  0  0  0
 81 88  1  0  0  0
 81159  1  0  0  0
 81160  1  0  0  0
 82 83  1  0  0  0
 82 88  1  0  0  0
 82161  1  0  0  0
 82162  1  0  0  0
 83163  1  0  0  0
 84164  1  0  0  0
 84165  1  0  0  0
 84 87  1  0  0  0
 85166  1  0  0  0
 85167  1  0  0  0
 85 88  1  0  0  0
 86168  1  0  0  0
 87169  1  0  0  0
 88170  1  0  0  0
M  CHG  2  87   1  88   1
M  ISO  4   1 100  68 101  83 101  86 100
M  END
> <chiral flag>
0

> <version>
0

> <s_m_source_file>
/data/baiqing/PycharmProjects/Reinvent-master-3.2/result/LINK_invent/BTK/process_docking_weight1_custom_product_contain_oxygen_bond_distance_aromatic_linkinvent_7_9_3/rearranged_h_0029.sdf

> <i_m_source_file_index>
5

> <r_mmod_Potential_Energy-OPLS-2005>
-84.9389953613281

> <r_mmod_Stretch_Energy-OPLS-2005>
123.49365234375

> <r_mmod_Bend_Energy-OPLS-2005>
236.649932861328

> <r_mmod_Torsional_Energy-OPLS-2005>
275.870239257812

> <r_mmod_Improper_Torsional_Energy-OPLS-2005>
4.15269041061401

> <r_mmod_Van_der_Waal_Energy-OPLS-2005>
133.529190063477

> <r_mmod_Electrostatic_Energy-OPLS-2005>
68.7937316894531

> <r_mmod_Solvation_Energy-OPLS-2005>
-1003.28424072266

> <b_mmod_Minimization_Converged-OPLS-2005>
0

> <r_mmod_RMS_Derivative-OPLS-2005>
3.72178626060486

$$$$
5
                    3D
 Structure written by MMmdl.
166175  0  0  1  0            999 V2000
  -30.6430  -14.9034   20.2972 C   0  0  0  0  0  0
  -30.4230  -12.5719   19.4133 C   0  0  0  0  0  0
  -29.4830  -12.4688   18.2009 C   0  0  0  0  0  0
  -28.0231  -12.2824   18.6629 C   0  0  0  0  0  0
  -27.6229  -13.2102   19.8445 C   0  0  2  0  0  0
  -28.7082  -13.3169   20.9273 C   0  0  0  0  0  0
  -25.2517  -13.8108   20.5923 C   0  0  0  0  0  0
  -24.1771  -13.0373   20.9298 C   0  0  0  0  0  0
  -24.6352  -11.6852   20.8832 C   0  0  0  0  0  0
  -23.9033  -10.4251   21.0439 C   0  0  0  0  0  0
  -24.3594   -9.4167   21.9205 C   0  0  0  0  0  0
  -23.6275   -8.2204   22.0758 C   0  0  0  0  0  0
  -22.4256   -8.0258   21.3546 C   0  0  0  0  0  0
  -21.9894   -9.0231   20.4648 C   0  0  0  0  0  0
  -22.7219  -10.2110   20.3070 C   0  0  0  0  0  0
  -21.6839   -6.0725   22.5282 C   0  0  0  0  0  0
  -21.4003   -6.5635   23.8215 C   0  0  0  0  0  0
  -21.3658   -5.6790   24.9180 C   0  0  0  0  0  0
  -21.6047   -4.3053   24.7231 C   0  0  0  0  0  0
  -21.8821   -3.8143   23.4352 C   0  0  0  0  0  0
  -21.9191   -4.6956   22.3407 C   0  0  0  0  0  0
  -22.7796  -13.5188   21.1888 C   0  0  0  0  0  0
  -22.1659   -4.2144   21.0984 F   0  0  0  0  0  0
  -21.5635   -3.4538   25.7744 F   0  0  0  0  0  0
  -29.9277  -13.7190   20.2092 N   0  0  0  0  0  0
  -26.2912  -12.9259   20.3524 N   0  0  0  0  0  0
  -25.9289  -11.6425   20.5923 N   0  0  0  0  0  0
  -22.0410  -12.8195   22.0427 N   0  0  0  0  0  0
  -25.4205  -15.1845   20.4488 N   0  0  0  0  0  0
  -31.8492  -14.7660   20.5211 O   0  0  0  0  0  0
  -21.6621   -6.8858   21.4239 O   0  0  0  0  0  0
  -22.3516  -14.5500   20.6714 O   0  0  0  0  0  0
  -24.6375  -31.8496   23.1931 C   0  0  0  0  0  0
  -25.9173  -32.4724   23.8303 C   0  0  1  0  0  0
  -27.2169  -27.1989   20.1408 C   0  0  0  0  0  0
  -25.5943  -33.8529   24.2221 N   0  0  0  0  0  0
  -23.4382  -30.4699   21.5377 C   0  0  2  0  0  0
  -24.8867  -28.9071   20.1090 C   0  0  0  0  0  0
  -22.7540  -29.4572   22.4888 C   0  0  0  0  0  0
  -18.0300  -28.1394   22.8481 C   0  0  0  0  0  0
  -24.1489  -36.7267   23.2643 C   0  0  0  0  0  0
  -25.9892  -30.7420   21.3836 C   0  0  0  0  0  0
  -26.0613  -29.3596   20.7243 C   0  0  0  0  0  0
  -27.2295  -28.5200   20.7248 C   0  0  0  0  0  0
  -26.0224  -26.8359   19.4815 C   0  0  0  0  0  0
  -24.8765  -27.6566   19.4732 C   0  0  0  0  0  0
  -23.6608  -29.8019   20.1552 C   0  0  0  0  0  0
  -25.4119  -36.3048   24.0320 C   0  0  1  0  0  0
  -20.5907  -28.3712   23.1251 C   0  0  2  0  0  0
  -20.6784  -26.9420   22.5409 C   0  0  0  0  0  0
  -19.5758  -26.6383   21.5217 C   0  0  0  0  0  0
  -18.1940  -26.7935   22.1626 C   0  0  0  0  0  0
  -19.1555  -28.8871   23.2861 C   0  0  0  0  0  0
  -18.9474  -30.1470   23.8881 C   0  0  0  0  0  0
  -17.6471  -30.6592   24.0561 C   0  0  0  0  0  0
  -25.9065  -34.9422   23.5075 C   0  0  0  0  0  0
  -16.5362  -29.9086   23.6334 C   0  0  0  0  0  0
  -16.7286  -28.6505   23.0354 C   0  0  0  0  0  0
  -26.4514  -31.6575   25.0724 C   0  0  0  0  0  0
  -25.3712  -31.3757   26.1426 C   0  0  0  0  0  0
  -27.0379  -30.2981   24.6271 C   0  0  0  0  0  0
  -27.6050  -32.4338   25.7505 C   0  0  0  0  0  0
  -27.5575  -37.1791   24.8466 C   0  0  0  0  0  0
  -21.4240  -29.3048   22.3635 N   0  0  0  0  0  0
  -26.4288  -37.3753   23.9408 N   0  0  0  0  0  0
  -24.7079  -31.0399   22.0939 N   0  0  0  0  0  0
  -23.4207  -28.8116   23.3018 O   0  0  0  0  0  0
  -28.2847  -26.2521   20.2000 O   0  0  0  0  0  0
  -26.5648  -34.8910   22.4653 O   0  0  0  0  0  0
  -23.5509  -32.1348   23.7181 O   0  0  0  0  0  0
  -27.6887  -19.6550   19.5335 C   0  0  0  0  0  0
  -29.7645  -18.5962   20.2116 C   0  0  0  0  0  0
  -28.9727  -19.8359   20.0743 C   0  0  0  0  0  0
  -27.2687  -18.4141   19.0153 C   0  0  0  0  0  0
  -28.1191  -17.2729   19.0177 C   0  0  0  0  0  0
  -29.3570  -17.2572   19.7384 C   0  0  0  0  0  0
  -28.8082  -23.8004   21.2659 C   0  0  0  0  0  0
  -28.4864  -23.6387   19.3042 C   0  0  0  0  0  0
  -27.9856  -24.7485   20.3151 C   0  0  2  0  0  0
  -25.9072  -18.3713   18.3334 C   0  0  0  0  0  0
  -27.7682  -16.1843   18.0061 C   0  0  0  0  0  0
  -30.8990  -17.1308   17.2716 C   0  0  0  0  0  0
  -29.4494  -21.3565   20.4103 C   0  0  0  0  0  0
  -31.3600  -16.4249   18.5651 C   0  0  0  0  0  0
  -30.2869  -16.0708   19.5405 N   0  0  0  0  0  0
  -28.4998  -22.6063   20.4025 N   0  3  1  0  0  0
  -31.4488  -12.7233   19.0720 H   0  0  0  0  0  0
  -30.4250  -11.6500   19.9972 H   0  0  0  0  0  0
  -29.7799  -11.6379   17.5598 H   0  0  0  0  0  0
  -29.5713  -13.3667   17.5884 H   0  0  0  0  0  0
  -27.9147  -11.2415   18.9699 H   0  0  0  0  0  0
  -27.3400  -12.4215   17.8239 H   0  0  0  0  0  0
  -27.5529  -14.1987   19.4354 H   0  0  0  0  0  0
  -28.8413  -12.3739   21.4589 H   0  0  0  0  0  0
  -28.4380  -14.0709   21.6684 H   0  0  0  0  0  0
  -25.2733   -9.5642   22.4789 H   0  0  0  0  0  0
  -23.9985   -7.4589   22.7466 H   0  0  0  0  0  0
  -21.0830   -8.8749   19.8950 H   0  0  0  0  0  0
  -22.3682  -10.9658   19.6189 H   0  0  0  0  0  0
  -21.1984   -7.6142   23.9715 H   0  0  0  0  0  0
  -21.1481   -6.0522   25.9083 H   0  0  0  0  0  0
  -22.0600   -2.7603   23.2855 H   0  0  0  0  0  0
  -22.4005  -11.9861   22.4839 H   0  0  0  0  0  0
  -21.1024  -13.1231   22.2596 H   0  0  0  0  0  0
  -24.6543  -15.8339   20.5856 H   0  0  0  0  0  0
  -26.2892  -15.6414   20.2020 H   0  0  0  0  0  0
  -26.7243  -32.5350   23.1042 H   0  0  0  0  0  0
  -25.0073  -33.9663   25.0355 H   0  0  0  0  0  0
  -22.7381  -31.2940   21.3872 H   0  0  0  0  0  0
  -23.3754  -35.9597   23.3299 H   0  0  0  0  0  0
  -24.3575  -36.8904   22.2060 H   0  0  0  0  0  0
  -23.7243  -37.6463   23.6678 H   0  0  0  0  0  0
  -26.1383  -31.5000   20.6133 H   0  0  0  0  0  0
  -26.8620  -30.7892   22.0229 H   0  0  0  0  0  0
  -28.1252  -28.8602   21.2256 H   0  0  0  0  0  0
  -25.9514  -25.8838   18.9759 H   0  0  0  0  0  0
  -23.9808  -27.3087   18.9769 H   0  0  0  0  0  0
  -23.7920  -30.5770   19.3996 H   0  0  0  0  0  0
  -22.7776  -29.2399   19.8467 H   0  0  0  0  0  0
  -25.1307  -36.1885   25.0813 H   0  0  0  0  0  0
  -20.9994  -28.3292   24.1372 H   0  0  0  0  0  0
  -20.5680  -26.2325   23.3624 H   0  0  0  0  0  0
  -21.6650  -26.7439   22.1202 H   0  0  0  0  0  0
  -19.6917  -25.6290   21.1255 H   0  0  0  0  0  0
  -19.6690  -27.3185   20.6739 H   0  0  0  0  0  0
  -17.4210  -26.6683   21.4029 H   0  0  0  0  0  0
  -18.0333  -26.0084   22.9027 H   0  0  0  0  0  0
  -19.7951  -30.7294   24.2236 H   0  0  0  0  0  0
  -17.5025  -31.6268   24.5171 H   0  0  0  0  0  0
  -15.5359  -30.2981   23.7672 H   0  0  0  0  0  0
  -15.8687  -28.0821   22.7072 H   0  0  0  0  0  0
  -24.5886  -30.7112   25.7748 H   0  0  0  0  0  0
  -24.8907  -32.2941   26.4810 H   0  0  0  0  0  0
  -25.7997  -30.8955   27.0231 H   0  0  0  0  0  0
  -26.2991  -29.6709   24.1268 H   0  0  0  0  0  0
  -27.4004  -29.7270   25.4830 H   0  0  0  0  0  0
  -27.8888  -30.4241   23.9573 H   0  0  0  0  0  0
  -27.2642  -33.3648   26.2046 H   0  0  0  0  0  0
  -28.3872  -32.6885   25.0342 H   0  0  0  0  0  0
  -28.0703  -31.8493   26.5453 H   0  0  0  0  0  0
  -28.2589  -38.0090   24.7506 H   0  0  0  0  0  0
  -28.1075  -36.2620   24.6298 H   0  0  0  0  0  0
  -27.2294  -37.1445   25.8869 H   0  0  0  0  0  0
  -20.9439  -29.8769   21.6827 H   0  0  0  0  0  0
  -26.0158  -38.2825   24.1405 H   0  0  0  0  0  0
  -27.0288  -20.5031   19.4230 H   0  0  0  0  0  0
  -30.7636  -18.6919   20.6126 H   0  0  0  0  0  0
  -28.4024  -23.7196   22.2744 H   0  0  0  0  0  0
  -29.8747  -24.0356   21.2989 H   0  0  0  0  0  0
  -29.4805  -23.8381   18.8974 H   0  0  0  0  0  0
  -27.7818  -23.4102   18.5045 H   0  0  0  0  0  0
  -26.9273  -24.6005   20.5400 H   0  0  0  0  0  0
  -25.3305  -17.5062   18.6595 H   0  0  0  0  0  0
  -26.0176  -18.3273   17.2498 H   0  0  0  0  0  0
  -25.3123  -19.2548   18.5676 H   0  0  0  0  0  0
  -26.7819  -15.7577   18.1779 H   0  0  0  0  0  0
  -28.4969  -15.3815   17.9420 H   0  0  0  0  0  0
  -27.7418  -16.6268   17.0102 H   0  0  0  0  0  0
  -31.7552  -17.3270   16.6257 H   0  0  0  0  0  0
  -30.4217  -18.0934   17.4549 H   0  0  0  0  0  0
  -30.2119  -16.5089   16.6991 H   0  0  0  0  0  0
  -30.3046  -21.5849   19.7749 H   0  0  0  0  0  0
  -29.8568  -21.3043   21.4196 H   0  0  0  0  0  0
  -32.0975  -17.0492   19.0728 H   0  0  0  0  0  0
  -31.9008  -15.5378   18.2242 H   0  0  0  0  0  0
  -27.5616  -22.3094   20.6180 H   0  0  0  0  0  0
  1 25  1  0  0  0
  1 30  2  0  0  0
  1 85  1  0  0  0
  2  3  1  0  0  0
  2 25  1  0  0  0
  2 87  1  0  0  0
  2 88  1  0  0  0
  3  4  1  0  0  0
  3 89  1  0  0  0
  3 90  1  0  0  0
  4  5  1  0  0  0
  4 91  1  0  0  0
  4 92  1  0  0  0
  5  6  1  0  0  0
  5 26  1  0  0  0
  5 93  1  0  0  0
  6 25  1  0  0  0
  6 94  1  0  0  0
  6 95  1  0  0  0
  7  8  2  0  0  0
  7 26  1  0  0  0
  7 29  1  0  0  0
  8  9  1  0  0  0
  8 22  1  0  0  0
  9 10  1  0  0  0
  9 27  2  0  0  0
 10 11  2  0  0  0
 10 15  1  0  0  0
 11 12  1  0  0  0
 11 96  1  0  0  0
 12 13  2  0  0  0
 12 97  1  0  0  0
 13 14  1  0  0  0
 13 31  1  0  0  0
 14 15  2  0  0  0
 14 98  1  0  0  0
 15 99  1  0  0  0
 16 17  2  0  0  0
 16 21  1  0  0  0
 16 31  1  0  0  0
 17 18  1  0  0  0
 17100  1  0  0  0
 18 19  2  0  0  0
 18101  1  0  0  0
 19 20  1  0  0  0
 19 24  1  0  0  0
 20 21  2  0  0  0
 20102  1  0  0  0
 21 23  1  0  0  0
 22 28  1  0  0  0
 22 32  2  0  0  0
 26 27  1  0  0  0
 28103  1  0  0  0
 28104  1  0  0  0
 29105  1  0  0  0
 29106  1  0  0  0
 33 34  1  0  0  0
 33 66  1  0  0  0
 33 70  2  0  0  0
 34 36  1  0  0  0
 34 59  1  0  0  0
 34107  1  0  0  0
 35 44  2  0  0  0
 35 45  1  0  0  0
 35 68  1  0  0  0
 36 56  1  0  0  0
 36108  1  0  0  0
 37 39  1  0  0  0
 37 47  1  0  0  0
 37 66  1  0  0  0
 37109  1  0  0  0
 38 43  2  0  0  0
 38 46  1  0  0  0
 38 47  1  0  0  0
 39 64  1  0  0  0
 39 67  2  0  0  0
 40 52  1  0  0  0
 40 53  2  0  0  0
 40 58  1  0  0  0
 41110  1  0  0  0
 41111  1  0  0  0
 41112  1  0  0  0
 41 48  1  0  0  0
 42 43  1  0  0  0
 42 66  1  0  0  0
 42113  1  0  0  0
 42114  1  0  0  0
 43 44  1  0  0  0
 44115  1  0  0  0
 45 46  2  0  0  0
 45116  1  0  0  0
 46117  1  0  0  0
 47118  1  0  0  0
 47119  1  0  0  0
 48 56  1  0  0  0
 48 65  1  0  0  0
 48120  1  0  0  0
 49 50  1  0  0  0
 49 53  1  0  0  0
 49 64  1  0  0  0
 49121  1  0  0  0
 50 51  1  0  0  0
 50122  1  0  0  0
 50123  1  0  0  0
 51 52  1  0  0  0
 51124  1  0  0  0
 51125  1  0  0  0
 52126  1  0  0  0
 52127  1  0  0  0
 53 54  1  0  0  0
 54 55  2  0  0  0
 54128  1  0  0  0
 55 57  1  0  0  0
 55129  1  0  0  0
 56 69  2  0  0  0
 57 58  2  0  0  0
 57130  1  0  0  0
 58131  1  0  0  0
 59 60  1  0  0  0
 59 61  1  0  0  0
 59 62  1  0  0  0
 60132  1  0  0  0
 60133  1  0  0  0
 60134  1  0  0  0
 61135  1  0  0  0
 61136  1  0  0  0
 61137  1  0  0  0
 62138  1  0  0  0
 62139  1  0  0  0
 62140  1  0  0  0
 63 65  1  0  0  0
 63141  1  0  0  0
 63142  1  0  0  0
 63143  1  0  0  0
 64144  1  0  0  0
 65145  1  0  0  0
 68 79  1  0  0  0
 71 73  2  0  0  0
 71 74  1  0  0  0
 71146  1  0  0  0
 72 73  1  0  0  0
 72 76  2  0  0  0
 72147  1  0  0  0
 73 83  1  0  0  0
 74 75  2  0  0  0
 74 80  1  0  0  0
 75 76  1  0  0  0
 75 81  1  0  0  0
 76 85  1  0  0  0
 77 79  1  0  0  0
 77 86  1  0  0  0
 77148  1  0  0  0
 77149  1  0  0  0
 78 79  1  0  0  0
 78 86  1  0  0  0
 78150  1  0  0  0
 78151  1  0  0  0
 79152  1  0  0  0
 80153  1  0  0  0
 80154  1  0  0  0
 80155  1  0  0  0
 81156  1  0  0  0
 81157  1  0  0  0
 81158  1  0  0  0
 82 84  1  0  0  0
 82159  1  0  0  0
 82160  1  0  0  0
 82161  1  0  0  0
 83162  1  0  0  0
 83163  1  0  0  0
 83 86  1  0  0  0
 84 85  1  0  0  0
 84164  1  0  0  0
 84165  1  0  0  0
 86166  1  0  0  0
M  CHG  1  86   1
M  ISO  4   1 100  68 101  79 101  85 100
M  END
> <chiral flag>
0

> <version>
0

> <s_m_source_file>
/data/baiqing/PycharmProjects/Reinvent-master-3.2/result/LINK_invent/BTK/process_docking_weight1_custom_product_contain_oxygen_bond_distance_aromatic_linkinvent_7_9_3/rearranged_h_0029.sdf

> <i_m_source_file_index>
6

> <r_mmod_Potential_Energy-OPLS-2005>
500.005950927734

> <r_mmod_Stretch_Energy-OPLS-2005>
192.080581665039

> <r_mmod_Bend_Energy-OPLS-2005>
276.746826171875

> <r_mmod_Torsional_Energy-OPLS-2005>
358.45166015625

> <r_mmod_Improper_Torsional_Energy-OPLS-2005>
33.8787879943848

> <r_mmod_Van_der_Waal_Energy-OPLS-2005>
152.244766235352

> <r_mmod_Electrostatic_Energy-OPLS-2005>
-247.885620117188

> <r_mmod_Solvation_Energy-OPLS-2005>
-454.099700927734

> <b_mmod_Minimization_Converged-OPLS-2005>
0

> <r_mmod_RMS_Derivative-OPLS-2005>
0.640674829483032

$$$$
6
                    3D
 Structure written by MMmdl.
163173  0  0  1  0            999 V2000
  -30.7330  -14.3650   20.7013 C   0  0  0  0  0  0
  -30.4322  -12.2905   19.3861 C   0  0  0  0  0  0
  -29.4857  -12.5046   18.1878 C   0  0  0  0  0  0
  -28.0100  -12.3475   18.6064 C   0  0  0  0  0  0
  -27.6676  -13.1851   19.8664 C   0  0  2  0  0  0
  -28.7017  -12.9102   20.9785 C   0  0  0  0  0  0
  -25.2642  -13.8122   20.5630 C   0  0  0  0  0  0
  -24.1860  -13.0438   20.9117 C   0  0  0  0  0  0
  -24.6379  -11.6893   20.8676 C   0  0  0  0  0  0
  -23.9024  -10.4295   21.0398 C   0  0  0  0  0  0
  -24.3599   -9.4212   21.9173 C   0  0  0  0  0  0
  -23.6291   -8.2237   22.0734 C   0  0  0  0  0  0
  -22.4265   -8.0274   21.3535 C   0  0  0  0  0  0
  -21.9895   -9.0239   20.4629 C   0  0  0  0  0  0
  -22.7211  -10.2128   20.3040 C   0  0  0  0  0  0
  -21.6852   -6.0736   22.5283 C   0  0  0  0  0  0
  -21.4018   -6.5645   23.8213 C   0  0  0  0  0  0
  -21.3649   -5.6795   24.9172 C   0  0  0  0  0  0
  -21.6043   -4.3056   24.7220 C   0  0  0  0  0  0
  -21.8822   -3.8153   23.4341 C   0  0  0  0  0  0
  -21.9193   -4.6971   22.3403 C   0  0  0  0  0  0
  -22.7890  -13.5244   21.1839 C   0  0  0  0  0  0
  -22.1666   -4.2166   21.0978 F   0  0  0  0  0  0
  -21.5623   -3.4528   25.7722 F   0  0  0  0  0  0
  -30.0545  -13.2128   20.4643 N   0  0  0  0  0  0
  -26.3044  -12.9252   20.3286 N   0  0  0  0  0  0
  -25.9291  -11.6430   20.5695 N   0  0  0  0  0  0
  -22.0550  -12.8222   22.0407 N   0  0  0  0  0  0
  -25.4463  -15.1839   20.4096 N   0  0  0  0  0  0
  -31.6905  -14.7553   20.0259 O   0  0  0  0  0  0
  -21.6634   -6.8877   21.4238 O   0  0  0  0  0  0
  -22.3565  -14.5560   20.6721 O   0  0  0  0  0  0
  -24.6099  -31.8689   23.2134 C   0  0  0  0  0  0
  -25.9003  -32.4822   23.8408 C   0  0  1  0  0  0
  -27.2346  -27.4494   20.0711 C   0  0  0  0  0  0
  -25.5885  -33.8629   24.2343 N   0  0  0  0  0  0
  -23.3963  -30.4907   21.5571 C   0  0  2  0  0  0
  -24.8419  -28.9542   20.1245 C   0  0  0  0  0  0
  -22.7368  -29.4620   22.5030 C   0  0  0  0  0  0
  -18.0280  -28.1317   22.8488 C   0  0  0  0  0  0
  -24.1486  -36.7337   23.2636 C   0  0  0  0  0  0
  -25.9248  -30.8327   21.3681 C   0  0  0  0  0  0
  -26.0023  -29.4662   20.7187 C   0  0  0  0  0  0
  -27.2032  -28.7190   20.6933 C   0  0  0  0  0  0
  -26.0582  -26.9515   19.4727 C   0  0  0  0  0  0
  -24.8627  -27.6927   19.5069 C   0  0  0  0  0  0
  -23.6033  -29.8206   20.1726 C   0  0  0  0  0  0
  -25.4104  -36.3128   24.0334 C   0  0  1  0  0  0
  -20.5850  -28.3584   23.1346 C   0  0  2  0  0  0
  -20.6759  -26.9311   22.5451 C   0  0  0  0  0  0
  -19.5746  -26.6336   21.5212 C   0  0  0  0  0  0
  -18.1957  -26.7829   22.1699 C   0  0  0  0  0  0
  -19.1523  -28.8788   23.2889 C   0  0  0  0  0  0
  -18.9472  -30.1399   23.8875 C   0  0  0  0  0  0
  -17.6473  -30.6544   24.0566 C   0  0  0  0  0  0
  -25.9028  -34.9485   23.5137 C   0  0  0  0  0  0
  -16.5359  -29.9032   23.6322 C   0  0  0  0  0  0
  -16.7271  -28.6457   23.0333 C   0  0  0  0  0  0
  -26.4457  -31.6588   25.0719 C   0  0  0  0  0  0
  -25.3743  -31.3684   26.1484 C   0  0  0  0  0  0
  -27.0281  -30.3030   24.6077 C   0  0  0  0  0  0
  -27.6021  -32.4327   25.7475 C   0  0  0  0  0  0
  -27.5589  -37.1813   24.8463 C   0  0  0  0  0  0
  -21.4101  -29.2974   22.3774 N   0  0  0  0  0  0
  -26.4303  -37.3807   23.9403 N   0  0  0  0  0  0
  -24.6624  -31.0773   22.1046 N   0  0  0  0  0  0
  -23.4166  -28.8146   23.3020 O   0  0  0  0  0  0
  -28.4114  -26.7383   19.9846 O   0  0  0  0  0  0
  -26.5597  -34.8922   22.4702 O   0  0  0  0  0  0
  -23.5294  -32.1449   23.7533 O   0  0  0  0  0  0
  -28.3868  -20.0707   23.1102 C   0  0  0  0  0  0
  -28.4427  -21.1425   22.2064 C   0  0  0  0  0  0
  -28.9021  -17.7860   23.7126 C   0  0  0  0  0  0
  -29.6688  -19.7408   20.6277 C   0  0  0  0  0  0
  -30.1054  -17.3575   21.1995 C   0  0  0  0  0  0
  -28.9615  -18.8315   22.7791 C   0  0  0  0  0  0
  -29.5905  -18.6422   21.5243 C   0  0  0  0  0  0
  -29.1032  -21.0043   20.9617 C   0  0  0  0  0  0
  -29.4442  -16.5268   23.4108 C   0  0  0  0  0  0
  -30.0108  -16.2869   22.1329 C   0  0  0  0  0  0
  -27.7381  -24.2635   20.0558 C   0  0  0  0  0  0
  -29.7021  -24.6642   20.4198 C   0  0  0  0  0  0
  -28.4323  -25.4870   20.6770 C   0  0  2  0  0  0
  -29.3821  -15.4532   24.4878 C   0  0  0  0  0  0
  -29.2056  -22.1928   19.9865 C   0  0  0  0  0  0
  -30.3872  -14.9418   21.8590 N   0  0  0  0  0  0
  -28.8479  -23.4913   20.6194 N   0  3  1  0  0  0
  -31.4708  -12.4259   19.0766 H   0  0  0  0  0  0
  -30.3677  -11.2626   19.7468 H   0  0  0  0  0  0
  -29.7224  -11.7924   17.3960 H   0  0  0  0  0  0
  -29.6440  -13.4964   17.7645 H   0  0  0  0  0  0
  -27.8279  -11.2904   18.8073 H   0  0  0  0  0  0
  -27.3491  -12.6134   17.7813 H   0  0  0  0  0  0
  -27.7336  -14.2373   19.5873 H   0  0  0  0  0  0
  -28.6600  -11.8581   21.2681 H   0  0  0  0  0  0
  -28.4246  -13.4608   21.8760 H   0  0  0  0  0  0
  -25.2762   -9.5688   22.4718 H   0  0  0  0  0  0
  -24.0014   -7.4625   22.7450 H   0  0  0  0  0  0
  -21.0821   -8.8757   19.8932 H   0  0  0  0  0  0
  -22.3691  -10.9651   19.6120 H   0  0  0  0  0  0
  -21.2025   -7.6159   23.9725 H   0  0  0  0  0  0
  -21.1462   -6.0521   25.9077 H   0  0  0  0  0  0
  -22.0614   -2.7617   23.2838 H   0  0  0  0  0  0
  -22.4183  -11.9839   22.4715 H   0  0  0  0  0  0
  -21.1177  -13.1242   22.2682 H   0  0  0  0  0  0
  -24.7021  -15.8571   20.5484 H   0  0  0  0  0  0
  -26.3286  -15.6127   20.1592 H   0  0  0  0  0  0
  -26.7044  -32.5535   23.1136 H   0  0  0  0  0  0
  -24.9984  -33.9790   25.0456 H   0  0  0  0  0  0
  -22.6821  -31.3066   21.4199 H   0  0  0  0  0  0
  -23.3746  -35.9683   23.3315 H   0  0  0  0  0  0
  -24.3577  -36.8932   22.2051 H   0  0  0  0  0  0
  -23.7245  -37.6536   23.6651 H   0  0  0  0  0  0
  -26.0323  -31.5977   20.5971 H   0  0  0  0  0  0
  -26.8127  -30.8913   21.9845 H   0  0  0  0  0  0
  -28.1033  -29.1174   21.1399 H   0  0  0  0  0  0
  -26.0603  -26.0087   18.9483 H   0  0  0  0  0  0
  -23.9722  -27.2986   19.0381 H   0  0  0  0  0  0
  -23.7147  -30.5980   19.4155 H   0  0  0  0  0  0
  -22.7250  -29.2419   19.8747 H   0  0  0  0  0  0
  -25.1284  -36.1997   25.0832 H   0  0  0  0  0  0
  -20.9913  -28.3124   24.1469 H   0  0  0  0  0  0
  -20.5592  -26.2175   23.3636 H   0  0  0  0  0  0
  -21.6639  -26.7276   22.1305 H   0  0  0  0  0  0
  -19.6937  -25.6262   21.1192 H   0  0  0  0  0  0
  -19.6627  -27.3203   20.6788 H   0  0  0  0  0  0
  -17.4146  -26.6449   21.4221 H   0  0  0  0  0  0
  -18.0509  -26.0058   22.9214 H   0  0  0  0  0  0
  -19.7996  -30.7121   24.2315 H   0  0  0  0  0  0
  -17.4980  -31.6183   24.5208 H   0  0  0  0  0  0
  -15.5344  -30.2857   23.7647 H   0  0  0  0  0  0
  -15.8651  -28.0795   22.7089 H   0  0  0  0  0  0
  -24.5889  -30.7041   25.7850 H   0  0  0  0  0  0
  -24.8962  -32.2836   26.4988 H   0  0  0  0  0  0
  -25.8136  -30.8819   27.0203 H   0  0  0  0  0  0
  -26.2807  -29.6794   24.1138 H   0  0  0  0  0  0
  -27.4042  -29.7257   25.4534 H   0  0  0  0  0  0
  -27.8674  -30.4328   23.9236 H   0  0  0  0  0  0
  -27.2588  -33.3593   26.2092 H   0  0  0  0  0  0
  -28.3812  -32.6929   25.0302 H   0  0  0  0  0  0
  -28.0714  -31.8433   26.5346 H   0  0  0  0  0  0
  -28.2607  -38.0109   24.7512 H   0  0  0  0  0  0
  -28.1080  -36.2633   24.6300 H   0  0  0  0  0  0
  -27.2310  -37.1500   25.8867 H   0  0  0  0  0  0
  -20.9209  -29.8786   21.7106 H   0  0  0  0  0  0
  -26.0199  -38.2896   24.1380 H   0  0  0  0  0  0
  -27.8881  -20.2001   24.0610 H   0  0  0  0  0  0
  -27.9708  -22.0641   22.5105 H   0  0  0  0  0  0
  -28.4335  -17.9468   24.6737 H   0  0  0  0  0  0
  -30.1643  -19.6155   19.6741 H   0  0  0  0  0  0
  -30.5487  -17.1949   20.2265 H   0  0  0  0  0  0
  -27.7148  -24.2659   18.9624 H   0  0  0  0  0  0
  -26.7646  -24.0141   20.4800 H   0  0  0  0  0  0
  -30.4892  -24.7874   21.1635 H   0  0  0  0  0  0
  -30.0879  -24.7514   19.4004 H   0  0  0  0  0  0
  -28.2197  -25.6076   21.7417 H   0  0  0  0  0  0
  -29.5364  -15.8988   25.4723 H   0  0  0  0  0  0
  -30.1522  -14.6893   24.3744 H   0  0  0  0  0  0
  -28.4031  -14.9720   24.4885 H   0  0  0  0  0  0
  -28.5681  -22.0028   19.1227 H   0  0  0  0  0  0
  -30.2254  -22.2445   19.6069 H   0  0  0  0  0  0
  -29.9369  -14.2809   22.4733 H   0  0  0  0  0  0
  -28.7049  -23.3508   21.6054 H   0  0  0  0  0  0
  1 25  1  0  0  0
  1 30  2  0  0  0
  1 86  1  0  0  0
  2  3  1  0  0  0
  2 25  1  0  0  0
  2 88  1  0  0  0
  2 89  1  0  0  0
  3  4  1  0  0  0
  3 90  1  0  0  0
  3 91  1  0  0  0
  4  5  1  0  0  0
  4 92  1  0  0  0
  4 93  1  0  0  0
  5  6  1  0  0  0
  5 26  1  0  0  0
  5 94  1  0  0  0
  6 25  1  0  0  0
  6 95  1  0  0  0
  6 96  1  0  0  0
  7  8  2  0  0  0
  7 26  1  0  0  0
  7 29  1  0  0  0
  8  9  1  0  0  0
  8 22  1  0  0  0
  9 10  1  0  0  0
  9 27  2  0  0  0
 10 11  2  0  0  0
 10 15  1  0  0  0
 11 12  1  0  0  0
 11 97  1  0  0  0
 12 13  2  0  0  0
 12 98  1  0  0  0
 13 14  1  0  0  0
 13 31  1  0  0  0
 14 15  2  0  0  0
 14 99  1  0  0  0
 15100  1  0  0  0
 16 17  2  0  0  0
 16 21  1  0  0  0
 16 31  1  0  0  0
 17 18  1  0  0  0
 17101  1  0  0  0
 18 19  2  0  0  0
 18102  1  0  0  0
 19 20  1  0  0  0
 19 24  1  0  0  0
 20 21  2  0  0  0
 20103  1  0  0  0
 21 23  1  0  0  0
 22 28  1  0  0  0
 22 32  2  0  0  0
 26 27  1  0  0  0
 28104  1  0  0  0
 28105  1  0  0  0
 29106  1  0  0  0
 29107  1  0  0  0
 33 34  1  0  0  0
 33 66  1  0  0  0
 33 70  2  0  0  0
 34 36  1  0  0  0
 34 59  1  0  0  0
 34108  1  0  0  0
 35 44  2  0  0  0
 35 45  1  0  0  0
 35 68  1  0  0  0
 36 56  1  0  0  0
 36109  1  0  0  0
 37 39  1  0  0  0
 37 47  1  0  0  0
 37 66  1  0  0  0
 37110  1  0  0  0
 38 43  2  0  0  0
 38 46  1  0  0  0
 38 47  1  0  0  0
 39 64  1  0  0  0
 39 67  2  0  0  0
 40 52  1  0  0  0
 40 53  2  0  0  0
 40 58  1  0  0  0
 41111  1  0  0  0
 41112  1  0  0  0
 41113  1  0  0  0
 41 48  1  0  0  0
 42 43  1  0  0  0
 42 66  1  0  0  0
 42114  1  0  0  0
 42115  1  0  0  0
 43 44  1  0  0  0
 44116  1  0  0  0
 45 46  2  0  0  0
 45117  1  0  0  0
 46118  1  0  0  0
 47119  1  0  0  0
 47120  1  0  0  0
 48 56  1  0  0  0
 48 65  1  0  0  0
 48121  1  0  0  0
 49 50  1  0  0  0
 49 53  1  0  0  0
 49 64  1  0  0  0
 49122  1  0  0  0
 50 51  1  0  0  0
 50123  1  0  0  0
 50124  1  0  0  0
 51 52  1  0  0  0
 51125  1  0  0  0
 51126  1  0  0  0
 52127  1  0  0  0
 52128  1  0  0  0
 53 54  1  0  0  0
 54 55  2  0  0  0
 54129  1  0  0  0
 55 57  1  0  0  0
 55130  1  0  0  0
 56 69  2  0  0  0
 57 58  2  0  0  0
 57131  1  0  0  0
 58132  1  0  0  0
 59 60  1  0  0  0
 59 61  1  0  0  0
 59 62  1  0  0  0
 60133  1  0  0  0
 60134  1  0  0  0
 60135  1  0  0  0
 61136  1  0  0  0
 61137  1  0  0  0
 61138  1  0  0  0
 62139  1  0  0  0
 62140  1  0  0  0
 62141  1  0  0  0
 63 65  1  0  0  0
 63142  1  0  0  0
 63143  1  0  0  0
 63144  1  0  0  0
 64145  1  0  0  0
 65146  1  0  0  0
 68 83  1  0  0  0
 71 72  2  0  0  0
 71 76  1  0  0  0
 71147  1  0  0  0
 72 78  1  0  0  0
 72148  1  0  0  0
 73 76  2  0  0  0
 73 79  1  0  0  0
 73149  1  0  0  0
 74 77  1  0  0  0
 74 78  2  0  0  0
 74150  1  0  0  0
 75 77  2  0  0  0
 75 80  1  0  0  0
 75151  1  0  0  0
 76 77  1  0  0  0
 78 85  1  0  0  0
 79 80  2  0  0  0
 79 84  1  0  0  0
 80 86  1  0  0  0
 81 83  1  0  0  0
 81 87  1  0  0  0
 81152  1  0  0  0
 81153  1  0  0  0
 82 83  1  0  0  0
 82 87  1  0  0  0
 82154  1  0  0  0
 82155  1  0  0  0
 83156  1  0  0  0
 84157  1  0  0  0
 84158  1  0  0  0
 84159  1  0  0  0
 85160  1  0  0  0
 85161  1  0  0  0
 85 87  1  0  0  0
 86162  1  0  0  0
 87163  1  0  0  0
M  CHG  1  87   1
M  ISO  4   1 100  68 101  83 101  86 100
M  END
> <chiral flag>
0

> <version>
0

> <s_m_source_file>
/data/baiqing/PycharmProjects/Reinvent-master-3.2/result/LINK_invent/BTK/process_docking_weight1_custom_product_contain_oxygen_bond_distance_aromatic_linkinvent_7_9_3/rearranged_h_0029.sdf

> <i_m_source_file_index>
7

> <r_mmod_Potential_Energy-OPLS-2005>
-194.19514465332

> <r_mmod_Stretch_Energy-OPLS-2005>
38.9797630310059

> <r_mmod_Bend_Energy-OPLS-2005>
128.772689819336

> <r_mmod_Torsional_Energy-OPLS-2005>
258.362670898438

> <r_mmod_Improper_Torsional_Energy-OPLS-2005>
6.37236785888672

> <r_mmod_Van_der_Waal_Energy-OPLS-2005>
171.45979309082

> <r_mmod_Electrostatic_Energy-OPLS-2005>
-344.226501464844

> <r_mmod_Solvation_Energy-OPLS-2005>
-463.855834960938

> <b_mmod_Minimization_Converged-OPLS-2005>
0

> <r_mmod_RMS_Derivative-OPLS-2005>
3.54514718055725

$$$$
7
                    3D
 Structure written by MMmdl.
166175  0  0  1  0            999 V2000
  -30.5774  -14.7858   20.4109 C   0  0  0  0  0  0
  -30.4304  -12.4683   19.4752 C   0  0  0  0  0  0
  -29.5065  -12.5007   18.2356 C   0  0  0  0  0  0
  -28.0249  -12.3401   18.6416 C   0  0  0  0  0  0
  -27.6355  -13.2367   19.8494 C   0  0  2  0  0  0
  -28.6845  -13.1724   20.9803 C   0  0  0  0  0  0
  -25.2441  -13.8184   20.5690 C   0  0  0  0  0  0
  -24.1761  -13.0440   20.9198 C   0  0  0  0  0  0
  -24.6370  -11.6921   20.8755 C   0  0  0  0  0  0
  -23.9074  -10.4299   21.0414 C   0  0  0  0  0  0
  -24.3614   -9.4210   21.9189 C   0  0  0  0  0  0
  -23.6281   -8.2252   22.0758 C   0  0  0  0  0  0
  -22.4259   -8.0285   21.3549 C   0  0  0  0  0  0
  -21.9914   -9.0262   20.4647 C   0  0  0  0  0  0
  -22.7253  -10.2138   20.3053 C   0  0  0  0  0  0
  -21.6860   -6.0743   22.5283 C   0  0  0  0  0  0
  -21.4031   -6.5649   23.8220 C   0  0  0  0  0  0
  -21.3641   -5.6797   24.9174 C   0  0  0  0  0  0
  -21.6042   -4.3063   24.7224 C   0  0  0  0  0  0
  -21.8813   -3.8154   23.4342 C   0  0  0  0  0  0
  -21.9196   -4.6974   22.3401 C   0  0  0  0  0  0
  -22.7781  -13.5194   21.1890 C   0  0  0  0  0  0
  -22.1662   -4.2162   21.0981 F   0  0  0  0  0  0
  -21.5615   -3.4541   25.7737 F   0  0  0  0  0  0
  -29.9792  -13.5407   20.3927 N   0  0  0  0  0  0
  -26.2902  -12.9428   20.3313 N   0  0  0  0  0  0
  -25.9302  -11.6565   20.5762 N   0  0  0  0  0  0
  -22.0442  -12.8184   22.0442 N   0  0  0  0  0  0
  -25.4066  -15.1909   20.4050 N   0  0  0  0  0  0
  -31.7690  -14.8897   20.1081 O   0  0  0  0  0  0
  -21.6633   -6.8877   21.4241 O   0  0  0  0  0  0
  -22.3477  -14.5510   20.6745 O   0  0  0  0  0  0
  -24.6331  -31.8525   23.1931 C   0  0  0  0  0  0
  -25.9148  -32.4753   23.8302 C   0  0  1  0  0  0
  -27.2331  -27.2361   20.1422 C   0  0  0  0  0  0
  -25.5949  -33.8557   24.2237 N   0  0  0  0  0  0
  -23.4304  -30.4742   21.5344 C   0  0  2  0  0  0
  -24.8786  -28.9001   20.1071 C   0  0  0  0  0  0
  -22.7469  -29.4634   22.4871 C   0  0  0  0  0  0
  -18.0271  -28.1326   22.8516 C   0  0  0  0  0  0
  -24.1484  -36.7276   23.2650 C   0  0  0  0  0  0
  -25.9725  -30.7551   21.3731 C   0  0  0  0  0  0
  -26.0451  -29.3718   20.7194 C   0  0  0  0  0  0
  -27.2168  -28.5507   20.7269 C   0  0  0  0  0  0
  -26.0432  -26.8252   19.5064 C   0  0  0  0  0  0
  -24.8844  -27.6360   19.4885 C   0  0  0  0  0  0
  -23.6495  -29.7948   20.1530 C   0  0  0  0  0  0
  -25.4112  -36.3072   24.0336 C   0  0  1  0  0  0
  -20.5856  -28.3732   23.1171 C   0  0  2  0  0  0
  -20.6828  -26.9483   22.5195 C   0  0  0  0  0  0
  -19.5683  -26.6252   21.5175 C   0  0  0  0  0  0
  -18.1918  -26.7845   22.1705 C   0  0  0  0  0  0
  -19.1518  -28.8841   23.2824 C   0  0  0  0  0  0
  -18.9416  -30.1446   23.8845 C   0  0  0  0  0  0
  -17.6406  -30.6553   24.0550 C   0  0  0  0  0  0
  -25.9054  -34.9452   23.5085 C   0  0  0  0  0  0
  -16.5322  -29.9018   23.6353 C   0  0  0  0  0  0
  -16.7251  -28.6415   23.0425 C   0  0  0  0  0  0
  -26.4510  -31.6610   25.0710 C   0  0  0  0  0  0
  -25.3733  -31.3726   26.1419 C   0  0  0  0  0  0
  -27.0371  -30.3056   24.6193 C   0  0  0  0  0  0
  -27.6065  -32.4343   25.7495 C   0  0  0  0  0  0
  -27.5578  -37.1794   24.8477 C   0  0  0  0  0  0
  -21.4159  -29.3179   22.3676 N   0  0  0  0  0  0
  -26.4291  -37.3788   23.9414 N   0  0  0  0  0  0
  -24.6981  -31.0451   22.0921 N   0  0  0  0  0  0
  -23.4127  -28.8092   23.2935 O   0  0  0  0  0  0
  -28.3512  -26.3757   20.2888 O   0  0  0  0  0  0
  -26.5627  -34.8941   22.4658 O   0  0  0  0  0  0
  -23.5475  -32.1380   23.7201 O   0  0  0  0  0  0
  -29.6526  -18.0770   22.5233 C   0  0  0  0  0  0
  -29.2760  -18.8291   23.6411 C   0  0  0  0  0  0
  -28.6456  -20.6537   22.1772 C   0  0  0  0  0  0
  -29.5173  -18.5456   21.1939 C   0  0  0  0  0  0
  -29.0200  -19.9456   21.0095 C   0  0  0  0  0  0
  -28.7695  -20.1199   23.4680 C   0  0  0  0  0  0
  -27.9392  -24.6965   17.1580 C   0  0  0  0  0  0
  -28.3346  -23.2497   16.8878 C   0  0  0  0  0  0
  -28.9007  -25.3435   18.1387 C   0  0  0  0  0  0
  -27.9056  -22.2560   17.9737 C   0  0  0  0  0  0
  -28.2591  -23.4986   20.1068 C   0  0  0  0  0  0
  -28.6641  -25.0449   19.6299 C   0  0  2  0  0  0
  -29.9683  -17.4028   20.1682 C   0  0  0  0  0  0
  -28.5926  -20.7127   19.6826 C   0  0  0  0  0  0
  -29.7585  -15.9084   20.5269 N   0  0  0  0  0  0
  -28.6837  -22.2409   19.2611 N   0  3  1  0  0  0
  -28.2802  -21.0453   24.8374 Cl  0  0  0  0  0  0
  -31.4721  -12.5911   19.1757 H   0  0  0  0  0  0
  -30.3798  -11.5016   19.9773 H   0  0  0  0  0  0
  -29.7912  -11.7206   17.5273 H   0  0  0  0  0  0
  -29.6304  -13.4477   17.7092 H   0  0  0  0  0  0
  -27.8527  -11.2908   18.8798 H   0  0  0  0  0  0
  -27.3796  -12.5652   17.7900 H   0  0  0  0  0  0
  -27.6238  -14.2587   19.4665 H   0  0  0  0  0  0
  -28.7276  -12.1688   21.4051 H   0  0  0  0  0  0
  -28.4147  -13.8351   21.8048 H   0  0  0  0  0  0
  -25.2762   -9.5696   22.4747 H   0  0  0  0  0  0
  -24.0010   -7.4636   22.7457 H   0  0  0  0  0  0
  -21.0866   -8.8748   19.8932 H   0  0  0  0  0  0
  -22.3708  -10.9651   19.6130 H   0  0  0  0  0  0
  -21.2054   -7.6163   23.9726 H   0  0  0  0  0  0
  -21.1457   -6.0533   25.9076 H   0  0  0  0  0  0
  -22.0611   -2.7618   23.2838 H   0  0  0  0  0  0
  -22.4088  -11.9850   22.4818 H   0  0  0  0  0  0
  -21.1039  -13.1159   22.2646 H   0  0  0  0  0  0
  -24.6183  -15.8250   20.4649 H   0  0  0  0  0  0
  -26.2477  -15.6320   20.0590 H   0  0  0  0  0  0
  -26.7208  -32.5388   23.1028 H   0  0  0  0  0  0
  -25.0101  -33.9684   25.0387 H   0  0  0  0  0  0
  -22.7341  -31.3012   21.3810 H   0  0  0  0  0  0
  -23.3768  -35.9589   23.3299 H   0  0  0  0  0  0
  -24.3587  -36.8904   22.2072 H   0  0  0  0  0  0
  -23.7207  -37.6460   23.6676 H   0  0  0  0  0  0
  -26.1063  -31.5087   20.5953 H   0  0  0  0  0  0
  -26.8540  -30.8122   22.0016 H   0  0  0  0  0  0
  -28.1084  -28.9056   21.2255 H   0  0  0  0  0  0
  -25.9766  -25.8416   19.0720 H   0  0  0  0  0  0
  -23.9886  -27.2611   19.0116 H   0  0  0  0  0  0
  -23.7778  -30.5625   19.3894 H   0  0  0  0  0  0
  -22.7638  -29.2314   19.8537 H   0  0  0  0  0  0
  -25.1297  -36.1921   25.0835 H   0  0  0  0  0  0
  -20.9903  -28.3231   24.1290 H   0  0  0  0  0  0
  -20.6095  -26.2322   23.3398 H   0  0  0  0  0  0
  -21.6617  -26.7746   22.0697 H   0  0  0  0  0  0
  -19.6865  -25.6115   21.1321 H   0  0  0  0  0  0
  -19.6517  -27.2911   20.6587 H   0  0  0  0  0  0
  -17.4118  -26.6512   21.4204 H   0  0  0  0  0  0
  -18.0415  -26.0070   22.9201 H   0  0  0  0  0  0
  -19.7834  -30.7345   24.2197 H   0  0  0  0  0  0
  -17.4991  -31.6221   24.5165 H   0  0  0  0  0  0
  -15.5340  -30.2936   23.7722 H   0  0  0  0  0  0
  -15.8649  -28.0651   22.7244 H   0  0  0  0  0  0
  -24.5879  -30.7138   25.7700 H   0  0  0  0  0  0
  -24.8959  -32.2869   26.4951 H   0  0  0  0  0  0
  -25.8044  -30.8792   27.0138 H   0  0  0  0  0  0
  -26.2944  -29.6782   24.1251 H   0  0  0  0  0  0
  -27.4103  -29.7362   25.4712 H   0  0  0  0  0  0
  -27.8804  -30.4366   23.9412 H   0  0  0  0  0  0
  -27.2702  -33.3643   26.2100 H   0  0  0  0  0  0
  -28.3893  -32.6904   25.0341 H   0  0  0  0  0  0
  -28.0731  -31.8446   26.5393 H   0  0  0  0  0  0
  -28.2598  -38.0090   24.7533 H   0  0  0  0  0  0
  -28.1062  -36.2618   24.6286 H   0  0  0  0  0  0
  -27.2297  -37.1437   25.8883 H   0  0  0  0  0  0
  -20.9348  -29.9105   21.7052 H   0  0  0  0  0  0
  -26.0160  -38.2863   24.1411 H   0  0  0  0  0  0
  -30.0423  -17.0875   22.7134 H   0  0  0  0  0  0
  -29.3709  -18.3970   24.6280 H   0  0  0  0  0  0
  -28.1886  -21.6253   22.0950 H   0  0  0  0  0  0
  -26.9029  -24.7732   17.4823 H   0  0  0  0  0  0
  -27.9973  -25.2547   16.2228 H   0  0  0  0  0  0
  -29.3967  -23.1600   16.6536 H   0  0  0  0  0  0
  -27.8114  -22.9599   15.9759 H   0  0  0  0  0  0
  -28.8747  -26.4228   17.9823 H   0  0  0  0  0  0
  -29.9228  -25.0717   17.8738 H   0  0  0  0  0  0
  -27.9772  -21.2891   17.4706 H   0  0  0  0  0  0
  -26.8400  -22.3659   18.1917 H   0  0  0  0  0  0
  -27.1843  -23.4531   20.2832 H   0  0  0  0  0  0
  -28.7220  -23.3886   21.0841 H   0  0  0  0  0  0
  -29.6969  -25.0219   19.9823 H   0  0  0  0  0  0
  -29.5219  -17.5941   19.1923 H   0  0  0  0  0  0
  -31.0411  -17.5398   20.0225 H   0  0  0  0  0  0
  -27.5392  -20.4356   19.5936 H   0  0  0  0  0  0
  -29.1132  -20.1502   18.9048 H   0  0  0  0  0  0
  -28.7993  -15.6707   20.7294 H   0  0  0  0  0  0
  -29.6598  -22.3744   19.0331 H   0  0  0  0  0  0
  1 25  1  0  0  0
  1 30  2  0  0  0
  1 85  1  0  0  0
  2  3  1  0  0  0
  2 25  1  0  0  0
  2 88  1  0  0  0
  2 89  1  0  0  0
  3  4  1  0  0  0
  3 90  1  0  0  0
  3 91  1  0  0  0
  4  5  1  0  0  0
  4 92  1  0  0  0
  4 93  1  0  0  0
  5  6  1  0  0  0
  5 26  1  0  0  0
  5 94  1  0  0  0
  6 25  1  0  0  0
  6 95  1  0  0  0
  6 96  1  0  0  0
  7  8  2  0  0  0
  7 26  1  0  0  0
  7 29  1  0  0  0
  8  9  1  0  0  0
  8 22  1  0  0  0
  9 10  1  0  0  0
  9 27  2  0  0  0
 10 11  2  0  0  0
 10 15  1  0  0  0
 11 12  1  0  0  0
 11 97  1  0  0  0
 12 13  2  0  0  0
 12 98  1  0  0  0
 13 14  1  0  0  0
 13 31  1  0  0  0
 14 15  2  0  0  0
 14 99  1  0  0  0
 15100  1  0  0  0
 16 17  2  0  0  0
 16 21  1  0  0  0
 16 31  1  0  0  0
 17 18  1  0  0  0
 17101  1  0  0  0
 18 19  2  0  0  0
 18102  1  0  0  0
 19 20  1  0  0  0
 19 24  1  0  0  0
 20 21  2  0  0  0
 20103  1  0  0  0
 21 23  1  0  0  0
 22 28  1  0  0  0
 22 32  2  0  0  0
 26 27  1  0  0  0
 28104  1  0  0  0
 28105  1  0  0  0
 29106  1  0  0  0
 29107  1  0  0  0
 33 34  1  0  0  0
 33 66  1  0  0  0
 33 70  2  0  0  0
 34 36  1  0  0  0
 34 59  1  0  0  0
 34108  1  0  0  0
 35 44  2  0  0  0
 35 45  1  0  0  0
 35 68  1  0  0  0
 36 56  1  0  0  0
 36109  1  0  0  0
 37 39  1  0  0  0
 37 47  1  0  0  0
 37 66  1  0  0  0
 37110  1  0  0  0
 38 43  2  0  0  0
 38 46  1  0  0  0
 38 47  1  0  0  0
 39 64  1  0  0  0
 39 67  2  0  0  0
 40 52  1  0  0  0
 40 53  2  0  0  0
 40 58  1  0  0  0
 41111  1  0  0  0
 41112  1  0  0  0
 41113  1  0  0  0
 41 48  1  0  0  0
 42 43  1  0  0  0
 42 66  1  0  0  0
 42114  1  0  0  0
 42115  1  0  0  0
 43 44  1  0  0  0
 44116  1  0  0  0
 45 46  2  0  0  0
 45117  1  0  0  0
 46118  1  0  0  0
 47119  1  0  0  0
 47120  1  0  0  0
 48 56  1  0  0  0
 48 65  1  0  0  0
 48121  1  0  0  0
 49 50  1  0  0  0
 49 53  1  0  0  0
 49 64  1  0  0  0
 49122  1  0  0  0
 50 51  1  0  0  0
 50123  1  0  0  0
 50124  1  0  0  0
 51 52  1  0  0  0
 51125  1  0  0  0
 51126  1  0  0  0
 52127  1  0  0  0
 52128  1  0  0  0
 53 54  1  0  0  0
 54 55  2  0  0  0
 54129  1  0  0  0
 55 57  1  0  0  0
 55130  1  0  0  0
 56 69  2  0  0  0
 57 58  2  0  0  0
 57131  1  0  0  0
 58132  1  0  0  0
 59 60  1  0  0  0
 59 61  1  0  0  0
 59 62  1  0  0  0
 60133  1  0  0  0
 60134  1  0  0  0
 60135  1  0  0  0
 61136  1  0  0  0
 61137  1  0  0  0
 61138  1  0  0  0
 62139  1  0  0  0
 62140  1  0  0  0
 62141  1  0  0  0
 63 65  1  0  0  0
 63142  1  0  0  0
 63143  1  0  0  0
 63144  1  0  0  0
 64145  1  0  0  0
 65146  1  0  0  0
 68 82  1  0  0  0
 71 72  2  0  0  0
 71 74  1  0  0  0
 71147  1  0  0  0
 72 76  1  0  0  0
 72148  1  0  0  0
 73 75  1  0  0  0
 73 76  2  0  0  0
 73149  1  0  0  0
 74 75  2  0  0  0
 74 83  1  0  0  0
 75 84  1  0  0  0
 76 87  1  0  0  0
 77 78  1  0  0  0
 77 79  1  0  0  0
 77150  1  0  0  0
 77151  1  0  0  0
 78 80  1  0  0  0
 78152  1  0  0  0
 78153  1  0  0  0
 79 82  1  0  0  0
 79154  1  0  0  0
 79155  1  0  0  0
 80 86  1  0  0  0
 80156  1  0  0  0
 80157  1  0  0  0
 81 82  1  0  0  0
 81 86  1  0  0  0
 81158  1  0  0  0
 81159  1  0  0  0
 82160  1  0  0  0
 83 85  1  0  0  0
 83161  1  0  0  0
 83162  1  0  0  0
 84163  1  0  0  0
 84164  1  0  0  0
 84 86  1  0  0  0
 85165  1  0  0  0
 86166  1  0  0  0
M  CHG  1  86   1
M  ISO  4   1 100  68 101  82 101  85 100
M  END
> <chiral flag>
0

> <version>
0

> <s_m_source_file>
/data/baiqing/PycharmProjects/Reinvent-master-3.2/result/LINK_invent/BTK/process_docking_weight1_custom_product_contain_oxygen_bond_distance_aromatic_linkinvent_7_9_3/rearranged_h_0029.sdf

> <i_m_source_file_index>
8

> <r_mmod_Potential_Energy-OPLS-2005>
314.273864746094

> <r_mmod_Stretch_Energy-OPLS-2005>
182.963745117188

> <r_mmod_Bend_Energy-OPLS-2005>
352.563537597656

> <r_mmod_Torsional_Energy-OPLS-2005>
243.803619384766

> <r_mmod_Improper_Torsional_Energy-OPLS-2005>
7.97142744064331

> <r_mmod_Van_der_Waal_Energy-OPLS-2005>
138.950485229492

> <r_mmod_Electrostatic_Energy-OPLS-2005>
-268.203247070312

> <r_mmod_Solvation_Energy-OPLS-2005>
-447.643737792969

> <b_mmod_Minimization_Converged-OPLS-2005>
0

> <r_mmod_RMS_Derivative-OPLS-2005>
4.16518115997314

$$$$
8
                    3D
 Structure written by MMmdl.
157166  0  0  1  0            999 V2000
  -30.5657  -14.8290   20.4245 C   0  0  0  0  0  0
  -30.4328  -12.5015   19.4939 C   0  0  0  0  0  0
  -29.5145  -12.5113   18.2506 C   0  0  0  0  0  0
  -28.0425  -12.3222   18.6638 C   0  0  0  0  0  0
  -27.6358  -13.2379   19.8487 C   0  0  2  0  0  0
  -28.6759  -13.2061   20.9888 C   0  0  0  0  0  0
  -25.2483  -13.8210   20.5711 C   0  0  0  0  0  0
  -24.1787  -13.0446   20.9227 C   0  0  0  0  0  0
  -24.6389  -11.6925   20.8757 C   0  0  0  0  0  0
  -23.9071  -10.4294   21.0410 C   0  0  0  0  0  0
  -24.3621   -9.4207   21.9188 C   0  0  0  0  0  0
  -23.6296   -8.2241   22.0753 C   0  0  0  0  0  0
  -22.4279   -8.0278   21.3546 C   0  0  0  0  0  0
  -21.9918   -9.0250   20.4642 C   0  0  0  0  0  0
  -22.7246  -10.2130   20.3055 C   0  0  0  0  0  0
  -21.6854   -6.0736   22.5277 C   0  0  0  0  0  0
  -21.4011   -6.5638   23.8211 C   0  0  0  0  0  0
  -21.3660   -5.6791   24.9171 C   0  0  0  0  0  0
  -21.6048   -4.3055   24.7220 C   0  0  0  0  0  0
  -21.8818   -3.8149   23.4341 C   0  0  0  0  0  0
  -21.9192   -4.6967   22.3400 C   0  0  0  0  0  0
  -22.7806  -13.5220   21.1885 C   0  0  0  0  0  0
  -22.1661   -4.2152   21.0978 F   0  0  0  0  0  0
  -21.5630   -3.4538   25.7734 F   0  0  0  0  0  0
  -29.9695  -13.5807   20.4057 N   0  0  0  0  0  0
  -26.2902  -12.9423   20.3274 N   0  0  0  0  0  0
  -25.9318  -11.6563   20.5756 N   0  0  0  0  0  0
  -22.0455  -12.8187   22.0427 N   0  0  0  0  0  0
  -25.4177  -15.1933   20.4125 N   0  0  0  0  0  0
  -31.7592  -14.9078   20.1145 O   0  0  0  0  0  0
  -21.6641   -6.8878   21.4241 O   0  0  0  0  0  0
  -22.3486  -14.5531   20.6741 O   0  0  0  0  0  0
  -24.6360  -31.8502   23.1922 C   0  0  0  0  0  0
  -25.9163  -32.4727   23.8296 C   0  0  1  0  0  0
  -27.2116  -27.2064   20.1429 C   0  0  0  0  0  0
  -25.5943  -33.8530   24.2229 N   0  0  0  0  0  0
  -23.4349  -30.4713   21.5358 C   0  0  2  0  0  0
  -24.8812  -28.9086   20.1081 C   0  0  0  0  0  0
  -22.7533  -29.4566   22.4872 C   0  0  0  0  0  0
  -18.0303  -28.1375   22.8491 C   0  0  0  0  0  0
  -24.1490  -36.7261   23.2642 C   0  0  0  0  0  0
  -25.9837  -30.7490   21.3769 C   0  0  0  0  0  0
  -26.0541  -29.3647   20.7221 C   0  0  0  0  0  0
  -27.2195  -28.5250   20.7278 C   0  0  0  0  0  0
  -26.0150  -26.8284   19.4972 C   0  0  0  0  0  0
  -24.8697  -27.6518   19.4840 C   0  0  0  0  0  0
  -23.6551  -29.8024   20.1530 C   0  0  0  0  0  0
  -25.4112  -36.3046   24.0329 C   0  0  1  0  0  0
  -20.5910  -28.3688   23.1260 C   0  0  2  0  0  0
  -20.6780  -26.9401   22.5404 C   0  0  0  0  0  0
  -19.5748  -26.6377   21.5215 C   0  0  0  0  0  0
  -18.1931  -26.7921   22.1628 C   0  0  0  0  0  0
  -19.1560  -28.8853   23.2874 C   0  0  0  0  0  0
  -18.9478  -30.1454   23.8888 C   0  0  0  0  0  0
  -17.6473  -30.6579   24.0562 C   0  0  0  0  0  0
  -25.9063  -34.9422   23.5083 C   0  0  0  0  0  0
  -16.5364  -29.9074   23.6334 C   0  0  0  0  0  0
  -16.7290  -28.6491   23.0358 C   0  0  0  0  0  0
  -26.4518  -31.6563   25.0699 C   0  0  0  0  0  0
  -25.3735  -31.3703   26.1415 C   0  0  0  0  0  0
  -27.0385  -30.2984   24.6197 C   0  0  0  0  0  0
  -27.6073  -32.4303   25.7476 C   0  0  0  0  0  0
  -27.5577  -37.1775   24.8461 C   0  0  0  0  0  0
  -21.4230  -29.3035   22.3640 N   0  0  0  0  0  0
  -26.4272  -37.3761   23.9429 N   0  0  0  0  0  0
  -24.7047  -31.0433   22.0914 N   0  0  0  0  0  0
  -23.4216  -28.8117   23.2989 O   0  0  0  0  0  0
  -28.2949  -26.2858   20.2318 O   0  0  0  0  0  0
  -26.5645  -34.8904   22.4655 O   0  0  0  0  0  0
  -23.5495  -32.1334   23.7187 O   0  0  0  0  0  0
  -30.3399  -20.1373   19.2264 C   0  0  0  0  0  0
  -30.8593  -17.7269   19.1767 C   0  0  0  0  0  0
  -29.3941  -19.9839   20.2613 C   0  0  0  0  0  0
  -29.2150  -18.5930   20.7444 C   0  0  0  0  0  0
  -29.9519  -17.4262   20.2193 C   0  0  0  0  0  0
  -31.0478  -19.0399   18.6958 C   0  0  0  0  0  0
  -27.4762  -23.6794   20.5765 C   0  0  0  0  0  0
  -29.3920  -23.8135   20.0245 C   0  0  0  0  0  0
  -28.2022  -24.8270   19.7847 C   0  0  2  0  0  0
  -28.2211  -18.3349   21.8656 C   0  0  0  0  0  0
  -28.7009  -21.3357   20.8502 C   0  0  0  0  0  0
  -29.7796  -15.9791   20.6344 N   0  0  0  0  0  0
  -28.4419  -22.6510   20.0416 N   0  3  1  0  0  0
  -31.9359  -19.2539   17.6963 F   0  0  0  0  0  0
  -31.4727  -12.6340   19.1919 H   0  0  0  0  0  0
  -30.3917  -11.5338   19.9965 H   0  0  0  0  0  0
  -29.8103  -11.7248   17.5553 H   0  0  0  0  0  0
  -29.6280  -13.4543   17.7140 H   0  0  0  0  0  0
  -27.9163  -11.2770   18.9486 H   0  0  0  0  0  0
  -27.3817  -12.4858   17.8118 H   0  0  0  0  0  0
  -27.6195  -14.2523   19.4498 H   0  0  0  0  0  0
  -28.7277  -12.2149   21.4414 H   0  0  0  0  0  0
  -28.3958  -13.8930   21.7889 H   0  0  0  0  0  0
  -25.2762   -9.5683   22.4766 H   0  0  0  0  0  0
  -24.0004   -7.4632   22.7471 H   0  0  0  0  0  0
  -21.0854   -8.8770   19.8940 H   0  0  0  0  0  0
  -22.3709  -10.9671   19.6162 H   0  0  0  0  0  0
  -21.2002   -7.6143   23.9717 H   0  0  0  0  0  0
  -21.1484   -6.0518   25.9074 H   0  0  0  0  0  0
  -22.0598   -2.7610   23.2840 H   0  0  0  0  0  0
  -22.4070  -11.9832   22.4785 H   0  0  0  0  0  0
  -21.1070  -13.1190   22.2642 H   0  0  0  0  0  0
  -24.6471  -15.8441   20.5158 H   0  0  0  0  0  0
  -26.2545  -15.6283   20.0464 H   0  0  0  0  0  0
  -26.7225  -32.5363   23.1027 H   0  0  0  0  0  0
  -25.0095  -33.9667   25.0382 H   0  0  0  0  0  0
  -22.7340  -31.2953   21.3850 H   0  0  0  0  0  0
  -23.3776  -35.9571   23.3265 H   0  0  0  0  0  0
  -24.3595  -36.8925   22.2066 H   0  0  0  0  0  0
  -23.7219  -37.6436   23.6696 H   0  0  0  0  0  0
  -26.1252  -31.5055   20.6038 H   0  0  0  0  0  0
  -26.8605  -30.8023   22.0096 H   0  0  0  0  0  0
  -28.1136  -28.8665   21.2308 H   0  0  0  0  0  0
  -25.9285  -25.8631   19.0223 H   0  0  0  0  0  0
  -23.9705  -27.2988   18.9993 H   0  0  0  0  0  0
  -23.7817  -30.5770   19.3955 H   0  0  0  0  0  0
  -22.7733  -29.2370   19.8474 H   0  0  0  0  0  0
  -25.1290  -36.1877   25.0821 H   0  0  0  0  0  0
  -21.0017  -28.3264   24.1373 H   0  0  0  0  0  0
  -20.5673  -26.2299   23.3613 H   0  0  0  0  0  0
  -21.6641  -26.7402   22.1194 H   0  0  0  0  0  0
  -19.6906  -25.6296   21.1225 H   0  0  0  0  0  0
  -19.6681  -27.3205   20.6761 H   0  0  0  0  0  0
  -17.4200  -26.6702   21.4021 H   0  0  0  0  0  0
  -18.0309  -26.0051   22.9008 H   0  0  0  0  0  0
  -19.7956  -30.7283   24.2235 H   0  0  0  0  0  0
  -17.5022  -31.6257   24.5169 H   0  0  0  0  0  0
  -15.5360  -30.2968   23.7656 H   0  0  0  0  0  0
  -15.8691  -28.0804   22.7072 H   0  0  0  0  0  0
  -24.5950  -30.7002   25.7742 H   0  0  0  0  0  0
  -24.8882  -32.2864   26.4793 H   0  0  0  0  0  0
  -25.8055  -30.8926   27.0221 H   0  0  0  0  0  0
  -26.2975  -29.6702   24.1235 H   0  0  0  0  0  0
  -27.4098  -29.7261   25.4715 H   0  0  0  0  0  0
  -27.8833  -30.4269   23.9427 H   0  0  0  0  0  0
  -27.2708  -33.3653   26.1963 H   0  0  0  0  0  0
  -28.3927  -32.6771   25.0319 H   0  0  0  0  0  0
  -28.0682  -31.8471   26.5457 H   0  0  0  0  0  0
  -28.2545  -38.0121   24.7562 H   0  0  0  0  0  0
  -28.1119  -36.2651   24.6205 H   0  0  0  0  0  0
  -27.2303  -37.1311   25.8863 H   0  0  0  0  0  0
  -20.9410  -29.8784   21.6871 H   0  0  0  0  0  0
  -26.0141  -38.2821   24.1472 H   0  0  0  0  0  0
  -30.5516  -21.1170   18.8229 H   0  0  0  0  0  0
  -31.4292  -16.9438   18.7016 H   0  0  0  0  0  0
  -26.4451  -23.5083   20.2663 H   0  0  0  0  0  0
  -27.5349  -23.7957   21.6617 H   0  0  0  0  0  0
  -29.9003  -23.9581   20.9803 H   0  0  0  0  0  0
  -30.1127  -23.7701   19.2081 H   0  0  0  0  0  0
  -27.9238  -24.8018   18.7293 H   0  0  0  0  0  0
  -28.1335  -19.1886   22.5369 H   0  0  0  0  0  0
  -28.5268  -17.4869   22.4791 H   0  0  0  0  0  0
  -27.2350  -18.1171   21.4538 H   0  0  0  0  0  0
  -29.2270  -21.6065   21.7654 H   0  0  0  0  0  0
  -27.7084  -21.0264   21.1774 H   0  0  0  0  0  0
  -28.8783  -15.7677   21.0354 H   0  0  0  0  0  0
  -28.1556  -22.4133   19.1041 H   0  0  0  0  0  0
  1 25  1  0  0  0
  1 30  2  0  0  0
  1 82  1  0  0  0
  2  3  1  0  0  0
  2 25  1  0  0  0
  2 85  1  0  0  0
  2 86  1  0  0  0
  3  4  1  0  0  0
  3 87  1  0  0  0
  3 88  1  0  0  0
  4  5  1  0  0  0
  4 89  1  0  0  0
  4 90  1  0  0  0
  5  6  1  0  0  0
  5 26  1  0  0  0
  5 91  1  0  0  0
  6 25  1  0  0  0
  6 92  1  0  0  0
  6 93  1  0  0  0
  7  8  2  0  0  0
  7 26  1  0  0  0
  7 29  1  0  0  0
  8  9  1  0  0  0
  8 22  1  0  0  0
  9 10  1  0  0  0
  9 27  2  0  0  0
 10 11  2  0  0  0
 10 15  1  0  0  0
 11 12  1  0  0  0
 11 94  1  0  0  0
 12 13  2  0  0  0
 12 95  1  0  0  0
 13 14  1  0  0  0
 13 31  1  0  0  0
 14 15  2  0  0  0
 14 96  1  0  0  0
 15 97  1  0  0  0
 16 17  2  0  0  0
 16 21  1  0  0  0
 16 31  1  0  0  0
 17 18  1  0  0  0
 17 98  1  0  0  0
 18 19  2  0  0  0
 18 99  1  0  0  0
 19 20  1  0  0  0
 19 24  1  0  0  0
 20 21  2  0  0  0
 20100  1  0  0  0
 21 23  1  0  0  0
 22 28  1  0  0  0
 22 32  2  0  0  0
 26 27  1  0  0  0
 28101  1  0  0  0
 28102  1  0  0  0
 29103  1  0  0  0
 29104  1  0  0  0
 33 34  1  0  0  0
 33 66  1  0  0  0
 33 70  2  0  0  0
 34 36  1  0  0  0
 34 59  1  0  0  0
 34105  1  0  0  0
 35 44  2  0  0  0
 35 45  1  0  0  0
 35 68  1  0  0  0
 36 56  1  0  0  0
 36106  1  0  0  0
 37 39  1  0  0  0
 37 47  1  0  0  0
 37 66  1  0  0  0
 37107  1  0  0  0
 38 43  2  0  0  0
 38 46  1  0  0  0
 38 47  1  0  0  0
 39 64  1  0  0  0
 39 67  2  0  0  0
 40 52  1  0  0  0
 40 53  2  0  0  0
 40 58  1  0  0  0
 41108  1  0  0  0
 41109  1  0  0  0
 41110  1  0  0  0
 41 48  1  0  0  0
 42 43  1  0  0  0
 42 66  1  0  0  0
 42111  1  0  0  0
 42112  1  0  0  0
 43 44  1  0  0  0
 44113  1  0  0  0
 45 46  2  0  0  0
 45114  1  0  0  0
 46115  1  0  0  0
 47116  1  0  0  0
 47117  1  0  0  0
 48 56  1  0  0  0
 48 65  1  0  0  0
 48118  1  0  0  0
 49 50  1  0  0  0
 49 53  1  0  0  0
 49 64  1  0  0  0
 49119  1  0  0  0
 50 51  1  0  0  0
 50120  1  0  0  0
 50121  1  0  0  0
 51 52  1  0  0  0
 51122  1  0  0  0
 51123  1  0  0  0
 52124  1  0  0  0
 52125  1  0  0  0
 53 54  1  0  0  0
 54 55  2  0  0  0
 54126  1  0  0  0
 55 57  1  0  0  0
 55127  1  0  0  0
 56 69  2  0  0  0
 57 58  2  0  0  0
 57128  1  0  0  0
 58129  1  0  0  0
 59 60  1  0  0  0
 59 61  1  0  0  0
 59 62  1  0  0  0
 60130  1  0  0  0
 60131  1  0  0  0
 60132  1  0  0  0
 61133  1  0  0  0
 61134  1  0  0  0
 61135  1  0  0  0
 62136  1  0  0  0
 62137  1  0  0  0
 62138  1  0  0  0
 63 65  1  0  0  0
 63139  1  0  0  0
 63140  1  0  0  0
 63141  1  0  0  0
 64142  1  0  0  0
 65143  1  0  0  0
 68 79  1  0  0  0
 71 73  2  0  0  0
 71 76  1  0  0  0
 71144  1  0  0  0
 72 75  1  0  0  0
 72 76  2  0  0  0
 72145  1  0  0  0
 73 74  1  0  0  0
 73 81  1  0  0  0
 74 75  2  0  0  0
 74 80  1  0  0  0
 75 82  1  0  0  0
 76 84  1  0  0  0
 77 79  1  0  0  0
 77 83  1  0  0  0
 77146  1  0  0  0
 77147  1  0  0  0
 78 79  1  0  0  0
 78 83  1  0  0  0
 78148  1  0  0  0
 78149  1  0  0  0
 79150  1  0  0  0
 80151  1  0  0  0
 80152  1  0  0  0
 80153  1  0  0  0
 81154  1  0  0  0
 81155  1  0  0  0
 81 83  1  0  0  0
 82156  1  0  0  0
 83157  1  0  0  0
M  CHG  1  83   1
M  ISO  4   1 100  68 101  79 101  82 100
M  END
> <chiral flag>
0

> <version>
0

> <s_m_source_file>
/data/baiqing/PycharmProjects/Reinvent-master-3.2/result/LINK_invent/BTK/process_docking_weight1_custom_product_contain_oxygen_bond_distance_aromatic_linkinvent_7_9_3/rearranged_h_0029.sdf

> <i_m_source_file_index>
9

> <r_mmod_Potential_Energy-OPLS-2005>
80.2543869018555

> <r_mmod_Stretch_Energy-OPLS-2005>
170.2041015625

> <r_mmod_Bend_Energy-OPLS-2005>
226.347610473633

> <r_mmod_Torsional_Energy-OPLS-2005>
222.55192565918

> <r_mmod_Improper_Torsional_Energy-OPLS-2005>
4.14177846908569

> <r_mmod_Van_der_Waal_Energy-OPLS-2005>
134.107360839844

> <r_mmod_Electrostatic_Energy-OPLS-2005>
-310.065856933594

> <r_mmod_Solvation_Energy-OPLS-2005>
-491.8935546875

> <b_mmod_Minimization_Converged-OPLS-2005>
0

> <r_mmod_RMS_Derivative-OPLS-2005>
1.26954627037048

$$$$
9
                    3D
 Structure written by MMmdl.
159168  0  0  1  0            999 V2000
  -30.5925  -14.7308   20.4846 C   0  0  0  0  0  0
  -30.4490  -12.4496   19.4908 C   0  0  0  0  0  0
  -29.5358  -12.5159   18.2472 C   0  0  0  0  0  0
  -28.0508  -12.3529   18.6335 C   0  0  0  0  0  0
  -27.6483  -13.2305   19.8503 C   0  0  2  0  0  0
  -28.6815  -13.1325   20.9944 C   0  0  0  0  0  0
  -25.2520  -13.8174   20.5649 C   0  0  0  0  0  0
  -24.1811  -13.0446   20.9178 C   0  0  0  0  0  0
  -24.6382  -11.6904   20.8651 C   0  0  0  0  0  0
  -23.9040  -10.4296   21.0332 C   0  0  0  0  0  0
  -24.3602   -9.4230   21.9126 C   0  0  0  0  0  0
  -23.6304   -8.2251   22.0728 C   0  0  0  0  0  0
  -22.4280   -8.0257   21.3534 C   0  0  0  0  0  0
  -21.9893   -9.0220   20.4631 C   0  0  0  0  0  0
  -22.7192  -10.2116   20.3021 C   0  0  0  0  0  0
  -21.6874   -6.0710   22.5272 C   0  0  0  0  0  0
  -21.4006   -6.5617   23.8198 C   0  0  0  0  0  0
  -21.3669   -5.6777   24.9171 C   0  0  0  0  0  0
  -21.6063   -4.3044   24.7226 C   0  0  0  0  0  0
  -21.8822   -3.8131   23.4348 C   0  0  0  0  0  0
  -21.9207   -4.6941   22.3399 C   0  0  0  0  0  0
  -22.7821  -13.5215   21.1849 C   0  0  0  0  0  0
  -22.1674   -4.2116   21.0981 F   0  0  0  0  0  0
  -21.5643   -3.4538   25.7749 F   0  0  0  0  0  0
  -29.9948  -13.4914   20.4426 N   0  0  0  0  0  0
  -26.2947  -12.9387   20.3177 N   0  0  0  0  0  0
  -25.9308  -11.6530   20.5622 N   0  0  0  0  0  0
  -22.0457  -12.8229   22.0410 N   0  0  0  0  0  0
  -25.4238  -15.1921   20.4107 N   0  0  0  0  0  0
  -31.7560  -14.8618   20.0926 O   0  0  0  0  0  0
  -21.6659   -6.8848   21.4235 O   0  0  0  0  0  0
  -22.3478  -14.5498   20.6659 O   0  0  0  0  0  0
  -24.6294  -31.8562   23.1988 C   0  0  0  0  0  0
  -25.9136  -32.4743   23.8323 C   0  0  1  0  0  0
  -27.2073  -27.2564   20.1297 C   0  0  0  0  0  0
  -25.5956  -33.8548   24.2224 N   0  0  0  0  0  0
  -23.4235  -30.4798   21.5450 C   0  0  2  0  0  0
  -24.8670  -28.9299   20.1100 C   0  0  0  0  0  0
  -22.7492  -29.4594   22.4930 C   0  0  0  0  0  0
  -18.0267  -28.1436   22.8460 C   0  0  0  0  0  0
  -24.1481  -36.7282   23.2641 C   0  0  0  0  0  0
  -25.9707  -30.7695   21.3792 C   0  0  0  0  0  0
  -26.0397  -29.3923   20.7209 C   0  0  0  0  0  0
  -27.2088  -28.5647   20.7253 C   0  0  0  0  0  0
  -26.0224  -26.8828   19.4596 C   0  0  0  0  0  0
  -24.8614  -27.6788   19.4771 C   0  0  0  0  0  0
  -23.6403  -29.8223   20.1572 C   0  0  0  0  0  0
  -25.4108  -36.3038   24.0311 C   0  0  1  0  0  0
  -20.5876  -28.3702   23.1296 C   0  0  2  0  0  0
  -20.6765  -26.9429   22.5417 C   0  0  0  0  0  0
  -19.5752  -26.6411   21.5215 C   0  0  0  0  0  0
  -18.1922  -26.7979   22.1610 C   0  0  0  0  0  0
  -19.1522  -28.8891   23.2867 C   0  0  0  0  0  0
  -18.9458  -30.1508   23.8857 C   0  0  0  0  0  0
  -17.6455  -30.6618   24.0577 C   0  0  0  0  0  0
  -25.9069  -34.9424   23.5062 C   0  0  0  0  0  0
  -16.5339  -29.9120   23.6361 C   0  0  0  0  0  0
  -16.7255  -28.6566   23.0331 C   0  0  0  0  0  0
  -26.4498  -31.6591   25.0727 C   0  0  0  0  0  0
  -25.3719  -31.3792   26.1455 C   0  0  0  0  0  0
  -27.0391  -30.3003   24.6275 C   0  0  0  0  0  0
  -27.6071  -32.4360   25.7475 C   0  0  0  0  0  0
  -27.5565  -37.1780   24.8465 C   0  0  0  0  0  0
  -21.4199  -29.3034   22.3675 N   0  0  0  0  0  0
  -26.4265  -37.3753   23.9417 N   0  0  0  0  0  0
  -24.6937  -31.0536   22.0964 N   0  0  0  0  0  0
  -23.4211  -28.8132   23.3016 O   0  0  0  0  0  0
  -28.2934  -26.3522   20.2383 O   0  0  0  0  0  0
  -26.5630  -34.8897   22.4627 O   0  0  0  0  0  0
  -23.5452  -32.1394   23.7294 O   0  0  0  0  0  0
  -29.9853  -21.3085   21.9100 C   0  0  0  0  0  0
  -30.4312  -20.1642   22.6015 C   0  0  0  0  0  0
  -29.3083  -19.8659   20.0751 C   0  0  0  0  0  0
  -29.7950  -18.6604   20.7601 C   0  0  0  0  0  0
  -29.3819  -21.2172   20.6399 C   0  0  0  0  0  0
  -30.3359  -18.8679   22.0552 C   0  0  0  0  0  0
  -27.0632  -24.0084   20.4509 C   0  0  0  0  0  0
  -27.4186  -22.5771   19.9611 C   0  0  0  0  0  0
  -29.3475  -23.8581   20.2453 C   0  0  0  0  0  0
  -28.1885  -24.8910   19.8641 C   0  0  2  0  0  0
  -28.7392  -19.6925   18.6733 C   0  0  0  0  0  0
  -29.8742  -17.2143   20.0567 C   0  0  0  0  0  0
  -28.8718  -22.4399   20.0275 N   0  0  0  0  0  0
  -29.7951  -15.8370   20.7260 N   0  0  0  0  0  0
  -30.9448  -17.5637   23.0124 Cl  0  0  0  0  0  0
  -31.4885  -12.5930   19.1904 H   0  0  0  0  0  0
  -30.4165  -11.4633   19.9564 H   0  0  0  0  0  0
  -29.8265  -11.7479   17.5283 H   0  0  0  0  0  0
  -29.6843  -13.4766   17.7512 H   0  0  0  0  0  0
  -27.8818  -11.2990   18.8564 H   0  0  0  0  0  0
  -27.4207  -12.5911   17.7762 H   0  0  0  0  0  0
  -27.6536  -14.2615   19.4901 H   0  0  0  0  0  0
  -28.7022  -12.1206   21.4025 H   0  0  0  0  0  0
  -28.4031  -13.7907   21.8177 H   0  0  0  0  0  0
  -25.2757   -9.5733   22.4675 H   0  0  0  0  0  0
  -24.0034   -7.4656   22.7450 H   0  0  0  0  0  0
  -21.0824   -8.8711   19.8941 H   0  0  0  0  0  0
  -22.3621  -10.9630   19.6122 H   0  0  0  0  0  0
  -21.1979   -7.6123   23.9693 H   0  0  0  0  0  0
  -21.1490   -6.0505   25.9066 H   0  0  0  0  0  0
  -22.0602   -2.7587   23.2868 H   0  0  0  0  0  0
  -22.4091  -11.9958   22.4913 H   0  0  0  0  0  0
  -21.1027  -13.1187   22.2492 H   0  0  0  0  0  0
  -24.6635  -15.8500   20.5423 H   0  0  0  0  0  0
  -26.2717  -15.6310   20.0776 H   0  0  0  0  0  0
  -26.7214  -32.5345   23.1075 H   0  0  0  0  0  0
  -25.0114  -33.9701   25.0369 H   0  0  0  0  0  0
  -22.7165  -31.3004   21.4055 H   0  0  0  0  0  0
  -23.3715  -35.9648   23.3298 H   0  0  0  0  0  0
  -24.3575  -36.8917   22.2062 H   0  0  0  0  0  0
  -23.7270  -37.6496   23.6673 H   0  0  0  0  0  0
  -26.1180  -31.5345   20.6153 H   0  0  0  0  0  0
  -26.8465  -30.8093   22.0138 H   0  0  0  0  0  0
  -28.1030  -28.9113   21.2241 H   0  0  0  0  0  0
  -25.9593  -25.9508   18.9236 H   0  0  0  0  0  0
  -23.9641  -27.3196   18.9918 H   0  0  0  0  0  0
  -23.7778  -30.6103   19.4155 H   0  0  0  0  0  0
  -22.7518  -29.2746   19.8356 H   0  0  0  0  0  0
  -25.1280  -36.1869   25.0802 H   0  0  0  0  0  0
  -20.9942  -28.3271   24.1433 H   0  0  0  0  0  0
  -20.5711  -26.2290   23.3604 H   0  0  0  0  0  0
  -21.6630  -26.7505   22.1183 H   0  0  0  0  0  0
  -19.6918  -25.6324   21.1258 H   0  0  0  0  0  0
  -19.6720  -27.3205   20.6736 H   0  0  0  0  0  0
  -17.4201  -26.6722   21.3997 H   0  0  0  0  0  0
  -18.0306  -26.0142   22.9022 H   0  0  0  0  0  0
  -19.7927  -30.7360   24.2176 H   0  0  0  0  0  0
  -17.5002  -31.6281   24.5220 H   0  0  0  0  0  0
  -15.5342  -30.3008   23.7745 H   0  0  0  0  0  0
  -15.8650  -28.0913   22.7021 H   0  0  0  0  0  0
  -24.5885  -30.7137   25.7793 H   0  0  0  0  0  0
  -24.8915  -32.2996   26.4803 H   0  0  0  0  0  0
  -25.8025  -30.9028   27.0276 H   0  0  0  0  0  0
  -26.3015  -29.6699   24.1293 H   0  0  0  0  0  0
  -27.4065  -29.7312   25.4831 H   0  0  0  0  0  0
  -27.8874  -30.4270   23.9543 H   0  0  0  0  0  0
  -27.2692  -33.3693   26.1985 H   0  0  0  0  0  0
  -28.3881  -32.6881   25.0290 H   0  0  0  0  0  0
  -28.0731  -31.8541   26.5433 H   0  0  0  0  0  0
  -28.2573  -38.0081   24.7491 H   0  0  0  0  0  0
  -28.1061  -36.2609   24.6282 H   0  0  0  0  0  0
  -27.2299  -37.1431   25.8875 H   0  0  0  0  0  0
  -20.9394  -29.8746   21.6867 H   0  0  0  0  0  0
  -26.0121  -38.2813   24.1440 H   0  0  0  0  0  0
  -30.0946  -22.2621   22.4016 H   0  0  0  0  0  0
  -30.8703  -20.2873   23.5812 H   0  0  0  0  0  0
  -27.0839  -24.0442   21.5427 H   0  0  0  0  0  0
  -26.0544  -24.2742   20.1471 H   0  0  0  0  0  0
  -27.1287  -22.4825   18.9130 H   0  0  0  0  0  0
  -26.8951  -21.7996   20.5179 H   0  0  0  0  0  0
  -29.6066  -24.0052   21.2938 H   0  0  0  0  0  0
  -30.2426  -24.0603   19.6563 H   0  0  0  0  0  0
  -28.0901  -24.8795   18.7763 H   0  0  0  0  0  0
  -29.4915  -19.2620   18.0117 H   0  0  0  0  0  0
  -28.4143  -20.6267   18.2230 H   0  0  0  0  0  0
  -27.8752  -19.0281   18.6977 H   0  0  0  0  0  0
  -29.0711  -17.1691   19.3248 H   0  0  0  0  0  0
  -30.7845  -17.2340   19.4559 H   0  0  0  0  0  0
  -28.8891  -15.6174   21.1154 H   0  0  0  0  0  0
  1 25  1  0  0  0
  1 30  2  0  0  0
  1 84  1  0  0  0
  2  3  1  0  0  0
  2 25  1  0  0  0
  2 86  1  0  0  0
  2 87  1  0  0  0
  3  4  1  0  0  0
  3 88  1  0  0  0
  3 89  1  0  0  0
  4  5  1  0  0  0
  4 90  1  0  0  0
  4 91  1  0  0  0
  5  6  1  0  0  0
  5 26  1  0  0  0
  5 92  1  0  0  0
  6 25  1  0  0  0
  6 93  1  0  0  0
  6 94  1  0  0  0
  7  8  2  0  0  0
  7 26  1  0  0  0
  7 29  1  0  0  0
  8  9  1  0  0  0
  8 22  1  0  0  0
  9 10  1  0  0  0
  9 27  2  0  0  0
 10 11  2  0  0  0
 10 15  1  0  0  0
 11 12  1  0  0  0
 11 95  1  0  0  0
 12 13  2  0  0  0
 12 96  1  0  0  0
 13 14  1  0  0  0
 13 31  1  0  0  0
 14 15  2  0  0  0
 14 97  1  0  0  0
 15 98  1  0  0  0
 16 17  2  0  0  0
 16 21  1  0  0  0
 16 31  1  0  0  0
 17 18  1  0  0  0
 17 99  1  0  0  0
 18 19  2  0  0  0
 18100  1  0  0  0
 19 20  1  0  0  0
 19 24  1  0  0  0
 20 21  2  0  0  0
 20101  1  0  0  0
 21 23  1  0  0  0
 22 28  1  0  0  0
 22 32  2  0  0  0
 26 27  1  0  0  0
 28102  1  0  0  0
 28103  1  0  0  0
 29104  1  0  0  0
 29105  1  0  0  0
 33 34  1  0  0  0
 33 66  1  0  0  0
 33 70  2  0  0  0
 34 36  1  0  0  0
 34 59  1  0  0  0
 34106  1  0  0  0
 35 44  2  0  0  0
 35 45  1  0  0  0
 35 68  1  0  0  0
 36 56  1  0  0  0
 36107  1  0  0  0
 37 39  1  0  0  0
 37 47  1  0  0  0
 37 66  1  0  0  0
 37108  1  0  0  0
 38 43  2  0  0  0
 38 46  1  0  0  0
 38 47  1  0  0  0
 39 64  1  0  0  0
 39 67  2  0  0  0
 40 52  1  0  0  0
 40 53  2  0  0  0
 40 58  1  0  0  0
 41109  1  0  0  0
 41110  1  0  0  0
 41111  1  0  0  0
 41 48  1  0  0  0
 42 43  1  0  0  0
 42 66  1  0  0  0
 42112  1  0  0  0
 42113  1  0  0  0
 43 44  1  0  0  0
 44114  1  0  0  0
 45 46  2  0  0  0
 45115  1  0  0  0
 46116  1  0  0  0
 47117  1  0  0  0
 47118  1  0  0  0
 48 56  1  0  0  0
 48 65  1  0  0  0
 48119  1  0  0  0
 49 50  1  0  0  0
 49 53  1  0  0  0
 49 64  1  0  0  0
 49120  1  0  0  0
 50 51  1  0  0  0
 50121  1  0  0  0
 50122  1  0  0  0
 51 52  1  0  0  0
 51123  1  0  0  0
 51124  1  0  0  0
 52125  1  0  0  0
 52126  1  0  0  0
 53 54  1  0  0  0
 54 55  2  0  0  0
 54127  1  0  0  0
 55 57  1  0  0  0
 55128  1  0  0  0
 56 69  2  0  0  0
 57 58  2  0  0  0
 57129  1  0  0  0
 58130  1  0  0  0
 59 60  1  0  0  0
 59 61  1  0  0  0
 59 62  1  0  0  0
 60131  1  0  0  0
 60132  1  0  0  0
 60133  1  0  0  0
 61134  1  0  0  0
 61135  1  0  0  0
 61136  1  0  0  0
 62137  1  0  0  0
 62138  1  0  0  0
 62139  1  0  0  0
 63 65  1  0  0  0
 63140  1  0  0  0
 63141  1  0  0  0
 63142  1  0  0  0
 64143  1  0  0  0
 65144  1  0  0  0
 68 80  1  0  0  0
 71 72  2  0  0  0
 71 75  1  0  0  0
 71145  1  0  0  0
 72 76  1  0  0  0
 72146  1  0  0  0
 73 74  1  0  0  0
 73 75  2  0  0  0
 73 81  1  0  0  0
 74 76  2  0  0  0
 74 82  1  0  0  0
 75 83  1  0  0  0
 76 85  1  0  0  0
 77 78  1  0  0  0
 77 80  1  0  0  0
 77147  1  0  0  0
 77148  1  0  0  0
 78 83  1  0  0  0
 78149  1  0  0  0
 78150  1  0  0  0
 79 80  1  0  0  0
 79 83  1  0  0  0
 79151  1  0  0  0
 79152  1  0  0  0
 80153  1  0  0  0
 81154  1  0  0  0
 81155  1  0  0  0
 81156  1  0  0  0
 82 84  1  0  0  0
 82157  1  0  0  0
 82158  1  0  0  0
 84159  1  0  0  0
M  ISO  4   1 100  68 101  80 101  84 100
M  END
> <chiral flag>
0

> <version>
0

> <s_m_source_file>
/data/baiqing/PycharmProjects/Reinvent-master-3.2/result/LINK_invent/BTK/process_docking_weight1_custom_product_contain_oxygen_bond_distance_aromatic_linkinvent_7_9_3/rearranged_h_0029.sdf

> <i_m_source_file_index>
10

> <r_mmod_Potential_Energy-OPLS-2005>
220.901397705078

> <r_mmod_Stretch_Energy-OPLS-2005>
127.714668273926

> <r_mmod_Bend_Energy-OPLS-2005>
232.206024169922

> <r_mmod_Torsional_Energy-OPLS-2005>
262.229736328125

> <r_mmod_Improper_Torsional_Energy-OPLS-2005>
11.9944772720337

> <r_mmod_Van_der_Waal_Energy-OPLS-2005>
143.201889038086

> <r_mmod_Electrostatic_Energy-OPLS-2005>
-417.284057617188

> <r_mmod_Solvation_Energy-OPLS-2005>
-224.573135375977

> <b_mmod_Minimization_Converged-OPLS-2005>
0

> <r_mmod_RMS_Derivative-OPLS-2005>
4.08622169494629

$$$$
10
                    3D
 Structure written by MMmdl.
166175  0  0  1  0            999 V2000
  -30.7116  -14.5815   20.5598 C   0  0  0  0  0  0
  -30.4143  -12.3811   19.4583 C   0  0  0  0  0  0
  -29.4934  -12.4927   18.2277 C   0  0  0  0  0  0
  -28.0223  -12.3196   18.6436 C   0  0  0  0  0  0
  -27.6428  -13.2095   19.8543 C   0  0  2  0  0  0
  -28.6845  -13.0934   20.9915 C   0  0  0  0  0  0
  -25.2452  -13.8081   20.5500 C   0  0  0  0  0  0
  -24.1783  -13.0398   20.9229 C   0  0  0  0  0  0
  -24.6357  -11.6878   20.8829 C   0  0  0  0  0  0
  -23.9023  -10.4276   21.0471 C   0  0  0  0  0  0
  -24.3588   -9.4182   21.9227 C   0  0  0  0  0  0
  -23.6271   -8.2219   22.0756 C   0  0  0  0  0  0
  -22.4249   -8.0276   21.3559 C   0  0  0  0  0  0
  -21.9898   -9.0244   20.4650 C   0  0  0  0  0  0
  -22.7212  -10.2130   20.3090 C   0  0  0  0  0  0
  -21.6841   -6.0731   22.5280 C   0  0  0  0  0  0
  -21.3998   -6.5634   23.8214 C   0  0  0  0  0  0
  -21.3664   -5.6786   24.9184 C   0  0  0  0  0  0
  -21.6043   -4.3046   24.7230 C   0  0  0  0  0  0
  -21.8819   -3.8140   23.4348 C   0  0  0  0  0  0
  -21.9189   -4.6957   22.3404 C   0  0  0  0  0  0
  -22.7831  -13.5232   21.1901 C   0  0  0  0  0  0
  -22.1668   -4.2143   21.0982 F   0  0  0  0  0  0
  -21.5630   -3.4533   25.7749 F   0  0  0  0  0  0
  -30.0007  -13.4163   20.4310 N   0  0  0  0  0  0
  -26.2919  -12.9295   20.3276 N   0  0  0  0  0  0
  -25.9291  -11.6468   20.5848 N   0  0  0  0  0  0
  -22.0449  -12.8260   22.0450 N   0  0  0  0  0  0
  -25.3986  -15.1739   20.3438 N   0  0  0  0  0  0
  -31.8495  -14.6802   20.1006 O   0  0  0  0  0  0
  -21.6623   -6.8874   21.4249 O   0  0  0  0  0  0
  -22.3548  -14.5552   20.6734 O   0  0  0  0  0  0
  -24.6187  -31.8648   23.2027 C   0  0  0  0  0  0
  -25.9058  -32.4812   23.8350 C   0  0  1  0  0  0
  -27.2320  -27.3777   20.1261 C   0  0  0  0  0  0
  -25.5908  -33.8605   24.2290 N   0  0  0  0  0  0
  -23.4109  -30.4810   21.5486 C   0  0  2  0  0  0
  -24.8580  -28.9362   20.1218 C   0  0  0  0  0  0
  -22.7463  -29.4609   22.5011 C   0  0  0  0  0  0
  -18.0293  -28.1378   22.8474 C   0  0  0  0  0  0
  -24.1494  -36.7304   23.2641 C   0  0  0  0  0  0
  -25.9416  -30.8156   21.3609 C   0  0  0  0  0  0
  -26.0206  -29.4413   20.7161 C   0  0  0  0  0  0
  -27.2142  -28.6733   20.7051 C   0  0  0  0  0  0
  -26.0521  -26.8962   19.5256 C   0  0  0  0  0  0
  -24.8719  -27.6669   19.5181 C   0  0  0  0  0  0
  -23.6224  -29.8096   20.1646 C   0  0  0  0  0  0
  -25.4115  -36.3095   24.0331 C   0  0  1  0  0  0
  -20.5888  -28.3673   23.1353 C   0  0  2  0  0  0
  -20.6793  -26.9352   22.5540 C   0  0  0  0  0  0
  -19.5813  -26.6262   21.5302 C   0  0  0  0  0  0
  -18.1950  -26.7903   22.1634 C   0  0  0  0  0  0
  -19.1532  -28.8860   23.2887 C   0  0  0  0  0  0
  -18.9426  -30.1487   23.8879 C   0  0  0  0  0  0
  -17.6425  -30.6626   24.0499 C   0  0  0  0  0  0
  -25.9050  -34.9470   23.5107 C   0  0  0  0  0  0
  -16.5343  -29.9085   23.6278 C   0  0  0  0  0  0
  -16.7276  -28.6475   23.0338 C   0  0  0  0  0  0
  -26.4476  -31.6596   25.0692 C   0  0  0  0  0  0
  -25.3712  -31.3727   26.1417 C   0  0  0  0  0  0
  -27.0297  -30.3035   24.6085 C   0  0  0  0  0  0
  -27.6060  -32.4305   25.7446 C   0  0  0  0  0  0
  -27.5584  -37.1792   24.8472 C   0  0  0  0  0  0
  -21.4188  -29.2984   22.3706 N   0  0  0  0  0  0
  -26.4302  -37.3782   23.9410 N   0  0  0  0  0  0
  -24.6760  -31.0676   22.0960 N   0  0  0  0  0  0
  -23.4212  -28.8202   23.3119 O   0  0  0  0  0  0
  -28.3893  -26.6154   20.0884 O   0  0  0  0  0  0
  -26.5629  -34.8937   22.4680 O   0  0  0  0  0  0
  -23.5361  -32.1423   23.7386 O   0  0  0  0  0  0
  -30.0212  -18.6883   20.7369 C   0  0  0  0  0  0
  -30.0546  -20.1034   20.8125 C   0  0  0  0  0  0
  -28.9306  -17.9418   21.2370 C   0  0  0  0  0  0
  -28.9956  -20.8535   21.3814 C   0  0  0  0  0  0
  -27.8651  -20.1244   21.8575 C   0  0  0  0  0  0
  -27.8288  -18.6871   21.7767 C   0  0  0  0  0  0
  -27.8991  -24.0368   20.0825 C   0  0  0  0  0  0
  -29.7675  -24.6561   20.6992 C   0  0  0  0  0  0
  -28.3886  -25.3296   20.7763 C   0  0  1  0  0  0
  -26.7315  -20.9100   22.5266 C   0  0  0  0  0  0
  -26.6483  -17.7375   23.8214 C   0  0  0  0  0  0
  -26.6009  -17.9390   22.3024 C   0  0  0  0  0  0
  -28.9259  -16.3741   21.1395 C   0  0  0  0  0  0
  -29.1766  -22.3909   21.6275 C   0  0  0  0  0  0
  -30.2193  -15.6571   21.2332 N   0  0  0  0  0  0
  -29.1484  -23.3381   20.4565 N   0  3  1  0  0  0
  -31.4582  -12.4757   19.1539 H   0  0  0  0  0  0
  -30.3402  -11.3918   19.9121 H   0  0  0  0  0  0
  -29.7576  -11.7354   17.4900 H   0  0  0  0  0  0
  -29.6287  -13.4585   17.7378 H   0  0  0  0  0  0
  -27.8718  -11.2698   18.8973 H   0  0  0  0  0  0
  -27.3625  -12.5238   17.7985 H   0  0  0  0  0  0
  -27.6501  -14.2297   19.4779 H   0  0  0  0  0  0
  -28.6952  -12.0787   21.3920 H   0  0  0  0  0  0
  -28.4285  -13.7377   21.8303 H   0  0  0  0  0  0
  -25.2727   -9.5641   22.4811 H   0  0  0  0  0  0
  -23.9979   -7.4595   22.7445 H   0  0  0  0  0  0
  -21.0840   -8.8754   19.8945 H   0  0  0  0  0  0
  -22.3675  -10.9683   19.6198 H   0  0  0  0  0  0
  -21.1981   -7.6137   23.9721 H   0  0  0  0  0  0
  -21.1488   -6.0518   25.9084 H   0  0  0  0  0  0
  -22.0592   -2.7601   23.2850 H   0  0  0  0  0  0
  -22.4041  -11.9931   22.4849 H   0  0  0  0  0  0
  -21.1065  -13.1317   22.2644 H   0  0  0  0  0  0
  -24.5605  -15.7431   20.2870 H   0  0  0  0  0  0
  -26.1472  -15.5270   19.7647 H   0  0  0  0  0  0
  -26.7141  -32.5547   23.1126 H   0  0  0  0  0  0
  -25.0057  -33.9776   25.0427 H   0  0  0  0  0  0
  -22.6998  -31.2986   21.4075 H   0  0  0  0  0  0
  -23.3758  -35.9643   23.3327 H   0  0  0  0  0  0
  -24.3589  -36.8893   22.2059 H   0  0  0  0  0  0
  -23.7246  -37.6512   23.6638 H   0  0  0  0  0  0
  -26.0465  -31.5737   20.5834 H   0  0  0  0  0  0
  -26.8305  -30.8813   21.9765 H   0  0  0  0  0  0
  -28.1154  -29.0673   21.1543 H   0  0  0  0  0  0
  -26.0425  -25.9290   19.0478 H   0  0  0  0  0  0
  -23.9795  -27.2763   19.0498 H   0  0  0  0  0  0
  -23.7334  -30.5814   19.4032 H   0  0  0  0  0  0
  -22.7438  -29.2335   19.8711 H   0  0  0  0  0  0
  -25.1277  -36.1967   25.0823 H   0  0  0  0  0  0
  -20.9944  -28.3299   24.1493 H   0  0  0  0  0  0
  -20.5676  -26.2284   23.3780 H   0  0  0  0  0  0
  -21.6670  -26.7355   22.1380 H   0  0  0  0  0  0
  -19.6827  -27.2997   20.6778 H   0  0  0  0  0  0
  -19.7015  -25.6144   21.1439 H   0  0  0  0  0  0
  -17.4239  -26.6595   21.4034 H   0  0  0  0  0  0
  -18.0314  -26.0076   22.9039 H   0  0  0  0  0  0
  -19.7874  -30.7324   24.2278 H   0  0  0  0  0  0
  -17.4934  -31.6319   24.5042 H   0  0  0  0  0  0
  -15.5323  -30.2927   23.7619 H   0  0  0  0  0  0
  -15.8695  -28.0764   22.7062 H   0  0  0  0  0  0
  -24.5836  -30.7164   25.7717 H   0  0  0  0  0  0
  -24.8975  -32.2906   26.4910 H   0  0  0  0  0  0
  -25.8011  -30.8809   27.0149 H   0  0  0  0  0  0
  -26.2843  -29.6805   24.1142 H   0  0  0  0  0  0
  -27.4075  -29.7275   25.4542 H   0  0  0  0  0  0
  -27.8675  -30.4378   23.9237 H   0  0  0  0  0  0
  -27.2695  -33.3584   26.2095 H   0  0  0  0  0  0
  -28.3826  -32.6902   25.0234 H   0  0  0  0  0  0
  -28.0792  -31.8385   26.5295 H   0  0  0  0  0  0
  -28.2591  -38.0092   24.7488 H   0  0  0  0  0  0
  -28.1070  -36.2608   24.6312 H   0  0  0  0  0  0
  -27.2296  -37.1473   25.8873 H   0  0  0  0  0  0
  -20.9370  -29.8675   21.6877 H   0  0  0  0  0  0
  -26.0188  -38.2864   24.1396 H   0  0  0  0  0  0
  -30.8616  -18.1727   20.2939 H   0  0  0  0  0  0
  -30.9413  -20.6121   20.4578 H   0  0  0  0  0  0
  -27.8178  -24.1423   18.9992 H   0  0  0  0  0  0
  -26.9965  -23.5958   20.5026 H   0  0  0  0  0  0
  -30.3550  -24.7438   21.6144 H   0  0  0  0  0  0
  -30.3477  -24.9759   19.8318 H   0  0  0  0  0  0
  -28.0326  -25.4034   21.8056 H   0  0  0  0  0  0
  -26.5080  -21.8257   21.9822 H   0  0  0  0  0  0
  -27.0208  -21.1837   23.5422 H   0  0  0  0  0  0
  -25.7809  -20.3902   22.5993 H   0  0  0  0  0  0
  -25.7543  -17.2275   24.1773 H   0  0  0  0  0  0
  -26.7224  -18.6854   24.3519 H   0  0  0  0  0  0
  -27.5064  -17.1274   24.1027 H   0  0  0  0  0  0
  -26.4974  -16.9728   21.8254 H   0  0  0  0  0  0
  -25.6788  -18.4270   21.9954 H   0  0  0  0  0  0
  -28.4260  -16.1165   20.2082 H   0  0  0  0  0  0
  -28.3310  -15.9691   21.9558 H   0  0  0  0  0  0
  -30.1810  -22.4667   22.0435 H   0  0  0  0  0  0
  -28.5386  -22.7652   22.4290 H   0  0  0  0  0  0
  -30.9703  -16.2911   21.4599 H   0  0  0  0  0  0
  -29.5816  -22.8979   19.6582 H   0  0  0  0  0  0
  1 25  1  0  0  0
  1 30  2  0  0  0
  1 85  1  0  0  0
  2  3  1  0  0  0
  2 25  1  0  0  0
  2 87  1  0  0  0
  2 88  1  0  0  0
  3  4  1  0  0  0
  3 89  1  0  0  0
  3 90  1  0  0  0
  4  5  1  0  0  0
  4 91  1  0  0  0
  4 92  1  0  0  0
  5  6  1  0  0  0
  5 26  1  0  0  0
  5 93  1  0  0  0
  6 25  1  0  0  0
  6 94  1  0  0  0
  6 95  1  0  0  0
  7  8  2  0  0  0
  7 26  1  0  0  0
  7 29  1  0  0  0
  8  9  1  0  0  0
  8 22  1  0  0  0
  9 10  1  0  0  0
  9 27  2  0  0  0
 10 11  2  0  0  0
 10 15  1  0  0  0
 11 12  1  0  0  0
 11 96  1  0  0  0
 12 13  2  0  0  0
 12 97  1  0  0  0
 13 14  1  0  0  0
 13 31  1  0  0  0
 14 15  2  0  0  0
 14 98  1  0  0  0
 15 99  1  0  0  0
 16 17  2  0  0  0
 16 21  1  0  0  0
 16 31  1  0  0  0
 17 18  1  0  0  0
 17100  1  0  0  0
 18 19  2  0  0  0
 18101  1  0  0  0
 19 20  1  0  0  0
 19 24  1  0  0  0
 20 21  2  0  0  0
 20102  1  0  0  0
 21 23  1  0  0  0
 22 28  1  0  0  0
 22 32  2  0  0  0
 26 27  1  0  0  0
 28103  1  0  0  0
 28104  1  0  0  0
 29105  1  0  0  0
 29106  1  0  0  0
 33 34  1  0  0  0
 33 66  1  0  0  0
 33 70  2  0  0  0
 34 36  1  0  0  0
 34 59  1  0  0  0
 34107  1  0  0  0
 35 44  2  0  0  0
 35 45  1  0  0  0
 35 68  1  0  0  0
 36 56  1  0  0  0
 36108  1  0  0  0
 37 39  1  0  0  0
 37 47  1  0  0  0
 37 66  1  0  0  0
 37109  1  0  0  0
 38 43  2  0  0  0
 38 46  1  0  0  0
 38 47  1  0  0  0
 39 64  1  0  0  0
 39 67  2  0  0  0
 40 52  1  0  0  0
 40 53  2  0  0  0
 40 58  1  0  0  0
 41110  1  0  0  0
 41111  1  0  0  0
 41112  1  0  0  0
 41 48  1  0  0  0
 42 43  1  0  0  0
 42 66  1  0  0  0
 42113  1  0  0  0
 42114  1  0  0  0
 43 44  1  0  0  0
 44115  1  0  0  0
 45 46  2  0  0  0
 45116  1  0  0  0
 46117  1  0  0  0
 47118  1  0  0  0
 47119  1  0  0  0
 48 56  1  0  0  0
 48 65  1  0  0  0
 48120  1  0  0  0
 49 50  1  0  0  0
 49 53  1  0  0  0
 49 64  1  0  0  0
 49121  1  0  0  0
 50 51  1  0  0  0
 50122  1  0  0  0
 50123  1  0  0  0
 51 52  1  0  0  0
 51124  1  0  0  0
 51125  1  0  0  0
 52126  1  0  0  0
 52127  1  0  0  0
 53 54  1  0  0  0
 54 55  2  0  0  0
 54128  1  0  0  0
 55 57  1  0  0  0
 55129  1  0  0  0
 56 69  2  0  0  0
 57 58  2  0  0  0
 57130  1  0  0  0
 58131  1  0  0  0
 59 60  1  0  0  0
 59 61  1  0  0  0
 59 62  1  0  0  0
 60132  1  0  0  0
 60133  1  0  0  0
 60134  1  0  0  0
 61135  1  0  0  0
 61136  1  0  0  0
 61137  1  0  0  0
 62138  1  0  0  0
 62139  1  0  0  0
 62140  1  0  0  0
 63 65  1  0  0  0
 63141  1  0  0  0
 63142  1  0  0  0
 63143  1  0  0  0
 64144  1  0  0  0
 65145  1  0  0  0
 68 79  1  0  0  0
 71 72  2  0  0  0
 71 73  1  0  0  0
 71146  1  0  0  0
 72 74  1  0  0  0
 72147  1  0  0  0
 73 76  2  0  0  0
 73 83  1  0  0  0
 74 75  2  0  0  0
 74 84  1  0  0  0
 75 76  1  0  0  0
 75 80  1  0  0  0
 76 82  1  0  0  0
 77 79  1  0  0  0
 77 86  1  0  0  0
 77148  1  0  0  0
 77149  1  0  0  0
 78 79  1  0  0  0
 78 86  1  0  0  0
 78150  1  0  0  0
 78151  1  0  0  0
 79152  1  0  0  0
 80153  1  0  0  0
 80154  1  0  0  0
 80155  1  0  0  0
 81 82  1  0  0  0
 81156  1  0  0  0
 81157  1  0  0  0
 81158  1  0  0  0
 82159  1  0  0  0
 82160  1  0  0  0
 83 85  1  0  0  0
 83161  1  0  0  0
 83162  1  0  0  0
 84163  1  0  0  0
 84164  1  0  0  0
 84 86  1  0  0  0
 85165  1  0  0  0
 86166  1  0  0  0
M  CHG  1  86   1
M  ISO  4   1 100  68 101  79 101  85 100
M  END
> <chiral flag>
0

> <version>
0

> <s_m_source_file>
/data/baiqing/PycharmProjects/Reinvent-master-3.2/result/LINK_invent/BTK/process_docking_weight1_custom_product_contain_oxygen_bond_distance_aromatic_linkinvent_7_9_3/rearranged_h_0029.sdf

> <i_m_source_file_index>
11

> <r_mmod_Potential_Energy-OPLS-2005>
-153.641189575195

> <r_mmod_Stretch_Energy-OPLS-2005>
62.5395698547363

> <r_mmod_Bend_Energy-OPLS-2005>
160.148300170898

> <r_mmod_Torsional_Energy-OPLS-2005>
289.741271972656

> <r_mmod_Improper_Torsional_Energy-OPLS-2005>
7.93955945968628

> <r_mmod_Van_der_Waal_Energy-OPLS-2005>
145.165756225586

> <r_mmod_Electrostatic_Energy-OPLS-2005>
-398.557037353516

> <r_mmod_Solvation_Energy-OPLS-2005>
-450.494049072266

> <b_mmod_Minimization_Converged-OPLS-2005>
0

> <r_mmod_RMS_Derivative-OPLS-2005>
3.81664347648621

$$$$
11
                    3D
 Structure written by MMmdl.
160169  0  0  1  0            999 V2000
  -30.7118  -14.6034   20.5069 C   0  0  0  0  0  0
  -30.4060  -12.3775   19.4565 C   0  0  0  0  0  0
  -29.4948  -12.4967   18.2197 C   0  0  0  0  0  0
  -28.0191  -12.3461   18.6325 C   0  0  0  0  0  0
  -27.6437  -13.2311   19.8527 C   0  0  2  0  0  0
  -28.6887  -13.1338   20.9859 C   0  0  0  0  0  0
  -25.2516  -13.8211   20.5694 C   0  0  0  0  0  0
  -24.1804  -13.0451   20.9194 C   0  0  0  0  0  0
  -24.6399  -11.6924   20.8741 C   0  0  0  0  0  0
  -23.9082  -10.4300   21.0400 C   0  0  0  0  0  0
  -24.3629   -9.4211   21.9174 C   0  0  0  0  0  0
  -23.6301   -8.2250   22.0752 C   0  0  0  0  0  0
  -22.4282   -8.0290   21.3550 C   0  0  0  0  0  0
  -21.9921   -9.0259   20.4646 C   0  0  0  0  0  0
  -22.7254  -10.2136   20.3053 C   0  0  0  0  0  0
  -21.6856   -6.0739   22.5282 C   0  0  0  0  0  0
  -21.4013   -6.5642   23.8213 C   0  0  0  0  0  0
  -21.3658   -5.6794   24.9176 C   0  0  0  0  0  0
  -21.6048   -4.3057   24.7222 C   0  0  0  0  0  0
  -21.8819   -3.8150   23.4343 C   0  0  0  0  0  0
  -21.9192   -4.6967   22.3401 C   0  0  0  0  0  0
  -22.7832  -13.5234   21.1848 C   0  0  0  0  0  0
  -22.1662   -4.2155   21.0978 F   0  0  0  0  0  0
  -21.5623   -3.4543   25.7731 F   0  0  0  0  0  0
  -29.9999  -13.4383   20.4035 N   0  0  0  0  0  0
  -26.2945  -12.9420   20.3297 N   0  0  0  0  0  0
  -25.9329  -11.6559   20.5751 N   0  0  0  0  0  0
  -22.0472  -12.8228   22.0401 N   0  0  0  0  0  0
  -25.4215  -15.1930   20.4090 N   0  0  0  0  0  0
  -31.8780  -14.6451   20.1104 O   0  0  0  0  0  0
  -21.6646   -6.8885   21.4246 O   0  0  0  0  0  0
  -22.3518  -14.5540   20.6688 O   0  0  0  0  0  0
  -24.6229  -31.8613   23.2028 C   0  0  0  0  0  0
  -25.9084  -32.4784   23.8363 C   0  0  1  0  0  0
  -27.2182  -27.3370   20.1196 C   0  0  0  0  0  0
  -25.5915  -33.8586   24.2294 N   0  0  0  0  0  0
  -23.4166  -30.4852   21.5447 C   0  0  2  0  0  0
  -24.8631  -28.9447   20.1083 C   0  0  0  0  0  0
  -22.7475  -29.4614   22.4923 C   0  0  0  0  0  0
  -18.0297  -28.1378   22.8483 C   0  0  0  0  0  0
  -24.1486  -36.7299   23.2642 C   0  0  0  0  0  0
  -25.9542  -30.8005   21.3681 C   0  0  0  0  0  0
  -26.0305  -29.4297   20.7104 C   0  0  0  0  0  0
  -27.2150  -28.6384   20.7036 C   0  0  0  0  0  0
  -26.0335  -26.9007   19.4883 C   0  0  0  0  0  0
  -24.8656  -27.6865   19.4856 C   0  0  0  0  0  0
  -23.6307  -29.8237   20.1580 C   0  0  0  0  0  0
  -25.4109  -36.3098   24.0339 C   0  0  1  0  0  0
  -20.5897  -28.3676   23.1293 C   0  0  2  0  0  0
  -20.6777  -26.9395   22.5415 C   0  0  0  0  0  0
  -19.5758  -26.6379   21.5213 C   0  0  0  0  0  0
  -18.1934  -26.7923   22.1619 C   0  0  0  0  0  0
  -19.1549  -28.8847   23.2883 C   0  0  0  0  0  0
  -18.9469  -30.1456   23.8888 C   0  0  0  0  0  0
  -17.6466  -30.6577   24.0562 C   0  0  0  0  0  0
  -25.9043  -34.9458   23.5120 C   0  0  0  0  0  0
  -16.5356  -29.9074   23.6321 C   0  0  0  0  0  0
  -16.7286  -28.6499   23.0328 C   0  0  0  0  0  0
  -26.4473  -31.6585   25.0726 C   0  0  0  0  0  0
  -25.3708  -31.3721   26.1460 C   0  0  0  0  0  0
  -27.0301  -30.3017   24.6141 C   0  0  0  0  0  0
  -27.6043  -32.4304   25.7500 C   0  0  0  0  0  0
  -27.5576  -37.1806   24.8471 C   0  0  0  0  0  0
  -21.4189  -29.3035   22.3679 N   0  0  0  0  0  0
  -26.4288  -37.3789   23.9418 N   0  0  0  0  0  0
  -24.6833  -31.0657   22.0958 N   0  0  0  0  0  0
  -23.4227  -28.8145   23.2973 O   0  0  0  0  0  0
  -28.3263  -26.4867   20.1779 O   0  0  0  0  0  0
  -26.5611  -34.8916   22.4685 O   0  0  0  0  0  0
  -23.5397  -32.1398   23.7366 O   0  0  0  0  0  0
  -30.6774  -21.3064   21.8305 C   0  0  0  0  0  0
  -31.6591  -20.5244   22.4395 C   0  0  0  0  0  0
  -29.6735  -20.7375   21.0199 C   0  0  0  0  0  0
  -29.6738  -19.2804   20.8652 C   0  0  0  0  0  0
  -30.6840  -18.4580   21.5058 C   0  0  0  0  0  0
  -31.6714  -19.1359   22.2791 C   0  0  0  0  0  0
  -28.1987  -24.0395   19.2757 C   0  0  0  0  0  0
  -29.1440  -24.2179   21.1276 C   0  0  0  0  0  0
  -28.0503  -25.0546   20.4304 C   0  0  2  0  0  0
  -28.6072  -18.5747   20.0400 C   0  0  0  0  0  0
  -30.9417  -16.8951   21.4504 C   0  0  0  0  0  0
  -28.6250  -21.7580   20.4223 C   0  0  0  0  0  0
  -30.1058  -15.7568   20.9399 N   0  0  0  0  0  0
  -29.0936  -23.1697   20.0803 N   0  3  1  0  0  0
  -32.9715  -18.3000   23.0651 Cl  0  0  0  0  0  0
  -31.4544  -12.4463   19.1605 H   0  0  0  0  0  0
  -30.2962  -11.3958   19.9202 H   0  0  0  0  0  0
  -29.7556  -11.7358   17.4829 H   0  0  0  0  0  0
  -29.6516  -13.4611   17.7341 H   0  0  0  0  0  0
  -27.8534  -11.2945   18.8705 H   0  0  0  0  0  0
  -27.3675  -12.5726   17.7873 H   0  0  0  0  0  0
  -27.6523  -14.2602   19.4924 H   0  0  0  0  0  0
  -28.6933  -12.1335   21.4204 H   0  0  0  0  0  0
  -28.4463  -13.8211   21.7977 H   0  0  0  0  0  0
  -25.2770   -9.5686   22.4753 H   0  0  0  0  0  0
  -24.0004   -7.4647   22.7478 H   0  0  0  0  0  0
  -21.0849   -8.8784   19.8958 H   0  0  0  0  0  0
  -22.3710  -10.9674   19.6164 H   0  0  0  0  0  0
  -21.2011   -7.6151   23.9721 H   0  0  0  0  0  0
  -21.1477   -6.0522   25.9078 H   0  0  0  0  0  0
  -22.0598   -2.7615   23.2841 H   0  0  0  0  0  0
  -22.4085  -11.9897   22.4801 H   0  0  0  0  0  0
  -21.1082  -13.1245   22.2583 H   0  0  0  0  0  0
  -24.6531  -15.8469   20.5125 H   0  0  0  0  0  0
  -26.2685  -15.6285   20.0671 H   0  0  0  0  0  0
  -26.7155  -32.5465   23.1115 H   0  0  0  0  0  0
  -25.0083  -33.9739   25.0459 H   0  0  0  0  0  0
  -22.7094  -31.3050   21.4022 H   0  0  0  0  0  0
  -23.3745  -35.9637   23.3309 H   0  0  0  0  0  0
  -24.3574  -36.8907   22.2055 H   0  0  0  0  0  0
  -23.7235  -37.6504   23.6647 H   0  0  0  0  0  0
  -26.0815  -31.5647   20.6000 H   0  0  0  0  0  0
  -26.8362  -30.8516   21.9937 H   0  0  0  0  0  0
  -28.1136  -29.0022   21.1833 H   0  0  0  0  0  0
  -25.9949  -25.9366   19.0029 H   0  0  0  0  0  0
  -23.9726  -27.3132   19.0039 H   0  0  0  0  0  0
  -23.7540  -30.6030   19.4047 H   0  0  0  0  0  0
  -22.7493  -29.2570   19.8521 H   0  0  0  0  0  0
  -25.1279  -36.1959   25.0831 H   0  0  0  0  0  0
  -21.0003  -28.3244   24.1411 H   0  0  0  0  0  0
  -20.5676  -26.2274   23.3604 H   0  0  0  0  0  0
  -21.6643  -26.7414   22.1206 H   0  0  0  0  0  0
  -19.6906  -25.6292   21.1234 H   0  0  0  0  0  0
  -19.6695  -27.3197   20.6748 H   0  0  0  0  0  0
  -17.4201  -26.6687   21.4017 H   0  0  0  0  0  0
  -18.0315  -26.0064   22.9019 H   0  0  0  0  0  0
  -19.7950  -30.7282   24.2231 H   0  0  0  0  0  0
  -17.5021  -31.6250   24.5175 H   0  0  0  0  0  0
  -15.5358  -30.2969   23.7648 H   0  0  0  0  0  0
  -15.8690  -28.0826   22.7013 H   0  0  0  0  0  0
  -24.5898  -30.7041   25.7816 H   0  0  0  0  0  0
  -24.8868  -32.2875   26.4876 H   0  0  0  0  0  0
  -25.8036  -30.8933   27.0253 H   0  0  0  0  0  0
  -26.2857  -29.6791   24.1161 H   0  0  0  0  0  0
  -27.4017  -29.7249   25.4621 H   0  0  0  0  0  0
  -27.8720  -30.4326   23.9336 H   0  0  0  0  0  0
  -27.2682  -33.3627   26.2051 H   0  0  0  0  0  0
  -28.3876  -32.6822   25.0338 H   0  0  0  0  0  0
  -28.0670  -31.8432   26.5442 H   0  0  0  0  0  0
  -28.2597  -38.0099   24.7515 H   0  0  0  0  0  0
  -28.1061  -36.2627   24.6297 H   0  0  0  0  0  0
  -27.2290  -37.1468   25.8873 H   0  0  0  0  0  0
  -20.9339  -29.8807   21.6947 H   0  0  0  0  0  0
  -26.0174  -38.2867   24.1421 H   0  0  0  0  0  0
  -30.7324  -22.3671   22.0148 H   0  0  0  0  0  0
  -32.4236  -20.9963   23.0407 H   0  0  0  0  0  0
  -28.7137  -24.4546   18.4088 H   0  0  0  0  0  0
  -27.2591  -23.5664   18.9881 H   0  0  0  0  0  0
  -28.8545  -23.8661   22.1187 H   0  0  0  0  0  0
  -30.1130  -24.7181   21.1503 H   0  0  0  0  0  0
  -27.1080  -24.9095   20.9642 H   0  0  0  0  0  0
  -28.0707  -19.2295   19.3570 H   0  0  0  0  0  0
  -27.8743  -18.1084   20.6993 H   0  0  0  0  0  0
  -29.0563  -17.7912   19.4292 H   0  0  0  0  0  0
  -31.1013  -16.5867   22.4839 H   0  0  0  0  0  0
  -31.9230  -16.8421   20.9768 H   0  0  0  0  0  0
  -27.7707  -21.8150   21.0974 H   0  0  0  0  0  0
  -28.2410  -21.3478   19.4916 H   0  0  0  0  0  0
  -29.1313  -15.7188   21.1980 H   0  0  0  0  0  0
  -29.9825  -23.1076   19.6066 H   0  0  0  0  0  0
  1 25  1  0  0  0
  1 30  2  0  0  0
  1 83  1  0  0  0
  2  3  1  0  0  0
  2 25  1  0  0  0
  2 86  1  0  0  0
  2 87  1  0  0  0
  3  4  1  0  0  0
  3 88  1  0  0  0
  3 89  1  0  0  0
  4  5  1  0  0  0
  4 90  1  0  0  0
  4 91  1  0  0  0
  5  6  1  0  0  0
  5 26  1  0  0  0
  5 92  1  0  0  0
  6 25  1  0  0  0
  6 93  1  0  0  0
  6 94  1  0  0  0
  7  8  2  0  0  0
  7 26  1  0  0  0
  7 29  1  0  0  0
  8  9  1  0  0  0
  8 22  1  0  0  0
  9 10  1  0  0  0
  9 27  2  0  0  0
 10 11  2  0  0  0
 10 15  1  0  0  0
 11 12  1  0  0  0
 11 95  1  0  0  0
 12 13  2  0  0  0
 12 96  1  0  0  0
 13 14  1  0  0  0
 13 31  1  0  0  0
 14 15  2  0  0  0
 14 97  1  0  0  0
 15 98  1  0  0  0
 16 17  2  0  0  0
 16 21  1  0  0  0
 16 31  1  0  0  0
 17 18  1  0  0  0
 17 99  1  0  0  0
 18 19  2  0  0  0
 18100  1  0  0  0
 19 20  1  0  0  0
 19 24  1  0  0  0
 20 21  2  0  0  0
 20101  1  0  0  0
 21 23  1  0  0  0
 22 28  1  0  0  0
 22 32  2  0  0  0
 26 27  1  0  0  0
 28102  1  0  0  0
 28103  1  0  0  0
 29104  1  0  0  0
 29105  1  0  0  0
 33 34  1  0  0  0
 33 66  1  0  0  0
 33 70  2  0  0  0
 34 36  1  0  0  0
 34 59  1  0  0  0
 34106  1  0  0  0
 35 44  2  0  0  0
 35 45  1  0  0  0
 35 68  1  0  0  0
 36 56  1  0  0  0
 36107  1  0  0  0
 37 39  1  0  0  0
 37 47  1  0  0  0
 37 66  1  0  0  0
 37108  1  0  0  0
 38 43  2  0  0  0
 38 46  1  0  0  0
 38 47  1  0  0  0
 39 64  1  0  0  0
 39 67  2  0  0  0
 40 52  1  0  0  0
 40 53  2  0  0  0
 40 58  1  0  0  0
 41109  1  0  0  0
 41110  1  0  0  0
 41111  1  0  0  0
 41 48  1  0  0  0
 42 43  1  0  0  0
 42 66  1  0  0  0
 42112  1  0  0  0
 42113  1  0  0  0
 43 44  1  0  0  0
 44114  1  0  0  0
 45 46  2  0  0  0
 45115  1  0  0  0
 46116  1  0  0  0
 47117  1  0  0  0
 47118  1  0  0  0
 48 56  1  0  0  0
 48 65  1  0  0  0
 48119  1  0  0  0
 49 50  1  0  0  0
 49 53  1  0  0  0
 49 64  1  0  0  0
 49120  1  0  0  0
 50 51  1  0  0  0
 50121  1  0  0  0
 50122  1  0  0  0
 51 52  1  0  0  0
 51123  1  0  0  0
 51124  1  0  0  0
 52125  1  0  0  0
 52126  1  0  0  0
 53 54  1  0  0  0
 54 55  2  0  0  0
 54127  1  0  0  0
 55 57  1  0  0  0
 55128  1  0  0  0
 56 69  2  0  0  0
 57 58  2  0  0  0
 57129  1  0  0  0
 58130  1  0  0  0
 59 60  1  0  0  0
 59 61  1  0  0  0
 59 62  1  0  0  0
 60131  1  0  0  0
 60132  1  0  0  0
 60133  1  0  0  0
 61134  1  0  0  0
 61135  1  0  0  0
 61136  1  0  0  0
 62137  1  0  0  0
 62138  1  0  0  0
 62139  1  0  0  0
 63 65  1  0  0  0
 63140  1  0  0  0
 63141  1  0  0  0
 63142  1  0  0  0
 64143  1  0  0  0
 65144  1  0  0  0
 68 79  1  0  0  0
 71 72  2  0  0  0
 71 73  1  0  0  0
 71145  1  0  0  0
 72 76  1  0  0  0
 72146  1  0  0  0
 73 74  2  0  0  0
 73 82  1  0  0  0
 74 75  1  0  0  0
 74 80  1  0  0  0
 75 76  2  0  0  0
 75 81  1  0  0  0
 76 85  1  0  0  0
 77 79  1  0  0  0
 77 84  1  0  0  0
 77147  1  0  0  0
 77148  1  0  0  0
 78 79  1  0  0  0
 78 84  1  0  0  0
 78149  1  0  0  0
 78150  1  0  0  0
 79151  1  0  0  0
 80152  1  0  0  0
 80153  1  0  0  0
 80154  1  0  0  0
 81 83  1  0  0  0
 81155  1  0  0  0
 81156  1  0  0  0
 82157  1  0  0  0
 82158  1  0  0  0
 82 84  1  0  0  0
 83159  1  0  0  0
 84160  1  0  0  0
M  CHG  1  84   1
M  ISO  4   1 100  68 101  79 101  83 100
M  END
> <chiral flag>
0

> <version>
0

> <s_m_source_file>
/data/baiqing/PycharmProjects/Reinvent-master-3.2/result/LINK_invent/BTK/process_docking_weight1_custom_product_contain_oxygen_bond_distance_aromatic_linkinvent_7_9_3/rearranged_h_0029.sdf

> <i_m_source_file_index>
12

> <r_mmod_Potential_Energy-OPLS-2005>
-73.968147277832

> <r_mmod_Stretch_Energy-OPLS-2005>
86.7298278808594

> <r_mmod_Bend_Energy-OPLS-2005>
202.660842895508

> <r_mmod_Torsional_Energy-OPLS-2005>
239.880416870117

> <r_mmod_Improper_Torsional_Energy-OPLS-2005>
3.62098574638367

> <r_mmod_Van_der_Waal_Energy-OPLS-2005>
156.454147338867

> <r_mmod_Electrostatic_Energy-OPLS-2005>
-327.848052978516

> <r_mmod_Solvation_Energy-OPLS-2005>
-480.300506591797

> <b_mmod_Minimization_Converged-OPLS-2005>
0

> <r_mmod_RMS_Derivative-OPLS-2005>
1.58897471427917

$$$$
12
                    3D
 Structure written by MMmdl.
157166  0  0  1  0            999 V2000
  -30.5655  -14.8304   20.4246 C   0  0  0  0  0  0
  -30.4329  -12.5022   19.4940 C   0  0  0  0  0  0
  -29.5147  -12.5114   18.2508 C   0  0  0  0  0  0
  -28.0425  -12.3225   18.6638 C   0  0  0  0  0  0
  -27.6358  -13.2379   19.8489 C   0  0  2  0  0  0
  -28.6761  -13.2061   20.9889 C   0  0  0  0  0  0
  -25.2483  -13.8210   20.5711 C   0  0  0  0  0  0
  -24.1786  -13.0446   20.9225 C   0  0  0  0  0  0
  -24.6389  -11.6926   20.8756 C   0  0  0  0  0  0
  -23.9070  -10.4293   21.0411 C   0  0  0  0  0  0
  -24.3620   -9.4207   21.9187 C   0  0  0  0  0  0
  -23.6295   -8.2242   22.0752 C   0  0  0  0  0  0
  -22.4278   -8.0278   21.3546 C   0  0  0  0  0  0
  -21.9918   -9.0250   20.4641 C   0  0  0  0  0  0
  -22.7245  -10.2130   20.3055 C   0  0  0  0  0  0
  -21.6854   -6.0736   22.5276 C   0  0  0  0  0  0
  -21.4012   -6.5638   23.8210 C   0  0  0  0  0  0
  -21.3660   -5.6792   24.9170 C   0  0  0  0  0  0
  -21.6047   -4.3055   24.7221 C   0  0  0  0  0  0
  -21.8818   -3.8148   23.4343 C   0  0  0  0  0  0
  -21.9193   -4.6966   22.3399 C   0  0  0  0  0  0
  -22.7806  -13.5220   21.1884 C   0  0  0  0  0  0
  -22.1661   -4.2151   21.0978 F   0  0  0  0  0  0
  -21.5631   -3.4537   25.7735 F   0  0  0  0  0  0
  -29.9695  -13.5811   20.4058 N   0  0  0  0  0  0
  -26.2904  -12.9424   20.3275 N   0  0  0  0  0  0
  -25.9315  -11.6562   20.5756 N   0  0  0  0  0  0
  -22.0455  -12.8186   22.0428 N   0  0  0  0  0  0
  -25.4178  -15.1933   20.4127 N   0  0  0  0  0  0
  -31.7593  -14.9074   20.1156 O   0  0  0  0  0  0
  -21.6641   -6.8877   21.4241 O   0  0  0  0  0  0
  -22.3486  -14.5529   20.6739 O   0  0  0  0  0  0
  -24.6360  -31.8502   23.1925 C   0  0  0  0  0  0
  -25.9161  -32.4727   23.8298 C   0  0  1  0  0  0
  -27.2119  -27.2067   20.1424 C   0  0  0  0  0  0
  -25.5943  -33.8532   24.2230 N   0  0  0  0  0  0
  -23.4349  -30.4717   21.5359 C   0  0  2  0  0  0
  -24.8814  -28.9089   20.1082 C   0  0  0  0  0  0
  -22.7531  -29.4569   22.4872 C   0  0  0  0  0  0
  -18.0302  -28.1376   22.8491 C   0  0  0  0  0  0
  -24.1491  -36.7261   23.2642 C   0  0  0  0  0  0
  -25.9838  -30.7489   21.3771 C   0  0  0  0  0  0
  -26.0539  -29.3650   20.7218 C   0  0  0  0  0  0
  -27.2197  -28.5253   20.7271 C   0  0  0  0  0  0
  -26.0153  -26.8283   19.4967 C   0  0  0  0  0  0
  -24.8699  -27.6519   19.4840 C   0  0  0  0  0  0
  -23.6551  -29.8027   20.1531 C   0  0  0  0  0  0
  -25.4114  -36.3048   24.0329 C   0  0  1  0  0  0
  -20.5911  -28.3689   23.1258 C   0  0  2  0  0  0
  -20.6780  -26.9401   22.5404 C   0  0  0  0  0  0
  -19.5748  -26.6377   21.5216 C   0  0  0  0  0  0
  -18.1932  -26.7921   22.1629 C   0  0  0  0  0  0
  -19.1560  -28.8855   23.2873 C   0  0  0  0  0  0
  -18.9479  -30.1455   23.8886 C   0  0  0  0  0  0
  -17.6474  -30.6580   24.0563 C   0  0  0  0  0  0
  -25.9063  -34.9422   23.5084 C   0  0  0  0  0  0
  -16.5364  -29.9074   23.6335 C   0  0  0  0  0  0
  -16.7291  -28.6492   23.0358 C   0  0  0  0  0  0
  -26.4519  -31.6566   25.0705 C   0  0  0  0  0  0
  -25.3733  -31.3705   26.1418 C   0  0  0  0  0  0
  -27.0382  -30.2984   24.6204 C   0  0  0  0  0  0
  -27.6071  -32.4306   25.7477 C   0  0  0  0  0  0
  -27.5575  -37.1776   24.8461 C   0  0  0  0  0  0
  -21.4229  -29.3036   22.3637 N   0  0  0  0  0  0
  -26.4273  -37.3761   23.9428 N   0  0  0  0  0  0
  -24.7046  -31.0433   22.0916 N   0  0  0  0  0  0
  -23.4214  -28.8119   23.2990 O   0  0  0  0  0  0
  -28.2957  -26.2864   20.2313 O   0  0  0  0  0  0
  -26.5645  -34.8904   22.4656 O   0  0  0  0  0  0
  -23.5494  -32.1336   23.7188 O   0  0  0  0  0  0
  -31.0288  -19.0333   18.6828 C   0  0  0  0  0  0
  -30.3299  -20.1357   19.2150 C   0  0  0  0  0  0
  -30.8467  -17.7213   19.1677 C   0  0  0  0  0  0
  -29.3946  -19.9842   20.2597 C   0  0  0  0  0  0
  -29.2177  -18.5954   20.7481 C   0  0  0  0  0  0
  -29.9487  -17.4255   20.2191 C   0  0  0  0  0  0
  -27.4788  -23.6786   20.5733 C   0  0  0  0  0  0
  -29.3960  -23.8157   20.0260 C   0  0  0  0  0  0
  -28.2052  -24.8275   19.7839 C   0  0  2  0  0  0
  -28.2317  -18.3442   21.8772 C   0  0  0  0  0  0
  -28.7068  -21.3381   20.8521 C   0  0  0  0  0  0
  -29.7797  -15.9799   20.6361 N   0  0  0  0  0  0
  -28.4479  -22.6516   20.0419 N   0  3  1  0  0  0
  -31.4726  -12.6352   19.1915 H   0  0  0  0  0  0
  -30.3927  -11.5345   19.9966 H   0  0  0  0  0  0
  -29.8105  -11.7248   17.5555 H   0  0  0  0  0  0
  -29.6283  -13.4544   17.7140 H   0  0  0  0  0  0
  -27.9158  -11.2774   18.9481 H   0  0  0  0  0  0
  -27.3821  -12.4866   17.8117 H   0  0  0  0  0  0
  -27.6198  -14.2525   19.4503 H   0  0  0  0  0  0
  -28.7280  -12.2147   21.4411 H   0  0  0  0  0  0
  -28.3956  -13.8926   21.7892 H   0  0  0  0  0  0
  -25.2762   -9.5685   22.4764 H   0  0  0  0  0  0
  -24.0004   -7.4633   22.7472 H   0  0  0  0  0  0
  -21.0852   -8.8769   19.8941 H   0  0  0  0  0  0
  -22.3707  -10.9670   19.6162 H   0  0  0  0  0  0
  -21.2001   -7.6143   23.9715 H   0  0  0  0  0  0
  -21.1484   -6.0518   25.9074 H   0  0  0  0  0  0
  -22.0598   -2.7610   23.2841 H   0  0  0  0  0  0
  -22.4072  -11.9835   22.4788 H   0  0  0  0  0  0
  -21.1070  -13.1192   22.2642 H   0  0  0  0  0  0
  -24.6477  -15.8448   20.5170 H   0  0  0  0  0  0
  -26.2552  -15.6285   20.0485 H   0  0  0  0  0  0
  -26.7226  -32.5363   23.1030 H   0  0  0  0  0  0
  -25.0093  -33.9670   25.0382 H   0  0  0  0  0  0
  -22.7340  -31.2957   21.3853 H   0  0  0  0  0  0
  -23.3774  -35.9572   23.3268 H   0  0  0  0  0  0
  -24.3593  -36.8922   22.2065 H   0  0  0  0  0  0
  -23.7220  -37.6438   23.6696 H   0  0  0  0  0  0
  -26.1261  -31.5061   20.6046 H   0  0  0  0  0  0
  -26.8605  -30.8018   22.0104 H   0  0  0  0  0  0
  -28.1142  -28.8672   21.2296 H   0  0  0  0  0  0
  -25.9293  -25.8634   19.0215 H   0  0  0  0  0  0
  -23.9702  -27.2986   18.9997 H   0  0  0  0  0  0
  -23.7817  -30.5775   19.3960 H   0  0  0  0  0  0
  -22.7729  -29.2376   19.8472 H   0  0  0  0  0  0
  -25.1292  -36.1879   25.0820 H   0  0  0  0  0  0
  -21.0020  -28.3267   24.1372 H   0  0  0  0  0  0
  -20.5675  -26.2301   23.3614 H   0  0  0  0  0  0
  -21.6641  -26.7402   22.1195 H   0  0  0  0  0  0
  -19.6906  -25.6295   21.1227 H   0  0  0  0  0  0
  -19.6681  -27.3204   20.6760 H   0  0  0  0  0  0
  -17.4201  -26.6702   21.4021 H   0  0  0  0  0  0
  -18.0309  -26.0052   22.9009 H   0  0  0  0  0  0
  -19.7956  -30.7285   24.2233 H   0  0  0  0  0  0
  -17.5023  -31.6255   24.5168 H   0  0  0  0  0  0
  -15.5360  -30.2968   23.7656 H   0  0  0  0  0  0
  -15.8692  -28.0804   22.7071 H   0  0  0  0  0  0
  -24.5947  -30.7007   25.7743 H   0  0  0  0  0  0
  -24.8882  -32.2867   26.4797 H   0  0  0  0  0  0
  -25.8052  -30.8927   27.0223 H   0  0  0  0  0  0
  -26.2976  -29.6704   24.1241 H   0  0  0  0  0  0
  -27.4092  -29.7263   25.4723 H   0  0  0  0  0  0
  -27.8835  -30.4268   23.9437 H   0  0  0  0  0  0
  -27.2706  -33.3654   26.1967 H   0  0  0  0  0  0
  -28.3924  -32.6777   25.0320 H   0  0  0  0  0  0
  -28.0684  -31.8474   26.5457 H   0  0  0  0  0  0
  -28.2548  -38.0118   24.7558 H   0  0  0  0  0  0
  -28.1115  -36.2647   24.6214 H   0  0  0  0  0  0
  -27.2302  -37.1322   25.8864 H   0  0  0  0  0  0
  -20.9411  -29.8782   21.6866 H   0  0  0  0  0  0
  -26.0142  -38.2821   24.1468 H   0  0  0  0  0  0
  -31.7305  -19.1981   17.8767 H   0  0  0  0  0  0
  -30.5376  -21.1162   18.8086 H   0  0  0  0  0  0
  -31.4124  -16.9339   18.6913 H   0  0  0  0  0  0
  -26.4491  -23.5047   20.2597 H   0  0  0  0  0  0
  -27.5334  -23.7950   21.6586 H   0  0  0  0  0  0
  -29.9028  -23.9616   20.9822 H   0  0  0  0  0  0
  -30.1183  -23.7722   19.2107 H   0  0  0  0  0  0
  -27.9290  -24.8022   18.7278 H   0  0  0  0  0  0
  -28.1674  -19.1946   22.5554 H   0  0  0  0  0  0
  -28.5284  -17.4864   22.4806 H   0  0  0  0  0  0
  -27.2370  -18.1481   21.4747 H   0  0  0  0  0  0
  -29.2363  -21.6075   21.7651 H   0  0  0  0  0  0
  -27.7149  -21.0298   21.1820 H   0  0  0  0  0  0
  -28.8790  -15.7689   21.0383 H   0  0  0  0  0  0
  -28.1662  -22.4118   19.1038 H   0  0  0  0  0  0
  1 25  1  0  0  0
  1 30  2  0  0  0
  1 82  1  0  0  0
  2  3  1  0  0  0
  2 25  1  0  0  0
  2 84  1  0  0  0
  2 85  1  0  0  0
  3  4  1  0  0  0
  3 86  1  0  0  0
  3 87  1  0  0  0
  4  5  1  0  0  0
  4 88  1  0  0  0
  4 89  1  0  0  0
  5  6  1  0  0  0
  5 26  1  0  0  0
  5 90  1  0  0  0
  6 25  1  0  0  0
  6 91  1  0  0  0
  6 92  1  0  0  0
  7  8  2  0  0  0
  7 26  1  0  0  0
  7 29  1  0  0  0
  8  9  1  0  0  0
  8 22  1  0  0  0
  9 10  1  0  0  0
  9 27  2  0  0  0
 10 11  2  0  0  0
 10 15  1  0  0  0
 11 12  1  0  0  0
 11 93  1  0  0  0
 12 13  2  0  0  0
 12 94  1  0  0  0
 13 14  1  0  0  0
 13 31  1  0  0  0
 14 15  2  0  0  0
 14 95  1  0  0  0
 15 96  1  0  0  0
 16 17  2  0  0  0
 16 21  1  0  0  0
 16 31  1  0  0  0
 17 18  1  0  0  0
 17 97  1  0  0  0
 18 19  2  0  0  0
 18 98  1  0  0  0
 19 20  1  0  0  0
 19 24  1  0  0  0
 20 21  2  0  0  0
 20 99  1  0  0  0
 21 23  1  0  0  0
 22 28  1  0  0  0
 22 32  2  0  0  0
 26 27  1  0  0  0
 28100  1  0  0  0
 28101  1  0  0  0
 29102  1  0  0  0
 29103  1  0  0  0
 33 34  1  0  0  0
 33 66  1  0  0  0
 33 70  2  0  0  0
 34 36  1  0  0  0
 34 59  1  0  0  0
 34104  1  0  0  0
 35 44  2  0  0  0
 35 45  1  0  0  0
 35 68  1  0  0  0
 36 56  1  0  0  0
 36105  1  0  0  0
 37 39  1  0  0  0
 37 47  1  0  0  0
 37 66  1  0  0  0
 37106  1  0  0  0
 38 43  2  0  0  0
 38 46  1  0  0  0
 38 47  1  0  0  0
 39 64  1  0  0  0
 39 67  2  0  0  0
 40 52  1  0  0  0
 40 53  2  0  0  0
 40 58  1  0  0  0
 41107  1  0  0  0
 41108  1  0  0  0
 41109  1  0  0  0
 41 48  1  0  0  0
 42 43  1  0  0  0
 42 66  1  0  0  0
 42110  1  0  0  0
 42111  1  0  0  0
 43 44  1  0  0  0
 44112  1  0  0  0
 45 46  2  0  0  0
 45113  1  0  0  0
 46114  1  0  0  0
 47115  1  0  0  0
 47116  1  0  0  0
 48 56  1  0  0  0
 48 65  1  0  0  0
 48117  1  0  0  0
 49 50  1  0  0  0
 49 53  1  0  0  0
 49 64  1  0  0  0
 49118  1  0  0  0
 50 51  1  0  0  0
 50119  1  0  0  0
 50120  1  0  0  0
 51 52  1  0  0  0
 51121  1  0  0  0
 51122  1  0  0  0
 52123  1  0  0  0
 52124  1  0  0  0
 53 54  1  0  0  0
 54 55  2  0  0  0
 54125  1  0  0  0
 55 57  1  0  0  0
 55126  1  0  0  0
 56 69  2  0  0  0
 57 58  2  0  0  0
 57127  1  0  0  0
 58128  1  0  0  0
 59 60  1  0  0  0
 59 61  1  0  0  0
 59 62  1  0  0  0
 60129  1  0  0  0
 60130  1  0  0  0
 60131  1  0  0  0
 61132  1  0  0  0
 61133  1  0  0  0
 61134  1  0  0  0
 62135  1  0  0  0
 62136  1  0  0  0
 62137  1  0  0  0
 63 65  1  0  0  0
 63138  1  0  0  0
 63139  1  0  0  0
 63140  1  0  0  0
 64141  1  0  0  0
 65142  1  0  0  0
 68 79  1  0  0  0
 71 72  2  0  0  0
 71 73  1  0  0  0
 71143  1  0  0  0
 72 74  1  0  0  0
 72144  1  0  0  0
 73 76  2  0  0  0
 73145  1  0  0  0
 74 75  2  0  0  0
 74 81  1  0  0  0
 75 76  1  0  0  0
 75 80  1  0  0  0
 76 82  1  0  0  0
 77 79  1  0  0  0
 77 83  1  0  0  0
 77146  1  0  0  0
 77147  1  0  0  0
 78 79  1  0  0  0
 78 83  1  0  0  0
 78148  1  0  0  0
 78149  1  0  0  0
 79150  1  0  0  0
 80151  1  0  0  0
 80152  1  0  0  0
 80153  1  0  0  0
 81154  1  0  0  0
 81155  1  0  0  0
 81 83  1  0  0  0
 82156  1  0  0  0
 83157  1  0  0  0
M  CHG  1  83   1
M  ISO  4   1 100  68 101  79 101  82 100
M  END
> <chiral flag>
0

> <version>
0

> <s_m_source_file>
/data/baiqing/PycharmProjects/Reinvent-master-3.2/result/LINK_invent/BTK/process_docking_weight1_custom_product_contain_oxygen_bond_distance_aromatic_linkinvent_7_9_3/rearranged_h_0029.sdf

> <i_m_source_file_index>
13

> <r_mmod_Potential_Energy-OPLS-2005>
75.9034118652344

> <r_mmod_Stretch_Energy-OPLS-2005>
169.932220458984

> <r_mmod_Bend_Energy-OPLS-2005>
225.856201171875

> <r_mmod_Torsional_Energy-OPLS-2005>
222.959136962891

> <r_mmod_Improper_Torsional_Energy-OPLS-2005>
4.07569265365601

> <r_mmod_Van_der_Waal_Energy-OPLS-2005>
134.445114135742

> <r_mmod_Electrostatic_Energy-OPLS-2005>
-322.274261474609

> <r_mmod_Solvation_Energy-OPLS-2005>
-484.015441894531

> <b_mmod_Minimization_Converged-OPLS-2005>
0

> <r_mmod_RMS_Derivative-OPLS-2005>
1.20469701290131

$$$$
13
                    3D
 Structure written by MMmdl.
156165  0  0  1  0            999 V2000
  -30.5176  -15.0679   20.3828 C   0  0  0  0  0  0
  -30.4346  -12.6673   19.5125 C   0  0  0  0  0  0
  -29.5231  -12.5394   18.2698 C   0  0  0  0  0  0
  -28.0620  -12.3038   18.6927 C   0  0  0  0  0  0
  -27.6192  -13.2606   19.8295 C   0  0  2  0  0  0
  -28.6592  -13.3569   20.9659 C   0  0  0  0  0  0
  -25.2413  -13.8238   20.5719 C   0  0  0  0  0  0
  -24.1756  -13.0449   20.9252 C   0  0  0  0  0  0
  -24.6390  -11.6938   20.8764 C   0  0  0  0  0  0
  -23.9076  -10.4300   21.0405 C   0  0  0  0  0  0
  -24.3622   -9.4210   21.9182 C   0  0  0  0  0  0
  -23.6298   -8.2241   22.0752 C   0  0  0  0  0  0
  -22.4277   -8.0276   21.3542 C   0  0  0  0  0  0
  -21.9914   -9.0247   20.4638 C   0  0  0  0  0  0
  -22.7246  -10.2132   20.3050 C   0  0  0  0  0  0
  -21.6859   -6.0730   22.5268 C   0  0  0  0  0  0
  -21.4013   -6.5632   23.8201 C   0  0  0  0  0  0
  -21.3659   -5.6786   24.9169 C   0  0  0  0  0  0
  -21.6048   -4.3049   24.7218 C   0  0  0  0  0  0
  -21.8822   -3.8141   23.4342 C   0  0  0  0  0  0
  -21.9191   -4.6955   22.3397 C   0  0  0  0  0  0
  -22.7771  -13.5202   21.1894 C   0  0  0  0  0  0
  -22.1665   -4.2139   21.0975 F   0  0  0  0  0  0
  -21.5628   -3.4536   25.7733 F   0  0  0  0  0  0
  -29.9194  -13.7964   20.3519 N   0  0  0  0  0  0
  -26.2838  -12.9490   20.3231 N   0  0  0  0  0  0
  -25.9318  -11.6606   20.5738 N   0  0  0  0  0  0
  -22.0432  -12.8178   22.0448 N   0  0  0  0  0  0
  -25.4071  -15.1970   20.4128 N   0  0  0  0  0  0
  -31.7367  -15.0523   20.1854 O   0  0  0  0  0  0
  -21.6641   -6.8877   21.4233 O   0  0  0  0  0  0
  -22.3447  -14.5510   20.6752 O   0  0  0  0  0  0
  -24.6523  -31.8366   23.1813 C   0  0  0  0  0  0
  -25.9274  -32.4644   23.8219 C   0  0  1  0  0  0
  -27.2083  -27.0498   20.1703 C   0  0  0  0  0  0
  -25.5990  -33.8446   24.2140 N   0  0  0  0  0  0
  -23.4577  -30.4513   21.5313 C   0  0  2  0  0  0
  -24.9057  -28.8613   20.1165 C   0  0  0  0  0  0
  -22.7609  -29.4487   22.4860 C   0  0  0  0  0  0
  -18.0309  -28.1400   22.8442 C   0  0  0  0  0  0
  -24.1499  -36.7224   23.2645 C   0  0  0  0  0  0
  -26.0184  -30.6831   21.3915 C   0  0  0  0  0  0
  -26.0866  -29.2841   20.7379 C   0  0  0  0  0  0
  -27.2389  -28.3969   20.7420 C   0  0  0  0  0  0
  -26.0028  -26.7528   19.5009 C   0  0  0  0  0  0
  -24.8794  -27.6110   19.4809 C   0  0  0  0  0  0
  -23.6891  -29.7778   20.1524 C   0  0  0  0  0  0
  -25.4128  -36.2978   24.0304 C   0  0  1  0  0  0
  -20.5921  -28.3714   23.1216 C   0  0  2  0  0  0
  -20.6787  -26.9414   22.5397 C   0  0  0  0  0  0
  -19.5768  -26.6384   21.5201 C   0  0  0  0  0  0
  -18.1946  -26.7931   22.1608 C   0  0  0  0  0  0
  -19.1570  -28.8881   23.2808 C   0  0  0  0  0  0
  -18.9488  -30.1478   23.8830 C   0  0  0  0  0  0
  -17.6481  -30.6587   24.0552 C   0  0  0  0  0  0
  -25.9092  -34.9366   23.5033 C   0  0  0  0  0  0
  -16.5370  -29.9070   23.6347 C   0  0  0  0  0  0
  -16.7295  -28.6507   23.0334 C   0  0  0  0  0  0
  -26.4566  -31.6537   25.0695 C   0  0  0  0  0  0
  -25.3720  -31.3753   26.1376 C   0  0  0  0  0  0
  -27.0445  -30.2916   24.6329 C   0  0  0  0  0  0
  -27.6083  -32.4312   25.7488 C   0  0  0  0  0  0
  -27.5565  -37.1762   24.8469 C   0  0  0  0  0  0
  -21.4297  -29.3028   22.3594 N   0  0  0  0  0  0
  -26.4276  -37.3708   23.9416 N   0  0  0  0  0  0
  -24.7300  -31.0135   22.0904 N   0  0  0  0  0  0
  -23.4212  -28.8035   23.3046 O   0  0  0  0  0  0
  -28.2607  -26.0363   20.1783 O   0  0  0  0  0  0
  -26.5679  -34.8883   22.4614 O   0  0  0  0  0  0
  -23.5621  -32.1291   23.6983 O   0  0  0  0  0  0
  -30.7062  -20.6321   19.4878 C   0  0  0  0  0  0
  -31.4873  -19.5200   19.1139 C   0  0  0  0  0  0
  -29.1680  -19.0608   20.5180 C   0  0  0  0  0  0
  -29.4826  -20.5071   20.1728 C   0  0  0  0  0  0
  -30.0041  -17.8338   20.1802 C   0  0  0  0  0  0
  -31.1518  -18.1832   19.4176 C   0  0  0  0  0  0
  -27.1233  -23.5771   19.6156 C   0  0  0  0  0  0
  -27.3729  -22.0385   19.9428 C   0  0  0  0  0  0
  -29.2693  -23.2868   20.3998 C   0  0  0  0  0  0
  -28.0904  -24.4658   20.4454 C   0  0  1  0  0  0
  -27.8990  -18.8288   21.3157 C   0  0  0  0  0  0
  -28.7531  -21.8182   20.4059 N   0  0  0  0  0  0
  -29.7557  -16.3021   20.4825 N   0  0  0  0  0  0
  -31.9659  -17.2349   18.9051 F   0  0  0  0  0  0
  -31.4633  -12.8325   19.1904 H   0  0  0  0  0  0
  -30.4504  -11.7382   20.0839 H   0  0  0  0  0  0
  -29.8644  -11.7239   17.6309 H   0  0  0  0  0  0
  -29.5870  -13.4487   17.6706 H   0  0  0  0  0  0
  -27.9830  -11.2716   19.0338 H   0  0  0  0  0  0
  -27.3952  -12.3944   17.8347 H   0  0  0  0  0  0
  -27.5612  -14.2470   19.3670 H   0  0  0  0  0  0
  -28.7749  -12.4013   21.4801 H   0  0  0  0  0  0
  -28.3370  -14.0788   21.7180 H   0  0  0  0  0  0
  -25.2762   -9.5685   22.4760 H   0  0  0  0  0  0
  -23.9998   -7.4635   22.7475 H   0  0  0  0  0  0
  -21.0842   -8.8774   19.8938 H   0  0  0  0  0  0
  -22.3702  -10.9675   19.6154 H   0  0  0  0  0  0
  -21.2009   -7.6139   23.9705 H   0  0  0  0  0  0
  -21.1479   -6.0516   25.9071 H   0  0  0  0  0  0
  -22.0602   -2.7599   23.2845 H   0  0  0  0  0  0
  -22.4067  -11.9839   22.4821 H   0  0  0  0  0  0
  -21.1041  -13.1170   22.2662 H   0  0  0  0  0  0
  -24.6327  -15.8440   20.5120 H   0  0  0  0  0  0
  -26.2371  -15.6305   20.0320 H   0  0  0  0  0  0
  -26.7334  -32.5229   23.0926 H   0  0  0  0  0  0
  -25.0108  -33.9546   25.0264 H   0  0  0  0  0  0
  -22.7637  -31.2794   21.3727 H   0  0  0  0  0  0
  -23.3768  -35.9552   23.3273 H   0  0  0  0  0  0
  -24.3578  -36.8905   22.2070 H   0  0  0  0  0  0
  -23.7263  -37.6397   23.6721 H   0  0  0  0  0  0
  -26.1795  -31.4318   20.6142 H   0  0  0  0  0  0
  -26.8866  -30.7375   22.0365 H   0  0  0  0  0  0
  -28.1411  -28.7195   21.2413 H   0  0  0  0  0  0
  -25.9064  -25.8162   18.9769 H   0  0  0  0  0  0
  -23.9834  -27.2875   18.9699 H   0  0  0  0  0  0
  -23.8339  -30.5534   19.3990 H   0  0  0  0  0  0
  -22.8017  -29.2263   19.8382 H   0  0  0  0  0  0
  -25.1315  -36.1779   25.0791 H   0  0  0  0  0  0
  -20.9982  -28.3317   24.1350 H   0  0  0  0  0  0
  -20.5697  -26.2324   23.3611 H   0  0  0  0  0  0
  -21.6649  -26.7428   22.1189 H   0  0  0  0  0  0
  -19.6943  -25.6295   21.1242 H   0  0  0  0  0  0
  -19.6729  -27.3184   20.6713 H   0  0  0  0  0  0
  -17.4217  -26.6663   21.4010 H   0  0  0  0  0  0
  -18.0334  -26.0084   22.9013 H   0  0  0  0  0  0
  -19.7979  -30.7294   24.2178 H   0  0  0  0  0  0
  -17.5050  -31.6264   24.5163 H   0  0  0  0  0  0
  -15.5374  -30.2947   23.7731 H   0  0  0  0  0  0
  -15.8690  -28.0834   22.7047 H   0  0  0  0  0  0
  -24.5926  -30.7071   25.7696 H   0  0  0  0  0  0
  -24.8885  -32.2941   26.4689 H   0  0  0  0  0  0
  -25.7976  -30.9005   27.0231 H   0  0  0  0  0  0
  -26.3075  -29.6607   24.1341 H   0  0  0  0  0  0
  -27.4036  -29.7242   25.4931 H   0  0  0  0  0  0
  -27.8987  -30.4124   23.9666 H   0  0  0  0  0  0
  -27.2695  -33.3701   26.1875 H   0  0  0  0  0  0
  -28.3979  -32.6726   25.0363 H   0  0  0  0  0  0
  -28.0633  -31.8551   26.5555 H   0  0  0  0  0  0
  -28.2545  -38.0090   24.7489 H   0  0  0  0  0  0
  -28.1088  -36.2599   24.6304 H   0  0  0  0  0  0
  -27.2270  -37.1398   25.8870 H   0  0  0  0  0  0
  -20.9533  -29.8743   21.6755 H   0  0  0  0  0  0
  -26.0126  -38.2765   24.1435 H   0  0  0  0  0  0
  -31.0664  -21.6053   19.1890 H   0  0  0  0  0  0
  -32.3877  -19.6994   18.5452 H   0  0  0  0  0  0
  -26.0783  -23.8255   19.8002 H   0  0  0  0  0  0
  -27.3106  -23.7498   18.5557 H   0  0  0  0  0  0
  -27.1501  -21.4264   19.0664 H   0  0  0  0  0  0
  -26.6935  -21.7158   20.7322 H   0  0  0  0  0  0
  -29.9697  -23.4306   21.2225 H   0  0  0  0  0  0
  -29.8475  -23.4309   19.4871 H   0  0  0  0  0  0
  -27.7073  -24.4427   21.4666 H   0  0  0  0  0  0
  -27.9711  -19.3400   22.2767 H   0  0  0  0  0  0
  -27.7174  -17.7723   21.5099 H   0  0  0  0  0  0
  -27.0359  -19.2265   20.7829 H   0  0  0  0  0  0
  -28.8045  -16.1087   20.7518 H   0  0  0  0  0  0
  1 25  1  0  0  0
  1 30  2  0  0  0
  1 83  1  0  0  0
  2  3  1  0  0  0
  2 25  1  0  0  0
  2 85  1  0  0  0
  2 86  1  0  0  0
  3  4  1  0  0  0
  3 87  1  0  0  0
  3 88  1  0  0  0
  4  5  1  0  0  0
  4 89  1  0  0  0
  4 90  1  0  0  0
  5  6  1  0  0  0
  5 26  1  0  0  0
  5 91  1  0  0  0
  6 25  1  0  0  0
  6 92  1  0  0  0
  6 93  1  0  0  0
  7  8  2  0  0  0
  7 26  1  0  0  0
  7 29  1  0  0  0
  8  9  1  0  0  0
  8 22  1  0  0  0
  9 10  1  0  0  0
  9 27  2  0  0  0
 10 11  2  0  0  0
 10 15  1  0  0  0
 11 12  1  0  0  0
 11 94  1  0  0  0
 12 13  2  0  0  0
 12 95  1  0  0  0
 13 14  1  0  0  0
 13 31  1  0  0  0
 14 15  2  0  0  0
 14 96  1  0  0  0
 15 97  1  0  0  0
 16 17  2  0  0  0
 16 21  1  0  0  0
 16 31  1  0  0  0
 17 18  1  0  0  0
 17 98  1  0  0  0
 18 19  2  0  0  0
 18 99  1  0  0  0
 19 20  1  0  0  0
 19 24  1  0  0  0
 20 21  2  0  0  0
 20100  1  0  0  0
 21 23  1  0  0  0
 22 28  1  0  0  0
 22 32  2  0  0  0
 26 27  1  0  0  0
 28101  1  0  0  0
 28102  1  0  0  0
 29103  1  0  0  0
 29104  1  0  0  0
 33 34  1  0  0  0
 33 66  1  0  0  0
 33 70  2  0  0  0
 34 36  1  0  0  0
 34 59  1  0  0  0
 34105  1  0  0  0
 35 44  2  0  0  0
 35 45  1  0  0  0
 35 68  1  0  0  0
 36 56  1  0  0  0
 36106  1  0  0  0
 37 39  1  0  0  0
 37 47  1  0  0  0
 37 66  1  0  0  0
 37107  1  0  0  0
 38 43  2  0  0  0
 38 46  1  0  0  0
 38 47  1  0  0  0
 39 64  1  0  0  0
 39 67  2  0  0  0
 40 52  1  0  0  0
 40 53  2  0  0  0
 40 58  1  0  0  0
 41108  1  0  0  0
 41109  1  0  0  0
 41110  1  0  0  0
 41 48  1  0  0  0
 42 43  1  0  0  0
 42 66  1  0  0  0
 42111  1  0  0  0
 42112  1  0  0  0
 43 44  1  0  0  0
 44113  1  0  0  0
 45 46  2  0  0  0
 45114  1  0  0  0
 46115  1  0  0  0
 47116  1  0  0  0
 47117  1  0  0  0
 48 56  1  0  0  0
 48 65  1  0  0  0
 48118  1  0  0  0
 49 50  1  0  0  0
 49 53  1  0  0  0
 49 64  1  0  0  0
 49119  1  0  0  0
 50 51  1  0  0  0
 50120  1  0  0  0
 50121  1  0  0  0
 51 52  1  0  0  0
 51122  1  0  0  0
 51123  1  0  0  0
 52124  1  0  0  0
 52125  1  0  0  0
 53 54  1  0  0  0
 54 55  2  0  0  0
 54126  1  0  0  0
 55 57  1  0  0  0
 55127  1  0  0  0
 56 69  2  0  0  0
 57 58  2  0  0  0
 57128  1  0  0  0
 58129  1  0  0  0
 59 60  1  0  0  0
 59 61  1  0  0  0
 59 62  1  0  0  0
 60130  1  0  0  0
 60131  1  0  0  0
 60132  1  0  0  0
 61133  1  0  0  0
 61134  1  0  0  0
 61135  1  0  0  0
 62136  1  0  0  0
 62137  1  0  0  0
 62138  1  0  0  0
 63 65  1  0  0  0
 63139  1  0  0  0
 63140  1  0  0  0
 63141  1  0  0  0
 64142  1  0  0  0
 65143  1  0  0  0
 68 80  1  0  0  0
 71 72  2  0  0  0
 71 74  1  0  0  0
 71144  1  0  0  0
 72 76  1  0  0  0
 72145  1  0  0  0
 73 74  2  0  0  0
 73 75  1  0  0  0
 73 81  1  0  0  0
 74 82  1  0  0  0
 75 76  2  0  0  0
 75 83  1  0  0  0
 76 84  1  0  0  0
 77 78  1  0  0  0
 77 80  1  0  0  0
 77146  1  0  0  0
 77147  1  0  0  0
 78 82  1  0  0  0
 78148  1  0  0  0
 78149  1  0  0  0
 79 80  1  0  0  0
 79 82  1  0  0  0
 79150  1  0  0  0
 79151  1  0  0  0
 80152  1  0  0  0
 81153  1  0  0  0
 81154  1  0  0  0
 81155  1  0  0  0
 83156  1  0  0  0
M  ISO  4   1 100  68 101  80 101  83 100
M  END
> <chiral flag>
0

> <version>
0

> <s_m_source_file>
/data/baiqing/PycharmProjects/Reinvent-master-3.2/result/LINK_invent/BTK/process_docking_weight1_custom_product_contain_oxygen_bond_distance_aromatic_linkinvent_7_9_3/rearranged_h_0029.sdf

> <i_m_source_file_index>
14

> <r_mmod_Potential_Energy-OPLS-2005>
747.607727050781

> <r_mmod_Stretch_Energy-OPLS-2005>
340.316223144531

> <r_mmod_Bend_Energy-OPLS-2005>
349.452026367188

> <r_mmod_Torsional_Energy-OPLS-2005>
281.579284667969

> <r_mmod_Improper_Torsional_Energy-OPLS-2005>
6.34035015106201

> <r_mmod_Van_der_Waal_Energy-OPLS-2005>
130.034866333008

> <r_mmod_Electrostatic_Energy-OPLS-2005>
-403.216918945312

> <r_mmod_Solvation_Energy-OPLS-2005>
-231.828643798828

> <b_mmod_Minimization_Converged-OPLS-2005>
0

> <r_mmod_RMS_Derivative-OPLS-2005>
2.06520199775696

$$$$
14
                    3D
 Structure written by MMmdl.
163172  0  0  1  0            999 V2000
  -30.5622  -14.7923   20.4491 C   0  0  0  0  0  0
  -30.4456  -12.4875   19.4591 C   0  0  0  0  0  0
  -29.5113  -12.5071   18.2282 C   0  0  0  0  0  0
  -28.0398  -12.3181   18.6493 C   0  0  0  0  0  0
  -27.6389  -13.2252   19.8421 C   0  0  2  0  0  0
  -28.6868  -13.1656   20.9731 C   0  0  0  0  0  0
  -25.2510  -13.8172   20.5676 C   0  0  0  0  0  0
  -24.1804  -13.0424   20.9216 C   0  0  0  0  0  0
  -24.6390  -11.6902   20.8750 C   0  0  0  0  0  0
  -23.9065  -10.4285   21.0413 C   0  0  0  0  0  0
  -24.3618   -9.4199   21.9187 C   0  0  0  0  0  0
  -23.6291   -8.2236   22.0754 C   0  0  0  0  0  0
  -22.4275   -8.0276   21.3543 C   0  0  0  0  0  0
  -21.9912   -9.0250   20.4647 C   0  0  0  0  0  0
  -22.7241  -10.2128   20.3058 C   0  0  0  0  0  0
  -21.6851   -6.0733   22.5279 C   0  0  0  0  0  0
  -21.4013   -6.5637   23.8212 C   0  0  0  0  0  0
  -21.3657   -5.6792   24.9172 C   0  0  0  0  0  0
  -21.6044   -4.3055   24.7225 C   0  0  0  0  0  0
  -21.8818   -3.8145   23.4347 C   0  0  0  0  0  0
  -21.9193   -4.6962   22.3403 C   0  0  0  0  0  0
  -22.7829  -13.5213   21.1876 C   0  0  0  0  0  0
  -22.1662   -4.2148   21.0982 F   0  0  0  0  0  0
  -21.5628   -3.4541   25.7737 F   0  0  0  0  0  0
  -29.9778  -13.5446   20.3836 N   0  0  0  0  0  0
  -26.2925  -12.9364   20.3245 N   0  0  0  0  0  0
  -25.9313  -11.6517   20.5738 N   0  0  0  0  0  0
  -22.0479  -12.8202   22.0432 N   0  0  0  0  0  0
  -25.4185  -15.1898   20.4067 N   0  0  0  0  0  0
  -31.7673  -14.9166   20.2143 O   0  0  0  0  0  0
  -21.6637   -6.8874   21.4240 O   0  0  0  0  0  0
  -22.3518  -14.5523   20.6729 O   0  0  0  0  0  0
  -24.6343  -31.8522   23.1932 C   0  0  0  0  0  0
  -25.9149  -32.4736   23.8302 C   0  0  1  0  0  0
  -27.2228  -27.2328   20.1456 C   0  0  0  0  0  0
  -25.5931  -33.8539   24.2226 N   0  0  0  0  0  0
  -23.4335  -30.4715   21.5371 C   0  0  2  0  0  0
  -24.8818  -28.9039   20.1188 C   0  0  0  0  0  0
  -22.7517  -29.4589   22.4897 C   0  0  0  0  0  0
  -18.0296  -28.1394   22.8474 C   0  0  0  0  0  0
  -24.1490  -36.7271   23.2643 C   0  0  0  0  0  0
  -25.9799  -30.7574   21.3747 C   0  0  0  0  0  0
  -26.0543  -29.3727   20.7248 C   0  0  0  0  0  0
  -27.2309  -28.5527   20.7195 C   0  0  0  0  0  0
  -26.0265  -26.8284   19.5215 C   0  0  0  0  0  0
  -24.8731  -27.6397   19.5064 C   0  0  0  0  0  0
  -23.6554  -29.7977   20.1577 C   0  0  0  0  0  0
  -25.4115  -36.3057   24.0325 C   0  0  1  0  0  0
  -20.5900  -28.3709   23.1261 C   0  0  2  0  0  0
  -20.6783  -26.9423   22.5412 C   0  0  0  0  0  0
  -19.5753  -26.6385   21.5218 C   0  0  0  0  0  0
  -18.1931  -26.7933   22.1622 C   0  0  0  0  0  0
  -19.1549  -28.8864   23.2861 C   0  0  0  0  0  0
  -18.9475  -30.1463   23.8889 C   0  0  0  0  0  0
  -17.6473  -30.6593   24.0567 C   0  0  0  0  0  0
  -25.9060  -34.9432   23.5081 C   0  0  0  0  0  0
  -16.5361  -29.9091   23.6342 C   0  0  0  0  0  0
  -16.7283  -28.6510   23.0354 C   0  0  0  0  0  0
  -26.4509  -31.6567   25.0704 C   0  0  0  0  0  0
  -25.3717  -31.3727   26.1417 C   0  0  0  0  0  0
  -27.0374  -30.2989   24.6196 C   0  0  0  0  0  0
  -27.6056  -32.4316   25.7478 C   0  0  0  0  0  0
  -27.5571  -37.1786   24.8467 C   0  0  0  0  0  0
  -21.4216  -29.3049   22.3643 N   0  0  0  0  0  0
  -26.4283  -37.3759   23.9411 N   0  0  0  0  0  0
  -24.7019  -31.0464   22.0915 N   0  0  0  0  0  0
  -23.4201  -28.8132   23.3012 O   0  0  0  0  0  0
  -28.3247  -26.3446   20.1058 O   0  0  0  0  0  0
  -26.5647  -34.8912   22.4663 O   0  0  0  0  0  0
  -23.5483  -32.1354   23.7202 O   0  0  0  0  0  0
  -30.1557  -20.6327   18.4289 C   0  0  0  0  0  0
  -30.9374  -20.0409   17.4262 C   0  0  0  0  0  0
  -30.8628  -17.9440   18.6308 C   0  0  0  0  0  0
  -29.7065  -19.9303   19.5751 C   0  0  0  0  0  0
  -30.0820  -18.4876   19.6813 C   0  0  0  0  0  0
  -31.2884  -18.6922   17.5243 C   0  0  0  0  0  0
  -29.6647  -23.9027   22.6703 C   0  0  0  0  0  0
  -29.0656  -25.1730   22.0411 C   0  0  0  0  0  0
  -28.9604  -22.6031   22.2568 C   0  0  0  0  0  0
  -28.6721  -23.5715   19.9760 C   0  0  0  0  0  0
  -28.2557  -24.9704   20.7429 C   0  0  2  0  0  0
  -29.8294  -17.4103   20.8284 C   0  0  0  0  0  0
  -28.7677  -20.8571   20.4722 C   0  0  0  0  0  0
  -29.7079  -15.8873   20.5704 N   0  0  0  0  0  0
  -29.1474  -22.3369   20.8097 N   0  3  2  0  0  0
  -32.2417  -17.9531   16.2906 Cl  0  0  0  0  0  0
  -31.4797  -12.6476   19.1491 H   0  0  0  0  0  0
  -30.4242  -11.5132   19.9492 H   0  0  0  0  0  0
  -29.8006  -11.7277   17.5223 H   0  0  0  0  0  0
  -29.6215  -13.4549   17.6987 H   0  0  0  0  0  0
  -27.9102  -11.2713   18.9258 H   0  0  0  0  0  0
  -27.3768  -12.4915   17.8011 H   0  0  0  0  0  0
  -27.6271  -14.2424   19.4512 H   0  0  0  0  0  0
  -28.7392  -12.1649   21.4047 H   0  0  0  0  0  0
  -28.4163  -13.8363   21.7904 H   0  0  0  0  0  0
  -25.2763   -9.5672   22.4764 H   0  0  0  0  0  0
  -23.9999   -7.4625   22.7471 H   0  0  0  0  0  0
  -21.0846   -8.8768   19.8952 H   0  0  0  0  0  0
  -22.3699  -10.9668   19.6167 H   0  0  0  0  0  0
  -21.2005   -7.6144   23.9712 H   0  0  0  0  0  0
  -21.1480   -6.0522   25.9073 H   0  0  0  0  0  0
  -22.0602   -2.7609   23.2848 H   0  0  0  0  0  0
  -22.4098  -11.9852   22.4803 H   0  0  0  0  0  0
  -21.1097  -13.1219   22.2652 H   0  0  0  0  0  0
  -24.6405  -15.8337   20.5016 H   0  0  0  0  0  0
  -26.2463  -15.6289   20.0257 H   0  0  0  0  0  0
  -26.7213  -32.5388   23.1036 H   0  0  0  0  0  0
  -25.0087  -33.9672   25.0377 H   0  0  0  0  0  0
  -22.7329  -31.2948   21.3831 H   0  0  0  0  0  0
  -23.3759  -35.9599   23.3308 H   0  0  0  0  0  0
  -24.3586  -36.8905   22.2064 H   0  0  0  0  0  0
  -23.7240  -37.6466   23.6674 H   0  0  0  0  0  0
  -26.1182  -31.5118   20.5989 H   0  0  0  0  0  0
  -26.8577  -30.8130   22.0076 H   0  0  0  0  0  0
  -28.1348  -28.9119   21.1890 H   0  0  0  0  0  0
  -25.9806  -25.8601   19.0430 H   0  0  0  0  0  0
  -23.9754  -27.2763   19.0260 H   0  0  0  0  0  0
  -23.7881  -30.5699   19.3984 H   0  0  0  0  0  0
  -22.7723  -29.2346   19.8513 H   0  0  0  0  0  0
  -25.1299  -36.1902   25.0818 H   0  0  0  0  0  0
  -20.9991  -28.3293   24.1381 H   0  0  0  0  0  0
  -20.5696  -26.2318   23.3618 H   0  0  0  0  0  0
  -21.6649  -26.7454   22.1193 H   0  0  0  0  0  0
  -19.6932  -25.6297   21.1248 H   0  0  0  0  0  0
  -19.6697  -27.3198   20.6750 H   0  0  0  0  0  0
  -17.4209  -26.6693   21.4020 H   0  0  0  0  0  0
  -18.0318  -26.0078   22.9022 H   0  0  0  0  0  0
  -19.7958  -30.7274   24.2253 H   0  0  0  0  0  0
  -17.5037  -31.6276   24.5167 H   0  0  0  0  0  0
  -15.5362  -30.2993   23.7665 H   0  0  0  0  0  0
  -15.8684  -28.0827   22.7071 H   0  0  0  0  0  0
  -24.5902  -30.7067   25.7736 H   0  0  0  0  0  0
  -24.8896  -32.2900   26.4814 H   0  0  0  0  0  0
  -25.8020  -30.8924   27.0213 H   0  0  0  0  0  0
  -26.2968  -29.6712   24.1229 H   0  0  0  0  0  0
  -27.4079  -29.7277   25.4716 H   0  0  0  0  0  0
  -27.8822  -30.4281   23.9425 H   0  0  0  0  0  0
  -27.2677  -33.3639   26.2010 H   0  0  0  0  0  0
  -28.3884  -32.6843   25.0315 H   0  0  0  0  0  0
  -28.0696  -31.8473   26.5433 H   0  0  0  0  0  0
  -28.2578  -38.0091   24.7524 H   0  0  0  0  0  0
  -28.1075  -36.2625   24.6278 H   0  0  0  0  0  0
  -27.2295  -37.1422   25.8870 H   0  0  0  0  0  0
  -20.9405  -29.8779   21.6856 H   0  0  0  0  0  0
  -26.0164  -38.2830   24.1427 H   0  0  0  0  0  0
  -29.8836  -21.6677   18.2835 H   0  0  0  0  0  0
  -31.2584  -20.6218   16.5730 H   0  0  0  0  0  0
  -31.1737  -16.9123   18.6641 H   0  0  0  0  0  0
  -29.6466  -23.9995   23.7559 H   0  0  0  0  0  0
  -30.7203  -23.8340   22.4039 H   0  0  0  0  0  0
  -29.8866  -25.8657   21.8550 H   0  0  0  0  0  0
  -28.4264  -25.6765   22.7677 H   0  0  0  0  0  0
  -27.8980  -22.6347   22.5032 H   0  0  0  0  0  0
  -29.3920  -21.7884   22.8410 H   0  0  0  0  0  0
  -29.4816  -23.8027   19.2843 H   0  0  0  0  0  0
  -27.8360  -23.2685   19.3463 H   0  0  0  0  0  0
  -27.2221  -24.8118   21.0564 H   0  0  0  0  0  0
  -28.9145  -17.7074   21.3413 H   0  0  0  0  0  0
  -30.6237  -17.5424   21.5634 H   0  0  0  0  0  0
  -28.6201  -20.2997   21.3973 H   0  0  0  0  0  0
  -27.7806  -20.8715   20.0081 H   0  0  0  0  0  0
  -28.7502  -15.5803   20.6317 H   0  0  0  0  0  0
  -30.1519  -22.3369   20.7129 H   0  0  0  0  0  0
  1 25  1  0  0  0
  1 30  2  0  0  0
  1 84  1  0  0  0
  2  3  1  0  0  0
  2 25  1  0  0  0
  2 87  1  0  0  0
  2 88  1  0  0  0
  3  4  1  0  0  0
  3 89  1  0  0  0
  3 90  1  0  0  0
  4  5  1  0  0  0
  4 91  1  0  0  0
  4 92  1  0  0  0
  5  6  1  0  0  0
  5 26  1  0  0  0
  5 93  1  0  0  0
  6 25  1  0  0  0
  6 94  1  0  0  0
  6 95  1  0  0  0
  7  8  2  0  0  0
  7 26  1  0  0  0
  7 29  1  0  0  0
  8  9  1  0  0  0
  8 22  1  0  0  0
  9 10  1  0  0  0
  9 27  2  0  0  0
 10 11  2  0  0  0
 10 15  1  0  0  0
 11 12  1  0  0  0
 11 96  1  0  0  0
 12 13  2  0  0  0
 12 97  1  0  0  0
 13 14  1  0  0  0
 13 31  1  0  0  0
 14 15  2  0  0  0
 14 98  1  0  0  0
 15 99  1  0  0  0
 16 17  2  0  0  0
 16 21  1  0  0  0
 16 31  1  0  0  0
 17 18  1  0  0  0
 17100  1  0  0  0
 18 19  2  0  0  0
 18101  1  0  0  0
 19 20  1  0  0  0
 19 24  1  0  0  0
 20 21  2  0  0  0
 20102  1  0  0  0
 21 23  1  0  0  0
 22 28  1  0  0  0
 22 32  2  0  0  0
 26 27  1  0  0  0
 28103  1  0  0  0
 28104  1  0  0  0
 29105  1  0  0  0
 29106  1  0  0  0
 33 34  1  0  0  0
 33 66  1  0  0  0
 33 70  2  0  0  0
 34 36  1  0  0  0
 34 59  1  0  0  0
 34107  1  0  0  0
 35 44  2  0  0  0
 35 45  1  0  0  0
 35 68  1  0  0  0
 36 56  1  0  0  0
 36108  1  0  0  0
 37 39  1  0  0  0
 37 47  1  0  0  0
 37 66  1  0  0  0
 37109  1  0  0  0
 38 43  2  0  0  0
 38 46  1  0  0  0
 38 47  1  0  0  0
 39 64  1  0  0  0
 39 67  2  0  0  0
 40 52  1  0  0  0
 40 53  2  0  0  0
 40 58  1  0  0  0
 41110  1  0  0  0
 41111  1  0  0  0
 41112  1  0  0  0
 41 48  1  0  0  0
 42 43  1  0  0  0
 42 66  1  0  0  0
 42113  1  0  0  0
 42114  1  0  0  0
 43 44  1  0  0  0
 44115  1  0  0  0
 45 46  2  0  0  0
 45116  1  0  0  0
 46117  1  0  0  0
 47118  1  0  0  0
 47119  1  0  0  0
 48 56  1  0  0  0
 48 65  1  0  0  0
 48120  1  0  0  0
 49 50  1  0  0  0
 49 53  1  0  0  0
 49 64  1  0  0  0
 49121  1  0  0  0
 50 51  1  0  0  0
 50122  1  0  0  0
 50123  1  0  0  0
 51 52  1  0  0  0
 51124  1  0  0  0
 51125  1  0  0  0
 52126  1  0  0  0
 52127  1  0  0  0
 53 54  1  0  0  0
 54 55  2  0  0  0
 54128  1  0  0  0
 55 57  1  0  0  0
 55129  1  0  0  0
 56 69  2  0  0  0
 57 58  2  0  0  0
 57130  1  0  0  0
 58131  1  0  0  0
 59 60  1  0  0  0
 59 61  1  0  0  0
 59 62  1  0  0  0
 60132  1  0  0  0
 60133  1  0  0  0
 60134  1  0  0  0
 61135  1  0  0  0
 61136  1  0  0  0
 61137  1  0  0  0
 62138  1  0  0  0
 62139  1  0  0  0
 62140  1  0  0  0
 63 65  1  0  0  0
 63141  1  0  0  0
 63142  1  0  0  0
 63143  1  0  0  0
 64144  1  0  0  0
 65145  1  0  0  0
 68 81  1  0  0  0
 71 72  2  0  0  0
 71 74  1  0  0  0
 71146  1  0  0  0
 72 76  1  0  0  0
 72147  1  0  0  0
 73 75  1  0  0  0
 73 76  2  0  0  0
 73148  1  0  0  0
 74 75  2  0  0  0
 74 83  1  0  0  0
 75 82  1  0  0  0
 76 86  1  0  0  0
 77 78  1  0  0  0
 77 79  1  0  0  0
 77149  1  0  0  0
 77150  1  0  0  0
 78 81  1  0  0  0
 78151  1  0  0  0
 78152  1  0  0  0
 79 85  1  0  0  0
 79153  1  0  0  0
 79154  1  0  0  0
 80 81  1  0  0  0
 80 85  1  0  0  0
 80155  1  0  0  0
 80156  1  0  0  0
 81157  1  0  0  0
 82 84  1  0  0  0
 82158  1  0  0  0
 82159  1  0  0  0
 83160  1  0  0  0
 83161  1  0  0  0
 83 85  1  0  0  0
 84162  1  0  0  0
 85163  1  0  0  0
M  CHG  1  85   1
M  ISO  4   1 100  68 101  81 101  84 100
M  END
> <chiral flag>
0

> <version>
0

> <s_m_source_file>
/data/baiqing/PycharmProjects/Reinvent-master-3.2/result/LINK_invent/BTK/process_docking_weight1_custom_product_contain_oxygen_bond_distance_aromatic_linkinvent_7_9_3/rearranged_h_0029.sdf

> <i_m_source_file_index>
15

> <r_mmod_Potential_Energy-OPLS-2005>
207.749816894531

> <r_mmod_Stretch_Energy-OPLS-2005>
161.847808837891

> <r_mmod_Bend_Energy-OPLS-2005>
241.008804321289

> <r_mmod_Torsional_Energy-OPLS-2005>
283.116271972656

> <r_mmod_Improper_Torsional_Energy-OPLS-2005>
5.57301807403564

> <r_mmod_Van_der_Waal_Energy-OPLS-2005>
133.580764770508

> <r_mmod_Electrostatic_Energy-OPLS-2005>
-270.135284423828

> <r_mmod_Solvation_Energy-OPLS-2005>
-451.450561523438

> <b_mmod_Minimization_Converged-OPLS-2005>
0

> <r_mmod_RMS_Derivative-OPLS-2005>
1.29947543144226

$$$$
15
                    3D
 Structure written by MMmdl.
176184  0  0  1  0            999 V2000
  -29.7474  -15.7397   20.9342 C   0  0  0  0  0  0
  -30.2962  -13.2413   19.8000 C   0  0  0  0  0  0
  -29.5657  -12.8027   18.4763 C   0  0  0  0  0  0
  -28.1303  -12.3456   18.7910 C   0  0  0  0  0  0
  -27.5303  -13.2788   19.8591 C   0  0  2  0  0  0
  -28.4000  -13.4772   21.1159 C   0  0  0  0  0  0
  -25.1971  -13.8163   20.5580 C   0  0  0  0  0  0
  -24.1425  -13.0355   20.9164 C   0  0  0  0  0  0
  -24.6129  -11.6854   20.8726 C   0  0  0  0  0  0
  -23.8904  -10.4255   21.0446 C   0  0  0  0  0  0
  -24.3545   -9.4200   21.9190 C   0  0  0  0  0  0
  -23.6276   -8.2196   22.0772 C   0  0  0  0  0  0
  -22.4209   -8.0250   21.3586 C   0  0  0  0  0  0
  -21.9844   -9.0181   20.4626 C   0  0  0  0  0  0
  -22.7141  -10.2069   20.3053 C   0  0  0  0  0  0
  -21.6855   -6.0712   22.5271 C   0  0  0  0  0  0
  -21.4006   -6.5639   23.8194 C   0  0  0  0  0  0
  -21.3635   -5.6807   24.9178 C   0  0  0  0  0  0
  -21.6049   -4.3058   24.7239 C   0  0  0  0  0  0
  -21.8814   -3.8121   23.4365 C   0  0  0  0  0  0
  -21.9198   -4.6939   22.3418 C   0  0  0  0  0  0
  -22.7509  -13.5183   21.1856 C   0  0  0  0  0  0
  -22.1669   -4.2152   21.0989 F   0  0  0  0  0  0
  -21.5622   -3.4533   25.7742 F   0  0  0  0  0  0
  -29.5210  -14.2928   20.6938 N   0  0  0  0  0  0
  -26.2115  -12.9316   20.2811 N   0  0  0  0  0  0
  -25.8972  -11.6469   20.5509 N   0  0  0  0  0  0
  -22.0209  -12.8192   22.0454 N   0  0  0  0  0  0
  -25.3821  -15.1923   20.4275 N   0  0  0  0  0  0
  -30.8861  -15.9113   20.4156 O   0  0  0  0  0  0
  -21.6597   -6.8834   21.4238 O   0  0  0  0  0  0
  -22.3283  -14.5555   20.6719 O   0  0  0  0  0  0
  -24.8405  -31.8845   23.1090 C   0  0  0  0  0  0
  -26.0649  -32.5151   23.8024 C   0  0  1  0  0  0
  -26.1959  -27.2640   20.1353 C   0  0  0  0  0  0
  -25.6653  -33.8608   24.2097 N   0  0  0  0  0  0
  -23.8270  -30.2324   21.4951 C   0  0  2  0  0  0
  -25.2527  -29.5433   19.5331 C   0  0  0  0  0  0
  -23.7115  -28.6815   22.2278 C   0  0  0  0  0  0
  -18.1459  -27.8919   22.5390 C   0  0  0  0  0  0
  -24.1495  -36.7136   23.2602 C   0  0  0  0  0  0
  -26.2322  -30.7256   21.4703 C   0  0  0  0  0  0
  -26.2035  -29.5354   20.5496 C   0  0  0  0  0  0
  -26.8851  -28.3223   20.7580 C   0  0  0  0  0  0
  -26.1394  -27.4086   18.8021 C   0  0  0  0  0  0
  -25.3485  -28.5298   18.5281 C   0  0  0  0  0  0
  -24.0514  -30.3358   19.9096 C   0  0  0  0  0  0
  -25.4109  -36.3300   24.0423 C   0  0  1  0  0  0
  -20.8910  -27.3561   22.8459 C   0  0  2  0  0  0
  -20.5565  -26.1009   22.2355 C   0  0  0  0  0  0
  -19.4938  -26.3241   21.1844 C   0  0  0  0  0  0
  -18.1197  -26.5664   21.8077 C   0  0  0  0  0  0
  -19.3711  -28.2886   23.1499 C   0  0  0  0  0  0
  -19.0689  -29.3658   24.1371 C   0  0  0  0  0  0
  -17.8525  -30.0766   24.3412 C   0  0  0  0  0  0
  -25.9184  -34.9617   23.4966 C   0  0  0  0  0  0
  -16.7629  -29.7116   23.5836 C   0  0  0  0  0  0
  -16.9457  -28.6535   22.6707 C   0  0  0  0  0  0
  -26.4823  -31.6521   25.0622 C   0  0  0  0  0  0
  -25.2925  -31.3109   26.0123 C   0  0  0  0  0  0
  -27.1486  -30.3041   24.6865 C   0  0  0  0  0  0
  -27.5536  -32.4430   25.8424 C   0  0  0  0  0  0
  -27.5622  -37.1679   24.8471 C   0  0  0  0  0  0
  -22.5444  -27.6086   22.2684 N   0  0  0  0  0  0
  -26.4376  -37.3928   23.9377 N   0  0  0  0  0  0
  -24.9533  -30.9950   22.0893 N   0  0  0  0  0  0
  -24.4793  -28.6957   23.1054 O   0  0  0  0  0  0
  -24.7418  -27.1968   20.4022 O   0  0  0  0  0  0
  -26.5961  -34.9429   22.4719 O   0  0  0  0  0  0
  -23.7511  -32.2326   23.5472 O   0  0  0  0  0  0
  -25.3798  -24.9553   23.7963 C   0  0  0  0  0  0
  -24.7307  -26.3255   24.1397 C   0  0  0  0  0  0
  -22.8767  -25.3888   24.4869 C   0  0  0  0  0  0
  -24.9139  -23.4878   23.7168 C   0  0  0  0  0  0
  -23.5678  -23.9791   24.3025 C   0  0  0  0  0  0
  -23.2937  -26.8807   24.4979 C   0  0  0  0  0  0
  -21.5973  -29.0138   20.4478 C   0  0  0  0  0  0
  -22.7819  -22.8877   25.0547 C   0  0  0  0  0  0
  -30.3950  -18.5379   23.7126 C   0  0  0  0  0  0
  -30.6143  -16.2818   24.8477 C   0  0  0  0  0  0
  -21.6732  -31.1775   24.8969 C   0  0  0  0  0  0
  -25.6245  -21.6834   23.1188 C   0  0  0  0  0  0
  -23.0582  -27.7783   19.8043 C   0  0  0  0  0  0
  -27.1282  -20.2218   22.8141 C   0  0  0  0  0  0
  -27.8278  -18.5464   21.6977 C   0  0  0  0  0  0
  -28.7405  -16.4689   23.0960 C   0  0  0  0  0  0
  -29.6747  -17.2149   24.0993 C   0  0  0  0  0  0
  -21.2986  -29.7178   22.0158 N   0  0  0  0  0  0
  -28.8041  -16.8798   21.6866 N   0  0  0  0  0  0
  -20.8796  -29.2413   19.4646 O   0  0  0  0  0  0
  -21.9346  -29.3748   24.0607 S   0  0  1  0  0  0
  -31.3050  -13.5883   19.5991 H   0  0  0  0  0  0
  -30.4648  -12.3432   20.3858 H   0  0  0  0  0  0
  -30.1246  -12.0201   17.9810 H   0  0  0  0  0  0
  -29.5353  -13.6493   17.7883 H   0  0  0  0  0  0
  -28.1733  -11.3184   19.1610 H   0  0  0  0  0  0
  -27.5203  -12.3173   17.8950 H   0  0  0  0  0  0
  -27.4405  -14.2340   19.3502 H   0  0  0  0  0  0
  -28.6745  -12.5260   21.5842 H   0  0  0  0  0  0
  -27.8206  -14.0105   21.8892 H   0  0  0  0  0  0
  -25.2714   -9.5685   22.4776 H   0  0  0  0  0  0
  -23.9965   -7.4613   22.7531 H   0  0  0  0  0  0
  -21.0764   -8.8694   19.8963 H   0  0  0  0  0  0
  -22.3619  -10.9598   19.6147 H   0  0  0  0  0  0
  -21.1996   -7.6145   23.9714 H   0  0  0  0  0  0
  -21.1457   -6.0526   25.9085 H   0  0  0  0  0  0
  -22.0617   -2.7607   23.2848 H   0  0  0  0  0  0
  -22.3892  -11.9867   22.4743 H   0  0  0  0  0  0
  -21.0859  -13.1232   22.2670 H   0  0  0  0  0  0
  -24.6288  -15.8536   20.5522 H   0  0  0  0  0  0
  -26.2457  -15.6196   20.1267 H   0  0  0  0  0  0
  -26.9091  -32.5855   23.1066 H   0  0  0  0  0  0
  -24.9355  -33.9010   24.9260 H   0  0  0  0  0  0
  -23.0349  -31.0034   21.6803 H   0  0  0  0  0  0
  -23.3919  -35.9157   23.3298 H   0  0  0  0  0  0
  -24.3265  -36.8842   22.1943 H   0  0  0  0  0  0
  -23.6946  -37.6274   23.6544 H   0  0  0  0  0  0
  -26.5522  -31.5924   20.9035 H   0  0  0  0  0  0
  -26.9979  -30.5371   22.1973 H   0  0  0  0  0  0
  -27.5000  -28.1176   21.6226 H   0  0  0  0  0  0
  -26.2132  -26.6110   18.0942 H   0  0  0  0  0  0
  -24.8089  -28.6082   17.6015 H   0  0  0  0  0  0
  -24.3214  -31.3643   19.7337 H   0  0  0  0  0  0
  -23.2045  -30.2235   19.2114 H   0  0  0  0  0  0
  -25.1338  -36.2004   25.0890 H   0  0  0  0  0  0
  -20.9266  -26.9954   23.8672 H   0  0  0  0  0  0
  -20.1626  -25.3858   22.9777 H   0  0  0  0  0  0
  -21.4304  -25.5683   21.8450 H   0  0  0  0  0  0
  -19.8377  -27.1358   20.5317 H   0  0  0  0  0  0
  -19.5124  -25.4558   20.5248 H   0  0  0  0  0  0
  -17.3352  -26.5653   21.0195 H   0  0  0  0  0  0
  -17.9563  -25.7913   22.5757 H   0  0  0  0  0  0
  -19.6990  -29.4087   25.0196 H   0  0  0  0  0  0
  -17.7262  -30.5772   25.3154 H   0  0  0  0  0  0
  -15.7766  -30.0857   23.7813 H   0  0  0  0  0  0
  -16.0901  -28.4043   21.9959 H   0  0  0  0  0  0
  -24.5856  -30.6372   25.5178 H   0  0  0  0  0  0
  -24.7427  -32.1733   26.3308 H   0  0  0  0  0  0
  -25.5571  -30.7895   26.9339 H   0  0  0  0  0  0
  -26.4703  -29.6565   24.1136 H   0  0  0  0  0  0
  -27.4447  -29.7564   25.5615 H   0  0  0  0  0  0
  -28.0322  -30.5136   24.0994 H   0  0  0  0  0  0
  -27.1590  -33.3533   26.2670 H   0  0  0  0  0  0
  -28.3458  -32.7383   25.1917 H   0  0  0  0  0  0
  -27.9509  -31.8697   26.6740 H   0  0  0  0  0  0
  -28.2945  -37.9799   24.7903 H   0  0  0  0  0  0
  -28.0983  -36.2521   24.6074 H   0  0  0  0  0  0
  -27.2207  -37.1026   25.8821 H   0  0  0  0  0  0
  -22.7362  -26.9562   21.5170 H   0  0  0  0  0  0
  -26.0448  -38.2926   24.1507 H   0  0  0  0  0  0
  -26.4466  -24.9898   23.6292 H   0  0  0  0  0  0
  -25.4625  -27.1138   24.1013 H   0  0  0  0  0  0
  -21.8130  -25.2504   24.6709 H   0  0  0  0  0  0
  -23.0606  -22.9609   26.1002 H   0  0  0  0  0  0
  -23.0151  -21.8430   24.8418 H   0  0  0  0  0  0
  -21.6896  -23.0294   25.0254 H   0  0  0  0  0  0
  -29.7186  -19.3504   23.4744 H   0  0  0  0  0  0
  -31.1359  -18.4506   22.9146 H   0  0  0  0  0  0
  -30.9363  -18.9061   24.5909 H   0  0  0  0  0  0
  -31.1771  -16.8367   25.6011 H   0  0  0  0  0  0
  -31.3535  -15.7948   24.1965 H   0  0  0  0  0  0
  -30.0493  -15.5014   25.3680 H   0  0  0  0  0  0
  -21.8201  -31.2968   26.0067 H   0  0  0  0  0  0
  -20.6641  -31.5952   24.7843 H   0  0  0  0  0  0
  -21.7597  -32.1456   24.3383 H   0  0  0  0  0  0
  -25.0891  -21.5543   22.1756 H   0  0  0  0  0  0
  -25.0254  -21.0345   23.7911 H   0  0  0  0  0  0
  -23.1175  -27.9040   18.7158 H   0  0  0  0  0  0
  -22.5282  -26.8651   19.7251 H   0  0  0  0  0  0
  -27.3656  -19.9129   23.8525 H   0  0  0  0  0  0
  -27.9836  -20.8487   22.5486 H   0  0  0  0  0  0
  -26.8845  -18.1925   21.2871 H   0  0  0  0  0  0
  -28.2344  -19.0145   20.8172 H   0  0  0  0  0  0
  -27.7128  -16.5596   23.3976 H   0  0  0  0  0  0
  -28.9215  -15.3953   23.2031 H   0  0  0  0  0  0
  -28.9626  -17.5585   24.8512 H   0  0  0  0  0  0
  1 25  1  0  0  0
  1 30  2  0  0  0
  1 89  1  0  0  0
  2  3  1  0  0  0
  2 25  1  0  0  0
  2 92  1  0  0  0
  2 93  1  0  0  0
  3  4  1  0  0  0
  3 94  1  0  0  0
  3 95  1  0  0  0
  4  5  1  0  0  0
  4 96  1  0  0  0
  4 97  1  0  0  0
  5  6  1  0  0  0
  5 26  1  0  0  0
  5 98  1  0  0  0
  6 25  1  0  0  0
  6 99  1  0  0  0
  6100  1  0  0  0
  7  8  2  0  0  0
  7 26  1  0  0  0
  7 29  1  0  0  0
  8  9  1  0  0  0
  8 22  1  0  0  0
  9 10  1  0  0  0
  9 27  2  0  0  0
 10 11  2  0  0  0
 10 15  1  0  0  0
 11 12  1  0  0  0
 11101  1  0  0  0
 12 13  2  0  0  0
 12102  1  0  0  0
 13 14  1  0  0  0
 13 31  1  0  0  0
 14 15  2  0  0  0
 14103  1  0  0  0
 15104  1  0  0  0
 16 17  2  0  0  0
 16 21  1  0  0  0
 16 31  1  0  0  0
 17 18  1  0  0  0
 17105  1  0  0  0
 18 19  2  0  0  0
 18106  1  0  0  0
 19 20  1  0  0  0
 19 24  1  0  0  0
 20 21  2  0  0  0
 20107  1  0  0  0
 21 23  1  0  0  0
 22 28  1  0  0  0
 22 32  2  0  0  0
 26 27  1  0  0  0
 28108  1  0  0  0
 28109  1  0  0  0
 29110  1  0  0  0
 29111  1  0  0  0
 33 34  1  0  0  0
 33 66  1  0  0  0
 33 70  2  0  0  0
 34 36  1  0  0  0
 34 59  1  0  0  0
 34112  1  0  0  0
 35 44  2  0  0  0
 35 45  1  0  0  0
 35 68  1  0  0  0
 36 56  1  0  0  0
 36113  1  0  0  0
 37 39  1  0  0  0
 37 47  1  0  0  0
 37 66  1  0  0  0
 37114  1  0  0  0
 38 43  2  0  0  0
 38 46  1  0  0  0
 38 47  1  0  0  0
 39 64  1  0  0  0
 39 67  2  0  0  0
 40 52  1  0  0  0
 40 53  2  0  0  0
 40 58  1  0  0  0
 41115  1  0  0  0
 41116  1  0  0  0
 41117  1  0  0  0
 41 48  1  0  0  0
 42 43  1  0  0  0
 42 66  1  0  0  0
 42118  1  0  0  0
 42119  1  0  0  0
 43 44  1  0  0  0
 44120  1  0  0  0
 45 46  2  0  0  0
 45121  1  0  0  0
 46122  1  0  0  0
 47123  1  0  0  0
 47124  1  0  0  0
 48 56  1  0  0  0
 48 65  1  0  0  0
 48125  1  0  0  0
 49 50  1  0  0  0
 49 53  1  0  0  0
 49 64  1  0  0  0
 49126  1  0  0  0
 50 51  1  0  0  0
 50127  1  0  0  0
 50128  1  0  0  0
 51 52  1  0  0  0
 51129  1  0  0  0
 51130  1  0  0  0
 52131  1  0  0  0
 52132  1  0  0  0
 53 54  1  0  0  0
 54 55  2  0  0  0
 54133  1  0  0  0
 55 57  1  0  0  0
 55134  1  0  0  0
 56 69  2  0  0  0
 57 58  2  0  0  0
 57135  1  0  0  0
 58136  1  0  0  0
 59 60  1  0  0  0
 59 61  1  0  0  0
 59 62  1  0  0  0
 60137  1  0  0  0
 60138  1  0  0  0
 60139  1  0  0  0
 61140  1  0  0  0
 61141  1  0  0  0
 61142  1  0  0  0
 62143  1  0  0  0
 62144  1  0  0  0
 62145  1  0  0  0
 63 65  1  0  0  0
 63146  1  0  0  0
 63147  1  0  0  0
 63148  1  0  0  0
 64149  1  0  0  0
 65150  1  0  0  0
 68 83  1  0  0  0
 71 72  2  0  0  0
 71 74  1  0  0  0
 71151  1  0  0  0
 72 76  1  0  0  0
 72152  1  0  0  0
 73 75  1  0  0  0
 73 76  2  0  0  0
 73153  1  0  0  0
 74 75  2  0  0  0
 74 82  1  0  0  0
 75 78  1  0  0  0
 76 91  1  0  0  0
 77 83  1  0  0  0
 77 88  1  0  0  0
 77 90  2  0  0  0
 78154  1  0  0  0
 78155  1  0  0  0
 78156  1  0  0  0
 79157  1  0  0  0
 79158  1  0  0  0
 79159  1  0  0  0
 79 87  1  0  0  0
 80 87  1  0  0  0
 80160  1  0  0  0
 80161  1  0  0  0
 80162  1  0  0  0
 81 91  1  0  0  0
 81163  1  0  0  0
 81164  1  0  0  0
 81165  1  0  0  0
 82 84  1  0  0  0
 82166  1  0  0  0
 82167  1  0  0  0
 83168  1  0  0  0
 83169  1  0  0  0
 84 85  1  0  0  0
 84170  1  0  0  0
 84171  1  0  0  0
 85 89  1  0  0  0
 85172  1  0  0  0
 85173  1  0  0  0
 86 87  1  0  0  0
 86 89  1  0  0  0
 86174  1  0  0  0
 86175  1  0  0  0
 87176  1  0  0  0
 88 91  2  0  0  0
M  ISO  4   1 100  68 101  83 101  89 100
M  END
> <chiral flag>
0

> <version>
0

> <s_m_source_file>
/data/baiqing/PycharmProjects/Reinvent-master-3.2/result/LINK_invent/BTK/process_docking_weight1_custom_product_contain_oxygen_bond_distance_aromatic_linkinvent_7_9_3/rearranged_h_0029.sdf

> <i_m_source_file_index>
16

> <r_mmod_Potential_Energy-OPLS-2005>
13079.908203125

> <r_mmod_Stretch_Energy-OPLS-2005>
4866.4521484375

> <r_mmod_Bend_Energy-OPLS-2005>
2205.61645507812

> <r_mmod_Torsional_Energy-OPLS-2005>
818.343383789062

> <r_mmod_Improper_Torsional_Energy-OPLS-2005>
74.8339233398438

> <r_mmod_Van_der_Waal_Energy-OPLS-2005>
1535.98596191406

> <r_mmod_Electrostatic_Energy-OPLS-2005>
-278.403259277344

> <r_mmod_Solvation_Energy-OPLS-2005>
-180.153900146484

> <b_mmod_Minimization_Converged-OPLS-2005>
0

> <r_mmod_RMS_Derivative-OPLS-2005>
67.7931976318359

$$$$
16
                    3D
 Structure written by MMmdl.
156165  0  0  1  0            999 V2000
  -30.5115  -14.9040   20.4378 C   0  0  0  0  0  0
  -30.4549  -12.5563   19.4880 C   0  0  0  0  0  0
  -29.5253  -12.5299   18.2504 C   0  0  0  0  0  0
  -28.0546  -12.3217   18.6644 C   0  0  0  0  0  0
  -27.6390  -13.2347   19.8467 C   0  0  2  0  0  0
  -28.6839  -13.2067   20.9838 C   0  0  0  0  0  0
  -25.2502  -13.8182   20.5682 C   0  0  0  0  0  0
  -24.1806  -13.0431   20.9231 C   0  0  0  0  0  0
  -24.6400  -11.6910   20.8756 C   0  0  0  0  0  0
  -23.9072  -10.4288   21.0411 C   0  0  0  0  0  0
  -24.3620   -9.4201   21.9187 C   0  0  0  0  0  0
  -23.6293   -8.2239   22.0753 C   0  0  0  0  0  0
  -22.4275   -8.0279   21.3544 C   0  0  0  0  0  0
  -21.9913   -9.0255   20.4646 C   0  0  0  0  0  0
  -22.7245  -10.2132   20.3058 C   0  0  0  0  0  0
  -21.6854   -6.0733   22.5277 C   0  0  0  0  0  0
  -21.4015   -6.5636   23.8210 C   0  0  0  0  0  0
  -21.3660   -5.6790   24.9173 C   0  0  0  0  0  0
  -21.6044   -4.3053   24.7224 C   0  0  0  0  0  0
  -21.8820   -3.8144   23.4346 C   0  0  0  0  0  0
  -21.9193   -4.6960   22.3402 C   0  0  0  0  0  0
  -22.7826  -13.5216   21.1880 C   0  0  0  0  0  0
  -22.1662   -4.2146   21.0980 F   0  0  0  0  0  0
  -21.5629   -3.4537   25.7737 F   0  0  0  0  0  0
  -29.9687  -13.6241   20.4021 N   0  0  0  0  0  0
  -26.2924  -12.9390   20.3247 N   0  0  0  0  0  0
  -25.9329  -11.6534   20.5739 N   0  0  0  0  0  0
  -22.0467  -12.8207   22.0433 N   0  0  0  0  0  0
  -25.4167  -15.1901   20.4026 N   0  0  0  0  0  0
  -31.7000  -15.0481   20.1288 O   0  0  0  0  0  0
  -21.6639   -6.8876   21.4239 O   0  0  0  0  0  0
  -22.3513  -14.5519   20.6718 O   0  0  0  0  0  0
  -24.6416  -31.8460   23.1900 C   0  0  0  0  0  0
  -25.9196  -32.4708   23.8285 C   0  0  1  0  0  0
  -27.2208  -27.1565   20.1522 C   0  0  0  0  0  0
  -25.5949  -33.8513   24.2203 N   0  0  0  0  0  0
  -23.4446  -30.4655   21.5357 C   0  0  2  0  0  0
  -24.8948  -28.8941   20.1142 C   0  0  0  0  0  0
  -22.7560  -29.4556   22.4873 C   0  0  0  0  0  0
  -18.0304  -28.1399   22.8481 C   0  0  0  0  0  0
  -24.1489  -36.7260   23.2643 C   0  0  0  0  0  0
  -25.9991  -30.7262   21.3864 C   0  0  0  0  0  0
  -26.0717  -29.3382   20.7306 C   0  0  0  0  0  0
  -27.2372  -28.4860   20.7317 C   0  0  0  0  0  0
  -26.0205  -26.8127   19.4924 C   0  0  0  0  0  0
  -24.8806  -27.6436   19.4798 C   0  0  0  0  0  0
  -23.6707  -29.7942   20.1554 C   0  0  0  0  0  0
  -25.4121  -36.3042   24.0318 C   0  0  1  0  0  0
  -20.5916  -28.3721   23.1243 C   0  0  2  0  0  0
  -20.6785  -26.9427   22.5406 C   0  0  0  0  0  0
  -19.5757  -26.6387   21.5215 C   0  0  0  0  0  0
  -18.1940  -26.7938   22.1628 C   0  0  0  0  0  0
  -19.1560  -28.8879   23.2854 C   0  0  0  0  0  0
  -18.9475  -30.1474   23.8880 C   0  0  0  0  0  0
  -17.6472  -30.6594   24.0562 C   0  0  0  0  0  0
  -25.9068  -34.9415   23.5068 C   0  0  0  0  0  0
  -16.5363  -29.9086   23.6338 C   0  0  0  0  0  0
  -16.7288  -28.6506   23.0358 C   0  0  0  0  0  0
  -26.4521  -31.6567   25.0717 C   0  0  0  0  0  0
  -25.3710  -31.3751   26.1416 C   0  0  0  0  0  0
  -27.0385  -30.2966   24.6283 C   0  0  0  0  0  0
  -27.6053  -32.4331   25.7506 C   0  0  0  0  0  0
  -27.5574  -37.1792   24.8468 C   0  0  0  0  0  0
  -21.4255  -29.3049   22.3618 N   0  0  0  0  0  0
  -26.4289  -37.3752   23.9406 N   0  0  0  0  0  0
  -24.7149  -31.0333   22.0928 N   0  0  0  0  0  0
  -23.4209  -28.8105   23.3020 O   0  0  0  0  0  0
  -28.2841  -26.1858   20.1871 O   0  0  0  0  0  0
  -26.5654  -34.8908   22.4647 O   0  0  0  0  0  0
  -23.5539  -32.1329   23.7130 O   0  0  0  0  0  0
  -30.2823  -19.9582   20.4067 C   0  0  0  0  0  0
  -30.5477  -18.5153   20.3967 C   0  0  0  0  0  0
  -28.2457  -18.1176   20.6855 C   0  0  0  0  0  0
  -28.9809  -20.5604   20.5761 C   0  0  0  0  0  0
  -29.5332  -17.5059   20.5608 C   0  0  0  0  0  0
  -27.9752  -19.5364   20.6885 C   0  0  0  0  0  0
  -27.3408  -23.2696   22.5219 C   0  0  0  0  0  0
  -27.7701  -24.6615   22.0236 C   0  0  0  0  0  0
  -28.4082  -22.1921   22.2599 C   0  0  0  0  0  0
  -28.9745  -23.3544   20.1484 C   0  0  0  0  0  0
  -28.0111  -24.6886   20.5036 C   0  0  2  0  0  0
  -28.6486  -21.9957   20.8281 N   0  0  0  0  0  0
  -29.6204  -15.9796   20.6517 N   0  0  0  0  0  0
  -26.3174  -20.0019   20.8719 Cl  0  0  0  0  0  0
  -31.4860  -12.7311   19.1768 H   0  0  0  0  0  0
  -30.4544  -11.5897   19.9942 H   0  0  0  0  0  0
  -29.8349  -11.7432   17.5610 H   0  0  0  0  0  0
  -29.6202  -13.4696   17.7038 H   0  0  0  0  0  0
  -27.9377  -11.2757   18.9505 H   0  0  0  0  0  0
  -27.3940  -12.4797   17.8112 H   0  0  0  0  0  0
  -27.6178  -14.2469   19.4431 H   0  0  0  0  0  0
  -28.7597  -12.2088   21.4185 H   0  0  0  0  0  0
  -28.3891  -13.8700   21.7985 H   0  0  0  0  0  0
  -25.2764   -9.5678   22.4763 H   0  0  0  0  0  0
  -24.0001   -7.4629   22.7472 H   0  0  0  0  0  0
  -21.0844   -8.8776   19.8952 H   0  0  0  0  0  0
  -22.3703  -10.9673   19.6169 H   0  0  0  0  0  0
  -21.2007   -7.6144   23.9712 H   0  0  0  0  0  0
  -21.1482   -6.0520   25.9076 H   0  0  0  0  0  0
  -22.0598   -2.7606   23.2848 H   0  0  0  0  0  0
  -22.4085  -11.9873   22.4829 H   0  0  0  0  0  0
  -21.1081  -13.1224   22.2627 H   0  0  0  0  0  0
  -24.6306  -15.8264   20.4793 H   0  0  0  0  0  0
  -26.2188  -15.6079   19.9516 H   0  0  0  0  0  0
  -26.7262  -32.5326   23.1016 H   0  0  0  0  0  0
  -25.0074  -33.9628   25.0335 H   0  0  0  0  0  0
  -22.7460  -31.2906   21.3816 H   0  0  0  0  0  0
  -23.3754  -35.9591   23.3306 H   0  0  0  0  0  0
  -24.3570  -36.8889   22.2056 H   0  0  0  0  0  0
  -23.7242  -37.6457   23.6675 H   0  0  0  0  0  0
  -26.1507  -31.4802   20.6128 H   0  0  0  0  0  0
  -26.8708  -30.7787   22.0269 H   0  0  0  0  0  0
  -28.1352  -28.8226   21.2301 H   0  0  0  0  0  0
  -25.9381  -25.8666   18.9795 H   0  0  0  0  0  0
  -23.9851  -27.3016   18.9794 H   0  0  0  0  0  0
  -23.8059  -30.5678   19.3987 H   0  0  0  0  0  0
  -22.7864  -29.2343   19.8460 H   0  0  0  0  0  0
  -25.1309  -36.1879   25.0811 H   0  0  0  0  0  0
  -21.0007  -28.3310   24.1365 H   0  0  0  0  0  0
  -20.5679  -26.2334   23.3623 H   0  0  0  0  0  0
  -21.6651  -26.7433   22.1205 H   0  0  0  0  0  0
  -19.6913  -25.6293   21.1256 H   0  0  0  0  0  0
  -19.6693  -27.3187   20.6735 H   0  0  0  0  0  0
  -17.4208  -26.6688   21.4034 H   0  0  0  0  0  0
  -18.0338  -26.0083   22.9029 H   0  0  0  0  0  0
  -19.7949  -30.7298   24.2241 H   0  0  0  0  0  0
  -17.5023  -31.6272   24.5167 H   0  0  0  0  0  0
  -15.5361  -30.2981   23.7670 H   0  0  0  0  0  0
  -15.8690  -28.0816   22.7085 H   0  0  0  0  0  0
  -24.5895  -30.7091   25.7739 H   0  0  0  0  0  0
  -24.8889  -32.2928   26.4793 H   0  0  0  0  0  0
  -25.7998  -30.8959   27.0226 H   0  0  0  0  0  0
  -26.2999  -29.6695   24.1275 H   0  0  0  0  0  0
  -27.3988  -29.7259   25.4852 H   0  0  0  0  0  0
  -27.8910  -30.4207   23.9603 H   0  0  0  0  0  0
  -27.2643  -33.3644   26.2041 H   0  0  0  0  0  0
  -28.3888  -32.6873   25.0355 H   0  0  0  0  0  0
  -28.0693  -31.8484   26.5460 H   0  0  0  0  0  0
  -28.2599  -38.0081   24.7499 H   0  0  0  0  0  0
  -28.1062  -36.2610   24.6318 H   0  0  0  0  0  0
  -27.2287  -37.1470   25.8871 H   0  0  0  0  0  0
  -20.9464  -29.8764   21.6800 H   0  0  0  0  0  0
  -26.0159  -38.2825   24.1396 H   0  0  0  0  0  0
  -31.1329  -20.6195   20.3320 H   0  0  0  0  0  0
  -31.5739  -18.1924   20.2912 H   0  0  0  0  0  0
  -27.3912  -17.4695   20.8085 H   0  0  0  0  0  0
  -26.3969  -22.9807   22.0572 H   0  0  0  0  0  0
  -27.1453  -23.3215   23.5936 H   0  0  0  0  0  0
  -28.6792  -24.9698   22.5409 H   0  0  0  0  0  0
  -27.0017  -25.3864   22.2934 H   0  0  0  0  0  0
  -28.0916  -21.2658   22.7431 H   0  0  0  0  0  0
  -29.3459  -22.4729   22.7430 H   0  0  0  0  0  0
  -30.0028  -23.6017   20.4148 H   0  0  0  0  0  0
  -28.9821  -23.2042   19.0682 H   0  0  0  0  0  0
  -27.0606  -24.4342   20.0403 H   0  0  0  0  0  0
  -28.7236  -15.5802   20.8811 H   0  0  0  0  0  0
  1 25  1  0  0  0
  1 30  2  0  0  0
  1 83  1  0  0  0
  2  3  1  0  0  0
  2 25  1  0  0  0
  2 85  1  0  0  0
  2 86  1  0  0  0
  3  4  1  0  0  0
  3 87  1  0  0  0
  3 88  1  0  0  0
  4  5  1  0  0  0
  4 89  1  0  0  0
  4 90  1  0  0  0
  5  6  1  0  0  0
  5 26  1  0  0  0
  5 91  1  0  0  0
  6 25  1  0  0  0
  6 92  1  0  0  0
  6 93  1  0  0  0
  7  8  2  0  0  0
  7 26  1  0  0  0
  7 29  1  0  0  0
  8  9  1  0  0  0
  8 22  1  0  0  0
  9 10  1  0  0  0
  9 27  2  0  0  0
 10 11  2  0  0  0
 10 15  1  0  0  0
 11 12  1  0  0  0
 11 94  1  0  0  0
 12 13  2  0  0  0
 12 95  1  0  0  0
 13 14  1  0  0  0
 13 31  1  0  0  0
 14 15  2  0  0  0
 14 96  1  0  0  0
 15 97  1  0  0  0
 16 17  2  0  0  0
 16 21  1  0  0  0
 16 31  1  0  0  0
 17 18  1  0  0  0
 17 98  1  0  0  0
 18 19  2  0  0  0
 18 99  1  0  0  0
 19 20  1  0  0  0
 19 24  1  0  0  0
 20 21  2  0  0  0
 20100  1  0  0  0
 21 23  1  0  0  0
 22 28  1  0  0  0
 22 32  2  0  0  0
 26 27  1  0  0  0
 28101  1  0  0  0
 28102  1  0  0  0
 29103  1  0  0  0
 29104  1  0  0  0
 33 34  1  0  0  0
 33 66  1  0  0  0
 33 70  2  0  0  0
 34 36  1  0  0  0
 34 59  1  0  0  0
 34105  1  0  0  0
 35 44  2  0  0  0
 35 45  1  0  0  0
 35 68  1  0  0  0
 36 56  1  0  0  0
 36106  1  0  0  0
 37 39  1  0  0  0
 37 47  1  0  0  0
 37 66  1  0  0  0
 37107  1  0  0  0
 38 43  2  0  0  0
 38 46  1  0  0  0
 38 47  1  0  0  0
 39 64  1  0  0  0
 39 67  2  0  0  0
 40 52  1  0  0  0
 40 53  2  0  0  0
 40 58  1  0  0  0
 41108  1  0  0  0
 41109  1  0  0  0
 41110  1  0  0  0
 41 48  1  0  0  0
 42 43  1  0  0  0
 42 66  1  0  0  0
 42111  1  0  0  0
 42112  1  0  0  0
 43 44  1  0  0  0
 44113  1  0  0  0
 45 46  2  0  0  0
 45114  1  0  0  0
 46115  1  0  0  0
 47116  1  0  0  0
 47117  1  0  0  0
 48 56  1  0  0  0
 48 65  1  0  0  0
 48118  1  0  0  0
 49 50  1  0  0  0
 49 53  1  0  0  0
 49 64  1  0  0  0
 49119  1  0  0  0
 50 51  1  0  0  0
 50120  1  0  0  0
 50121  1  0  0  0
 51 52  1  0  0  0
 51122  1  0  0  0
 51123  1  0  0  0
 52124  1  0  0  0
 52125  1  0  0  0
 53 54  1  0  0  0
 54 55  2  0  0  0
 54126  1  0  0  0
 55 57  1  0  0  0
 55127  1  0  0  0
 56 69  2  0  0  0
 57 58  2  0  0  0
 57128  1  0  0  0
 58129  1  0  0  0
 59 60  1  0  0  0
 59 61  1  0  0  0
 59 62  1  0  0  0
 60130  1  0  0  0
 60131  1  0  0  0
 60132  1  0  0  0
 61133  1  0  0  0
 61134  1  0  0  0
 61135  1  0  0  0
 62136  1  0  0  0
 62137  1  0  0  0
 62138  1  0  0  0
 63 65  1  0  0  0
 63139  1  0  0  0
 63140  1  0  0  0
 63141  1  0  0  0
 64142  1  0  0  0
 65143  1  0  0  0
 68 81  1  0  0  0
 71 72  2  0  0  0
 71 74  1  0  0  0
 71144  1  0  0  0
 72 75  1  0  0  0
 72145  1  0  0  0
 73 75  2  0  0  0
 73 76  1  0  0  0
 73146  1  0  0  0
 74 76  2  0  0  0
 74 82  1  0  0  0
 75 83  1  0  0  0
 76 84  1  0  0  0
 77 78  1  0  0  0
 77 79  1  0  0  0
 77147  1  0  0  0
 77148  1  0  0  0
 78 81  1  0  0  0
 78149  1  0  0  0
 78150  1  0  0  0
 79 82  1  0  0  0
 79151  1  0  0  0
 79152  1  0  0  0
 80 81  1  0  0  0
 80 82  1  0  0  0
 80153  1  0  0  0
 80154  1  0  0  0
 81155  1  0  0  0
 83156  1  0  0  0
M  ISO  4   1 100  68 101  81 101  83 100
M  END
> <chiral flag>
0

> <version>
0

> <s_m_source_file>
/data/baiqing/PycharmProjects/Reinvent-master-3.2/result/LINK_invent/BTK/process_docking_weight1_custom_product_contain_oxygen_bond_distance_aromatic_linkinvent_7_9_3/rearranged_h_0029.sdf

> <i_m_source_file_index>
17

> <r_mmod_Potential_Energy-OPLS-2005>
521.648193359375

> <r_mmod_Stretch_Energy-OPLS-2005>
214.237091064453

> <r_mmod_Bend_Energy-OPLS-2005>
276.441070556641

> <r_mmod_Torsional_Energy-OPLS-2005>
271.052734375

> <r_mmod_Improper_Torsional_Energy-OPLS-2005>
7.61293649673462

> <r_mmod_Van_der_Waal_Energy-OPLS-2005>
133.542739868164

> <r_mmod_Electrostatic_Energy-OPLS-2005>
-334.583435058594

> <r_mmod_Solvation_Energy-OPLS-2005>
-214.583938598633

> <b_mmod_Minimization_Converged-OPLS-2005>
0

> <r_mmod_RMS_Derivative-OPLS-2005>
0.37009197473526

$$$$
17
                    3D
 Structure written by MMmdl.
161170  0  0  1  0            999 V2000
  -30.6865  -14.4943   20.6022 C   0  0  0  0  0  0
  -30.4387  -12.3336   19.4167 C   0  0  0  0  0  0
  -29.4999  -12.5225   18.2055 C   0  0  0  0  0  0
  -28.0204  -12.3747   18.6171 C   0  0  0  0  0  0
  -27.6660  -13.2044   19.8796 C   0  0  2  0  0  0
  -28.7107  -12.9692   20.9951 C   0  0  0  0  0  0
  -25.2620  -13.8140   20.5694 C   0  0  0  0  0  0
  -24.1857  -13.0431   20.9182 C   0  0  0  0  0  0
  -24.6392  -11.6893   20.8736 C   0  0  0  0  0  0
  -23.9049  -10.4286   21.0394 C   0  0  0  0  0  0
  -24.3608   -9.4204   21.9172 C   0  0  0  0  0  0
  -23.6294   -8.2232   22.0740 C   0  0  0  0  0  0
  -22.4272   -8.0263   21.3537 C   0  0  0  0  0  0
  -21.9901   -9.0232   20.4632 C   0  0  0  0  0  0
  -22.7221  -10.2116   20.3043 C   0  0  0  0  0  0
  -21.6847   -6.0738   22.5283 C   0  0  0  0  0  0
  -21.4003   -6.5641   23.8210 C   0  0  0  0  0  0
  -21.3659   -5.6793   24.9179 C   0  0  0  0  0  0
  -21.6048   -4.3059   24.7227 C   0  0  0  0  0  0
  -21.8818   -3.8151   23.4342 C   0  0  0  0  0  0
  -21.9188   -4.6967   22.3406 C   0  0  0  0  0  0
  -22.7880  -13.5239   21.1849 C   0  0  0  0  0  0
  -22.1661   -4.2152   21.0978 F   0  0  0  0  0  0
  -21.5636   -3.4538   25.7737 F   0  0  0  0  0  0
  -30.0410  -13.3022   20.4510 N   0  0  0  0  0  0
  -26.3048  -12.9304   20.3380 N   0  0  0  0  0  0
  -25.9325  -11.6465   20.5762 N   0  0  0  0  0  0
  -22.0502  -12.8230   22.0396 N   0  0  0  0  0  0
  -25.4393  -15.1856   20.4113 N   0  0  0  0  0  0
  -31.8027  -14.7130   20.1234 O   0  0  0  0  0  0
  -21.6636   -6.8868   21.4236 O   0  0  0  0  0  0
  -22.3579  -14.5555   20.6707 O   0  0  0  0  0  0
  -24.6192  -31.8664   23.2093 C   0  0  0  0  0  0
  -25.9077  -32.4815   23.8387 C   0  0  1  0  0  0
  -27.2297  -27.4058   20.1029 C   0  0  0  0  0  0
  -25.5915  -33.8612   24.2317 N   0  0  0  0  0  0
  -23.4081  -30.4931   21.5498 C   0  0  2  0  0  0
  -24.8502  -28.9609   20.1140 C   0  0  0  0  0  0
  -22.7442  -29.4666   22.4969 C   0  0  0  0  0  0
  -18.0279  -28.1386   22.8489 C   0  0  0  0  0  0
  -24.1484  -36.7310   23.2635 C   0  0  0  0  0  0
  -25.9405  -30.8259   21.3669 C   0  0  0  0  0  0
  -26.0144  -29.4601   20.7108 C   0  0  0  0  0  0
  -27.2045  -28.6916   20.7021 C   0  0  0  0  0  0
  -26.0396  -26.9392   19.4887 C   0  0  0  0  0  0
  -24.8585  -27.7004   19.4999 C   0  0  0  0  0  0
  -23.6174  -29.8321   20.1621 C   0  0  0  0  0  0
  -25.4110  -36.3110   24.0334 C   0  0  1  0  0  0
  -20.5878  -28.3680   23.1301 C   0  0  2  0  0  0
  -20.6767  -26.9414   22.5414 C   0  0  0  0  0  0
  -19.5749  -26.6394   21.5209 C   0  0  0  0  0  0
  -18.1921  -26.7941   22.1607 C   0  0  0  0  0  0
  -19.1532  -28.8850   23.2894 C   0  0  0  0  0  0
  -18.9459  -30.1452   23.8909 C   0  0  0  0  0  0
  -17.6463  -30.6587   24.0574 C   0  0  0  0  0  0
  -25.9041  -34.9477   23.5128 C   0  0  0  0  0  0
  -16.5349  -29.9092   23.6333 C   0  0  0  0  0  0
  -16.7270  -28.6510   23.0348 C   0  0  0  0  0  0
  -26.4479  -31.6602   25.0732 C   0  0  0  0  0  0
  -25.3749  -31.3745   26.1499 C   0  0  0  0  0  0
  -27.0280  -30.3025   24.6146 C   0  0  0  0  0  0
  -27.6075  -32.4312   25.7478 C   0  0  0  0  0  0
  -27.5587  -37.1806   24.8457 C   0  0  0  0  0  0
  -21.4168  -29.3043   22.3704 N   0  0  0  0  0  0
  -26.4285  -37.3808   23.9416 N   0  0  0  0  0  0
  -24.6746  -31.0770   22.0997 N   0  0  0  0  0  0
  -23.4208  -28.8214   23.3023 O   0  0  0  0  0  0
  -28.3915  -26.6432   20.1528 O   0  0  0  0  0  0
  -26.5600  -34.8934   22.4682 O   0  0  0  0  0  0
  -23.5376  -32.1410   23.7484 O   0  0  0  0  0  0
  -31.4218  -18.9350   21.5711 C   0  0  0  0  0  0
  -31.3605  -17.5342   21.3599 C   0  0  0  0  0  0
  -28.9404  -17.6570   21.3916 C   0  0  0  0  0  0
  -30.2454  -19.7133   21.7129 C   0  0  0  0  0  0
  -30.1119  -16.8707   21.2907 C   0  0  0  0  0  0
  -28.9976  -19.0560   21.5848 C   0  0  0  0  0  0
  -29.2780  -23.1556   21.0175 C   0  0  0  0  0  0
  -31.9788  -24.0101   20.6975 C   0  0  0  0  0  0
  -30.8645  -25.0103   20.2882 C   0  0  0  0  0  0
  -31.5684  -22.5374   20.4603 C   0  0  0  0  0  0
  -29.5097  -24.3169   20.0074 C   0  0  2  0  0  0
  -30.3377  -21.1862   22.1654 C   0  0  0  0  0  0
  -28.3048  -25.2700   19.7099 C   0  0  0  0  0  0
  -30.2931  -22.2519   21.1369 N   0  0  0  0  0  0
  -29.9488  -15.4464   21.2148 N   0  0  0  0  0  0
  -28.2380  -23.0971   21.6789 O   0  0  0  0  0  0
  -27.5098  -19.9213   21.7286 Cl  0  0  0  0  0  0
  -31.4804  -12.4591   19.1143 H   0  0  0  0  0  0
  -30.3654  -11.3184   19.8084 H   0  0  0  0  0  0
  -29.7445  -11.8035   17.4226 H   0  0  0  0  0  0
  -29.6563  -13.5113   17.7713 H   0  0  0  0  0  0
  -27.8299  -11.3173   18.8041 H   0  0  0  0  0  0
  -27.3678  -12.6559   17.7900 H   0  0  0  0  0  0
  -27.7113  -14.2549   19.5931 H   0  0  0  0  0  0
  -28.6981  -11.9223   21.3017 H   0  0  0  0  0  0
  -28.4626  -13.5319   21.8963 H   0  0  0  0  0  0
  -25.2746   -9.5694   22.4763 H   0  0  0  0  0  0
  -24.0003   -7.4628   22.7468 H   0  0  0  0  0  0
  -21.0823   -8.8737   19.8951 H   0  0  0  0  0  0
  -22.3655  -10.9657   19.6164 H   0  0  0  0  0  0
  -21.1978   -7.6151   23.9721 H   0  0  0  0  0  0
  -21.1493   -6.0523   25.9086 H   0  0  0  0  0  0
  -22.0600   -2.7613   23.2829 H   0  0  0  0  0  0
  -22.4099  -11.9867   22.4762 H   0  0  0  0  0  0
  -21.1127  -13.1262   22.2599 H   0  0  0  0  0  0
  -24.6746  -15.8430   20.5197 H   0  0  0  0  0  0
  -26.2854  -15.6180   20.0634 H   0  0  0  0  0  0
  -26.7163  -32.5526   23.1162 H   0  0  0  0  0  0
  -25.0082  -33.9744   25.0477 H   0  0  0  0  0  0
  -22.6997  -31.3121   21.4124 H   0  0  0  0  0  0
  -23.3767  -35.9618   23.3251 H   0  0  0  0  0  0
  -24.3601  -36.8960   22.2057 H   0  0  0  0  0  0
  -23.7182  -37.6481   23.6675 H   0  0  0  0  0  0
  -26.0626  -31.5975   20.6053 H   0  0  0  0  0  0
  -26.8232  -30.8686   21.9928 H   0  0  0  0  0  0
  -28.0981  -29.0770   21.1729 H   0  0  0  0  0  0
  -25.9836  -25.9826   18.9912 H   0  0  0  0  0  0
  -23.9642  -27.3127   19.0301 H   0  0  0  0  0  0
  -23.7384  -30.6091   19.4068 H   0  0  0  0  0  0
  -22.7393  -29.2600   19.8571 H   0  0  0  0  0  0
  -25.1294  -36.1961   25.0827 H   0  0  0  0  0  0
  -20.9946  -28.3234   24.1430 H   0  0  0  0  0  0
  -20.5643  -26.2297   23.3610 H   0  0  0  0  0  0
  -21.6638  -26.7443   22.1209 H   0  0  0  0  0  0
  -19.6905  -25.6306   21.1227 H   0  0  0  0  0  0
  -19.6693  -27.3205   20.6738 H   0  0  0  0  0  0
  -17.4203  -26.6712   21.3999 H   0  0  0  0  0  0
  -18.0303  -26.0074   22.8986 H   0  0  0  0  0  0
  -19.7943  -30.7255   24.2268 H   0  0  0  0  0  0
  -17.5027  -31.6263   24.5174 H   0  0  0  0  0  0
  -15.5350  -30.2998   23.7650 H   0  0  0  0  0  0
  -15.8672  -28.0832   22.7052 H   0  0  0  0  0  0
  -24.5882  -30.7123   25.7849 H   0  0  0  0  0  0
  -24.8999  -32.2919   26.4995 H   0  0  0  0  0  0
  -25.8100  -30.8876   27.0234 H   0  0  0  0  0  0
  -26.2803  -29.6789   24.1227 H   0  0  0  0  0  0
  -27.4025  -29.7269   25.4617 H   0  0  0  0  0  0
  -27.8663  -30.4304   23.9299 H   0  0  0  0  0  0
  -27.2741  -33.3659   26.2002 H   0  0  0  0  0  0
  -28.3912  -32.6773   25.0300 H   0  0  0  0  0  0
  -28.0703  -31.8453   26.5432 H   0  0  0  0  0  0
  -28.2595  -38.0117   24.7533 H   0  0  0  0  0  0
  -28.1091  -36.2651   24.6243 H   0  0  0  0  0  0
  -27.2321  -37.1380   25.8862 H   0  0  0  0  0  0
  -20.9341  -29.8791   21.6936 H   0  0  0  0  0  0
  -26.0178  -38.2876   24.1461 H   0  0  0  0  0  0
  -32.3903  -19.4028   21.6828 H   0  0  0  0  0  0
  -32.2829  -16.9737   21.3074 H   0  0  0  0  0  0
  -27.9697  -17.1861   21.3505 H   0  0  0  0  0  0
  -32.1934  -24.1293   21.7624 H   0  0  0  0  0  0
  -32.9129  -24.2409   20.1838 H   0  0  0  0  0  0
  -31.1723  -25.5449   19.3899 H   0  0  0  0  0  0
  -30.7489  -25.7687   21.0650 H   0  0  0  0  0  0
  -32.3606  -21.8700   20.8027 H   0  0  0  0  0  0
  -31.4587  -22.3420   19.3920 H   0  0  0  0  0  0
  -29.6396  -23.7834   19.0654 H   0  0  0  0  0  0
  -31.2700  -21.3055   22.7204 H   0  0  0  0  0  0
  -29.5739  -21.3556   22.9260 H   0  0  0  0  0  0
  -27.3990  -24.8103   20.1076 H   0  0  0  0  0  0
  -28.1725  -25.3022   18.6268 H   0  0  0  0  0  0
  -29.0500  -15.1029   21.5152 H   0  0  0  0  0  0
  1 25  1  0  0  0
  1 30  2  0  0  0
  1 85  1  0  0  0
  2  3  1  0  0  0
  2 25  1  0  0  0
  2 88  1  0  0  0
  2 89  1  0  0  0
  3  4  1  0  0  0
  3 90  1  0  0  0
  3 91  1  0  0  0
  4  5  1  0  0  0
  4 92  1  0  0  0
  4 93  1  0  0  0
  5  6  1  0  0  0
  5 26  1  0  0  0
  5 94  1  0  0  0
  6 25  1  0  0  0
  6 95  1  0  0  0
  6 96  1  0  0  0
  7  8  2  0  0  0
  7 26  1  0  0  0
  7 29  1  0  0  0
  8  9  1  0  0  0
  8 22  1  0  0  0
  9 10  1  0  0  0
  9 27  2  0  0  0
 10 11  2  0  0  0
 10 15  1  0  0  0
 11 12  1  0  0  0
 11 97  1  0  0  0
 12 13  2  0  0  0
 12 98  1  0  0  0
 13 14  1  0  0  0
 13 31  1  0  0  0
 14 15  2  0  0  0
 14 99  1  0  0  0
 15100  1  0  0  0
 16 17  2  0  0  0
 16 21  1  0  0  0
 16 31  1  0  0  0
 17 18  1  0  0  0
 17101  1  0  0  0
 18 19  2  0  0  0
 18102  1  0  0  0
 19 20  1  0  0  0
 19 24  1  0  0  0
 20 21  2  0  0  0
 20103  1  0  0  0
 21 23  1  0  0  0
 22 28  1  0  0  0
 22 32  2  0  0  0
 26 27  1  0  0  0
 28104  1  0  0  0
 28105  1  0  0  0
 29106  1  0  0  0
 29107  1  0  0  0
 33 34  1  0  0  0
 33 66  1  0  0  0
 33 70  2  0  0  0
 34 36  1  0  0  0
 34 59  1  0  0  0
 34108  1  0  0  0
 35 44  2  0  0  0
 35 45  1  0  0  0
 35 68  1  0  0  0
 36 56  1  0  0  0
 36109  1  0  0  0
 37 39  1  0  0  0
 37 47  1  0  0  0
 37 66  1  0  0  0
 37110  1  0  0  0
 38 43  2  0  0  0
 38 46  1  0  0  0
 38 47  1  0  0  0
 39 64  1  0  0  0
 39 67  2  0  0  0
 40 52  1  0  0  0
 40 53  2  0  0  0
 40 58  1  0  0  0
 41111  1  0  0  0
 41112  1  0  0  0
 41113  1  0  0  0
 41 48  1  0  0  0
 42 43  1  0  0  0
 42 66  1  0  0  0
 42114  1  0  0  0
 42115  1  0  0  0
 43 44  1  0  0  0
 44116  1  0  0  0
 45 46  2  0  0  0
 45117  1  0  0  0
 46118  1  0  0  0
 47119  1  0  0  0
 47120  1  0  0  0
 48 56  1  0  0  0
 48 65  1  0  0  0
 48121  1  0  0  0
 49 50  1  0  0  0
 49 53  1  0  0  0
 49 64  1  0  0  0
 49122  1  0  0  0
 50 51  1  0  0  0
 50123  1  0  0  0
 50124  1  0  0  0
 51 52  1  0  0  0
 51125  1  0  0  0
 51126  1  0  0  0
 52127  1  0  0  0
 52128  1  0  0  0
 53 54  1  0  0  0
 54 55  2  0  0  0
 54129  1  0  0  0
 55 57  1  0  0  0
 55130  1  0  0  0
 56 69  2  0  0  0
 57 58  2  0  0  0
 57131  1  0  0  0
 58132  1  0  0  0
 59 60  1  0  0  0
 59 61  1  0  0  0
 59 62  1  0  0  0
 60133  1  0  0  0
 60134  1  0  0  0
 60135  1  0  0  0
 61136  1  0  0  0
 61137  1  0  0  0
 61138  1  0  0  0
 62139  1  0  0  0
 62140  1  0  0  0
 62141  1  0  0  0
 63 65  1  0  0  0
 63142  1  0  0  0
 63143  1  0  0  0
 63144  1  0  0  0
 64145  1  0  0  0
 65146  1  0  0  0
 68 83  1  0  0  0
 71 72  2  0  0  0
 71 74  1  0  0  0
 71147  1  0  0  0
 72 75  1  0  0  0
 72148  1  0  0  0
 73 75  2  0  0  0
 73 76  1  0  0  0
 73149  1  0  0  0
 74 76  2  0  0  0
 74 82  1  0  0  0
 75 85  1  0  0  0
 76 87  1  0  0  0
 77 81  1  0  0  0
 77 84  1  0  0  0
 77 86  2  0  0  0
 78 79  1  0  0  0
 78 80  1  0  0  0
 78150  1  0  0  0
 78151  1  0  0  0
 79 81  1  0  0  0
 79152  1  0  0  0
 79153  1  0  0  0
 80 84  1  0  0  0
 80154  1  0  0  0
 80155  1  0  0  0
 81 83  1  0  0  0
 81156  1  0  0  0
 82 84  1  0  0  0
 82157  1  0  0  0
 82158  1  0  0  0
 83159  1  0  0  0
 83160  1  0  0  0
 85161  1  0  0  0
M  ISO  4   1 100  68 101  83 101  85 100
M  END
> <chiral flag>
0

> <version>
0

> <s_m_source_file>
/data/baiqing/PycharmProjects/Reinvent-master-3.2/result/LINK_invent/BTK/process_docking_weight1_custom_product_contain_oxygen_bond_distance_aromatic_linkinvent_7_9_3/rearranged_h_0029.sdf

> <i_m_source_file_index>
18

> <r_mmod_Potential_Energy-OPLS-2005>
49.7810478210449

> <r_mmod_Stretch_Energy-OPLS-2005>
48.771671295166

> <r_mmod_Bend_Energy-OPLS-2005>
121.770729064941

> <r_mmod_Torsional_Energy-OPLS-2005>
250.98860168457

> <r_mmod_Improper_Torsional_Energy-OPLS-2005>
4.93297719955444

> <r_mmod_Van_der_Waal_Energy-OPLS-2005>
173.493759155273

> <r_mmod_Electrostatic_Energy-OPLS-2005>
-339.212310791016

> <r_mmod_Solvation_Energy-OPLS-2005>
-227.799057006836

> <b_mmod_Minimization_Converged-OPLS-2005>
0

> <r_mmod_RMS_Derivative-OPLS-2005>
2.60568237304688

$$$$
18
                    3D
 Structure written by MMmdl.
160169  0  0  1  0            999 V2000
  -30.5371  -14.8454   20.4440 C   0  0  0  0  0  0
  -30.4554  -12.5213   19.4631 C   0  0  0  0  0  0
  -29.5147  -12.4966   18.2344 C   0  0  0  0  0  0
  -28.0485  -12.2973   18.6642 C   0  0  0  0  0  0
  -27.6382  -13.2256   19.8364 C   0  0  2  0  0  0
  -28.6857  -13.1905   20.9687 C   0  0  0  0  0  0
  -25.2541  -13.8213   20.5670 C   0  0  0  0  0  0
  -24.1819  -13.0443   20.9184 C   0  0  0  0  0  0
  -24.6413  -11.6925   20.8764 C   0  0  0  0  0  0
  -23.9090  -10.4306   21.0444 C   0  0  0  0  0  0
  -24.3646   -9.4227   21.9201 C   0  0  0  0  0  0
  -23.6324   -8.2254   22.0742 C   0  0  0  0  0  0
  -22.4321   -8.0284   21.3527 C   0  0  0  0  0  0
  -21.9952   -9.0264   20.4639 C   0  0  0  0  0  0
  -22.7285  -10.2147   20.3079 C   0  0  0  0  0  0
  -21.6844   -6.0760   22.5286 C   0  0  0  0  0  0
  -21.4005   -6.5660   23.8227 C   0  0  0  0  0  0
  -21.3659   -5.6817   24.9179 C   0  0  0  0  0  0
  -21.6048   -4.3070   24.7232 C   0  0  0  0  0  0
  -21.8821   -3.8170   23.4340 C   0  0  0  0  0  0
  -21.9196   -4.6983   22.3418 C   0  0  0  0  0  0
  -22.7834  -13.5199   21.1876 C   0  0  0  0  0  0
  -22.1648   -4.2182   21.0977 F   0  0  0  0  0  0
  -21.5633   -3.4550   25.7728 F   0  0  0  0  0  0
  -29.9655  -13.5879   20.3697 N   0  0  0  0  0  0
  -26.2937  -12.9385   20.3232 N   0  0  0  0  0  0
  -25.9338  -11.6540   20.5733 N   0  0  0  0  0  0
  -22.0521  -12.8162   22.0422 N   0  0  0  0  0  0
  -25.4230  -15.1928   20.4097 N   0  0  0  0  0  0
  -31.7450  -14.9632   20.2192 O   0  0  0  0  0  0
  -21.6656   -6.8896   21.4241 O   0  0  0  0  0  0
  -22.3505  -14.5524   20.6758 O   0  0  0  0  0  0
  -24.6377  -31.8497   23.1931 C   0  0  0  0  0  0
  -25.9162  -32.4724   23.8295 C   0  0  1  0  0  0
  -27.2209  -27.1921   20.1468 C   0  0  0  0  0  0
  -25.5961  -33.8529   24.2245 N   0  0  0  0  0  0
  -23.4379  -30.4680   21.5351 C   0  0  2  0  0  0
  -24.8913  -28.8992   20.1099 C   0  0  0  0  0  0
  -22.7547  -29.4569   22.4879 C   0  0  0  0  0  0
  -18.0342  -28.1378   22.8465 C   0  0  0  0  0  0
  -24.1503  -36.7283   23.2640 C   0  0  0  0  0  0
  -25.9884  -30.7404   21.3801 C   0  0  0  0  0  0
  -26.0644  -29.3557   20.7267 C   0  0  0  0  0  0
  -27.2329  -28.5139   20.7319 C   0  0  0  0  0  0
  -26.0269  -26.8264   19.4876 C   0  0  0  0  0  0
  -24.8816  -27.6491   19.4757 C   0  0  0  0  0  0
  -23.6644  -29.7962   20.1542 C   0  0  0  0  0  0
  -25.4127  -36.3062   24.0325 C   0  0  1  0  0  0
  -20.5933  -28.3723   23.1268 C   0  0  2  0  0  0
  -20.6835  -26.9435   22.5421 C   0  0  0  0  0  0
  -19.5842  -26.6392   21.5207 C   0  0  0  0  0  0
  -18.2007  -26.7931   22.1597 C   0  0  0  0  0  0
  -19.1569  -28.8868   23.2861 C   0  0  0  0  0  0
  -18.9464  -30.1464   23.8877 C   0  0  0  0  0  0
  -17.6448  -30.6570   24.0526 C   0  0  0  0  0  0
  -25.9075  -34.9419   23.5104 C   0  0  0  0  0  0
  -16.5357  -29.9047   23.6287 C   0  0  0  0  0  0
  -16.7312  -28.6483   23.0291 C   0  0  0  0  0  0
  -26.4485  -31.6575   25.0706 C   0  0  0  0  0  0
  -25.3696  -31.3742   26.1425 C   0  0  0  0  0  0
  -27.0329  -30.2990   24.6223 C   0  0  0  0  0  0
  -27.6047  -32.4307   25.7482 C   0  0  0  0  0  0
  -27.5587  -37.1807   24.8452 C   0  0  0  0  0  0
  -21.4236  -29.3058   22.3616 N   0  0  0  0  0  0
  -26.4299  -37.3769   23.9391 N   0  0  0  0  0  0
  -24.7072  -31.0397   22.0925 N   0  0  0  0  0  0
  -23.4215  -28.8119   23.3007 O   0  0  0  0  0  0
  -28.2871  -26.2443   20.2116 O   0  0  0  0  0  0
  -26.5626  -34.8889   22.4670 O   0  0  0  0  0  0
  -23.5535  -32.1359   23.7227 O   0  0  0  0  0  0
  -29.4200  -20.0365   22.0848 C   0  0  0  0  0  0
  -29.6049  -18.5983   20.1439 C   0  0  0  0  0  0
  -29.4503  -19.9631   20.6824 C   0  0  0  0  0  0
  -29.4581  -18.8876   22.9043 C   0  0  0  0  0  0
  -29.5693  -17.5741   22.3593 C   0  0  0  0  0  0
  -29.7037  -17.3703   20.9534 C   0  0  0  0  0  0
  -28.3593  -23.7018   19.1843 C   0  0  0  0  0  0
  -28.8978  -23.7133   21.1100 C   0  0  0  0  0  0
  -27.9905  -24.7371   20.3092 C   0  0  1  0  0  0
  -29.3358  -19.1283   24.4044 C   0  0  0  0  0  0
  -29.4510  -16.3589   23.2794 C   0  0  0  0  0  0
  -29.4357  -21.3708   19.8679 C   0  0  0  0  0  0
  -29.6609  -15.9473   20.4487 N   0  0  0  0  0  0
  -28.5076  -22.5912   20.1915 N   0  3  1  0  0  0
  -31.4849  -12.6973   19.1436 H   0  0  0  0  0  0
  -30.4515  -11.5557   19.9730 H   0  0  0  0  0  0
  -29.8086  -11.7027   17.5462 H   0  0  0  0  0  0
  -29.6123  -13.4320   17.6847 H   0  0  0  0  0  0
  -27.9365  -11.2570   18.9689 H   0  0  0  0  0  0
  -27.3750  -12.4349   17.8190 H   0  0  0  0  0  0
  -27.6173  -14.2358   19.4258 H   0  0  0  0  0  0
  -28.7537  -12.1963   21.4128 H   0  0  0  0  0  0
  -28.4060  -13.8670   21.7755 H   0  0  0  0  0  0
  -25.2816   -9.5702   22.4740 H   0  0  0  0  0  0
  -24.0062   -7.4658   22.7469 H   0  0  0  0  0  0
  -21.0866   -8.8810   19.8937 H   0  0  0  0  0  0
  -22.3787  -10.9680   19.6177 H   0  0  0  0  0  0
  -21.1985   -7.6169   23.9714 H   0  0  0  0  0  0
  -21.1468   -6.0545   25.9083 H   0  0  0  0  0  0
  -22.0603   -2.7627   23.2847 H   0  0  0  0  0  0
  -22.4163  -11.9801   22.4765 H   0  0  0  0  0  0
  -21.1143  -13.1135   22.2731 H   0  0  0  0  0  0
  -24.6502  -15.8423   20.5128 H   0  0  0  0  0  0
  -26.2690  -15.6363   20.0766 H   0  0  0  0  0  0
  -26.7217  -32.5325   23.1019 H   0  0  0  0  0  0
  -24.9973  -33.9650   25.0289 H   0  0  0  0  0  0
  -22.7415  -31.2950   21.3826 H   0  0  0  0  0  0
  -23.3749  -35.9637   23.3289 H   0  0  0  0  0  0
  -24.3579  -36.8935   22.2062 H   0  0  0  0  0  0
  -23.7286  -37.6492   23.6663 H   0  0  0  0  0  0
  -26.1290  -31.4936   20.6046 H   0  0  0  0  0  0
  -26.8644  -30.7991   22.0160 H   0  0  0  0  0  0
  -28.1280  -28.8498   21.2388 H   0  0  0  0  0  0
  -25.9532  -25.8676   18.9927 H   0  0  0  0  0  0
  -23.9859  -27.2992   18.9813 H   0  0  0  0  0  0
  -23.7949  -30.5661   19.3934 H   0  0  0  0  0  0
  -22.7814  -29.2340   19.8474 H   0  0  0  0  0  0
  -25.1339  -36.1895   25.0823 H   0  0  0  0  0  0
  -21.0027  -28.3320   24.1389 H   0  0  0  0  0  0
  -20.5708  -26.2332   23.3627 H   0  0  0  0  0  0
  -21.6715  -26.7459   22.1275 H   0  0  0  0  0  0
  -19.7029  -25.6320   21.1207 H   0  0  0  0  0  0
  -19.6793  -27.3194   20.6721 H   0  0  0  0  0  0
  -17.4315  -26.6682   21.3960 H   0  0  0  0  0  0
  -18.0395  -26.0055   22.8981 H   0  0  0  0  0  0
  -19.7903  -30.7307   24.2268 H   0  0  0  0  0  0
  -17.4963  -31.6238   24.5155 H   0  0  0  0  0  0
  -15.5345  -30.2910   23.7608 H   0  0  0  0  0  0
  -15.8738  -28.0771   22.6988 H   0  0  0  0  0  0
  -24.5878  -30.7097   25.7718 H   0  0  0  0  0  0
  -24.8859  -32.2919   26.4793 H   0  0  0  0  0  0
  -25.8006  -30.8940   27.0224 H   0  0  0  0  0  0
  -26.2924  -29.6728   24.1247 H   0  0  0  0  0  0
  -27.3975  -29.7278   25.4759 H   0  0  0  0  0  0
  -27.8807  -30.4213   23.9487 H   0  0  0  0  0  0
  -27.2670  -33.3614   26.2035 H   0  0  0  0  0  0
  -28.3865  -32.6871   25.0324 H   0  0  0  0  0  0
  -28.0675  -31.8434   26.5423 H   0  0  0  0  0  0
  -28.2622  -38.0091   24.7492 H   0  0  0  0  0  0
  -28.1100  -36.2633   24.6314 H   0  0  0  0  0  0
  -27.2289  -37.1485   25.8854 H   0  0  0  0  0  0
  -20.9463  -29.8688   21.6721 H   0  0  0  0  0  0
  -26.0179  -38.2855   24.1368 H   0  0  0  0  0  0
  -29.3517  -21.0069   22.5537 H   0  0  0  0  0  0
  -29.6476  -18.4888   19.0699 H   0  0  0  0  0  0
  -27.5677  -23.5340   18.4526 H   0  0  0  0  0  0
  -29.2992  -23.9335   18.6795 H   0  0  0  0  0  0
  -28.5710  -23.5397   22.1357 H   0  0  0  0  0  0
  -29.9653  -23.9389   21.0642 H   0  0  0  0  0  0
  -26.9573  -24.5875   20.6290 H   0  0  0  0  0  0
  -29.4353  -20.1854   24.6513 H   0  0  0  0  0  0
  -30.1090  -18.6032   24.9659 H   0  0  0  0  0  0
  -28.3557  -18.8148   24.7663 H   0  0  0  0  0  0
  -29.4358  -16.5942   24.3403 H   0  0  0  0  0  0
  -30.2765  -15.6632   23.1277 H   0  0  0  0  0  0
  -28.5154  -15.8389   23.0753 H   0  0  0  0  0  0
  -29.2202  -21.1046   18.8344 H   0  0  0  0  0  0
  -30.4609  -21.7426   19.8423 H   0  0  0  0  0  0
  -28.7124  -15.6204   20.3355 H   0  0  0  0  0  0
  -27.5884  -22.2520   20.4313 H   0  0  0  0  0  0
  1 25  1  0  0  0
  1 30  2  0  0  0
  1 83  1  0  0  0
  2  3  1  0  0  0
  2 25  1  0  0  0
  2 85  1  0  0  0
  2 86  1  0  0  0
  3  4  1  0  0  0
  3 87  1  0  0  0
  3 88  1  0  0  0
  4  5  1  0  0  0
  4 89  1  0  0  0
  4 90  1  0  0  0
  5  6  1  0  0  0
  5 26  1  0  0  0
  5 91  1  0  0  0
  6 25  1  0  0  0
  6 92  1  0  0  0
  6 93  1  0  0  0
  7  8  2  0  0  0
  7 26  1  0  0  0
  7 29  1  0  0  0
  8  9  1  0  0  0
  8 22  1  0  0  0
  9 10  1  0  0  0
  9 27  2  0  0  0
 10 11  2  0  0  0
 10 15  1  0  0  0
 11 12  1  0  0  0
 11 94  1  0  0  0
 12 13  2  0  0  0
 12 95  1  0  0  0
 13 14  1  0  0  0
 13 31  1  0  0  0
 14 15  2  0  0  0
 14 96  1  0  0  0
 15 97  1  0  0  0
 16 17  2  0  0  0
 16 21  1  0  0  0
 16 31  1  0  0  0
 17 18  1  0  0  0
 17 98  1  0  0  0
 18 19  2  0  0  0
 18 99  1  0  0  0
 19 20  1  0  0  0
 19 24  1  0  0  0
 20 21  2  0  0  0
 20100  1  0  0  0
 21 23  1  0  0  0
 22 28  1  0  0  0
 22 32  2  0  0  0
 26 27  1  0  0  0
 28101  1  0  0  0
 28102  1  0  0  0
 29103  1  0  0  0
 29104  1  0  0  0
 33 34  1  0  0  0
 33 66  1  0  0  0
 33 70  2  0  0  0
 34 36  1  0  0  0
 34 59  1  0  0  0
 34105  1  0  0  0
 35 44  2  0  0  0
 35 45  1  0  0  0
 35 68  1  0  0  0
 36 56  1  0  0  0
 36106  1  0  0  0
 37 39  1  0  0  0
 37 47  1  0  0  0
 37 66  1  0  0  0
 37107  1  0  0  0
 38 43  2  0  0  0
 38 46  1  0  0  0
 38 47  1  0  0  0
 39 64  1  0  0  0
 39 67  2  0  0  0
 40 52  1  0  0  0
 40 53  2  0  0  0
 40 58  1  0  0  0
 41108  1  0  0  0
 41109  1  0  0  0
 41110  1  0  0  0
 41 48  1  0  0  0
 42 43  1  0  0  0
 42 66  1  0  0  0
 42111  1  0  0  0
 42112  1  0  0  0
 43 44  1  0  0  0
 44113  1  0  0  0
 45 46  2  0  0  0
 45114  1  0  0  0
 46115  1  0  0  0
 47116  1  0  0  0
 47117  1  0  0  0
 48 56  1  0  0  0
 48 65  1  0  0  0
 48118  1  0  0  0
 49 50  1  0  0  0
 49 53  1  0  0  0
 49 64  1  0  0  0
 49119  1  0  0  0
 50 51  1  0  0  0
 50120  1  0  0  0
 50121  1  0  0  0
 51 52  1  0  0  0
 51122  1  0  0  0
 51123  1  0  0  0
 52124  1  0  0  0
 52125  1  0  0  0
 53 54  1  0  0  0
 54 55  2  0  0  0
 54126  1  0  0  0
 55 57  1  0  0  0
 55127  1  0  0  0
 56 69  2  0  0  0
 57 58  2  0  0  0
 57128  1  0  0  0
 58129  1  0  0  0
 59 60  1  0  0  0
 59 61  1  0  0  0
 59 62  1  0  0  0
 60130  1  0  0  0
 60131  1  0  0  0
 60132  1  0  0  0
 61133  1  0  0  0
 61134  1  0  0  0
 61135  1  0  0  0
 62136  1  0  0  0
 62137  1  0  0  0
 62138  1  0  0  0
 63 65  1  0  0  0
 63139  1  0  0  0
 63140  1  0  0  0
 63141  1  0  0  0
 64142  1  0  0  0
 65143  1  0  0  0
 68 79  1  0  0  0
 71 73  2  0  0  0
 71 74  1  0  0  0
 71144  1  0  0  0
 72 73  1  0  0  0
 72 76  2  0  0  0
 72145  1  0  0  0
 73 82  1  0  0  0
 74 75  2  0  0  0
 74 80  1  0  0  0
 75 76  1  0  0  0
 75 81  1  0  0  0
 76 83  1  0  0  0
 77 79  1  0  0  0
 77 84  1  0  0  0
 77146  1  0  0  0
 77147  1  0  0  0
 78 79  1  0  0  0
 78 84  1  0  0  0
 78148  1  0  0  0
 78149  1  0  0  0
 79150  1  0  0  0
 80151  1  0  0  0
 80152  1  0  0  0
 80153  1  0  0  0
 81154  1  0  0  0
 81155  1  0  0  0
 81156  1  0  0  0
 82157  1  0  0  0
 82158  1  0  0  0
 82 84  1  0  0  0
 83159  1  0  0  0
 84160  1  0  0  0
M  CHG  1  84   1
M  ISO  4   1 100  68 101  79 101  83 100
M  END
> <chiral flag>
0

> <version>
0

> <s_m_source_file>
/data/baiqing/PycharmProjects/Reinvent-master-3.2/result/LINK_invent/BTK/process_docking_weight1_custom_product_contain_oxygen_bond_distance_aromatic_linkinvent_7_9_3/rearranged_h_0029.sdf

> <i_m_source_file_index>
19

> <r_mmod_Potential_Energy-OPLS-2005>
135.365951538086

> <r_mmod_Stretch_Energy-OPLS-2005>
172.812698364258

> <r_mmod_Bend_Energy-OPLS-2005>
232.120086669922

> <r_mmod_Torsional_Energy-OPLS-2005>
265.027496337891

> <r_mmod_Improper_Torsional_Energy-OPLS-2005>
11.4177389144897

> <r_mmod_Van_der_Waal_Energy-OPLS-2005>
137.253372192383

> <r_mmod_Electrostatic_Energy-OPLS-2005>
-341.400512695312

> <r_mmod_Solvation_Energy-OPLS-2005>
-481.34521484375

> <b_mmod_Minimization_Converged-OPLS-2005>
0

> <r_mmod_RMS_Derivative-OPLS-2005>
5.07824277877808

$$$$
19
                    3D
 Structure written by MMmdl.
163172  0  0  1  0            999 V2000
  -30.5770  -14.8728   20.3635 C   0  0  0  0  0  0
  -30.4443  -12.5074   19.4952 C   0  0  0  0  0  0
  -29.5249  -12.3725   18.2580 C   0  0  0  0  0  0
  -28.0374  -12.2796   18.6645 C   0  0  0  0  0  0
  -27.6263  -13.2237   19.8295 C   0  0  2  0  0  0
  -28.6783  -13.2619   20.9555 C   0  0  0  0  0  0
  -25.2494  -13.8156   20.5742 C   0  0  0  0  0  0
  -24.1780  -13.0418   20.9237 C   0  0  0  0  0  0
  -24.6363  -11.6892   20.8788 C   0  0  0  0  0  0
  -23.9049  -10.4277   21.0437 C   0  0  0  0  0  0
  -24.3608   -9.4192   21.9204 C   0  0  0  0  0  0
  -23.6291   -8.2222   22.0759 C   0  0  0  0  0  0
  -22.4273   -8.0266   21.3546 C   0  0  0  0  0  0
  -21.9907   -9.0241   20.4651 C   0  0  0  0  0  0
  -22.7228  -10.2124   20.3075 C   0  0  0  0  0  0
  -21.6845   -6.0738   22.5283 C   0  0  0  0  0  0
  -21.4005   -6.5645   23.8216 C   0  0  0  0  0  0
  -21.3660   -5.6797   24.9177 C   0  0  0  0  0  0
  -21.6041   -4.3059   24.7225 C   0  0  0  0  0  0
  -21.8818   -3.8153   23.4346 C   0  0  0  0  0  0
  -21.9191   -4.6969   22.3402 C   0  0  0  0  0  0
  -22.7809  -13.5208   21.1880 C   0  0  0  0  0  0
  -22.1660   -4.2158   21.0981 F   0  0  0  0  0  0
  -21.5630   -3.4543   25.7741 F   0  0  0  0  0  0
  -29.9536  -13.6317   20.3331 N   0  0  0  0  0  0
  -26.2886  -12.9332   20.3283 N   0  0  0  0  0  0
  -25.9291  -11.6493   20.5811 N   0  0  0  0  0  0
  -22.0456  -12.8207   22.0438 N   0  0  0  0  0  0
  -25.4223  -15.1879   20.4187 N   0  0  0  0  0  0
  -31.8063  -14.8917   20.2407 O   0  0  0  0  0  0
  -21.6629   -6.8871   21.4243 O   0  0  0  0  0  0
  -22.3503  -14.5521   20.6726 O   0  0  0  0  0  0
  -24.6350  -31.8513   23.1937 C   0  0  0  0  0  0
  -25.9153  -32.4736   23.8299 C   0  0  1  0  0  0
  -27.2234  -27.2212   20.1502 C   0  0  0  0  0  0
  -25.5938  -33.8538   24.2222 N   0  0  0  0  0  0
  -23.4351  -30.4704   21.5383 C   0  0  2  0  0  0
  -24.8850  -28.9099   20.1089 C   0  0  0  0  0  0
  -22.7531  -29.4577   22.4900 C   0  0  0  0  0  0
  -18.0292  -28.1386   22.8474 C   0  0  0  0  0  0
  -24.1488  -36.7278   23.2642 C   0  0  0  0  0  0
  -25.9830  -30.7527   21.3788 C   0  0  0  0  0  0
  -26.0571  -29.3709   20.7220 C   0  0  0  0  0  0
  -27.2297  -28.5426   20.7247 C   0  0  0  0  0  0
  -26.0320  -26.8403   19.4941 C   0  0  0  0  0  0
  -24.8810  -27.6552   19.4792 C   0  0  0  0  0  0
  -23.6560  -29.8007   20.1555 C   0  0  0  0  0  0
  -25.4123  -36.3057   24.0314 C   0  0  1  0  0  0
  -20.5904  -28.3704   23.1256 C   0  0  2  0  0  0
  -20.6783  -26.9416   22.5408 C   0  0  0  0  0  0
  -19.5761  -26.6377   21.5211 C   0  0  0  0  0  0
  -18.1937  -26.7925   22.1615 C   0  0  0  0  0  0
  -19.1550  -28.8865   23.2851 C   0  0  0  0  0  0
  -18.9467  -30.1463   23.8872 C   0  0  0  0  0  0
  -17.6468  -30.6587   24.0559 C   0  0  0  0  0  0
  -25.9067  -34.9430   23.5074 C   0  0  0  0  0  0
  -16.5358  -29.9086   23.6335 C   0  0  0  0  0  0
  -16.7279  -28.6505   23.0351 C   0  0  0  0  0  0
  -26.4500  -31.6584   25.0712 C   0  0  0  0  0  0
  -25.3699  -31.3755   26.1422 C   0  0  0  0  0  0
  -27.0364  -30.2995   24.6240 C   0  0  0  0  0  0
  -27.6045  -32.4345   25.7485 C   0  0  0  0  0  0
  -27.5574  -37.1796   24.8465 C   0  0  0  0  0  0
  -21.4233  -29.3038   22.3643 N   0  0  0  0  0  0
  -26.4293  -37.3761   23.9400 N   0  0  0  0  0  0
  -24.7034  -31.0443   22.0927 N   0  0  0  0  0  0
  -23.4207  -28.8119   23.3022 O   0  0  0  0  0  0
  -28.3057  -26.2997   20.2226 O   0  0  0  0  0  0
  -26.5649  -34.8913   22.4649 O   0  0  0  0  0  0
  -23.5488  -32.1359   23.7208 O   0  0  0  0  0  0
  -30.6739  -20.1923   21.4452 C   0  0  0  0  0  0
  -31.1479  -17.7670   21.3823 C   0  0  0  0  0  0
  -29.4825  -20.0479   20.7054 C   0  0  0  0  0  0
  -29.1327  -18.6568   20.3575 C   0  0  0  0  0  0
  -29.9995  -17.4747   20.6092 C   0  0  0  0  0  0
  -31.4688  -19.0792   21.7946 C   0  0  0  0  0  0
  -28.5173  -23.7756   19.2675 C   0  0  0  0  0  0
  -28.8916  -23.8800   21.2951 C   0  0  0  0  0  0
  -28.0407  -24.8003   20.3479 C   0  0  1  0  0  0
  -27.7390  -18.4544   19.7799 C   0  0  0  0  0  0
  -30.1401  -16.8794   17.6875 C   0  0  0  0  0  0
  -28.5817  -21.3704   20.3960 C   0  0  0  0  0  0
  -29.3159  -16.0303   18.6750 C   0  0  0  0  0  0
  -29.8287  -16.0540   20.0688 N   0  0  0  0  0  0
  -29.1347  -22.8245   20.2554 N   0  3  1  0  0  0
  -32.8915  -19.3328   22.7375 Cl  0  0  0  0  0  0
  -31.4758  -12.6570   19.1720 H   0  0  0  0  0  0
  -30.4454  -11.5822   20.0737 H   0  0  0  0  0  0
  -29.7960  -11.4679   17.7120 H   0  0  0  0  0  0
  -29.6987  -13.1698   17.5402 H   0  0  0  0  0  0
  -27.8673  -11.2455   18.9651 H   0  0  0  0  0  0
  -27.3968  -12.4449   17.7977 H   0  0  0  0  0  0
  -27.5670  -14.2171   19.3977 H   0  0  0  0  0  0
  -28.7516  -12.2983   21.4620 H   0  0  0  0  0  0
  -28.4003  -13.9971   21.7127 H   0  0  0  0  0  0
  -25.2753   -9.5668   22.4780 H   0  0  0  0  0  0
  -24.0004   -7.4613   22.7476 H   0  0  0  0  0  0
  -21.0838   -8.8757   19.8959 H   0  0  0  0  0  0
  -22.3686  -10.9668   19.6189 H   0  0  0  0  0  0
  -21.1988   -7.6153   23.9716 H   0  0  0  0  0  0
  -21.1484   -6.0531   25.9079 H   0  0  0  0  0  0
  -22.0596   -2.7618   23.2842 H   0  0  0  0  0  0
  -22.4071  -11.9869   22.4824 H   0  0  0  0  0  0
  -21.1075  -13.1234   22.2645 H   0  0  0  0  0  0
  -24.6626  -15.8475   20.5454 H   0  0  0  0  0  0
  -26.2867  -15.6247   20.1297 H   0  0  0  0  0  0
  -26.7222  -32.5369   23.1042 H   0  0  0  0  0  0
  -25.0082  -33.9674   25.0363 H   0  0  0  0  0  0
  -22.7325  -31.2924   21.3881 H   0  0  0  0  0  0
  -23.3750  -35.9610   23.3312 H   0  0  0  0  0  0
  -24.3577  -36.8906   22.2056 H   0  0  0  0  0  0
  -23.7247  -37.6476   23.6677 H   0  0  0  0  0  0
  -26.1280  -31.5115   20.6086 H   0  0  0  0  0  0
  -26.8572  -30.8024   22.0163 H   0  0  0  0  0  0
  -28.1257  -28.8922   21.2187 H   0  0  0  0  0  0
  -25.9703  -25.8815   18.9995 H   0  0  0  0  0  0
  -23.9875  -27.2996   18.9851 H   0  0  0  0  0  0
  -23.7818  -30.5761   19.3986 H   0  0  0  0  0  0
  -22.7734  -29.2349   19.8508 H   0  0  0  0  0  0
  -25.1308  -36.1901   25.0806 H   0  0  0  0  0  0
  -20.9977  -28.3286   24.1388 H   0  0  0  0  0  0
  -20.5688  -26.2313   23.3617 H   0  0  0  0  0  0
  -21.6650  -26.7444   22.1200 H   0  0  0  0  0  0
  -19.6929  -25.6283   21.1254 H   0  0  0  0  0  0
  -19.6702  -27.3174   20.6730 H   0  0  0  0  0  0
  -17.4210  -26.6663   21.4014 H   0  0  0  0  0  0
  -18.0332  -26.0069   22.9013 H   0  0  0  0  0  0
  -19.7948  -30.7278   24.2226 H   0  0  0  0  0  0
  -17.5030  -31.6265   24.5163 H   0  0  0  0  0  0
  -15.5360  -30.2980   23.7683 H   0  0  0  0  0  0
  -15.8674  -28.0825   22.7074 H   0  0  0  0  0  0
  -24.5880  -30.7101   25.7746 H   0  0  0  0  0  0
  -24.8880  -32.2928   26.4813 H   0  0  0  0  0  0
  -25.7991  -30.8953   27.0228 H   0  0  0  0  0  0
  -26.2964  -29.6725   24.1252 H   0  0  0  0  0  0
  -27.4018  -29.7285   25.4787 H   0  0  0  0  0  0
  -27.8850  -30.4263   23.9513 H   0  0  0  0  0  0
  -27.2653  -33.3676   26.2006 H   0  0  0  0  0  0
  -28.3875  -32.6871   25.0317 H   0  0  0  0  0  0
  -28.0691  -31.8509   26.5446 H   0  0  0  0  0  0
  -28.2595  -38.0088   24.7513 H   0  0  0  0  0  0
  -28.1065  -36.2621   24.6297 H   0  0  0  0  0  0
  -27.2292  -37.1460   25.8867 H   0  0  0  0  0  0
  -20.9433  -29.8759   21.6838 H   0  0  0  0  0  0
  -26.0167  -38.2830   24.1401 H   0  0  0  0  0  0
  -30.9857  -21.1689   21.7853 H   0  0  0  0  0  0
  -31.8391  -16.9842   21.6547 H   0  0  0  0  0  0
  -29.2739  -24.1959   18.6042 H   0  0  0  0  0  0
  -27.6984  -23.3470   18.6901 H   0  0  0  0  0  0
  -28.3398  -23.5193   22.1629 H   0  0  0  0  0  0
  -29.8250  -24.3510   21.6058 H   0  0  0  0  0  0
  -26.9916  -24.6186   20.5860 H   0  0  0  0  0  0
  -27.0366  -19.2035   20.1415 H   0  0  0  0  0  0
  -27.3213  -17.5029   20.1049 H   0  0  0  0  0  0
  -27.7489  -18.5018   18.6911 H   0  0  0  0  0  0
  -30.1009  -17.9456   17.9060 H   0  0  0  0  0  0
  -29.7624  -16.7482   16.6725 H   0  0  0  0  0  0
  -31.1875  -16.5762   17.6867 H   0  0  0  0  0  0
  -27.7593  -21.3911   21.1104 H   0  0  0  0  0  0
  -28.1126  -21.1635   19.4344 H   0  0  0  0  0  0
  -29.3190  -15.0364   18.2548 H   0  0  0  0  0  0
  -28.2650  -16.2869   18.6222 H   0  0  0  0  0  0
  -30.1193  -22.7682   20.0482 H   0  0  0  0  0  0
  1 25  1  0  0  0
  1 30  2  0  0  0
  1 84  1  0  0  0
  2  3  1  0  0  0
  2 25  1  0  0  0
  2 87  1  0  0  0
  2 88  1  0  0  0
  3  4  1  0  0  0
  3 89  1  0  0  0
  3 90  1  0  0  0
  4  5  1  0  0  0
  4 91  1  0  0  0
  4 92  1  0  0  0
  5  6  1  0  0  0
  5 26  1  0  0  0
  5 93  1  0  0  0
  6 25  1  0  0  0
  6 94  1  0  0  0
  6 95  1  0  0  0
  7  8  2  0  0  0
  7 26  1  0  0  0
  7 29  1  0  0  0
  8  9  1  0  0  0
  8 22  1  0  0  0
  9 10  1  0  0  0
  9 27  2  0  0  0
 10 11  2  0  0  0
 10 15  1  0  0  0
 11 12  1  0  0  0
 11 96  1  0  0  0
 12 13  2  0  0  0
 12 97  1  0  0  0
 13 14  1  0  0  0
 13 31  1  0  0  0
 14 15  2  0  0  0
 14 98  1  0  0  0
 15 99  1  0  0  0
 16 17  2  0  0  0
 16 21  1  0  0  0
 16 31  1  0  0  0
 17 18  1  0  0  0
 17100  1  0  0  0
 18 19  2  0  0  0
 18101  1  0  0  0
 19 20  1  0  0  0
 19 24  1  0  0  0
 20 21  2  0  0  0
 20102  1  0  0  0
 21 23  1  0  0  0
 22 28  1  0  0  0
 22 32  2  0  0  0
 26 27  1  0  0  0
 28103  1  0  0  0
 28104  1  0  0  0
 29105  1  0  0  0
 29106  1  0  0  0
 33 34  1  0  0  0
 33 66  1  0  0  0
 33 70  2  0  0  0
 34 36  1  0  0  0
 34 59  1  0  0  0
 34107  1  0  0  0
 35 44  2  0  0  0
 35 45  1  0  0  0
 35 68  1  0  0  0
 36 56  1  0  0  0
 36108  1  0  0  0
 37 39  1  0  0  0
 37 47  1  0  0  0
 37 66  1  0  0  0
 37109  1  0  0  0
 38 43  2  0  0  0
 38 46  1  0  0  0
 38 47  1  0  0  0
 39 64  1  0  0  0
 39 67  2  0  0  0
 40 52  1  0  0  0
 40 53  2  0  0  0
 40 58  1  0  0  0
 41110  1  0  0  0
 41111  1  0  0  0
 41112  1  0  0  0
 41 48  1  0  0  0
 42 43  1  0  0  0
 42 66  1  0  0  0
 42113  1  0  0  0
 42114  1  0  0  0
 43 44  1  0  0  0
 44115  1  0  0  0
 45 46  2  0  0  0
 45116  1  0  0  0
 46117  1  0  0  0
 47118  1  0  0  0
 47119  1  0  0  0
 48 56  1  0  0  0
 48 65  1  0  0  0
 48120  1  0  0  0
 49 50  1  0  0  0
 49 53  1  0  0  0
 49 64  1  0  0  0
 49121  1  0  0  0
 50 51  1  0  0  0
 50122  1  0  0  0
 50123  1  0  0  0
 51 52  1  0  0  0
 51124  1  0  0  0
 51125  1  0  0  0
 52126  1  0  0  0
 52127  1  0  0  0
 53 54  1  0  0  0
 54 55  2  0  0  0
 54128  1  0  0  0
 55 57  1  0  0  0
 55129  1  0  0  0
 56 69  2  0  0  0
 57 58  2  0  0  0
 57130  1  0  0  0
 58131  1  0  0  0
 59 60  1  0  0  0
 59 61  1  0  0  0
 59 62  1  0  0  0
 60132  1  0  0  0
 60133  1  0  0  0
 60134  1  0  0  0
 61135  1  0  0  0
 61136  1  0  0  0
 61137  1  0  0  0
 62138  1  0  0  0
 62139  1  0  0  0
 62140  1  0  0  0
 63 65  1  0  0  0
 63141  1  0  0  0
 63142  1  0  0  0
 63143  1  0  0  0
 64144  1  0  0  0
 65145  1  0  0  0
 68 79  1  0  0  0
 71 73  2  0  0  0
 71 76  1  0  0  0
 71146  1  0  0  0
 72 75  1  0  0  0
 72 76  2  0  0  0
 72147  1  0  0  0
 73 74  1  0  0  0
 73 82  1  0  0  0
 74 75  2  0  0  0
 74 80  1  0  0  0
 75 84  1  0  0  0
 76 86  1  0  0  0
 77 79  1  0  0  0
 77 85  1  0  0  0
 77148  1  0  0  0
 77149  1  0  0  0
 78 79  1  0  0  0
 78 85  1  0  0  0
 78150  1  0  0  0
 78151  1  0  0  0
 79152  1  0  0  0
 80153  1  0  0  0
 80154  1  0  0  0
 80155  1  0  0  0
 81 83  1  0  0  0
 81156  1  0  0  0
 81157  1  0  0  0
 81158  1  0  0  0
 82159  1  0  0  0
 82160  1  0  0  0
 82 85  1  0  0  0
 83 84  1  0  0  0
 83161  1  0  0  0
 83162  1  0  0  0
 85163  1  0  0  0
M  CHG  1  85   1
M  ISO  4   1 100  68 101  79 101  84 100
M  END
> <chiral flag>
0

> <version>
0

> <s_m_source_file>
/data/baiqing/PycharmProjects/Reinvent-master-3.2/result/LINK_invent/BTK/process_docking_weight1_custom_product_contain_oxygen_bond_distance_aromatic_linkinvent_7_9_3/rearranged_h_0029.sdf

> <i_m_source_file_index>
20

> <r_mmod_Potential_Energy-OPLS-2005>
372.889404296875

> <r_mmod_Stretch_Energy-OPLS-2005>
182.473968505859

> <r_mmod_Bend_Energy-OPLS-2005>
223.958572387695

> <r_mmod_Torsional_Energy-OPLS-2005>
348.963287353516

> <r_mmod_Improper_Torsional_Energy-OPLS-2005>
16.4506587982178

> <r_mmod_Van_der_Waal_Energy-OPLS-2005>
147.886123657227

> <r_mmod_Electrostatic_Energy-OPLS-2005>
-219.026489257812

> <r_mmod_Solvation_Energy-OPLS-2005>
-470.883697509766

> <b_mmod_Minimization_Converged-OPLS-2005>
0

> <r_mmod_RMS_Derivative-OPLS-2005>
1.19963812828064

$$$$
20
                    3D
 Structure written by MMmdl.
174184  0  0  1  0            999 V2000
  -30.5595  -14.7252   20.3933 C   0  0  0  0  0  0
  -30.4535  -12.4438   19.4190 C   0  0  0  0  0  0
  -29.4966  -12.4809   18.2099 C   0  0  0  0  0  0
  -28.0219  -12.3086   18.6328 C   0  0  0  0  0  0
  -27.6282  -13.2054   19.8346 C   0  0  2  0  0  0
  -28.6880  -13.1470   20.9564 C   0  0  0  0  0  0
  -25.2431  -13.7837   20.5968 C   0  0  0  0  0  0
  -24.1696  -13.0137   20.9331 C   0  0  0  0  0  0
  -24.6308  -11.6711   20.8731 C   0  0  0  0  0  0
  -23.9021  -10.4131   21.0395 C   0  0  0  0  0  0
  -24.3609   -9.4080   21.9170 C   0  0  0  0  0  0
  -23.6247   -8.2152   22.0776 C   0  0  0  0  0  0
  -22.4227   -8.0225   21.3550 C   0  0  0  0  0  0
  -21.9859   -9.0191   20.4642 C   0  0  0  0  0  0
  -22.7211  -10.2035   20.3024 C   0  0  0  0  0  0
  -21.6827   -6.0698   22.5280 C   0  0  0  0  0  0
  -21.3994   -6.5610   23.8211 C   0  0  0  0  0  0
  -21.3648   -5.6760   24.9168 C   0  0  0  0  0  0
  -21.6037   -4.3034   24.7211 C   0  0  0  0  0  0
  -21.8837   -3.8125   23.4343 C   0  0  0  0  0  0
  -21.9175   -4.6932   22.3392 C   0  0  0  0  0  0
  -22.7734  -13.5045   21.1934 C   0  0  0  0  0  0
  -22.1652   -4.2141   21.0966 F   0  0  0  0  0  0
  -21.5637   -3.4517   25.7729 F   0  0  0  0  0  0
  -29.9841  -13.4862   20.3477 N   0  0  0  0  0  0
  -26.2860  -12.9127   20.3246 N   0  0  0  0  0  0
  -25.9218  -11.6301   20.5682 N   0  0  0  0  0  0
  -22.0311  -12.8060   22.0485 N   0  0  0  0  0  0
  -25.3852  -15.1481   20.4921 N   0  0  0  0  0  0
  -31.7732  -14.8749   20.2247 O   0  0  0  0  0  0
  -21.6590   -6.8840   21.4254 O   0  0  0  0  0  0
  -22.3496  -14.5338   20.6730 O   0  0  0  0  0  0
  -24.6215  -31.8670   23.2074 C   0  0  0  0  0  0
  -25.9116  -32.4817   23.8367 C   0  0  1  0  0  0
  -27.2418  -27.3553   20.0845 C   0  0  0  0  0  0
  -25.5957  -33.8615   24.2342 N   0  0  0  0  0  0
  -23.4125  -30.4840   21.5540 C   0  0  2  0  0  0
  -24.8560  -28.9353   20.1176 C   0  0  0  0  0  0
  -22.7473  -29.4634   22.5077 C   0  0  0  0  0  0
  -18.0263  -28.1363   22.8531 C   0  0  0  0  0  0
  -24.1475  -36.7253   23.2638 C   0  0  0  0  0  0
  -25.9482  -30.7991   21.3741 C   0  0  0  0  0  0
  -26.0218  -29.4294   20.7106 C   0  0  0  0  0  0
  -27.2137  -28.6502   20.6864 C   0  0  0  0  0  0
  -26.0433  -26.8905   19.4962 C   0  0  0  0  0  0
  -24.8659  -27.6677   19.5105 C   0  0  0  0  0  0
  -23.6203  -29.8134   20.1700 C   0  0  0  0  0  0
  -25.4124  -36.3108   24.0350 C   0  0  1  0  0  0
  -20.5861  -28.3676   23.1344 C   0  0  2  0  0  0
  -20.6744  -26.9424   22.5431 C   0  0  0  0  0  0
  -19.5703  -26.6400   21.5237 C   0  0  0  0  0  0
  -18.1893  -26.7913   22.1661 C   0  0  0  0  0  0
  -19.1508  -28.8840   23.2909 C   0  0  0  0  0  0
  -18.9456  -30.1460   23.8908 C   0  0  0  0  0  0
  -17.6447  -30.6582   24.0570 C   0  0  0  0  0  0
  -25.9087  -34.9465   23.5145 C   0  0  0  0  0  0
  -16.5344  -29.9096   23.6305 C   0  0  0  0  0  0
  -16.7249  -28.6483   23.0385 C   0  0  0  0  0  0
  -26.4487  -31.6595   25.0707 C   0  0  0  0  0  0
  -25.3728  -31.3725   26.1454 C   0  0  0  0  0  0
  -27.0344  -30.3026   24.6135 C   0  0  0  0  0  0
  -27.6064  -32.4290   25.7471 C   0  0  0  0  0  0
  -27.5581  -37.1799   24.8481 C   0  0  0  0  0  0
  -21.4193  -29.3022   22.3791 N   0  0  0  0  0  0
  -26.4294  -37.3815   23.9439 N   0  0  0  0  0  0
  -24.6796  -31.0653   22.1018 N   0  0  0  0  0  0
  -23.4202  -28.8215   23.3200 O   0  0  0  0  0  0
  -28.4160  -26.5944   20.0941 O   0  0  0  0  0  0
  -26.5615  -34.8931   22.4689 O   0  0  0  0  0  0
  -23.5399  -32.1493   23.7451 O   0  0  0  0  0  0
  -30.8745  -19.3791   20.8307 C   0  0  0  0  0  0
  -28.7142  -20.8556   19.9777 C   0  0  0  0  0  0
  -30.9698  -20.7976   20.7266 C   0  0  0  0  0  0
  -29.7138  -18.6183   20.5367 C   0  0  0  0  0  0
  -29.8319  -21.6242   20.4105 C   0  0  0  0  0  0
  -28.6314  -19.4115   19.9859 C   0  0  0  0  0  0
  -26.0972  -18.3730   17.4724 C   0  0  0  0  0  0
  -25.8144  -17.3803   18.5907 C   0  0  0  0  0  0
  -30.0778  -24.8646   22.1093 C   0  0  0  0  0  0
  -28.6130  -24.4844   21.9609 C   0  0  0  0  0  0
  -27.3126  -19.1730   17.9696 C   0  0  0  0  0  0
  -26.9522  -17.5691   19.6031 C   0  0  0  0  0  0
  -30.7883  -23.7772   21.3096 C   0  0  0  0  0  0
  -28.5695  -23.9594   20.5285 C   0  0  2  0  0  0
  -32.3822  -21.3200   20.9467 C   0  0  0  0  0  0
  -29.7357  -17.1178   21.0988 C   0  0  0  0  0  0
  -28.5396  -25.2242   19.5461 C   0  0  0  0  0  0
  -27.4341  -18.9165   19.4066 N   0  0  0  0  0  0
  -29.7995  -23.0906   20.4581 N   0  0  0  0  0  0
  -29.6828  -15.7868   20.3779 N   0  0  0  0  0  0
  -31.4738  -12.6247   19.0744 H   0  0  0  0  0  0
  -30.4758  -11.4669   19.8998 H   0  0  0  0  0  0
  -29.7807  -11.7219   17.4778 H   0  0  0  0  0  0
  -29.6133  -13.4453   17.7149 H   0  0  0  0  0  0
  -27.8632  -11.2600   18.8891 H   0  0  0  0  0  0
  -27.3744  -12.5181   17.7785 H   0  0  0  0  0  0
  -27.6058  -14.2218   19.4482 H   0  0  0  0  0  0
  -28.7154  -12.1604   21.4170 H   0  0  0  0  0  0
  -28.4320  -13.8445   21.7610 H   0  0  0  0  0  0
  -25.2782   -9.5552   22.4718 H   0  0  0  0  0  0
  -23.9939   -7.4555   22.7514 H   0  0  0  0  0  0
  -21.0770   -8.8720   19.8965 H   0  0  0  0  0  0
  -22.3703  -10.9590   19.6137 H   0  0  0  0  0  0
  -21.1995   -7.6128   23.9710 H   0  0  0  0  0  0
  -21.1455   -6.0490   25.9069 H   0  0  0  0  0  0
  -22.0634   -2.7599   23.2825 H   0  0  0  0  0  0
  -22.3873  -11.9716   22.4917 H   0  0  0  0  0  0
  -21.0992  -13.1221   22.2710 H   0  0  0  0  0  0
  -24.5742  -15.7542   20.5645 H   0  0  0  0  0  0
  -26.1634  -15.5975   20.0350 H   0  0  0  0  0  0
  -26.7187  -32.5473   23.1123 H   0  0  0  0  0  0
  -25.0128  -33.9782   25.0502 H   0  0  0  0  0  0
  -22.6946  -31.2998   21.4211 H   0  0  0  0  0  0
  -23.3784  -35.9521   23.3306 H   0  0  0  0  0  0
  -24.3547  -36.8852   22.2036 H   0  0  0  0  0  0
  -23.7163  -37.6449   23.6635 H   0  0  0  0  0  0
  -26.0817  -31.5720   20.6153 H   0  0  0  0  0  0
  -26.8269  -30.8433   22.0066 H   0  0  0  0  0  0
  -28.1174  -29.0397   21.1369 H   0  0  0  0  0  0
  -25.9771  -25.9146   19.0401 H   0  0  0  0  0  0
  -23.9681  -27.2803   19.0534 H   0  0  0  0  0  0
  -23.7350  -30.5955   19.4175 H   0  0  0  0  0  0
  -22.7337  -29.2454   19.8778 H   0  0  0  0  0  0
  -25.1284  -36.1961   25.0835 H   0  0  0  0  0  0
  -20.9921  -28.3244   24.1491 H   0  0  0  0  0  0
  -20.5721  -26.2317   23.3653 H   0  0  0  0  0  0
  -21.6622  -26.7509   22.1219 H   0  0  0  0  0  0
  -19.6911  -25.6334   21.1244 H   0  0  0  0  0  0
  -19.6611  -27.3238   20.6779 H   0  0  0  0  0  0
  -17.4216  -26.6716   21.4026 H   0  0  0  0  0  0
  -18.0259  -26.0011   22.8989 H   0  0  0  0  0  0
  -19.7933  -30.7240   24.2339 H   0  0  0  0  0  0
  -17.5012  -31.6282   24.5163 H   0  0  0  0  0  0
  -15.5356  -30.3007   23.7614 H   0  0  0  0  0  0
  -15.8643  -28.0781   22.7147 H   0  0  0  0  0  0
  -24.5909  -30.7057   25.7801 H   0  0  0  0  0  0
  -24.8912  -32.2890   26.4858 H   0  0  0  0  0  0
  -25.8042  -30.8934   27.0260 H   0  0  0  0  0  0
  -26.2945  -29.6791   24.1111 H   0  0  0  0  0  0
  -27.4035  -29.7236   25.4626 H   0  0  0  0  0  0
  -27.8768  -30.4330   23.9342 H   0  0  0  0  0  0
  -27.2712  -33.3602   26.2038 H   0  0  0  0  0  0
  -28.3850  -32.6845   25.0274 H   0  0  0  0  0  0
  -28.0744  -31.8437   26.5405 H   0  0  0  0  0  0
  -28.2643  -38.0065   24.7564 H   0  0  0  0  0  0
  -28.1056  -36.2622   24.6277 H   0  0  0  0  0  0
  -27.2299  -37.1378   25.8884 H   0  0  0  0  0  0
  -20.9450  -29.8702   21.6912 H   0  0  0  0  0  0
  -26.0181  -38.2893   24.1453 H   0  0  0  0  0  0
  -31.7473  -18.8498   21.1894 H   0  0  0  0  0  0
  -27.8650  -21.4003   19.5881 H   0  0  0  0  0  0
  -25.2249  -19.0020   17.2747 H   0  0  0  0  0  0
  -26.3203  -17.8466   16.5425 H   0  0  0  0  0  0
  -25.7812  -16.3588   18.2081 H   0  0  0  0  0  0
  -24.8496  -17.5823   19.0500 H   0  0  0  0  0  0
  -30.3850  -24.8962   23.1575 H   0  0  0  0  0  0
  -30.2809  -25.8449   21.6647 H   0  0  0  0  0  0
  -27.9244  -25.3071   22.1425 H   0  0  0  0  0  0
  -28.3595  -23.6866   22.6596 H   0  0  0  0  0  0
  -27.2035  -20.2271   17.7069 H   0  0  0  0  0  0
  -28.2208  -18.8070   17.4875 H   0  0  0  0  0  0
  -27.7272  -16.8629   19.3316 H   0  0  0  0  0  0
  -26.6334  -17.3982   20.6348 H   0  0  0  0  0  0
  -31.1815  -23.1044   22.0636 H   0  0  0  0  0  0
  -31.6216  -24.1845   20.7329 H   0  0  0  0  0  0
  -27.6483  -23.3856   20.3996 H   0  0  0  0  0  0
  -33.1211  -20.5845   20.6333 H   0  0  0  0  0  0
  -32.5487  -21.4871   22.0088 H   0  0  0  0  0  0
  -32.5876  -22.2185   20.3678 H   0  0  0  0  0  0
  -28.8978  -17.0885   21.7931 H   0  0  0  0  0  0
  -30.6008  -17.0393   21.7539 H   0  0  0  0  0  0
  -27.8461  -25.0315   18.7293 H   0  0  0  0  0  0
  -29.5035  -25.2499   19.0386 H   0  0  0  0  0  0
  -28.7414  -15.4621   20.2324 H   0  0  0  0  0  0
  1 25  1  0  0  0
  1 30  2  0  0  0
  1 90  1  0  0  0
  2  3  1  0  0  0
  2 25  1  0  0  0
  2 91  1  0  0  0
  2 92  1  0  0  0
  3  4  1  0  0  0
  3 93  1  0  0  0
  3 94  1  0  0  0
  4  5  1  0  0  0
  4 95  1  0  0  0
  4 96  1  0  0  0
  5  6  1  0  0  0
  5 26  1  0  0  0
  5 97  1  0  0  0
  6 25  1  0  0  0
  6 98  1  0  0  0
  6 99  1  0  0  0
  7  8  2  0  0  0
  7 26  1  0  0  0
  7 29  1  0  0  0
  8  9  1  0  0  0
  8 22  1  0  0  0
  9 10  1  0  0  0
  9 27  2  0  0  0
 10 11  2  0  0  0
 10 15  1  0  0  0
 11 12  1  0  0  0
 11100  1  0  0  0
 12 13  2  0  0  0
 12101  1  0  0  0
 13 14  1  0  0  0
 13 31  1  0  0  0
 14 15  2  0  0  0
 14102  1  0  0  0
 15103  1  0  0  0
 16 17  2  0  0  0
 16 21  1  0  0  0
 16 31  1  0  0  0
 17 18  1  0  0  0
 17104  1  0  0  0
 18 19  2  0  0  0
 18105  1  0  0  0
 19 20  1  0  0  0
 19 24  1  0  0  0
 20 21  2  0  0  0
 20106  1  0  0  0
 21 23  1  0  0  0
 22 28  1  0  0  0
 22 32  2  0  0  0
 26 27  1  0  0  0
 28107  1  0  0  0
 28108  1  0  0  0
 29109  1  0  0  0
 29110  1  0  0  0
 33 34  1  0  0  0
 33 66  1  0  0  0
 33 70  2  0  0  0
 34 36  1  0  0  0
 34 59  1  0  0  0
 34111  1  0  0  0
 35 44  2  0  0  0
 35 45  1  0  0  0
 35 68  1  0  0  0
 36 56  1  0  0  0
 36112  1  0  0  0
 37 39  1  0  0  0
 37 47  1  0  0  0
 37 66  1  0  0  0
 37113  1  0  0  0
 38 43  2  0  0  0
 38 46  1  0  0  0
 38 47  1  0  0  0
 39 64  1  0  0  0
 39 67  2  0  0  0
 40 52  1  0  0  0
 40 53  2  0  0  0
 40 58  1  0  0  0
 41114  1  0  0  0
 41115  1  0  0  0
 41116  1  0  0  0
 41 48  1  0  0  0
 42 43  1  0  0  0
 42 66  1  0  0  0
 42117  1  0  0  0
 42118  1  0  0  0
 43 44  1  0  0  0
 44119  1  0  0  0
 45 46  2  0  0  0
 45120  1  0  0  0
 46121  1  0  0  0
 47122  1  0  0  0
 47123  1  0  0  0
 48 56  1  0  0  0
 48 65  1  0  0  0
 48124  1  0  0  0
 49 50  1  0  0  0
 49 53  1  0  0  0
 49 64  1  0  0  0
 49125  1  0  0  0
 50 51  1  0  0  0
 50126  1  0  0  0
 50127  1  0  0  0
 51 52  1  0  0  0
 51128  1  0  0  0
 51129  1  0  0  0
 52130  1  0  0  0
 52131  1  0  0  0
 53 54  1  0  0  0
 54 55  2  0  0  0
 54132  1  0  0  0
 55 57  1  0  0  0
 55133  1  0  0  0
 56 69  2  0  0  0
 57 58  2  0  0  0
 57134  1  0  0  0
 58135  1  0  0  0
 59 60  1  0  0  0
 59 61  1  0  0  0
 59 62  1  0  0  0
 60136  1  0  0  0
 60137  1  0  0  0
 60138  1  0  0  0
 61139  1  0  0  0
 61140  1  0  0  0
 61141  1  0  0  0
 62142  1  0  0  0
 62143  1  0  0  0
 62144  1  0  0  0
 63 65  1  0  0  0
 63145  1  0  0  0
 63146  1  0  0  0
 63147  1  0  0  0
 64148  1  0  0  0
 65149  1  0  0  0
 68 87  1  0  0  0
 71 73  2  0  0  0
 71 74  1  0  0  0
 71150  1  0  0  0
 72 75  2  0  0  0
 72 76  1  0  0  0
 72151  1  0  0  0
 73 75  1  0  0  0
 73 85  1  0  0  0
 74 76  2  0  0  0
 74 86  1  0  0  0
 75 89  1  0  0  0
 76 88  1  0  0  0
 77 78  1  0  0  0
 77 81  1  0  0  0
 77152  1  0  0  0
 77153  1  0  0  0
 78 82  1  0  0  0
 78154  1  0  0  0
 78155  1  0  0  0
 79 80  1  0  0  0
 79 83  1  0  0  0
 79156  1  0  0  0
 79157  1  0  0  0
 80 84  1  0  0  0
 80158  1  0  0  0
 80159  1  0  0  0
 81 88  1  0  0  0
 81160  1  0  0  0
 81161  1  0  0  0
 82 88  1  0  0  0
 82162  1  0  0  0
 82163  1  0  0  0
 83 89  1  0  0  0
 83164  1  0  0  0
 83165  1  0  0  0
 84 87  1  0  0  0
 84 89  1  0  0  0
 84166  1  0  0  0
 85167  1  0  0  0
 85168  1  0  0  0
 85169  1  0  0  0
 86 90  1  0  0  0
 86170  1  0  0  0
 86171  1  0  0  0
 87172  1  0  0  0
 87173  1  0  0  0
 90174  1  0  0  0
M  ISO  4   1 100  68 101  87 101  90 100
M  END
> <chiral flag>
0

> <version>
0

> <s_m_source_file>
/data/baiqing/PycharmProjects/Reinvent-master-3.2/result/LINK_invent/BTK/process_docking_weight1_custom_product_contain_oxygen_bond_distance_aromatic_linkinvent_7_9_3/rearranged_h_0029.sdf

> <i_m_source_file_index>
21

> <r_mmod_Potential_Energy-OPLS-2005>
440.288330078125

> <r_mmod_Stretch_Energy-OPLS-2005>
105.09545135498

> <r_mmod_Bend_Energy-OPLS-2005>
301.432037353516

> <r_mmod_Torsional_Energy-OPLS-2005>
397.561798095703

> <r_mmod_Improper_Torsional_Energy-OPLS-2005>
19.0088005065918

> <r_mmod_Van_der_Waal_Energy-OPLS-2005>
164.560913085938

> <r_mmod_Electrostatic_Energy-OPLS-2005>
-377.726654052734

> <r_mmod_Solvation_Energy-OPLS-2005>
-237.183227539062

> <b_mmod_Minimization_Converged-OPLS-2005>
0

> <r_mmod_RMS_Derivative-OPLS-2005>
8.53456401824951

$$$$
21
                    3D
 Structure written by MMmdl.
159168  0  0  1  0            999 V2000
  -30.5530  -14.7451   20.3619 C   0  0  0  0  0  0
  -30.4497  -12.4416   19.4229 C   0  0  0  0  0  0
  -29.4890  -12.4750   18.2090 C   0  0  0  0  0  0
  -28.0141  -12.3194   18.6360 C   0  0  0  0  0  0
  -27.6301  -13.2218   19.8433 C   0  0  2  0  0  0
  -28.6994  -13.1108   20.9505 C   0  0  0  0  0  0
  -25.2405  -13.8217   20.5698 C   0  0  0  0  0  0
  -24.1681  -13.0445   20.9340 C   0  0  0  0  0  0
  -24.6241  -11.6954   20.8804 C   0  0  0  0  0  0
  -23.8889  -10.4329   21.0459 C   0  0  0  0  0  0
  -24.3497   -9.4253   21.9175 C   0  0  0  0  0  0
  -23.6214   -8.2267   22.0706 C   0  0  0  0  0  0
  -22.4202   -8.0257   21.3508 C   0  0  0  0  0  0
  -21.9836   -9.0210   20.4612 C   0  0  0  0  0  0
  -22.7114  -10.2121   20.3052 C   0  0  0  0  0  0
  -21.6831   -6.0701   22.5294 C   0  0  0  0  0  0
  -21.3969   -6.5609   23.8222 C   0  0  0  0  0  0
  -21.3675   -5.6765   24.9207 C   0  0  0  0  0  0
  -21.6052   -4.3029   24.7256 C   0  0  0  0  0  0
  -21.8811   -3.8108   23.4393 C   0  0  0  0  0  0
  -21.9163   -4.6925   22.3428 C   0  0  0  0  0  0
  -22.7707  -13.5268   21.1991 C   0  0  0  0  0  0
  -22.1630   -4.2120   21.1006 F   0  0  0  0  0  0
  -21.5650   -3.4507   25.7765 F   0  0  0  0  0  0
  -29.9815  -13.4937   20.3491 N   0  0  0  0  0  0
  -26.2811  -12.9367   20.3313 N   0  0  0  0  0  0
  -25.9180  -11.6533   20.5828 N   0  0  0  0  0  0
  -22.0282  -12.8159   22.0522 N   0  0  0  0  0  0
  -25.3981  -15.1910   20.3836 N   0  0  0  0  0  0
  -31.7605  -14.8664   20.1333 O   0  0  0  0  0  0
  -21.6608   -6.8829   21.4224 O   0  0  0  0  0  0
  -22.3441  -14.5592   20.6918 O   0  0  0  0  0  0
  -24.6412  -31.8452   23.2013 C   0  0  0  0  0  0
  -25.9180  -32.4737   23.8363 C   0  0  1  0  0  0
  -27.2224  -27.2644   20.0373 C   0  0  0  0  0  0
  -25.5956  -33.8531   24.2302 N   0  0  0  0  0  0
  -23.4523  -30.4583   21.5478 C   0  0  2  0  0  0
  -24.8955  -28.9339   20.0851 C   0  0  0  0  0  0
  -22.7554  -29.4455   22.4927 C   0  0  0  0  0  0
  -18.0233  -28.1423   22.8317 C   0  0  0  0  0  0
  -24.1494  -36.7302   23.2638 C   0  0  0  0  0  0
  -25.9985  -30.7372   21.3973 C   0  0  0  0  0  0
  -26.0618  -29.3652   20.7297 C   0  0  0  0  0  0
  -27.2334  -28.5385   20.7050 C   0  0  0  0  0  0
  -26.0919  -27.0091   19.2381 C   0  0  0  0  0  0
  -24.9206  -27.7735   19.3073 C   0  0  0  0  0  0
  -23.6735  -29.8159   20.1554 C   0  0  0  0  0  0
  -25.4102  -36.3062   24.0333 C   0  0  1  0  0  0
  -20.5838  -28.3702   23.1333 C   0  0  2  0  0  0
  -20.6673  -26.9309   22.5692 C   0  0  0  0  0  0
  -19.5791  -26.6298   21.5274 C   0  0  0  0  0  0
  -18.1847  -26.8029   22.1412 C   0  0  0  0  0  0
  -19.1462  -28.8843   23.2827 C   0  0  0  0  0  0
  -18.9345  -30.1468   23.8822 C   0  0  0  0  0  0
  -17.6318  -30.6543   24.0498 C   0  0  0  0  0  0
  -25.9037  -34.9427   23.5106 C   0  0  0  0  0  0
  -16.5236  -29.9043   23.6162 C   0  0  0  0  0  0
  -16.7169  -28.6532   23.0081 C   0  0  0  0  0  0
  -26.4539  -31.6594   25.0784 C   0  0  0  0  0  0
  -25.3734  -31.3715   26.1479 C   0  0  0  0  0  0
  -27.0362  -30.3018   24.6237 C   0  0  0  0  0  0
  -27.6093  -32.4334   25.7612 C   0  0  0  0  0  0
  -27.5574  -37.1826   24.8469 C   0  0  0  0  0  0
  -21.4254  -29.2945   22.3614 N   0  0  0  0  0  0
  -26.4284  -37.3767   23.9395 N   0  0  0  0  0  0
  -24.7171  -31.0282   22.1084 N   0  0  0  0  0  0
  -23.4183  -28.8044   23.3128 O   0  0  0  0  0  0
  -28.2338  -26.2768   20.1364 O   0  0  0  0  0  0
  -26.5570  -34.8921   22.4658 O   0  0  0  0  0  0
  -23.5532  -32.1335   23.7236 O   0  0  0  0  0  0
  -27.1711  -19.1498   22.0315 C   0  0  0  0  0  0
  -27.9847  -18.1544   21.4633 C   0  0  0  0  0  0
  -27.2733  -20.5120   21.6548 C   0  0  0  0  0  0
  -28.9649  -18.4797   20.5062 C   0  0  0  0  0  0
  -28.1773  -20.9391   20.6241 C   0  0  0  0  0  0
  -29.0354  -19.8785   20.0877 C   0  0  0  0  0  0
  -26.6131  -24.1972   20.0601 C   0  0  0  0  0  0
  -26.7555  -22.7353   19.6028 C   0  0  0  0  0  0
  -28.8676  -23.5721   20.2240 C   0  0  0  0  0  0
  -27.9806  -24.8322   19.7194 C   0  0  2  0  0  0
  -26.3644  -21.4592   22.4229 C   0  0  0  0  0  0
  -29.9218  -17.3169   19.9815 C   0  0  0  0  0  0
  -28.0683  -22.2917   20.0650 N   0  0  0  0  0  0
  -29.6938  -15.8387   20.3564 N   0  0  0  0  0  0
  -29.9282  -20.2090   19.1212 F   0  0  0  0  0  0
  -31.4792  -12.5950   19.0862 H   0  0  0  0  0  0
  -30.4420  -11.4633   19.9136 H   0  0  0  0  0  0
  -29.7588  -11.6955   17.4913 H   0  0  0  0  0  0
  -29.5990  -13.4296   17.6890 H   0  0  0  0  0  0
  -27.8473  -11.2714   18.8911 H   0  0  0  0  0  0
  -27.3570  -12.5177   17.7858 H   0  0  0  0  0  0
  -27.6220  -14.2435   19.4623 H   0  0  0  0  0  0
  -28.7606  -12.0781   21.2948 H   0  0  0  0  0  0
  -28.4777  -13.7186   21.8285 H   0  0  0  0  0  0
  -25.2621   -9.5759   22.4778 H   0  0  0  0  0  0
  -23.9989   -7.4648   22.7365 H   0  0  0  0  0  0
  -21.0824   -8.8655   19.8850 H   0  0  0  0  0  0
  -22.3544  -10.9635   19.6169 H   0  0  0  0  0  0
  -21.1912   -7.6101   23.9752 H   0  0  0  0  0  0
  -21.1529   -6.0478   25.9131 H   0  0  0  0  0  0
  -22.0571   -2.7569   23.2895 H   0  0  0  0  0  0
  -22.3835  -11.9865   22.5011 H   0  0  0  0  0  0
  -21.0862  -13.1122   22.2655 H   0  0  0  0  0  0
  -24.6066  -15.8197   20.4830 H   0  0  0  0  0  0
  -26.1712  -15.6085   19.8789 H   0  0  0  0  0  0
  -26.7238  -32.5398   23.1100 H   0  0  0  0  0  0
  -25.0229  -33.9695   25.0537 H   0  0  0  0  0  0
  -22.7522  -31.2823   21.4036 H   0  0  0  0  0  0
  -23.3753  -35.9649   23.3285 H   0  0  0  0  0  0
  -24.3612  -36.8919   22.2058 H   0  0  0  0  0  0
  -23.7276  -37.6509   23.6670 H   0  0  0  0  0  0
  -26.1293  -31.4965   20.6255 H   0  0  0  0  0  0
  -26.8838  -30.7926   22.0215 H   0  0  0  0  0  0
  -28.1365  -28.8429   21.2184 H   0  0  0  0  0  0
  -26.1110  -26.2229   18.5004 H   0  0  0  0  0  0
  -24.0860  -27.5134   18.6713 H   0  0  0  0  0  0
  -23.8223  -30.6038   19.4181 H   0  0  0  0  0  0
  -22.7967  -29.2500   19.8396 H   0  0  0  0  0  0
  -25.1298  -36.1903   25.0829 H   0  0  0  0  0  0
  -20.9859  -28.3416   24.1491 H   0  0  0  0  0  0
  -20.5422  -26.2307   23.3974 H   0  0  0  0  0  0
  -21.6614  -26.7224   22.1726 H   0  0  0  0  0  0
  -19.6714  -25.5965   21.1811 H   0  0  0  0  0  0
  -19.7041  -27.2943   20.6699 H   0  0  0  0  0  0
  -17.4178  -26.6938   21.3695 H   0  0  0  0  0  0
  -18.0092  -26.0089   22.8678 H   0  0  0  0  0  0
  -19.7798  -30.7239   24.2226 H   0  0  0  0  0  0
  -17.4777  -31.6147   24.5219 H   0  0  0  0  0  0
  -15.5212  -30.2822   23.7547 H   0  0  0  0  0  0
  -15.8549  -28.0940   22.6626 H   0  0  0  0  0  0
  -24.5943  -30.7053   25.7778 H   0  0  0  0  0  0
  -24.8899  -32.2844   26.4920 H   0  0  0  0  0  0
  -25.8032  -30.8874   27.0239 H   0  0  0  0  0  0
  -26.2914  -29.6840   24.1208 H   0  0  0  0  0  0
  -27.3970  -29.7224   25.4723 H   0  0  0  0  0  0
  -27.8834  -30.4329   23.9526 H   0  0  0  0  0  0
  -27.2703  -33.3630   26.2196 H   0  0  0  0  0  0
  -28.3957  -32.6856   25.0507 H   0  0  0  0  0  0
  -28.0697  -31.8427   26.5539 H   0  0  0  0  0  0
  -28.2579  -38.0143   24.7497 H   0  0  0  0  0  0
  -28.1090  -36.2642   24.6314 H   0  0  0  0  0  0
  -27.2293  -37.1513   25.8888 H   0  0  0  0  0  0
  -20.9597  -29.8445   21.6560 H   0  0  0  0  0  0
  -26.0138  -38.2835   24.1417 H   0  0  0  0  0  0
  -26.4434  -18.8622   22.7772 H   0  0  0  0  0  0
  -27.8674  -17.1300   21.7858 H   0  0  0  0  0  0
  -26.4436  -24.2754   21.1379 H   0  0  0  0  0  0
  -25.7226  -24.6006   19.5975 H   0  0  0  0  0  0
  -26.7612  -22.6905   18.5048 H   0  0  0  0  0  0
  -25.8970  -22.1483   19.9186 H   0  0  0  0  0  0
  -29.1725  -23.7127   21.2609 H   0  0  0  0  0  0
  -29.7808  -23.5225   19.6284 H   0  0  0  0  0  0
  -28.0403  -24.8405   18.6277 H   0  0  0  0  0  0
  -26.8013  -22.4495   22.4940 H   0  0  0  0  0  0
  -26.1972  -21.0984   23.4372 H   0  0  0  0  0  0
  -25.3723  -21.5228   21.9738 H   0  0  0  0  0  0
  -29.9269  -17.4152   18.8969 H   0  0  0  0  0  0
  -30.9321  -17.5893   20.2683 H   0  0  0  0  0  0
  -28.7268  -15.5833   20.4424 H   0  0  0  0  0  0
  1 25  1  0  0  0
  1 30  2  0  0  0
  1 84  1  0  0  0
  2  3  1  0  0  0
  2 25  1  0  0  0
  2 86  1  0  0  0
  2 87  1  0  0  0
  3  4  1  0  0  0
  3 88  1  0  0  0
  3 89  1  0  0  0
  4  5  1  0  0  0
  4 90  1  0  0  0
  4 91  1  0  0  0
  5  6  1  0  0  0
  5 26  1  0  0  0
  5 92  1  0  0  0
  6 25  1  0  0  0
  6 93  1  0  0  0
  6 94  1  0  0  0
  7  8  2  0  0  0
  7 26  1  0  0  0
  7 29  1  0  0  0
  8  9  1  0  0  0
  8 22  1  0  0  0
  9 10  1  0  0  0
  9 27  2  0  0  0
 10 11  2  0  0  0
 10 15  1  0  0  0
 11 12  1  0  0  0
 11 95  1  0  0  0
 12 13  2  0  0  0
 12 96  1  0  0  0
 13 14  1  0  0  0
 13 31  1  0  0  0
 14 15  2  0  0  0
 14 97  1  0  0  0
 15 98  1  0  0  0
 16 17  2  0  0  0
 16 21  1  0  0  0
 16 31  1  0  0  0
 17 18  1  0  0  0
 17 99  1  0  0  0
 18 19  2  0  0  0
 18100  1  0  0  0
 19 20  1  0  0  0
 19 24  1  0  0  0
 20 21  2  0  0  0
 20101  1  0  0  0
 21 23  1  0  0  0
 22 28  1  0  0  0
 22 32  2  0  0  0
 26 27  1  0  0  0
 28102  1  0  0  0
 28103  1  0  0  0
 29104  1  0  0  0
 29105  1  0  0  0
 33 34  1  0  0  0
 33 66  1  0  0  0
 33 70  2  0  0  0
 34 36  1  0  0  0
 34 59  1  0  0  0
 34106  1  0  0  0
 35 44  2  0  0  0
 35 45  1  0  0  0
 35 68  1  0  0  0
 36 56  1  0  0  0
 36107  1  0  0  0
 37 39  1  0  0  0
 37 47  1  0  0  0
 37 66  1  0  0  0
 37108  1  0  0  0
 38 43  2  0  0  0
 38 46  1  0  0  0
 38 47  1  0  0  0
 39 64  1  0  0  0
 39 67  2  0  0  0
 40 52  1  0  0  0
 40 53  2  0  0  0
 40 58  1  0  0  0
 41109  1  0  0  0
 41110  1  0  0  0
 41111  1  0  0  0
 41 48  1  0  0  0
 42 43  1  0  0  0
 42 66  1  0  0  0
 42112  1  0  0  0
 42113  1  0  0  0
 43 44  1  0  0  0
 44114  1  0  0  0
 45 46  2  0  0  0
 45115  1  0  0  0
 46116  1  0  0  0
 47117  1  0  0  0
 47118  1  0  0  0
 48 56  1  0  0  0
 48 65  1  0  0  0
 48119  1  0  0  0
 49 50  1  0  0  0
 49 53  1  0  0  0
 49 64  1  0  0  0
 49120  1  0  0  0
 50 51  1  0  0  0
 50121  1  0  0  0
 50122  1  0  0  0
 51 52  1  0  0  0
 51123  1  0  0  0
 51124  1  0  0  0
 52125  1  0  0  0
 52126  1  0  0  0
 53 54  1  0  0  0
 54 55  2  0  0  0
 54127  1  0  0  0
 55 57  1  0  0  0
 55128  1  0  0  0
 56 69  2  0  0  0
 57 58  2  0  0  0
 57129  1  0  0  0
 58130  1  0  0  0
 59 60  1  0  0  0
 59 61  1  0  0  0
 59 62  1  0  0  0
 60131  1  0  0  0
 60132  1  0  0  0
 60133  1  0  0  0
 61134  1  0  0  0
 61135  1  0  0  0
 61136  1  0  0  0
 62137  1  0  0  0
 62138  1  0  0  0
 62139  1  0  0  0
 63 65  1  0  0  0
 63140  1  0  0  0
 63141  1  0  0  0
 63142  1  0  0  0
 64143  1  0  0  0
 65144  1  0  0  0
 68 80  1  0  0  0
 71 72  2  0  0  0
 71 73  1  0  0  0
 71145  1  0  0  0
 72 74  1  0  0  0
 72146  1  0  0  0
 73 75  2  0  0  0
 73 81  1  0  0  0
 74 76  2  0  0  0
 74 82  1  0  0  0
 75 76  1  0  0  0
 75 83  1  0  0  0
 76 85  1  0  0  0
 77 78  1  0  0  0
 77 80  1  0  0  0
 77147  1  0  0  0
 77148  1  0  0  0
 78 83  1  0  0  0
 78149  1  0  0  0
 78150  1  0  0  0
 79 80  1  0  0  0
 79 83  1  0  0  0
 79151  1  0  0  0
 79152  1  0  0  0
 80153  1  0  0  0
 81154  1  0  0  0
 81155  1  0  0  0
 81156  1  0  0  0
 82 84  1  0  0  0
 82157  1  0  0  0
 82158  1  0  0  0
 84159  1  0  0  0
M  ISO  4   1 100  68 101  80 101  84 100
M  END
> <chiral flag>
0

> <version>
0

> <s_m_source_file>
/data/baiqing/PycharmProjects/Reinvent-master-3.2/result/LINK_invent/BTK/process_docking_weight1_custom_product_contain_oxygen_bond_distance_aromatic_linkinvent_7_9_3/rearranged_h_0029.sdf

> <i_m_source_file_index>
22

> <r_mmod_Potential_Energy-OPLS-2005>
376.330718994141

> <r_mmod_Stretch_Energy-OPLS-2005>
139.012756347656

> <r_mmod_Bend_Energy-OPLS-2005>
242.426162719727

> <r_mmod_Torsional_Energy-OPLS-2005>
291.968566894531

> <r_mmod_Improper_Torsional_Energy-OPLS-2005>
10.7658281326294

> <r_mmod_Van_der_Waal_Energy-OPLS-2005>
149.964508056641

> <r_mmod_Electrostatic_Energy-OPLS-2005>
-358.120513916016

> <r_mmod_Solvation_Energy-OPLS-2005>
-215.717010498047

> <b_mmod_Minimization_Converged-OPLS-2005>
0

> <r_mmod_RMS_Derivative-OPLS-2005>
11.2517251968384

$$$$
22
                    3D
 Structure written by MMmdl.
157166  0  0  1  0            999 V2000
  -30.5009  -15.2329   20.3815 C   0  0  0  0  0  0
  -30.4244  -12.7835   19.5474 C   0  0  0  0  0  0
  -29.5371  -12.5805   18.2940 C   0  0  0  0  0  0
  -28.0807  -12.3130   18.7080 C   0  0  0  0  0  0
  -27.6074  -13.2856   19.8181 C   0  0  2  0  0  0
  -28.6320  -13.4773   20.9562 C   0  0  0  0  0  0
  -25.2365  -13.8284   20.5752 C   0  0  0  0  0  0
  -24.1724  -13.0453   20.9240 C   0  0  0  0  0  0
  -24.6393  -11.6949   20.8730 C   0  0  0  0  0  0
  -23.9114  -10.4288   21.0378 C   0  0  0  0  0  0
  -24.3655   -9.4207   21.9177 C   0  0  0  0  0  0
  -23.6314   -8.2244   22.0758 C   0  0  0  0  0  0
  -22.4293   -8.0278   21.3543 C   0  0  0  0  0  0
  -21.9929   -9.0256   20.4652 C   0  0  0  0  0  0
  -22.7267  -10.2128   20.3050 C   0  0  0  0  0  0
  -21.6857   -6.0734   22.5277 C   0  0  0  0  0  0
  -21.4013   -6.5645   23.8207 C   0  0  0  0  0  0
  -21.3660   -5.6799   24.9173 C   0  0  0  0  0  0
  -21.6042   -4.3064   24.7225 C   0  0  0  0  0  0
  -21.8820   -3.8150   23.4347 C   0  0  0  0  0  0
  -21.9195   -4.6958   22.3398 C   0  0  0  0  0  0
  -22.7733  -13.5185   21.1889 C   0  0  0  0  0  0
  -22.1669   -4.2147   21.0972 F   0  0  0  0  0  0
  -21.5630   -3.4551   25.7743 F   0  0  0  0  0  0
  -29.8846  -13.9484   20.3493 N   0  0  0  0  0  0
  -26.2786  -12.9579   20.3175 N   0  0  0  0  0  0
  -25.9334  -11.6672   20.5687 N   0  0  0  0  0  0
  -22.0420  -12.8148   22.0450 N   0  0  0  0  0  0
  -25.4014  -15.2015   20.4246 N   0  0  0  0  0  0
  -31.7156  -15.1397   20.1512 O   0  0  0  0  0  0
  -21.6646   -6.8876   21.4241 O   0  0  0  0  0  0
  -22.3393  -14.5493   20.6751 O   0  0  0  0  0  0
  -24.6597  -31.8243   23.1734 C   0  0  0  0  0  0
  -25.9311  -32.4595   23.8160 C   0  0  1  0  0  0
  -27.2237  -26.9531   20.1970 C   0  0  0  0  0  0
  -25.6009  -33.8397   24.2088 N   0  0  0  0  0  0
  -23.4714  -30.4370   21.5198 C   0  0  2  0  0  0
  -24.9250  -28.8223   20.1136 C   0  0  0  0  0  0
  -22.7631  -29.4436   22.4781 C   0  0  0  0  0  0
  -18.0311  -28.1398   22.8474 C   0  0  0  0  0  0
  -24.1476  -36.7188   23.2644 C   0  0  0  0  0  0
  -26.0364  -30.6416   21.3955 C   0  0  0  0  0  0
  -26.1048  -29.2309   20.7457 C   0  0  0  0  0  0
  -27.2449  -28.3177   20.7667 C   0  0  0  0  0  0
  -26.0180  -26.6888   19.5099 C   0  0  0  0  0  0
  -24.9048  -27.5704   19.4733 C   0  0  0  0  0  0
  -23.7109  -29.7478   20.1464 C   0  0  0  0  0  0
  -25.4122  -36.2962   24.0302 C   0  0  1  0  0  0
  -20.5931  -28.3746   23.1181 C   0  0  2  0  0  0
  -20.6788  -26.9426   22.5393 C   0  0  0  0  0  0
  -19.5764  -26.6377   21.5203 C   0  0  0  0  0  0
  -18.1948  -26.7936   22.1626 C   0  0  0  0  0  0
  -19.1569  -28.8899   23.2819 C   0  0  0  0  0  0
  -18.9488  -30.1494   23.8847 C   0  0  0  0  0  0
  -17.6490  -30.6597   24.0561 C   0  0  0  0  0  0
  -25.9099  -34.9349   23.5009 C   0  0  0  0  0  0
  -16.5378  -29.9085   23.6343 C   0  0  0  0  0  0
  -16.7298  -28.6501   23.0369 C   0  0  0  0  0  0
  -26.4561  -31.6527   25.0673 C   0  0  0  0  0  0
  -25.3703  -31.3797   26.1359 C   0  0  0  0  0  0
  -27.0440  -30.2892   24.6389 C   0  0  0  0  0  0
  -27.6076  -32.4310   25.7476 C   0  0  0  0  0  0
  -27.5552  -37.1764   24.8460 C   0  0  0  0  0  0
  -21.4317  -29.3015   22.3517 N   0  0  0  0  0  0
  -26.4267  -37.3704   23.9404 N   0  0  0  0  0  0
  -24.7429  -30.9939   22.0835 N   0  0  0  0  0  0
  -23.4207  -28.8050   23.3029 O   0  0  0  0  0  0
  -28.2442  -25.8810   20.3206 O   0  0  0  0  0  0
  -26.5680  -34.8901   22.4586 O   0  0  0  0  0  0
  -23.5688  -32.1208   23.6853 O   0  0  0  0  0  0
  -28.7704  -17.4309   19.8838 C   0  0  0  0  0  0
  -28.4022  -18.8719   19.8654 C   0  0  0  0  0  0
  -29.9206  -16.8170   20.5295 C   0  0  0  0  0  0
  -30.6359  -17.9509   21.1515 C   0  0  0  0  0  0
  -30.3123  -19.4212   21.0390 C   0  0  0  0  0  0
  -29.1343  -20.0136   20.4076 C   0  0  0  0  0  0
  -27.0460  -23.4117   20.7629 C   0  0  0  0  0  0
  -27.2467  -21.8668   20.3957 C   0  0  0  0  0  0
  -29.2585  -22.9750   20.2849 C   0  0  0  0  0  0
  -28.1370  -24.2627   20.0579 C   0  0  2  0  0  0
  -31.7970  -17.5569   22.0666 C   0  0  0  0  0  0
  -31.2779  -20.4579   21.6131 C   0  0  0  0  0  0
  -28.6760  -21.5028   20.3428 N   0  0  0  0  0  0
  -31.4542  -12.9441   19.2247 H   0  0  0  0  0  0
  -30.4507  -11.8753   20.1530 H   0  0  0  0  0  0
  -29.9114  -11.7553   17.6859 H   0  0  0  0  0  0
  -29.5867  -13.4727   17.6678 H   0  0  0  0  0  0
  -28.0227  -11.2862   19.0709 H   0  0  0  0  0  0
  -27.4215  -12.3725   17.8402 H   0  0  0  0  0  0
  -27.5216  -14.2513   19.3206 H   0  0  0  0  0  0
  -28.7781  -12.5580   21.5239 H   0  0  0  0  0  0
  -28.2732  -14.2246   21.6653 H   0  0  0  0  0  0
  -25.2807   -9.5692   22.4749 H   0  0  0  0  0  0
  -24.0026   -7.4636   22.7484 H   0  0  0  0  0  0
  -21.0858   -8.8775   19.8957 H   0  0  0  0  0  0
  -22.3724  -10.9666   19.6158 H   0  0  0  0  0  0
  -21.2003   -7.6155   23.9709 H   0  0  0  0  0  0
  -21.1487   -6.0534   25.9073 H   0  0  0  0  0  0
  -22.0597   -2.7616   23.2851 H   0  0  0  0  0  0
  -22.4094  -11.9837   22.4842 H   0  0  0  0  0  0
  -21.1027  -13.1131   22.2680 H   0  0  0  0  0  0
  -24.6398  -15.8569   20.5590 H   0  0  0  0  0  0
  -26.2653  -15.6481   20.1505 H   0  0  0  0  0  0
  -26.7382  -32.5150   23.0876 H   0  0  0  0  0  0
  -25.0165  -33.9433   25.0253 H   0  0  0  0  0  0
  -22.7842  -31.2684   21.3480 H   0  0  0  0  0  0
  -23.3756  -35.9493   23.3278 H   0  0  0  0  0  0
  -24.3578  -36.8860   22.2068 H   0  0  0  0  0  0
  -23.7225  -37.6380   23.6694 H   0  0  0  0  0  0
  -26.2045  -31.3804   20.6113 H   0  0  0  0  0  0
  -26.9028  -30.7052   22.0426 H   0  0  0  0  0  0
  -28.1355  -28.6244   21.2972 H   0  0  0  0  0  0
  -25.9028  -25.7306   19.0246 H   0  0  0  0  0  0
  -24.0084  -27.2499   18.9635 H   0  0  0  0  0  0
  -23.8700  -30.5121   19.3840 H   0  0  0  0  0  0
  -22.8199  -29.2018   19.8311 H   0  0  0  0  0  0
  -25.1316  -36.1759   25.0797 H   0  0  0  0  0  0
  -21.0037  -28.3365   24.1298 H   0  0  0  0  0  0
  -20.5628  -26.2375   23.3646 H   0  0  0  0  0  0
  -21.6675  -26.7381   22.1225 H   0  0  0  0  0  0
  -19.6927  -25.6270   21.1277 H   0  0  0  0  0  0
  -19.6712  -27.3159   20.6708 H   0  0  0  0  0  0
  -17.4216  -26.6671   21.4029 H   0  0  0  0  0  0
  -18.0348  -26.0075   22.9016 H   0  0  0  0  0  0
  -19.7959  -30.7309   24.2203 H   0  0  0  0  0  0
  -17.5038  -31.6280   24.5164 H   0  0  0  0  0  0
  -15.5375  -30.2986   23.7674 H   0  0  0  0  0  0
  -15.8697  -28.0811   22.7109 H   0  0  0  0  0  0
  -24.5908  -30.7098   25.7705 H   0  0  0  0  0  0
  -24.8874  -32.3007   26.4619 H   0  0  0  0  0  0
  -25.7988  -30.9119   27.0231 H   0  0  0  0  0  0
  -26.3096  -29.6601   24.1361 H   0  0  0  0  0  0
  -27.3916  -29.7234   25.5037 H   0  0  0  0  0  0
  -27.9056  -30.4053   23.9824 H   0  0  0  0  0  0
  -27.2673  -33.3655   26.1936 H   0  0  0  0  0  0
  -28.3989  -32.6795   25.0388 H   0  0  0  0  0  0
  -28.0624  -31.8515   26.5522 H   0  0  0  0  0  0
  -28.2570  -38.0052   24.7517 H   0  0  0  0  0  0
  -28.1065  -36.2606   24.6286 H   0  0  0  0  0  0
  -27.2285  -37.1413   25.8865 H   0  0  0  0  0  0
  -20.9574  -29.8730   21.6683 H   0  0  0  0  0  0
  -26.0112  -38.2756   24.1445 H   0  0  0  0  0  0
  -28.1127  -16.7660   19.3424 H   0  0  0  0  0  0
  -27.4861  -19.1075   19.3435 H   0  0  0  0  0  0
  -27.1492  -23.5320   21.8435 H   0  0  0  0  0  0
  -26.0423  -23.7522   20.5036 H   0  0  0  0  0  0
  -26.8142  -21.6682   19.4138 H   0  0  0  0  0  0
  -26.7171  -21.2318   21.1079 H   0  0  0  0  0  0
  -29.7838  -23.1517   21.2245 H   0  0  0  0  0  0
  -30.0220  -23.0307   19.5120 H   0  0  0  0  0  0
  -27.8899  -24.2284   18.9959 H   0  0  0  0  0  0
  -31.7021  -16.5337   22.4301 H   0  0  0  0  0  0
  -31.8072  -18.1588   22.9752 H   0  0  0  0  0  0
  -32.7591  -17.6496   21.5650 H   0  0  0  0  0  0
  -30.7730  -21.0841   22.3505 H   0  0  0  0  0  0
  -31.6097  -21.1138   20.8064 H   0  0  0  0  0  0
  -32.1802  -20.0598   22.0701 H   0  0  0  0  0  0
  1 25  1  0  0  0
  1 30  2  0  0  0
  1 73  1  0  0  0
  2  3  1  0  0  0
  2 25  1  0  0  0
  2 84  1  0  0  0
  2 85  1  0  0  0
  3  4  1  0  0  0
  3 86  1  0  0  0
  3 87  1  0  0  0
  4  5  1  0  0  0
  4 88  1  0  0  0
  4 89  1  0  0  0
  5  6  1  0  0  0
  5 26  1  0  0  0
  5 90  1  0  0  0
  6 25  1  0  0  0
  6 91  1  0  0  0
  6 92  1  0  0  0
  7  8  2  0  0  0
  7 26  1  0  0  0
  7 29  1  0  0  0
  8  9  1  0  0  0
  8 22  1  0  0  0
  9 10  1  0  0  0
  9 27  2  0  0  0
 10 11  2  0  0  0
 10 15  1  0  0  0
 11 12  1  0  0  0
 11 93  1  0  0  0
 12 13  2  0  0  0
 12 94  1  0  0  0
 13 14  1  0  0  0
 13 31  1  0  0  0
 14 15  2  0  0  0
 14 95  1  0  0  0
 15 96  1  0  0  0
 16 17  2  0  0  0
 16 21  1  0  0  0
 16 31  1  0  0  0
 17 18  1  0  0  0
 17 97  1  0  0  0
 18 19  2  0  0  0
 18 98  1  0  0  0
 19 20  1  0  0  0
 19 24  1  0  0  0
 20 21  2  0  0  0
 20 99  1  0  0  0
 21 23  1  0  0  0
 22 28  1  0  0  0
 22 32  2  0  0  0
 26 27  1  0  0  0
 28100  1  0  0  0
 28101  1  0  0  0
 29102  1  0  0  0
 29103  1  0  0  0
 33 34  1  0  0  0
 33 66  1  0  0  0
 33 70  2  0  0  0
 34 36  1  0  0  0
 34 59  1  0  0  0
 34104  1  0  0  0
 35 44  2  0  0  0
 35 45  1  0  0  0
 35 68  1  0  0  0
 36 56  1  0  0  0
 36105  1  0  0  0
 37 39  1  0  0  0
 37 47  1  0  0  0
 37 66  1  0  0  0
 37106  1  0  0  0
 38 43  2  0  0  0
 38 46  1  0  0  0
 38 47  1  0  0  0
 39 64  1  0  0  0
 39 67  2  0  0  0
 40 52  1  0  0  0
 40 53  2  0  0  0
 40 58  1  0  0  0
 41107  1  0  0  0
 41108  1  0  0  0
 41109  1  0  0  0
 41 48  1  0  0  0
 42 43  1  0  0  0
 42 66  1  0  0  0
 42110  1  0  0  0
 42111  1  0  0  0
 43 44  1  0  0  0
 44112  1  0  0  0
 45 46  2  0  0  0
 45113  1  0  0  0
 46114  1  0  0  0
 47115  1  0  0  0
 47116  1  0  0  0
 48 56  1  0  0  0
 48 65  1  0  0  0
 48117  1  0  0  0
 49 50  1  0  0  0
 49 53  1  0  0  0
 49 64  1  0  0  0
 49118  1  0  0  0
 50 51  1  0  0  0
 50119  1  0  0  0
 50120  1  0  0  0
 51 52  1  0  0  0
 51121  1  0  0  0
 51122  1  0  0  0
 52123  1  0  0  0
 52124  1  0  0  0
 53 54  1  0  0  0
 54 55  2  0  0  0
 54125  1  0  0  0
 55 57  1  0  0  0
 55126  1  0  0  0
 56 69  2  0  0  0
 57 58  2  0  0  0
 57127  1  0  0  0
 58128  1  0  0  0
 59 60  1  0  0  0
 59 61  1  0  0  0
 59 62  1  0  0  0
 60129  1  0  0  0
 60130  1  0  0  0
 60131  1  0  0  0
 61132  1  0  0  0
 61133  1  0  0  0
 61134  1  0  0  0
 62135  1  0  0  0
 62136  1  0  0  0
 62137  1  0  0  0
 63 65  1  0  0  0
 63138  1  0  0  0
 63139  1  0  0  0
 63140  1  0  0  0
 64141  1  0  0  0
 65142  1  0  0  0
 68 80  1  0  0  0
 71 72  2  0  0  0
 71 73  1  0  0  0
 71143  1  0  0  0
 72 76  1  0  0  0
 72144  1  0  0  0
 73 74  2  0  0  0
 74 75  1  0  0  0
 74 81  1  0  0  0
 75 76  2  0  0  0
 75 82  1  0  0  0
 76 83  1  0  0  0
 77 78  1  0  0  0
 77 80  1  0  0  0
 77145  1  0  0  0
 77146  1  0  0  0
 78 83  1  0  0  0
 78147  1  0  0  0
 78148  1  0  0  0
 79 80  1  0  0  0
 79 83  1  0  0  0
 79149  1  0  0  0
 79150  1  0  0  0
 80151  1  0  0  0
 81152  1  0  0  0
 81153  1  0  0  0
 81154  1  0  0  0
 82155  1  0  0  0
 82156  1  0  0  0
 82157  1  0  0  0
M  ISO  4   1 100  68 101  73 100  80 101
M  END
> <chiral flag>
0

> <version>
0

> <s_m_source_file>
/data/baiqing/PycharmProjects/Reinvent-master-3.2/result/LINK_invent/BTK/process_docking_weight1_custom_product_contain_oxygen_bond_distance_aromatic_linkinvent_7_9_3/rearranged_h_0029.sdf

> <i_m_source_file_index>
23

> <r_mmod_Potential_Energy-OPLS-2005>
1232.42883300781

> <r_mmod_Stretch_Energy-OPLS-2005>
454.832092285156

> <r_mmod_Bend_Energy-OPLS-2005>
483.163269042969

> <r_mmod_Torsional_Energy-OPLS-2005>
248.87321472168

> <r_mmod_Improper_Torsional_Energy-OPLS-2005>
3.72425055503845

> <r_mmod_Van_der_Waal_Energy-OPLS-2005>
131.58088684082

> <r_mmod_Electrostatic_Energy-OPLS-2005>
-296.720794677734

> <r_mmod_Solvation_Energy-OPLS-2005>
-209.689834594727

> <b_mmod_Minimization_Converged-OPLS-2005>
0

> <r_mmod_RMS_Derivative-OPLS-2005>
3.8743577003479

$$$$
23
                    3D
 Structure written by MMmdl.
156165  0  0  1  0            999 V2000
  -30.6043  -14.8308   20.4841 C   0  0  0  0  0  0
  -30.4211  -12.5102   19.5178 C   0  0  0  0  0  0
  -29.5044  -12.5387   18.2704 C   0  0  0  0  0  0
  -28.0289  -12.3537   18.6642 C   0  0  0  0  0  0
  -27.6320  -13.2523   19.8672 C   0  0  2  0  0  0
  -28.6748  -13.2141   21.0089 C   0  0  0  0  0  0
  -25.2437  -13.8256   20.5867 C   0  0  0  0  0  0
  -24.1713  -13.0465   20.9299 C   0  0  0  0  0  0
  -24.6326  -11.6961   20.8804 C   0  0  0  0  0  0
  -23.9036  -10.4302   21.0398 C   0  0  0  0  0  0
  -24.3604   -9.4236   21.9174 C   0  0  0  0  0  0
  -23.6298   -8.2249   22.0755 C   0  0  0  0  0  0
  -22.4289   -8.0282   21.3534 C   0  0  0  0  0  0
  -21.9909   -9.0231   20.4636 C   0  0  0  0  0  0
  -22.7221  -10.2125   20.3040 C   0  0  0  0  0  0
  -21.6849   -6.0761   22.5296 C   0  0  0  0  0  0
  -21.4004   -6.5668   23.8230 C   0  0  0  0  0  0
  -21.3663   -5.6827   24.9178 C   0  0  0  0  0  0
  -21.6039   -4.3089   24.7248 C   0  0  0  0  0  0
  -21.8792   -3.8194   23.4369 C   0  0  0  0  0  0
  -21.9169   -4.6988   22.3432 C   0  0  0  0  0  0
  -22.7725  -13.5248   21.1920 C   0  0  0  0  0  0
  -22.1657   -4.2189   21.0989 F   0  0  0  0  0  0
  -21.5617   -3.4558   25.7756 F   0  0  0  0  0  0
  -29.9747  -13.5930   20.4392 N   0  0  0  0  0  0
  -26.2861  -12.9485   20.3441 N   0  0  0  0  0  0
  -25.9272  -11.6628   20.5835 N   0  0  0  0  0  0
  -22.0399  -12.8190   22.0468 N   0  0  0  0  0  0
  -25.4093  -15.1966   20.4356 N   0  0  0  0  0  0
  -31.7727  -14.9043   20.0923 O   0  0  0  0  0  0
  -21.6645   -6.8886   21.4252 O   0  0  0  0  0  0
  -22.3378  -14.5524   20.6740 O   0  0  0  0  0  0
  -24.6354  -31.8441   23.1914 C   0  0  0  0  0  0
  -25.9182  -32.4661   23.8285 C   0  0  1  0  0  0
  -27.2532  -27.2064   20.1425 C   0  0  0  0  0  0
  -25.5970  -33.8469   24.2177 N   0  0  0  0  0  0
  -23.4332  -30.4624   21.5314 C   0  0  2  0  0  0
  -24.8906  -28.8881   20.1115 C   0  0  0  0  0  0
  -22.7479  -29.4568   22.4862 C   0  0  0  0  0  0
  -18.0283  -28.1421   22.8460 C   0  0  0  0  0  0
  -24.1503  -36.7241   23.2636 C   0  0  0  0  0  0
  -25.9817  -30.7379   21.3808 C   0  0  0  0  0  0
  -26.0585  -29.3523   20.7290 C   0  0  0  0  0  0
  -27.2314  -28.5218   20.7380 C   0  0  0  0  0  0
  -26.0578  -26.8192   19.4955 C   0  0  0  0  0  0
  -24.8985  -27.6299   19.4843 C   0  0  0  0  0  0
  -23.6574  -29.7788   20.1528 C   0  0  0  0  0  0
  -25.4124  -36.2976   24.0298 C   0  0  1  0  0  0
  -20.5883  -28.3727   23.1236 C   0  0  2  0  0  0
  -20.6783  -26.9441   22.5401 C   0  0  0  0  0  0
  -19.5779  -26.6385   21.5203 C   0  0  0  0  0  0
  -18.1946  -26.7958   22.1592 C   0  0  0  0  0  0
  -19.1541  -28.8884   23.2851 C   0  0  0  0  0  0
  -18.9475  -30.1473   23.8871 C   0  0  0  0  0  0
  -17.6483  -30.6613   24.0555 C   0  0  0  0  0  0
  -25.9075  -34.9364   23.5027 C   0  0  0  0  0  0
  -16.5365  -29.9100   23.6358 C   0  0  0  0  0  0
  -16.7274  -28.6529   23.0363 C   0  0  0  0  0  0
  -26.4559  -31.6532   25.0709 C   0  0  0  0  0  0
  -25.3777  -31.3721   26.1429 C   0  0  0  0  0  0
  -27.0413  -30.2912   24.6293 C   0  0  0  0  0  0
  -27.6090  -32.4271   25.7495 C   0  0  0  0  0  0
  -27.5562  -37.1769   24.8447 C   0  0  0  0  0  0
  -21.4192  -29.3042   22.3600 N   0  0  0  0  0  0
  -26.4258  -37.3704   23.9407 N   0  0  0  0  0  0
  -24.7023  -31.0340   22.0920 N   0  0  0  0  0  0
  -23.4135  -28.8137   23.3022 O   0  0  0  0  0  0
  -28.3759  -26.3229   20.2205 O   0  0  0  0  0  0
  -26.5651  -34.8862   22.4596 O   0  0  0  0  0  0
  -23.5494  -32.1313   23.7166 O   0  0  0  0  0  0
  -29.4089  -20.0982   20.2170 C   0  0  0  0  0  0
  -30.5710  -20.3661   22.6762 C   0  0  0  0  0  0
  -29.9647  -18.8757   20.8333 C   0  0  0  0  0  0
  -30.6099  -19.0900   22.0744 C   0  0  0  0  0  0
  -29.3995  -21.4757   20.7629 C   0  0  0  0  0  0
  -29.9877  -21.5021   22.0672 C   0  0  0  0  0  0
  -29.7000  -23.9752   19.9265 C   0  0  0  0  0  0
  -27.8481  -23.6486   20.6570 C   0  0  0  0  0  0
  -28.3897  -24.8534   19.7870 C   0  0  0  0  0  0
  -31.4293  -18.0013   22.7599 C   0  0  0  0  0  0
  -30.0423  -17.4172   20.1124 C   0  0  0  0  0  0
  -28.8781  -22.7291   20.0686 N   0  0  0  0  0  0
  -29.8874  -16.0061   20.7547 N   0  0  0  0  0  0
  -30.0812  -22.9550   23.0040 Cl  0  0  0  0  0  0
  -31.4610  -12.6299   19.2169 H   0  0  0  0  0  0
  -30.3728  -11.5413   20.0195 H   0  0  0  0  0  0
  -29.8039  -11.7621   17.5676 H   0  0  0  0  0  0
  -29.6263  -13.4864   17.7444 H   0  0  0  0  0  0
  -27.8700  -11.3018   18.9094 H   0  0  0  0  0  0
  -27.3779  -12.5625   17.8109 H   0  0  0  0  0  0
  -27.6138  -14.2719   19.4847 H   0  0  0  0  0  0
  -28.7203  -12.2215   21.4543 H   0  0  0  0  0  0
  -28.3940  -13.9023   21.8088 H   0  0  0  0  0  0
  -25.2713   -9.5777   22.4795 H   0  0  0  0  0  0
  -24.0030   -7.4641   22.7464 H   0  0  0  0  0  0
  -21.0846   -8.8692   19.8943 H   0  0  0  0  0  0
  -22.3604  -10.9648   19.6159 H   0  0  0  0  0  0
  -21.2009   -7.6178   23.9758 H   0  0  0  0  0  0
  -21.1505   -6.0562   25.9086 H   0  0  0  0  0  0
  -22.0567   -2.7659   23.2859 H   0  0  0  0  0  0
  -22.4043  -11.9829   22.4788 H   0  0  0  0  0  0
  -21.0991  -13.1144   22.2718 H   0  0  0  0  0  0
  -24.6459  -15.8556   20.5502 H   0  0  0  0  0  0
  -26.2683  -15.6429   20.1457 H   0  0  0  0  0  0
  -26.7238  -32.5272   23.1017 H   0  0  0  0  0  0
  -25.0133  -33.9632   25.0328 H   0  0  0  0  0  0
  -22.7369  -31.2874   21.3722 H   0  0  0  0  0  0
  -23.3748  -35.9586   23.3243 H   0  0  0  0  0  0
  -24.3591  -36.8942   22.2058 H   0  0  0  0  0  0
  -23.7304  -37.6429   23.6739 H   0  0  0  0  0  0
  -26.1204  -31.4941   20.6065 H   0  0  0  0  0  0
  -26.8554  -30.7903   22.0187 H   0  0  0  0  0  0
  -28.1142  -28.8688   21.2559 H   0  0  0  0  0  0
  -25.9967  -25.8560   19.0123 H   0  0  0  0  0  0
  -24.0059  -27.2647   18.9951 H   0  0  0  0  0  0
  -23.7759  -30.5462   19.3867 H   0  0  0  0  0  0
  -22.7787  -29.2038   19.8514 H   0  0  0  0  0  0
  -25.1337  -36.1758   25.0789 H   0  0  0  0  0  0
  -20.9967  -28.3337   24.1358 H   0  0  0  0  0  0
  -20.5680  -26.2349   23.3625 H   0  0  0  0  0  0
  -21.6666  -26.7487   22.1206 H   0  0  0  0  0  0
  -19.6958  -25.6278   21.1282 H   0  0  0  0  0  0
  -19.6749  -27.3163   20.6715 H   0  0  0  0  0  0
  -17.4225  -26.6679   21.3988 H   0  0  0  0  0  0
  -18.0362  -26.0103   22.8997 H   0  0  0  0  0  0
  -19.7961  -30.7295   24.2215 H   0  0  0  0  0  0
  -17.5055  -31.6313   24.5152 H   0  0  0  0  0  0
  -15.5376  -30.3013   23.7731 H   0  0  0  0  0  0
  -15.8659  -28.0862   22.7092 H   0  0  0  0  0  0
  -24.5899  -30.7148   25.7759 H   0  0  0  0  0  0
  -24.9073  -32.2913   26.4904 H   0  0  0  0  0  0
  -25.8075  -30.8835   27.0179 H   0  0  0  0  0  0
  -26.3035  -29.6596   24.1327 H   0  0  0  0  0  0
  -27.4046  -29.7248   25.4890 H   0  0  0  0  0  0
  -27.8942  -30.4122   23.9601 H   0  0  0  0  0  0
  -27.2708  -33.3565   26.2073 H   0  0  0  0  0  0
  -28.3937  -32.6805   25.0360 H   0  0  0  0  0  0
  -28.0733  -31.8388   26.5424 H   0  0  0  0  0  0
  -28.2531  -38.0108   24.7483 H   0  0  0  0  0  0
  -28.1106  -36.2620   24.6269 H   0  0  0  0  0  0
  -27.2281  -37.1410   25.8852 H   0  0  0  0  0  0
  -20.9381  -29.8695   21.6746 H   0  0  0  0  0  0
  -26.0088  -38.2741   24.1460 H   0  0  0  0  0  0
  -28.9854  -19.9705   19.2281 H   0  0  0  0  0  0
  -31.0409  -20.5072   23.6397 H   0  0  0  0  0  0
  -30.2795  -24.2393   20.8075 H   0  0  0  0  0  0
  -30.3501  -23.9767   19.0488 H   0  0  0  0  0  0
  -26.8228  -23.3638   20.4199 H   0  0  0  0  0  0
  -27.9643  -23.8353   21.7212 H   0  0  0  0  0  0
  -28.0517  -24.7900   18.7502 H   0  0  0  0  0  0
  -32.1243  -18.4280   23.4908 H   0  0  0  0  0  0
  -32.0390  -17.4672   22.0333 H   0  0  0  0  0  0
  -30.7896  -17.2867   23.2808 H   0  0  0  0  0  0
  -30.9962  -17.4141   19.5825 H   0  0  0  0  0  0
  -29.2868  -17.4355   19.3239 H   0  0  0  0  0  0
  -28.9948  -15.8566   21.2040 H   0  0  0  0  0  0
  1 25  1  0  0  0
  1 30  2  0  0  0
  1 83  1  0  0  0
  2  3  1  0  0  0
  2 25  1  0  0  0
  2 85  1  0  0  0
  2 86  1  0  0  0
  3  4  1  0  0  0
  3 87  1  0  0  0
  3 88  1  0  0  0
  4  5  1  0  0  0
  4 89  1  0  0  0
  4 90  1  0  0  0
  5  6  1  0  0  0
  5 26  1  0  0  0
  5 91  1  0  0  0
  6 25  1  0  0  0
  6 92  1  0  0  0
  6 93  1  0  0  0
  7  8  2  0  0  0
  7 26  1  0  0  0
  7 29  1  0  0  0
  8  9  1  0  0  0
  8 22  1  0  0  0
  9 10  1  0  0  0
  9 27  2  0  0  0
 10 11  2  0  0  0
 10 15  1  0  0  0
 11 12  1  0  0  0
 11 94  1  0  0  0
 12 13  2  0  0  0
 12 95  1  0  0  0
 13 14  1  0  0  0
 13 31  1  0  0  0
 14 15  2  0  0  0
 14 96  1  0  0  0
 15 97  1  0  0  0
 16 17  2  0  0  0
 16 21  1  0  0  0
 16 31  1  0  0  0
 17 18  1  0  0  0
 17 98  1  0  0  0
 18 19  2  0  0  0
 18 99  1  0  0  0
 19 20  1  0  0  0
 19 24  1  0  0  0
 20 21  2  0  0  0
 20100  1  0  0  0
 21 23  1  0  0  0
 22 28  1  0  0  0
 22 32  2  0  0  0
 26 27  1  0  0  0
 28101  1  0  0  0
 28102  1  0  0  0
 29103  1  0  0  0
 29104  1  0  0  0
 33 34  1  0  0  0
 33 66  1  0  0  0
 33 70  2  0  0  0
 34 36  1  0  0  0
 34 59  1  0  0  0
 34105  1  0  0  0
 35 44  2  0  0  0
 35 45  1  0  0  0
 35 68  1  0  0  0
 36 56  1  0  0  0
 36106  1  0  0  0
 37 39  1  0  0  0
 37 47  1  0  0  0
 37 66  1  0  0  0
 37107  1  0  0  0
 38 43  2  0  0  0
 38 46  1  0  0  0
 38 47  1  0  0  0
 39 64  1  0  0  0
 39 67  2  0  0  0
 40 52  1  0  0  0
 40 53  2  0  0  0
 40 58  1  0  0  0
 41108  1  0  0  0
 41109  1  0  0  0
 41110  1  0  0  0
 41 48  1  0  0  0
 42 43  1  0  0  0
 42 66  1  0  0  0
 42111  1  0  0  0
 42112  1  0  0  0
 43 44  1  0  0  0
 44113  1  0  0  0
 45 46  2  0  0  0
 45114  1  0  0  0
 46115  1  0  0  0
 47116  1  0  0  0
 47117  1  0  0  0
 48 56  1  0  0  0
 48 65  1  0  0  0
 48118  1  0  0  0
 49 50  1  0  0  0
 49 53  1  0  0  0
 49 64  1  0  0  0
 49119  1  0  0  0
 50 51  1  0  0  0
 50120  1  0  0  0
 50121  1  0  0  0
 51 52  1  0  0  0
 51122  1  0  0  0
 51123  1  0  0  0
 52124  1  0  0  0
 52125  1  0  0  0
 53 54  1  0  0  0
 54 55  2  0  0  0
 54126  1  0  0  0
 55 57  1  0  0  0
 55127  1  0  0  0
 56 69  2  0  0  0
 57 58  2  0  0  0
 57128  1  0  0  0
 58129  1  0  0  0
 59 60  1  0  0  0
 59 61  1  0  0  0
 59 62  1  0  0  0
 60130  1  0  0  0
 60131  1  0  0  0
 60132  1  0  0  0
 61133  1  0  0  0
 61134  1  0  0  0
 61135  1  0  0  0
 62136  1  0  0  0
 62137  1  0  0  0
 62138  1  0  0  0
 63 65  1  0  0  0
 63139  1  0  0  0
 63140  1  0  0  0
 63141  1  0  0  0
 64142  1  0  0  0
 65143  1  0  0  0
 68 79  1  0  0  0
 71 73  2  0  0  0
 71 75  1  0  0  0
 71144  1  0  0  0
 72 74  2  0  0  0
 72 76  1  0  0  0
 72145  1  0  0  0
 73 74  1  0  0  0
 73 81  1  0  0  0
 74 80  1  0  0  0
 75 76  2  0  0  0
 75 82  1  0  0  0
 76 84  1  0  0  0
 77 79  1  0  0  0
 77 82  1  0  0  0
 77146  1  0  0  0
 77147  1  0  0  0
 78 79  1  0  0  0
 78 82  1  0  0  0
 78148  1  0  0  0
 78149  1  0  0  0
 79150  1  0  0  0
 80151  1  0  0  0
 80152  1  0  0  0
 80153  1  0  0  0
 81 83  1  0  0  0
 81154  1  0  0  0
 81155  1  0  0  0
 83156  1  0  0  0
M  ISO  4   1 100  68 101  79 101  83 100
M  END
> <chiral flag>
0

> <version>
0

> <s_m_source_file>
/data/baiqing/PycharmProjects/Reinvent-master-3.2/result/LINK_invent/BTK/process_docking_weight1_custom_product_contain_oxygen_bond_distance_aromatic_linkinvent_7_9_3/rearranged_h_0029.sdf

> <i_m_source_file_index>
24

> <r_mmod_Potential_Energy-OPLS-2005>
356.053283691406

> <r_mmod_Stretch_Energy-OPLS-2005>
182.810150146484

> <r_mmod_Bend_Energy-OPLS-2005>
261.926422119141

> <r_mmod_Torsional_Energy-OPLS-2005>
245.318374633789

> <r_mmod_Improper_Torsional_Energy-OPLS-2005>
14.109447479248

> <r_mmod_Van_der_Waal_Energy-OPLS-2005>
136.135375976562

> <r_mmod_Electrostatic_Energy-OPLS-2005>
-373.100433349609

> <r_mmod_Solvation_Energy-OPLS-2005>
-230.700744628906

> <b_mmod_Minimization_Converged-OPLS-2005>
0

> <r_mmod_RMS_Derivative-OPLS-2005>
5.664222240448

$$$$
24
                    3D
 Structure written by MMmdl.
156165  0  0  1  0            999 V2000
  -30.5443  -14.9003   20.4105 C   0  0  0  0  0  0
  -30.4340  -12.5474   19.5115 C   0  0  0  0  0  0
  -29.5223  -12.5310   18.2624 C   0  0  0  0  0  0
  -28.0512  -12.3309   18.6702 C   0  0  0  0  0  0
  -27.6345  -13.2483   19.8504 C   0  0  2  0  0  0
  -28.6725  -13.2436   20.9937 C   0  0  0  0  0  0
  -25.2463  -13.8220   20.5727 C   0  0  0  0  0  0
  -24.1772  -13.0446   20.9216 C   0  0  0  0  0  0
  -24.6390  -11.6929   20.8746 C   0  0  0  0  0  0
  -23.9075  -10.4300   21.0404 C   0  0  0  0  0  0
  -24.3629   -9.4214   21.9179 C   0  0  0  0  0  0
  -23.6307   -8.2247   22.0752 C   0  0  0  0  0  0
  -22.4287   -8.0285   21.3547 C   0  0  0  0  0  0
  -21.9920   -9.0254   20.4645 C   0  0  0  0  0  0
  -22.7248  -10.2134   20.3054 C   0  0  0  0  0  0
  -21.6856   -6.0740   22.5282 C   0  0  0  0  0  0
  -21.4015   -6.5644   23.8215 C   0  0  0  0  0  0
  -21.3658   -5.6796   24.9175 C   0  0  0  0  0  0
  -21.6046   -4.3059   24.7225 C   0  0  0  0  0  0
  -21.8814   -3.8149   23.4346 C   0  0  0  0  0  0
  -21.9193   -4.6967   22.3402 C   0  0  0  0  0  0
  -22.7790  -13.5213   21.1874 C   0  0  0  0  0  0
  -22.1664   -4.2152   21.0977 F   0  0  0  0  0  0
  -21.5629   -3.4542   25.7738 F   0  0  0  0  0  0
  -29.9612  -13.6374   20.4126 N   0  0  0  0  0  0
  -26.2900  -12.9458   20.3289 N   0  0  0  0  0  0
  -25.9330  -11.6584   20.5759 N   0  0  0  0  0  0
  -22.0448  -12.8203   22.0435 N   0  0  0  0  0  0
  -25.4143  -15.1952   20.4167 N   0  0  0  0  0  0
  -31.7269  -14.9773   20.0590 O   0  0  0  0  0  0
  -21.6645   -6.8887   21.4247 O   0  0  0  0  0  0
  -22.3472  -14.5522   20.6728 O   0  0  0  0  0  0
  -24.6398  -31.8445   23.1869 C   0  0  0  0  0  0
  -25.9180  -32.4694   23.8262 C   0  0  1  0  0  0
  -27.2198  -27.1578   20.1487 C   0  0  0  0  0  0
  -25.5934  -33.8499   24.2185 N   0  0  0  0  0  0
  -23.4421  -30.4611   21.5314 C   0  0  2  0  0  0
  -24.8909  -28.8846   20.1054 C   0  0  0  0  0  0
  -22.7543  -29.4543   22.4865 C   0  0  0  0  0  0
  -18.0297  -28.1388   22.8480 C   0  0  0  0  0  0
  -24.1491  -36.7262   23.2642 C   0  0  0  0  0  0
  -25.9931  -30.7237   21.3807 C   0  0  0  0  0  0
  -26.0627  -29.3357   20.7239 C   0  0  0  0  0  0
  -27.2247  -28.4855   20.7305 C   0  0  0  0  0  0
  -26.0285  -26.7947   19.4886 C   0  0  0  0  0  0
  -24.8854  -27.6281   19.4732 C   0  0  0  0  0  0
  -23.6656  -29.7844   20.1509 C   0  0  0  0  0  0
  -25.4123  -36.3032   24.0313 C   0  0  1  0  0  0
  -20.5903  -28.3709   23.1244 C   0  0  2  0  0  0
  -20.6781  -26.9413   22.5410 C   0  0  0  0  0  0
  -19.5759  -26.6375   21.5213 C   0  0  0  0  0  0
  -18.1935  -26.7927   22.1620 C   0  0  0  0  0  0
  -19.1551  -28.8870   23.2850 C   0  0  0  0  0  0
  -18.9471  -30.1466   23.8874 C   0  0  0  0  0  0
  -17.6470  -30.6586   24.0558 C   0  0  0  0  0  0
  -25.9071  -34.9405   23.5065 C   0  0  0  0  0  0
  -16.5361  -29.9083   23.6331 C   0  0  0  0  0  0
  -16.7282  -28.6499   23.0354 C   0  0  0  0  0  0
  -26.4514  -31.6558   25.0700 C   0  0  0  0  0  0
  -25.3704  -31.3746   26.1404 C   0  0  0  0  0  0
  -27.0375  -30.2954   24.6272 C   0  0  0  0  0  0
  -27.6043  -32.4325   25.7483 C   0  0  0  0  0  0
  -27.5575  -37.1783   24.8459 C   0  0  0  0  0  0
  -21.4239  -29.3035   22.3617 N   0  0  0  0  0  0
  -26.4284  -37.3745   23.9407 N   0  0  0  0  0  0
  -24.7112  -31.0317   22.0885 N   0  0  0  0  0  0
  -23.4196  -28.8100   23.3014 O   0  0  0  0  0  0
  -28.3035  -26.2276   20.2657 O   0  0  0  0  0  0
  -26.5659  -34.8899   22.4648 O   0  0  0  0  0  0
  -23.5527  -32.1319   23.7107 O   0  0  0  0  0  0
  -29.3757  -18.7793   20.5856 C   0  0  0  0  0  0
  -29.6019  -19.8992   18.4527 C   0  0  0  0  0  0
  -30.0998  -17.4891   18.6525 C   0  0  0  0  0  0
  -29.3033  -20.0600   19.8274 C   0  0  0  0  0  0
  -29.7799  -17.4556   20.0260 C   0  0  0  0  0  0
  -29.9986  -18.6689   17.8886 C   0  0  0  0  0  0
  -29.7105  -24.0346   20.2571 C   0  0  0  0  0  0
  -27.3949  -23.5958   20.4737 C   0  0  0  0  0  0
  -29.9588  -22.5105   19.8171 C   0  0  0  0  0  0
  -27.6623  -22.0567   20.0146 C   0  0  0  0  0  0
  -28.3411  -24.7248   19.8796 C   0  0  0  0  0  0
  -29.0075  -21.4500   20.2921 N   0  0  0  0  0  0
  -29.7859  -16.0709   20.6757 N   0  0  0  0  0  0
  -30.3551  -18.6014   16.2009 Cl  0  0  0  0  0  0
  -31.4740  -12.6813   19.2107 H   0  0  0  0  0  0
  -30.3991  -11.5857   20.0252 H   0  0  0  0  0  0
  -29.8310  -11.7415   17.5756 H   0  0  0  0  0  0
  -29.6285  -13.4713   17.7189 H   0  0  0  0  0  0
  -27.9300  -11.2852   18.9557 H   0  0  0  0  0  0
  -27.3952  -12.4914   17.8141 H   0  0  0  0  0  0
  -27.6105  -14.2595   19.4428 H   0  0  0  0  0  0
  -28.7379  -12.2593   21.4595 H   0  0  0  0  0  0
  -28.3803  -13.9367   21.7835 H   0  0  0  0  0  0
  -25.2770   -9.5691   22.4757 H   0  0  0  0  0  0
  -24.0006   -7.4638   22.7482 H   0  0  0  0  0  0
  -21.0849   -8.8783   19.8954 H   0  0  0  0  0  0
  -22.3706  -10.9677   19.6169 H   0  0  0  0  0  0
  -21.2012   -7.6151   23.9714 H   0  0  0  0  0  0
  -21.1488   -6.0533   25.9079 H   0  0  0  0  0  0
  -22.0593   -2.7611   23.2848 H   0  0  0  0  0  0
  -22.4085  -11.9873   22.4819 H   0  0  0  0  0  0
  -21.1055  -13.1208   22.2640 H   0  0  0  0  0  0
  -24.6447  -15.8465   20.5292 H   0  0  0  0  0  0
  -26.2617  -15.6377   20.0849 H   0  0  0  0  0  0
  -26.7240  -32.5302   23.0985 H   0  0  0  0  0  0
  -25.0048  -33.9623   25.0309 H   0  0  0  0  0  0
  -22.7426  -31.2851   21.3767 H   0  0  0  0  0  0
  -23.3754  -35.9592   23.3288 H   0  0  0  0  0  0
  -24.3569  -36.8921   22.2058 H   0  0  0  0  0  0
  -23.7250  -37.6454   23.6695 H   0  0  0  0  0  0
  -26.1436  -31.4761   20.6053 H   0  0  0  0  0  0
  -26.8659  -30.7759   22.0200 H   0  0  0  0  0  0
  -28.1180  -28.8226   21.2379 H   0  0  0  0  0  0
  -25.9592  -25.8294   19.0086 H   0  0  0  0  0  0
  -23.9886  -27.2793   18.9801 H   0  0  0  0  0  0
  -23.7971  -30.5570   19.3925 H   0  0  0  0  0  0
  -22.7809  -29.2231   19.8454 H   0  0  0  0  0  0
  -25.1310  -36.1860   25.0803 H   0  0  0  0  0  0
  -20.9991  -28.3306   24.1368 H   0  0  0  0  0  0
  -20.5670  -26.2325   23.3630 H   0  0  0  0  0  0
  -21.6648  -26.7418   22.1213 H   0  0  0  0  0  0
  -19.6920  -25.6282   21.1256 H   0  0  0  0  0  0
  -19.6698  -27.3174   20.6733 H   0  0  0  0  0  0
  -17.4208  -26.6667   21.4020 H   0  0  0  0  0  0
  -18.0326  -26.0072   22.9019 H   0  0  0  0  0  0
  -19.7948  -30.7280   24.2234 H   0  0  0  0  0  0
  -17.5026  -31.6263   24.5163 H   0  0  0  0  0  0
  -15.5360  -30.2978   23.7672 H   0  0  0  0  0  0
  -15.8677  -28.0813   22.7085 H   0  0  0  0  0  0
  -24.5886  -30.7088   25.7737 H   0  0  0  0  0  0
  -24.8888  -32.2927   26.4775 H   0  0  0  0  0  0
  -25.7995  -30.8961   27.0217 H   0  0  0  0  0  0
  -26.2990  -29.6673   24.1280 H   0  0  0  0  0  0
  -27.3995  -29.7254   25.4840 H   0  0  0  0  0  0
  -27.8889  -30.4196   23.9576 H   0  0  0  0  0  0
  -27.2638  -33.3646   26.2006 H   0  0  0  0  0  0
  -28.3878  -32.6861   25.0328 H   0  0  0  0  0  0
  -28.0681  -31.8489   26.5446 H   0  0  0  0  0  0
  -28.2576  -38.0094   24.7507 H   0  0  0  0  0  0
  -28.1088  -36.2622   24.6283 H   0  0  0  0  0  0
  -27.2286  -37.1427   25.8859 H   0  0  0  0  0  0
  -20.9448  -29.8753   21.6802 H   0  0  0  0  0  0
  -26.0151  -38.2812   24.1419 H   0  0  0  0  0  0
  -29.1222  -18.8160   21.6354 H   0  0  0  0  0  0
  -29.5374  -20.7365   17.7763 H   0  0  0  0  0  0
  -30.3879  -16.5826   18.1402 H   0  0  0  0  0  0
  -30.5144  -24.6354   19.8317 H   0  0  0  0  0  0
  -29.8485  -24.1057   21.3369 H   0  0  0  0  0  0
  -27.4384  -23.6406   21.5627 H   0  0  0  0  0  0
  -26.3636  -23.8446   20.2241 H   0  0  0  0  0  0
  -30.9604  -22.2224   20.1402 H   0  0  0  0  0  0
  -29.9951  -22.5139   18.7285 H   0  0  0  0  0  0
  -27.4690  -21.9780   18.9431 H   0  0  0  0  0  0
  -26.9121  -21.4210   20.4872 H   0  0  0  0  0  0
  -28.2387  -24.6986   18.7940 H   0  0  0  0  0  0
  -28.9703  -15.8854   21.2411 H   0  0  0  0  0  0
  1 25  1  0  0  0
  1 30  2  0  0  0
  1 83  1  0  0  0
  2  3  1  0  0  0
  2 25  1  0  0  0
  2 85  1  0  0  0
  2 86  1  0  0  0
  3  4  1  0  0  0
  3 87  1  0  0  0
  3 88  1  0  0  0
  4  5  1  0  0  0
  4 89  1  0  0  0
  4 90  1  0  0  0
  5  6  1  0  0  0
  5 26  1  0  0  0
  5 91  1  0  0  0
  6 25  1  0  0  0
  6 92  1  0  0  0
  6 93  1  0  0  0
  7  8  2  0  0  0
  7 26  1  0  0  0
  7 29  1  0  0  0
  8  9  1  0  0  0
  8 22  1  0  0  0
  9 10  1  0  0  0
  9 27  2  0  0  0
 10 11  2  0  0  0
 10 15  1  0  0  0
 11 12  1  0  0  0
 11 94  1  0  0  0
 12 13  2  0  0  0
 12 95  1  0  0  0
 13 14  1  0  0  0
 13 31  1  0  0  0
 14 15  2  0  0  0
 14 96  1  0  0  0
 15 97  1  0  0  0
 16 17  2  0  0  0
 16 21  1  0  0  0
 16 31  1  0  0  0
 17 18  1  0  0  0
 17 98  1  0  0  0
 18 19  2  0  0  0
 18 99  1  0  0  0
 19 20  1  0  0  0
 19 24  1  0  0  0
 20 21  2  0  0  0
 20100  1  0  0  0
 21 23  1  0  0  0
 22 28  1  0  0  0
 22 32  2  0  0  0
 26 27  1  0  0  0
 28101  1  0  0  0
 28102  1  0  0  0
 29103  1  0  0  0
 29104  1  0  0  0
 33 34  1  0  0  0
 33 66  1  0  0  0
 33 70  2  0  0  0
 34 36  1  0  0  0
 34 59  1  0  0  0
 34105  1  0  0  0
 35 44  2  0  0  0
 35 45  1  0  0  0
 35 68  1  0  0  0
 36 56  1  0  0  0
 36106  1  0  0  0
 37 39  1  0  0  0
 37 47  1  0  0  0
 37 66  1  0  0  0
 37107  1  0  0  0
 38 43  2  0  0  0
 38 46  1  0  0  0
 38 47  1  0  0  0
 39 64  1  0  0  0
 39 67  2  0  0  0
 40 52  1  0  0  0
 40 53  2  0  0  0
 40 58  1  0  0  0
 41108  1  0  0  0
 41109  1  0  0  0
 41110  1  0  0  0
 41 48  1  0  0  0
 42 43  1  0  0  0
 42 66  1  0  0  0
 42111  1  0  0  0
 42112  1  0  0  0
 43 44  1  0  0  0
 44113  1  0  0  0
 45 46  2  0  0  0
 45114  1  0  0  0
 46115  1  0  0  0
 47116  1  0  0  0
 47117  1  0  0  0
 48 56  1  0  0  0
 48 65  1  0  0  0
 48118  1  0  0  0
 49 50  1  0  0  0
 49 53  1  0  0  0
 49 64  1  0  0  0
 49119  1  0  0  0
 50 51  1  0  0  0
 50120  1  0  0  0
 50121  1  0  0  0
 51 52  1  0  0  0
 51122  1  0  0  0
 51123  1  0  0  0
 52124  1  0  0  0
 52125  1  0  0  0
 53 54  1  0  0  0
 54 55  2  0  0  0
 54126  1  0  0  0
 55 57  1  0  0  0
 55127  1  0  0  0
 56 69  2  0  0  0
 57 58  2  0  0  0
 57128  1  0  0  0
 58129  1  0  0  0
 59 60  1  0  0  0
 59 61  1  0  0  0
 59 62  1  0  0  0
 60130  1  0  0  0
 60131  1  0  0  0
 60132  1  0  0  0
 61133  1  0  0  0
 61134  1  0  0  0
 61135  1  0  0  0
 62136  1  0  0  0
 62137  1  0  0  0
 62138  1  0  0  0
 63 65  1  0  0  0
 63139  1  0  0  0
 63140  1  0  0  0
 63141  1  0  0  0
 64142  1  0  0  0
 65143  1  0  0  0
 68 81  1  0  0  0
 71 74  2  0  0  0
 71 75  1  0  0  0
 71144  1  0  0  0
 72 74  1  0  0  0
 72 76  2  0  0  0
 72145  1  0  0  0
 73 75  2  0  0  0
 73 76  1  0  0  0
 73146  1  0  0  0
 74 82  1  0  0  0
 75 83  1  0  0  0
 76 84  1  0  0  0
 77 79  1  0  0  0
 77 81  1  0  0  0
 77147  1  0  0  0
 77148  1  0  0  0
 78 80  1  0  0  0
 78 81  1  0  0  0
 78149  1  0  0  0
 78150  1  0  0  0
 79 82  1  0  0  0
 79151  1  0  0  0
 79152  1  0  0  0
 80 82  1  0  0  0
 80153  1  0  0  0
 80154  1  0  0  0
 81155  1  0  0  0
 83156  1  0  0  0
M  ISO  4   1 100  68 101  81 101  83 100
M  END
> <chiral flag>
0

> <version>
0

> <s_m_source_file>
/data/baiqing/PycharmProjects/Reinvent-master-3.2/result/LINK_invent/BTK/process_docking_weight1_custom_product_contain_oxygen_bond_distance_aromatic_linkinvent_7_9_3/rearranged_h_0029.sdf

> <i_m_source_file_index>
25

> <r_mmod_Potential_Energy-OPLS-2005>
473.929779052734

> <r_mmod_Stretch_Energy-OPLS-2005>
210.250198364258

> <r_mmod_Bend_Energy-OPLS-2005>
253.595123291016

> <r_mmod_Torsional_Energy-OPLS-2005>
271.781799316406

> <r_mmod_Improper_Torsional_Energy-OPLS-2005>
9.76077270507812

> <r_mmod_Van_der_Waal_Energy-OPLS-2005>
134.964279174805

> <r_mmod_Electrostatic_Energy-OPLS-2005>
-337.6455078125

> <r_mmod_Solvation_Energy-OPLS-2005>
-232.661178588867

> <b_mmod_Minimization_Converged-OPLS-2005>
0

> <r_mmod_RMS_Derivative-OPLS-2005>
1.08662164211273

$$$$
25
                    3D
 Structure written by MMmdl.
157166  0  0  1  0            999 V2000
  -30.5976  -14.8291   20.4597 C   0  0  0  0  0  0
  -30.4337  -12.5145   19.4820 C   0  0  0  0  0  0
  -29.5138  -12.5227   18.2415 C   0  0  0  0  0  0
  -28.0416  -12.3331   18.6551 C   0  0  0  0  0  0
  -27.6364  -13.2419   19.8450 C   0  0  2  0  0  0
  -28.6819  -13.2181   20.9800 C   0  0  0  0  0  0
  -25.2484  -13.8209   20.5699 C   0  0  0  0  0  0
  -24.1790  -13.0441   20.9221 C   0  0  0  0  0  0
  -24.6405  -11.6926   20.8763 C   0  0  0  0  0  0
  -23.9092  -10.4296   21.0416 C   0  0  0  0  0  0
  -24.3637   -9.4206   21.9191 C   0  0  0  0  0  0
  -23.6306   -8.2244   22.0760 C   0  0  0  0  0  0
  -22.4285   -8.0289   21.3549 C   0  0  0  0  0  0
  -21.9931   -9.0262   20.4645 C   0  0  0  0  0  0
  -22.7270  -10.2137   20.3058 C   0  0  0  0  0  0
  -21.6852   -6.0749   22.5288 C   0  0  0  0  0  0
  -21.4014   -6.5651   23.8223 C   0  0  0  0  0  0
  -21.3658   -5.6802   24.9182 C   0  0  0  0  0  0
  -21.6043   -4.3064   24.7227 C   0  0  0  0  0  0
  -21.8817   -3.8159   23.4346 C   0  0  0  0  0  0
  -21.9191   -4.6978   22.3406 C   0  0  0  0  0  0
  -22.7809  -13.5213   21.1874 C   0  0  0  0  0  0
  -22.1660   -4.2165   21.0983 F   0  0  0  0  0  0
  -21.5625   -3.4546   25.7737 F   0  0  0  0  0  0
  -29.9704  -13.5967   20.3874 N   0  0  0  0  0  0
  -26.2919  -12.9438   20.3274 N   0  0  0  0  0  0
  -25.9337  -11.6570   20.5757 N   0  0  0  0  0  0
  -22.0458  -12.8190   22.0420 N   0  0  0  0  0  0
  -25.4152  -15.1938   20.4096 N   0  0  0  0  0  0
  -31.7978  -14.8868   20.1761 O   0  0  0  0  0  0
  -21.6645   -6.8890   21.4247 O   0  0  0  0  0  0
  -22.3495  -14.5519   20.6724 O   0  0  0  0  0  0
  -24.6341  -31.8497   23.1919 C   0  0  0  0  0  0
  -25.9141  -32.4725   23.8295 C   0  0  1  0  0  0
  -27.2241  -27.2072   20.1545 C   0  0  0  0  0  0
  -25.5921  -33.8532   24.2209 N   0  0  0  0  0  0
  -23.4348  -30.4704   21.5340 C   0  0  2  0  0  0
  -24.8866  -28.9011   20.1132 C   0  0  0  0  0  0
  -22.7517  -29.4595   22.4875 C   0  0  0  0  0  0
  -18.0306  -28.1395   22.8498 C   0  0  0  0  0  0
  -24.1484  -36.7257   23.2645 C   0  0  0  0  0  0
  -25.9850  -30.7473   21.3805 C   0  0  0  0  0  0
  -26.0592  -29.3632   20.7253 C   0  0  0  0  0  0
  -27.2321  -28.5327   20.7257 C   0  0  0  0  0  0
  -26.0292  -26.8245   19.5097 C   0  0  0  0  0  0
  -24.8795  -27.6432   19.4897 C   0  0  0  0  0  0
  -23.6589  -29.7961   20.1537 C   0  0  0  0  0  0
  -25.4119  -36.3045   24.0321 C   0  0  1  0  0  0
  -20.5908  -28.3712   23.1260 C   0  0  2  0  0  0
  -20.6787  -26.9419   22.5409 C   0  0  0  0  0  0
  -19.5762  -26.6385   21.5212 C   0  0  0  0  0  0
  -18.1943  -26.7943   22.1620 C   0  0  0  0  0  0
  -19.1559  -28.8868   23.2875 C   0  0  0  0  0  0
  -18.9483  -30.1474   23.8884 C   0  0  0  0  0  0
  -17.6479  -30.6599   24.0570 C   0  0  0  0  0  0
  -25.9066  -34.9425   23.5073 C   0  0  0  0  0  0
  -16.5371  -29.9101   23.6334 C   0  0  0  0  0  0
  -16.7290  -28.6513   23.0361 C   0  0  0  0  0  0
  -26.4494  -31.6582   25.0713 C   0  0  0  0  0  0
  -25.3693  -31.3783   26.1420 C   0  0  0  0  0  0
  -27.0343  -30.2989   24.6254 C   0  0  0  0  0  0
  -27.6038  -32.4333   25.7494 C   0  0  0  0  0  0
  -27.5573  -37.1789   24.8469 C   0  0  0  0  0  0
  -21.4212  -29.3053   22.3635 N   0  0  0  0  0  0
  -26.4279  -37.3762   23.9415 N   0  0  0  0  0  0
  -24.7036  -31.0431   22.0906 N   0  0  0  0  0  0
  -23.4193  -28.8148   23.2999 O   0  0  0  0  0  0
  -28.3060  -26.2799   20.2144 O   0  0  0  0  0  0
  -26.5648  -34.8907   22.4650 O   0  0  0  0  0  0
  -23.5472  -32.1340   23.7184 O   0  0  0  0  0  0
  -31.8482  -19.1097   21.5281 C   0  0  0  0  0  0
  -31.4736  -17.7801   21.2511 C   0  0  0  0  0  0
  -29.3335  -18.6264   20.5005 C   0  0  0  0  0  0
  -30.9882  -20.2149   21.3203 C   0  0  0  0  0  0
  -29.6955  -20.0391   20.7473 C   0  0  0  0  0  0
  -30.1953  -17.4571   20.7511 C   0  0  0  0  0  0
  -28.2460  -23.6772   19.3427 C   0  0  0  0  0  0
  -29.0384  -23.8764   21.2422 C   0  0  0  0  0  0
  -28.0415  -24.7870   20.4345 C   0  0  1  0  0  0
  -31.5001  -21.5683   21.7851 C   0  0  0  0  0  0
  -28.6849  -21.3057   20.5097 C   0  0  0  0  0  0
  -29.8265  -15.9986   20.6023 N   0  0  0  0  0  0
  -29.1020  -22.7889   20.2056 N   0  3  1  0  0  0
  -31.4729  -12.6466   19.1773 H   0  0  0  0  0  0
  -30.3935  -11.5488   19.9882 H   0  0  0  0  0  0
  -29.8109  -11.7407   17.5424 H   0  0  0  0  0  0
  -29.6254  -13.4682   17.7087 H   0  0  0  0  0  0
  -27.9070  -11.2854   18.9255 H   0  0  0  0  0  0
  -27.3849  -12.5134   17.8034 H   0  0  0  0  0  0
  -27.6154  -14.2561   19.4448 H   0  0  0  0  0  0
  -28.7405  -12.2288   21.4362 H   0  0  0  0  0  0
  -28.4039  -13.9093   21.7770 H   0  0  0  0  0  0
  -25.2776   -9.5680   22.4773 H   0  0  0  0  0  0
  -24.0015   -7.4632   22.7474 H   0  0  0  0  0  0
  -21.0871   -8.8779   19.8942 H   0  0  0  0  0  0
  -22.3734  -10.9675   19.6165 H   0  0  0  0  0  0
  -21.2008   -7.6159   23.9730 H   0  0  0  0  0  0
  -21.1481   -6.0531   25.9086 H   0  0  0  0  0  0
  -22.0593   -2.7622   23.2843 H   0  0  0  0  0  0
  -22.4086  -11.9845   22.4790 H   0  0  0  0  0  0
  -21.1072  -13.1200   22.2635 H   0  0  0  0  0  0
  -24.6398  -15.8412   20.5019 H   0  0  0  0  0  0
  -26.2527  -15.6305   20.0485 H   0  0  0  0  0  0
  -26.7206  -32.5362   23.1026 H   0  0  0  0  0  0
  -25.0069  -33.9669   25.0357 H   0  0  0  0  0  0
  -22.7337  -31.2932   21.3805 H   0  0  0  0  0  0
  -23.3751  -35.9584   23.3298 H   0  0  0  0  0  0
  -24.3575  -36.8882   22.2060 H   0  0  0  0  0  0
  -23.7223  -37.6453   23.6674 H   0  0  0  0  0  0
  -26.1323  -31.5024   20.6073 H   0  0  0  0  0  0
  -26.8590  -30.7973   22.0182 H   0  0  0  0  0  0
  -28.1283  -28.8850   21.2166 H   0  0  0  0  0  0
  -25.9664  -25.8574   19.0308 H   0  0  0  0  0  0
  -23.9828  -27.2858   19.0026 H   0  0  0  0  0  0
  -23.7928  -30.5683   19.3956 H   0  0  0  0  0  0
  -22.7761  -29.2338   19.8459 H   0  0  0  0  0  0
  -25.1304  -36.1875   25.0814 H   0  0  0  0  0  0
  -21.0019  -28.3285   24.1373 H   0  0  0  0  0  0
  -20.5653  -26.2331   23.3621 H   0  0  0  0  0  0
  -21.6667  -26.7417   22.1228 H   0  0  0  0  0  0
  -19.6915  -25.6288   21.1259 H   0  0  0  0  0  0
  -19.6704  -27.3189   20.6735 H   0  0  0  0  0  0
  -17.4216  -26.6701   21.4015 H   0  0  0  0  0  0
  -18.0338  -26.0082   22.9009 H   0  0  0  0  0  0
  -19.7956  -30.7312   24.2226 H   0  0  0  0  0  0
  -17.5033  -31.6274   24.5184 H   0  0  0  0  0  0
  -15.5375  -30.3001   23.7670 H   0  0  0  0  0  0
  -15.8687  -28.0834   22.7077 H   0  0  0  0  0  0
  -24.5910  -30.7056   25.7791 H   0  0  0  0  0  0
  -24.8824  -32.2968   26.4719 H   0  0  0  0  0  0
  -25.7998  -30.9093   27.0273 H   0  0  0  0  0  0
  -26.2952  -29.6726   24.1243 H   0  0  0  0  0  0
  -27.3971  -29.7266   25.4800 H   0  0  0  0  0  0
  -27.8849  -30.4251   23.9546 H   0  0  0  0  0  0
  -27.2659  -33.3692   26.1963 H   0  0  0  0  0  0
  -28.3918  -32.6787   25.0355 H   0  0  0  0  0  0
  -28.0610  -31.8507   26.5498 H   0  0  0  0  0  0
  -28.2596  -38.0085   24.7530 H   0  0  0  0  0  0
  -28.1057  -36.2620   24.6273 H   0  0  0  0  0  0
  -27.2293  -37.1413   25.8871 H   0  0  0  0  0  0
  -20.9383  -29.8748   21.6830 H   0  0  0  0  0  0
  -26.0132  -38.2820   24.1444 H   0  0  0  0  0  0
  -32.8305  -19.2741   21.9518 H   0  0  0  0  0  0
  -32.1891  -17.0036   21.4800 H   0  0  0  0  0  0
  -28.3395  -18.4368   20.1212 H   0  0  0  0  0  0
  -28.7946  -24.0338   18.4701 H   0  0  0  0  0  0
  -27.3111  -23.2058   19.0390 H   0  0  0  0  0  0
  -28.6309  -23.5396   22.1964 H   0  0  0  0  0  0
  -30.0123  -24.3442   21.3879 H   0  0  0  0  0  0
  -27.0536  -24.6675   20.8840 H   0  0  0  0  0  0
  -31.7142  -22.2225   20.9398 H   0  0  0  0  0  0
  -32.4282  -21.4689   22.3508 H   0  0  0  0  0  0
  -30.7838  -22.0447   22.4541 H   0  0  0  0  0  0
  -27.9834  -21.3224   21.3431 H   0  0  0  0  0  0
  -28.0840  -21.0019   19.6535 H   0  0  0  0  0  0
  -28.8360  -15.8130   20.6304 H   0  0  0  0  0  0
  -30.0176  -22.7725   19.7826 H   0  0  0  0  0  0
  1 25  1  0  0  0
  1 30  2  0  0  0
  1 82  1  0  0  0
  2  3  1  0  0  0
  2 25  1  0  0  0
  2 84  1  0  0  0
  2 85  1  0  0  0
  3  4  1  0  0  0
  3 86  1  0  0  0
  3 87  1  0  0  0
  4  5  1  0  0  0
  4 88  1  0  0  0
  4 89  1  0  0  0
  5  6  1  0  0  0
  5 26  1  0  0  0
  5 90  1  0  0  0
  6 25  1  0  0  0
  6 91  1  0  0  0
  6 92  1  0  0  0
  7  8  2  0  0  0
  7 26  1  0  0  0
  7 29  1  0  0  0
  8  9  1  0  0  0
  8 22  1  0  0  0
  9 10  1  0  0  0
  9 27  2  0  0  0
 10 11  2  0  0  0
 10 15  1  0  0  0
 11 12  1  0  0  0
 11 93  1  0  0  0
 12 13  2  0  0  0
 12 94  1  0  0  0
 13 14  1  0  0  0
 13 31  1  0  0  0
 14 15  2  0  0  0
 14 95  1  0  0  0
 15 96  1  0  0  0
 16 17  2  0  0  0
 16 21  1  0  0  0
 16 31  1  0  0  0
 17 18  1  0  0  0
 17 97  1  0  0  0
 18 19  2  0  0  0
 18 98  1  0  0  0
 19 20  1  0  0  0
 19 24  1  0  0  0
 20 21  2  0  0  0
 20 99  1  0  0  0
 21 23  1  0  0  0
 22 28  1  0  0  0
 22 32  2  0  0  0
 26 27  1  0  0  0
 28100  1  0  0  0
 28101  1  0  0  0
 29102  1  0  0  0
 29103  1  0  0  0
 33 34  1  0  0  0
 33 66  1  0  0  0
 33 70  2  0  0  0
 34 36  1  0  0  0
 34 59  1  0  0  0
 34104  1  0  0  0
 35 44  2  0  0  0
 35 45  1  0  0  0
 35 68  1  0  0  0
 36 56  1  0  0  0
 36105  1  0  0  0
 37 39  1  0  0  0
 37 47  1  0  0  0
 37 66  1  0  0  0
 37106  1  0  0  0
 38 43  2  0  0  0
 38 46  1  0  0  0
 38 47  1  0  0  0
 39 64  1  0  0  0
 39 67  2  0  0  0
 40 52  1  0  0  0
 40 53  2  0  0  0
 40 58  1  0  0  0
 41107  1  0  0  0
 41108  1  0  0  0
 41109  1  0  0  0
 41 48  1  0  0  0
 42 43  1  0  0  0
 42 66  1  0  0  0
 42110  1  0  0  0
 42111  1  0  0  0
 43 44  1  0  0  0
 44112  1  0  0  0
 45 46  2  0  0  0
 45113  1  0  0  0
 46114  1  0  0  0
 47115  1  0  0  0
 47116  1  0  0  0
 48 56  1  0  0  0
 48 65  1  0  0  0
 48117  1  0  0  0
 49 50  1  0  0  0
 49 53  1  0  0  0
 49 64  1  0  0  0
 49118  1  0  0  0
 50 51  1  0  0  0
 50119  1  0  0  0
 50120  1  0  0  0
 51 52  1  0  0  0
 51121  1  0  0  0
 51122  1  0  0  0
 52123  1  0  0  0
 52124  1  0  0  0
 53 54  1  0  0  0
 54 55  2  0  0  0
 54125  1  0  0  0
 55 57  1  0  0  0
 55126  1  0  0  0
 56 69  2  0  0  0
 57 58  2  0  0  0
 57127  1  0  0  0
 58128  1  0  0  0
 59 60  1  0  0  0
 59 61  1  0  0  0
 59 62  1  0  0  0
 60129  1  0  0  0
 60130  1  0  0  0
 60131  1  0  0  0
 61132  1  0  0  0
 61133  1  0  0  0
 61134  1  0  0  0
 62135  1  0  0  0
 62136  1  0  0  0
 62137  1  0  0  0
 63 65  1  0  0  0
 63138  1  0  0  0
 63139  1  0  0  0
 63140  1  0  0  0
 64141  1  0  0  0
 65142  1  0  0  0
 68 79  1  0  0  0
 71 72  2  0  0  0
 71 74  1  0  0  0
 71143  1  0  0  0
 72 76  1  0  0  0
 72144  1  0  0  0
 73 75  1  0  0  0
 73 76  2  0  0  0
 73145  1  0  0  0
 74 75  2  0  0  0
 74 80  1  0  0  0
 75 81  1  0  0  0
 76 82  1  0  0  0
 77 79  1  0  0  0
 77 83  1  0  0  0
 77146  1  0  0  0
 77147  1  0  0  0
 78 79  1  0  0  0
 78 83  1  0  0  0
 78148  1  0  0  0
 78149  1  0  0  0
 79150  1  0  0  0
 80151  1  0  0  0
 80152  1  0  0  0
 80153  1  0  0  0
 81154  1  0  0  0
 81155  1  0  0  0
 81 83  1  0  0  0
 82156  1  0  0  0
 83157  1  0  0  0
M  CHG  1  83   1
M  ISO  4   1 100  68 101  79 101  82 100
M  END
> <chiral flag>
0

> <version>
0

> <s_m_source_file>
/data/baiqing/PycharmProjects/Reinvent-master-3.2/result/LINK_invent/BTK/process_docking_weight1_custom_product_contain_oxygen_bond_distance_aromatic_linkinvent_7_9_3/rearranged_h_0029.sdf

> <i_m_source_file_index>
26

> <r_mmod_Potential_Energy-OPLS-2005>
123.273483276367

> <r_mmod_Stretch_Energy-OPLS-2005>
172.607284545898

> <r_mmod_Bend_Energy-OPLS-2005>
219.692230224609

> <r_mmod_Torsional_Energy-OPLS-2005>
260.242736816406

> <r_mmod_Improper_Torsional_Energy-OPLS-2005>
6.08845901489258

> <r_mmod_Van_der_Waal_Energy-OPLS-2005>
133.640731811523

> <r_mmod_Electrostatic_Energy-OPLS-2005>
-315.158416748047

> <r_mmod_Solvation_Energy-OPLS-2005>
-477.856414794922

> <b_mmod_Minimization_Converged-OPLS-2005>
0

> <r_mmod_RMS_Derivative-OPLS-2005>
1.91262376308441

$$$$
26
                    3D
 Structure written by MMmdl.
155164  0  0  1  0            999 V2000
  -30.5910  -14.7462   20.4557 C   0  0  0  0  0  0
  -30.4318  -12.4526   19.4797 C   0  0  0  0  0  0
  -29.5116  -12.5137   18.2390 C   0  0  0  0  0  0
  -28.0361  -12.3360   18.6460 C   0  0  0  0  0  0
  -27.6425  -13.2289   19.8534 C   0  0  2  0  0  0
  -28.6834  -13.1520   20.9913 C   0  0  0  0  0  0
  -25.2515  -13.8192   20.5678 C   0  0  0  0  0  0
  -24.1806  -13.0437   20.9184 C   0  0  0  0  0  0
  -24.6386  -11.6913   20.8724 C   0  0  0  0  0  0
  -23.9062  -10.4285   21.0392 C   0  0  0  0  0  0
  -24.3619   -9.4206   21.9176 C   0  0  0  0  0  0
  -23.6289   -8.2243   22.0759 C   0  0  0  0  0  0
  -22.4274   -8.0279   21.3546 C   0  0  0  0  0  0
  -21.9896   -9.0251   20.4646 C   0  0  0  0  0  0
  -22.7228  -10.2127   20.3045 C   0  0  0  0  0  0
  -21.6850   -6.0726   22.5281 C   0  0  0  0  0  0
  -21.4011   -6.5632   23.8212 C   0  0  0  0  0  0
  -21.3658   -5.6793   24.9176 C   0  0  0  0  0  0
  -21.6051   -4.3058   24.7230 C   0  0  0  0  0  0
  -21.8821   -3.8139   23.4352 C   0  0  0  0  0  0
  -21.9195   -4.6952   22.3405 C   0  0  0  0  0  0
  -22.7827  -13.5214   21.1856 C   0  0  0  0  0  0
  -22.1667   -4.2138   21.0982 F   0  0  0  0  0  0
  -21.5628   -3.4542   25.7740 F   0  0  0  0  0  0
  -29.9860  -13.5099   20.4182 N   0  0  0  0  0  0
  -26.2935  -12.9394   20.3274 N   0  0  0  0  0  0
  -25.9312  -11.6536   20.5721 N   0  0  0  0  0  0
  -22.0487  -12.8204   22.0409 N   0  0  0  0  0  0
  -25.4198  -15.1918   20.4109 N   0  0  0  0  0  0
  -31.7694  -14.8614   20.1057 O   0  0  0  0  0  0
  -21.6648   -6.8873   21.4242 O   0  0  0  0  0  0
  -22.3502  -14.5517   20.6712 O   0  0  0  0  0  0
  -24.6293  -31.8533   23.1950 C   0  0  0  0  0  0
  -25.9122  -32.4736   23.8301 C   0  0  1  0  0  0
  -27.2263  -27.2601   20.1327 C   0  0  0  0  0  0
  -25.5914  -33.8542   24.2228 N   0  0  0  0  0  0
  -23.4254  -30.4736   21.5366 C   0  0  2  0  0  0
  -24.8721  -28.9082   20.1124 C   0  0  0  0  0  0
  -22.7471  -29.4609   22.4895 C   0  0  0  0  0  0
  -18.0306  -28.1374   22.8476 C   0  0  0  0  0  0
  -24.1495  -36.7289   23.2645 C   0  0  0  0  0  0
  -25.9682  -30.7673   21.3708 C   0  0  0  0  0  0
  -26.0397  -29.3873   20.7168 C   0  0  0  0  0  0
  -27.2151  -28.5753   20.7103 C   0  0  0  0  0  0
  -26.0319  -26.8317   19.5184 C   0  0  0  0  0  0
  -24.8725  -27.6395   19.5056 C   0  0  0  0  0  0
  -23.6443  -29.7976   20.1551 C   0  0  0  0  0  0
  -25.4122  -36.3064   24.0323 C   0  0  1  0  0  0
  -20.5894  -28.3710   23.1281 C   0  0  2  0  0  0
  -20.6794  -26.9427   22.5422 C   0  0  0  0  0  0
  -19.5779  -26.6367   21.5225 C   0  0  0  0  0  0
  -18.1953  -26.7911   22.1633 C   0  0  0  0  0  0
  -19.1546  -28.8858   23.2873 C   0  0  0  0  0  0
  -18.9466  -30.1458   23.8886 C   0  0  0  0  0  0
  -17.6464  -30.6584   24.0548 C   0  0  0  0  0  0
  -25.9056  -34.9429   23.5081 C   0  0  0  0  0  0
  -16.5366  -29.9069   23.6320 C   0  0  0  0  0  0
  -16.7293  -28.6483   23.0345 C   0  0  0  0  0  0
  -26.4495  -31.6571   25.0701 C   0  0  0  0  0  0
  -25.3720  -31.3719   26.1425 C   0  0  0  0  0  0
  -27.0341  -30.2986   24.6187 C   0  0  0  0  0  0
  -27.6038  -32.4319   25.7477 C   0  0  0  0  0  0
  -27.5580  -37.1805   24.8465 C   0  0  0  0  0  0
  -21.4179  -29.3063   22.3651 N   0  0  0  0  0  0
  -26.4299  -37.3762   23.9396 N   0  0  0  0  0  0
  -24.6930  -31.0507   22.0913 N   0  0  0  0  0  0
  -23.4170  -28.8159   23.3003 O   0  0  0  0  0  0
  -28.3850  -26.4595   20.1853 O   0  0  0  0  0  0
  -26.5642  -34.8912   22.4663 O   0  0  0  0  0  0
  -23.5449  -32.1355   23.7260 O   0  0  0  0  0  0
  -28.5276  -21.0124   22.2066 C   0  0  0  0  0  0
  -28.6983  -19.7928   22.8942 C   0  0  0  0  0  0
  -29.2426  -19.8969   20.1769 C   0  0  0  0  0  0
  -29.4308  -18.6201   20.8641 C   0  0  0  0  0  0
  -28.7896  -21.1307   20.8211 C   0  0  0  0  0  0
  -29.1420  -18.6214   22.2465 C   0  0  0  0  0  0
  -28.5530  -22.7877   18.8790 C   0  0  0  0  0  0
  -28.3000  -24.2902   18.5917 C   0  0  0  0  0  0
  -28.3121  -23.7766   20.9379 C   0  0  0  0  0  0
  -28.5613  -24.9785   19.9377 C   0  0  1  0  0  0
  -30.0391  -17.3076   20.1751 C   0  0  0  0  0  0
  -28.5904  -22.4831   20.1999 N   0  0  0  0  0  0
  -29.7951  -15.8675   20.6485 N   0  0  0  0  0  0
  -28.6968  -21.9854   17.9507 O   0  0  0  0  0  0
  -29.3159  -17.4992   22.9828 F   0  0  0  0  0  0
  -31.4730  -12.5798   19.1794 H   0  0  0  0  0  0
  -30.3753  -11.4722   19.9562 H   0  0  0  0  0  0
  -29.7936  -11.7465   17.5168 H   0  0  0  0  0  0
  -29.6404  -13.4700   17.7295 H   0  0  0  0  0  0
  -27.8874  -11.2852   18.8985 H   0  0  0  0  0  0
  -27.3834  -12.5388   17.7963 H   0  0  0  0  0  0
  -27.6409  -14.2524   19.4799 H   0  0  0  0  0  0
  -28.7149  -12.1494   21.4195 H   0  0  0  0  0  0
  -28.4151  -13.8240   21.8077 H   0  0  0  0  0  0
  -25.2766   -9.5696   22.4750 H   0  0  0  0  0  0
  -24.0008   -7.4633   22.7478 H   0  0  0  0  0  0
  -21.0825   -8.8753   19.8945 H   0  0  0  0  0  0
  -22.3675  -10.9664   19.6155 H   0  0  0  0  0  0
  -21.2004   -7.6145   23.9703 H   0  0  0  0  0  0
  -21.1480   -6.0532   25.9080 H   0  0  0  0  0  0
  -22.0600   -2.7599   23.2859 H   0  0  0  0  0  0
  -22.4124  -11.9859   22.4782 H   0  0  0  0  0  0
  -21.1115  -13.1219   22.2641 H   0  0  0  0  0  0
  -24.6482  -15.8428   20.5121 H   0  0  0  0  0  0
  -26.2679  -15.6315   20.0776 H   0  0  0  0  0  0
  -26.7182  -32.5383   23.1032 H   0  0  0  0  0  0
  -25.0014  -33.9663   25.0340 H   0  0  0  0  0  0
  -22.7244  -31.2968   21.3848 H   0  0  0  0  0  0
  -23.3745  -35.9636   23.3310 H   0  0  0  0  0  0
  -24.3583  -36.8917   22.2061 H   0  0  0  0  0  0
  -23.7268  -37.6497   23.6674 H   0  0  0  0  0  0
  -26.1058  -31.5264   20.6001 H   0  0  0  0  0  0
  -26.8460  -30.8166   22.0029 H   0  0  0  0  0  0
  -28.1151  -28.9432   21.1832 H   0  0  0  0  0  0
  -25.9674  -25.8601   19.0583 H   0  0  0  0  0  0
  -23.9741  -27.2641   19.0345 H   0  0  0  0  0  0
  -23.7709  -30.5686   19.3947 H   0  0  0  0  0  0
  -22.7617  -29.2312   19.8522 H   0  0  0  0  0  0
  -25.1313  -36.1907   25.0819 H   0  0  0  0  0  0
  -20.9991  -28.3291   24.1410 H   0  0  0  0  0  0
  -20.5690  -26.2320   23.3627 H   0  0  0  0  0  0
  -21.6669  -26.7458   22.1236 H   0  0  0  0  0  0
  -19.6954  -25.6267   21.1283 H   0  0  0  0  0  0
  -19.6710  -27.3173   20.6751 H   0  0  0  0  0  0
  -17.4215  -26.6625   21.4041 H   0  0  0  0  0  0
  -18.0374  -26.0062   22.9048 H   0  0  0  0  0  0
  -19.7934  -30.7287   24.2247 H   0  0  0  0  0  0
  -17.5016  -31.6266   24.5135 H   0  0  0  0  0  0
  -15.5359  -30.2958   23.7638 H   0  0  0  0  0  0
  -15.8695  -28.0795   22.7071 H   0  0  0  0  0  0
  -24.5901  -30.7061   25.7758 H   0  0  0  0  0  0
  -24.8907  -32.2883   26.4845 H   0  0  0  0  0  0
  -25.8043  -30.8908   27.0206 H   0  0  0  0  0  0
  -26.2916  -29.6718   24.1236 H   0  0  0  0  0  0
  -27.4043  -29.7272   25.4707 H   0  0  0  0  0  0
  -27.8785  -30.4258   23.9409 H   0  0  0  0  0  0
  -27.2634  -33.3619   26.2042 H   0  0  0  0  0  0
  -28.3855  -32.6876   25.0312 H   0  0  0  0  0  0
  -28.0695  -31.8454   26.5408 H   0  0  0  0  0  0
  -28.2603  -38.0094   24.7484 H   0  0  0  0  0  0
  -28.1067  -36.2618   24.6323 H   0  0  0  0  0  0
  -27.2290  -37.1501   25.8868 H   0  0  0  0  0  0
  -20.9350  -29.8786   21.6870 H   0  0  0  0  0  0
  -26.0172  -38.2841   24.1369 H   0  0  0  0  0  0
  -28.1901  -21.8645   22.7794 H   0  0  0  0  0  0
  -28.5006  -19.7584   23.9559 H   0  0  0  0  0  0
  -29.4813  -19.9207   19.1240 H   0  0  0  0  0  0
  -27.2743  -24.3991   18.2503 H   0  0  0  0  0  0
  -28.9644  -24.6561   17.8088 H   0  0  0  0  0  0
  -27.2763  -23.7773   21.2797 H   0  0  0  0  0  0
  -28.9516  -23.8694   21.8162 H   0  0  0  0  0  0
  -29.6524  -25.0121   19.9414 H   0  0  0  0  0  0
  -31.1183  -17.4607   20.1543 H   0  0  0  0  0  0
  -29.7324  -17.3326   19.1286 H   0  0  0  0  0  0
  -28.8560  -15.6722   20.9574 H   0  0  0  0  0  0
  1 25  1  0  0  0
  1 30  2  0  0  0
  1 83  1  0  0  0
  2  3  1  0  0  0
  2 25  1  0  0  0
  2 86  1  0  0  0
  2 87  1  0  0  0
  3  4  1  0  0  0
  3 88  1  0  0  0
  3 89  1  0  0  0
  4  5  1  0  0  0
  4 90  1  0  0  0
  4 91  1  0  0  0
  5  6  1  0  0  0
  5 26  1  0  0  0
  5 92  1  0  0  0
  6 25  1  0  0  0
  6 93  1  0  0  0
  6 94  1  0  0  0
  7  8  2  0  0  0
  7 26  1  0  0  0
  7 29  1  0  0  0
  8  9  1  0  0  0
  8 22  1  0  0  0
  9 10  1  0  0  0
  9 27  2  0  0  0
 10 11  2  0  0  0
 10 15  1  0  0  0
 11 12  1  0  0  0
 11 95  1  0  0  0
 12 13  2  0  0  0
 12 96  1  0  0  0
 13 14  1  0  0  0
 13 31  1  0  0  0
 14 15  2  0  0  0
 14 97  1  0  0  0
 15 98  1  0  0  0
 16 17  2  0  0  0
 16 21  1  0  0  0
 16 31  1  0  0  0
 17 18  1  0  0  0
 17 99  1  0  0  0
 18 19  2  0  0  0
 18100  1  0  0  0
 19 20  1  0  0  0
 19 24  1  0  0  0
 20 21  2  0  0  0
 20101  1  0  0  0
 21 23  1  0  0  0
 22 28  1  0  0  0
 22 32  2  0  0  0
 26 27  1  0  0  0
 28102  1  0  0  0
 28103  1  0  0  0
 29104  1  0  0  0
 29105  1  0  0  0
 33 34  1  0  0  0
 33 66  1  0  0  0
 33 70  2  0  0  0
 34 36  1  0  0  0
 34 59  1  0  0  0
 34106  1  0  0  0
 35 44  2  0  0  0
 35 45  1  0  0  0
 35 68  1  0  0  0
 36 56  1  0  0  0
 36107  1  0  0  0
 37 39  1  0  0  0
 37 47  1  0  0  0
 37 66  1  0  0  0
 37108  1  0  0  0
 38 43  2  0  0  0
 38 46  1  0  0  0
 38 47  1  0  0  0
 39 64  1  0  0  0
 39 67  2  0  0  0
 40 52  1  0  0  0
 40 53  2  0  0  0
 40 58  1  0  0  0
 41109  1  0  0  0
 41110  1  0  0  0
 41111  1  0  0  0
 41 48  1  0  0  0
 42 43  1  0  0  0
 42 66  1  0  0  0
 42112  1  0  0  0
 42113  1  0  0  0
 43 44  1  0  0  0
 44114  1  0  0  0
 45 46  2  0  0  0
 45115  1  0  0  0
 46116  1  0  0  0
 47117  1  0  0  0
 47118  1  0  0  0
 48 56  1  0  0  0
 48 65  1  0  0  0
 48119  1  0  0  0
 49 50  1  0  0  0
 49 53  1  0  0  0
 49 64  1  0  0  0
 49120  1  0  0  0
 50 51  1  0  0  0
 50121  1  0  0  0
 50122  1  0  0  0
 51 52  1  0  0  0
 51123  1  0  0  0
 51124  1  0  0  0
 52125  1  0  0  0
 52126  1  0  0  0
 53 54  1  0  0  0
 54 55  2  0  0  0
 54127  1  0  0  0
 55 57  1  0  0  0
 55128  1  0  0  0
 56 69  2  0  0  0
 57 58  2  0  0  0
 57129  1  0  0  0
 58130  1  0  0  0
 59 60  1  0  0  0
 59 61  1  0  0  0
 59 62  1  0  0  0
 60131  1  0  0  0
 60132  1  0  0  0
 60133  1  0  0  0
 61134  1  0  0  0
 61135  1  0  0  0
 61136  1  0  0  0
 62137  1  0  0  0
 62138  1  0  0  0
 62139  1  0  0  0
 63 65  1  0  0  0
 63140  1  0  0  0
 63141  1  0  0  0
 63142  1  0  0  0
 64143  1  0  0  0
 65144  1  0  0  0
 68 80  1  0  0  0
 71 72  2  0  0  0
 71 75  1  0  0  0
 71145  1  0  0  0
 72 76  1  0  0  0
 72146  1  0  0  0
 73 74  1  0  0  0
 73 75  2  0  0  0
 73147  1  0  0  0
 74 76  2  0  0  0
 74 81  1  0  0  0
 75 82  1  0  0  0
 76 85  1  0  0  0
 77 78  1  0  0  0
 77 82  1  0  0  0
 77 84  2  0  0  0
 78 80  1  0  0  0
 78148  1  0  0  0
 78149  1  0  0  0
 79 80  1  0  0  0
 79 82  1  0  0  0
 79150  1  0  0  0
 79151  1  0  0  0
 80152  1  0  0  0
 81 83  1  0  0  0
 81153  1  0  0  0
 81154  1  0  0  0
 83155  1  0  0  0
M  ISO  4   1 100  68 101  80 101  83 100
M  END
> <chiral flag>
0

> <version>
0

> <s_m_source_file>
/data/baiqing/PycharmProjects/Reinvent-master-3.2/result/LINK_invent/BTK/process_docking_weight1_custom_product_contain_oxygen_bond_distance_aromatic_linkinvent_7_9_3/rearranged_h_0029.sdf

> <i_m_source_file_index>
27

> <r_mmod_Potential_Energy-OPLS-2005>
217.915710449219

> <r_mmod_Stretch_Energy-OPLS-2005>
125.949058532715

> <r_mmod_Bend_Energy-OPLS-2005>
255.405349731445

> <r_mmod_Torsional_Energy-OPLS-2005>
230.034149169922

> <r_mmod_Improper_Torsional_Energy-OPLS-2005>
6.51248741149902

> <r_mmod_Van_der_Waal_Energy-OPLS-2005>
132.217483520508

> <r_mmod_Electrostatic_Energy-OPLS-2005>
-393.014312744141

> <r_mmod_Solvation_Energy-OPLS-2005>
-218.505310058594

> <b_mmod_Minimization_Converged-OPLS-2005>
0

> <r_mmod_RMS_Derivative-OPLS-2005>
1.86073303222656

$$$$
27
                    3D
 Structure written by MMmdl.
163172  0  0  1  0            999 V2000
  -30.5874  -14.7213   20.4777 C   0  0  0  0  0  0
  -30.4434  -12.4407   19.4669 C   0  0  0  0  0  0
  -29.5140  -12.5175   18.2340 C   0  0  0  0  0  0
  -28.0386  -12.3405   18.6455 C   0  0  0  0  0  0
  -27.6500  -13.2232   19.8610 C   0  0  2  0  0  0
  -28.6945  -13.1123   20.9943 C   0  0  0  0  0  0
  -25.2546  -13.8179   20.5692 C   0  0  0  0  0  0
  -24.1821  -13.0436   20.9193 C   0  0  0  0  0  0
  -24.6399  -11.6910   20.8739 C   0  0  0  0  0  0
  -23.9069  -10.4292   21.0404 C   0  0  0  0  0  0
  -24.3619   -9.4207   21.9182 C   0  0  0  0  0  0
  -23.6293   -8.2243   22.0753 C   0  0  0  0  0  0
  -22.4275   -8.0282   21.3545 C   0  0  0  0  0  0
  -21.9911   -9.0256   20.4647 C   0  0  0  0  0  0
  -22.7241  -10.2134   20.3054 C   0  0  0  0  0  0
  -21.6853   -6.0736   22.5280 C   0  0  0  0  0  0
  -21.4014   -6.5640   23.8213 C   0  0  0  0  0  0
  -21.3659   -5.6791   24.9175 C   0  0  0  0  0  0
  -21.6044   -4.3055   24.7225 C   0  0  0  0  0  0
  -21.8819   -3.8147   23.4346 C   0  0  0  0  0  0
  -21.9193   -4.6964   22.3403 C   0  0  0  0  0  0
  -22.7843  -13.5226   21.1855 C   0  0  0  0  0  0
  -22.1661   -4.2150   21.0980 F   0  0  0  0  0  0
  -21.5629   -3.4538   25.7738 F   0  0  0  0  0  0
  -30.0019  -13.4765   20.4273 N   0  0  0  0  0  0
  -26.2977  -12.9369   20.3312 N   0  0  0  0  0  0
  -25.9330  -11.6519   20.5754 N   0  0  0  0  0  0
  -22.0485  -12.8220   22.0413 N   0  0  0  0  0  0
  -25.4248  -15.1903   20.4120 N   0  0  0  0  0  0
  -31.7527  -14.8790   20.0994 O   0  0  0  0  0  0
  -21.6639   -6.8879   21.4241 O   0  0  0  0  0  0
  -22.3529  -14.5533   20.6704 O   0  0  0  0  0  0
  -24.6303  -31.8555   23.1982 C   0  0  0  0  0  0
  -25.9131  -32.4757   23.8327 C   0  0  1  0  0  0
  -27.2241  -27.2755   20.1292 C   0  0  0  0  0  0
  -25.5932  -33.8559   24.2256 N   0  0  0  0  0  0
  -23.4268  -30.4773   21.5413 C   0  0  2  0  0  0
  -24.8751  -28.9241   20.1101 C   0  0  0  0  0  0
  -22.7498  -29.4603   22.4916 C   0  0  0  0  0  0
  -18.0291  -28.1389   22.8485 C   0  0  0  0  0  0
  -24.1490  -36.7283   23.2640 C   0  0  0  0  0  0
  -25.9711  -30.7737   21.3748 C   0  0  0  0  0  0
  -26.0459  -29.3969   20.7169 C   0  0  0  0  0  0
  -27.2249  -28.5863   20.7117 C   0  0  0  0  0  0
  -26.0329  -26.8668   19.4907 C   0  0  0  0  0  0
  -24.8732  -27.6670   19.4851 C   0  0  0  0  0  0
  -23.6444  -29.8090   20.1579 C   0  0  0  0  0  0
  -25.4117  -36.3070   24.0327 C   0  0  1  0  0  0
  -20.5894  -28.3699   23.1273 C   0  0  2  0  0  0
  -20.6779  -26.9417   22.5410 C   0  0  0  0  0  0
  -19.5754  -26.6385   21.5214 C   0  0  0  0  0  0
  -18.1934  -26.7931   22.1626 C   0  0  0  0  0  0
  -19.1544  -28.8861   23.2873 C   0  0  0  0  0  0
  -18.9465  -30.1462   23.8891 C   0  0  0  0  0  0
  -17.6464  -30.6589   24.0563 C   0  0  0  0  0  0
  -25.9056  -34.9441   23.5094 C   0  0  0  0  0  0
  -16.5355  -29.9086   23.6332 C   0  0  0  0  0  0
  -16.7278  -28.6504   23.0352 C   0  0  0  0  0  0
  -26.4503  -31.6581   25.0714 C   0  0  0  0  0  0
  -25.3729  -31.3731   26.1436 C   0  0  0  0  0  0
  -27.0350  -30.2999   24.6194 C   0  0  0  0  0  0
  -27.6057  -32.4323   25.7486 C   0  0  0  0  0  0
  -27.5579  -37.1796   24.8466 C   0  0  0  0  0  0
  -21.4206  -29.3044   22.3661 N   0  0  0  0  0  0
  -26.4292  -37.3769   23.9409 N   0  0  0  0  0  0
  -24.6951  -31.0532   22.0948 N   0  0  0  0  0  0
  -23.4202  -28.8145   23.3014 O   0  0  0  0  0  0
  -28.3213  -26.3885   20.1828 O   0  0  0  0  0  0
  -26.5627  -34.8917   22.4663 O   0  0  0  0  0  0
  -23.5456  -32.1370   23.7286 O   0  0  0  0  0  0
  -29.4884  -19.2971   19.2431 C   0  0  0  0  0  0
  -29.6551  -20.2158   20.3201 C   0  0  0  0  0  0
  -29.5729  -17.8715   19.3839 C   0  0  0  0  0  0
  -29.9016  -19.5928   21.5876 C   0  0  0  0  0  0
  -29.9964  -18.1542   21.7381 C   0  0  0  0  0  0
  -29.8519  -17.2490   20.6361 C   0  0  0  0  0  0
  -29.0686  -24.0361   21.1563 C   0  0  0  0  0  0
  -28.3961  -23.8684   19.2699 C   0  0  0  0  0  0
  -28.0521  -24.9198   20.3700 C   0  0  2  0  0  0
  -29.3426  -17.0073   18.1558 C   0  0  0  0  0  0
  -30.1008  -20.4776   22.8149 C   0  0  0  0  0  0
  -30.2608  -17.5690   23.1230 C   0  0  0  0  0  0
  -29.7966  -21.7923   20.0313 C   0  0  0  0  0  0
  -29.7686  -15.7794   20.8260 N   0  0  0  0  0  0
  -28.7144  -22.8473   20.3195 N   0  3  1  0  0  0
  -31.4827  -12.5787   19.1640 H   0  0  0  0  0  0
  -30.3954  -11.4522   19.9265 H   0  0  0  0  0  0
  -29.7923  -11.7571   17.5032 H   0  0  0  0  0  0
  -29.6421  -13.4805   17.7370 H   0  0  0  0  0  0
  -27.8901  -11.2887   18.8927 H   0  0  0  0  0  0
  -27.3817  -12.5493   17.8003 H   0  0  0  0  0  0
  -27.6565  -14.2527   19.5033 H   0  0  0  0  0  0
  -28.7242  -12.0972   21.3930 H   0  0  0  0  0  0
  -28.4279  -13.7550   21.8346 H   0  0  0  0  0  0
  -25.2766   -9.5681   22.4756 H   0  0  0  0  0  0
  -24.0002   -7.4633   22.7472 H   0  0  0  0  0  0
  -21.0842   -8.8775   19.8953 H   0  0  0  0  0  0
  -22.3700  -10.9672   19.6163 H   0  0  0  0  0  0
  -21.2006   -7.6147   23.9717 H   0  0  0  0  0  0
  -21.1481   -6.0521   25.9078 H   0  0  0  0  0  0
  -22.0598   -2.7609   23.2846 H   0  0  0  0  0  0
  -22.4098  -11.9880   22.4801 H   0  0  0  0  0  0
  -21.1104  -13.1246   22.2618 H   0  0  0  0  0  0
  -24.6562  -15.8425   20.5239 H   0  0  0  0  0  0
  -26.2738  -15.6340   20.0860 H   0  0  0  0  0  0
  -26.7198  -32.5413   23.1070 H   0  0  0  0  0  0
  -25.0080  -33.9695   25.0403 H   0  0  0  0  0  0
  -22.7228  -31.2991   21.3946 H   0  0  0  0  0  0
  -23.3754  -35.9613   23.3299 H   0  0  0  0  0  0
  -24.3581  -36.8908   22.2055 H   0  0  0  0  0  0
  -23.7242  -37.6483   23.6665 H   0  0  0  0  0  0
  -26.1077  -31.5353   20.6058 H   0  0  0  0  0  0
  -26.8493  -30.8232   22.0070 H   0  0  0  0  0  0
  -28.1220  -28.9435   21.1979 H   0  0  0  0  0  0
  -25.9817  -25.9054   19.0005 H   0  0  0  0  0  0
  -23.9778  -27.3014   19.0015 H   0  0  0  0  0  0
  -23.7670  -30.5842   19.4006 H   0  0  0  0  0  0
  -22.7635  -29.2404   19.8546 H   0  0  0  0  0  0
  -25.1299  -36.1916   25.0820 H   0  0  0  0  0  0
  -20.9988  -28.3277   24.1394 H   0  0  0  0  0  0
  -20.5682  -26.2308   23.3614 H   0  0  0  0  0  0
  -21.6646  -26.7444   22.1201 H   0  0  0  0  0  0
  -19.6914  -25.6295   21.1246 H   0  0  0  0  0  0
  -19.6691  -27.3195   20.6743 H   0  0  0  0  0  0
  -17.4204  -26.6679   21.4028 H   0  0  0  0  0  0
  -18.0334  -26.0076   22.9024 H   0  0  0  0  0  0
  -19.7941  -30.7281   24.2256 H   0  0  0  0  0  0
  -17.5017  -31.6268   24.5166 H   0  0  0  0  0  0
  -15.5355  -30.2984   23.7661 H   0  0  0  0  0  0
  -15.8678  -28.0823   22.7067 H   0  0  0  0  0  0
  -24.5902  -30.7083   25.7764 H   0  0  0  0  0  0
  -24.8923  -32.2902   26.4853 H   0  0  0  0  0  0
  -25.8046  -30.8912   27.0217 H   0  0  0  0  0  0
  -26.2930  -29.6740   24.1221 H   0  0  0  0  0  0
  -27.4040  -29.7267   25.4710 H   0  0  0  0  0  0
  -27.8804  -30.4275   23.9429 H   0  0  0  0  0  0
  -27.2666  -33.3631   26.2044 H   0  0  0  0  0  0
  -28.3876  -32.6870   25.0319 H   0  0  0  0  0  0
  -28.0715  -31.8459   26.5417 H   0  0  0  0  0  0
  -28.2595  -38.0095   24.7515 H   0  0  0  0  0  0
  -28.1078  -36.2627   24.6290 H   0  0  0  0  0  0
  -27.2298  -37.1441   25.8869 H   0  0  0  0  0  0
  -20.9392  -29.8763   21.6862 H   0  0  0  0  0  0
  -26.0170  -38.2842   24.1409 H   0  0  0  0  0  0
  -29.3182  -19.7016   18.2545 H   0  0  0  0  0  0
  -28.8321  -23.9112   22.2131 H   0  0  0  0  0  0
  -30.1029  -24.3614   21.0252 H   0  0  0  0  0  0
  -29.2631  -24.1511   18.6687 H   0  0  0  0  0  0
  -27.5558  -23.5903   18.6338 H   0  0  0  0  0  0
  -27.0521  -24.7513   20.7773 H   0  0  0  0  0  0
  -29.1157  -17.6077   17.2746 H   0  0  0  0  0  0
  -28.5072  -16.3261   18.3180 H   0  0  0  0  0  0
  -30.2308  -16.4147   17.9354 H   0  0  0  0  0  0
  -29.7350  -21.4918   22.6718 H   0  0  0  0  0  0
  -31.1590  -20.5377   23.0713 H   0  0  0  0  0  0
  -29.5620  -20.0837   23.6770 H   0  0  0  0  0  0
  -31.0236  -18.1367   23.6552 H   0  0  0  0  0  0
  -30.6248  -16.5432   23.0870 H   0  0  0  0  0  0
  -29.3469  -17.5786   23.7169 H   0  0  0  0  0  0
  -30.0315  -21.8796   18.9705 H   0  0  0  0  0  0
  -30.7143  -22.1175   20.5211 H   0  0  0  0  0  0
  -28.8852  -15.4692   21.2004 H   0  0  0  0  0  0
  -27.8669  -22.4128   20.6499 H   0  0  0  0  0  0
  1 25  1  0  0  0
  1 30  2  0  0  0
  1 84  1  0  0  0
  2  3  1  0  0  0
  2 25  1  0  0  0
  2 86  1  0  0  0
  2 87  1  0  0  0
  3  4  1  0  0  0
  3 88  1  0  0  0
  3 89  1  0  0  0
  4  5  1  0  0  0
  4 90  1  0  0  0
  4 91  1  0  0  0
  5  6  1  0  0  0
  5 26  1  0  0  0
  5 92  1  0  0  0
  6 25  1  0  0  0
  6 93  1  0  0  0
  6 94  1  0  0  0
  7  8  2  0  0  0
  7 26  1  0  0  0
  7 29  1  0  0  0
  8  9  1  0  0  0
  8 22  1  0  0  0
  9 10  1  0  0  0
  9 27  2  0  0  0
 10 11  2  0  0  0
 10 15  1  0  0  0
 11 12  1  0  0  0
 11 95  1  0  0  0
 12 13  2  0  0  0
 12 96  1  0  0  0
 13 14  1  0  0  0
 13 31  1  0  0  0
 14 15  2  0  0  0
 14 97  1  0  0  0
 15 98  1  0  0  0
 16 17  2  0  0  0
 16 21  1  0  0  0
 16 31  1  0  0  0
 17 18  1  0  0  0
 17 99  1  0  0  0
 18 19  2  0  0  0
 18100  1  0  0  0
 19 20  1  0  0  0
 19 24  1  0  0  0
 20 21  2  0  0  0
 20101  1  0  0  0
 21 23  1  0  0  0
 22 28  1  0  0  0
 22 32  2  0  0  0
 26 27  1  0  0  0
 28102  1  0  0  0
 28103  1  0  0  0
 29104  1  0  0  0
 29105  1  0  0  0
 33 34  1  0  0  0
 33 66  1  0  0  0
 33 70  2  0  0  0
 34 36  1  0  0  0
 34 59  1  0  0  0
 34106  1  0  0  0
 35 44  2  0  0  0
 35 45  1  0  0  0
 35 68  1  0  0  0
 36 56  1  0  0  0
 36107  1  0  0  0
 37 39  1  0  0  0
 37 47  1  0  0  0
 37 66  1  0  0  0
 37108  1  0  0  0
 38 43  2  0  0  0
 38 46  1  0  0  0
 38 47  1  0  0  0
 39 64  1  0  0  0
 39 67  2  0  0  0
 40 52  1  0  0  0
 40 53  2  0  0  0
 40 58  1  0  0  0
 41109  1  0  0  0
 41110  1  0  0  0
 41111  1  0  0  0
 41 48  1  0  0  0
 42 43  1  0  0  0
 42 66  1  0  0  0
 42112  1  0  0  0
 42113  1  0  0  0
 43 44  1  0  0  0
 44114  1  0  0  0
 45 46  2  0  0  0
 45115  1  0  0  0
 46116  1  0  0  0
 47117  1  0  0  0
 47118  1  0  0  0
 48 56  1  0  0  0
 48 65  1  0  0  0
 48119  1  0  0  0
 49 50  1  0  0  0
 49 53  1  0  0  0
 49 64  1  0  0  0
 49120  1  0  0  0
 50 51  1  0  0  0
 50121  1  0  0  0
 50122  1  0  0  0
 51 52  1  0  0  0
 51123  1  0  0  0
 51124  1  0  0  0
 52125  1  0  0  0
 52126  1  0  0  0
 53 54  1  0  0  0
 54 55  2  0  0  0
 54127  1  0  0  0
 55 57  1  0  0  0
 55128  1  0  0  0
 56 69  2  0  0  0
 57 58  2  0  0  0
 57129  1  0  0  0
 58130  1  0  0  0
 59 60  1  0  0  0
 59 61  1  0  0  0
 59 62  1  0  0  0
 60131  1  0  0  0
 60132  1  0  0  0
 60133  1  0  0  0
 61134  1  0  0  0
 61135  1  0  0  0
 61136  1  0  0  0
 62137  1  0  0  0
 62138  1  0  0  0
 62139  1  0  0  0
 63 65  1  0  0  0
 63140  1  0  0  0
 63141  1  0  0  0
 63142  1  0  0  0
 64143  1  0  0  0
 65144  1  0  0  0
 68 79  1  0  0  0
 71 72  2  0  0  0
 71 73  1  0  0  0
 71145  1  0  0  0
 72 74  1  0  0  0
 72 83  1  0  0  0
 73 76  2  0  0  0
 73 80  1  0  0  0
 74 75  2  0  0  0
 74 81  1  0  0  0
 75 76  1  0  0  0
 75 82  1  0  0  0
 76 84  1  0  0  0
 77 79  1  0  0  0
 77 85  1  0  0  0
 77146  1  0  0  0
 77147  1  0  0  0
 78 79  1  0  0  0
 78 85  1  0  0  0
 78148  1  0  0  0
 78149  1  0  0  0
 79150  1  0  0  0
 80151  1  0  0  0
 80152  1  0  0  0
 80153  1  0  0  0
 81154  1  0  0  0
 81155  1  0  0  0
 81156  1  0  0  0
 82157  1  0  0  0
 82158  1  0  0  0
 82159  1  0  0  0
 83160  1  0  0  0
 83161  1  0  0  0
 83 85  1  0  0  0
 84162  1  0  0  0
 85163  1  0  0  0
M  CHG  1  85   1
M  ISO  4   1 100  68 101  79 101  84 100
M  END
> <chiral flag>
0

> <version>
0

> <s_m_source_file>
/data/baiqing/PycharmProjects/Reinvent-master-3.2/result/LINK_invent/BTK/process_docking_weight1_custom_product_contain_oxygen_bond_distance_aromatic_linkinvent_7_9_3/rearranged_h_0029.sdf

> <i_m_source_file_index>
28

> <r_mmod_Potential_Energy-OPLS-2005>
-50.969108581543

> <r_mmod_Stretch_Energy-OPLS-2005>
111.655044555664

> <r_mmod_Bend_Energy-OPLS-2005>
183.181198120117

> <r_mmod_Torsional_Energy-OPLS-2005>
264.689483642578

> <r_mmod_Improper_Torsional_Energy-OPLS-2005>
5.82994890213013

> <r_mmod_Van_der_Waal_Energy-OPLS-2005>
141.653533935547

> <r_mmod_Electrostatic_Energy-OPLS-2005>
-362.727264404297

> <r_mmod_Solvation_Energy-OPLS-2005>
-470.683258056641

> <b_mmod_Minimization_Converged-OPLS-2005>
0

> <r_mmod_RMS_Derivative-OPLS-2005>
0.181513875722885

$$$$
28
                    3D
 Structure written by MMmdl.
158167  0  0  1  0            999 V2000
  -30.5985  -14.7489   20.4671 C   0  0  0  0  0  0
  -30.4318  -12.4601   19.4677 C   0  0  0  0  0  0
  -29.5113  -12.5189   18.2300 C   0  0  0  0  0  0
  -28.0352  -12.3399   18.6388 C   0  0  0  0  0  0
  -27.6398  -13.2337   19.8459 C   0  0  2  0  0  0
  -28.6826  -13.1596   20.9809 C   0  0  0  0  0  0
  -25.2502  -13.8203   20.5676 C   0  0  0  0  0  0
  -24.1800  -13.0449   20.9202 C   0  0  0  0  0  0
  -24.6394  -11.6924   20.8735 C   0  0  0  0  0  0
  -23.9073  -10.4297   21.0400 C   0  0  0  0  0  0
  -24.3618   -9.4212   21.9174 C   0  0  0  0  0  0
  -23.6300   -8.2248   22.0747 C   0  0  0  0  0  0
  -22.4279   -8.0285   21.3546 C   0  0  0  0  0  0
  -21.9914   -9.0252   20.4641 C   0  0  0  0  0  0
  -22.7248  -10.2132   20.3046 C   0  0  0  0  0  0
  -21.6852   -6.0736   22.5282 C   0  0  0  0  0  0
  -21.4010   -6.5639   23.8217 C   0  0  0  0  0  0
  -21.3661   -5.6785   24.9177 C   0  0  0  0  0  0
  -21.6046   -4.3050   24.7223 C   0  0  0  0  0  0
  -21.8824   -3.8146   23.4345 C   0  0  0  0  0  0
  -21.9192   -4.6964   22.3400 C   0  0  0  0  0  0
  -22.7823  -13.5228   21.1868 C   0  0  0  0  0  0
  -22.1664   -4.2149   21.0980 F   0  0  0  0  0  0
  -21.5624   -3.4534   25.7734 F   0  0  0  0  0  0
  -29.9819  -13.5185   20.4006 N   0  0  0  0  0  0
  -26.2919  -12.9412   20.3238 N   0  0  0  0  0  0
  -25.9316  -11.6550   20.5718 N   0  0  0  0  0  0
  -22.0467  -12.8212   22.0425 N   0  0  0  0  0  0
  -25.4184  -15.1931   20.4095 N   0  0  0  0  0  0
  -31.7898  -14.8494   20.1597 O   0  0  0  0  0  0
  -21.6648   -6.8881   21.4239 O   0  0  0  0  0  0
  -22.3509  -14.5531   20.6720 O   0  0  0  0  0  0
  -24.6326  -31.8537   23.1979 C   0  0  0  0  0  0
  -25.9159  -32.4742   23.8328 C   0  0  1  0  0  0
  -27.2200  -27.2627   20.1400 C   0  0  0  0  0  0
  -25.5974  -33.8541   24.2270 N   0  0  0  0  0  0
  -23.4286  -30.4756   21.5400 C   0  0  2  0  0  0
  -24.8758  -28.9135   20.1164 C   0  0  0  0  0  0
  -22.7496  -29.4612   22.4914 C   0  0  0  0  0  0
  -18.0291  -28.1387   22.8478 C   0  0  0  0  0  0
  -24.1485  -36.7244   23.2632 C   0  0  0  0  0  0
  -25.9730  -30.7694   21.3729 C   0  0  0  0  0  0
  -26.0472  -29.3887   20.7213 C   0  0  0  0  0  0
  -27.2259  -28.5773   20.7168 C   0  0  0  0  0  0
  -26.0283  -26.8451   19.5155 C   0  0  0  0  0  0
  -24.8702  -27.6494   19.5041 C   0  0  0  0  0  0
  -23.6476  -29.8019   20.1584 C   0  0  0  0  0  0
  -25.4103  -36.3047   24.0343 C   0  0  1  0  0  0
  -20.5890  -28.3697   23.1264 C   0  0  2  0  0  0
  -20.6772  -26.9414   22.5396 C   0  0  0  0  0  0
  -19.5750  -26.6376   21.5202 C   0  0  0  0  0  0
  -18.1931  -26.7935   22.1608 C   0  0  0  0  0  0
  -19.1542  -28.8860   23.2865 C   0  0  0  0  0  0
  -18.9461  -30.1462   23.8876 C   0  0  0  0  0  0
  -17.6459  -30.6588   24.0556 C   0  0  0  0  0  0
  -25.9066  -34.9433   23.5102 C   0  0  0  0  0  0
  -16.5349  -29.9080   23.6344 C   0  0  0  0  0  0
  -16.7276  -28.6497   23.0359 C   0  0  0  0  0  0
  -26.4536  -31.6562   25.0706 C   0  0  0  0  0  0
  -25.3769  -31.3689   26.1426 C   0  0  0  0  0  0
  -27.0387  -30.2988   24.6179 C   0  0  0  0  0  0
  -27.6102  -32.4287   25.7474 C   0  0  0  0  0  0
  -27.5593  -37.1735   24.8438 C   0  0  0  0  0  0
  -21.4203  -29.3051   22.3661 N   0  0  0  0  0  0
  -26.4245  -37.3781   23.9478 N   0  0  0  0  0  0
  -24.6971  -31.0514   22.0937 N   0  0  0  0  0  0
  -23.4194  -28.8157   23.3017 O   0  0  0  0  0  0
  -28.3184  -26.3789   20.1312 O   0  0  0  0  0  0
  -26.5603  -34.8921   22.4651 O   0  0  0  0  0  0
  -23.5480  -32.1346   23.7293 O   0  0  0  0  0  0
  -27.9580  -20.7353   18.9095 C   0  0  0  0  0  0
  -27.8691  -19.4119   18.4303 C   0  0  0  0  0  0
  -29.4181  -19.9400   20.6862 C   0  0  0  0  0  0
  -29.3615  -18.5636   20.1830 C   0  0  0  0  0  0
  -28.7293  -21.0648   20.0483 C   0  0  0  0  0  0
  -28.5581  -18.3460   19.0431 C   0  0  0  0  0  0
  -28.4187  -23.6916   19.9362 C   0  0  0  0  0  0
  -30.2132  -20.2090   21.9588 C   0  0  0  0  0  0
  -31.2380  -19.1160   22.3123 C   0  0  0  0  0  0
  -30.6661  -17.6922   22.2119 C   0  0  0  0  0  0
  -30.2346  -17.3560   20.7742 C   0  0  1  0  0  0
  -28.1856  -25.0320   20.7914 C   0  0  0  0  0  0
  -28.7182  -22.4732   20.5520 N   0  0  0  0  0  0
  -29.8223  -15.8777   20.6967 N   0  0  0  0  0  0
  -28.3307  -23.7805   18.7081 O   0  0  0  0  0  0
  -28.4490  -17.1067   18.5072 F   0  0  0  0  0  0
  -31.4741  -12.5899   19.1703 H   0  0  0  0  0  0
  -30.3796  -11.4796   19.9435 H   0  0  0  0  0  0
  -29.7983  -11.7541   17.5069 H   0  0  0  0  0  0
  -29.6371  -13.4787   17.7257 H   0  0  0  0  0  0
  -27.8877  -11.2893   18.8912 H   0  0  0  0  0  0
  -27.3813  -12.5415   17.7899 H   0  0  0  0  0  0
  -27.6341  -14.2579   19.4704 H   0  0  0  0  0  0
  -28.7193  -12.1580   21.4117 H   0  0  0  0  0  0
  -28.4168  -13.8328   21.7985 H   0  0  0  0  0  0
  -25.2762   -9.5695   22.4742 H   0  0  0  0  0  0
  -24.0007   -7.4633   22.7462 H   0  0  0  0  0  0
  -21.0844   -8.8772   19.8941 H   0  0  0  0  0  0
  -22.3709  -10.9662   19.6145 H   0  0  0  0  0  0
  -21.2005   -7.6143   23.9718 H   0  0  0  0  0  0
  -21.1477   -6.0515   25.9077 H   0  0  0  0  0  0
  -22.0602   -2.7604   23.2836 H   0  0  0  0  0  0
  -22.4071  -11.9872   22.4812 H   0  0  0  0  0  0
  -21.1075  -13.1223   22.2605 H   0  0  0  0  0  0
  -24.6465  -15.8426   20.5161 H   0  0  0  0  0  0
  -26.2529  -15.6302   20.0402 H   0  0  0  0  0  0
  -26.7230  -32.5409   23.1075 H   0  0  0  0  0  0
  -25.0217  -33.9667   25.0489 H   0  0  0  0  0  0
  -22.7271  -31.2982   21.3892 H   0  0  0  0  0  0
  -23.3799  -35.9509   23.3182 H   0  0  0  0  0  0
  -24.3611  -36.8970   22.2069 H   0  0  0  0  0  0
  -23.7156  -37.6385   23.6710 H   0  0  0  0  0  0
  -26.1078  -31.5278   20.6005 H   0  0  0  0  0  0
  -26.8526  -30.8206   22.0029 H   0  0  0  0  0  0
  -28.1277  -28.9411   21.1897 H   0  0  0  0  0  0
  -25.9918  -25.8739   19.0416 H   0  0  0  0  0  0
  -23.9724  -27.2788   19.0291 H   0  0  0  0  0  0
  -23.7767  -30.5731   19.3983 H   0  0  0  0  0  0
  -22.7663  -29.2339   19.8545 H   0  0  0  0  0  0
  -25.1272  -36.1851   25.0824 H   0  0  0  0  0  0
  -20.9986  -28.3258   24.1383 H   0  0  0  0  0  0
  -20.5659  -26.2314   23.3601 H   0  0  0  0  0  0
  -21.6645  -26.7428   22.1192 H   0  0  0  0  0  0
  -19.6907  -25.6282   21.1240 H   0  0  0  0  0  0
  -19.6697  -27.3180   20.6730 H   0  0  0  0  0  0
  -17.4208  -26.6701   21.4002 H   0  0  0  0  0  0
  -18.0318  -26.0076   22.8996 H   0  0  0  0  0  0
  -19.7940  -30.7281   24.2234 H   0  0  0  0  0  0
  -17.5020  -31.6276   24.5148 H   0  0  0  0  0  0
  -15.5351  -30.2971   23.7696 H   0  0  0  0  0  0
  -15.8678  -28.0811   22.7087 H   0  0  0  0  0  0
  -24.5993  -30.6976   25.7765 H   0  0  0  0  0  0
  -24.8903  -32.2831   26.4834 H   0  0  0  0  0  0
  -25.8105  -30.8900   27.0212 H   0  0  0  0  0  0
  -26.2964  -29.6698   24.1247 H   0  0  0  0  0  0
  -27.4136  -29.7290   25.4691 H   0  0  0  0  0  0
  -27.8821  -30.4272   23.9390 H   0  0  0  0  0  0
  -27.2738  -33.3615   26.2012 H   0  0  0  0  0  0
  -28.3944  -32.6771   25.0310 H   0  0  0  0  0  0
  -28.0735  -31.8418   26.5414 H   0  0  0  0  0  0
  -28.2463  -38.0177   24.7719 H   0  0  0  0  0  0
  -28.1239  -36.2736   24.5954 H   0  0  0  0  0  0
  -27.2360  -37.0999   25.8835 H   0  0  0  0  0  0
  -20.9400  -29.8755   21.6842 H   0  0  0  0  0  0
  -26.0100  -38.2809   24.1624 H   0  0  0  0  0  0
  -27.3914  -21.4943   18.3906 H   0  0  0  0  0  0
  -27.2571  -19.2073   17.5640 H   0  0  0  0  0  0
  -29.4961  -20.3106   22.7747 H   0  0  0  0  0  0
  -30.7281  -21.1676   21.8801 H   0  0  0  0  0  0
  -31.6255  -19.2943   23.3158 H   0  0  0  0  0  0
  -32.0925  -19.1993   21.6398 H   0  0  0  0  0  0
  -29.8156  -17.5986   22.8891 H   0  0  0  0  0  0
  -31.4138  -16.9765   22.5556 H   0  0  0  0  0  0
  -31.1399  -17.4094   20.1666 H   0  0  0  0  0  0
  -28.9075  -25.0190   21.6080 H   0  0  0  0  0  0
  -27.2089  -24.9498   21.2686 H   0  0  0  0  0  0
  -28.9153  -22.5665   21.5392 H   0  0  0  0  0  0
  -28.8449  -15.6935   20.8646 H   0  0  0  0  0  0
  1 25  1  0  0  0
  1 30  2  0  0  0
  1 84  1  0  0  0
  2  3  1  0  0  0
  2 25  1  0  0  0
  2 87  1  0  0  0
  2 88  1  0  0  0
  3  4  1  0  0  0
  3 89  1  0  0  0
  3 90  1  0  0  0
  4  5  1  0  0  0
  4 91  1  0  0  0
  4 92  1  0  0  0
  5  6  1  0  0  0
  5 26  1  0  0  0
  5 93  1  0  0  0
  6 25  1  0  0  0
  6 94  1  0  0  0
  6 95  1  0  0  0
  7  8  2  0  0  0
  7 26  1  0  0  0
  7 29  1  0  0  0
  8  9  1  0  0  0
  8 22  1  0  0  0
  9 10  1  0  0  0
  9 27  2  0  0  0
 10 11  2  0  0  0
 10 15  1  0  0  0
 11 12  1  0  0  0
 11 96  1  0  0  0
 12 13  2  0  0  0
 12 97  1  0  0  0
 13 14  1  0  0  0
 13 31  1  0  0  0
 14 15  2  0  0  0
 14 98  1  0  0  0
 15 99  1  0  0  0
 16 17  2  0  0  0
 16 21  1  0  0  0
 16 31  1  0  0  0
 17 18  1  0  0  0
 17100  1  0  0  0
 18 19  2  0  0  0
 18101  1  0  0  0
 19 20  1  0  0  0
 19 24  1  0  0  0
 20 21  2  0  0  0
 20102  1  0  0  0
 21 23  1  0  0  0
 22 28  1  0  0  0
 22 32  2  0  0  0
 26 27  1  0  0  0
 28103  1  0  0  0
 28104  1  0  0  0
 29105  1  0  0  0
 29106  1  0  0  0
 33 34  1  0  0  0
 33 66  1  0  0  0
 33 70  2  0  0  0
 34 36  1  0  0  0
 34 59  1  0  0  0
 34107  1  0  0  0
 35 44  2  0  0  0
 35 45  1  0  0  0
 35 68  1  0  0  0
 36 56  1  0  0  0
 36108  1  0  0  0
 37 39  1  0  0  0
 37 47  1  0  0  0
 37 66  1  0  0  0
 37109  1  0  0  0
 38 43  2  0  0  0
 38 46  1  0  0  0
 38 47  1  0  0  0
 39 64  1  0  0  0
 39 67  2  0  0  0
 40 52  1  0  0  0
 40 53  2  0  0  0
 40 58  1  0  0  0
 41110  1  0  0  0
 41111  1  0  0  0
 41112  1  0  0  0
 41 48  1  0  0  0
 42 43  1  0  0  0
 42 66  1  0  0  0
 42113  1  0  0  0
 42114  1  0  0  0
 43 44  1  0  0  0
 44115  1  0  0  0
 45 46  2  0  0  0
 45116  1  0  0  0
 46117  1  0  0  0
 47118  1  0  0  0
 47119  1  0  0  0
 48 56  1  0  0  0
 48 65  1  0  0  0
 48120  1  0  0  0
 49 50  1  0  0  0
 49 53  1  0  0  0
 49 64  1  0  0  0
 49121  1  0  0  0
 50 51  1  0  0  0
 50122  1  0  0  0
 50123  1  0  0  0
 51 52  1  0  0  0
 51124  1  0  0  0
 51125  1  0  0  0
 52126  1  0  0  0
 52127  1  0  0  0
 53 54  1  0  0  0
 54 55  2  0  0  0
 54128  1  0  0  0
 55 57  1  0  0  0
 55129  1  0  0  0
 56 69  2  0  0  0
 57 58  2  0  0  0
 57130  1  0  0  0
 58131  1  0  0  0
 59 60  1  0  0  0
 59 61  1  0  0  0
 59 62  1  0  0  0
 60132  1  0  0  0
 60133  1  0  0  0
 60134  1  0  0  0
 61135  1  0  0  0
 61136  1  0  0  0
 61137  1  0  0  0
 62138  1  0  0  0
 62139  1  0  0  0
 62140  1  0  0  0
 63 65  1  0  0  0
 63141  1  0  0  0
 63142  1  0  0  0
 63143  1  0  0  0
 64144  1  0  0  0
 65145  1  0  0  0
 68 82  1  0  0  0
 71 72  2  0  0  0
 71 75  1  0  0  0
 71146  1  0  0  0
 72 76  1  0  0  0
 72147  1  0  0  0
 73 74  1  0  0  0
 73 75  2  0  0  0
 73 78  1  0  0  0
 74 76  2  0  0  0
 74 81  1  0  0  0
 75 83  1  0  0  0
 76 86  1  0  0  0
 77 82  1  0  0  0
 77 83  1  0  0  0
 77 85  2  0  0  0
 78 79  1  0  0  0
 78148  1  0  0  0
 78149  1  0  0  0
 79 80  1  0  0  0
 79150  1  0  0  0
 79151  1  0  0  0
 80 81  1  0  0  0
 80152  1  0  0  0
 80153  1  0  0  0
 81 84  1  0  0  0
 81154  1  0  0  0
 82155  1  0  0  0
 82156  1  0  0  0
 83157  1  0  0  0
 84158  1  0  0  0
M  ISO  4   1 100  68 101  82 101  84 100
M  END
> <chiral flag>
0

> <version>
0

> <s_m_source_file>
/data/baiqing/PycharmProjects/Reinvent-master-3.2/result/LINK_invent/BTK/process_docking_weight1_custom_product_contain_oxygen_bond_distance_aromatic_linkinvent_7_9_3/rearranged_h_0029.sdf

> <i_m_source_file_index>
29

> <r_mmod_Potential_Energy-OPLS-2005>
119.764289855957

> <r_mmod_Stretch_Energy-OPLS-2005>
131.305633544922

> <r_mmod_Bend_Energy-OPLS-2005>
163.60270690918

> <r_mmod_Torsional_Energy-OPLS-2005>
238.930862426758

> <r_mmod_Improper_Torsional_Energy-OPLS-2005>
4.56299781799316

> <r_mmod_Van_der_Waal_Energy-OPLS-2005>
134.285202026367

> <r_mmod_Electrostatic_Energy-OPLS-2005>
-405.714904785156

> <r_mmod_Solvation_Energy-OPLS-2005>
-231.276062011719

> <b_mmod_Minimization_Converged-OPLS-2005>
0

> <r_mmod_RMS_Derivative-OPLS-2005>
1.87070918083191

$$$$
29
                    3D
 Structure written by MMmdl.
162171  0  0  1  0            999 V2000
  -30.5151  -14.9181   20.4404 C   0  0  0  0  0  0
  -30.4513  -12.5657   19.4980 C   0  0  0  0  0  0
  -29.5263  -12.5356   18.2573 C   0  0  0  0  0  0
  -28.0568  -12.3222   18.6705 C   0  0  0  0  0  0
  -27.6379  -13.2389   19.8493 C   0  0  2  0  0  0
  -28.6799  -13.2223   20.9894 C   0  0  0  0  0  0
  -25.2468  -13.8164   20.5638 C   0  0  0  0  0  0
  -24.1792  -13.0415   20.9216 C   0  0  0  0  0  0
  -24.6404  -11.6900   20.8769 C   0  0  0  0  0  0
  -23.9080  -10.4281   21.0420 C   0  0  0  0  0  0
  -24.3622   -9.4187   21.9194 C   0  0  0  0  0  0
  -23.6286   -8.2229   22.0761 C   0  0  0  0  0  0
  -22.4271   -8.0274   21.3547 C   0  0  0  0  0  0
  -21.9913   -9.0251   20.4651 C   0  0  0  0  0  0
  -22.7252  -10.2126   20.3061 C   0  0  0  0  0  0
  -21.6848   -6.0728   22.5275 C   0  0  0  0  0  0
  -21.4017   -6.5634   23.8207 C   0  0  0  0  0  0
  -21.3661   -5.6790   24.9172 C   0  0  0  0  0  0
  -21.6044   -4.3049   24.7226 C   0  0  0  0  0  0
  -21.8818   -3.8142   23.4345 C   0  0  0  0  0  0
  -21.9191   -4.6956   22.3398 C   0  0  0  0  0  0
  -22.7814  -13.5200   21.1869 C   0  0  0  0  0  0
  -22.1658   -4.2139   21.0973 F   0  0  0  0  0  0
  -21.5630   -3.4534   25.7740 F   0  0  0  0  0  0
  -29.9650  -13.6393   20.4085 N   0  0  0  0  0  0
  -26.2917  -12.9401   20.3257 N   0  0  0  0  0  0
  -25.9340  -11.6544   20.5761 N   0  0  0  0  0  0
  -22.0454  -12.8205   22.0431 N   0  0  0  0  0  0
  -25.4093  -15.1868   20.3914 N   0  0  0  0  0  0
  -31.6990  -15.0482   20.1068 O   0  0  0  0  0  0
  -21.6634   -6.8872   21.4237 O   0  0  0  0  0  0
  -22.3507  -14.5502   20.6699 O   0  0  0  0  0  0
  -24.6423  -31.8434   23.1873 C   0  0  0  0  0  0
  -25.9207  -32.4691   23.8255 C   0  0  1  0  0  0
  -27.2294  -27.1475   20.1465 C   0  0  0  0  0  0
  -25.5960  -33.8494   24.2188 N   0  0  0  0  0  0
  -23.4447  -30.4598   21.5344 C   0  0  2  0  0  0
  -24.8937  -28.8852   20.1096 C   0  0  0  0  0  0
  -22.7566  -29.4521   22.4886 C   0  0  0  0  0  0
  -18.0296  -28.1383   22.8466 C   0  0  0  0  0  0
  -24.1497  -36.7249   23.2639 C   0  0  0  0  0  0
  -25.9978  -30.7215   21.3817 C   0  0  0  0  0  0
  -26.0689  -29.3334   20.7225 C   0  0  0  0  0  0
  -27.2322  -28.4805   20.7222 C   0  0  0  0  0  0
  -26.0181  -26.7848   19.5188 C   0  0  0  0  0  0
  -24.8794  -27.6229   19.4937 C   0  0  0  0  0  0
  -23.6694  -29.7866   20.1537 C   0  0  0  0  0  0
  -25.4128  -36.3029   24.0315 C   0  0  1  0  0  0
  -20.5911  -28.3698   23.1250 C   0  0  2  0  0  0
  -20.6787  -26.9401   22.5414 C   0  0  0  0  0  0
  -19.5765  -26.6366   21.5216 C   0  0  0  0  0  0
  -18.1943  -26.7918   22.1612 C   0  0  0  0  0  0
  -19.1554  -28.8863   23.2843 C   0  0  0  0  0  0
  -18.9469  -30.1467   23.8852 C   0  0  0  0  0  0
  -17.6464  -30.6579   24.0550 C   0  0  0  0  0  0
  -25.9076  -34.9403   23.5060 C   0  0  0  0  0  0
  -16.5357  -29.9069   23.6329 C   0  0  0  0  0  0
  -16.7284  -28.6499   23.0335 C   0  0  0  0  0  0
  -26.4530  -31.6552   25.0690 C   0  0  0  0  0  0
  -25.3720  -31.3738   26.1395 C   0  0  0  0  0  0
  -27.0397  -30.2950   24.6260 C   0  0  0  0  0  0
  -27.6059  -32.4321   25.7478 C   0  0  0  0  0  0
  -27.5584  -37.1784   24.8462 C   0  0  0  0  0  0
  -21.4261  -29.3023   22.3634 N   0  0  0  0  0  0
  -26.4291  -37.3744   23.9409 N   0  0  0  0  0  0
  -24.7146  -31.0295   22.0901 N   0  0  0  0  0  0
  -23.4211  -28.8078   23.3044 O   0  0  0  0  0  0
  -28.3389  -26.2349   20.2551 O   0  0  0  0  0  0
  -26.5651  -34.8902   22.4635 O   0  0  0  0  0  0
  -23.5549  -32.1314   23.7106 O   0  0  0  0  0  0
  -28.3398  -19.7536   20.8936 C   0  0  0  0  0  0
  -30.5731  -18.3983   19.9415 C   0  0  0  0  0  0
  -28.4987  -18.3163   21.0694 C   0  0  0  0  0  0
  -30.4110  -19.8389   19.7685 C   0  0  0  0  0  0
  -29.2640  -20.6053   20.2107 C   0  0  0  0  0  0
  -29.6174  -17.5413   20.5768 C   0  0  0  0  0  0
  -28.8436  -23.3390   17.6841 C   0  0  0  0  0  0
  -28.1099  -24.5457   18.3001 C   0  0  0  0  0  0
  -28.5406  -22.0199   18.4240 C   0  0  0  0  0  0
  -28.4891  -23.2890   20.5505 C   0  0  0  0  0  0
  -28.5517  -24.7717   19.7557 C   0  0  2  0  0  0
  -27.3682  -17.6176   21.8076 C   0  0  0  0  0  0
  -31.5341  -20.5716   19.0537 C   0  0  0  0  0  0
  -29.0204  -22.0239   19.8090 N   0  0  0  0  0  0
  -29.6590  -16.0128   20.7125 N   0  0  0  0  0  0
  -31.4845  -12.7337   19.1902 H   0  0  0  0  0  0
  -30.4468  -11.6010   20.0074 H   0  0  0  0  0  0
  -29.8402  -11.7507   17.5683 H   0  0  0  0  0  0
  -29.6186  -13.4757   17.7112 H   0  0  0  0  0  0
  -27.9453  -11.2766   18.9607 H   0  0  0  0  0  0
  -27.3957  -12.4723   17.8160 H   0  0  0  0  0  0
  -27.6143  -14.2502   19.4426 H   0  0  0  0  0  0
  -28.7564  -12.2282   21.4321 H   0  0  0  0  0  0
  -28.3798  -13.8911   21.7978 H   0  0  0  0  0  0
  -25.2766   -9.5655   22.4771 H   0  0  0  0  0  0
  -23.9985   -7.4622   22.7490 H   0  0  0  0  0  0
  -21.0840   -8.8775   19.8960 H   0  0  0  0  0  0
  -22.3713  -10.9665   19.6168 H   0  0  0  0  0  0
  -21.2011   -7.6143   23.9705 H   0  0  0  0  0  0
  -21.1487   -6.0522   25.9074 H   0  0  0  0  0  0
  -22.0598   -2.7602   23.2847 H   0  0  0  0  0  0
  -22.4067  -11.9873   22.4839 H   0  0  0  0  0  0
  -21.1072  -13.1248   22.2629 H   0  0  0  0  0  0
  -24.6184  -15.8182   20.4502 H   0  0  0  0  0  0
  -26.2179  -15.6071   19.9537 H   0  0  0  0  0  0
  -26.7266  -32.5320   23.0978 H   0  0  0  0  0  0
  -25.0118  -33.9607   25.0345 H   0  0  0  0  0  0
  -22.7452  -31.2843   21.3812 H   0  0  0  0  0  0
  -23.3771  -35.9569   23.3272 H   0  0  0  0  0  0
  -24.3578  -36.8914   22.2058 H   0  0  0  0  0  0
  -23.7236  -37.6427   23.6695 H   0  0  0  0  0  0
  -26.1515  -31.4760   20.6088 H   0  0  0  0  0  0
  -26.8678  -30.7704   22.0250 H   0  0  0  0  0  0
  -28.1302  -28.8207   21.2191 H   0  0  0  0  0  0
  -25.8981  -25.8100   19.0841 H   0  0  0  0  0  0
  -23.9758  -27.2669   19.0187 H   0  0  0  0  0  0
  -23.8064  -30.5603   19.3968 H   0  0  0  0  0  0
  -22.7834  -29.2287   19.8445 H   0  0  0  0  0  0
  -25.1316  -36.1844   25.0803 H   0  0  0  0  0  0
  -20.9990  -28.3283   24.1375 H   0  0  0  0  0  0
  -20.5693  -26.2299   23.3627 H   0  0  0  0  0  0
  -21.6655  -26.7429   22.1210 H   0  0  0  0  0  0
  -19.6927  -25.6275   21.1252 H   0  0  0  0  0  0
  -19.6707  -27.3173   20.6744 H   0  0  0  0  0  0
  -17.4220  -26.6661   21.4006 H   0  0  0  0  0  0
  -18.0325  -26.0072   22.9015 H   0  0  0  0  0  0
  -19.7949  -30.7294   24.2205 H   0  0  0  0  0  0
  -17.5016  -31.6252   24.5161 H   0  0  0  0  0  0
  -15.5355  -30.2944   23.7696 H   0  0  0  0  0  0
  -15.8685  -28.0818   22.7044 H   0  0  0  0  0  0
  -24.5931  -30.7039   25.7738 H   0  0  0  0  0  0
  -24.8871  -32.2913   26.4733 H   0  0  0  0  0  0
  -25.8014  -30.8992   27.0227 H   0  0  0  0  0  0
  -26.3010  -29.6660   24.1283 H   0  0  0  0  0  0
  -27.4031  -29.7252   25.4820 H   0  0  0  0  0  0
  -27.8899  -30.4184   23.9552 H   0  0  0  0  0  0
  -27.2659  -33.3666   26.1948 H   0  0  0  0  0  0
  -28.3917  -32.6809   25.0335 H   0  0  0  0  0  0
  -28.0661  -31.8512   26.5479 H   0  0  0  0  0  0
  -28.2588  -38.0102   24.7538 H   0  0  0  0  0  0
  -28.1103  -36.2629   24.6259 H   0  0  0  0  0  0
  -27.2298  -37.1390   25.8866 H   0  0  0  0  0  0
  -20.9477  -29.8736   21.6810 H   0  0  0  0  0  0
  -26.0152  -38.2808   24.1425 H   0  0  0  0  0  0
  -27.4306  -20.2072   21.2618 H   0  0  0  0  0  0
  -31.4643  -17.9331   19.5418 H   0  0  0  0  0  0
  -29.9198  -23.5191   17.6645 H   0  0  0  0  0  0
  -28.5360  -23.2386   16.6429 H   0  0  0  0  0  0
  -27.0440  -24.3418   18.2422 H   0  0  0  0  0  0
  -28.3046  -25.4378   17.7042 H   0  0  0  0  0  0
  -28.9762  -21.1945   17.8581 H   0  0  0  0  0  0
  -27.4641  -21.8405   18.4276 H   0  0  0  0  0  0
  -27.4551  -23.0985   20.8398 H   0  0  0  0  0  0
  -29.0441  -23.3778   21.4850 H   0  0  0  0  0  0
  -29.6342  -24.8623   19.6570 H   0  0  0  0  0  0
  -27.1814  -18.1131   22.7607 H   0  0  0  0  0  0
  -27.5654  -16.5691   22.0248 H   0  0  0  0  0  0
  -26.4532  -17.6733   21.2180 H   0  0  0  0  0  0
  -32.4685  -20.0142   19.1107 H   0  0  0  0  0  0
  -31.7098  -21.5474   19.5073 H   0  0  0  0  0  0
  -31.2901  -20.7199   18.0023 H   0  0  0  0  0  0
  -28.7766  -15.6509   21.0368 H   0  0  0  0  0  0
  1 25  1  0  0  0
  1 30  2  0  0  0
  1 85  1  0  0  0
  2  3  1  0  0  0
  2 25  1  0  0  0
  2 86  1  0  0  0
  2 87  1  0  0  0
  3  4  1  0  0  0
  3 88  1  0  0  0
  3 89  1  0  0  0
  4  5  1  0  0  0
  4 90  1  0  0  0
  4 91  1  0  0  0
  5  6  1  0  0  0
  5 26  1  0  0  0
  5 92  1  0  0  0
  6 25  1  0  0  0
  6 93  1  0  0  0
  6 94  1  0  0  0
  7  8  2  0  0  0
  7 26  1  0  0  0
  7 29  1  0  0  0
  8  9  1  0  0  0
  8 22  1  0  0  0
  9 10  1  0  0  0
  9 27  2  0  0  0
 10 11  2  0  0  0
 10 15  1  0  0  0
 11 12  1  0  0  0
 11 95  1  0  0  0
 12 13  2  0  0  0
 12 96  1  0  0  0
 13 14  1  0  0  0
 13 31  1  0  0  0
 14 15  2  0  0  0
 14 97  1  0  0  0
 15 98  1  0  0  0
 16 17  2  0  0  0
 16 21  1  0  0  0
 16 31  1  0  0  0
 17 18  1  0  0  0
 17 99  1  0  0  0
 18 19  2  0  0  0
 18100  1  0  0  0
 19 20  1  0  0  0
 19 24  1  0  0  0
 20 21  2  0  0  0
 20101  1  0  0  0
 21 23  1  0  0  0
 22 28  1  0  0  0
 22 32  2  0  0  0
 26 27  1  0  0  0
 28102  1  0  0  0
 28103  1  0  0  0
 29104  1  0  0  0
 29105  1  0  0  0
 33 34  1  0  0  0
 33 66  1  0  0  0
 33 70  2  0  0  0
 34 36  1  0  0  0
 34 59  1  0  0  0
 34106  1  0  0  0
 35 44  2  0  0  0
 35 45  1  0  0  0
 35 68  1  0  0  0
 36 56  1  0  0  0
 36107  1  0  0  0
 37 39  1  0  0  0
 37 47  1  0  0  0
 37 66  1  0  0  0
 37108  1  0  0  0
 38 43  2  0  0  0
 38 46  1  0  0  0
 38 47  1  0  0  0
 39 64  1  0  0  0
 39 67  2  0  0  0
 40 52  1  0  0  0
 40 53  2  0  0  0
 40 58  1  0  0  0
 41109  1  0  0  0
 41110  1  0  0  0
 41111  1  0  0  0
 41 48  1  0  0  0
 42 43  1  0  0  0
 42 66  1  0  0  0
 42112  1  0  0  0
 42113  1  0  0  0
 43 44  1  0  0  0
 44114  1  0  0  0
 45 46  2  0  0  0
 45115  1  0  0  0
 46116  1  0  0  0
 47117  1  0  0  0
 47118  1  0  0  0
 48 56  1  0  0  0
 48 65  1  0  0  0
 48119  1  0  0  0
 49 50  1  0  0  0
 49 53  1  0  0  0
 49 64  1  0  0  0
 49120  1  0  0  0
 50 51  1  0  0  0
 50121  1  0  0  0
 50122  1  0  0  0
 51 52  1  0  0  0
 51123  1  0  0  0
 51124  1  0  0  0
 52125  1  0  0  0
 52126  1  0  0  0
 53 54  1  0  0  0
 54 55  2  0  0  0
 54127  1  0  0  0
 55 57  1  0  0  0
 55128  1  0  0  0
 56 69  2  0  0  0
 57 58  2  0  0  0
 57129  1  0  0  0
 58130  1  0  0  0
 59 60  1  0  0  0
 59 61  1  0  0  0
 59 62  1  0  0  0
 60131  1  0  0  0
 60132  1  0  0  0
 60133  1  0  0  0
 61134  1  0  0  0
 61135  1  0  0  0
 61136  1  0  0  0
 62137  1  0  0  0
 62138  1  0  0  0
 62139  1  0  0  0
 63 65  1  0  0  0
 63140  1  0  0  0
 63141  1  0  0  0
 63142  1  0  0  0
 64143  1  0  0  0
 65144  1  0  0  0
 68 81  1  0  0  0
 71 73  2  0  0  0
 71 75  1  0  0  0
 71145  1  0  0  0
 72 74  1  0  0  0
 72 76  2  0  0  0
 72146  1  0  0  0
 73 76  1  0  0  0
 73 82  1  0  0  0
 74 75  2  0  0  0
 74 83  1  0  0  0
 75 84  1  0  0  0
 76 85  1  0  0  0
 77 78  1  0  0  0
 77 79  1  0  0  0
 77147  1  0  0  0
 77148  1  0  0  0
 78 81  1  0  0  0
 78149  1  0  0  0
 78150  1  0  0  0
 79 84  1  0  0  0
 79151  1  0  0  0
 79152  1  0  0  0
 80 81  1  0  0  0
 80 84  1  0  0  0
 80153  1  0  0  0
 80154  1  0  0  0
 81155  1  0  0  0
 82156  1  0  0  0
 82157  1  0  0  0
 82158  1  0  0  0
 83159  1  0  0  0
 83160  1  0  0  0
 83161  1  0  0  0
 85162  1  0  0  0
M  ISO  4   1 100  68 101  81 101  85 100
M  END
> <chiral flag>
0

> <version>
0

> <s_m_source_file>
/data/baiqing/PycharmProjects/Reinvent-master-3.2/result/LINK_invent/BTK/process_docking_weight1_custom_product_contain_oxygen_bond_distance_aromatic_linkinvent_7_9_3/rearranged_h_0029.sdf

> <i_m_source_file_index>
30

> <r_mmod_Potential_Energy-OPLS-2005>
484.904052734375

> <r_mmod_Stretch_Energy-OPLS-2005>
224.369644165039

> <r_mmod_Bend_Energy-OPLS-2005>
315.283355712891

> <r_mmod_Torsional_Energy-OPLS-2005>
254.672103881836

> <r_mmod_Improper_Torsional_Energy-OPLS-2005>
8.08241653442383

> <r_mmod_Van_der_Waal_Energy-OPLS-2005>
135.189437866211

> <r_mmod_Electrostatic_Energy-OPLS-2005>
-410.715026855469

> <r_mmod_Solvation_Energy-OPLS-2005>
-213.267211914062

> <b_mmod_Minimization_Converged-OPLS-2005>
0

> <r_mmod_RMS_Derivative-OPLS-2005>
1.26815485954285

$$$$
30
                    3D
 Structure written by MMmdl.
159168  0  0  1  0            999 V2000
  -30.5092  -14.9049   20.4360 C   0  0  0  0  0  0
  -30.4529  -12.5571   19.4914 C   0  0  0  0  0  0
  -29.5232  -12.5187   18.2543 C   0  0  0  0  0  0
  -28.0567  -12.3040   18.6723 C   0  0  0  0  0  0
  -27.6368  -13.2308   19.8413 C   0  0  2  0  0  0
  -28.6779  -13.2146   20.9816 C   0  0  0  0  0  0
  -25.2492  -13.8187   20.5666 C   0  0  0  0  0  0
  -24.1796  -13.0436   20.9224 C   0  0  0  0  0  0
  -24.6378  -11.6912   20.8749 C   0  0  0  0  0  0
  -23.9055  -10.4290   21.0407 C   0  0  0  0  0  0
  -24.3610   -9.4206   21.9188 C   0  0  0  0  0  0
  -23.6281   -8.2248   22.0749 C   0  0  0  0  0  0
  -22.4264   -8.0283   21.3532 C   0  0  0  0  0  0
  -21.9896   -9.0263   20.4640 C   0  0  0  0  0  0
  -22.7226  -10.2143   20.3052 C   0  0  0  0  0  0
  -21.6857   -6.0730   22.5274 C   0  0  0  0  0  0
  -21.4018   -6.5637   23.8208 C   0  0  0  0  0  0
  -21.3654   -5.6782   24.9169 C   0  0  0  0  0  0
  -21.6042   -4.3047   24.7213 C   0  0  0  0  0  0
  -21.8826   -3.8137   23.4334 C   0  0  0  0  0  0
  -21.9195   -4.6953   22.3392 C   0  0  0  0  0  0
  -22.7820  -13.5226   21.1886 C   0  0  0  0  0  0
  -22.1661   -4.2139   21.0965 F   0  0  0  0  0  0
  -21.5622   -3.4536   25.7728 F   0  0  0  0  0  0
  -29.9649  -13.6259   20.4017 N   0  0  0  0  0  0
  -26.2904  -12.9381   20.3215 N   0  0  0  0  0  0
  -25.9301  -11.6531   20.5724 N   0  0  0  0  0  0
  -22.0461  -12.8230   22.0445 N   0  0  0  0  0  0
  -25.4187  -15.1908   20.4052 N   0  0  0  0  0  0
  -31.6996  -15.0437   20.1302 O   0  0  0  0  0  0
  -21.6630   -6.8873   21.4237 O   0  0  0  0  0  0
  -22.3523  -14.5541   20.6724 O   0  0  0  0  0  0
  -24.6433  -31.8448   23.1886 C   0  0  0  0  0  0
  -25.9204  -32.4699   23.8276 C   0  0  1  0  0  0
  -27.2186  -27.1467   20.1402 C   0  0  0  0  0  0
  -25.5956  -33.8507   24.2190 N   0  0  0  0  0  0
  -23.4470  -30.4661   21.5337 C   0  0  2  0  0  0
  -24.8947  -28.8965   20.1110 C   0  0  0  0  0  0
  -22.7569  -29.4559   22.4852 C   0  0  0  0  0  0
  -18.0304  -28.1395   22.8474 C   0  0  0  0  0  0
  -24.1490  -36.7256   23.2630 C   0  0  0  0  0  0
  -26.0033  -30.7220   21.3867 C   0  0  0  0  0  0
  -26.0737  -29.3350   20.7271 C   0  0  0  0  0  0
  -27.2354  -28.4757   20.7257 C   0  0  0  0  0  0
  -26.0043  -26.8061   19.4994 C   0  0  0  0  0  0
  -24.8721  -27.6443   19.4839 C   0  0  0  0  0  0
  -23.6727  -29.7978   20.1528 C   0  0  0  0  0  0
  -25.4115  -36.3032   24.0313 C   0  0  1  0  0  0
  -20.5920  -28.3726   23.1227 C   0  0  2  0  0  0
  -20.6794  -26.9431   22.5383 C   0  0  0  0  0  0
  -19.5753  -26.6383   21.5206 C   0  0  0  0  0  0
  -18.1945  -26.7930   22.1631 C   0  0  0  0  0  0
  -19.1560  -28.8878   23.2843 C   0  0  0  0  0  0
  -18.9482  -30.1472   23.8871 C   0  0  0  0  0  0
  -17.6480  -30.6589   24.0559 C   0  0  0  0  0  0
  -25.9077  -34.9412   23.5062 C   0  0  0  0  0  0
  -16.5370  -29.9087   23.6335 C   0  0  0  0  0  0
  -16.7290  -28.6505   23.0358 C   0  0  0  0  0  0
  -26.4521  -31.6572   25.0719 C   0  0  0  0  0  0
  -25.3707  -31.3782   26.1423 C   0  0  0  0  0  0
  -27.0383  -30.2963   24.6312 C   0  0  0  0  0  0
  -27.6052  -32.4334   25.7511 C   0  0  0  0  0  0
  -27.5593  -37.1747   24.8437 C   0  0  0  0  0  0
  -21.4262  -29.3057   22.3595 N   0  0  0  0  0  0
  -26.4258  -37.3763   23.9451 N   0  0  0  0  0  0
  -24.7179  -31.0318   22.0918 N   0  0  0  0  0  0
  -23.4211  -28.8100   23.2994 O   0  0  0  0  0  0
  -28.2820  -26.1726   20.2155 O   0  0  0  0  0  0
  -26.5663  -34.8912   22.4641 O   0  0  0  0  0  0
  -23.5550  -32.1319   23.7106 O   0  0  0  0  0  0
  -28.2826  -18.1583   20.6451 C   0  0  0  0  0  0
  -30.5879  -18.4755   20.2749 C   0  0  0  0  0  0
  -28.0352  -19.5801   20.5028 C   0  0  0  0  0  0
  -29.0590  -20.5526   20.2357 C   0  0  0  0  0  0
  -29.5529  -17.5070   20.5153 C   0  0  0  0  0  0
  -30.3572  -19.9148   20.1416 C   0  0  0  0  0  0
  -27.7692  -23.1409   17.8601 C   0  0  0  0  0  0
  -28.2020  -24.5393   18.3416 C   0  0  0  0  0  0
  -28.6887  -22.0213   18.3806 C   0  0  0  0  0  0
  -28.9420  -23.3483   20.4763 C   0  0  0  0  0  0
  -28.0892  -24.6662   19.8744 C   0  0  1  0  0  0
  -26.5932  -20.0564   20.5921 C   0  0  0  0  0  0
  -28.7073  -21.9486   19.8415 N   0  0  0  0  0  0
  -29.6233  -15.9838   20.6467 N   0  0  0  0  0  0
  -31.7317  -20.9051   19.7940 Cl  0  0  0  0  0  0
  -31.4817  -12.7365   19.1753 H   0  0  0  0  0  0
  -30.4617  -11.5941   20.0037 H   0  0  0  0  0  0
  -29.8335  -11.7261   17.5735 H   0  0  0  0  0  0
  -29.6119  -13.4529   17.6977 H   0  0  0  0  0  0
  -27.9584  -11.2614   18.9780 H   0  0  0  0  0  0
  -27.3930  -12.4353   17.8177 H   0  0  0  0  0  0
  -27.6105  -14.2360   19.4208 H   0  0  0  0  0  0
  -28.7505  -12.2225   21.4286 H   0  0  0  0  0  0
  -28.3758  -13.8876   21.7855 H   0  0  0  0  0  0
  -25.2761   -9.5678   22.4763 H   0  0  0  0  0  0
  -23.9979   -7.4639   22.7473 H   0  0  0  0  0  0
  -21.0824   -8.8796   19.8954 H   0  0  0  0  0  0
  -22.3692  -10.9686   19.6162 H   0  0  0  0  0  0
  -21.2018   -7.6147   23.9715 H   0  0  0  0  0  0
  -21.1465   -6.0507   25.9070 H   0  0  0  0  0  0
  -22.0603   -2.7594   23.2844 H   0  0  0  0  0  0
  -22.4079  -11.9891   22.4828 H   0  0  0  0  0  0
  -21.1082  -13.1277   22.2651 H   0  0  0  0  0  0
  -24.6417  -15.8353   20.4974 H   0  0  0  0  0  0
  -26.2351  -15.6164   19.9862 H   0  0  0  0  0  0
  -26.7280  -32.5312   23.1012 H   0  0  0  0  0  0
  -25.0089  -33.9625   25.0326 H   0  0  0  0  0  0
  -22.7495  -31.2914   21.3795 H   0  0  0  0  0  0
  -23.3777  -35.9557   23.3207 H   0  0  0  0  0  0
  -24.3597  -36.8973   22.2062 H   0  0  0  0  0  0
  -23.7202  -37.6408   23.6719 H   0  0  0  0  0  0
  -26.1582  -31.4754   20.6132 H   0  0  0  0  0  0
  -26.8736  -30.7714   22.0292 H   0  0  0  0  0  0
  -28.1333  -28.8062   21.2300 H   0  0  0  0  0  0
  -25.8762  -25.8469   19.0246 H   0  0  0  0  0  0
  -23.9700  -27.2992   18.9973 H   0  0  0  0  0  0
  -23.8108  -30.5712   19.3966 H   0  0  0  0  0  0
  -22.7885  -29.2392   19.8412 H   0  0  0  0  0  0
  -25.1283  -36.1840   25.0796 H   0  0  0  0  0  0
  -21.0011  -28.3317   24.1348 H   0  0  0  0  0  0
  -20.5693  -26.2345   23.3604 H   0  0  0  0  0  0
  -21.6658  -26.7442   22.1179 H   0  0  0  0  0  0
  -19.6923  -25.6289   21.1245 H   0  0  0  0  0  0
  -19.6677  -27.3183   20.6723 H   0  0  0  0  0  0
  -17.4200  -26.6646   21.4054 H   0  0  0  0  0  0
  -18.0370  -26.0084   22.9046 H   0  0  0  0  0  0
  -19.7959  -30.7289   24.2238 H   0  0  0  0  0  0
  -17.5036  -31.6268   24.5164 H   0  0  0  0  0  0
  -15.5373  -30.2988   23.7668 H   0  0  0  0  0  0
  -15.8690  -28.0818   22.7095 H   0  0  0  0  0  0
  -24.5889  -30.7119   25.7759 H   0  0  0  0  0  0
  -24.8898  -32.2979   26.4767 H   0  0  0  0  0  0
  -25.7988  -30.9017   27.0249 H   0  0  0  0  0  0
  -26.3006  -29.6689   24.1300 H   0  0  0  0  0  0
  -27.3970  -29.7263   25.4889 H   0  0  0  0  0  0
  -27.8923  -30.4187   23.9648 H   0  0  0  0  0  0
  -27.2645  -33.3661   26.2020 H   0  0  0  0  0  0
  -28.3907  -32.6847   25.0372 H   0  0  0  0  0  0
  -28.0670  -31.8506   26.5486 H   0  0  0  0  0  0
  -28.2487  -38.0164   24.7660 H   0  0  0  0  0  0
  -28.1210  -36.2708   24.6029 H   0  0  0  0  0  0
  -27.2344  -37.1103   25.8835 H   0  0  0  0  0  0
  -20.9469  -29.8793   21.6795 H   0  0  0  0  0  0
  -26.0112  -38.2801   24.1569 H   0  0  0  0  0  0
  -27.4277  -17.5261   20.8361 H   0  0  0  0  0  0
  -31.5998  -18.1143   20.1686 H   0  0  0  0  0  0
  -27.7716  -23.1232   16.7694 H   0  0  0  0  0  0
  -26.7382  -22.9476   18.1598 H   0  0  0  0  0  0
  -27.6018  -25.2907   17.8338 H   0  0  0  0  0  0
  -29.2311  -24.7301   18.0357 H   0  0  0  0  0  0
  -29.7053  -22.1748   18.0136 H   0  0  0  0  0  0
  -28.3492  -21.0707   17.9635 H   0  0  0  0  0  0
  -28.7626  -23.2705   21.5486 H   0  0  0  0  0  0
  -30.0067  -23.5616   20.3736 H   0  0  0  0  0  0
  -27.0625  -24.4410   20.1590 H   0  0  0  0  0  0
  -25.9179  -19.2594   20.9036 H   0  0  0  0  0  0
  -26.2547  -20.4226   19.6223 H   0  0  0  0  0  0
  -26.5027  -20.8728   21.3089 H   0  0  0  0  0  0
  -28.7204  -15.5943   20.8760 H   0  0  0  0  0  0
  1 25  1  0  0  0
  1 30  2  0  0  0
  1 84  1  0  0  0
  2  3  1  0  0  0
  2 25  1  0  0  0
  2 86  1  0  0  0
  2 87  1  0  0  0
  3  4  1  0  0  0
  3 88  1  0  0  0
  3 89  1  0  0  0
  4  5  1  0  0  0
  4 90  1  0  0  0
  4 91  1  0  0  0
  5  6  1  0  0  0
  5 26  1  0  0  0
  5 92  1  0  0  0
  6 25  1  0  0  0
  6 93  1  0  0  0
  6 94  1  0  0  0
  7  8  2  0  0  0
  7 26  1  0  0  0
  7 29  1  0  0  0
  8  9  1  0  0  0
  8 22  1  0  0  0
  9 10  1  0  0  0
  9 27  2  0  0  0
 10 11  2  0  0  0
 10 15  1  0  0  0
 11 12  1  0  0  0
 11 95  1  0  0  0
 12 13  2  0  0  0
 12 96  1  0  0  0
 13 14  1  0  0  0
 13 31  1  0  0  0
 14 15  2  0  0  0
 14 97  1  0  0  0
 15 98  1  0  0  0
 16 17  2  0  0  0
 16 21  1  0  0  0
 16 31  1  0  0  0
 17 18  1  0  0  0
 17 99  1  0  0  0
 18 19  2  0  0  0
 18100  1  0  0  0
 19 20  1  0  0  0
 19 24  1  0  0  0
 20 21  2  0  0  0
 20101  1  0  0  0
 21 23  1  0  0  0
 22 28  1  0  0  0
 22 32  2  0  0  0
 26 27  1  0  0  0
 28102  1  0  0  0
 28103  1  0  0  0
 29104  1  0  0  0
 29105  1  0  0  0
 33 34  1  0  0  0
 33 66  1  0  0  0
 33 70  2  0  0  0
 34 36  1  0  0  0
 34 59  1  0  0  0
 34106  1  0  0  0
 35 44  2  0  0  0
 35 45  1  0  0  0
 35 68  1  0  0  0
 36 56  1  0  0  0
 36107  1  0  0  0
 37 39  1  0  0  0
 37 47  1  0  0  0
 37 66  1  0  0  0
 37108  1  0  0  0
 38 43  2  0  0  0
 38 46  1  0  0  0
 38 47  1  0  0  0
 39 64  1  0  0  0
 39 67  2  0  0  0
 40 52  1  0  0  0
 40 53  2  0  0  0
 40 58  1  0  0  0
 41109  1  0  0  0
 41110  1  0  0  0
 41111  1  0  0  0
 41 48  1  0  0  0
 42 43  1  0  0  0
 42 66  1  0  0  0
 42112  1  0  0  0
 42113  1  0  0  0
 43 44  1  0  0  0
 44114  1  0  0  0
 45 46  2  0  0  0
 45115  1  0  0  0
 46116  1  0  0  0
 47117  1  0  0  0
 47118  1  0  0  0
 48 56  1  0  0  0
 48 65  1  0  0  0
 48119  1  0  0  0
 49 50  1  0  0  0
 49 53  1  0  0  0
 49 64  1  0  0  0
 49120  1  0  0  0
 50 51  1  0  0  0
 50121  1  0  0  0
 50122  1  0  0  0
 51 52  1  0  0  0
 51123  1  0  0  0
 51124  1  0  0  0
 52125  1  0  0  0
 52126  1  0  0  0
 53 54  1  0  0  0
 54 55  2  0  0  0
 54127  1  0  0  0
 55 57  1  0  0  0
 55128  1  0  0  0
 56 69  2  0  0  0
 57 58  2  0  0  0
 57129  1  0  0  0
 58130  1  0  0  0
 59 60  1  0  0  0
 59 61  1  0  0  0
 59 62  1  0  0  0
 60131  1  0  0  0
 60132  1  0  0  0
 60133  1  0  0  0
 61134  1  0  0  0
 61135  1  0  0  0
 61136  1  0  0  0
 62137  1  0  0  0
 62138  1  0  0  0
 62139  1  0  0  0
 63 65  1  0  0  0
 63140  1  0  0  0
 63141  1  0  0  0
 63142  1  0  0  0
 64143  1  0  0  0
 65144  1  0  0  0
 68 81  1  0  0  0
 71 73  2  0  0  0
 71 75  1  0  0  0
 71145  1  0  0  0
 72 75  2  0  0  0
 72 76  1  0  0  0
 72146  1  0  0  0
 73 74  1  0  0  0
 73 82  1  0  0  0
 74 76  2  0  0  0
 74 83  1  0  0  0
 75 84  1  0  0  0
 76 85  1  0  0  0
 77 78  1  0  0  0
 77 79  1  0  0  0
 77147  1  0  0  0
 77148  1  0  0  0
 78 81  1  0  0  0
 78149  1  0  0  0
 78150  1  0  0  0
 79 83  1  0  0  0
 79151  1  0  0  0
 79152  1  0  0  0
 80 81  1  0  0  0
 80 83  1  0  0  0
 80153  1  0  0  0
 80154  1  0  0  0
 81155  1  0  0  0
 82156  1  0  0  0
 82157  1  0  0  0
 82158  1  0  0  0
 84159  1  0  0  0
M  ISO  4   1 100  68 101  81 101  84 100
M  END
> <chiral flag>
0

> <version>
0

> <s_m_source_file>
/data/baiqing/PycharmProjects/Reinvent-master-3.2/result/LINK_invent/BTK/process_docking_weight1_custom_product_contain_oxygen_bond_distance_aromatic_linkinvent_7_9_3/rearranged_h_0029.sdf

> <i_m_source_file_index>
31

> <r_mmod_Potential_Energy-OPLS-2005>
512.432922363281

> <r_mmod_Stretch_Energy-OPLS-2005>
215.557098388672

> <r_mmod_Bend_Energy-OPLS-2005>
266.840667724609

> <r_mmod_Torsional_Energy-OPLS-2005>
264.854400634766

> <r_mmod_Improper_Torsional_Energy-OPLS-2005>
8.67429161071777

> <r_mmod_Van_der_Waal_Energy-OPLS-2005>
134.356246948242

> <r_mmod_Electrostatic_Energy-OPLS-2005>
-341.406158447266

> <r_mmod_Solvation_Energy-OPLS-2005>
-210.653625488281

> <b_mmod_Minimization_Converged-OPLS-2005>
0

> <r_mmod_RMS_Derivative-OPLS-2005>
2.31269550323486

$$$$
31
                    3D
 Structure written by MMmdl.
168178  0  0  1  0            999 V2000
  -30.5370  -14.8998   20.4144 C   0  0  0  0  0  0
  -30.4452  -12.5454   19.5028 C   0  0  0  0  0  0
  -29.5322  -12.5418   18.2555 C   0  0  0  0  0  0
  -28.0614  -12.3302   18.6628 C   0  0  0  0  0  0
  -27.6400  -13.2435   19.8446 C   0  0  2  0  0  0
  -28.6793  -13.2309   20.9859 C   0  0  0  0  0  0
  -25.2507  -13.8207   20.5675 C   0  0  0  0  0  0
  -24.1812  -13.0443   20.9181 C   0  0  0  0  0  0
  -24.6417  -11.6921   20.8717 C   0  0  0  0  0  0
  -23.9091  -10.4298   21.0392 C   0  0  0  0  0  0
  -24.3640   -9.4210   21.9171 C   0  0  0  0  0  0
  -23.6312   -8.2253   22.0752 C   0  0  0  0  0  0
  -22.4294   -8.0283   21.3543 C   0  0  0  0  0  0
  -21.9935   -9.0250   20.4635 C   0  0  0  0  0  0
  -22.7265  -10.2129   20.3038 C   0  0  0  0  0  0
  -21.6865   -6.0737   22.5282 C   0  0  0  0  0  0
  -21.4019   -6.5637   23.8211 C   0  0  0  0  0  0
  -21.3666   -5.6791   24.9175 C   0  0  0  0  0  0
  -21.6051   -4.3052   24.7224 C   0  0  0  0  0  0
  -21.8822   -3.8145   23.4344 C   0  0  0  0  0  0
  -21.9199   -4.6969   22.3403 C   0  0  0  0  0  0
  -22.7826  -13.5211   21.1853 C   0  0  0  0  0  0
  -22.1664   -4.2157   21.0978 F   0  0  0  0  0  0
  -21.5636   -3.4531   25.7732 F   0  0  0  0  0  0
  -29.9710  -13.6294   20.4064 N   0  0  0  0  0  0
  -26.2938  -12.9428   20.3228 N   0  0  0  0  0  0
  -25.9340  -11.6562   20.5693 N   0  0  0  0  0  0
  -22.0479  -12.8188   22.0408 N   0  0  0  0  0  0
  -25.4210  -15.1932   20.4104 N   0  0  0  0  0  0
  -31.7220  -15.0048   20.0786 O   0  0  0  0  0  0
  -21.6652   -6.8884   21.4247 O   0  0  0  0  0  0
  -22.3501  -14.5524   20.6712 O   0  0  0  0  0  0
  -24.6415  -31.8442   23.1901 C   0  0  0  0  0  0
  -25.9204  -32.4687   23.8277 C   0  0  1  0  0  0
  -27.2197  -27.1518   20.1360 C   0  0  0  0  0  0
  -25.5971  -33.8495   24.2202 N   0  0  0  0  0  0
  -23.4438  -30.4653   21.5332 C   0  0  2  0  0  0
  -24.8941  -28.8976   20.1040 C   0  0  0  0  0  0
  -22.7556  -29.4554   22.4843 C   0  0  0  0  0  0
  -18.0306  -28.1399   22.8470 C   0  0  0  0  0  0
  -24.1498  -36.7262   23.2638 C   0  0  0  0  0  0
  -25.9982  -30.7193   21.3905 C   0  0  0  0  0  0
  -26.0672  -29.3325   20.7329 C   0  0  0  0  0  0
  -27.2252  -28.4705   20.7430 C   0  0  0  0  0  0
  -26.0287  -26.8311   19.4437 C   0  0  0  0  0  0
  -24.8872  -27.6612   19.4437 C   0  0  0  0  0  0
  -23.6690  -29.7961   20.1514 C   0  0  0  0  0  0
  -25.4128  -36.3031   24.0314 C   0  0  1  0  0  0
  -20.5914  -28.3732   23.1224 C   0  0  2  0  0  0
  -20.6791  -26.9436   22.5392 C   0  0  0  0  0  0
  -19.5766  -26.6384   21.5204 C   0  0  0  0  0  0
  -18.1948  -26.7938   22.1613 C   0  0  0  0  0  0
  -19.1560  -28.8884   23.2838 C   0  0  0  0  0  0
  -18.9478  -30.1476   23.8866 C   0  0  0  0  0  0
  -17.6473  -30.6589   24.0561 C   0  0  0  0  0  0
  -25.9071  -34.9403   23.5066 C   0  0  0  0  0  0
  -16.5366  -29.9076   23.6342 C   0  0  0  0  0  0
  -16.7290  -28.6499   23.0359 C   0  0  0  0  0  0
  -26.4533  -31.6540   25.0708 C   0  0  0  0  0  0
  -25.3726  -31.3733   26.1404 C   0  0  0  0  0  0
  -27.0394  -30.2931   24.6288 C   0  0  0  0  0  0
  -27.6054  -32.4307   25.7515 C   0  0  0  0  0  0
  -27.5589  -37.1795   24.8465 C   0  0  0  0  0  0
  -21.4251  -29.3051   22.3592 N   0  0  0  0  0  0
  -26.4297  -37.3747   23.9408 N   0  0  0  0  0  0
  -24.7141  -31.0311   22.0930 N   0  0  0  0  0  0
  -23.4200  -28.8103   23.2994 O   0  0  0  0  0  0
  -28.2785  -26.1772   20.2462 O   0  0  0  0  0  0
  -26.5634  -34.8896   22.4630 O   0  0  0  0  0  0
  -23.5543  -32.1314   23.7137 O   0  0  0  0  0  0
  -29.7146  -19.5936   18.9954 C   0  0  0  0  0  0
  -29.3281  -18.4824   21.4593 C   0  0  0  0  0  0
  -29.9259  -18.1639   19.1976 C   0  0  0  0  0  0
  -29.3290  -20.5825   19.9892 C   0  0  0  0  0  0
  -29.7289  -17.5234   20.4633 C   0  0  0  0  0  0
  -29.1576  -19.9158   21.2580 C   0  0  0  0  0  0
  -29.7261  -16.7093   15.8765 C   0  0  0  0  0  0
  -31.2433  -16.8082   16.0424 C   0  0  0  0  0  0
  -29.8972  -23.9011   18.0756 C   0  0  0  0  0  0
  -28.6261  -24.7299   18.3010 C   0  0  0  0  0  0
  -29.1863  -16.7971   17.3106 C   0  0  0  0  0  0
  -31.3781  -17.7310   17.2463 C   0  0  0  0  0  0
  -29.6653  -22.3943   18.3239 C   0  0  0  0  0  0
  -28.8143  -23.3211   20.5011 C   0  0  0  0  0  0
  -28.1736  -24.7003   19.7715 C   0  0  1  0  0  0
  -30.2777  -17.3365   18.1157 N   0  0  0  0  0  0
  -29.1493  -22.0467   19.6612 N   0  0  0  0  0  0
  -29.7255  -16.0143   20.7202 N   0  0  0  0  0  0
  -28.7033  -20.8336   22.6500 Cl  0  0  0  0  0  0
  -31.4869  -12.6834   19.2078 H   0  0  0  0  0  0
  -30.4068  -11.5802   20.0103 H   0  0  0  0  0  0
  -29.8444  -11.7692   17.5524 H   0  0  0  0  0  0
  -29.6344  -13.4916   17.7282 H   0  0  0  0  0  0
  -27.9467  -11.2832   18.9484 H   0  0  0  0  0  0
  -27.4048  -12.4865   17.8072 H   0  0  0  0  0  0
  -27.6168  -14.2536   19.4365 H   0  0  0  0  0  0
  -28.7444  -12.2421   21.4455 H   0  0  0  0  0  0
  -28.3823  -13.9137   21.7829 H   0  0  0  0  0  0
  -25.2788   -9.5691   22.4725 H   0  0  0  0  0  0
  -24.0025   -7.4653   22.7470 H   0  0  0  0  0  0
  -21.0876   -8.8758   19.8920 H   0  0  0  0  0  0
  -22.3735  -10.9653   19.6126 H   0  0  0  0  0  0
  -21.2009   -7.6143   23.9719 H   0  0  0  0  0  0
  -21.1484   -6.0512   25.9079 H   0  0  0  0  0  0
  -22.0598   -2.7606   23.2835 H   0  0  0  0  0  0
  -22.4127  -11.9867   22.4797 H   0  0  0  0  0  0
  -21.1071  -13.1154   22.2569 H   0  0  0  0  0  0
  -24.6529  -15.8460   20.5109 H   0  0  0  0  0  0
  -26.2698  -15.6302   20.0761 H   0  0  0  0  0  0
  -26.7265  -32.5293   23.0998 H   0  0  0  0  0  0
  -25.0168  -33.9605   25.0386 H   0  0  0  0  0  0
  -22.7459  -31.2910   21.3792 H   0  0  0  0  0  0
  -23.3764  -35.9590   23.3265 H   0  0  0  0  0  0
  -24.3594  -36.8925   22.2061 H   0  0  0  0  0  0
  -23.7241  -37.6448   23.6684 H   0  0  0  0  0  0
  -26.1513  -31.4724   20.6163 H   0  0  0  0  0  0
  -26.8707  -30.7695   22.0306 H   0  0  0  0  0  0
  -28.1114  -28.7911   21.2724 H   0  0  0  0  0  0
  -25.9370  -25.9050   18.8999 H   0  0  0  0  0  0
  -23.9968  -27.3362   18.9228 H   0  0  0  0  0  0
  -23.8032  -30.5693   19.3943 H   0  0  0  0  0  0
  -22.7857  -29.2339   19.8424 H   0  0  0  0  0  0
  -25.1311  -36.1873   25.0808 H   0  0  0  0  0  0
  -21.0002  -28.3329   24.1347 H   0  0  0  0  0  0
  -20.5709  -26.2343   23.3608 H   0  0  0  0  0  0
  -21.6657  -26.7458   22.1180 H   0  0  0  0  0  0
  -19.6934  -25.6288   21.1253 H   0  0  0  0  0  0
  -19.6701  -27.3181   20.6723 H   0  0  0  0  0  0
  -17.4214  -26.6683   21.4015 H   0  0  0  0  0  0
  -18.0352  -26.0084   22.9016 H   0  0  0  0  0  0
  -19.7950  -30.7311   24.2220 H   0  0  0  0  0  0
  -17.5022  -31.6269   24.5168 H   0  0  0  0  0  0
  -15.5369  -30.2974   23.7682 H   0  0  0  0  0  0
  -15.8686  -28.0813   22.7090 H   0  0  0  0  0  0
  -24.5914  -30.7058   25.7739 H   0  0  0  0  0  0
  -24.8901  -32.2912   26.4767 H   0  0  0  0  0  0
  -25.8017  -30.8959   27.0218 H   0  0  0  0  0  0
  -26.2994  -29.6644   24.1311 H   0  0  0  0  0  0
  -27.4012  -29.7240   25.4862 H   0  0  0  0  0  0
  -27.8907  -30.4146   23.9588 H   0  0  0  0  0  0
  -27.2625  -33.3615   26.2045 H   0  0  0  0  0  0
  -28.3912  -32.6848   25.0389 H   0  0  0  0  0  0
  -28.0661  -31.8457   26.5487 H   0  0  0  0  0  0
  -28.2580  -38.0119   24.7530 H   0  0  0  0  0  0
  -28.1113  -36.2645   24.6270 H   0  0  0  0  0  0
  -27.2297  -37.1419   25.8865 H   0  0  0  0  0  0
  -20.9463  -29.8762   21.6764 H   0  0  0  0  0  0
  -26.0162  -38.2817   24.1405 H   0  0  0  0  0  0
  -29.8293  -19.9242   17.9779 H   0  0  0  0  0  0
  -29.1272  -18.1068   22.4512 H   0  0  0  0  0  0
  -29.4127  -15.8042   15.3557 H   0  0  0  0  0  0
  -29.3679  -17.5637   15.2993 H   0  0  0  0  0  0
  -31.7529  -17.1888   15.1564 H   0  0  0  0  0  0
  -31.6581  -15.8257   16.2762 H   0  0  0  0  0  0
  -30.7056  -24.2712   18.7088 H   0  0  0  0  0  0
  -30.2357  -24.0402   17.0484 H   0  0  0  0  0  0
  -27.8303  -24.3430   17.6643 H   0  0  0  0  0  0
  -28.7958  -25.7571   17.9740 H   0  0  0  0  0  0
  -28.9371  -15.8027   17.6825 H   0  0  0  0  0  0
  -28.2801  -17.4040   17.3622 H   0  0  0  0  0  0
  -31.2873  -18.7695   16.9255 H   0  0  0  0  0  0
  -32.3446  -17.6133   17.7387 H   0  0  0  0  0  0
  -30.6228  -21.9003   18.1542 H   0  0  0  0  0  0
  -28.9741  -22.0162   17.5679 H   0  0  0  0  0  0
  -28.1435  -23.0472   21.3137 H   0  0  0  0  0  0
  -29.7466  -23.6120   20.9872 H   0  0  0  0  0  0
  -27.1141  -24.4582   19.7745 H   0  0  0  0  0  0
  -28.8759  -15.7085   21.1703 H   0  0  0  0  0  0
  1 25  1  0  0  0
  1 30  2  0  0  0
  1 88  1  0  0  0
  2  3  1  0  0  0
  2 25  1  0  0  0
  2 90  1  0  0  0
  2 91  1  0  0  0
  3  4  1  0  0  0
  3 92  1  0  0  0
  3 93  1  0  0  0
  4  5  1  0  0  0
  4 94  1  0  0  0
  4 95  1  0  0  0
  5  6  1  0  0  0
  5 26  1  0  0  0
  5 96  1  0  0  0
  6 25  1  0  0  0
  6 97  1  0  0  0
  6 98  1  0  0  0
  7  8  2  0  0  0
  7 26  1  0  0  0
  7 29  1  0  0  0
  8  9  1  0  0  0
  8 22  1  0  0  0
  9 10  1  0  0  0
  9 27  2  0  0  0
 10 11  2  0  0  0
 10 15  1  0  0  0
 11 12  1  0  0  0
 11 99  1  0  0  0
 12 13  2  0  0  0
 12100  1  0  0  0
 13 14  1  0  0  0
 13 31  1  0  0  0
 14 15  2  0  0  0
 14101  1  0  0  0
 15102  1  0  0  0
 16 17  2  0  0  0
 16 21  1  0  0  0
 16 31  1  0  0  0
 17 18  1  0  0  0
 17103  1  0  0  0
 18 19  2  0  0  0
 18104  1  0  0  0
 19 20  1  0  0  0
 19 24  1  0  0  0
 20 21  2  0  0  0
 20105  1  0  0  0
 21 23  1  0  0  0
 22 28  1  0  0  0
 22 32  2  0  0  0
 26 27  1  0  0  0
 28106  1  0  0  0
 28107  1  0  0  0
 29108  1  0  0  0
 29109  1  0  0  0
 33 34  1  0  0  0
 33 66  1  0  0  0
 33 70  2  0  0  0
 34 36  1  0  0  0
 34 59  1  0  0  0
 34110  1  0  0  0
 35 44  2  0  0  0
 35 45  1  0  0  0
 35 68  1  0  0  0
 36 56  1  0  0  0
 36111  1  0  0  0
 37 39  1  0  0  0
 37 47  1  0  0  0
 37 66  1  0  0  0
 37112  1  0  0  0
 38 43  2  0  0  0
 38 46  1  0  0  0
 38 47  1  0  0  0
 39 64  1  0  0  0
 39 67  2  0  0  0
 40 52  1  0  0  0
 40 53  2  0  0  0
 40 58  1  0  0  0
 41113  1  0  0  0
 41114  1  0  0  0
 41115  1  0  0  0
 41 48  1  0  0  0
 42 43  1  0  0  0
 42 66  1  0  0  0
 42116  1  0  0  0
 42117  1  0  0  0
 43 44  1  0  0  0
 44118  1  0  0  0
 45 46  2  0  0  0
 45119  1  0  0  0
 46120  1  0  0  0
 47121  1  0  0  0
 47122  1  0  0  0
 48 56  1  0  0  0
 48 65  1  0  0  0
 48123  1  0  0  0
 49 50  1  0  0  0
 49 53  1  0  0  0
 49 64  1  0  0  0
 49124  1  0  0  0
 50 51  1  0  0  0
 50125  1  0  0  0
 50126  1  0  0  0
 51 52  1  0  0  0
 51127  1  0  0  0
 51128  1  0  0  0
 52129  1  0  0  0
 52130  1  0  0  0
 53 54  1  0  0  0
 54 55  2  0  0  0
 54131  1  0  0  0
 55 57  1  0  0  0
 55132  1  0  0  0
 56 69  2  0  0  0
 57 58  2  0  0  0
 57133  1  0  0  0
 58134  1  0  0  0
 59 60  1  0  0  0
 59 61  1  0  0  0
 59 62  1  0  0  0
 60135  1  0  0  0
 60136  1  0  0  0
 60137  1  0  0  0
 61138  1  0  0  0
 61139  1  0  0  0
 61140  1  0  0  0
 62141  1  0  0  0
 62142  1  0  0  0
 62143  1  0  0  0
 63 65  1  0  0  0
 63144  1  0  0  0
 63145  1  0  0  0
 63146  1  0  0  0
 64147  1  0  0  0
 65148  1  0  0  0
 68 85  1  0  0  0
 71 73  2  0  0  0
 71 74  1  0  0  0
 71149  1  0  0  0
 72 75  2  0  0  0
 72 76  1  0  0  0
 72150  1  0  0  0
 73 75  1  0  0  0
 73 86  1  0  0  0
 74 76  2  0  0  0
 74 87  1  0  0  0
 75 88  1  0  0  0
 76 89  1  0  0  0
 77 78  1  0  0  0
 77 81  1  0  0  0
 77151  1  0  0  0
 77152  1  0  0  0
 78 82  1  0  0  0
 78153  1  0  0  0
 78154  1  0  0  0
 79 80  1  0  0  0
 79 83  1  0  0  0
 79155  1  0  0  0
 79156  1  0  0  0
 80 85  1  0  0  0
 80157  1  0  0  0
 80158  1  0  0  0
 81 86  1  0  0  0
 81159  1  0  0  0
 81160  1  0  0  0
 82 86  1  0  0  0
 82161  1  0  0  0
 82162  1  0  0  0
 83 87  1  0  0  0
 83163  1  0  0  0
 83164  1  0  0  0
 84 85  1  0  0  0
 84 87  1  0  0  0
 84165  1  0  0  0
 84166  1  0  0  0
 85167  1  0  0  0
 88168  1  0  0  0
M  ISO  4   1 100  68 101  85 101  88 100
M  END
> <chiral flag>
0

> <version>
0

> <s_m_source_file>
/data/baiqing/PycharmProjects/Reinvent-master-3.2/result/LINK_invent/BTK/process_docking_weight1_custom_product_contain_oxygen_bond_distance_aromatic_linkinvent_7_9_3/rearranged_h_0029.sdf

> <i_m_source_file_index>
32

> <r_mmod_Potential_Energy-OPLS-2005>
595.1513671875

> <r_mmod_Stretch_Energy-OPLS-2005>
231.565673828125

> <r_mmod_Bend_Energy-OPLS-2005>
306.321441650391

> <r_mmod_Torsional_Energy-OPLS-2005>
350.197387695312

> <r_mmod_Improper_Torsional_Energy-OPLS-2005>
8.19408988952637

> <r_mmod_Van_der_Waal_Energy-OPLS-2005>
142.568725585938

> <r_mmod_Electrostatic_Energy-OPLS-2005>
-372.465484619141

> <r_mmod_Solvation_Energy-OPLS-2005>
-241.144119262695

> <b_mmod_Minimization_Converged-OPLS-2005>
0

> <r_mmod_RMS_Derivative-OPLS-2005>
2.29048204421997

$$$$
32
                    3D
 Structure written by MMmdl.
153162  0  0  1  0            999 V2000
  -30.4621  -15.1669   20.3607 C   0  0  0  0  0  0
  -30.4389  -12.7289   19.5380 C   0  0  0  0  0  0
  -29.5368  -12.5656   18.2892 C   0  0  0  0  0  0
  -28.0766  -12.3144   18.7037 C   0  0  0  0  0  0
  -27.6196  -13.2721   19.8333 C   0  0  2  0  0  0
  -28.6516  -13.3936   20.9752 C   0  0  0  0  0  0
  -25.2409  -13.8256   20.5740 C   0  0  0  0  0  0
  -24.1752  -13.0449   20.9249 C   0  0  0  0  0  0
  -24.6398  -11.6944   20.8757 C   0  0  0  0  0  0
  -23.9092  -10.4301   21.0403 C   0  0  0  0  0  0
  -24.3634   -9.4213   21.9182 C   0  0  0  0  0  0
  -23.6303   -8.2250   22.0754 C   0  0  0  0  0  0
  -22.4281   -8.0288   21.3548 C   0  0  0  0  0  0
  -21.9922   -9.0263   20.4648 C   0  0  0  0  0  0
  -22.7261  -10.2137   20.3056 C   0  0  0  0  0  0
  -21.6856   -6.0742   22.5279 C   0  0  0  0  0  0
  -21.4019   -6.5644   23.8214 C   0  0  0  0  0  0
  -21.3661   -5.6795   24.9175 C   0  0  0  0  0  0
  -21.6041   -4.3057   24.7223 C   0  0  0  0  0  0
  -21.8819   -3.8151   23.4344 C   0  0  0  0  0  0
  -21.9194   -4.6969   22.3402 C   0  0  0  0  0  0
  -22.7767  -13.5199   21.1897 C   0  0  0  0  0  0
  -22.1661   -4.2156   21.0978 F   0  0  0  0  0  0
  -21.5625   -3.4539   25.7735 F   0  0  0  0  0  0
  -29.9076  -13.8638   20.3725 N   0  0  0  0  0  0
  -26.2843  -12.9529   20.3233 N   0  0  0  0  0  0
  -25.9336  -11.6636   20.5725 N   0  0  0  0  0  0
  -22.0422  -12.8184   22.0453 N   0  0  0  0  0  0
  -25.4058  -15.1990   20.4192 N   0  0  0  0  0  0
  -31.6650  -15.1923   20.0665 O   0  0  0  0  0  0
  -21.6646   -6.8884   21.4241 O   0  0  0  0  0  0
  -22.3442  -14.5497   20.6736 O   0  0  0  0  0  0
  -24.6557  -31.8280   23.1732 C   0  0  0  0  0  0
  -25.9265  -32.4607   23.8180 C   0  0  1  0  0  0
  -27.2261  -26.9908   20.1748 C   0  0  0  0  0  0
  -25.5957  -33.8419   24.2091 N   0  0  0  0  0  0
  -23.4680  -30.4385   21.5203 C   0  0  2  0  0  0
  -24.9223  -28.8331   20.1068 C   0  0  0  0  0  0
  -22.7630  -29.4455   22.4797 C   0  0  0  0  0  0
  -18.0315  -28.1401   22.8469 C   0  0  0  0  0  0
  -24.1493  -36.7216   23.2647 C   0  0  0  0  0  0
  -26.0311  -30.6536   21.3940 C   0  0  0  0  0  0
  -26.1001  -29.2493   20.7386 C   0  0  0  0  0  0
  -27.2442  -28.3451   20.7525 C   0  0  0  0  0  0
  -26.0233  -26.7063   19.4936 C   0  0  0  0  0  0
  -24.9053  -27.5811   19.4663 C   0  0  0  0  0  0
  -23.7034  -29.7518   20.1454 C   0  0  0  0  0  0
  -25.4132  -36.2977   24.0301 C   0  0  1  0  0  0
  -20.5936  -28.3738   23.1205 C   0  0  2  0  0  0
  -20.6791  -26.9424   22.5407 C   0  0  0  0  0  0
  -19.5768  -26.6373   21.5214 C   0  0  0  0  0  0
  -18.1950  -26.7936   22.1621 C   0  0  0  0  0  0
  -19.1576  -28.8890   23.2825 C   0  0  0  0  0  0
  -18.9488  -30.1484   23.8855 C   0  0  0  0  0  0
  -17.6482  -30.6593   24.0556 C   0  0  0  0  0  0
  -25.9091  -34.9359   23.5019 C   0  0  0  0  0  0
  -16.5373  -29.9081   23.6341 C   0  0  0  0  0  0
  -16.7299  -28.6502   23.0359 C   0  0  0  0  0  0
  -26.4543  -31.6539   25.0690 C   0  0  0  0  0  0
  -25.3688  -31.3775   26.1360 C   0  0  0  0  0  0
  -27.0439  -30.2915   24.6388 C   0  0  0  0  0  0
  -27.6040  -32.4344   25.7490 C   0  0  0  0  0  0
  -27.5571  -37.1762   24.8464 C   0  0  0  0  0  0
  -21.4306  -29.3032   22.3553 N   0  0  0  0  0  0
  -26.4281  -37.3708   23.9406 N   0  0  0  0  0  0
  -24.7388  -30.9995   22.0831 N   0  0  0  0  0  0
  -23.4208  -28.8030   23.3021 O   0  0  0  0  0  0
  -28.2616  -25.9481   20.3018 O   0  0  0  0  0  0
  -26.5703  -34.8886   22.4615 O   0  0  0  0  0  0
  -23.5641  -32.1224   23.6862 O   0  0  0  0  0  0
  -29.5221  -19.2035   17.8821 C   0  0  0  0  0  0
  -29.3046  -19.2596   20.5662 C   0  0  0  0  0  0
  -29.2034  -20.4466   18.4886 C   0  0  0  0  0  0
  -29.0997  -20.6362   19.9012 C   0  0  0  0  0  0
  -29.6304  -17.8814   19.9658 C   0  0  0  0  0  0
  -29.7270  -17.9808   18.5561 C   0  0  0  0  0  0
  -29.5832  -23.4083   20.0362 C   0  0  0  0  0  0
  -27.6024  -23.0110   20.4469 C   0  0  0  0  0  0
  -28.2880  -24.3777   19.8715 C   0  0  0  0  0  0
  -28.9542  -21.5850   17.5073 C   0  0  0  0  0  0
  -28.8525  -22.1313   20.4335 N   0  0  0  0  0  0
  -29.7028  -16.4050   20.5815 N   0  0  0  0  0  0
  -29.9896  -16.5990   17.5473 Cl  0  0  0  0  0  0
  -31.4679  -12.9048   19.2215 H   0  0  0  0  0  0
  -30.4688  -11.8047   20.1173 H   0  0  0  0  0  0
  -29.8964  -11.7478   17.6632 H   0  0  0  0  0  0
  -29.5943  -13.4683   17.6789 H   0  0  0  0  0  0
  -28.0056  -11.2818   19.0476 H   0  0  0  0  0  0
  -27.4145  -12.3963   17.8408 H   0  0  0  0  0  0
  -27.5539  -14.2539   19.3620 H   0  0  0  0  0  0
  -28.7833  -12.4436   21.4949 H   0  0  0  0  0  0
  -28.3083  -14.1106   21.7223 H   0  0  0  0  0  0
  -25.2780   -9.5688   22.4758 H   0  0  0  0  0  0
  -24.0017   -7.4638   22.7470 H   0  0  0  0  0  0
  -21.0857   -8.8786   19.8949 H   0  0  0  0  0  0
  -22.3725  -10.9676   19.6163 H   0  0  0  0  0  0
  -21.2015   -7.6152   23.9721 H   0  0  0  0  0  0
  -21.1482   -6.0522   25.9078 H   0  0  0  0  0  0
  -22.0594   -2.7613   23.2842 H   0  0  0  0  0  0
  -22.4053  -11.9863   22.4860 H   0  0  0  0  0  0
  -21.1028  -13.1183   22.2642 H   0  0  0  0  0  0
  -24.6350  -15.8486   20.5320 H   0  0  0  0  0  0
  -26.2478  -15.6417   20.0750 H   0  0  0  0  0  0
  -26.7330  -32.5163   23.0894 H   0  0  0  0  0  0
  -25.0048  -33.9508   25.0203 H   0  0  0  0  0  0
  -22.7780  -31.2678   21.3514 H   0  0  0  0  0  0
  -23.3763  -35.9539   23.3282 H   0  0  0  0  0  0
  -24.3569  -36.8889   22.2067 H   0  0  0  0  0  0
  -23.7245  -37.6395   23.6720 H   0  0  0  0  0  0
  -26.2041  -31.3983   20.6162 H   0  0  0  0  0  0
  -26.8938  -30.7091   22.0461 H   0  0  0  0  0  0
  -28.1348  -28.6566   21.2801 H   0  0  0  0  0  0
  -25.9158  -25.7432   19.0152 H   0  0  0  0  0  0
  -24.0072  -27.2565   18.9590 H   0  0  0  0  0  0
  -23.8491  -30.5191   19.3842 H   0  0  0  0  0  0
  -22.8156  -29.1984   19.8341 H   0  0  0  0  0  0
  -25.1329  -36.1777   25.0793 H   0  0  0  0  0  0
  -21.0028  -28.3343   24.1326 H   0  0  0  0  0  0
  -20.5669  -26.2352   23.3641 H   0  0  0  0  0  0
  -21.6657  -26.7402   22.1217 H   0  0  0  0  0  0
  -19.6927  -25.6274   21.1268 H   0  0  0  0  0  0
  -19.6710  -27.3162   20.6728 H   0  0  0  0  0  0
  -17.4218  -26.6681   21.4025 H   0  0  0  0  0  0
  -18.0346  -26.0090   22.9028 H   0  0  0  0  0  0
  -19.7965  -30.7314   24.2204 H   0  0  0  0  0  0
  -17.5033  -31.6268   24.5164 H   0  0  0  0  0  0
  -15.5372  -30.2967   23.7689 H   0  0  0  0  0  0
  -15.8701  -28.0806   22.7096 H   0  0  0  0  0  0
  -24.5876  -30.7117   25.7672 H   0  0  0  0  0  0
  -24.8869  -32.2973   26.4683 H   0  0  0  0  0  0
  -25.7933  -30.9008   27.0205 H   0  0  0  0  0  0
  -26.3097  -29.6593   24.1383 H   0  0  0  0  0  0
  -27.3980  -29.7270   25.5026 H   0  0  0  0  0  0
  -27.9030  -30.4110   23.9785 H   0  0  0  0  0  0
  -27.2608  -33.3679   26.1963 H   0  0  0  0  0  0
  -28.3906  -32.6853   25.0360 H   0  0  0  0  0  0
  -28.0652  -31.8544   26.5495 H   0  0  0  0  0  0
  -28.2568  -38.0075   24.7509 H   0  0  0  0  0  0
  -28.1087  -36.2602   24.6294 H   0  0  0  0  0  0
  -27.2286  -37.1407   25.8865 H   0  0  0  0  0  0
  -20.9549  -29.8716   21.6685 H   0  0  0  0  0  0
  -26.0131  -38.2766   24.1415 H   0  0  0  0  0  0
  -29.5874  -19.1682   16.8041 H   0  0  0  0  0  0
  -29.2082  -19.2665   21.6416 H   0  0  0  0  0  0
  -30.2325  -23.7375   20.8486 H   0  0  0  0  0  0
  -30.1742  -23.3288   19.1260 H   0  0  0  0  0  0
  -26.8128  -22.6314   19.7971 H   0  0  0  0  0  0
  -27.2215  -23.1332   21.4617 H   0  0  0  0  0  0
  -28.0530  -24.4089   18.8075 H   0  0  0  0  0  0
  -28.6366  -21.2039   16.5361 H   0  0  0  0  0  0
  -29.8635  -22.1612   17.3408 H   0  0  0  0  0  0
  -28.1588  -22.2475   17.8398 H   0  0  0  0  0  0
  -28.8798  -16.2021   21.1286 H   0  0  0  0  0  0
  1 25  1  0  0  0
  1 30  2  0  0  0
  1 82  1  0  0  0
  2  3  1  0  0  0
  2 25  1  0  0  0
  2 84  1  0  0  0
  2 85  1  0  0  0
  3  4  1  0  0  0
  3 86  1  0  0  0
  3 87  1  0  0  0
  4  5  1  0  0  0
  4 88  1  0  0  0
  4 89  1  0  0  0
  5  6  1  0  0  0
  5 26  1  0  0  0
  5 90  1  0  0  0
  6 25  1  0  0  0
  6 91  1  0  0  0
  6 92  1  0  0  0
  7  8  2  0  0  0
  7 26  1  0  0  0
  7 29  1  0  0  0
  8  9  1  0  0  0
  8 22  1  0  0  0
  9 10  1  0  0  0
  9 27  2  0  0  0
 10 11  2  0  0  0
 10 15  1  0  0  0
 11 12  1  0  0  0
 11 93  1  0  0  0
 12 13  2  0  0  0
 12 94  1  0  0  0
 13 14  1  0  0  0
 13 31  1  0  0  0
 14 15  2  0  0  0
 14 95  1  0  0  0
 15 96  1  0  0  0
 16 17  2  0  0  0
 16 21  1  0  0  0
 16 31  1  0  0  0
 17 18  1  0  0  0
 17 97  1  0  0  0
 18 19  2  0  0  0
 18 98  1  0  0  0
 19 20  1  0  0  0
 19 24  1  0  0  0
 20 21  2  0  0  0
 20 99  1  0  0  0
 21 23  1  0  0  0
 22 28  1  0  0  0
 22 32  2  0  0  0
 26 27  1  0  0  0
 28100  1  0  0  0
 28101  1  0  0  0
 29102  1  0  0  0
 29103  1  0  0  0
 33 34  1  0  0  0
 33 66  1  0  0  0
 33 70  2  0  0  0
 34 36  1  0  0  0
 34 59  1  0  0  0
 34104  1  0  0  0
 35 44  2  0  0  0
 35 45  1  0  0  0
 35 68  1  0  0  0
 36 56  1  0  0  0
 36105  1  0  0  0
 37 39  1  0  0  0
 37 47  1  0  0  0
 37 66  1  0  0  0
 37106  1  0  0  0
 38 43  2  0  0  0
 38 46  1  0  0  0
 38 47  1  0  0  0
 39 64  1  0  0  0
 39 67  2  0  0  0
 40 52  1  0  0  0
 40 53  2  0  0  0
 40 58  1  0  0  0
 41107  1  0  0  0
 41108  1  0  0  0
 41109  1  0  0  0
 41 48  1  0  0  0
 42 43  1  0  0  0
 42 66  1  0  0  0
 42110  1  0  0  0
 42111  1  0  0  0
 43 44  1  0  0  0
 44112  1  0  0  0
 45 46  2  0  0  0
 45113  1  0  0  0
 46114  1  0  0  0
 47115  1  0  0  0
 47116  1  0  0  0
 48 56  1  0  0  0
 48 65  1  0  0  0
 48117  1  0  0  0
 49 50  1  0  0  0
 49 53  1  0  0  0
 49 64  1  0  0  0
 49118  1  0  0  0
 50 51  1  0  0  0
 50119  1  0  0  0
 50120  1  0  0  0
 51 52  1  0  0  0
 51121  1  0  0  0
 51122  1  0  0  0
 52123  1  0  0  0
 52124  1  0  0  0
 53 54  1  0  0  0
 54 55  2  0  0  0
 54125  1  0  0  0
 55 57  1  0  0  0
 55126  1  0  0  0
 56 69  2  0  0  0
 57 58  2  0  0  0
 57127  1  0  0  0
 58128  1  0  0  0
 59 60  1  0  0  0
 59 61  1  0  0  0
 59 62  1  0  0  0
 60129  1  0  0  0
 60130  1  0  0  0
 60131  1  0  0  0
 61132  1  0  0  0
 61133  1  0  0  0
 61134  1  0  0  0
 62135  1  0  0  0
 62136  1  0  0  0
 62137  1  0  0  0
 63 65  1  0  0  0
 63138  1  0  0  0
 63139  1  0  0  0
 63140  1  0  0  0
 64141  1  0  0  0
 65142  1  0  0  0
 68 79  1  0  0  0
 71 73  2  0  0  0
 71 76  1  0  0  0
 71143  1  0  0  0
 72 74  2  0  0  0
 72 75  1  0  0  0
 72144  1  0  0  0
 73 74  1  0  0  0
 73 80  1  0  0  0
 74 81  1  0  0  0
 75 76  2  0  0  0
 75 82  1  0  0  0
 76 83  1  0  0  0
 77 79  1  0  0  0
 77 81  1  0  0  0
 77145  1  0  0  0
 77146  1  0  0  0
 78 79  1  0  0  0
 78 81  1  0  0  0
 78147  1  0  0  0
 78148  1  0  0  0
 79149  1  0  0  0
 80150  1  0  0  0
 80151  1  0  0  0
 80152  1  0  0  0
 82153  1  0  0  0
M  ISO  4   1 100  68 101  79 101  82 100
M  END
> <chiral flag>
0

> <version>
0

> <s_m_source_file>
/data/baiqing/PycharmProjects/Reinvent-master-3.2/result/LINK_invent/BTK/process_docking_weight1_custom_product_contain_oxygen_bond_distance_aromatic_linkinvent_7_9_3/rearranged_h_0029.sdf

> <i_m_source_file_index>
33

> <r_mmod_Potential_Energy-OPLS-2005>
1037.53405761719

> <r_mmod_Stretch_Energy-OPLS-2005>
435.959075927734

> <r_mmod_Bend_Energy-OPLS-2005>
439.398101806641

> <r_mmod_Torsional_Energy-OPLS-2005>
288.816253662109

> <r_mmod_Improper_Torsional_Energy-OPLS-2005>
9.7733211517334

> <r_mmod_Van_der_Waal_Energy-OPLS-2005>
131.142913818359

> <r_mmod_Electrostatic_Energy-OPLS-2005>
-389.529052734375

> <r_mmod_Solvation_Energy-OPLS-2005>
-240.450210571289

> <b_mmod_Minimization_Converged-OPLS-2005>
0

> <r_mmod_RMS_Derivative-OPLS-2005>
0.633295476436615

$$$$
33
                    3D
 Structure written by MMmdl.
161170  0  0  1  0            999 V2000
  -30.5977  -14.7640   20.4304 C   0  0  0  0  0  0
  -30.4423  -12.4415   19.5093 C   0  0  0  0  0  0
  -29.5272  -12.4337   18.2638 C   0  0  0  0  0  0
  -28.0442  -12.3107   18.6637 C   0  0  0  0  0  0
  -27.6468  -13.2296   19.8505 C   0  0  2  0  0  0
  -28.6855  -13.1760   20.9925 C   0  0  0  0  0  0
  -25.2536  -13.8204   20.5685 C   0  0  0  0  0  0
  -24.1821  -13.0453   20.9201 C   0  0  0  0  0  0
  -24.6406  -11.6932   20.8755 C   0  0  0  0  0  0
  -23.9084  -10.4305   21.0416 C   0  0  0  0  0  0
  -24.3632   -9.4210   21.9187 C   0  0  0  0  0  0
  -23.6303   -8.2248   22.0752 C   0  0  0  0  0  0
  -22.4286   -8.0288   21.3543 C   0  0  0  0  0  0
  -21.9930   -9.0263   20.4642 C   0  0  0  0  0  0
  -22.7262  -10.2140   20.3057 C   0  0  0  0  0  0
  -21.6849   -6.0743   22.5281 C   0  0  0  0  0  0
  -21.4015   -6.5643   23.8216 C   0  0  0  0  0  0
  -21.3662   -5.6793   24.9174 C   0  0  0  0  0  0
  -21.6042   -4.3055   24.7223 C   0  0  0  0  0  0
  -21.8820   -3.8154   23.4341 C   0  0  0  0  0  0
  -21.9194   -4.6973   22.3400 C   0  0  0  0  0  0
  -22.7838  -13.5227   21.1870 C   0  0  0  0  0  0
  -22.1661   -4.2162   21.0975 F   0  0  0  0  0  0
  -21.5631   -3.4539   25.7733 F   0  0  0  0  0  0
  -29.9918  -13.5236   20.4179 N   0  0  0  0  0  0
  -26.2961  -12.9409   20.3278 N   0  0  0  0  0  0
  -25.9335  -11.6559   20.5772 N   0  0  0  0  0  0
  -22.0495  -12.8200   22.0420 N   0  0  0  0  0  0
  -25.4248  -15.1920   20.4095 N   0  0  0  0  0  0
  -31.7740  -14.8715   20.0716 O   0  0  0  0  0  0
  -21.6641   -6.8890   21.4242 O   0  0  0  0  0  0
  -22.3520  -14.5537   20.6725 O   0  0  0  0  0  0
  -24.6299  -31.8527   23.1972 C   0  0  0  0  0  0
  -25.9133  -32.4733   23.8309 C   0  0  1  0  0  0
  -27.2229  -27.2530   20.1341 C   0  0  0  0  0  0
  -25.5937  -33.8538   24.2233 N   0  0  0  0  0  0
  -23.4288  -30.4749   21.5384 C   0  0  2  0  0  0
  -24.8784  -28.9222   20.1048 C   0  0  0  0  0  0
  -22.7509  -29.4577   22.4878 C   0  0  0  0  0  0
  -18.0299  -28.1377   22.8465 C   0  0  0  0  0  0
  -24.1502  -36.7281   23.2640 C   0  0  0  0  0  0
  -25.9742  -30.7613   21.3807 C   0  0  0  0  0  0
  -26.0467  -29.3833   20.7241 C   0  0  0  0  0  0
  -27.2175  -28.5595   20.7321 C   0  0  0  0  0  0
  -26.0364  -26.8710   19.4658 C   0  0  0  0  0  0
  -24.8799  -27.6749   19.4635 C   0  0  0  0  0  0
  -23.6493  -29.8096   20.1537 C   0  0  0  0  0  0
  -25.4125  -36.3047   24.0323 C   0  0  1  0  0  0
  -20.5900  -28.3681   23.1257 C   0  0  2  0  0  0
  -20.6782  -26.9391   22.5404 C   0  0  0  0  0  0
  -19.5762  -26.6363   21.5202 C   0  0  0  0  0  0
  -18.1941  -26.7920   22.1614 C   0  0  0  0  0  0
  -19.1555  -28.8849   23.2855 C   0  0  0  0  0  0
  -18.9479  -30.1446   23.8870 C   0  0  0  0  0  0
  -17.6484  -30.6573   24.0553 C   0  0  0  0  0  0
  -25.9068  -34.9425   23.5083 C   0  0  0  0  0  0
  -16.5372  -29.9069   23.6335 C   0  0  0  0  0  0
  -16.7288  -28.6497   23.0338 C   0  0  0  0  0  0
  -26.4500  -31.6574   25.0711 C   0  0  0  0  0  0
  -25.3733  -31.3733   26.1440 C   0  0  0  0  0  0
  -27.0358  -30.2995   24.6204 C   0  0  0  0  0  0
  -27.6033  -32.4329   25.7500 C   0  0  0  0  0  0
  -27.5581  -37.1786   24.8463 C   0  0  0  0  0  0
  -21.4213  -29.3032   22.3646 N   0  0  0  0  0  0
  -26.4286  -37.3753   23.9412 N   0  0  0  0  0  0
  -24.6962  -31.0489   22.0947 N   0  0  0  0  0  0
  -23.4201  -28.8112   23.2980 O   0  0  0  0  0  0
  -28.3207  -26.3609   20.2236 O   0  0  0  0  0  0
  -26.5631  -34.8903   22.4642 O   0  0  0  0  0  0
  -23.5454  -32.1356   23.7271 O   0  0  0  0  0  0
  -29.4968  -19.7769   18.7093 C   0  0  0  0  0  0
  -29.4871  -18.5574   18.0150 C   0  0  0  0  0  0
  -29.6103  -19.8199   20.1111 C   0  0  0  0  0  0
  -29.7568  -18.5249   20.7911 C   0  0  0  0  0  0
  -29.7914  -17.2388   20.0810 C   0  0  0  0  0  0
  -29.6184  -17.3205   18.6701 C   0  0  0  0  0  0
  -27.4583  -22.6366   20.8757 C   0  0  0  0  0  0
  -26.6855  -21.6352   21.3341 C   0  0  0  0  0  0
  -27.1396  -24.1439   20.8914 C   0  0  0  0  0  0
  -29.3582  -23.8525   20.1647 C   0  0  0  0  0  0
  -28.1558  -24.8763   19.9872 C   0  0  2  0  0  0
  -29.9028  -18.5194   22.3051 C   0  0  0  0  0  0
  -29.6809  -21.2865   20.7588 C   0  0  0  0  0  0
  -29.8305  -15.8871   20.7223 N   0  0  0  0  0  0
  -28.7922  -22.4372   20.2279 N   0  3  1  0  0  0
  -29.4704  -15.9295   17.6628 Cl  0  0  0  0  0  0
  -31.4855  -12.5621   19.2103 H   0  0  0  0  0  0
  -30.3941  -11.4813   20.0242 H   0  0  0  0  0  0
  -29.8009  -11.6030   17.6123 H   0  0  0  0  0  0
  -29.6897  -13.3283   17.6702 H   0  0  0  0  0  0
  -27.8778  -11.2687   18.9391 H   0  0  0  0  0  0
  -27.4015  -12.5010   17.8035 H   0  0  0  0  0  0
  -27.6421  -14.2465   19.4573 H   0  0  0  0  0  0
  -28.7169  -12.1826   21.4432 H   0  0  0  0  0  0
  -28.4123  -13.8632   21.7946 H   0  0  0  0  0  0
  -25.2779   -9.5676   22.4757 H   0  0  0  0  0  0
  -24.0012   -7.4635   22.7466 H   0  0  0  0  0  0
  -21.0868   -8.8782   19.8940 H   0  0  0  0  0  0
  -22.3733  -10.9675   19.6162 H   0  0  0  0  0  0
  -21.2006   -7.6153   23.9723 H   0  0  0  0  0  0
  -21.1482   -6.0521   25.9076 H   0  0  0  0  0  0
  -22.0598   -2.7620   23.2835 H   0  0  0  0  0  0
  -22.4125  -11.9848   22.4776 H   0  0  0  0  0  0
  -21.1108  -13.1202   22.2640 H   0  0  0  0  0  0
  -24.6577  -15.8470   20.5128 H   0  0  0  0  0  0
  -26.2708  -15.6265   20.0636 H   0  0  0  0  0  0
  -26.7193  -32.5360   23.1043 H   0  0  0  0  0  0
  -25.0075  -33.9665   25.0376 H   0  0  0  0  0  0
  -22.7269  -31.2982   21.3897 H   0  0  0  0  0  0
  -23.3744  -35.9634   23.3297 H   0  0  0  0  0  0
  -24.3597  -36.8921   22.2057 H   0  0  0  0  0  0
  -23.7284  -37.6490   23.6684 H   0  0  0  0  0  0
  -26.1169  -31.5200   20.6098 H   0  0  0  0  0  0
  -26.8510  -30.8086   22.0147 H   0  0  0  0  0  0
  -28.1050  -28.8989   21.2464 H   0  0  0  0  0  0
  -25.9685  -25.9277   18.9451 H   0  0  0  0  0  0
  -23.9909  -27.3217   18.9589 H   0  0  0  0  0  0
  -23.7784  -30.5870   19.3995 H   0  0  0  0  0  0
  -22.7675  -29.2444   19.8452 H   0  0  0  0  0  0
  -25.1306  -36.1879   25.0814 H   0  0  0  0  0  0
  -20.9999  -28.3257   24.1375 H   0  0  0  0  0  0
  -20.5683  -26.2276   23.3603 H   0  0  0  0  0  0
  -21.6641  -26.7408   22.1190 H   0  0  0  0  0  0
  -19.6933  -25.6276   21.1224 H   0  0  0  0  0  0
  -19.6716  -27.3175   20.6727 H   0  0  0  0  0  0
  -17.4210  -26.6659   21.4012 H   0  0  0  0  0  0
  -18.0335  -26.0074   22.9020 H   0  0  0  0  0  0
  -19.7966  -30.7247   24.2228 H   0  0  0  0  0  0
  -17.5050  -31.6257   24.5139 H   0  0  0  0  0  0
  -15.5372  -30.2955   23.7680 H   0  0  0  0  0  0
  -15.8691  -28.0811   22.7043 H   0  0  0  0  0  0
  -24.5906  -30.7081   25.7783 H   0  0  0  0  0  0
  -24.8916  -32.2904   26.4841 H   0  0  0  0  0  0
  -25.8041  -30.8934   27.0234 H   0  0  0  0  0  0
  -26.2943  -29.6724   24.1246 H   0  0  0  0  0  0
  -27.4062  -29.7276   25.4719 H   0  0  0  0  0  0
  -27.8813  -30.4271   23.9440 H   0  0  0  0  0  0
  -27.2625  -33.3636   26.2042 H   0  0  0  0  0  0
  -28.3862  -32.6880   25.0350 H   0  0  0  0  0  0
  -28.0688  -31.8489   26.5450 H   0  0  0  0  0  0
  -28.2552  -38.0119   24.7492 H   0  0  0  0  0  0
  -28.1103  -36.2629   24.6286 H   0  0  0  0  0  0
  -27.2288  -37.1435   25.8861 H   0  0  0  0  0  0
  -20.9398  -29.8777   21.6874 H   0  0  0  0  0  0
  -26.0154  -38.2817   24.1421 H   0  0  0  0  0  0
  -29.4182  -20.6884   18.1337 H   0  0  0  0  0  0
  -29.3597  -18.5669   16.9424 H   0  0  0  0  0  0
  -25.7260  -21.8404   21.7873 H   0  0  0  0  0  0
  -26.9892  -20.5994   21.2739 H   0  0  0  0  0  0
  -27.2252  -24.5023   21.9166 H   0  0  0  0  0  0
  -26.1116  -24.3105   20.5725 H   0  0  0  0  0  0
  -29.8684  -24.0646   21.1049 H   0  0  0  0  0  0
  -30.0945  -23.9502   19.3670 H   0  0  0  0  0  0
  -27.8318  -24.7642   18.9517 H   0  0  0  0  0  0
  -30.8826  -18.9019   22.5921 H   0  0  0  0  0  0
  -29.7982  -17.5229   22.7340 H   0  0  0  0  0  0
  -29.1385  -19.1428   22.7688 H   0  0  0  0  0  0
  -30.7123  -21.6066   20.6112 H   0  0  0  0  0  0
  -29.5649  -21.2276   21.8398 H   0  0  0  0  0  0
  -28.9889  -15.6615   21.2295 H   0  0  0  0  0  0
  -28.6232  -22.1875   19.2651 H   0  0  0  0  0  0
  1 25  1  0  0  0
  1 30  2  0  0  0
  1 84  1  0  0  0
  2  3  1  0  0  0
  2 25  1  0  0  0
  2 87  1  0  0  0
  2 88  1  0  0  0
  3  4  1  0  0  0
  3 89  1  0  0  0
  3 90  1  0  0  0
  4  5  1  0  0  0
  4 91  1  0  0  0
  4 92  1  0  0  0
  5  6  1  0  0  0
  5 26  1  0  0  0
  5 93  1  0  0  0
  6 25  1  0  0  0
  6 94  1  0  0  0
  6 95  1  0  0  0
  7  8  2  0  0  0
  7 26  1  0  0  0
  7 29  1  0  0  0
  8  9  1  0  0  0
  8 22  1  0  0  0
  9 10  1  0  0  0
  9 27  2  0  0  0
 10 11  2  0  0  0
 10 15  1  0  0  0
 11 12  1  0  0  0
 11 96  1  0  0  0
 12 13  2  0  0  0
 12 97  1  0  0  0
 13 14  1  0  0  0
 13 31  1  0  0  0
 14 15  2  0  0  0
 14 98  1  0  0  0
 15 99  1  0  0  0
 16 17  2  0  0  0
 16 21  1  0  0  0
 16 31  1  0  0  0
 17 18  1  0  0  0
 17100  1  0  0  0
 18 19  2  0  0  0
 18101  1  0  0  0
 19 20  1  0  0  0
 19 24  1  0  0  0
 20 21  2  0  0  0
 20102  1  0  0  0
 21 23  1  0  0  0
 22 28  1  0  0  0
 22 32  2  0  0  0
 26 27  1  0  0  0
 28103  1  0  0  0
 28104  1  0  0  0
 29105  1  0  0  0
 29106  1  0  0  0
 33 34  1  0  0  0
 33 66  1  0  0  0
 33 70  2  0  0  0
 34 36  1  0  0  0
 34 59  1  0  0  0
 34107  1  0  0  0
 35 44  2  0  0  0
 35 45  1  0  0  0
 35 68  1  0  0  0
 36 56  1  0  0  0
 36108  1  0  0  0
 37 39  1  0  0  0
 37 47  1  0  0  0
 37 66  1  0  0  0
 37109  1  0  0  0
 38 43  2  0  0  0
 38 46  1  0  0  0
 38 47  1  0  0  0
 39 64  1  0  0  0
 39 67  2  0  0  0
 40 52  1  0  0  0
 40 53  2  0  0  0
 40 58  1  0  0  0
 41110  1  0  0  0
 41111  1  0  0  0
 41112  1  0  0  0
 41 48  1  0  0  0
 42 43  1  0  0  0
 42 66  1  0  0  0
 42113  1  0  0  0
 42114  1  0  0  0
 43 44  1  0  0  0
 44115  1  0  0  0
 45 46  2  0  0  0
 45116  1  0  0  0
 46117  1  0  0  0
 47118  1  0  0  0
 47119  1  0  0  0
 48 56  1  0  0  0
 48 65  1  0  0  0
 48120  1  0  0  0
 49 50  1  0  0  0
 49 53  1  0  0  0
 49 64  1  0  0  0
 49121  1  0  0  0
 50 51  1  0  0  0
 50122  1  0  0  0
 50123  1  0  0  0
 51 52  1  0  0  0
 51124  1  0  0  0
 51125  1  0  0  0
 52126  1  0  0  0
 52127  1  0  0  0
 53 54  1  0  0  0
 54 55  2  0  0  0
 54128  1  0  0  0
 55 57  1  0  0  0
 55129  1  0  0  0
 56 69  2  0  0  0
 57 58  2  0  0  0
 57130  1  0  0  0
 58131  1  0  0  0
 59 60  1  0  0  0
 59 61  1  0  0  0
 59 62  1  0  0  0
 60132  1  0  0  0
 60133  1  0  0  0
 60134  1  0  0  0
 61135  1  0  0  0
 61136  1  0  0  0
 61137  1  0  0  0
 62138  1  0  0  0
 62139  1  0  0  0
 62140  1  0  0  0
 63 65  1  0  0  0
 63141  1  0  0  0
 63142  1  0  0  0
 63143  1  0  0  0
 64144  1  0  0  0
 65145  1  0  0  0
 68 81  1  0  0  0
 71 72  2  0  0  0
 71 73  1  0  0  0
 71146  1  0  0  0
 72 76  1  0  0  0
 72147  1  0  0  0
 73 74  2  0  0  0
 73 83  1  0  0  0
 74 75  1  0  0  0
 74 82  1  0  0  0
 75 76  2  0  0  0
 75 84  1  0  0  0
 76 86  1  0  0  0
 77 78  2  0  0  0
 77 79  1  0  0  0
 77 85  1  0  0  0
 78148  1  0  0  0
 78149  1  0  0  0
 79 81  1  0  0  0
 79150  1  0  0  0
 79151  1  0  0  0
 80 81  1  0  0  0
 80 85  1  0  0  0
 80152  1  0  0  0
 80153  1  0  0  0
 81154  1  0  0  0
 82155  1  0  0  0
 82156  1  0  0  0
 82157  1  0  0  0
 83158  1  0  0  0
 83159  1  0  0  0
 83 85  1  0  0  0
 84160  1  0  0  0
 85161  1  0  0  0
M  CHG  1  85   1
M  ISO  4   1 100  68 101  81 101  84 100
M  END
> <chiral flag>
0

> <version>
0

> <s_m_source_file>
/data/baiqing/PycharmProjects/Reinvent-master-3.2/result/LINK_invent/BTK/process_docking_weight1_custom_product_contain_oxygen_bond_distance_aromatic_linkinvent_7_9_3/rearranged_h_0029.sdf

> <i_m_source_file_index>
34

> <r_mmod_Potential_Energy-OPLS-2005>
90.0848617553711

> <r_mmod_Stretch_Energy-OPLS-2005>
129.960052490234

> <r_mmod_Bend_Energy-OPLS-2005>
200.326034545898

> <r_mmod_Torsional_Energy-OPLS-2005>
260.457885742188

> <r_mmod_Improper_Torsional_Energy-OPLS-2005>
5.19973659515381

> <r_mmod_Van_der_Waal_Energy-OPLS-2005>
132.132263183594

> <r_mmod_Electrostatic_Energy-OPLS-2005>
-282.422271728516

> <r_mmod_Solvation_Energy-OPLS-2005>
-450.542022705078

> <b_mmod_Minimization_Converged-OPLS-2005>
0

> <r_mmod_RMS_Derivative-OPLS-2005>
1.83859276771545

$$$$
34
                    3D
 Structure written by MMmdl.
156165  0  0  1  0            999 V2000
  -30.4995  -14.9534   20.4151 C   0  0  0  0  0  0
  -30.4490  -12.5839   19.5062 C   0  0  0  0  0  0
  -29.5270  -12.5244   18.2628 C   0  0  0  0  0  0
  -28.0598  -12.3071   18.6811 C   0  0  0  0  0  0
  -27.6336  -13.2412   19.8432 C   0  0  2  0  0  0
  -28.6737  -13.2503   20.9849 C   0  0  0  0  0  0
  -25.2471  -13.8192   20.5705 C   0  0  0  0  0  0
  -24.1780  -13.0428   20.9222 C   0  0  0  0  0  0
  -24.6392  -11.6915   20.8764 C   0  0  0  0  0  0
  -23.9074  -10.4290   21.0413 C   0  0  0  0  0  0
  -24.3624   -9.4204   21.9190 C   0  0  0  0  0  0
  -23.6299   -8.2238   22.0759 C   0  0  0  0  0  0
  -22.4281   -8.0280   21.3551 C   0  0  0  0  0  0
  -21.9917   -9.0246   20.4645 C   0  0  0  0  0  0
  -22.7250  -10.2122   20.3056 C   0  0  0  0  0  0
  -21.6841   -6.0741   22.5289 C   0  0  0  0  0  0
  -21.3998   -6.5644   23.8221 C   0  0  0  0  0  0
  -21.3656   -5.6794   24.9182 C   0  0  0  0  0  0
  -21.6043   -4.3056   24.7226 C   0  0  0  0  0  0
  -21.8820   -3.8152   23.4345 C   0  0  0  0  0  0
  -21.9190   -4.6973   22.3404 C   0  0  0  0  0  0
  -22.7803  -13.5200   21.1879 C   0  0  0  0  0  0
  -22.1663   -4.2162   21.0981 F   0  0  0  0  0  0
  -21.5628   -3.4536   25.7732 F   0  0  0  0  0  0
  -29.9549  -13.6701   20.4002 N   0  0  0  0  0  0
  -26.2897  -12.9420   20.3259 N   0  0  0  0  0  0
  -25.9324  -11.6558   20.5753 N   0  0  0  0  0  0
  -22.0452  -12.8188   22.0436 N   0  0  0  0  0  0
  -25.4125  -15.1912   20.4133 N   0  0  0  0  0  0
  -31.6831  -15.0767   20.0797 O   0  0  0  0  0  0
  -21.6637   -6.8882   21.4252 O   0  0  0  0  0  0
  -22.3493  -14.5506   20.6728 O   0  0  0  0  0  0
  -24.6421  -31.8429   23.1869 C   0  0  0  0  0  0
  -25.9210  -32.4688   23.8252 C   0  0  1  0  0  0
  -27.2241  -27.1381   20.1517 C   0  0  0  0  0  0
  -25.5981  -33.8496   24.2196 N   0  0  0  0  0  0
  -23.4431  -30.4612   21.5325 C   0  0  2  0  0  0
  -24.8917  -28.8813   20.1092 C   0  0  0  0  0  0
  -22.7549  -29.4544   22.4877 C   0  0  0  0  0  0
  -18.0303  -28.1388   22.8482 C   0  0  0  0  0  0
  -24.1479  -36.7219   23.2638 C   0  0  0  0  0  0
  -25.9956  -30.7196   21.3785 C   0  0  0  0  0  0
  -26.0655  -29.3280   20.7257 C   0  0  0  0  0  0
  -27.2270  -28.4713   20.7294 C   0  0  0  0  0  0
  -26.0239  -26.7870   19.4993 C   0  0  0  0  0  0
  -24.8828  -27.6239   19.4835 C   0  0  0  0  0  0
  -23.6660  -29.7831   20.1526 C   0  0  0  0  0  0
  -25.4119  -36.3016   24.0320 C   0  0  1  0  0  0
  -20.5913  -28.3700   23.1250 C   0  0  2  0  0  0
  -20.6783  -26.9414   22.5399 C   0  0  0  0  0  0
  -19.5760  -26.6383   21.5207 C   0  0  0  0  0  0
  -18.1940  -26.7935   22.1610 C   0  0  0  0  0  0
  -19.1559  -28.8866   23.2857 C   0  0  0  0  0  0
  -18.9476  -30.1470   23.8868 C   0  0  0  0  0  0
  -17.6472  -30.6587   24.0566 C   0  0  0  0  0  0
  -25.9077  -34.9405   23.5063 C   0  0  0  0  0  0
  -16.5364  -29.9079   23.6347 C   0  0  0  0  0  0
  -16.7285  -28.6502   23.0358 C   0  0  0  0  0  0
  -26.4558  -31.6542   25.0674 C   0  0  0  0  0  0
  -25.3768  -31.3709   26.1382 C   0  0  0  0  0  0
  -27.0429  -30.2960   24.6187 C   0  0  0  0  0  0
  -27.6099  -32.4285   25.7456 C   0  0  0  0  0  0
  -27.5562  -37.1767   24.8475 C   0  0  0  0  0  0
  -21.4250  -29.3031   22.3627 N   0  0  0  0  0  0
  -26.4271  -37.3740   23.9420 N   0  0  0  0  0  0
  -24.7139  -31.0293   22.0891 N   0  0  0  0  0  0
  -23.4202  -28.8111   23.3031 O   0  0  0  0  0  0
  -28.3334  -26.2232   20.2461 O   0  0  0  0  0  0
  -26.5638  -34.8906   22.4623 O   0  0  0  0  0  0
  -23.5553  -32.1297   23.7121 O   0  0  0  0  0  0
  -30.3633  -18.4413   19.6529 C   0  0  0  0  0  0
  -28.4304  -19.8122   21.1020 C   0  0  0  0  0  0
  -30.1520  -19.8825   19.4943 C   0  0  0  0  0  0
  -29.1548  -20.6627   20.2037 C   0  0  0  0  0  0
  -29.6028  -17.5920   20.5255 C   0  0  0  0  0  0
  -28.6263  -18.3753   21.2415 C   0  0  0  0  0  0
  -27.7855  -23.9975   18.7237 C   0  0  0  0  0  0
  -28.4302  -22.5648   18.6178 C   0  0  0  0  0  0
  -28.6870  -23.3692   20.8192 C   0  0  0  0  0  0
  -28.5032  -24.7088   19.8818 C   0  0  2  0  0  0
  -31.0647  -20.5911   18.5074 C   0  0  0  0  0  0
  -28.8551  -22.1117   19.9536 N   0  0  0  0  0  0
  -29.6491  -16.0593   20.6805 N   0  0  0  0  0  0
  -27.5771  -17.5393   22.3314 Cl  0  0  0  0  0  0
  -31.4828  -12.7539   19.2015 H   0  0  0  0  0  0
  -30.4505  -11.6286   20.0335 H   0  0  0  0  0  0
  -29.8500  -11.7263   17.5928 H   0  0  0  0  0  0
  -29.6099  -13.4524   17.6945 H   0  0  0  0  0  0
  -27.9597  -11.2674   18.9956 H   0  0  0  0  0  0
  -27.3944  -12.4277   17.8255 H   0  0  0  0  0  0
  -27.6020  -14.2452   19.4185 H   0  0  0  0  0  0
  -28.7562  -12.2669   21.4483 H   0  0  0  0  0  0
  -28.3680  -13.9355   21.7770 H   0  0  0  0  0  0
  -25.2769   -9.5670   22.4764 H   0  0  0  0  0  0
  -24.0006   -7.4617   22.7471 H   0  0  0  0  0  0
  -21.0854   -8.8763   19.8933 H   0  0  0  0  0  0
  -22.3726  -10.9659   19.6153 H   0  0  0  0  0  0
  -21.1985   -7.6156   23.9731 H   0  0  0  0  0  0
  -21.1471   -6.0519   25.9084 H   0  0  0  0  0  0
  -22.0600   -2.7617   23.2836 H   0  0  0  0  0  0
  -22.4075  -11.9840   22.4801 H   0  0  0  0  0  0
  -21.1066  -13.1193   22.2635 H   0  0  0  0  0  0
  -24.6434  -15.8382   20.5422 H   0  0  0  0  0  0
  -26.2630  -15.6444   20.1087 H   0  0  0  0  0  0
  -26.7271  -32.5287   23.0978 H   0  0  0  0  0  0
  -25.0195  -33.9619   25.0392 H   0  0  0  0  0  0
  -22.7453  -31.2873   21.3781 H   0  0  0  0  0  0
  -23.3778  -35.9510   23.3261 H   0  0  0  0  0  0
  -24.3565  -36.8876   22.2057 H   0  0  0  0  0  0
  -23.7183  -37.6385   23.6694 H   0  0  0  0  0  0
  -26.1396  -31.4700   20.5998 H   0  0  0  0  0  0
  -26.8716  -30.7766   22.0135 H   0  0  0  0  0  0
  -28.1246  -28.8125   21.2260 H   0  0  0  0  0  0
  -25.9301  -25.8327   19.0140 H   0  0  0  0  0  0
  -23.9839  -27.2738   18.9945 H   0  0  0  0  0  0
  -23.7952  -30.5553   19.3930 H   0  0  0  0  0  0
  -22.7806  -29.2222   19.8461 H   0  0  0  0  0  0
  -25.1311  -36.1828   25.0811 H   0  0  0  0  0  0
  -21.0010  -28.3253   24.1368 H   0  0  0  0  0  0
  -20.5674  -26.2309   23.3606 H   0  0  0  0  0  0
  -21.6642  -26.7424   22.1183 H   0  0  0  0  0  0
  -19.6922  -25.6297   21.1222 H   0  0  0  0  0  0
  -19.6699  -27.3210   20.6755 H   0  0  0  0  0  0
  -17.4219  -26.6702   21.3998 H   0  0  0  0  0  0
  -18.0330  -26.0075   22.8997 H   0  0  0  0  0  0
  -19.7955  -30.7306   24.2194 H   0  0  0  0  0  0
  -17.5031  -31.6263   24.5174 H   0  0  0  0  0  0
  -15.5364  -30.2969   23.7711 H   0  0  0  0  0  0
  -15.8681  -28.0829   22.7072 H   0  0  0  0  0  0
  -24.5993  -30.6996   25.7714 H   0  0  0  0  0  0
  -24.8914  -32.2884   26.4721 H   0  0  0  0  0  0
  -25.8090  -30.8957   27.0200 H   0  0  0  0  0  0
  -26.3026  -29.6663   24.1241 H   0  0  0  0  0  0
  -27.4165  -29.7249   25.4692 H   0  0  0  0  0  0
  -27.8875  -30.4243   23.9415 H   0  0  0  0  0  0
  -27.2767  -33.3692   26.1856 H   0  0  0  0  0  0
  -28.4031  -32.6639   25.0346 H   0  0  0  0  0  0
  -28.0626  -31.8484   26.5512 H   0  0  0  0  0  0
  -28.2569  -38.0073   24.7538 H   0  0  0  0  0  0
  -28.1060  -36.2601   24.6288 H   0  0  0  0  0  0
  -27.2275  -37.1391   25.8875 H   0  0  0  0  0  0
  -20.9460  -29.8741   21.6810 H   0  0  0  0  0  0
  -26.0123  -38.2792   24.1454 H   0  0  0  0  0  0
  -31.1256  -17.9725   19.0473 H   0  0  0  0  0  0
  -27.6426  -20.2620   21.6876 H   0  0  0  0  0  0
  -26.7290  -23.8742   18.9608 H   0  0  0  0  0  0
  -27.8598  -24.5472   17.7846 H   0  0  0  0  0  0
  -29.3066  -22.6214   17.9723 H   0  0  0  0  0  0
  -27.7362  -21.8566   18.1618 H   0  0  0  0  0  0
  -27.8090  -23.2423   21.4554 H   0  0  0  0  0  0
  -29.5438  -23.4907   21.4828 H   0  0  0  0  0  0
  -29.5147  -24.8124   19.4843 H   0  0  0  0  0  0
  -32.0102  -20.0604   18.3947 H   0  0  0  0  0  0
  -31.3023  -21.6013   18.8427 H   0  0  0  0  0  0
  -30.5914  -20.6528   17.5272 H   0  0  0  0  0  0
  -28.7840  -15.7218   21.0749 H   0  0  0  0  0  0
  1 25  1  0  0  0
  1 30  2  0  0  0
  1 83  1  0  0  0
  2  3  1  0  0  0
  2 25  1  0  0  0
  2 85  1  0  0  0
  2 86  1  0  0  0
  3  4  1  0  0  0
  3 87  1  0  0  0
  3 88  1  0  0  0
  4  5  1  0  0  0
  4 89  1  0  0  0
  4 90  1  0  0  0
  5  6  1  0  0  0
  5 26  1  0  0  0
  5 91  1  0  0  0
  6 25  1  0  0  0
  6 92  1  0  0  0
  6 93  1  0  0  0
  7  8  2  0  0  0
  7 26  1  0  0  0
  7 29  1  0  0  0
  8  9  1  0  0  0
  8 22  1  0  0  0
  9 10  1  0  0  0
  9 27  2  0  0  0
 10 11  2  0  0  0
 10 15  1  0  0  0
 11 12  1  0  0  0
 11 94  1  0  0  0
 12 13  2  0  0  0
 12 95  1  0  0  0
 13 14  1  0  0  0
 13 31  1  0  0  0
 14 15  2  0  0  0
 14 96  1  0  0  0
 15 97  1  0  0  0
 16 17  2  0  0  0
 16 21  1  0  0  0
 16 31  1  0  0  0
 17 18  1  0  0  0
 17 98  1  0  0  0
 18 19  2  0  0  0
 18 99  1  0  0  0
 19 20  1  0  0  0
 19 24  1  0  0  0
 20 21  2  0  0  0
 20100  1  0  0  0
 21 23  1  0  0  0
 22 28  1  0  0  0
 22 32  2  0  0  0
 26 27  1  0  0  0
 28101  1  0  0  0
 28102  1  0  0  0
 29103  1  0  0  0
 29104  1  0  0  0
 33 34  1  0  0  0
 33 66  1  0  0  0
 33 70  2  0  0  0
 34 36  1  0  0  0
 34 59  1  0  0  0
 34105  1  0  0  0
 35 44  2  0  0  0
 35 45  1  0  0  0
 35 68  1  0  0  0
 36 56  1  0  0  0
 36106  1  0  0  0
 37 39  1  0  0  0
 37 47  1  0  0  0
 37 66  1  0  0  0
 37107  1  0  0  0
 38 43  2  0  0  0
 38 46  1  0  0  0
 38 47  1  0  0  0
 39 64  1  0  0  0
 39 67  2  0  0  0
 40 52  1  0  0  0
 40 53  2  0  0  0
 40 58  1  0  0  0
 41108  1  0  0  0
 41109  1  0  0  0
 41110  1  0  0  0
 41 48  1  0  0  0
 42 43  1  0  0  0
 42 66  1  0  0  0
 42111  1  0  0  0
 42112  1  0  0  0
 43 44  1  0  0  0
 44113  1  0  0  0
 45 46  2  0  0  0
 45114  1  0  0  0
 46115  1  0  0  0
 47116  1  0  0  0
 47117  1  0  0  0
 48 56  1  0  0  0
 48 65  1  0  0  0
 48118  1  0  0  0
 49 50  1  0  0  0
 49 53  1  0  0  0
 49 64  1  0  0  0
 49119  1  0  0  0
 50 51  1  0  0  0
 50120  1  0  0  0
 50121  1  0  0  0
 51 52  1  0  0  0
 51122  1  0  0  0
 51123  1  0  0  0
 52124  1  0  0  0
 52125  1  0  0  0
 53 54  1  0  0  0
 54 55  2  0  0  0
 54126  1  0  0  0
 55 57  1  0  0  0
 55127  1  0  0  0
 56 69  2  0  0  0
 57 58  2  0  0  0
 57128  1  0  0  0
 58129  1  0  0  0
 59 60  1  0  0  0
 59 61  1  0  0  0
 59 62  1  0  0  0
 60130  1  0  0  0
 60131  1  0  0  0
 60132  1  0  0  0
 61133  1  0  0  0
 61134  1  0  0  0
 61135  1  0  0  0
 62136  1  0  0  0
 62137  1  0  0  0
 62138  1  0  0  0
 63 65  1  0  0  0
 63139  1  0  0  0
 63140  1  0  0  0
 63141  1  0  0  0
 64142  1  0  0  0
 65143  1  0  0  0
 68 80  1  0  0  0
 71 73  2  0  0  0
 71 75  1  0  0  0
 71144  1  0  0  0
 72 74  2  0  0  0
 72 76  1  0  0  0
 72145  1  0  0  0
 73 74  1  0  0  0
 73 81  1  0  0  0
 74 82  1  0  0  0
 75 76  2  0  0  0
 75 83  1  0  0  0
 76 84  1  0  0  0
 77 78  1  0  0  0
 77 80  1  0  0  0
 77146  1  0  0  0
 77147  1  0  0  0
 78 82  1  0  0  0
 78148  1  0  0  0
 78149  1  0  0  0
 79 80  1  0  0  0
 79 82  1  0  0  0
 79150  1  0  0  0
 79151  1  0  0  0
 80152  1  0  0  0
 81153  1  0  0  0
 81154  1  0  0  0
 81155  1  0  0  0
 83156  1  0  0  0
M  ISO  4   1 100  68 101  80 101  83 100
M  END
> <chiral flag>
0

> <version>
0

> <s_m_source_file>
/data/baiqing/PycharmProjects/Reinvent-master-3.2/result/LINK_invent/BTK/process_docking_weight1_custom_product_contain_oxygen_bond_distance_aromatic_linkinvent_7_9_3/rearranged_h_0029.sdf

> <i_m_source_file_index>
35

> <r_mmod_Potential_Energy-OPLS-2005>
545.845947265625

> <r_mmod_Stretch_Energy-OPLS-2005>
219.51611328125

> <r_mmod_Bend_Energy-OPLS-2005>
371.569000244141

> <r_mmod_Torsional_Energy-OPLS-2005>
273.996551513672

> <r_mmod_Improper_Torsional_Energy-OPLS-2005>
3.7221052646637

> <r_mmod_Van_der_Waal_Energy-OPLS-2005>
124.162559509277

> <r_mmod_Electrostatic_Energy-OPLS-2005>
-420.491821289062

> <r_mmod_Solvation_Energy-OPLS-2005>
-214.849502563477

> <b_mmod_Minimization_Converged-OPLS-2005>
0

> <r_mmod_RMS_Derivative-OPLS-2005>
1.98433840274811

$$$$
35
                    3D
 Structure written by MMmdl.
167176  0  0  1  0            999 V2000
  -29.9126  -14.4180   21.0588 C   0  0  0  0  0  0
  -30.7964  -12.6703   19.2920 C   0  0  0  0  0  0
  -29.8642  -12.5092   18.0113 C   0  0  0  0  0  0
  -28.3491  -12.3044   18.2531 C   0  0  0  0  0  0
  -28.0687  -13.1483   19.4423 C   0  0  2  0  0  0
  -29.0143  -12.4391   20.5645 C   0  0  0  0  0  0
  -25.7600  -13.9494   19.9789 C   0  0  0  0  0  0
  -24.3972  -13.5749   21.1577 C   0  0  0  0  0  0
  -24.4206  -12.3389   21.6166 C   0  0  0  0  0  0
  -23.7899  -10.8344   21.4208 C   0  0  0  0  0  0
  -24.3064   -9.6898   22.1135 C   0  0  0  0  0  0
  -23.6838   -8.4007   22.1151 C   0  0  0  0  0  0
  -22.4988   -8.1578   21.3849 C   0  0  0  0  0  0
  -22.0548   -9.2101   20.5527 C   0  0  0  0  0  0
  -22.6825  -10.4932   20.5653 C   0  0  0  0  0  0
  -21.7419   -6.1231   22.5035 C   0  0  0  0  0  0
  -21.4439   -6.5982   23.8020 C   0  0  0  0  0  0
  -21.3796   -5.7061   24.8960 C   0  0  0  0  0  0
  -21.5990   -4.3291   24.7016 C   0  0  0  0  0  0
  -21.8705   -3.8440   23.4108 C   0  0  0  0  0  0
  -21.9336   -4.7332   22.3207 C   0  0  0  0  0  0
  -22.7715  -13.8632   21.4355 C   0  0  0  0  0  0
  -22.1725   -4.2378   21.0833 F   0  0  0  0  0  0
  -21.5524   -3.4753   25.7535 F   0  0  0  0  0  0
  -30.0886  -13.2004   20.4868 N   0  0  0  0  0  0
  -26.5562  -13.4656   19.5075 N   0  0  0  0  0  0
  -25.1338  -13.4467   20.7793 N   0  0  0  0  0  0
  -22.0822  -13.1019   22.3057 N   0  0  0  0  0  0
  -26.3668  -14.9082   18.9698 N   0  0  0  0  0  0
  -30.8993  -15.1516   20.7894 O   0  0  0  0  0  0
  -21.7845   -6.9629   21.4014 O   0  0  0  0  0  0
  -22.0525  -14.6499   20.8400 O   0  0  0  0  0  0
  -24.6930  -31.7860   23.1532 C   0  0  0  0  0  0
  -25.9488  -32.4362   23.8051 C   0  0  1  0  0  0
  -26.8028  -26.3924   20.3503 C   0  0  0  0  0  0
  -25.6064  -33.8218   24.1902 N   0  0  0  0  0  0
  -23.5108  -30.4117   21.5107 C   0  0  2  0  0  0
  -24.9006  -28.7308   20.0959 C   0  0  0  0  0  0
  -22.7766  -29.4276   22.4648 C   0  0  0  0  0  0
  -18.0355  -28.1422   22.8477 C   0  0  0  0  0  0
  -24.1514  -36.7129   23.2650 C   0  0  0  0  0  0
  -26.0918  -30.4115   21.4616 C   0  0  0  0  0  0
  -26.0750  -28.9567   20.8181 C   0  0  0  0  0  0
  -27.0400  -27.8031   20.9132 C   0  0  0  0  0  0
  -25.7253  -26.4754   19.4589 C   0  0  0  0  0  0
  -24.7929  -27.5395   19.3677 C   0  0  0  0  0  0
  -23.7551  -29.7482   20.1258 C   0  0  0  0  0  0
  -25.4162  -36.2839   24.0258 C   0  0  1  0  0  0
  -20.5982  -28.3755   23.1145 C   0  0  2  0  0  0
  -20.6798  -26.9410   22.5397 C   0  0  0  0  0  0
  -19.5751  -26.6353   21.5245 C   0  0  0  0  0  0
  -18.1948  -26.7954   22.1657 C   0  0  0  0  0  0
  -19.1618  -28.8919   23.2801 C   0  0  0  0  0  0
  -18.9511  -30.1512   23.8817 C   0  0  0  0  0  0
  -17.6489  -30.6587   24.0538 C   0  0  0  0  0  0
  -25.9153  -34.9226   23.4929 C   0  0  0  0  0  0
  -16.5384  -29.9058   23.6343 C   0  0  0  0  0  0
  -16.7332  -28.6497   23.0350 C   0  0  0  0  0  0
  -26.4606  -31.6499   25.0760 C   0  0  0  0  0  0
  -25.3610  -31.3894   26.1345 C   0  0  0  0  0  0
  -27.0530  -30.2795   24.6835 C   0  0  0  0  0  0
  -27.6067  -32.4400   25.7519 C   0  0  0  0  0  0
  -27.5574  -37.1720   24.8452 C   0  0  0  0  0  0
  -21.4400  -29.3024   22.3449 N   0  0  0  0  0  0
  -26.4270  -37.3609   23.9410 N   0  0  0  0  0  0
  -24.7953  -30.9116   22.0907 N   0  0  0  0  0  0
  -23.4210  -28.7816   23.2955 O   0  0  0  0  0  0
  -27.3578  -24.9194   20.5577 O   0  0  0  0  0  0
  -26.5784  -34.8817   22.4539 O   0  0  0  0  0  0
  -23.5949  -32.1083   23.6413 O   0  0  0  0  0  0
  -24.0015  -13.3301   18.7502 C   0  0  0  0  0  0
  -26.7008  -11.9760   21.1770 C   0  0  0  0  0  0
  -25.2355  -11.6530   19.4353 C   0  0  0  0  0  0
  -24.1257  -15.3820   19.5981 C   0  0  0  0  0  0
  -27.0424  -14.1789   21.8036 C   0  0  0  0  0  0
  -25.6722  -15.8683   21.1144 C   0  0  0  0  0  0
  -21.5484  -17.3012   17.8329 C   0  0  0  0  0  0
  -21.7117  -17.9574   19.2044 C   0  0  0  0  0  0
  -22.4115  -16.0441   17.9558 C   0  0  0  0  0  0
  -23.1744  -17.6746   19.5489 C   0  0  0  0  0  0
  -25.2097  -10.3266   18.7015 C   0  0  0  0  0  0
  -26.7924  -21.1563   20.9277 C   0  0  0  0  0  0
  -25.9524  -19.2663   20.7559 C   0  0  0  0  0  0
  -26.6293  -23.1889   20.4999 C   0  0  0  0  0  0
  -23.4610  -16.4097   18.8999 N   0  0  0  0  0  0
  -28.6064  -14.6976   21.7727 N   0  0  0  0  0  0
  -26.1489  -17.5068   21.2256 N   0  0  0  0  0  0
  -31.6343  -13.3279   19.0526 H   0  0  0  0  0  0
  -31.2556  -11.7116   19.5456 H   0  0  0  0  0  0
  -30.2487  -11.7140   17.3706 H   0  0  0  0  0  0
  -29.9746  -13.4179   17.4172 H   0  0  0  0  0  0
  -28.1025  -11.2585   18.4322 H   0  0  0  0  0  0
  -27.7756  -12.6155   17.3789 H   0  0  0  0  0  0
  -28.5007  -14.0906   19.0953 H   0  0  0  0  0  0
  -29.1996  -11.3824   20.3453 H   0  0  0  0  0  0
  -28.8721  -12.3709   21.6520 H   0  0  0  0  0  0
  -25.1741   -9.8317   22.7405 H   0  0  0  0  0  0
  -24.1105   -7.6156   22.7213 H   0  0  0  0  0  0
  -21.1816   -9.0600   19.9337 H   0  0  0  0  0  0
  -22.2528  -11.2731   19.9519 H   0  0  0  0  0  0
  -21.2663   -7.6519   23.9635 H   0  0  0  0  0  0
  -21.1637   -6.0790   25.8859 H   0  0  0  0  0  0
  -22.0245   -2.7876   23.2568 H   0  0  0  0  0  0
  -22.5389  -12.4145   22.8877 H   0  0  0  0  0  0
  -21.0846  -13.2302   22.3962 H   0  0  0  0  0  0
  -25.9511  -15.8102   18.7673 H   0  0  0  0  0  0
  -27.0351  -14.6162   18.2723 H   0  0  0  0  0  0
  -26.7547  -32.4697   23.0724 H   0  0  0  0  0  0
  -25.0114  -33.9234   24.9996 H   0  0  0  0  0  0
  -22.8466  -31.2610   21.3410 H   0  0  0  0  0  0
  -23.3787  -35.9448   23.3203 H   0  0  0  0  0  0
  -24.3590  -36.8912   22.2089 H   0  0  0  0  0  0
  -23.7251  -37.6263   23.6806 H   0  0  0  0  0  0
  -26.3455  -31.1078   20.6606 H   0  0  0  0  0  0
  -26.9403  -30.4593   22.1313 H   0  0  0  0  0  0
  -27.9023  -27.9314   21.5544 H   0  0  0  0  0  0
  -25.4821  -25.5769   18.9088 H   0  0  0  0  0  0
  -23.9238  -27.3865   18.7448 H   0  0  0  0  0  0
  -23.9892  -30.5239   19.3961 H   0  0  0  0  0  0
  -22.8399  -29.2737   19.7649 H   0  0  0  0  0  0
  -25.1378  -36.1585   25.0737 H   0  0  0  0  0  0
  -21.0112  -28.3388   24.1260 H   0  0  0  0  0  0
  -20.5669  -26.2389   23.3665 H   0  0  0  0  0  0
  -21.6648  -26.7320   22.1204 H   0  0  0  0  0  0
  -19.6839  -25.6249   21.1317 H   0  0  0  0  0  0
  -19.6670  -27.3127   20.6753 H   0  0  0  0  0  0
  -17.4206  -26.6760   21.4052 H   0  0  0  0  0  0
  -18.0268  -26.0118   22.9068 H   0  0  0  0  0  0
  -19.7957  -30.7384   24.2142 H   0  0  0  0  0  0
  -17.4992  -31.6241   24.5173 H   0  0  0  0  0  0
  -15.5359  -30.2888   23.7690 H   0  0  0  0  0  0
  -15.8767  -28.0751   22.7079 H   0  0  0  0  0  0
  -24.5807  -30.7246   25.7622 H   0  0  0  0  0  0
  -24.8776  -32.3133   26.4526 H   0  0  0  0  0  0
  -25.7707  -30.9180   27.0286 H   0  0  0  0  0  0
  -26.3216  -29.6337   24.1962 H   0  0  0  0  0  0
  -27.3965  -29.7359   25.5646 H   0  0  0  0  0  0
  -27.9238  -30.3842   24.0370 H   0  0  0  0  0  0
  -27.2644  -33.3822   26.1808 H   0  0  0  0  0  0
  -28.3974  -32.6769   25.0389 H   0  0  0  0  0  0
  -28.0627  -31.8727   26.5641 H   0  0  0  0  0  0
  -28.2518  -38.0085   24.7525 H   0  0  0  0  0  0
  -28.1149  -36.2598   24.6252 H   0  0  0  0  0  0
  -27.2296  -37.1318   25.8854 H   0  0  0  0  0  0
  -20.9687  -29.8787   21.6602 H   0  0  0  0  0  0
  -26.0088  -38.2655   24.1410 H   0  0  0  0  0  0
  -23.3374  -13.1657   17.9134 H   0  0  0  0  0  0
  -27.2666  -11.1219   21.5241 H   0  0  0  0  0  0
  -21.9494  -17.9591   17.0600 H   0  0  0  0  0  0
  -20.5094  -17.0852   17.5766 H   0  0  0  0  0  0
  -21.0647  -17.4527   19.9233 H   0  0  0  0  0  0
  -21.4668  -19.0195   19.2078 H   0  0  0  0  0  0
  -22.8106  -15.7308   16.9916 H   0  0  0  0  0  0
  -21.8089  -15.2195   18.3381 H   0  0  0  0  0  0
  -23.3499  -17.6610   20.6250 H   0  0  0  0  0  0
  -23.8144  -18.4361   19.1010 H   0  0  0  0  0  0
  -24.2094  -10.0951   18.3332 H   0  0  0  0  0  0
  -25.5368   -9.5282   19.3696 H   0  0  0  0  0  0
  -25.8849  -10.3560   17.8463 H   0  0  0  0  0  0
  -27.7971  -20.9533   20.5563 H   0  0  0  0  0  0
  -26.9322  -21.2022   22.0059 H   0  0  0  0  0  0
  -25.8166  -19.1802   19.6774 H   0  0  0  0  0  0
  -24.9460  -19.4469   21.1338 H   0  0  0  0  0  0
  -25.6719  -23.4123   20.9695 H   0  0  0  0  0  0
  -26.3916  -23.1472   19.4362 H   0  0  0  0  0  0
  -28.6665  -15.6261   22.1625 H   0  0  0  0  0  0
  -26.9510  -17.4891   21.8466 H   0  0  0  0  0  0
  1 25  1  0  0  0
  1 30  2  0  0  0
  1 86  1  0  0  0
  2  3  1  0  0  0
  2 25  1  0  0  0
  2 88  1  0  0  0
  2 89  1  0  0  0
  3  4  1  0  0  0
  3 90  1  0  0  0
  3 91  1  0  0  0
  4  5  1  0  0  0
  4 92  1  0  0  0
  4 93  1  0  0  0
  5  6  1  0  0  0
  5 26  1  0  0  0
  5 94  1  0  0  0
  6 25  1  0  0  0
  6 95  1  0  0  0
  6 96  1  0  0  0
  7  8  2  0  0  0
  7 26  1  0  0  0
  7 29  1  0  0  0
  8  9  1  0  0  0
  8 22  1  0  0  0
  9 10  1  0  0  0
  9 27  2  0  0  0
 10 11  2  0  0  0
 10 15  1  0  0  0
 11 12  1  0  0  0
 11 97  1  0  0  0
 12 13  2  0  0  0
 12 98  1  0  0  0
 13 14  1  0  0  0
 13 31  1  0  0  0
 14 15  2  0  0  0
 14 99  1  0  0  0
 15100  1  0  0  0
 16 17  2  0  0  0
 16 21  1  0  0  0
 16 31  1  0  0  0
 17 18  1  0  0  0
 17101  1  0  0  0
 18 19  2  0  0  0
 18102  1  0  0  0
 19 20  1  0  0  0
 19 24  1  0  0  0
 20 21  2  0  0  0
 20103  1  0  0  0
 21 23  1  0  0  0
 22 28  1  0  0  0
 22 32  2  0  0  0
 26 27  1  0  0  0
 28104  1  0  0  0
 28105  1  0  0  0
 29106  1  0  0  0
 29107  1  0  0  0
 33 34  1  0  0  0
 33 66  1  0  0  0
 33 70  2  0  0  0
 34 36  1  0  0  0
 34 59  1  0  0  0
 34108  1  0  0  0
 35 44  2  0  0  0
 35 45  1  0  0  0
 35 68  1  0  0  0
 36 56  1  0  0  0
 36109  1  0  0  0
 37 39  1  0  0  0
 37 47  1  0  0  0
 37 66  1  0  0  0
 37110  1  0  0  0
 38 43  2  0  0  0
 38 46  1  0  0  0
 38 47  1  0  0  0
 39 64  1  0  0  0
 39 67  2  0  0  0
 40 52  1  0  0  0
 40 53  2  0  0  0
 40 58  1  0  0  0
 41111  1  0  0  0
 41112  1  0  0  0
 41113  1  0  0  0
 41 48  1  0  0  0
 42 43  1  0  0  0
 42 66  1  0  0  0
 42114  1  0  0  0
 42115  1  0  0  0
 43 44  1  0  0  0
 44116  1  0  0  0
 45 46  2  0  0  0
 45117  1  0  0  0
 46118  1  0  0  0
 47119  1  0  0  0
 47120  1  0  0  0
 48 56  1  0  0  0
 48 65  1  0  0  0
 48121  1  0  0  0
 49 50  1  0  0  0
 49 53  1  0  0  0
 49 64  1  0  0  0
 49122  1  0  0  0
 50 51  1  0  0  0
 50123  1  0  0  0
 50124  1  0  0  0
 51 52  1  0  0  0
 51125  1  0  0  0
 51126  1  0  0  0
 52127  1  0  0  0
 52128  1  0  0  0
 53 54  1  0  0  0
 54 55  2  0  0  0
 54129  1  0  0  0
 55 57  1  0  0  0
 55130  1  0  0  0
 56 69  2  0  0  0
 57 58  2  0  0  0
 57131  1  0  0  0
 58132  1  0  0  0
 59 60  1  0  0  0
 59 61  1  0  0  0
 59 62  1  0  0  0
 60133  1  0  0  0
 60134  1  0  0  0
 60135  1  0  0  0
 61136  1  0  0  0
 61137  1  0  0  0
 61138  1  0  0  0
 62139  1  0  0  0
 62140  1  0  0  0
 62141  1  0  0  0
 63 65  1  0  0  0
 63142  1  0  0  0
 63143  1  0  0  0
 63144  1  0  0  0
 64145  1  0  0  0
 65146  1  0  0  0
 68 84  1  0  0  0
 71 73  2  0  0  0
 71 74  1  0  0  0
 71147  1  0  0  0
 72 73  1  0  0  0
 72 75  2  0  0  0
 72148  1  0  0  0
 73 81  1  0  0  0
 74 76  2  0  0  0
 74 85  1  0  0  0
 75 76  1  0  0  0
 75 86  1  0  0  0
 76 87  1  0  0  0
 77 78  1  0  0  0
 77 79  1  0  0  0
 77149  1  0  0  0
 77150  1  0  0  0
 78 80  1  0  0  0
 78151  1  0  0  0
 78152  1  0  0  0
 79 85  1  0  0  0
 79153  1  0  0  0
 79154  1  0  0  0
 80 85  1  0  0  0
 80155  1  0  0  0
 80156  1  0  0  0
 81157  1  0  0  0
 81158  1  0  0  0
 81159  1  0  0  0
 82 83  1  0  0  0
 82 84  1  0  0  0
 82160  1  0  0  0
 82161  1  0  0  0
 83 87  1  0  0  0
 83162  1  0  0  0
 83163  1  0  0  0
 84164  1  0  0  0
 84165  1  0  0  0
 86166  1  0  0  0
 87167  1  0  0  0
M  ISO  4   1 100  68 101  84 101  86 100
M  END
> <chiral flag>
0

> <version>
0

> <s_m_source_file>
/data/baiqing/PycharmProjects/Reinvent-master-3.2/result/LINK_invent/BTK/process_docking_weight1_custom_product_contain_oxygen_bond_distance_aromatic_linkinvent_7_9_3/rearranged_h_0029.sdf

> <i_m_source_file_index>
36

> <r_mmod_Potential_Energy-OPLS-2005>
21451.0859375

> <r_mmod_Stretch_Energy-OPLS-2005>
11969.8203125

> <r_mmod_Bend_Energy-OPLS-2005>
2650.43481445312

> <r_mmod_Torsional_Energy-OPLS-2005>
571.316040039062

> <r_mmod_Improper_Torsional_Energy-OPLS-2005>
90.1196899414062

> <r_mmod_Van_der_Waal_Energy-OPLS-2005>
4408.46435546875

> <r_mmod_Electrostatic_Energy-OPLS-2005>
-379.558319091797

> <r_mmod_Solvation_Energy-OPLS-2005>
-243.06867980957

> <b_mmod_Minimization_Converged-OPLS-2005>
0

> <r_mmod_RMS_Derivative-OPLS-2005>
7.07602071762085

$$$$
36
                    3D
 Structure written by MMmdl.
158167  0  0  1  0            999 V2000
  -30.4753  -15.4231   21.5273 C   0  0  0  0  0  0
  -29.7991  -14.9919   17.6989 C   0  0  0  0  0  0
  -28.6185  -13.6183   17.2124 C   0  0  0  0  0  0
  -27.8974  -12.4506   18.3407 C   0  0  0  0  0  0
  -27.7447  -12.6734   20.0446 C   0  0  2  0  0  0
  -29.1082  -13.2926   21.1758 C   0  0  0  0  0  0
  -25.2832  -13.6564   20.6136 C   0  0  0  0  0  0
  -24.1758  -12.9565   20.9756 C   0  0  0  0  0  0
  -24.5979  -11.6012   20.9621 C   0  0  0  0  0  0
  -23.8531  -10.3752   21.0876 C   0  0  0  0  0  0
  -24.3171   -9.3668   21.9526 C   0  0  0  0  0  0
  -23.5922   -8.1730   22.0842 C   0  0  0  0  0  0
  -22.3966   -7.9940   21.3514 C   0  0  0  0  0  0
  -21.9598   -8.9950   20.4657 C   0  0  0  0  0  0
  -22.6894  -10.1824   20.3246 C   0  0  0  0  0  0
  -21.6653   -6.0544   22.5277 C   0  0  0  0  0  0
  -21.3870   -6.5514   23.8196 C   0  0  0  0  0  0
  -21.3614   -5.6719   24.9196 C   0  0  0  0  0  0
  -21.6039   -4.2984   24.7271 C   0  0  0  0  0  0
  -21.8847   -3.8038   23.4415 C   0  0  0  0  0  0
  -21.9124   -4.6806   22.3436 C   0  0  0  0  0  0
  -22.7844  -13.4876   21.1887 C   0  0  0  0  0  0
  -22.1615   -4.1995   21.1017 F   0  0  0  0  0  0
  -21.5662   -3.4506   25.7809 F   0  0  0  0  0  0
  -30.1779  -14.7003   20.6415 N   0  0  0  0  0  0
  -26.3580  -12.6974   20.5642 N   0  0  0  0  0  0
  -25.8900  -11.4719   20.7537 N   0  0  0  0  0  0
  -22.0182  -12.8196   22.0433 N   0  0  0  0  0  0
  -25.3587  -14.9989   20.2477 N   0  0  0  0  0  0
  -31.6841  -15.5735   21.6727 O   0  0  0  0  0  0
  -21.6325   -6.8595   21.4205 O   0  0  0  0  0  0
  -22.3866  -14.5231   20.6537 O   0  0  0  0  0  0
  -24.7057  -31.7768   23.1327 C   0  0  0  0  0  0
  -25.9526  -32.4367   23.7964 C   0  0  1  0  0  0
  -27.2903  -26.5737   20.1015 C   0  0  0  0  0  0
  -25.6007  -33.8197   24.1839 N   0  0  0  0  0  0
  -23.5396  -30.3687   21.4957 C   0  0  2  0  0  0
  -24.9950  -28.6731   20.1199 C   0  0  0  0  0  0
  -22.7885  -29.4181   22.4694 C   0  0  0  0  0  0
  -18.0355  -28.1436   22.8445 C   0  0  0  0  0  0
  -24.1485  -36.7113   23.2661 C   0  0  0  0  0  0
  -26.1306  -30.4578   21.4129 C   0  0  0  0  0  0
  -26.2000  -29.0095   20.7476 C   0  0  0  0  0  0
  -27.3225  -27.9951   20.6952 C   0  0  0  0  0  0
  -26.0180  -26.4700   19.4711 C   0  0  0  0  0  0
  -24.9465  -27.4271   19.4686 C   0  0  0  0  0  0
  -23.7973  -29.6456   20.1419 C   0  0  0  0  0  0
  -25.4149  -36.2849   24.0276 C   0  0  1  0  0  0
  -20.6002  -28.3799   23.1116 C   0  0  2  0  0  0
  -20.6812  -26.9441   22.5410 C   0  0  0  0  0  0
  -19.5785  -26.6367   21.5225 C   0  0  0  0  0  0
  -18.1968  -26.7961   22.1622 C   0  0  0  0  0  0
  -19.1626  -28.8951   23.2747 C   0  0  0  0  0  0
  -18.9521  -30.1530   23.8802 C   0  0  0  0  0  0
  -17.6505  -30.6610   24.0547 C   0  0  0  0  0  0
  -25.9146  -34.9238   23.4917 C   0  0  0  0  0  0
  -16.5395  -29.9085   23.6352 C   0  0  0  0  0  0
  -16.7333  -28.6511   23.0368 C   0  0  0  0  0  0
  -26.4621  -31.6489   25.0678 C   0  0  0  0  0  0
  -25.3626  -31.3845   26.1252 C   0  0  0  0  0  0
  -27.0580  -30.2815   24.6701 C   0  0  0  0  0  0
  -27.6039  -32.4394   25.7512 C   0  0  0  0  0  0
  -27.5561  -37.1714   24.8467 C   0  0  0  0  0  0
  -21.4516  -29.3004   22.3441 N   0  0  0  0  0  0
  -26.4261  -37.3634   23.9417 N   0  0  0  0  0  0
  -24.8184  -30.9041   22.0662 N   0  0  0  0  0  0
  -23.4237  -28.7804   23.3122 O   0  0  0  0  0  0
  -28.3259  -25.3564   19.9794 O   0  0  0  0  0  0
  -26.5813  -34.8854   22.4552 O   0  0  0  0  0  0
  -23.6034  -32.0893   23.6184 O   0  0  0  0  0  0
  -31.6345  -14.3344   18.9022 C   0  0  0  0  0  0
  -31.4893  -16.0956   18.9988 C   0  0  0  0  0  0
  -30.1417  -13.3320   19.0125 C   0  0  0  0  0  0
  -28.8015  -16.5088   19.2806 C   0  0  0  0  0  0
  -30.1892  -17.2100   19.1774 C   0  0  0  0  0  0
  -28.4292  -14.9244   19.3979 C   0  0  0  0  0  0
  -30.2282  -19.0473   19.2472 C   0  0  0  0  0  0
  -27.4334  -22.3530   19.6496 C   0  0  0  0  0  0
  -27.9400  -20.7567   19.8264 C   0  0  0  0  0  0
  -29.6482  -22.1221   19.5346 C   0  0  0  0  0  0
  -28.4793  -23.5100   20.0066 C   0  0  2  0  0  0
  -28.0029  -15.5781   20.9391 C   0  0  0  0  0  0
  -29.3839  -20.4071   19.5018 N   0  0  0  0  0  0
  -29.2551  -15.9625   21.8356 N   0  0  0  0  0  0
  -31.3921  -19.3678   19.0014 O   0  0  0  0  0  0
  -29.4109  -15.8876   17.1952 H   0  0  0  0  0  0
  -30.6150  -14.8654   16.9671 H   0  0  0  0  0  0
  -29.0545  -13.0653   16.3796 H   0  0  0  0  0  0
  -27.7707  -14.1356   16.7598 H   0  0  0  0  0  0
  -28.4239  -11.5043   18.2097 H   0  0  0  0  0  0
  -26.9268  -12.1696   17.9162 H   0  0  0  0  0  0
  -27.1185  -13.3191   19.4771 H   0  0  0  0  0  0
  -29.7834  -12.4480   21.3272 H   0  0  0  0  0  0
  -28.7345  -13.4167   22.1956 H   0  0  0  0  0  0
  -25.2265   -9.5081   22.5198 H   0  0  0  0  0  0
  -23.9587   -7.4043   22.7495 H   0  0  0  0  0  0
  -21.0560   -8.8500   19.8908 H   0  0  0  0  0  0
  -22.3481  -10.9450   19.6386 H   0  0  0  0  0  0
  -21.1814   -7.6023   23.9633 H   0  0  0  0  0  0
  -21.1436   -6.0489   25.9085 H   0  0  0  0  0  0
  -22.0697   -2.7505   23.2975 H   0  0  0  0  0  0
  -22.3531  -11.9846   22.5008 H   0  0  0  0  0  0
  -21.0861  -13.1510   22.2452 H   0  0  0  0  0  0
  -24.5080  -15.5397   20.1317 H   0  0  0  0  0  0
  -26.1062  -15.3044   19.6371 H   0  0  0  0  0  0
  -26.7641  -32.4776   23.0701 H   0  0  0  0  0  0
  -25.0034  -33.9180   24.9915 H   0  0  0  0  0  0
  -22.8758  -31.2105   21.2891 H   0  0  0  0  0  0
  -23.3787  -35.9397   23.3251 H   0  0  0  0  0  0
  -24.3543  -36.8862   22.2088 H   0  0  0  0  0  0
  -23.7189  -37.6247   23.6793 H   0  0  0  0  0  0
  -26.3527  -31.1783   20.6248 H   0  0  0  0  0  0
  -26.9750  -30.5235   22.0873 H   0  0  0  0  0  0
  -28.2448  -28.2791   21.1811 H   0  0  0  0  0  0
  -25.8235  -25.5454   18.9468 H   0  0  0  0  0  0
  -24.0365  -27.1574   18.9498 H   0  0  0  0  0  0
  -23.9833  -30.3944   19.3714 H   0  0  0  0  0  0
  -22.8976  -29.1183   19.8209 H   0  0  0  0  0  0
  -25.1354  -36.1603   25.0765 H   0  0  0  0  0  0
  -21.0052  -28.3424   24.1255 H   0  0  0  0  0  0
  -20.5664  -26.2421   23.3684 H   0  0  0  0  0  0
  -21.6667  -26.7357   22.1228 H   0  0  0  0  0  0
  -19.6928  -25.6251   21.1314 H   0  0  0  0  0  0
  -19.6733  -27.3129   20.6715 H   0  0  0  0  0  0
  -17.4238  -26.6710   21.4025 H   0  0  0  0  0  0
  -18.0342  -26.0131   22.9042 H   0  0  0  0  0  0
  -19.7990  -30.7377   24.2137 H   0  0  0  0  0  0
  -17.5046  -31.6281   24.5168 H   0  0  0  0  0  0
  -15.5387  -30.2951   23.7735 H   0  0  0  0  0  0
  -15.8738  -28.0798   22.7130 H   0  0  0  0  0  0
  -24.5848  -30.7170   25.7525 H   0  0  0  0  0  0
  -24.8771  -32.3071   26.4443 H   0  0  0  0  0  0
  -25.7743  -30.9146   27.0195 H   0  0  0  0  0  0
  -26.3320  -29.6391   24.1716 H   0  0  0  0  0  0
  -27.3963  -29.7330   25.5503 H   0  0  0  0  0  0
  -27.9313  -30.3920   24.0275 H   0  0  0  0  0  0
  -27.2568  -33.3791   26.1825 H   0  0  0  0  0  0
  -28.3983  -32.6818   25.0438 H   0  0  0  0  0  0
  -28.0571  -31.8711   26.5648 H   0  0  0  0  0  0
  -28.2533  -38.0054   24.7544 H   0  0  0  0  0  0
  -28.1101  -36.2578   24.6257 H   0  0  0  0  0  0
  -27.2280  -37.1305   25.8869 H   0  0  0  0  0  0
  -20.9892  -29.8636   21.6443 H   0  0  0  0  0  0
  -26.0083  -38.2676   24.1447 H   0  0  0  0  0  0
  -32.6023  -13.8648   18.7883 H   0  0  0  0  0  0
  -32.4429  -16.5980   18.9330 H   0  0  0  0  0  0
  -30.1795  -12.2510   19.0611 H   0  0  0  0  0  0
  -27.9984  -17.2373   19.2973 H   0  0  0  0  0  0
  -26.5272  -22.4952   20.2373 H   0  0  0  0  0  0
  -27.1250  -22.4937   18.6130 H   0  0  0  0  0  0
  -27.2764  -20.0943   19.2708 H   0  0  0  0  0  0
  -27.8023  -20.4880   20.8755 H   0  0  0  0  0  0
  -30.5664  -22.2736   20.1010 H   0  0  0  0  0  0
  -29.9399  -22.3407   18.5068 H   0  0  0  0  0  0
  -28.5440  -23.4447   21.0943 H   0  0  0  0  0  0
  -27.4121  -14.9091   21.5560 H   0  0  0  0  0  0
  -27.3059  -16.4240   20.9726 H   0  0  0  0  0  0
  -29.1825  -16.7246   22.4947 H   0  0  0  0  0  0
  1 25  1  0  0  0
  1 30  2  0  0  0
  1 84  1  0  0  0
  2  3  1  0  0  0
  2 25  1  0  0  0
  2 86  1  0  0  0
  2 87  1  0  0  0
  3  4  1  0  0  0
  3 88  1  0  0  0
  3 89  1  0  0  0
  4  5  1  0  0  0
  4 90  1  0  0  0
  4 91  1  0  0  0
  5  6  1  0  0  0
  5 26  1  0  0  0
  5 92  1  0  0  0
  6 25  1  0  0  0
  6 93  1  0  0  0
  6 94  1  0  0  0
  7  8  2  0  0  0
  7 26  1  0  0  0
  7 29  1  0  0  0
  8  9  1  0  0  0
  8 22  1  0  0  0
  9 10  1  0  0  0
  9 27  2  0  0  0
 10 11  2  0  0  0
 10 15  1  0  0  0
 11 12  1  0  0  0
 11 95  1  0  0  0
 12 13  2  0  0  0
 12 96  1  0  0  0
 13 14  1  0  0  0
 13 31  1  0  0  0
 14 15  2  0  0  0
 14 97  1  0  0  0
 15 98  1  0  0  0
 16 17  2  0  0  0
 16 21  1  0  0  0
 16 31  1  0  0  0
 17 18  1  0  0  0
 17 99  1  0  0  0
 18 19  2  0  0  0
 18100  1  0  0  0
 19 20  1  0  0  0
 19 24  1  0  0  0
 20 21  2  0  0  0
 20101  1  0  0  0
 21 23  1  0  0  0
 22 28  1  0  0  0
 22 32  2  0  0  0
 26 27  1  0  0  0
 28102  1  0  0  0
 28103  1  0  0  0
 29104  1  0  0  0
 29105  1  0  0  0
 33 34  1  0  0  0
 33 66  1  0  0  0
 33 70  2  0  0  0
 34 36  1  0  0  0
 34 59  1  0  0  0
 34106  1  0  0  0
 35 44  2  0  0  0
 35 45  1  0  0  0
 35 68  1  0  0  0
 36 56  1  0  0  0
 36107  1  0  0  0
 37 39  1  0  0  0
 37 47  1  0  0  0
 37 66  1  0  0  0
 37108  1  0  0  0
 38 43  2  0  0  0
 38 46  1  0  0  0
 38 47  1  0  0  0
 39 64  1  0  0  0
 39 67  2  0  0  0
 40 52  1  0  0  0
 40 53  2  0  0  0
 40 58  1  0  0  0
 41109  1  0  0  0
 41110  1  0  0  0
 41111  1  0  0  0
 41 48  1  0  0  0
 42 43  1  0  0  0
 42 66  1  0  0  0
 42112  1  0  0  0
 42113  1  0  0  0
 43 44  1  0  0  0
 44114  1  0  0  0
 45 46  2  0  0  0
 45115  1  0  0  0
 46116  1  0  0  0
 47117  1  0  0  0
 47118  1  0  0  0
 48 56  1  0  0  0
 48 65  1  0  0  0
 48119  1  0  0  0
 49 50  1  0  0  0
 49 53  1  0  0  0
 49 64  1  0  0  0
 49120  1  0  0  0
 50 51  1  0  0  0
 50121  1  0  0  0
 50122  1  0  0  0
 51 52  1  0  0  0
 51123  1  0  0  0
 51124  1  0  0  0
 52125  1  0  0  0
 52126  1  0  0  0
 53 54  1  0  0  0
 54 55  2  0  0  0
 54127  1  0  0  0
 55 57  1  0  0  0
 55128  1  0  0  0
 56 69  2  0  0  0
 57 58  2  0  0  0
 57129  1  0  0  0
 58130  1  0  0  0
 59 60  1  0  0  0
 59 61  1  0  0  0
 59 62  1  0  0  0
 60131  1  0  0  0
 60132  1  0  0  0
 60133  1  0  0  0
 61134  1  0  0  0
 61135  1  0  0  0
 61136  1  0  0  0
 62137  1  0  0  0
 62138  1  0  0  0
 62139  1  0  0  0
 63 65  1  0  0  0
 63140  1  0  0  0
 63141  1  0  0  0
 63142  1  0  0  0
 64143  1  0  0  0
 65144  1  0  0  0
 68 81  1  0  0  0
 71 72  2  0  0  0
 71 73  1  0  0  0
 71145  1  0  0  0
 72 75  1  0  0  0
 72146  1  0  0  0
 73 76  2  0  0  0
 73147  1  0  0  0
 74 75  2  0  0  0
 74 76  1  0  0  0
 74148  1  0  0  0
 75 77  1  0  0  0
 76 82  1  0  0  0
 77 83  1  0  0  0
 77 85  2  0  0  0
 78 79  1  0  0  0
 78 81  1  0  0  0
 78149  1  0  0  0
 78150  1  0  0  0
 79 83  1  0  0  0
 79151  1  0  0  0
 79152  1  0  0  0
 80 81  1  0  0  0
 80 83  1  0  0  0
 80153  1  0  0  0
 80154  1  0  0  0
 81155  1  0  0  0
 82 84  1  0  0  0
 82156  1  0  0  0
 82157  1  0  0  0
 84158  1  0  0  0
M  ISO  4   1 100  68 101  81 101  84 100
M  END
> <chiral flag>
0

> <version>
0

> <s_m_source_file>
/data/baiqing/PycharmProjects/Reinvent-master-3.2/result/LINK_invent/BTK/process_docking_weight1_custom_product_contain_oxygen_bond_distance_aromatic_linkinvent_7_9_3/rearranged_h_0029.sdf

> <i_m_source_file_index>
37

> <r_mmod_Potential_Energy-OPLS-2005>
15337.833984375

> <r_mmod_Stretch_Energy-OPLS-2005>
8002.5888671875

> <r_mmod_Bend_Energy-OPLS-2005>
1421.30737304688

> <r_mmod_Torsional_Energy-OPLS-2005>
532.33056640625

> <r_mmod_Improper_Torsional_Energy-OPLS-2005>
43.8461303710938

> <r_mmod_Van_der_Waal_Energy-OPLS-2005>
3263.826171875

> <r_mmod_Electrostatic_Energy-OPLS-2005>
-380.490020751953

> <r_mmod_Solvation_Energy-OPLS-2005>
-248.956771850586

> <b_mmod_Minimization_Converged-OPLS-2005>
0

> <r_mmod_RMS_Derivative-OPLS-2005>
5.0693736076355

$$$$
37
                    3D
 Structure written by MMmdl.
166175  0  0  1  0            999 V2000
  -30.7083  -14.5813   20.4881 C   0  0  0  0  0  0
  -30.4144  -12.3572   19.4487 C   0  0  0  0  0  0
  -29.4962  -12.4935   18.2170 C   0  0  0  0  0  0
  -28.0193  -12.3506   18.6337 C   0  0  0  0  0  0
  -27.6470  -13.2308   19.8569 C   0  0  2  0  0  0
  -28.6968  -13.1209   20.9862 C   0  0  0  0  0  0
  -25.2465  -13.8141   20.5691 C   0  0  0  0  0  0
  -24.1781  -13.0382   20.9226 C   0  0  0  0  0  0
  -24.6400  -11.6884   20.8759 C   0  0  0  0  0  0
  -23.9069  -10.4262   21.0404 C   0  0  0  0  0  0
  -24.3615   -9.4177   21.9181 C   0  0  0  0  0  0
  -23.6294   -8.2209   22.0749 C   0  0  0  0  0  0
  -22.4274   -8.0260   21.3538 C   0  0  0  0  0  0
  -21.9903   -9.0231   20.4643 C   0  0  0  0  0  0
  -22.7238  -10.2107   20.3052 C   0  0  0  0  0  0
  -21.6839   -6.0727   22.5279 C   0  0  0  0  0  0
  -21.3998   -6.5630   23.8211 C   0  0  0  0  0  0
  -21.3662   -5.6783   24.9175 C   0  0  0  0  0  0
  -21.6056   -4.3046   24.7224 C   0  0  0  0  0  0
  -21.8828   -3.8137   23.4342 C   0  0  0  0  0  0
  -21.9183   -4.6958   22.3396 C   0  0  0  0  0  0
  -22.7803  -13.5163   21.1880 C   0  0  0  0  0  0
  -22.1643   -4.2144   21.0975 F   0  0  0  0  0  0
  -21.5649   -3.4529   25.7732 F   0  0  0  0  0  0
  -30.0111  -13.4092   20.4003 N   0  0  0  0  0  0
  -26.2954  -12.9404   20.3327 N   0  0  0  0  0  0
  -25.9344  -11.6542   20.5790 N   0  0  0  0  0  0
  -22.0437  -12.8180   22.0450 N   0  0  0  0  0  0
  -25.4020  -15.1841   20.4079 N   0  0  0  0  0  0
  -31.8992  -14.6389   20.1731 O   0  0  0  0  0  0
  -21.6626   -6.8865   21.4242 O   0  0  0  0  0  0
  -22.3496  -14.5467   20.6721 O   0  0  0  0  0  0
  -24.6219  -31.8635   23.2075 C   0  0  0  0  0  0
  -25.9095  -32.4798   23.8382 C   0  0  1  0  0  0
  -27.2192  -27.3634   20.1199 C   0  0  0  0  0  0
  -25.5927  -33.8596   24.2311 N   0  0  0  0  0  0
  -23.4142  -30.4893   21.5475 C   0  0  2  0  0  0
  -24.8618  -28.9532   20.1070 C   0  0  0  0  0  0
  -22.7464  -29.4644   22.4951 C   0  0  0  0  0  0
  -18.0282  -28.1384   22.8488 C   0  0  0  0  0  0
  -24.1484  -36.7296   23.2643 C   0  0  0  0  0  0
  -25.9518  -30.8083   21.3724 C   0  0  0  0  0  0
  -26.0283  -29.4400   20.7142 C   0  0  0  0  0  0
  -27.2148  -28.6559   20.7135 C   0  0  0  0  0  0
  -26.0429  -26.9250   19.4753 C   0  0  0  0  0  0
  -24.8680  -27.6990   19.4781 C   0  0  0  0  0  0
  -23.6274  -29.8284   20.1602 C   0  0  0  0  0  0
  -25.4110  -36.3095   24.0339 C   0  0  1  0  0  0
  -20.5882  -28.3679   23.1291 C   0  0  2  0  0  0
  -20.6770  -26.9407   22.5417 C   0  0  0  0  0  0
  -19.5750  -26.6383   21.5218 C   0  0  0  0  0  0
  -18.1927  -26.7933   22.1620 C   0  0  0  0  0  0
  -19.1538  -28.8853   23.2884 C   0  0  0  0  0  0
  -18.9464  -30.1453   23.8897 C   0  0  0  0  0  0
  -17.6466  -30.6585   24.0570 C   0  0  0  0  0  0
  -25.9047  -34.9460   23.5120 C   0  0  0  0  0  0
  -16.5353  -29.9086   23.6332 C   0  0  0  0  0  0
  -16.7272  -28.6507   23.0347 C   0  0  0  0  0  0
  -26.4494  -31.6593   25.0732 C   0  0  0  0  0  0
  -25.3745  -31.3720   26.1473 C   0  0  0  0  0  0
  -27.0330  -30.3020   24.6158 C   0  0  0  0  0  0
  -27.6068  -32.4320   25.7490 C   0  0  0  0  0  0
  -27.5582  -37.1801   24.8467 C   0  0  0  0  0  0
  -21.4183  -29.3037   22.3684 N   0  0  0  0  0  0
  -26.4293  -37.3785   23.9419 N   0  0  0  0  0  0
  -24.6810  -31.0692   22.0997 N   0  0  0  0  0  0
  -23.4210  -28.8189   23.3014 O   0  0  0  0  0  0
  -28.3051  -26.4946   20.1805 O   0  0  0  0  0  0
  -26.5608  -34.8924   22.4681 O   0  0  0  0  0  0
  -23.5394  -32.1409   23.7434 O   0  0  0  0  0  0
  -30.2241  -24.1082   20.3687 C   0  0  0  0  0  0
  -31.0508  -22.9804   20.2278 C   0  0  0  0  0  0
  -28.8440  -23.9606   20.5879 C   0  0  0  0  0  0
  -28.3080  -22.6210   20.6497 C   0  0  0  0  0  0
  -29.1481  -21.4458   20.5187 C   0  0  0  0  0  0
  -30.5389  -21.6694   20.3071 C   0  0  0  0  0  0
  -30.0910  -16.5643   21.7850 C   0  0  0  0  0  0
  -30.1679  -16.6618   19.3904 C   0  0  0  0  0  0
  -29.2418  -17.8858   21.8058 C   0  0  0  0  0  0
  -29.1895  -17.8706   19.3514 C   0  0  1  0  0  0
  -26.8018  -22.4700   20.8717 C   0  0  0  0  0  0
  -27.7493  -17.3565   19.1299 C   0  0  0  0  0  0
  -28.5144  -20.0041   20.5937 C   0  0  0  0  0  0
  -28.0048  -25.2440   20.8901 C   0  0  0  0  0  0
  -29.9925  -15.7527   20.5508 N   0  0  0  0  0  0
  -29.3440  -18.7288   20.5708 N   0  3  1  0  0  0
  -31.6898  -20.3883   20.1417 Cl  0  0  0  0  0  0
  -31.4611  -12.4372   19.1483 H   0  0  0  0  0  0
  -30.3087  -11.3715   19.9048 H   0  0  0  0  0  0
  -29.7490  -11.7382   17.4723 H   0  0  0  0  0  0
  -29.6545  -13.4627   17.7397 H   0  0  0  0  0  0
  -27.8501  -11.2998   18.8727 H   0  0  0  0  0  0
  -27.3632  -12.5806   17.7929 H   0  0  0  0  0  0
  -27.6573  -14.2631   19.5071 H   0  0  0  0  0  0
  -28.6932  -12.1232   21.4268 H   0  0  0  0  0  0
  -28.4663  -13.8190   21.7932 H   0  0  0  0  0  0
  -25.2754   -9.5654   22.4760 H   0  0  0  0  0  0
  -24.0000   -7.4584   22.7454 H   0  0  0  0  0  0
  -21.0834   -8.8739   19.8944 H   0  0  0  0  0  0
  -22.3688  -10.9635   19.6152 H   0  0  0  0  0  0
  -21.1976   -7.6137   23.9714 H   0  0  0  0  0  0
  -21.1477   -6.0507   25.9081 H   0  0  0  0  0  0
  -22.0611   -2.7601   23.2826 H   0  0  0  0  0  0
  -22.4041  -11.9853   22.4864 H   0  0  0  0  0  0
  -21.1045  -13.1206   22.2620 H   0  0  0  0  0  0
  -24.6210  -15.8234   20.5034 H   0  0  0  0  0  0
  -26.2353  -15.6196   20.0400 H   0  0  0  0  0  0
  -26.7166  -32.5488   23.1140 H   0  0  0  0  0  0
  -25.0094  -33.9742   25.0466 H   0  0  0  0  0  0
  -22.7065  -31.3096   21.4084 H   0  0  0  0  0  0
  -23.3750  -35.9625   23.3306 H   0  0  0  0  0  0
  -24.3577  -36.8907   22.2057 H   0  0  0  0  0  0
  -23.7227  -37.6499   23.6651 H   0  0  0  0  0  0
  -26.0806  -31.5744   20.6064 H   0  0  0  0  0  0
  -26.8339  -30.8534   21.9997 H   0  0  0  0  0  0
  -28.1075  -29.0204   21.2024 H   0  0  0  0  0  0
  -26.0225  -25.9589   18.9906 H   0  0  0  0  0  0
  -23.9768  -27.3213   18.9955 H   0  0  0  0  0  0
  -23.7454  -30.6079   19.4066 H   0  0  0  0  0  0
  -22.7481  -29.2579   19.8566 H   0  0  0  0  0  0
  -25.1286  -36.1948   25.0831 H   0  0  0  0  0  0
  -20.9988  -28.3250   24.1406 H   0  0  0  0  0  0
  -20.5655  -26.2302   23.3619 H   0  0  0  0  0  0
  -21.6636  -26.7422   22.1213 H   0  0  0  0  0  0
  -19.6906  -25.6294   21.1247 H   0  0  0  0  0  0
  -19.6696  -27.3196   20.6752 H   0  0  0  0  0  0
  -17.4206  -26.6693   21.4011 H   0  0  0  0  0  0
  -18.0311  -26.0064   22.9001 H   0  0  0  0  0  0
  -19.7943  -30.7268   24.2264 H   0  0  0  0  0  0
  -17.5020  -31.6262   24.5174 H   0  0  0  0  0  0
  -15.5354  -30.2991   23.7656 H   0  0  0  0  0  0
  -15.8669  -28.0832   22.7053 H   0  0  0  0  0  0
  -24.5931  -30.7044   25.7819 H   0  0  0  0  0  0
  -24.8919  -32.2877   26.4894 H   0  0  0  0  0  0
  -25.8087  -30.8918   27.0247 H   0  0  0  0  0  0
  -26.2885  -29.6774   24.1207 H   0  0  0  0  0  0
  -27.4068  -29.7272   25.4641 H   0  0  0  0  0  0
  -27.8738  -30.4320   23.9343 H   0  0  0  0  0  0
  -27.2684  -33.3612   26.2082 H   0  0  0  0  0  0
  -28.3858  -32.6889   25.0302 H   0  0  0  0  0  0
  -28.0753  -31.8437   26.5386 H   0  0  0  0  0  0
  -28.2603  -38.0095   24.7510 H   0  0  0  0  0  0
  -28.1069  -36.2625   24.6283 H   0  0  0  0  0  0
  -27.2304  -37.1438   25.8872 H   0  0  0  0  0  0
  -20.9365  -29.8770   21.6898 H   0  0  0  0  0  0
  -26.0174  -38.2860   24.1425 H   0  0  0  0  0  0
  -30.6612  -25.0960   20.3350 H   0  0  0  0  0  0
  -32.1102  -23.1231   20.0723 H   0  0  0  0  0  0
  -29.8031  -15.9484   22.6385 H   0  0  0  0  0  0
  -31.1411  -16.8195   21.9470 H   0  0  0  0  0  0
  -31.1929  -17.0377   19.3758 H   0  0  0  0  0  0
  -30.0536  -16.0895   18.4665 H   0  0  0  0  0  0
  -29.5385  -18.4830   22.6698 H   0  0  0  0  0  0
  -28.1955  -17.6288   21.9734 H   0  0  0  0  0  0
  -29.4603  -18.4805   18.4868 H   0  0  0  0  0  0
  -26.2526  -23.0338   20.1165 H   0  0  0  0  0  0
  -26.5243  -22.8560   21.8535 H   0  0  0  0  0  0
  -26.4196  -21.4555   20.8086 H   0  0  0  0  0  0
  -27.3971  -16.8026   19.9945 H   0  0  0  0  0  0
  -27.7108  -16.6833   18.2727 H   0  0  0  0  0  0
  -27.0315  -18.1497   18.9242 H   0  0  0  0  0  0
  -27.8012  -19.9719   19.7733 H   0  0  0  0  0  0
  -27.9109  -19.9737   21.5016 H   0  0  0  0  0  0
  -28.1665  -25.4590   21.9475 H   0  0  0  0  0  0
  -26.9470  -25.0040   20.8327 H   0  0  0  0  0  0
  -30.3004  -19.0645   20.5401 H   0  0  0  0  0  0
  1 25  1  0  0  0
  1 30  2  0  0  0
  1 85  1  0  0  0
  2  3  1  0  0  0
  2 25  1  0  0  0
  2 88  1  0  0  0
  2 89  1  0  0  0
  3  4  1  0  0  0
  3 90  1  0  0  0
  3 91  1  0  0  0
  4  5  1  0  0  0
  4 92  1  0  0  0
  4 93  1  0  0  0
  5  6  1  0  0  0
  5 26  1  0  0  0
  5 94  1  0  0  0
  6 25  1  0  0  0
  6 95  1  0  0  0
  6 96  1  0  0  0
  7  8  2  0  0  0
  7 26  1  0  0  0
  7 29  1  0  0  0
  8  9  1  0  0  0
  8 22  1  0  0  0
  9 10  1  0  0  0
  9 27  2  0  0  0
 10 11  2  0  0  0
 10 15  1  0  0  0
 11 12  1  0  0  0
 11 97  1  0  0  0
 12 13  2  0  0  0
 12 98  1  0  0  0
 13 14  1  0  0  0
 13 31  1  0  0  0
 14 15  2  0  0  0
 14 99  1  0  0  0
 15100  1  0  0  0
 16 17  2  0  0  0
 16 21  1  0  0  0
 16 31  1  0  0  0
 17 18  1  0  0  0
 17101  1  0  0  0
 18 19  2  0  0  0
 18102  1  0  0  0
 19 20  1  0  0  0
 19 24  1  0  0  0
 20 21  2  0  0  0
 20103  1  0  0  0
 21 23  1  0  0  0
 22 28  1  0  0  0
 22 32  2  0  0  0
 26 27  1  0  0  0
 28104  1  0  0  0
 28105  1  0  0  0
 29106  1  0  0  0
 29107  1  0  0  0
 33 34  1  0  0  0
 33 66  1  0  0  0
 33 70  2  0  0  0
 34 36  1  0  0  0
 34 59  1  0  0  0
 34108  1  0  0  0
 35 44  2  0  0  0
 35 45  1  0  0  0
 35 68  1  0  0  0
 36 56  1  0  0  0
 36109  1  0  0  0
 37 39  1  0  0  0
 37 47  1  0  0  0
 37 66  1  0  0  0
 37110  1  0  0  0
 38 43  2  0  0  0
 38 46  1  0  0  0
 38 47  1  0  0  0
 39 64  1  0  0  0
 39 67  2  0  0  0
 40 52  1  0  0  0
 40 53  2  0  0  0
 40 58  1  0  0  0
 41111  1  0  0  0
 41112  1  0  0  0
 41113  1  0  0  0
 41 48  1  0  0  0
 42 43  1  0  0  0
 42 66  1  0  0  0
 42114  1  0  0  0
 42115  1  0  0  0
 43 44  1  0  0  0
 44116  1  0  0  0
 45 46  2  0  0  0
 45117  1  0  0  0
 46118  1  0  0  0
 47119  1  0  0  0
 47120  1  0  0  0
 48 56  1  0  0  0
 48 65  1  0  0  0
 48121  1  0  0  0
 49 50  1  0  0  0
 49 53  1  0  0  0
 49 64  1  0  0  0
 49122  1  0  0  0
 50 51  1  0  0  0
 50123  1  0  0  0
 50124  1  0  0  0
 51 52  1  0  0  0
 51125  1  0  0  0
 51126  1  0  0  0
 52127  1  0  0  0
 52128  1  0  0  0
 53 54  1  0  0  0
 54 55  2  0  0  0
 54129  1  0  0  0
 55 57  1  0  0  0
 55130  1  0  0  0
 56 69  2  0  0  0
 57 58  2  0  0  0
 57131  1  0  0  0
 58132  1  0  0  0
 59 60  1  0  0  0
 59 61  1  0  0  0
 59 62  1  0  0  0
 60133  1  0  0  0
 60134  1  0  0  0
 60135  1  0  0  0
 61136  1  0  0  0
 61137  1  0  0  0
 61138  1  0  0  0
 62139  1  0  0  0
 62140  1  0  0  0
 62141  1  0  0  0
 63 65  1  0  0  0
 63142  1  0  0  0
 63143  1  0  0  0
 63144  1  0  0  0
 64145  1  0  0  0
 65146  1  0  0  0
 68 84  1  0  0  0
 71 72  2  0  0  0
 71 73  1  0  0  0
 71147  1  0  0  0
 72 76  1  0  0  0
 72148  1  0  0  0
 73 74  2  0  0  0
 73 84  1  0  0  0
 74 75  1  0  0  0
 74 81  1  0  0  0
 75 76  2  0  0  0
 75 83  1  0  0  0
 76 87  1  0  0  0
 77 79  1  0  0  0
 77 85  1  0  0  0
 77149  1  0  0  0
 77150  1  0  0  0
 78 80  1  0  0  0
 78 85  1  0  0  0
 78151  1  0  0  0
 78152  1  0  0  0
 79 86  1  0  0  0
 79153  1  0  0  0
 79154  1  0  0  0
 80 82  1  0  0  0
 80 86  1  0  0  0
 80155  1  0  0  0
 81156  1  0  0  0
 81157  1  0  0  0
 81158  1  0  0  0
 82159  1  0  0  0
 82160  1  0  0  0
 82161  1  0  0  0
 83162  1  0  0  0
 83163  1  0  0  0
 83 86  1  0  0  0
 84164  1  0  0  0
 84165  1  0  0  0
 86166  1  0  0  0
M  CHG  1  86   1
M  ISO  4   1 100  68 101  84 101  85 100
M  END
> <chiral flag>
0

> <version>
0

> <s_m_source_file>
/data/baiqing/PycharmProjects/Reinvent-master-3.2/result/LINK_invent/BTK/process_docking_weight1_custom_product_contain_oxygen_bond_distance_aromatic_linkinvent_7_9_3/rearranged_h_0029.sdf

> <i_m_source_file_index>
38

> <r_mmod_Potential_Energy-OPLS-2005>
205.911819458008

> <r_mmod_Stretch_Energy-OPLS-2005>
74.0676498413086

> <r_mmod_Bend_Energy-OPLS-2005>
143.479858398438

> <r_mmod_Torsional_Energy-OPLS-2005>
424.800170898438

> <r_mmod_Improper_Torsional_Energy-OPLS-2005>
15.8584909439087

> <r_mmod_Van_der_Waal_Energy-OPLS-2005>
163.439331054688

> <r_mmod_Electrostatic_Energy-OPLS-2005>
-240.140960693359

> <r_mmod_Solvation_Energy-OPLS-2005>
-417.260864257812

> <b_mmod_Minimization_Converged-OPLS-2005>
0

> <r_mmod_RMS_Derivative-OPLS-2005>
1.7426061630249

$$$$
38
                    3D
 Structure written by MMmdl.
161170  0  0  1  0            999 V2000
  -30.6104  -14.7785   20.4288 C   0  0  0  0  0  0
  -30.4368  -12.4758   19.4475 C   0  0  0  0  0  0
  -29.4997  -12.5049   18.2206 C   0  0  0  0  0  0
  -28.0297  -12.3191   18.6499 C   0  0  0  0  0  0
  -27.6354  -13.2336   19.8389 C   0  0  2  0  0  0
  -28.6942  -13.2050   20.9636 C   0  0  0  0  0  0
  -25.2523  -13.8176   20.5778 C   0  0  0  0  0  0
  -24.1806  -13.0432   20.9235 C   0  0  0  0  0  0
  -24.6403  -11.6900   20.8771 C   0  0  0  0  0  0
  -23.9086  -10.4284   21.0409 C   0  0  0  0  0  0
  -24.3637   -9.4194   21.9177 C   0  0  0  0  0  0
  -23.6304   -8.2241   22.0749 C   0  0  0  0  0  0
  -22.4287   -8.0282   21.3548 C   0  0  0  0  0  0
  -21.9931   -9.0256   20.4643 C   0  0  0  0  0  0
  -22.7259  -10.2130   20.3057 C   0  0  0  0  0  0
  -21.6853   -6.0739   22.5282 C   0  0  0  0  0  0
  -21.4005   -6.5642   23.8218 C   0  0  0  0  0  0
  -21.3667   -5.6799   24.9190 C   0  0  0  0  0  0
  -21.6050   -4.3069   24.7230 C   0  0  0  0  0  0
  -21.8813   -3.8144   23.4356 C   0  0  0  0  0  0
  -21.9195   -4.6961   22.3411 C   0  0  0  0  0  0
  -22.7827  -13.5217   21.1904 C   0  0  0  0  0  0
  -22.1669   -4.2155   21.0988 F   0  0  0  0  0  0
  -21.5631   -3.4550   25.7744 F   0  0  0  0  0  0
  -29.9854  -13.5523   20.3550 N   0  0  0  0  0  0
  -26.2950  -12.9393   20.3316 N   0  0  0  0  0  0
  -25.9337  -11.6540   20.5774 N   0  0  0  0  0  0
  -22.0460  -12.8241   22.0450 N   0  0  0  0  0  0
  -25.4232  -15.1925   20.4255 N   0  0  0  0  0  0
  -31.8286  -14.8642   20.2505 O   0  0  0  0  0  0
  -21.6642   -6.8888   21.4247 O   0  0  0  0  0  0
  -22.3521  -14.5540   20.6753 O   0  0  0  0  0  0
  -24.6311  -31.8574   23.1995 C   0  0  0  0  0  0
  -25.9135  -32.4739   23.8368 C   0  0  1  0  0  0
  -27.2284  -27.2532   20.1140 C   0  0  0  0  0  0
  -25.5939  -33.8540   24.2288 N   0  0  0  0  0  0
  -23.4276  -30.4788   21.5475 C   0  0  2  0  0  0
  -24.8749  -28.9256   20.1179 C   0  0  0  0  0  0
  -22.7487  -29.4634   22.5000 C   0  0  0  0  0  0
  -18.0286  -28.1345   22.8500 C   0  0  0  0  0  0
  -24.1477  -36.7209   23.2651 C   0  0  0  0  0  0
  -25.9777  -30.7654   21.3828 C   0  0  0  0  0  0
  -26.0526  -29.3891   20.7182 C   0  0  0  0  0  0
  -27.2316  -28.5695   20.7000 C   0  0  0  0  0  0
  -26.0048  -26.8527   19.5282 C   0  0  0  0  0  0
  -24.8573  -27.6638   19.5106 C   0  0  0  0  0  0
  -23.6426  -29.8064   20.1671 C   0  0  0  0  0  0
  -25.4111  -36.3034   24.0338 C   0  0  1  0  0  0
  -20.5881  -28.3671   23.1269 C   0  0  2  0  0  0
  -20.6736  -26.9393   22.5396 C   0  0  0  0  0  0
  -19.5727  -26.6379   21.5173 C   0  0  0  0  0  0
  -18.1920  -26.7901   22.1617 C   0  0  0  0  0  0
  -19.1535  -28.8828   23.2880 C   0  0  0  0  0  0
  -18.9476  -30.1425   23.8906 C   0  0  0  0  0  0
  -17.6481  -30.6572   24.0545 C   0  0  0  0  0  0
  -25.9067  -34.9419   23.5117 C   0  0  0  0  0  0
  -16.5368  -29.9064   23.6314 C   0  0  0  0  0  0
  -16.7280  -28.6449   23.0397 C   0  0  0  0  0  0
  -26.4532  -31.6538   25.0736 C   0  0  0  0  0  0
  -25.3778  -31.3653   26.1459 C   0  0  0  0  0  0
  -27.0350  -30.2948   24.6192 C   0  0  0  0  0  0
  -27.6094  -32.4260   25.7511 C   0  0  0  0  0  0
  -27.5569  -37.1764   24.8503 C   0  0  0  0  0  0
  -21.4205  -29.3033   22.3682 N   0  0  0  0  0  0
  -26.4270  -37.3749   23.9457 N   0  0  0  0  0  0
  -24.6983  -31.0509   22.0986 N   0  0  0  0  0  0
  -23.4179  -28.8202   23.3136 O   0  0  0  0  0  0
  -28.3424  -26.3649   20.1187 O   0  0  0  0  0  0
  -26.5647  -34.8894   22.4689 O   0  0  0  0  0  0
  -23.5456  -32.1443   23.7257 O   0  0  0  0  0  0
  -29.4734  -18.5350   22.9579 C   0  0  0  0  0  0
  -29.6576  -17.3143   22.2859 C   0  0  0  0  0  0
  -29.8468  -18.5567   20.2030 C   0  0  0  0  0  0
  -29.6586  -19.8488   20.8749 C   0  0  0  0  0  0
  -29.4706  -19.7792   22.2863 C   0  0  0  0  0  0
  -29.8447  -17.2650   20.8934 C   0  0  0  0  0  0
  -29.8649  -21.2570   20.2083 C   0  0  0  0  0  0
  -27.3417  -22.9092   18.5570 C   0  0  0  0  0  0
  -27.9088  -24.3587   18.5583 C   0  0  0  0  0  0
  -27.5842  -22.1101   19.8674 C   0  0  0  0  0  0
  -29.2480  -23.8075   20.5473 C   0  0  0  0  0  0
  -28.1460  -24.8659   20.0000 C   0  0  1  0  0  0
  -29.3404  -21.0230   23.1561 C   0  0  0  0  0  0
  -28.9543  -22.3090   20.3407 N   0  0  0  0  0  0
  -29.8052  -15.9058   20.2959 N   0  0  0  0  0  0
  -30.9578  -21.4595   19.6748 O   0  0  0  0  0  0
  -31.4693  -12.6149   19.1266 H   0  0  0  0  0  0
  -30.4004  -11.5066   19.9470 H   0  0  0  0  0  0
  -29.7783  -11.7296   17.5063 H   0  0  0  0  0  0
  -29.6145  -13.4533   17.6950 H   0  0  0  0  0  0
  -27.9061  -11.2751   18.9415 H   0  0  0  0  0  0
  -27.3611  -12.4773   17.8021 H   0  0  0  0  0  0
  -27.6069  -14.2471   19.4384 H   0  0  0  0  0  0
  -28.7381  -12.2232   21.4365 H   0  0  0  0  0  0
  -28.4386  -13.9182   21.7517 H   0  0  0  0  0  0
  -25.2760   -9.5690   22.4791 H   0  0  0  0  0  0
  -23.9985   -7.4645   22.7506 H   0  0  0  0  0  0
  -21.0847   -8.8799   19.8964 H   0  0  0  0  0  0
  -22.3695  -10.9698   19.6212 H   0  0  0  0  0  0
  -21.1974   -7.6142   23.9733 H   0  0  0  0  0  0
  -21.1514   -6.0522   25.9107 H   0  0  0  0  0  0
  -22.0584   -2.7602   23.2842 H   0  0  0  0  0  0
  -22.4011  -11.9848   22.4805 H   0  0  0  0  0  0
  -21.1094  -13.1318   22.2671 H   0  0  0  0  0  0
  -24.6601  -15.8464   20.5647 H   0  0  0  0  0  0
  -26.2831  -15.6446   20.1437 H   0  0  0  0  0  0
  -26.7183  -32.5388   23.1104 H   0  0  0  0  0  0
  -25.0040  -33.9690   25.0396 H   0  0  0  0  0  0
  -22.7249  -31.3009   21.4001 H   0  0  0  0  0  0
  -23.3765  -35.9514   23.3326 H   0  0  0  0  0  0
  -24.3592  -36.8806   22.2067 H   0  0  0  0  0  0
  -23.7186  -37.6397   23.6657 H   0  0  0  0  0  0
  -26.1219  -31.5313   20.6189 H   0  0  0  0  0  0
  -26.8502  -30.8082   22.0228 H   0  0  0  0  0  0
  -28.1341  -28.9283   21.1792 H   0  0  0  0  0  0
  -25.8772  -25.8792   19.0939 H   0  0  0  0  0  0
  -23.9523  -27.2925   19.0478 H   0  0  0  0  0  0
  -23.7579  -30.5747   19.4027 H   0  0  0  0  0  0
  -22.7620  -29.2286   19.8757 H   0  0  0  0  0  0
  -25.1284  -36.1880   25.0820 H   0  0  0  0  0  0
  -20.9974  -28.3218   24.1396 H   0  0  0  0  0  0
  -20.5537  -26.2315   23.3622 H   0  0  0  0  0  0
  -21.6615  -26.7373   22.1247 H   0  0  0  0  0  0
  -19.6890  -25.6293   21.1189 H   0  0  0  0  0  0
  -19.6599  -27.3191   20.6694 H   0  0  0  0  0  0
  -17.4166  -26.6653   21.4040 H   0  0  0  0  0  0
  -18.0347  -26.0017   22.8987 H   0  0  0  0  0  0
  -19.7962  -30.7197   24.2310 H   0  0  0  0  0  0
  -17.5053  -31.6263   24.5128 H   0  0  0  0  0  0
  -15.5371  -30.2985   23.7609 H   0  0  0  0  0  0
  -15.8681  -28.0729   22.7192 H   0  0  0  0  0  0
  -24.5994  -30.6955   25.7798 H   0  0  0  0  0  0
  -24.8940  -32.2791   26.4900 H   0  0  0  0  0  0
  -25.8124  -30.8842   27.0225 H   0  0  0  0  0  0
  -26.2900  -29.6746   24.1181 H   0  0  0  0  0  0
  -27.4034  -29.7175   25.4692 H   0  0  0  0  0  0
  -27.8807  -30.4248   23.9438 H   0  0  0  0  0  0
  -27.2710  -33.3566   26.2084 H   0  0  0  0  0  0
  -28.3899  -32.6804   25.0324 H   0  0  0  0  0  0
  -28.0762  -31.8385   26.5440 H   0  0  0  0  0  0
  -28.2605  -38.0042   24.7526 H   0  0  0  0  0  0
  -28.1037  -36.2576   24.6331 H   0  0  0  0  0  0
  -27.2315  -37.1405   25.8916 H   0  0  0  0  0  0
  -20.9426  -29.8757   21.6865 H   0  0  0  0  0  0
  -26.0141  -38.2813   24.1472 H   0  0  0  0  0  0
  -29.3419  -18.5061   24.0301 H   0  0  0  0  0  0
  -29.6200  -16.3985   22.8603 H   0  0  0  0  0  0
  -30.0045  -18.5630   19.1321 H   0  0  0  0  0  0
  -27.7916  -22.3634   17.7264 H   0  0  0  0  0  0
  -26.2716  -22.9235   18.3506 H   0  0  0  0  0  0
  -27.2973  -25.0120   17.9413 H   0  0  0  0  0  0
  -28.8674  -24.3581   18.0378 H   0  0  0  0  0  0
  -27.3668  -21.0560   19.6915 H   0  0  0  0  0  0
  -26.8892  -22.4250   20.6467 H   0  0  0  0  0  0
  -29.4009  -23.9744   21.6132 H   0  0  0  0  0  0
  -30.2087  -24.0353   20.0818 H   0  0  0  0  0  0
  -27.2376  -24.6824   20.5757 H   0  0  0  0  0  0
  -30.2417  -21.6350   23.0884 H   0  0  0  0  0  0
  -29.2115  -20.7595   24.2061 H   0  0  0  0  0  0
  -28.4762  -21.6256   22.8743 H   0  0  0  0  0  0
  -28.8729  -15.6423   20.0221 H   0  0  0  0  0  0
  1 25  1  0  0  0
  1 30  2  0  0  0
  1 85  1  0  0  0
  2  3  1  0  0  0
  2 25  1  0  0  0
  2 87  1  0  0  0
  2 88  1  0  0  0
  3  4  1  0  0  0
  3 89  1  0  0  0
  3 90  1  0  0  0
  4  5  1  0  0  0
  4 91  1  0  0  0
  4 92  1  0  0  0
  5  6  1  0  0  0
  5 26  1  0  0  0
  5 93  1  0  0  0
  6 25  1  0  0  0
  6 94  1  0  0  0
  6 95  1  0  0  0
  7  8  2  0  0  0
  7 26  1  0  0  0
  7 29  1  0  0  0
  8  9  1  0  0  0
  8 22  1  0  0  0
  9 10  1  0  0  0
  9 27  2  0  0  0
 10 11  2  0  0  0
 10 15  1  0  0  0
 11 12  1  0  0  0
 11 96  1  0  0  0
 12 13  2  0  0  0
 12 97  1  0  0  0
 13 14  1  0  0  0
 13 31  1  0  0  0
 14 15  2  0  0  0
 14 98  1  0  0  0
 15 99  1  0  0  0
 16 17  2  0  0  0
 16 21  1  0  0  0
 16 31  1  0  0  0
 17 18  1  0  0  0
 17100  1  0  0  0
 18 19  2  0  0  0
 18101  1  0  0  0
 19 20  1  0  0  0
 19 24  1  0  0  0
 20 21  2  0  0  0
 20102  1  0  0  0
 21 23  1  0  0  0
 22 28  1  0  0  0
 22 32  2  0  0  0
 26 27  1  0  0  0
 28103  1  0  0  0
 28104  1  0  0  0
 29105  1  0  0  0
 29106  1  0  0  0
 33 34  1  0  0  0
 33 66  1  0  0  0
 33 70  2  0  0  0
 34 36  1  0  0  0
 34 59  1  0  0  0
 34107  1  0  0  0
 35 44  2  0  0  0
 35 45  1  0  0  0
 35 68  1  0  0  0
 36 56  1  0  0  0
 36108  1  0  0  0
 37 39  1  0  0  0
 37 47  1  0  0  0
 37 66  1  0  0  0
 37109  1  0  0  0
 38 43  2  0  0  0
 38 46  1  0  0  0
 38 47  1  0  0  0
 39 64  1  0  0  0
 39 67  2  0  0  0
 40 52  1  0  0  0
 40 53  2  0  0  0
 40 58  1  0  0  0
 41110  1  0  0  0
 41111  1  0  0  0
 41112  1  0  0  0
 41 48  1  0  0  0
 42 43  1  0  0  0
 42 66  1  0  0  0
 42113  1  0  0  0
 42114  1  0  0  0
 43 44  1  0  0  0
 44115  1  0  0  0
 45 46  2  0  0  0
 45116  1  0  0  0
 46117  1  0  0  0
 47118  1  0  0  0
 47119  1  0  0  0
 48 56  1  0  0  0
 48 65  1  0  0  0
 48120  1  0  0  0
 49 50  1  0  0  0
 49 53  1  0  0  0
 49 64  1  0  0  0
 49121  1  0  0  0
 50 51  1  0  0  0
 50122  1  0  0  0
 50123  1  0  0  0
 51 52  1  0  0  0
 51124  1  0  0  0
 51125  1  0  0  0
 52126  1  0  0  0
 52127  1  0  0  0
 53 54  1  0  0  0
 54 55  2  0  0  0
 54128  1  0  0  0
 55 57  1  0  0  0
 55129  1  0  0  0
 56 69  2  0  0  0
 57 58  2  0  0  0
 57130  1  0  0  0
 58131  1  0  0  0
 59 60  1  0  0  0
 59 61  1  0  0  0
 59 62  1  0  0  0
 60132  1  0  0  0
 60133  1  0  0  0
 60134  1  0  0  0
 61135  1  0  0  0
 61136  1  0  0  0
 61137  1  0  0  0
 62138  1  0  0  0
 62139  1  0  0  0
 62140  1  0  0  0
 63 65  1  0  0  0
 63141  1  0  0  0
 63142  1  0  0  0
 63143  1  0  0  0
 64144  1  0  0  0
 65145  1  0  0  0
 68 82  1  0  0  0
 71 72  2  0  0  0
 71 75  1  0  0  0
 71146  1  0  0  0
 72 76  1  0  0  0
 72147  1  0  0  0
 73 74  1  0  0  0
 73 76  2  0  0  0
 73148  1  0  0  0
 74 75  2  0  0  0
 74 77  1  0  0  0
 75 83  1  0  0  0
 76 85  1  0  0  0
 77 84  1  0  0  0
 77 86  2  0  0  0
 78 79  1  0  0  0
 78 80  1  0  0  0
 78149  1  0  0  0
 78150  1  0  0  0
 79 82  1  0  0  0
 79151  1  0  0  0
 79152  1  0  0  0
 80 84  1  0  0  0
 80153  1  0  0  0
 80154  1  0  0  0
 81 82  1  0  0  0
 81 84  1  0  0  0
 81155  1  0  0  0
 81156  1  0  0  0
 82157  1  0  0  0
 83158  1  0  0  0
 83159  1  0  0  0
 83160  1  0  0  0
 85161  1  0  0  0
M  ISO  4   1 100  68 101  82 101  85 100
M  END
> <chiral flag>
0

> <version>
0

> <s_m_source_file>
/data/baiqing/PycharmProjects/Reinvent-master-3.2/result/LINK_invent/BTK/process_docking_weight1_custom_product_contain_oxygen_bond_distance_aromatic_linkinvent_7_9_3/rearranged_h_0029.sdf

> <i_m_source_file_index>
39

> <r_mmod_Potential_Energy-OPLS-2005>
395.059600830078

> <r_mmod_Stretch_Energy-OPLS-2005>
140.654235839844

> <r_mmod_Bend_Energy-OPLS-2005>
184.076599121094

> <r_mmod_Torsional_Energy-OPLS-2005>
380.628936767578

> <r_mmod_Improper_Torsional_Energy-OPLS-2005>
17.5398597717285

> <r_mmod_Van_der_Waal_Energy-OPLS-2005>
149.889221191406

> <r_mmod_Electrostatic_Energy-OPLS-2005>
-349.589813232422

> <r_mmod_Solvation_Energy-OPLS-2005>
-226.557983398438

> <b_mmod_Minimization_Converged-OPLS-2005>
0

> <r_mmod_RMS_Derivative-OPLS-2005>
3.88462066650391

$$$$
39
                    3D
 Structure written by MMmdl.
153162  0  0  1  0            999 V2000
  -30.4687  -15.1629   20.3837 C   0  0  0  0  0  0
  -30.4395  -12.7353   19.5161 C   0  0  0  0  0  0
  -29.5299  -12.5594   18.2756 C   0  0  0  0  0  0
  -28.0722  -12.3055   18.6999 C   0  0  0  0  0  0
  -27.6164  -13.2667   19.8268 C   0  0  2  0  0  0
  -28.6538  -13.3927   20.9621 C   0  0  0  0  0  0
  -25.2408  -13.8240   20.5733 C   0  0  0  0  0  0
  -24.1753  -13.0439   20.9255 C   0  0  0  0  0  0
  -24.6395  -11.6932   20.8763 C   0  0  0  0  0  0
  -23.9090  -10.4292   21.0409 C   0  0  0  0  0  0
  -24.3633   -9.4205   21.9186 C   0  0  0  0  0  0
  -23.6302   -8.2243   22.0754 C   0  0  0  0  0  0
  -22.4285   -8.0282   21.3545 C   0  0  0  0  0  0
  -21.9925   -9.0257   20.4646 C   0  0  0  0  0  0
  -22.7260  -10.2135   20.3056 C   0  0  0  0  0  0
  -21.6856   -6.0738   22.5277 C   0  0  0  0  0  0
  -21.4016   -6.5641   23.8211 C   0  0  0  0  0  0
  -21.3659   -5.6792   24.9172 C   0  0  0  0  0  0
  -21.6045   -4.3055   24.7223 C   0  0  0  0  0  0
  -21.8819   -3.8148   23.4343 C   0  0  0  0  0  0
  -21.9194   -4.6965   22.3401 C   0  0  0  0  0  0
  -22.7770  -13.5195   21.1901 C   0  0  0  0  0  0
  -22.1662   -4.2150   21.0979 F   0  0  0  0  0  0
  -21.5628   -3.4538   25.7737 F   0  0  0  0  0  0
  -29.8993  -13.8689   20.3427 N   0  0  0  0  0  0
  -26.2832  -12.9499   20.3220 N   0  0  0  0  0  0
  -25.9330  -11.6613   20.5727 N   0  0  0  0  0  0
  -22.0428  -12.8176   22.0454 N   0  0  0  0  0  0
  -25.4042  -15.1973   20.4145 N   0  0  0  0  0  0
  -31.6879  -15.1748   20.1643 O   0  0  0  0  0  0
  -21.6644   -6.8882   21.4241 O   0  0  0  0  0  0
  -22.3451  -14.5496   20.6741 O   0  0  0  0  0  0
  -24.6564  -31.8297   23.1753 C   0  0  0  0  0  0
  -25.9274  -32.4620   23.8197 C   0  0  1  0  0  0
  -27.2167  -26.9917   20.1795 C   0  0  0  0  0  0
  -25.5966  -33.8431   24.2104 N   0  0  0  0  0  0
  -23.4676  -30.4434   21.5232 C   0  0  2  0  0  0
  -24.9197  -28.8408   20.1124 C   0  0  0  0  0  0
  -22.7634  -29.4474   22.4804 C   0  0  0  0  0  0
  -18.0316  -28.1407   22.8469 C   0  0  0  0  0  0
  -24.1491  -36.7219   23.2647 C   0  0  0  0  0  0
  -26.0326  -30.6573   21.3954 C   0  0  0  0  0  0
  -26.1014  -29.2532   20.7407 C   0  0  0  0  0  0
  -27.2471  -28.3487   20.7495 C   0  0  0  0  0  0
  -26.0090  -26.7157   19.5017 C   0  0  0  0  0  0
  -24.8950  -27.5910   19.4735 C   0  0  0  0  0  0
  -23.7034  -29.7616   20.1479 C   0  0  0  0  0  0
  -25.4130  -36.2985   24.0305 C   0  0  1  0  0  0
  -20.5939  -28.3744   23.1204 C   0  0  2  0  0  0
  -20.6796  -26.9432   22.5406 C   0  0  0  0  0  0
  -19.5769  -26.6380   21.5216 C   0  0  0  0  0  0
  -18.1951  -26.7942   22.1623 C   0  0  0  0  0  0
  -19.1576  -28.8895   23.2826 C   0  0  0  0  0  0
  -18.9489  -30.1487   23.8858 C   0  0  0  0  0  0
  -17.6484  -30.6598   24.0557 C   0  0  0  0  0  0
  -25.9091  -34.9367   23.5024 C   0  0  0  0  0  0
  -16.5374  -29.9088   23.6342 C   0  0  0  0  0  0
  -16.7299  -28.6508   23.0361 C   0  0  0  0  0  0
  -26.4547  -31.6544   25.0701 C   0  0  0  0  0  0
  -25.3689  -31.3782   26.1368 C   0  0  0  0  0  0
  -27.0433  -30.2919   24.6388 C   0  0  0  0  0  0
  -27.6049  -32.4341   25.7498 C   0  0  0  0  0  0
  -27.5570  -37.1767   24.8465 C   0  0  0  0  0  0
  -21.4312  -29.3044   22.3557 N   0  0  0  0  0  0
  -26.4279  -37.3716   23.9411 N   0  0  0  0  0  0
  -24.7399  -31.0021   22.0856 N   0  0  0  0  0  0
  -23.4214  -28.8039   23.3019 O   0  0  0  0  0  0
  -28.2431  -25.9329   20.2450 O   0  0  0  0  0  0
  -26.5697  -34.8891   22.4616 O   0  0  0  0  0  0
  -23.5649  -32.1239   23.6884 O   0  0  0  0  0  0
  -31.6625  -19.7575   20.3595 C   0  0  0  0  0  0
  -30.7397  -20.8326   20.3300 C   0  0  0  0  0  0
  -31.2917  -18.3927   20.3923 C   0  0  0  0  0  0
  -29.0032  -19.1841   20.3729 C   0  0  0  0  0  0
  -29.3334  -20.6859   20.3296 C   0  0  0  0  0  0
  -29.9458  -17.9748   20.4029 C   0  0  0  0  0  0
  -28.6867  -23.1880   19.2895 C   0  0  0  0  0  0
  -28.6153  -23.2140   21.2529 C   0  0  0  0  0  0
  -28.0003  -24.3229   20.2321 C   0  0  0  0  0  0
  -27.5273  -18.8424   20.3806 C   0  0  0  0  0  0
  -28.4935  -22.0419   20.2819 N   0  0  0  0  0  0
  -29.6810  -16.4014   20.4582 N   0  0  0  0  0  0
  -31.4632  -12.9248   19.1905 H   0  0  0  0  0  0
  -30.4831  -11.8147   20.1005 H   0  0  0  0  0  0
  -29.8885  -11.7387   17.6530 H   0  0  0  0  0  0
  -29.5795  -13.4581   17.6588 H   0  0  0  0  0  0
  -28.0066  -11.2745   19.0497 H   0  0  0  0  0  0
  -27.4052  -12.3794   17.8401 H   0  0  0  0  0  0
  -27.5469  -14.2459   19.3520 H   0  0  0  0  0  0
  -28.7962  -12.4432   21.4803 H   0  0  0  0  0  0
  -28.3141  -14.1090   21.7119 H   0  0  0  0  0  0
  -25.2775   -9.5681   22.4764 H   0  0  0  0  0  0
  -24.0007   -7.4635   22.7474 H   0  0  0  0  0  0
  -21.0855   -8.8781   19.8950 H   0  0  0  0  0  0
  -22.3718  -10.9676   19.6167 H   0  0  0  0  0  0
  -21.2010   -7.6148   23.9715 H   0  0  0  0  0  0
  -21.1481   -6.0522   25.9075 H   0  0  0  0  0  0
  -22.0599   -2.7609   23.2844 H   0  0  0  0  0  0
  -22.4059  -11.9843   22.4840 H   0  0  0  0  0  0
  -21.1040  -13.1182   22.2659 H   0  0  0  0  0  0
  -24.6280  -15.8419   20.5179 H   0  0  0  0  0  0
  -26.2323  -15.6341   20.0336 H   0  0  0  0  0  0
  -26.7341  -32.5177   23.0914 H   0  0  0  0  0  0
  -25.0068  -33.9520   25.0224 H   0  0  0  0  0  0
  -22.7777  -31.2735   21.3567 H   0  0  0  0  0  0
  -23.3763  -35.9539   23.3281 H   0  0  0  0  0  0
  -24.3570  -36.8889   22.2067 H   0  0  0  0  0  0
  -23.7237  -37.6398   23.6714 H   0  0  0  0  0  0
  -26.2049  -31.4016   20.6170 H   0  0  0  0  0  0
  -26.8962  -30.7128   22.0464 H   0  0  0  0  0  0
  -28.1441  -28.6622   21.2649 H   0  0  0  0  0  0
  -25.8973  -25.7647   19.0021 H   0  0  0  0  0  0
  -23.9971  -27.2713   18.9627 H   0  0  0  0  0  0
  -23.8536  -30.5308   19.3897 H   0  0  0  0  0  0
  -22.8146  -29.2125   19.8324 H   0  0  0  0  0  0
  -25.1326  -36.1788   25.0796 H   0  0  0  0  0  0
  -21.0026  -28.3343   24.1328 H   0  0  0  0  0  0
  -20.5682  -26.2359   23.3639 H   0  0  0  0  0  0
  -21.6659  -26.7419   22.1209 H   0  0  0  0  0  0
  -19.6931  -25.6282   21.1269 H   0  0  0  0  0  0
  -19.6709  -27.3170   20.6730 H   0  0  0  0  0  0
  -17.4222  -26.6686   21.4025 H   0  0  0  0  0  0
  -18.0343  -26.0097   22.9030 H   0  0  0  0  0  0
  -19.7966  -30.7314   24.2209 H   0  0  0  0  0  0
  -17.5037  -31.6275   24.5167 H   0  0  0  0  0  0
  -15.5374  -30.2978   23.7691 H   0  0  0  0  0  0
  -15.8699  -28.0815   22.7099 H   0  0  0  0  0  0
  -24.5888  -30.7108   25.7686 H   0  0  0  0  0  0
  -24.8858  -32.2979   26.4676 H   0  0  0  0  0  0
  -25.7936  -30.9035   27.0222 H   0  0  0  0  0  0
  -26.3085  -29.6608   24.1377 H   0  0  0  0  0  0
  -27.3971  -29.7266   25.5021 H   0  0  0  0  0  0
  -27.9022  -30.4118   23.9782 H   0  0  0  0  0  0
  -27.2631  -33.3690   26.1949 H   0  0  0  0  0  0
  -28.3926  -32.6819   25.0371 H   0  0  0  0  0  0
  -28.0639  -31.8547   26.5519 H   0  0  0  0  0  0
  -28.2570  -38.0080   24.7516 H   0  0  0  0  0  0
  -28.1084  -36.2607   24.6287 H   0  0  0  0  0  0
  -27.2287  -37.1403   25.8868 H   0  0  0  0  0  0
  -20.9549  -29.8735   21.6696 H   0  0  0  0  0  0
  -26.0129  -38.2774   24.1423 H   0  0  0  0  0  0
  -32.7171  -19.9954   20.3579 H   0  0  0  0  0  0
  -31.1525  -21.8310   20.3049 H   0  0  0  0  0  0
  -32.0845  -17.6594   20.4171 H   0  0  0  0  0  0
  -29.7406  -23.3913   19.0846 H   0  0  0  0  0  0
  -28.1519  -23.0322   18.3518 H   0  0  0  0  0  0
  -28.0144  -23.0835   22.1537 H   0  0  0  0  0  0
  -29.6524  -23.4214   21.5275 H   0  0  0  0  0  0
  -26.9211  -24.1723   20.2121 H   0  0  0  0  0  0
  -26.9114  -19.7321   20.5130 H   0  0  0  0  0  0
  -27.2985  -18.1529   21.1932 H   0  0  0  0  0  0
  -27.2447  -18.3717   19.4390 H   0  0  0  0  0  0
  -28.7022  -16.1798   20.5565 H   0  0  0  0  0  0
  1 25  1  0  0  0
  1 30  2  0  0  0
  1 82  1  0  0  0
  2  3  1  0  0  0
  2 25  1  0  0  0
  2 83  1  0  0  0
  2 84  1  0  0  0
  3  4  1  0  0  0
  3 85  1  0  0  0
  3 86  1  0  0  0
  4  5  1  0  0  0
  4 87  1  0  0  0
  4 88  1  0  0  0
  5  6  1  0  0  0
  5 26  1  0  0  0
  5 89  1  0  0  0
  6 25  1  0  0  0
  6 90  1  0  0  0
  6 91  1  0  0  0
  7  8  2  0  0  0
  7 26  1  0  0  0
  7 29  1  0  0  0
  8  9  1  0  0  0
  8 22  1  0  0  0
  9 10  1  0  0  0
  9 27  2  0  0  0
 10 11  2  0  0  0
 10 15  1  0  0  0
 11 12  1  0  0  0
 11 92  1  0  0  0
 12 13  2  0  0  0
 12 93  1  0  0  0
 13 14  1  0  0  0
 13 31  1  0  0  0
 14 15  2  0  0  0
 14 94  1  0  0  0
 15 95  1  0  0  0
 16 17  2  0  0  0
 16 21  1  0  0  0
 16 31  1  0  0  0
 17 18  1  0  0  0
 17 96  1  0  0  0
 18 19  2  0  0  0
 18 97  1  0  0  0
 19 20  1  0  0  0
 19 24  1  0  0  0
 20 21  2  0  0  0
 20 98  1  0  0  0
 21 23  1  0  0  0
 22 28  1  0  0  0
 22 32  2  0  0  0
 26 27  1  0  0  0
 28 99  1  0  0  0
 28100  1  0  0  0
 29101  1  0  0  0
 29102  1  0  0  0
 33 34  1  0  0  0
 33 66  1  0  0  0
 33 70  2  0  0  0
 34 36  1  0  0  0
 34 59  1  0  0  0
 34103  1  0  0  0
 35 44  2  0  0  0
 35 45  1  0  0  0
 35 68  1  0  0  0
 36 56  1  0  0  0
 36104  1  0  0  0
 37 39  1  0  0  0
 37 47  1  0  0  0
 37 66  1  0  0  0
 37105  1  0  0  0
 38 43  2  0  0  0
 38 46  1  0  0  0
 38 47  1  0  0  0
 39 64  1  0  0  0
 39 67  2  0  0  0
 40 52  1  0  0  0
 40 53  2  0  0  0
 40 58  1  0  0  0
 41106  1  0  0  0
 41107  1  0  0  0
 41108  1  0  0  0
 41 48  1  0  0  0
 42 43  1  0  0  0
 42 66  1  0  0  0
 42109  1  0  0  0
 42110  1  0  0  0
 43 44  1  0  0  0
 44111  1  0  0  0
 45 46  2  0  0  0
 45112  1  0  0  0
 46113  1  0  0  0
 47114  1  0  0  0
 47115  1  0  0  0
 48 56  1  0  0  0
 48 65  1  0  0  0
 48116  1  0  0  0
 49 50  1  0  0  0
 49 53  1  0  0  0
 49 64  1  0  0  0
 49117  1  0  0  0
 50 51  1  0  0  0
 50118  1  0  0  0
 50119  1  0  0  0
 51 52  1  0  0  0
 51120  1  0  0  0
 51121  1  0  0  0
 52122  1  0  0  0
 52123  1  0  0  0
 53 54  1  0  0  0
 54 55  2  0  0  0
 54124  1  0  0  0
 55 57  1  0  0  0
 55125  1  0  0  0
 56 69  2  0  0  0
 57 58  2  0  0  0
 57126  1  0  0  0
 58127  1  0  0  0
 59 60  1  0  0  0
 59 61  1  0  0  0
 59 62  1  0  0  0
 60128  1  0  0  0
 60129  1  0  0  0
 60130  1  0  0  0
 61131  1  0  0  0
 61132  1  0  0  0
 61133  1  0  0  0
 62134  1  0  0  0
 62135  1  0  0  0
 62136  1  0  0  0
 63 65  1  0  0  0
 63137  1  0  0  0
 63138  1  0  0  0
 63139  1  0  0  0
 64140  1  0  0  0
 65141  1  0  0  0
 68 79  1  0  0  0
 71 72  2  0  0  0
 71 73  1  0  0  0
 71142  1  0  0  0
 72 75  1  0  0  0
 72143  1  0  0  0
 73 76  2  0  0  0
 73144  1  0  0  0
 74 75  2  0  0  0
 74 76  1  0  0  0
 74 80  1  0  0  0
 75 81  1  0  0  0
 76 82  1  0  0  0
 77 79  1  0  0  0
 77 81  1  0  0  0
 77145  1  0  0  0
 77146  1  0  0  0
 78 79  1  0  0  0
 78 81  1  0  0  0
 78147  1  0  0  0
 78148  1  0  0  0
 79149  1  0  0  0
 80150  1  0  0  0
 80151  1  0  0  0
 80152  1  0  0  0
 82153  1  0  0  0
M  ISO  4   1 100  68 101  79 101  82 100
M  END
> <chiral flag>
0

> <version>
0

> <s_m_source_file>
/data/baiqing/PycharmProjects/Reinvent-master-3.2/result/LINK_invent/BTK/process_docking_weight1_custom_product_contain_oxygen_bond_distance_aromatic_linkinvent_7_9_3/rearranged_h_0029.sdf

> <i_m_source_file_index>
40

> <r_mmod_Potential_Energy-OPLS-2005>
953.642150878906

> <r_mmod_Stretch_Energy-OPLS-2005>
419.274841308594

> <r_mmod_Bend_Energy-OPLS-2005>
385.534759521484

> <r_mmod_Torsional_Energy-OPLS-2005>
251.675643920898

> <r_mmod_Improper_Torsional_Energy-OPLS-2005>
12.1726684570312

> <r_mmod_Van_der_Waal_Energy-OPLS-2005>
126.920066833496

> <r_mmod_Electrostatic_Energy-OPLS-2005>
-372.620849609375

> <r_mmod_Solvation_Energy-OPLS-2005>
-227.723419189453

> <b_mmod_Minimization_Converged-OPLS-2005>
0

> <r_mmod_RMS_Derivative-OPLS-2005>
0.442343026399612

$$$$
40
                    3D
 Structure written by MMmdl.
158167  0  0  1  0            999 V2000
  -30.5861  -14.7564   20.4716 C   0  0  0  0  0  0
  -30.4495  -12.4706   19.4525 C   0  0  0  0  0  0
  -29.5146  -12.5143   18.2242 C   0  0  0  0  0  0
  -28.0424  -12.3273   18.6455 C   0  0  0  0  0  0
  -27.6455  -13.2230   19.8498 C   0  0  2  0  0  0
  -28.6961  -13.1464   20.9782 C   0  0  0  0  0  0
  -25.2552  -13.8186   20.5701 C   0  0  0  0  0  0
  -24.1835  -13.0448   20.9234 C   0  0  0  0  0  0
  -24.6408  -11.6916   20.8760 C   0  0  0  0  0  0
  -23.9069  -10.4300   21.0418 C   0  0  0  0  0  0
  -24.3618   -9.4213   21.9190 C   0  0  0  0  0  0
  -23.6300   -8.2246   22.0751 C   0  0  0  0  0  0
  -22.4280   -8.0284   21.3540 C   0  0  0  0  0  0
  -21.9917   -9.0258   20.4642 C   0  0  0  0  0  0
  -22.7243  -10.2142   20.3057 C   0  0  0  0  0  0
  -21.6852   -6.0732   22.5280 C   0  0  0  0  0  0
  -21.4006   -6.5632   23.8211 C   0  0  0  0  0  0
  -21.3664   -5.6784   24.9176 C   0  0  0  0  0  0
  -21.6051   -4.3049   24.7224 C   0  0  0  0  0  0
  -21.8823   -3.8138   23.4346 C   0  0  0  0  0  0
  -21.9201   -4.6963   22.3402 C   0  0  0  0  0  0
  -22.7852  -13.5248   21.1881 C   0  0  0  0  0  0
  -22.1667   -4.2151   21.0976 F   0  0  0  0  0  0
  -21.5639   -3.4524   25.7735 F   0  0  0  0  0  0
  -29.9884  -13.5198   20.3872 N   0  0  0  0  0  0
  -26.2965  -12.9366   20.3285 N   0  0  0  0  0  0
  -25.9338  -11.6521   20.5769 N   0  0  0  0  0  0
  -22.0462  -12.8242   22.0412 N   0  0  0  0  0  0
  -25.4257  -15.1912   20.4088 N   0  0  0  0  0  0
  -31.7888  -14.8830   20.2227 O   0  0  0  0  0  0
  -21.6644   -6.8876   21.4238 O   0  0  0  0  0  0
  -22.3551  -14.5558   20.6723 O   0  0  0  0  0  0
  -24.6308  -31.8541   23.1943 C   0  0  0  0  0  0
  -25.9121  -32.4757   23.8309 C   0  0  1  0  0  0
  -27.2316  -27.2686   20.1400 C   0  0  0  0  0  0
  -25.5903  -33.8557   24.2239 N   0  0  0  0  0  0
  -23.4293  -30.4735   21.5352 C   0  0  2  0  0  0
  -24.8795  -28.9094   20.1160 C   0  0  0  0  0  0
  -22.7500  -29.4598   22.4881 C   0  0  0  0  0  0
  -18.0294  -28.1389   22.8482 C   0  0  0  0  0  0
  -24.1486  -36.7310   23.2638 C   0  0  0  0  0  0
  -25.9713  -30.7738   21.3669 C   0  0  0  0  0  0
  -26.0493  -29.3918   20.7176 C   0  0  0  0  0  0
  -27.2320  -28.5863   20.7078 C   0  0  0  0  0  0
  -26.0375  -26.8383   19.5287 C   0  0  0  0  0  0
  -24.8773  -27.6414   19.5103 C   0  0  0  0  0  0
  -23.6499  -29.7971   20.1548 C   0  0  0  0  0  0
  -25.4114  -36.3085   24.0319 C   0  0  1  0  0  0
  -20.5897  -28.3703   23.1259 C   0  0  2  0  0  0
  -20.6775  -26.9419   22.5402 C   0  0  0  0  0  0
  -19.5752  -26.6384   21.5206 C   0  0  0  0  0  0
  -18.1936  -26.7929   22.1623 C   0  0  0  0  0  0
  -19.1548  -28.8862   23.2869 C   0  0  0  0  0  0
  -18.9470  -30.1458   23.8893 C   0  0  0  0  0  0
  -17.6471  -30.6587   24.0571 C   0  0  0  0  0  0
  -25.9051  -34.9448   23.5090 C   0  0  0  0  0  0
  -16.5362  -29.9092   23.6325 C   0  0  0  0  0  0
  -16.7282  -28.6512   23.0341 C   0  0  0  0  0  0
  -26.4483  -31.6582   25.0702 C   0  0  0  0  0  0
  -25.3698  -31.3739   26.1417 C   0  0  0  0  0  0
  -27.0312  -30.2994   24.6174 C   0  0  0  0  0  0
  -27.6035  -32.4305   25.7502 C   0  0  0  0  0  0
  -27.5583  -37.1814   24.8461 C   0  0  0  0  0  0
  -21.4202  -29.3059   22.3643 N   0  0  0  0  0  0
  -26.4293  -37.3784   23.9402 N   0  0  0  0  0  0
  -24.6967  -31.0517   22.0903 N   0  0  0  0  0  0
  -23.4203  -28.8134   23.2976 O   0  0  0  0  0  0
  -28.3517  -26.4130   20.1225 O   0  0  0  0  0  0
  -26.5638  -34.8925   22.4671 O   0  0  0  0  0  0
  -23.5455  -32.1328   23.7250 O   0  0  0  0  0  0
  -29.6555  -19.8730   22.2108 C   0  0  0  0  0  0
  -29.9978  -18.7377   22.9731 C   0  0  0  0  0  0
  -29.5432  -18.4495   20.2559 C   0  0  0  0  0  0
  -29.4488  -19.7970   20.8182 C   0  0  0  0  0  0
  -30.1030  -17.4469   22.4075 C   0  0  0  0  0  0
  -29.8670  -17.2475   21.0221 C   0  0  0  0  0  0
  -29.8326  -23.2119   21.3435 C   0  0  0  0  0  0
  -29.5053  -24.7068   21.5200 C   0  0  0  0  0  0
  -28.2495  -23.6762   19.7799 C   0  0  0  0  0  0
  -28.2679  -25.0101   20.6602 C   0  0  2  0  0  0
  -30.4026  -16.2829   23.3398 C   0  0  0  0  0  0
  -29.1162  -21.1203   19.9617 C   0  0  0  0  0  0
  -29.0126  -22.5737   20.4845 N   0  0  0  0  0  0
  -29.7351  -15.8552   20.5182 N   0  0  0  0  0  0
  -30.7963  -22.7091   21.9253 O   0  0  0  0  0  0
  -31.4832  -12.6290   19.1411 H   0  0  0  0  0  0
  -30.4206  -11.4902   19.9297 H   0  0  0  0  0  0
  -29.8008  -11.7438   17.5073 H   0  0  0  0  0  0
  -29.6297  -13.4688   17.7078 H   0  0  0  0  0  0
  -27.9101  -11.2767   18.9088 H   0  0  0  0  0  0
  -27.3805  -12.5145   17.7988 H   0  0  0  0  0  0
  -27.6406  -14.2458   19.4756 H   0  0  0  0  0  0
  -28.7435  -12.1412   21.3989 H   0  0  0  0  0  0
  -28.4321  -13.8110   21.8028 H   0  0  0  0  0  0
  -25.2760   -9.5701   22.4770 H   0  0  0  0  0  0
  -24.0017   -7.4637   22.7462 H   0  0  0  0  0  0
  -21.0852   -8.8773   19.8941 H   0  0  0  0  0  0
  -22.3701  -10.9680   19.6165 H   0  0  0  0  0  0
  -21.1968   -7.6134   23.9721 H   0  0  0  0  0  0
  -21.1494   -6.0503   25.9083 H   0  0  0  0  0  0
  -22.0602   -2.7602   23.2841 H   0  0  0  0  0  0
  -22.4040  -11.9903   22.4829 H   0  0  0  0  0  0
  -21.1069  -13.1277   22.2562 H   0  0  0  0  0  0
  -24.6584  -15.8449   20.5201 H   0  0  0  0  0  0
  -26.2669  -15.6312   20.0592 H   0  0  0  0  0  0
  -26.7201  -32.5424   23.1069 H   0  0  0  0  0  0
  -25.0009  -33.9686   25.0354 H   0  0  0  0  0  0
  -22.7271  -31.2953   21.3811 H   0  0  0  0  0  0
  -23.3741  -35.9651   23.3298 H   0  0  0  0  0  0
  -24.3582  -36.8941   22.2056 H   0  0  0  0  0  0
  -23.7241  -37.6508   23.6669 H   0  0  0  0  0  0
  -26.0958  -31.5301   20.5905 H   0  0  0  0  0  0
  -26.8541  -30.8362   21.9918 H   0  0  0  0  0  0
  -28.1375  -28.9579   21.1665 H   0  0  0  0  0  0
  -25.9997  -25.8627   19.0660 H   0  0  0  0  0  0
  -23.9806  -27.2664   19.0367 H   0  0  0  0  0  0
  -23.7785  -30.5658   19.3917 H   0  0  0  0  0  0
  -22.7699  -29.2269   19.8512 H   0  0  0  0  0  0
  -25.1299  -36.1940   25.0810 H   0  0  0  0  0  0
  -21.0006  -28.3286   24.1372 H   0  0  0  0  0  0
  -20.5653  -26.2327   23.3614 H   0  0  0  0  0  0
  -21.6645  -26.7423   22.1210 H   0  0  0  0  0  0
  -19.6912  -25.6289   21.1251 H   0  0  0  0  0  0
  -19.6685  -27.3184   20.6726 H   0  0  0  0  0  0
  -17.4200  -26.6671   21.4029 H   0  0  0  0  0  0
  -18.0345  -26.0064   22.9016 H   0  0  0  0  0  0
  -19.7946  -30.7281   24.2257 H   0  0  0  0  0  0
  -17.5024  -31.6266   24.5177 H   0  0  0  0  0  0
  -15.5362  -30.3005   23.7635 H   0  0  0  0  0  0
  -15.8680  -28.0843   22.7038 H   0  0  0  0  0  0
  -24.5878  -30.7084   25.7743 H   0  0  0  0  0  0
  -24.8881  -32.2910   26.4819 H   0  0  0  0  0  0
  -25.8001  -30.8931   27.0209 H   0  0  0  0  0  0
  -26.2882  -29.6762   24.1180 H   0  0  0  0  0  0
  -27.3965  -29.7244   25.4695 H   0  0  0  0  0  0
  -27.8776  -30.4263   23.9420 H   0  0  0  0  0  0
  -27.2640  -33.3600   26.2087 H   0  0  0  0  0  0
  -28.3867  -32.6864   25.0353 H   0  0  0  0  0  0
  -28.0674  -31.8411   26.5421 H   0  0  0  0  0  0
  -28.2596  -38.0115   24.7509 H   0  0  0  0  0  0
  -28.1080  -36.2646   24.6284 H   0  0  0  0  0  0
  -27.2305  -37.1462   25.8863 H   0  0  0  0  0  0
  -20.9380  -29.8816   21.6879 H   0  0  0  0  0  0
  -26.0177  -38.2861   24.1392 H   0  0  0  0  0  0
  -29.5504  -20.8094   22.7348 H   0  0  0  0  0  0
  -30.1527  -18.8683   24.0355 H   0  0  0  0  0  0
  -29.3371  -18.3330   19.2015 H   0  0  0  0  0  0
  -30.3684  -25.2764   21.1769 H   0  0  0  0  0  0
  -29.3378  -24.9564   22.5681 H   0  0  0  0  0  0
  -28.7348  -23.8639   18.8205 H   0  0  0  0  0  0
  -27.2290  -23.3616   19.5611 H   0  0  0  0  0  0
  -27.3995  -24.9678   21.3205 H   0  0  0  0  0  0
  -30.4535  -16.6023   24.3808 H   0  0  0  0  0  0
  -31.3599  -15.8287   23.0858 H   0  0  0  0  0  0
  -29.6252  -15.5214   23.2717 H   0  0  0  0  0  0
  -28.1803  -20.9156   19.4416 H   0  0  0  0  0  0
  -29.8684  -21.1523   19.1734 H   0  0  0  0  0  0
  -28.7753  -15.5760   20.3942 H   0  0  0  0  0  0
  1 25  1  0  0  0
  1 30  2  0  0  0
  1 84  1  0  0  0
  2  3  1  0  0  0
  2 25  1  0  0  0
  2 86  1  0  0  0
  2 87  1  0  0  0
  3  4  1  0  0  0
  3 88  1  0  0  0
  3 89  1  0  0  0
  4  5  1  0  0  0
  4 90  1  0  0  0
  4 91  1  0  0  0
  5  6  1  0  0  0
  5 26  1  0  0  0
  5 92  1  0  0  0
  6 25  1  0  0  0
  6 93  1  0  0  0
  6 94  1  0  0  0
  7  8  2  0  0  0
  7 26  1  0  0  0
  7 29  1  0  0  0
  8  9  1  0  0  0
  8 22  1  0  0  0
  9 10  1  0  0  0
  9 27  2  0  0  0
 10 11  2  0  0  0
 10 15  1  0  0  0
 11 12  1  0  0  0
 11 95  1  0  0  0
 12 13  2  0  0  0
 12 96  1  0  0  0
 13 14  1  0  0  0
 13 31  1  0  0  0
 14 15  2  0  0  0
 14 97  1  0  0  0
 15 98  1  0  0  0
 16 17  2  0  0  0
 16 21  1  0  0  0
 16 31  1  0  0  0
 17 18  1  0  0  0
 17 99  1  0  0  0
 18 19  2  0  0  0
 18100  1  0  0  0
 19 20  1  0  0  0
 19 24  1  0  0  0
 20 21  2  0  0  0
 20101  1  0  0  0
 21 23  1  0  0  0
 22 28  1  0  0  0
 22 32  2  0  0  0
 26 27  1  0  0  0
 28102  1  0  0  0
 28103  1  0  0  0
 29104  1  0  0  0
 29105  1  0  0  0
 33 34  1  0  0  0
 33 66  1  0  0  0
 33 70  2  0  0  0
 34 36  1  0  0  0
 34 59  1  0  0  0
 34106  1  0  0  0
 35 44  2  0  0  0
 35 45  1  0  0  0
 35 68  1  0  0  0
 36 56  1  0  0  0
 36107  1  0  0  0
 37 39  1  0  0  0
 37 47  1  0  0  0
 37 66  1  0  0  0
 37108  1  0  0  0
 38 43  2  0  0  0
 38 46  1  0  0  0
 38 47  1  0  0  0
 39 64  1  0  0  0
 39 67  2  0  0  0
 40 52  1  0  0  0
 40 53  2  0  0  0
 40 58  1  0  0  0
 41109  1  0  0  0
 41110  1  0  0  0
 41111  1  0  0  0
 41 48  1  0  0  0
 42 43  1  0  0  0
 42 66  1  0  0  0
 42112  1  0  0  0
 42113  1  0  0  0
 43 44  1  0  0  0
 44114  1  0  0  0
 45 46  2  0  0  0
 45115  1  0  0  0
 46116  1  0  0  0
 47117  1  0  0  0
 47118  1  0  0  0
 48 56  1  0  0  0
 48 65  1  0  0  0
 48119  1  0  0  0
 49 50  1  0  0  0
 49 53  1  0  0  0
 49 64  1  0  0  0
 49120  1  0  0  0
 50 51  1  0  0  0
 50121  1  0  0  0
 50122  1  0  0  0
 51 52  1  0  0  0
 51123  1  0  0  0
 51124  1  0  0  0
 52125  1  0  0  0
 52126  1  0  0  0
 53 54  1  0  0  0
 54 55  2  0  0  0
 54127  1  0  0  0
 55 57  1  0  0  0
 55128  1  0  0  0
 56 69  2  0  0  0
 57 58  2  0  0  0
 57129  1  0  0  0
 58130  1  0  0  0
 59 60  1  0  0  0
 59 61  1  0  0  0
 59 62  1  0  0  0
 60131  1  0  0  0
 60132  1  0  0  0
 60133  1  0  0  0
 61134  1  0  0  0
 61135  1  0  0  0
 61136  1  0  0  0
 62137  1  0  0  0
 62138  1  0  0  0
 62139  1  0  0  0
 63 65  1  0  0  0
 63140  1  0  0  0
 63141  1  0  0  0
 63142  1  0  0  0
 64143  1  0  0  0
 65144  1  0  0  0
 68 80  1  0  0  0
 71 72  2  0  0  0
 71 74  1  0  0  0
 71145  1  0  0  0
 72 75  1  0  0  0
 72146  1  0  0  0
 73 74  2  0  0  0
 73 76  1  0  0  0
 73147  1  0  0  0
 74 82  1  0  0  0
 75 76  2  0  0  0
 75 81  1  0  0  0
 76 84  1  0  0  0
 77 78  1  0  0  0
 77 83  1  0  0  0
 77 85  2  0  0  0
 78 80  1  0  0  0
 78148  1  0  0  0
 78149  1  0  0  0
 79 80  1  0  0  0
 79 83  1  0  0  0
 79150  1  0  0  0
 79151  1  0  0  0
 80152  1  0  0  0
 81153  1  0  0  0
 81154  1  0  0  0
 81155  1  0  0  0
 82 83  1  0  0  0
 82156  1  0  0  0
 82157  1  0  0  0
 84158  1  0  0  0
M  ISO  4   1 100  68 101  80 101  84 100
M  END
> <chiral flag>
0

> <version>
0

> <s_m_source_file>
/data/baiqing/PycharmProjects/Reinvent-master-3.2/result/LINK_invent/BTK/process_docking_weight1_custom_product_contain_oxygen_bond_distance_aromatic_linkinvent_7_9_3/rearranged_h_0029.sdf

> <i_m_source_file_index>
41

> <r_mmod_Potential_Energy-OPLS-2005>
196.751953125

> <r_mmod_Stretch_Energy-OPLS-2005>
126.857147216797

> <r_mmod_Bend_Energy-OPLS-2005>
207.580612182617

> <r_mmod_Torsional_Energy-OPLS-2005>
282.914855957031

> <r_mmod_Improper_Torsional_Energy-OPLS-2005>
11.1687135696411

> <r_mmod_Van_der_Waal_Energy-OPLS-2005>
128.317123413086

> <r_mmod_Electrostatic_Energy-OPLS-2005>
-405.187652587891

> <r_mmod_Solvation_Energy-OPLS-2005>
-239.296035766602

> <b_mmod_Minimization_Converged-OPLS-2005>
0

> <r_mmod_RMS_Derivative-OPLS-2005>
1.68521010875702

$$$$
41
                    3D
 Structure written by MMmdl.
153162  0  0  1  0            999 V2000
  -30.5109  -15.0690   20.3900 C   0  0  0  0  0  0
  -30.4363  -12.6677   19.5125 C   0  0  0  0  0  0
  -29.5252  -12.5431   18.2686 C   0  0  0  0  0  0
  -28.0635  -12.3084   18.6899 C   0  0  0  0  0  0
  -27.6210  -13.2603   19.8312 C   0  0  2  0  0  0
  -28.6605  -13.3510   20.9683 C   0  0  0  0  0  0
  -25.2425  -13.8233   20.5728 C   0  0  0  0  0  0
  -24.1759  -13.0439   20.9241 C   0  0  0  0  0  0
  -24.6394  -11.6930   20.8759 C   0  0  0  0  0  0
  -23.9085  -10.4294   21.0408 C   0  0  0  0  0  0
  -24.3632   -9.4207   21.9185 C   0  0  0  0  0  0
  -23.6302   -8.2244   22.0755 C   0  0  0  0  0  0
  -22.4283   -8.0283   21.3544 C   0  0  0  0  0  0
  -21.9923   -9.0258   20.4646 C   0  0  0  0  0  0
  -22.7257  -10.2134   20.3056 C   0  0  0  0  0  0
  -21.6855   -6.0738   22.5279 C   0  0  0  0  0  0
  -21.4016   -6.5641   23.8212 C   0  0  0  0  0  0
  -21.3659   -5.6793   24.9174 C   0  0  0  0  0  0
  -21.6044   -4.3056   24.7224 C   0  0  0  0  0  0
  -21.8819   -3.8148   23.4346 C   0  0  0  0  0  0
  -21.9194   -4.6965   22.3402 C   0  0  0  0  0  0
  -22.7777  -13.5199   21.1892 C   0  0  0  0  0  0
  -22.1662   -4.2151   21.0980 F   0  0  0  0  0  0
  -21.5628   -3.4540   25.7737 F   0  0  0  0  0  0
  -29.9201  -13.7938   20.3563 N   0  0  0  0  0  0
  -26.2850  -12.9485   20.3233 N   0  0  0  0  0  0
  -25.9328  -11.6603   20.5736 N   0  0  0  0  0  0
  -22.0434  -12.8182   22.0448 N   0  0  0  0  0  0
  -25.4069  -15.1965   20.4158 N   0  0  0  0  0  0
  -31.7241  -15.0777   20.1504 O   0  0  0  0  0  0
  -21.6643   -6.8882   21.4241 O   0  0  0  0  0  0
  -22.3456  -14.5501   20.6734 O   0  0  0  0  0  0
  -24.6505  -31.8355   23.1801 C   0  0  0  0  0  0
  -25.9241  -32.4650   23.8222 C   0  0  1  0  0  0
  -27.2188  -27.0549   20.1651 C   0  0  0  0  0  0
  -25.5956  -33.8459   24.2136 N   0  0  0  0  0  0
  -23.4585  -30.4508   21.5271 C   0  0  2  0  0  0
  -24.9093  -28.8596   20.1102 C   0  0  0  0  0  0
  -22.7602  -29.4501   22.4829 C   0  0  0  0  0  0
  -18.0310  -28.1401   22.8473 C   0  0  0  0  0  0
  -24.1491  -36.7235   23.2646 C   0  0  0  0  0  0
  -26.0190  -30.6835   21.3901 C   0  0  0  0  0  0
  -26.0886  -29.2861   20.7331 C   0  0  0  0  0  0
  -27.2410  -28.4015   20.7390 C   0  0  0  0  0  0
  -26.0116  -26.7457   19.5020 C   0  0  0  0  0  0
  -24.8883  -27.6063   19.4773 C   0  0  0  0  0  0
  -23.6895  -29.7721   20.1496 C   0  0  0  0  0  0
  -25.4128  -36.3005   24.0309 C   0  0  1  0  0  0
  -20.5926  -28.3732   23.1221 C   0  0  2  0  0  0
  -20.6790  -26.9427   22.5407 C   0  0  0  0  0  0
  -19.5765  -26.6379   21.5215 C   0  0  0  0  0  0
  -18.1946  -26.7937   22.1624 C   0  0  0  0  0  0
  -19.1569  -28.8886   23.2836 C   0  0  0  0  0  0
  -18.9484  -30.1479   23.8865 C   0  0  0  0  0  0
  -17.6480  -30.6595   24.0557 C   0  0  0  0  0  0
  -25.9084  -34.9384   23.5038 C   0  0  0  0  0  0
  -16.5369  -29.9086   23.6340 C   0  0  0  0  0  0
  -16.7293  -28.6506   23.0359 C   0  0  0  0  0  0
  -26.4536  -31.6552   25.0701 C   0  0  0  0  0  0
  -25.3696  -31.3767   26.1380 C   0  0  0  0  0  0
  -27.0418  -30.2938   24.6344 C   0  0  0  0  0  0
  -27.6046  -32.4339   25.7496 C   0  0  0  0  0  0
  -27.5571  -37.1774   24.8466 C   0  0  0  0  0  0
  -21.4285  -29.3043   22.3581 N   0  0  0  0  0  0
  -26.4283  -37.3728   23.9407 N   0  0  0  0  0  0
  -24.7297  -31.0137   22.0871 N   0  0  0  0  0  0
  -23.4207  -28.8062   23.3019 O   0  0  0  0  0  0
  -28.2649  -26.0389   20.2491 O   0  0  0  0  0  0
  -26.5684  -34.8898   22.4627 O   0  0  0  0  0  0
  -23.5605  -32.1267   23.6975 O   0  0  0  0  0  0
  -30.9361  -20.6329   19.9629 C   0  0  0  0  0  0
  -31.3954  -18.1951   20.0629 C   0  0  0  0  0  0
  -29.5564  -20.5110   20.2353 C   0  0  0  0  0  0
  -30.0560  -17.8369   20.3365 C   0  0  0  0  0  0
  -31.8155  -19.5310   19.8839 C   0  0  0  0  0  0
  -29.1520  -19.0555   20.4211 C   0  0  0  0  0  0
  -27.2089  -23.6342   20.9731 C   0  0  0  0  0  0
  -27.4324  -22.0755   20.7166 C   0  0  0  0  0  0
  -29.2970  -23.2992   20.0192 C   0  0  0  0  0  0
  -28.1056  -24.4665   20.0140 C   0  0  2  0  0  0
  -28.8140  -21.8429   20.2768 N   0  0  0  0  0  0
  -29.7459  -16.2994   20.4916 N   0  0  0  0  0  0
  -33.1240  -19.7665   19.6235 F   0  0  0  0  0  0
  -27.8452  -18.8122   20.6844 F   0  0  0  0  0  0
  -31.4667  -12.8330   19.1946 H   0  0  0  0  0  0
  -30.4500  -11.7350   20.0787 H   0  0  0  0  0  0
  -29.8664  -11.7297   17.6267 H   0  0  0  0  0  0
  -29.5934  -13.4546   17.6727 H   0  0  0  0  0  0
  -27.9818  -11.2734   19.0241 H   0  0  0  0  0  0
  -27.3980  -12.4049   17.8312 H   0  0  0  0  0  0
  -27.5640  -14.2482   19.3732 H   0  0  0  0  0  0
  -28.7775  -12.3931   21.4774 H   0  0  0  0  0  0
  -28.3383  -14.0681   21.7249 H   0  0  0  0  0  0
  -25.2774   -9.5682   22.4765 H   0  0  0  0  0  0
  -24.0008   -7.4635   22.7475 H   0  0  0  0  0  0
  -21.0855   -8.8780   19.8951 H   0  0  0  0  0  0
  -22.3715  -10.9675   19.6168 H   0  0  0  0  0  0
  -21.2010   -7.6149   23.9716 H   0  0  0  0  0  0
  -21.1481   -6.0523   25.9077 H   0  0  0  0  0  0
  -22.0598   -2.7611   23.2845 H   0  0  0  0  0  0
  -22.4066  -11.9851   22.4837 H   0  0  0  0  0  0
  -21.1047  -13.1191   22.2653 H   0  0  0  0  0  0
  -24.6358  -15.8451   20.5319 H   0  0  0  0  0  0
  -26.2458  -15.6420   20.0685 H   0  0  0  0  0  0
  -26.7304  -32.5228   23.0940 H   0  0  0  0  0  0
  -25.0063  -33.9558   25.0258 H   0  0  0  0  0  0
  -22.7654  -31.2790   21.3650 H   0  0  0  0  0  0
  -23.3762  -35.9558   23.3291 H   0  0  0  0  0  0
  -24.3571  -36.8890   22.2063 H   0  0  0  0  0  0
  -23.7241  -37.6420   23.6703 H   0  0  0  0  0  0
  -26.1836  -31.4329   20.6147 H   0  0  0  0  0  0
  -26.8856  -30.7366   22.0374 H   0  0  0  0  0  0
  -28.1377  -28.7236   21.2495 H   0  0  0  0  0  0
  -25.9031  -25.7854   19.0208 H   0  0  0  0  0  0
  -23.9883  -27.2743   18.9783 H   0  0  0  0  0  0
  -23.8330  -30.5429   19.3916 H   0  0  0  0  0  0
  -22.8023  -29.2181   19.8375 H   0  0  0  0  0  0
  -25.1322  -36.1818   25.0801 H   0  0  0  0  0  0
  -21.0016  -28.3329   24.1343 H   0  0  0  0  0  0
  -20.5680  -26.2347   23.3633 H   0  0  0  0  0  0
  -21.6654  -26.7421   22.1208 H   0  0  0  0  0  0
  -19.6926  -25.6283   21.1264 H   0  0  0  0  0  0
  -19.6704  -27.3172   20.6733 H   0  0  0  0  0  0
  -17.4215  -26.6681   21.4027 H   0  0  0  0  0  0
  -18.0340  -26.0088   22.9029 H   0  0  0  0  0  0
  -19.7960  -30.7303   24.2219 H   0  0  0  0  0  0
  -17.5034  -31.6273   24.5164 H   0  0  0  0  0  0
  -15.5369  -30.2978   23.7684 H   0  0  0  0  0  0
  -15.8693  -28.0814   22.7094 H   0  0  0  0  0  0
  -24.5887  -30.7105   25.7696 H   0  0  0  0  0  0
  -24.8873  -32.2958   26.4718 H   0  0  0  0  0  0
  -25.7957  -30.8996   27.0215 H   0  0  0  0  0  0
  -26.3058  -29.6638   24.1336 H   0  0  0  0  0  0
  -27.3988  -29.7267   25.4950 H   0  0  0  0  0  0
  -27.8980  -30.4157   23.9706 H   0  0  0  0  0  0
  -27.2625  -33.3669   26.1988 H   0  0  0  0  0  0
  -28.3902  -32.6855   25.0358 H   0  0  0  0  0  0
  -28.0664  -31.8524   26.5485 H   0  0  0  0  0  0
  -28.2579  -38.0079   24.7509 H   0  0  0  0  0  0
  -28.1076  -36.2606   24.6300 H   0  0  0  0  0  0
  -27.2285  -37.1427   25.8868 H   0  0  0  0  0  0
  -20.9513  -29.8743   21.6737 H   0  0  0  0  0  0
  -26.0142  -38.2792   24.1413 H   0  0  0  0  0  0
  -31.3668  -21.6099   19.8088 H   0  0  0  0  0  0
  -32.1584  -17.4392   19.9777 H   0  0  0  0  0  0
  -27.4972  -23.8647   21.9994 H   0  0  0  0  0  0
  -26.1571  -23.9056   20.8795 H   0  0  0  0  0  0
  -26.7597  -21.7299   19.9300 H   0  0  0  0  0  0
  -27.2037  -21.4953   21.6119 H   0  0  0  0  0  0
  -30.0130  -23.5442   20.8049 H   0  0  0  0  0  0
  -29.8523  -23.3442   19.0813 H   0  0  0  0  0  0
  -27.6556  -24.3891   19.0241 H   0  0  0  0  0  0
  -28.7694  -16.1157   20.6662 H   0  0  0  0  0  0
  1 25  1  0  0  0
  1 30  2  0  0  0
  1 82  1  0  0  0
  2  3  1  0  0  0
  2 25  1  0  0  0
  2 85  1  0  0  0
  2 86  1  0  0  0
  3  4  1  0  0  0
  3 87  1  0  0  0
  3 88  1  0  0  0
  4  5  1  0  0  0
  4 89  1  0  0  0
  4 90  1  0  0  0
  5  6  1  0  0  0
  5 26  1  0  0  0
  5 91  1  0  0  0
  6 25  1  0  0  0
  6 92  1  0  0  0
  6 93  1  0  0  0
  7  8  2  0  0  0
  7 26  1  0  0  0
  7 29  1  0  0  0
  8  9  1  0  0  0
  8 22  1  0  0  0
  9 10  1  0  0  0
  9 27  2  0  0  0
 10 11  2  0  0  0
 10 15  1  0  0  0
 11 12  1  0  0  0
 11 94  1  0  0  0
 12 13  2  0  0  0
 12 95  1  0  0  0
 13 14  1  0  0  0
 13 31  1  0  0  0
 14 15  2  0  0  0
 14 96  1  0  0  0
 15 97  1  0  0  0
 16 17  2  0  0  0
 16 21  1  0  0  0
 16 31  1  0  0  0
 17 18  1  0  0  0
 17 98  1  0  0  0
 18 19  2  0  0  0
 18 99  1  0  0  0
 19 20  1  0  0  0
 19 24  1  0  0  0
 20 21  2  0  0  0
 20100  1  0  0  0
 21 23  1  0  0  0
 22 28  1  0  0  0
 22 32  2  0  0  0
 26 27  1  0  0  0
 28101  1  0  0  0
 28102  1  0  0  0
 29103  1  0  0  0
 29104  1  0  0  0
 33 34  1  0  0  0
 33 66  1  0  0  0
 33 70  2  0  0  0
 34 36  1  0  0  0
 34 59  1  0  0  0
 34105  1  0  0  0
 35 44  2  0  0  0
 35 45  1  0  0  0
 35 68  1  0  0  0
 36 56  1  0  0  0
 36106  1  0  0  0
 37 39  1  0  0  0
 37 47  1  0  0  0
 37 66  1  0  0  0
 37107  1  0  0  0
 38 43  2  0  0  0
 38 46  1  0  0  0
 38 47  1  0  0  0
 39 64  1  0  0  0
 39 67  2  0  0  0
 40 52  1  0  0  0
 40 53  2  0  0  0
 40 58  1  0  0  0
 41108  1  0  0  0
 41109  1  0  0  0
 41110  1  0  0  0
 41 48  1  0  0  0
 42 43  1  0  0  0
 42 66  1  0  0  0
 42111  1  0  0  0
 42112  1  0  0  0
 43 44  1  0  0  0
 44113  1  0  0  0
 45 46  2  0  0  0
 45114  1  0  0  0
 46115  1  0  0  0
 47116  1  0  0  0
 47117  1  0  0  0
 48 56  1  0  0  0
 48 65  1  0  0  0
 48118  1  0  0  0
 49 50  1  0  0  0
 49 53  1  0  0  0
 49 64  1  0  0  0
 49119  1  0  0  0
 50 51  1  0  0  0
 50120  1  0  0  0
 50121  1  0  0  0
 51 52  1  0  0  0
 51122  1  0  0  0
 51123  1  0  0  0
 52124  1  0  0  0
 52125  1  0  0  0
 53 54  1  0  0  0
 54 55  2  0  0  0
 54126  1  0  0  0
 55 57  1  0  0  0
 55127  1  0  0  0
 56 69  2  0  0  0
 57 58  2  0  0  0
 57128  1  0  0  0
 58129  1  0  0  0
 59 60  1  0  0  0
 59 61  1  0  0  0
 59 62  1  0  0  0
 60130  1  0  0  0
 60131  1  0  0  0
 60132  1  0  0  0
 61133  1  0  0  0
 61134  1  0  0  0
 61135  1  0  0  0
 62136  1  0  0  0
 62137  1  0  0  0
 62138  1  0  0  0
 63 65  1  0  0  0
 63139  1  0  0  0
 63140  1  0  0  0
 63141  1  0  0  0
 64142  1  0  0  0
 65143  1  0  0  0
 68 80  1  0  0  0
 71 73  2  0  0  0
 71 75  1  0  0  0
 71144  1  0  0  0
 72 74  1  0  0  0
 72 75  2  0  0  0
 72145  1  0  0  0
 73 76  1  0  0  0
 73 81  1  0  0  0
 74 76  2  0  0  0
 74 82  1  0  0  0
 75 83  1  0  0  0
 76 84  1  0  0  0
 77 78  1  0  0  0
 77 80  1  0  0  0
 77146  1  0  0  0
 77147  1  0  0  0
 78 81  1  0  0  0
 78148  1  0  0  0
 78149  1  0  0  0
 79 80  1  0  0  0
 79 81  1  0  0  0
 79150  1  0  0  0
 79151  1  0  0  0
 80152  1  0  0  0
 82153  1  0  0  0
M  ISO  4   1 100  68 101  80 101  82 100
M  END
> <chiral flag>
0

> <version>
0

> <s_m_source_file>
/data/baiqing/PycharmProjects/Reinvent-master-3.2/result/LINK_invent/BTK/process_docking_weight1_custom_product_contain_oxygen_bond_distance_aromatic_linkinvent_7_9_3/rearranged_h_0029.sdf

> <i_m_source_file_index>
42

> <r_mmod_Potential_Energy-OPLS-2005>
791.327331542969

> <r_mmod_Stretch_Energy-OPLS-2005>
337.704010009766

> <r_mmod_Bend_Energy-OPLS-2005>
350.207397460938

> <r_mmod_Torsional_Energy-OPLS-2005>
246.051864624023

> <r_mmod_Improper_Torsional_Energy-OPLS-2005>
4.14927673339844

> <r_mmod_Van_der_Waal_Energy-OPLS-2005>
125.878837585449

> <r_mmod_Electrostatic_Energy-OPLS-2005>
-329.599792480469

> <r_mmod_Solvation_Energy-OPLS-2005>
-220.132736206055

> <b_mmod_Minimization_Converged-OPLS-2005>
0

> <r_mmod_RMS_Derivative-OPLS-2005>
0.187352254986763

$$$$
42
                    3D
 Structure written by MMmdl.
157166  0  0  1  0            999 V2000
  -30.5569  -14.8444   20.4568 C   0  0  0  0  0  0
  -30.4459  -12.5253   19.4754 C   0  0  0  0  0  0
  -29.5140  -12.5133   18.2419 C   0  0  0  0  0  0
  -28.0419  -12.3212   18.6580 C   0  0  0  0  0  0
  -27.6350  -13.2352   19.8433 C   0  0  2  0  0  0
  -28.6809  -13.2075   20.9746 C   0  0  0  0  0  0
  -25.2520  -13.8207   20.5739 C   0  0  0  0  0  0
  -24.1814  -13.0445   20.9224 C   0  0  0  0  0  0
  -24.6405  -11.6924   20.8760 C   0  0  0  0  0  0
  -23.9104  -10.4284   21.0414 C   0  0  0  0  0  0
  -24.3627   -9.4185   21.9182 C   0  0  0  0  0  0
  -23.6277   -8.2237   22.0748 C   0  0  0  0  0  0
  -22.4254   -8.0298   21.3544 C   0  0  0  0  0  0
  -21.9917   -9.0291   20.4645 C   0  0  0  0  0  0
  -22.7283  -10.2147   20.3064 C   0  0  0  0  0  0
  -21.6848   -6.0732   22.5282 C   0  0  0  0  0  0
  -21.4019   -6.5634   23.8220 C   0  0  0  0  0  0
  -21.3663   -5.6783   24.9187 C   0  0  0  0  0  0
  -21.6031   -4.3048   24.7226 C   0  0  0  0  0  0
  -21.8823   -3.8133   23.4357 C   0  0  0  0  0  0
  -21.9197   -4.6958   22.3405 C   0  0  0  0  0  0
  -22.7833  -13.5218   21.1908 C   0  0  0  0  0  0
  -22.1665   -4.2146   21.0989 F   0  0  0  0  0  0
  -21.5636   -3.4535   25.7733 F   0  0  0  0  0  0
  -29.9652  -13.5980   20.3786 N   0  0  0  0  0  0
  -26.2914  -12.9403   20.3289 N   0  0  0  0  0  0
  -25.9326  -11.6545   20.5738 N   0  0  0  0  0  0
  -22.0491  -12.8199   22.0469 N   0  0  0  0  0  0
  -25.4203  -15.1926   20.4158 N   0  0  0  0  0  0
  -31.7637  -14.9490   20.2150 O   0  0  0  0  0  0
  -21.6638   -6.8880   21.4235 O   0  0  0  0  0  0
  -22.3518  -14.5525   20.6760 O   0  0  0  0  0  0
  -24.6370  -31.8511   23.1907 C   0  0  0  0  0  0
  -25.9184  -32.4722   23.8282 C   0  0  1  0  0  0
  -27.2222  -27.2131   20.1292 C   0  0  0  0  0  0
  -25.5957  -33.8520   24.2210 N   0  0  0  0  0  0
  -23.4381  -30.4707   21.5359 C   0  0  2  0  0  0
  -24.8855  -28.9083   20.1050 C   0  0  0  0  0  0
  -22.7528  -29.4596   22.4874 C   0  0  0  0  0  0
  -18.0329  -28.1364   22.8452 C   0  0  0  0  0  0
  -24.1494  -36.7263   23.2640 C   0  0  0  0  0  0
  -25.9877  -30.7461   21.3783 C   0  0  0  0  0  0
  -26.0595  -29.3643   20.7170 C   0  0  0  0  0  0
  -27.2339  -28.5335   20.7094 C   0  0  0  0  0  0
  -26.0251  -26.8374   19.4843 C   0  0  0  0  0  0
  -24.8752  -27.6554   19.4723 C   0  0  0  0  0  0
  -23.6578  -29.8015   20.1536 C   0  0  0  0  0  0
  -25.4122  -36.3044   24.0316 C   0  0  1  0  0  0
  -20.5913  -28.3734   23.1248 C   0  0  2  0  0  0
  -20.6841  -26.9450   22.5392 C   0  0  0  0  0  0
  -19.5822  -26.6357   21.5207 C   0  0  0  0  0  0
  -18.2001  -26.7904   22.1598 C   0  0  0  0  0  0
  -19.1555  -28.8870   23.2850 C   0  0  0  0  0  0
  -18.9457  -30.1463   23.8894 C   0  0  0  0  0  0
  -17.6447  -30.6573   24.0537 C   0  0  0  0  0  0
  -25.9076  -34.9427   23.5072 C   0  0  0  0  0  0
  -16.5358  -29.9049   23.6295 C   0  0  0  0  0  0
  -16.7310  -28.6455   23.0335 C   0  0  0  0  0  0
  -26.4518  -31.6565   25.0706 C   0  0  0  0  0  0
  -25.3707  -31.3764   26.1404 C   0  0  0  0  0  0
  -27.0383  -30.2971   24.6252 C   0  0  0  0  0  0
  -27.6064  -32.4317   25.7490 C   0  0  0  0  0  0
  -27.5579  -37.1789   24.8465 C   0  0  0  0  0  0
  -21.4233  -29.3053   22.3598 N   0  0  0  0  0  0
  -26.4287  -37.3753   23.9414 N   0  0  0  0  0  0
  -24.7075  -31.0431   22.0906 N   0  0  0  0  0  0
  -23.4199  -28.8140   23.3005 O   0  0  0  0  0  0
  -28.2996  -26.2785   20.1833 O   0  0  0  0  0  0
  -26.5636  -34.8909   22.4645 O   0  0  0  0  0  0
  -23.5502  -32.1348   23.7169 O   0  0  0  0  0  0
  -29.8680  -20.1064   22.0538 C   0  0  0  0  0  0
  -30.2002  -18.9736   22.8285 C   0  0  0  0  0  0
  -29.4978  -18.6121   20.1778 C   0  0  0  0  0  0
  -29.5087  -19.9949   20.6965 C   0  0  0  0  0  0
  -30.2077  -17.6575   22.3039 C   0  0  0  0  0  0
  -29.8644  -17.4079   20.9462 C   0  0  0  0  0  0
  -28.2348  -23.7010   19.2262 C   0  0  0  0  0  0
  -29.0132  -23.7802   21.0642 C   0  0  0  0  0  0
  -28.0134  -24.7800   20.3486 C   0  0  1  0  0  0
  -30.5520  -16.5217   23.2598 C   0  0  0  0  0  0
  -29.3356  -21.3755   19.8494 C   0  0  0  0  0  0
  -29.7179  -15.9748   20.4933 N   0  0  0  0  0  0
  -28.4836  -22.6245   20.2555 N   0  3  1  0  0  0
  -31.4799  -12.6924   19.1684 H   0  0  0  0  0  0
  -30.4410  -11.5633   19.9878 H   0  0  0  0  0  0
  -29.8154  -11.7248   17.5511 H   0  0  0  0  0  0
  -29.6163  -13.4548   17.6987 H   0  0  0  0  0  0
  -27.9139  -11.2750   18.9357 H   0  0  0  0  0  0
  -27.3820  -12.4924   17.8069 H   0  0  0  0  0  0
  -27.6125  -14.2457   19.4337 H   0  0  0  0  0  0
  -28.7431  -12.2175   21.4263 H   0  0  0  0  0  0
  -28.4014  -13.8950   21.7767 H   0  0  0  0  0  0
  -25.2779   -9.5663   22.4753 H   0  0  0  0  0  0
  -23.9996   -7.4624   22.7457 H   0  0  0  0  0  0
  -21.0852   -8.8829   19.8939 H   0  0  0  0  0  0
  -22.3761  -10.9694   19.6165 H   0  0  0  0  0  0
  -21.2025   -7.6138   23.9717 H   0  0  0  0  0  0
  -21.1465   -6.0520   25.9084 H   0  0  0  0  0  0
  -22.0592   -2.7605   23.2861 H   0  0  0  0  0  0
  -22.4085  -11.9823   22.4789 H   0  0  0  0  0  0
  -21.1111  -13.1204   22.2720 H   0  0  0  0  0  0
  -24.6529  -15.8464   20.5330 H   0  0  0  0  0  0
  -26.2665  -15.6351   20.0817 H   0  0  0  0  0  0
  -26.7257  -32.5376   23.1023 H   0  0  0  0  0  0
  -25.0146  -33.9642   25.0378 H   0  0  0  0  0  0
  -22.7389  -31.2968   21.3849 H   0  0  0  0  0  0
  -23.3755  -35.9599   23.3294 H   0  0  0  0  0  0
  -24.3578  -36.8894   22.2055 H   0  0  0  0  0  0
  -23.7227  -37.6458   23.6665 H   0  0  0  0  0  0
  -26.1405  -31.5085   20.6131 H   0  0  0  0  0  0
  -26.8602  -30.7915   22.0189 H   0  0  0  0  0  0
  -28.1363  -28.8791   21.1937 H   0  0  0  0  0  0
  -25.9590  -25.8809   18.9882 H   0  0  0  0  0  0
  -23.9787  -27.3058   18.9763 H   0  0  0  0  0  0
  -23.7872  -30.5781   19.3981 H   0  0  0  0  0  0
  -22.7732  -29.2417   19.8443 H   0  0  0  0  0  0
  -25.1294  -36.1903   25.0798 H   0  0  0  0  0  0
  -21.0027  -28.3338   24.1359 H   0  0  0  0  0  0
  -20.5809  -26.2358   23.3605 H   0  0  0  0  0  0
  -21.6717  -26.7499   22.1174 H   0  0  0  0  0  0
  -19.7035  -25.6267   21.1267 H   0  0  0  0  0  0
  -19.6765  -27.3145   20.6709 H   0  0  0  0  0  0
  -17.4266  -26.6641   21.4004 H   0  0  0  0  0  0
  -18.0402  -26.0056   22.9004 H   0  0  0  0  0  0
  -19.7927  -30.7271   24.2291 H   0  0  0  0  0  0
  -17.4982  -31.6264   24.5119 H   0  0  0  0  0  0
  -15.5354  -30.2947   23.7576 H   0  0  0  0  0  0
  -15.8717  -28.0764   22.7038 H   0  0  0  0  0  0
  -24.5881  -30.7112   25.7726 H   0  0  0  0  0  0
  -24.8891  -32.2957   26.4759 H   0  0  0  0  0  0
  -25.7985  -30.8984   27.0223 H   0  0  0  0  0  0
  -26.2995  -29.6700   24.1243 H   0  0  0  0  0  0
  -27.4002  -29.7263   25.4810 H   0  0  0  0  0  0
  -27.8898  -30.4214   23.9556 H   0  0  0  0  0  0
  -27.2665  -33.3625   26.2035 H   0  0  0  0  0  0
  -28.3897  -32.6856   25.0339 H   0  0  0  0  0  0
  -28.0707  -31.8463   26.5430 H   0  0  0  0  0  0
  -28.2586  -38.0095   24.7504 H   0  0  0  0  0  0
  -28.1081  -36.2618   24.6297 H   0  0  0  0  0  0
  -27.2302  -37.1451   25.8870 H   0  0  0  0  0  0
  -20.9440  -29.8748   21.6750 H   0  0  0  0  0  0
  -26.0170  -38.2837   24.1396 H   0  0  0  0  0  0
  -29.9201  -21.0833   22.5162 H   0  0  0  0  0  0
  -30.4531  -19.1344   23.8691 H   0  0  0  0  0  0
  -29.2169  -18.4736   19.1438 H   0  0  0  0  0  0
  -29.1151  -23.8991   18.6104 H   0  0  0  0  0  0
  -27.3628  -23.5134   18.5993 H   0  0  0  0  0  0
  -28.8400  -23.6753   22.1351 H   0  0  0  0  0  0
  -30.0643  -23.9940   20.8628 H   0  0  0  0  0  0
  -27.0197  -24.6575   20.7870 H   0  0  0  0  0  0
  -31.5337  -16.1097   23.0263 H   0  0  0  0  0  0
  -29.8186  -15.7175   23.2055 H   0  0  0  0  0  0
  -30.5709  -16.8668   24.2948 H   0  0  0  0  0  0
  -28.9706  -21.0729   18.8678 H   0  0  0  0  0  0
  -30.3452  -21.7432   19.6616 H   0  0  0  0  0  0
  -28.7562  -15.7078   20.3537 H   0  0  0  0  0  0
  -27.5944  -22.3151   20.6189 H   0  0  0  0  0  0
  1 25  1  0  0  0
  1 30  2  0  0  0
  1 82  1  0  0  0
  2  3  1  0  0  0
  2 25  1  0  0  0
  2 84  1  0  0  0
  2 85  1  0  0  0
  3  4  1  0  0  0
  3 86  1  0  0  0
  3 87  1  0  0  0
  4  5  1  0  0  0
  4 88  1  0  0  0
  4 89  1  0  0  0
  5  6  1  0  0  0
  5 26  1  0  0  0
  5 90  1  0  0  0
  6 25  1  0  0  0
  6 91  1  0  0  0
  6 92  1  0  0  0
  7  8  2  0  0  0
  7 26  1  0  0  0
  7 29  1  0  0  0
  8  9  1  0  0  0
  8 22  1  0  0  0
  9 10  1  0  0  0
  9 27  2  0  0  0
 10 11  2  0  0  0
 10 15  1  0  0  0
 11 12  1  0  0  0
 11 93  1  0  0  0
 12 13  2  0  0  0
 12 94  1  0  0  0
 13 14  1  0  0  0
 13 31  1  0  0  0
 14 15  2  0  0  0
 14 95  1  0  0  0
 15 96  1  0  0  0
 16 17  2  0  0  0
 16 21  1  0  0  0
 16 31  1  0  0  0
 17 18  1  0  0  0
 17 97  1  0  0  0
 18 19  2  0  0  0
 18 98  1  0  0  0
 19 20  1  0  0  0
 19 24  1  0  0  0
 20 21  2  0  0  0
 20 99  1  0  0  0
 21 23  1  0  0  0
 22 28  1  0  0  0
 22 32  2  0  0  0
 26 27  1  0  0  0
 28100  1  0  0  0
 28101  1  0  0  0
 29102  1  0  0  0
 29103  1  0  0  0
 33 34  1  0  0  0
 33 66  1  0  0  0
 33 70  2  0  0  0
 34 36  1  0  0  0
 34 59  1  0  0  0
 34104  1  0  0  0
 35 44  2  0  0  0
 35 45  1  0  0  0
 35 68  1  0  0  0
 36 56  1  0  0  0
 36105  1  0  0  0
 37 39  1  0  0  0
 37 47  1  0  0  0
 37 66  1  0  0  0
 37106  1  0  0  0
 38 43  2  0  0  0
 38 46  1  0  0  0
 38 47  1  0  0  0
 39 64  1  0  0  0
 39 67  2  0  0  0
 40 52  1  0  0  0
 40 53  2  0  0  0
 40 58  1  0  0  0
 41107  1  0  0  0
 41108  1  0  0  0
 41109  1  0  0  0
 41 48  1  0  0  0
 42 43  1  0  0  0
 42 66  1  0  0  0
 42110  1  0  0  0
 42111  1  0  0  0
 43 44  1  0  0  0
 44112  1  0  0  0
 45 46  2  0  0  0
 45113  1  0  0  0
 46114  1  0  0  0
 47115  1  0  0  0
 47116  1  0  0  0
 48 56  1  0  0  0
 48 65  1  0  0  0
 48117  1  0  0  0
 49 50  1  0  0  0
 49 53  1  0  0  0
 49 64  1  0  0  0
 49118  1  0  0  0
 50 51  1  0  0  0
 50119  1  0  0  0
 50120  1  0  0  0
 51 52  1  0  0  0
 51121  1  0  0  0
 51122  1  0  0  0
 52123  1  0  0  0
 52124  1  0  0  0
 53 54  1  0  0  0
 54 55  2  0  0  0
 54125  1  0  0  0
 55 57  1  0  0  0
 55126  1  0  0  0
 56 69  2  0  0  0
 57 58  2  0  0  0
 57127  1  0  0  0
 58128  1  0  0  0
 59 60  1  0  0  0
 59 61  1  0  0  0
 59 62  1  0  0  0
 60129  1  0  0  0
 60130  1  0  0  0
 60131  1  0  0  0
 61132  1  0  0  0
 61133  1  0  0  0
 61134  1  0  0  0
 62135  1  0  0  0
 62136  1  0  0  0
 62137  1  0  0  0
 63 65  1  0  0  0
 63138  1  0  0  0
 63139  1  0  0  0
 63140  1  0  0  0
 64141  1  0  0  0
 65142  1  0  0  0
 68 79  1  0  0  0
 71 72  2  0  0  0
 71 74  1  0  0  0
 71143  1  0  0  0
 72 75  1  0  0  0
 72144  1  0  0  0
 73 74  2  0  0  0
 73 76  1  0  0  0
 73145  1  0  0  0
 74 81  1  0  0  0
 75 76  2  0  0  0
 75 80  1  0  0  0
 76 82  1  0  0  0
 77 79  1  0  0  0
 77 83  1  0  0  0
 77146  1  0  0  0
 77147  1  0  0  0
 78 79  1  0  0  0
 78 83  1  0  0  0
 78148  1  0  0  0
 78149  1  0  0  0
 79150  1  0  0  0
 80151  1  0  0  0
 80152  1  0  0  0
 80153  1  0  0  0
 81154  1  0  0  0
 81155  1  0  0  0
 81 83  1  0  0  0
 82156  1  0  0  0
 83157  1  0  0  0
M  CHG  1  83   1
M  ISO  4   1 100  68 101  79 101  82 100
M  END
> <chiral flag>
0

> <version>
0

> <s_m_source_file>
/data/baiqing/PycharmProjects/Reinvent-master-3.2/result/LINK_invent/BTK/process_docking_weight1_custom_product_contain_oxygen_bond_distance_aromatic_linkinvent_7_9_3/rearranged_h_0029.sdf

> <i_m_source_file_index>
43

> <r_mmod_Potential_Energy-OPLS-2005>
119.004707336426

> <r_mmod_Stretch_Energy-OPLS-2005>
170.495391845703

> <r_mmod_Bend_Energy-OPLS-2005>
230.958282470703

> <r_mmod_Torsional_Energy-OPLS-2005>
258.835479736328

> <r_mmod_Improper_Torsional_Energy-OPLS-2005>
9.76173400878906

> <r_mmod_Van_der_Waal_Energy-OPLS-2005>
132.257263183594

> <r_mmod_Electrostatic_Energy-OPLS-2005>
-328.517730712891

> <r_mmod_Solvation_Energy-OPLS-2005>
-485.252410888672

> <b_mmod_Minimization_Converged-OPLS-2005>
0

> <r_mmod_RMS_Derivative-OPLS-2005>
3.84535574913025

$$$$
43
                    3D
 Structure written by MMmdl.
156165  0  0  1  0            999 V2000
  -30.6400  -14.7114   20.5046 C   0  0  0  0  0  0
  -30.4237  -12.4479   19.4649 C   0  0  0  0  0  0
  -29.5023  -12.5179   18.2275 C   0  0  0  0  0  0
  -28.0249  -12.3530   18.6348 C   0  0  0  0  0  0
  -27.6417  -13.2292   19.8572 C   0  0  2  0  0  0
  -28.6847  -13.1070   20.9850 C   0  0  0  0  0  0
  -25.2509  -13.8204   20.5706 C   0  0  0  0  0  0
  -24.1795  -13.0446   20.9207 C   0  0  0  0  0  0
  -24.6382  -11.6921   20.8746 C   0  0  0  0  0  0
  -23.9064  -10.4297   21.0412 C   0  0  0  0  0  0
  -24.3619   -9.4215   21.9187 C   0  0  0  0  0  0
  -23.6296   -8.2249   22.0752 C   0  0  0  0  0  0
  -22.4277   -8.0286   21.3541 C   0  0  0  0  0  0
  -21.9915   -9.0262   20.4643 C   0  0  0  0  0  0
  -22.7242  -10.2143   20.3059 C   0  0  0  0  0  0
  -21.6854   -6.0744   22.5278 C   0  0  0  0  0  0
  -21.4015   -6.5646   23.8213 C   0  0  0  0  0  0
  -21.3658   -5.6793   24.9173 C   0  0  0  0  0  0
  -21.6044   -4.3057   24.7222 C   0  0  0  0  0  0
  -21.8820   -3.8154   23.4341 C   0  0  0  0  0  0
  -21.9190   -4.6970   22.3398 C   0  0  0  0  0  0
  -22.7821  -13.5232   21.1879 C   0  0  0  0  0  0
  -22.1661   -4.2159   21.0975 F   0  0  0  0  0  0
  -21.5627   -3.4537   25.7737 F   0  0  0  0  0  0
  -29.9808  -13.4997   20.4151 N   0  0  0  0  0  0
  -26.2925  -12.9400   20.3299 N   0  0  0  0  0  0
  -25.9306  -11.6539   20.5746 N   0  0  0  0  0  0
  -22.0463  -12.8209   22.0429 N   0  0  0  0  0  0
  -25.4229  -15.1925   20.4160 N   0  0  0  0  0  0
  -31.8090  -14.7668   20.1074 O   0  0  0  0  0  0
  -21.6636   -6.8887   21.4241 O   0  0  0  0  0  0
  -22.3507  -14.5542   20.6739 O   0  0  0  0  0  0
  -24.6309  -31.8554   23.1981 C   0  0  0  0  0  0
  -25.9140  -32.4752   23.8321 C   0  0  1  0  0  0
  -27.2192  -27.2789   20.1183 C   0  0  0  0  0  0
  -25.5955  -33.8559   24.2256 N   0  0  0  0  0  0
  -23.4254  -30.4787   21.5410 C   0  0  2  0  0  0
  -24.8706  -28.9248   20.1082 C   0  0  0  0  0  0
  -22.7497  -29.4605   22.4906 C   0  0  0  0  0  0
  -18.0296  -28.1386   22.8483 C   0  0  0  0  0  0
  -24.1487  -36.7282   23.2637 C   0  0  0  0  0  0
  -25.9693  -30.7716   21.3758 C   0  0  0  0  0  0
  -26.0396  -29.3955   20.7175 C   0  0  0  0  0  0
  -27.2148  -28.5827   20.7134 C   0  0  0  0  0  0
  -26.0267  -26.8640   19.4866 C   0  0  0  0  0  0
  -24.8678  -27.6664   19.4852 C   0  0  0  0  0  0
  -23.6424  -29.8124   20.1564 C   0  0  0  0  0  0
  -25.4117  -36.3066   24.0321 C   0  0  1  0  0  0
  -20.5898  -28.3695   23.1269 C   0  0  2  0  0  0
  -20.6790  -26.9410   22.5409 C   0  0  0  0  0  0
  -19.5764  -26.6372   21.5216 C   0  0  0  0  0  0
  -18.1934  -26.7929   22.1615 C   0  0  0  0  0  0
  -19.1549  -28.8858   23.2868 C   0  0  0  0  0  0
  -18.9474  -30.1466   23.8875 C   0  0  0  0  0  0
  -17.6476  -30.6589   24.0562 C   0  0  0  0  0  0
  -25.9057  -34.9439   23.5083 C   0  0  0  0  0  0
  -16.5369  -29.9083   23.6339 C   0  0  0  0  0  0
  -16.7285  -28.6505   23.0349 C   0  0  0  0  0  0
  -26.4510  -31.6583   25.0711 C   0  0  0  0  0  0
  -25.3732  -31.3764   26.1443 C   0  0  0  0  0  0
  -27.0360  -30.2997   24.6201 C   0  0  0  0  0  0
  -27.6059  -32.4339   25.7483 C   0  0  0  0  0  0
  -27.5581  -37.1794   24.8462 C   0  0  0  0  0  0
  -21.4203  -29.3047   22.3654 N   0  0  0  0  0  0
  -26.4288  -37.3767   23.9410 N   0  0  0  0  0  0
  -24.6943  -31.0534   22.0948 N   0  0  0  0  0  0
  -23.4204  -28.8141   23.2994 O   0  0  0  0  0  0
  -28.3360  -26.4233   20.1885 O   0  0  0  0  0  0
  -26.5610  -34.8908   22.4641 O   0  0  0  0  0  0
  -23.5466  -32.1378   23.7285 O   0  0  0  0  0  0
  -28.5974  -19.1340   20.6082 C   0  0  0  0  0  0
  -30.3574  -21.1583   19.9386 C   0  0  0  0  0  0
  -29.8969  -18.7055   20.2144 C   0  0  0  0  0  0
  -29.0811  -21.6273   20.3556 C   0  0  0  0  0  0
  -28.2120  -20.5232   20.6794 C   0  0  0  0  0  0
  -30.7552  -19.7898   19.8604 C   0  0  0  0  0  0
  -27.5510  -23.8294   20.3890 C   0  0  0  0  0  0
  -29.6032  -24.1593   19.8425 C   0  0  0  0  0  0
  -28.3024  -25.0163   19.6768 C   0  0  0  0  0  0
  -29.1999  -16.1300   21.9540 C   0  0  0  0  0  0
  -30.4279  -17.1984   20.0482 C   0  0  0  0  0  0
  -28.8230  -23.0923   20.4865 N   0  0  0  0  0  0
  -29.9376  -15.9087   20.7080 N   0  0  0  0  0  0
  -26.6025  -20.8511   21.2160 Cl  0  0  0  0  0  0
  -32.3600  -19.4825   19.2929 Cl  0  0  0  0  0  0
  -31.4640  -12.5645   19.1569 H   0  0  0  0  0  0
  -30.3689  -11.4622   19.9303 H   0  0  0  0  0  0
  -29.7791  -11.7483   17.5059 H   0  0  0  0  0  0
  -29.6376  -13.4752   17.7212 H   0  0  0  0  0  0
  -27.8642  -11.3005   18.8693 H   0  0  0  0  0  0
  -27.3727  -12.5788   17.7900 H   0  0  0  0  0  0
  -27.6520  -14.2638   19.5129 H   0  0  0  0  0  0
  -28.7260  -12.0805   21.3524 H   0  0  0  0  0  0
  -28.3968  -13.7014   21.8469 H   0  0  0  0  0  0
  -25.2762   -9.5692   22.4763 H   0  0  0  0  0  0
  -24.0010   -7.4636   22.7468 H   0  0  0  0  0  0
  -21.0851   -8.8785   19.8944 H   0  0  0  0  0  0
  -22.3705  -10.9686   19.6171 H   0  0  0  0  0  0
  -21.2013   -7.6152   23.9725 H   0  0  0  0  0  0
  -21.1478   -6.0520   25.9077 H   0  0  0  0  0  0
  -22.0598   -2.7617   23.2837 H   0  0  0  0  0  0
  -22.4083  -11.9860   22.4794 H   0  0  0  0  0  0
  -21.1088  -13.1247   22.2655 H   0  0  0  0  0  0
  -24.6638  -15.8524   20.5449 H   0  0  0  0  0  0
  -26.2824  -15.6299   20.1087 H   0  0  0  0  0  0
  -26.7200  -32.5399   23.1054 H   0  0  0  0  0  0
  -25.0182  -33.9703   25.0458 H   0  0  0  0  0  0
  -22.7211  -31.3009   21.3956 H   0  0  0  0  0  0
  -23.3754  -35.9608   23.3286 H   0  0  0  0  0  0
  -24.3584  -36.8925   22.2056 H   0  0  0  0  0  0
  -23.7231  -37.6471   23.6681 H   0  0  0  0  0  0
  -26.1074  -31.5313   20.6054 H   0  0  0  0  0  0
  -26.8473  -30.8194   22.0080 H   0  0  0  0  0  0
  -28.1123  -28.9366   21.2012 H   0  0  0  0  0  0
  -25.9597  -25.8992   19.0069 H   0  0  0  0  0  0
  -23.9699  -27.3004   19.0053 H   0  0  0  0  0  0
  -23.7694  -30.5903   19.4020 H   0  0  0  0  0  0
  -22.7599  -29.2484   19.8498 H   0  0  0  0  0  0
  -25.1294  -36.1908   25.0809 H   0  0  0  0  0  0
  -20.9996  -28.3276   24.1389 H   0  0  0  0  0  0
  -20.5712  -26.2295   23.3613 H   0  0  0  0  0  0
  -21.6654  -26.7447   22.1194 H   0  0  0  0  0  0
  -19.6925  -25.6277   21.1265 H   0  0  0  0  0  0
  -19.6711  -27.3169   20.6736 H   0  0  0  0  0  0
  -17.4218  -26.6704   21.3996 H   0  0  0  0  0  0
  -18.0309  -26.0061   22.8991 H   0  0  0  0  0  0
  -19.7951  -30.7296   24.2217 H   0  0  0  0  0  0
  -17.5029  -31.6266   24.5170 H   0  0  0  0  0  0
  -15.5368  -30.2985   23.7674 H   0  0  0  0  0  0
  -15.8683  -28.0840   22.7047 H   0  0  0  0  0  0
  -24.5887  -30.7130   25.7793 H   0  0  0  0  0  0
  -24.8950  -32.2957   26.4845 H   0  0  0  0  0  0
  -25.8042  -30.8965   27.0239 H   0  0  0  0  0  0
  -26.2949  -29.6730   24.1236 H   0  0  0  0  0  0
  -27.4059  -29.7279   25.4722 H   0  0  0  0  0  0
  -27.8809  -30.4274   23.9430 H   0  0  0  0  0  0
  -27.2672  -33.3676   26.1995 H   0  0  0  0  0  0
  -28.3902  -32.6854   25.0326 H   0  0  0  0  0  0
  -28.0685  -31.8504   26.5455 H   0  0  0  0  0  0
  -28.2584  -38.0101   24.7523 H   0  0  0  0  0  0
  -28.1091  -36.2636   24.6277 H   0  0  0  0  0  0
  -27.2307  -37.1438   25.8864 H   0  0  0  0  0  0
  -20.9383  -29.8791   21.6883 H   0  0  0  0  0  0
  -26.0162  -38.2834   24.1426 H   0  0  0  0  0  0
  -27.8601  -18.3880   20.8636 H   0  0  0  0  0  0
  -31.1019  -21.8911   19.6680 H   0  0  0  0  0  0
  -26.8219  -23.3432   19.7394 H   0  0  0  0  0  0
  -27.1287  -24.0845   21.3612 H   0  0  0  0  0  0
  -30.3418  -24.5993   20.5136 H   0  0  0  0  0  0
  -30.0404  -23.8700   18.8857 H   0  0  0  0  0  0
  -28.0425  -25.0359   18.6174 H   0  0  0  0  0  0
  -28.1248  -16.0681   21.7833 H   0  0  0  0  0  0
  -29.4186  -17.1072   22.3835 H   0  0  0  0  0  0
  -29.4750  -15.4068   22.7234 H   0  0  0  0  0  0
  -31.4783  -17.2481   20.3341 H   0  0  0  0  0  0
  -30.4316  -17.0067   18.9741 H   0  0  0  0  0  0
  1 25  1  0  0  0
  1 30  2  0  0  0
  1 83  1  0  0  0
  2  3  1  0  0  0
  2 25  1  0  0  0
  2 86  1  0  0  0
  2 87  1  0  0  0
  3  4  1  0  0  0
  3 88  1  0  0  0
  3 89  1  0  0  0
  4  5  1  0  0  0
  4 90  1  0  0  0
  4 91  1  0  0  0
  5  6  1  0  0  0
  5 26  1  0  0  0
  5 92  1  0  0  0
  6 25  1  0  0  0
  6 93  1  0  0  0
  6 94  1  0  0  0
  7  8  2  0  0  0
  7 26  1  0  0  0
  7 29  1  0  0  0
  8  9  1  0  0  0
  8 22  1  0  0  0
  9 10  1  0  0  0
  9 27  2  0  0  0
 10 11  2  0  0  0
 10 15  1  0  0  0
 11 12  1  0  0  0
 11 95  1  0  0  0
 12 13  2  0  0  0
 12 96  1  0  0  0
 13 14  1  0  0  0
 13 31  1  0  0  0
 14 15  2  0  0  0
 14 97  1  0  0  0
 15 98  1  0  0  0
 16 17  2  0  0  0
 16 21  1  0  0  0
 16 31  1  0  0  0
 17 18  1  0  0  0
 17 99  1  0  0  0
 18 19  2  0  0  0
 18100  1  0  0  0
 19 20  1  0  0  0
 19 24  1  0  0  0
 20 21  2  0  0  0
 20101  1  0  0  0
 21 23  1  0  0  0
 22 28  1  0  0  0
 22 32  2  0  0  0
 26 27  1  0  0  0
 28102  1  0  0  0
 28103  1  0  0  0
 29104  1  0  0  0
 29105  1  0  0  0
 33 34  1  0  0  0
 33 66  1  0  0  0
 33 70  2  0  0  0
 34 36  1  0  0  0
 34 59  1  0  0  0
 34106  1  0  0  0
 35 44  2  0  0  0
 35 45  1  0  0  0
 35 68  1  0  0  0
 36 56  1  0  0  0
 36107  1  0  0  0
 37 39  1  0  0  0
 37 47  1  0  0  0
 37 66  1  0  0  0
 37108  1  0  0  0
 38 43  2  0  0  0
 38 46  1  0  0  0
 38 47  1  0  0  0
 39 64  1  0  0  0
 39 67  2  0  0  0
 40 52  1  0  0  0
 40 53  2  0  0  0
 40 58  1  0  0  0
 41109  1  0  0  0
 41110  1  0  0  0
 41111  1  0  0  0
 41 48  1  0  0  0
 42 43  1  0  0  0
 42 66  1  0  0  0
 42112  1  0  0  0
 42113  1  0  0  0
 43 44  1  0  0  0
 44114  1  0  0  0
 45 46  2  0  0  0
 45115  1  0  0  0
 46116  1  0  0  0
 47117  1  0  0  0
 47118  1  0  0  0
 48 56  1  0  0  0
 48 65  1  0  0  0
 48119  1  0  0  0
 49 50  1  0  0  0
 49 53  1  0  0  0
 49 64  1  0  0  0
 49120  1  0  0  0
 50 51  1  0  0  0
 50121  1  0  0  0
 50122  1  0  0  0
 51 52  1  0  0  0
 51123  1  0  0  0
 51124  1  0  0  0
 52125  1  0  0  0
 52126  1  0  0  0
 53 54  1  0  0  0
 54 55  2  0  0  0
 54127  1  0  0  0
 55 57  1  0  0  0
 55128  1  0  0  0
 56 69  2  0  0  0
 57 58  2  0  0  0
 57129  1  0  0  0
 58130  1  0  0  0
 59 60  1  0  0  0
 59 61  1  0  0  0
 59 62  1  0  0  0
 60131  1  0  0  0
 60132  1  0  0  0
 60133  1  0  0  0
 61134  1  0  0  0
 61135  1  0  0  0
 61136  1  0  0  0
 62137  1  0  0  0
 62138  1  0  0  0
 62139  1  0  0  0
 63 65  1  0  0  0
 63140  1  0  0  0
 63141  1  0  0  0
 63142  1  0  0  0
 64143  1  0  0  0
 65144  1  0  0  0
 68 79  1  0  0  0
 71 73  2  0  0  0
 71 75  1  0  0  0
 71145  1  0  0  0
 72 74  1  0  0  0
 72 76  2  0  0  0
 72146  1  0  0  0
 73 76  1  0  0  0
 73 81  1  0  0  0
 74 75  2  0  0  0
 74 82  1  0  0  0
 75 84  1  0  0  0
 76 85  1  0  0  0
 77 79  1  0  0  0
 77 82  1  0  0  0
 77147  1  0  0  0
 77148  1  0  0  0
 78 79  1  0  0  0
 78 82  1  0  0  0
 78149  1  0  0  0
 78150  1  0  0  0
 79151  1  0  0  0
 80 83  1  0  0  0
 80152  1  0  0  0
 80153  1  0  0  0
 80154  1  0  0  0
 81 83  1  0  0  0
 81155  1  0  0  0
 81156  1  0  0  0
M  ISO  4   1 100  68 101  79 101  83 100
M  END
> <chiral flag>
0

> <version>
0

> <s_m_source_file>
/data/baiqing/PycharmProjects/Reinvent-master-3.2/result/LINK_invent/BTK/process_docking_weight1_custom_product_contain_oxygen_bond_distance_aromatic_linkinvent_7_9_3/rearranged_h_0029.sdf

> <i_m_source_file_index>
44

> <r_mmod_Potential_Energy-OPLS-2005>
378.447937011719

> <r_mmod_Stretch_Energy-OPLS-2005>
112.693389892578

> <r_mmod_Bend_Energy-OPLS-2005>
254.910263061523

> <r_mmod_Torsional_Energy-OPLS-2005>
275.722595214844

> <r_mmod_Improper_Torsional_Energy-OPLS-2005>
15.1015844345093

> <r_mmod_Van_der_Waal_Energy-OPLS-2005>
147.197967529297

> <r_mmod_Electrostatic_Energy-OPLS-2005>
-275.615478515625

> <r_mmod_Solvation_Energy-OPLS-2005>
-219.757202148438

> <b_mmod_Minimization_Converged-OPLS-2005>
0

> <r_mmod_RMS_Derivative-OPLS-2005>
1.33344519138336

$$$$
44
                    3D
 Structure written by MMmdl.
158167  0  0  1  0            999 V2000
  -30.5772  -14.7643   20.4679 C   0  0  0  0  0  0
  -30.4437  -12.4723   19.4587 C   0  0  0  0  0  0
  -29.5127  -12.5149   18.2267 C   0  0  0  0  0  0
  -28.0383  -12.3305   18.6434 C   0  0  0  0  0  0
  -27.6403  -13.2270   19.8461 C   0  0  2  0  0  0
  -28.6888  -13.1584   20.9766 C   0  0  0  0  0  0
  -25.2506  -13.8180   20.5683 C   0  0  0  0  0  0
  -24.1801  -13.0430   20.9214 C   0  0  0  0  0  0
  -24.6396  -11.6906   20.8750 C   0  0  0  0  0  0
  -23.9070  -10.4289   21.0403 C   0  0  0  0  0  0
  -24.3619   -9.4202   21.9183 C   0  0  0  0  0  0
  -23.6291   -8.2240   22.0756 C   0  0  0  0  0  0
  -22.4272   -8.0280   21.3546 C   0  0  0  0  0  0
  -21.9910   -9.0256   20.4647 C   0  0  0  0  0  0
  -22.7243  -10.2133   20.3048 C   0  0  0  0  0  0
  -21.6853   -6.0729   22.5279 C   0  0  0  0  0  0
  -21.4020   -6.5631   23.8213 C   0  0  0  0  0  0
  -21.3663   -5.6785   24.9176 C   0  0  0  0  0  0
  -21.6042   -4.3046   24.7226 C   0  0  0  0  0  0
  -21.8815   -3.8138   23.4346 C   0  0  0  0  0  0
  -21.9196   -4.6957   22.3401 C   0  0  0  0  0  0
  -22.7823  -13.5213   21.1867 C   0  0  0  0  0  0
  -22.1656   -4.2141   21.0980 F   0  0  0  0  0  0
  -21.5633   -3.4530   25.7738 F   0  0  0  0  0  0
  -29.9810  -13.5268   20.3861 N   0  0  0  0  0  0
  -26.2931  -12.9381   20.3260 N   0  0  0  0  0  0
  -25.9326  -11.6529   20.5749 N   0  0  0  0  0  0
  -22.0458  -12.8220   22.0428 N   0  0  0  0  0  0
  -25.4158  -15.1912   20.4083 N   0  0  0  0  0  0
  -31.7800  -14.8882   20.2195 O   0  0  0  0  0  0
  -21.6640   -6.8875   21.4240 O   0  0  0  0  0  0
  -22.3513  -14.5517   20.6702 O   0  0  0  0  0  0
  -24.6304  -31.8539   23.1934 C   0  0  0  0  0  0
  -25.9126  -32.4749   23.8294 C   0  0  1  0  0  0
  -27.2330  -27.2622   20.1461 C   0  0  0  0  0  0
  -25.5909  -33.8551   24.2214 N   0  0  0  0  0  0
  -23.4281  -30.4707   21.5376 C   0  0  2  0  0  0
  -24.8777  -28.9023   20.1221 C   0  0  0  0  0  0
  -22.7496  -29.4588   22.4921 C   0  0  0  0  0  0
  -18.0291  -28.1381   22.8486 C   0  0  0  0  0  0
  -24.1487  -36.7290   23.2641 C   0  0  0  0  0  0
  -25.9711  -30.7691   21.3696 C   0  0  0  0  0  0
  -26.0476  -29.3861   20.7219 C   0  0  0  0  0  0
  -27.2313  -28.5824   20.7101 C   0  0  0  0  0  0
  -26.0385  -26.8274   19.5412 C   0  0  0  0  0  0
  -24.8774  -27.6306   19.5215 C   0  0  0  0  0  0
  -23.6480  -29.7907   20.1590 C   0  0  0  0  0  0
  -25.4118  -36.3066   24.0314 C   0  0  1  0  0  0
  -20.5893  -28.3688   23.1274 C   0  0  2  0  0  0
  -20.6771  -26.9404   22.5412 C   0  0  0  0  0  0
  -19.5747  -26.6376   21.5214 C   0  0  0  0  0  0
  -18.1931  -26.7922   22.1628 C   0  0  0  0  0  0
  -19.1545  -28.8853   23.2874 C   0  0  0  0  0  0
  -18.9467  -30.1456   23.8888 C   0  0  0  0  0  0
  -17.6466  -30.6584   24.0562 C   0  0  0  0  0  0
  -25.9058  -34.9439   23.5074 C   0  0  0  0  0  0
  -16.5356  -29.9082   23.6328 C   0  0  0  0  0  0
  -16.7278  -28.6500   23.0349 C   0  0  0  0  0  0
  -26.4481  -31.6587   25.0701 C   0  0  0  0  0  0
  -25.3681  -31.3769   26.1409 C   0  0  0  0  0  0
  -27.0326  -30.2994   24.6206 C   0  0  0  0  0  0
  -27.6015  -32.4342   25.7499 C   0  0  0  0  0  0
  -27.5574  -37.1803   24.8460 C   0  0  0  0  0  0
  -21.4204  -29.3036   22.3665 N   0  0  0  0  0  0
  -26.4289  -37.3768   23.9398 N   0  0  0  0  0  0
  -24.6955  -31.0503   22.0903 N   0  0  0  0  0  0
  -23.4194  -28.8148   23.3038 O   0  0  0  0  0  0
  -28.3744  -26.4394   20.0723 O   0  0  0  0  0  0
  -26.5654  -34.8920   22.4659 O   0  0  0  0  0  0
  -23.5456  -32.1356   23.7237 O   0  0  0  0  0  0
  -29.4005  -18.4560   20.3086 C   0  0  0  0  0  0
  -30.1680  -18.7381   22.9431 C   0  0  0  0  0  0
  -29.3098  -19.7988   20.8899 C   0  0  0  0  0  0
  -29.6623  -19.8729   22.2679 C   0  0  0  0  0  0
  -29.8629  -17.2589   21.0103 C   0  0  0  0  0  0
  -30.2659  -17.4626   22.3524 C   0  0  0  0  0  0
  -30.0966  -23.1769   20.6508 C   0  0  0  0  0  0
  -29.9615  -24.7034   20.8146 C   0  0  0  0  0  0
  -27.9595  -23.6782   20.0374 C   0  0  0  0  0  0
  -28.4678  -25.0586   20.6661 C   0  0  2  0  0  0
  -29.4527  -21.1161   23.1178 C   0  0  0  0  0  0
  -28.7340  -21.0647   20.0656 C   0  0  0  0  0  0
  -28.9310  -22.5648   20.3818 N   0  0  0  0  0  0
  -29.7263  -15.8649   20.5036 N   0  0  0  0  0  0
  -31.1891  -22.6123   20.7506 O   0  0  0  0  0  0
  -30.7673  -16.1556   23.3709 Cl  0  0  0  0  0  0
  -31.4803  -12.6231   19.1533 H   0  0  0  0  0  0
  -30.4082  -11.4942   19.9405 H   0  0  0  0  0  0
  -29.8001  -11.7461   17.5076 H   0  0  0  0  0  0
  -29.6304  -13.4716   17.7144 H   0  0  0  0  0  0
  -27.9001  -11.2808   18.9051 H   0  0  0  0  0  0
  -27.3796  -12.5223   17.7952 H   0  0  0  0  0  0
  -27.6303  -14.2479   19.4651 H   0  0  0  0  0  0
  -28.7354  -12.1569   21.4060 H   0  0  0  0  0  0
  -28.4259  -13.8323   21.7943 H   0  0  0  0  0  0
  -25.2764   -9.5680   22.4763 H   0  0  0  0  0  0
  -23.9998   -7.4631   22.7472 H   0  0  0  0  0  0
  -21.0840   -8.8771   19.8955 H   0  0  0  0  0  0
  -22.3699  -10.9669   19.6154 H   0  0  0  0  0  0
  -21.2009   -7.6141   23.9717 H   0  0  0  0  0  0
  -21.1492   -6.0514   25.9080 H   0  0  0  0  0  0
  -22.0595   -2.7602   23.2849 H   0  0  0  0  0  0
  -22.4065  -11.9889   22.4834 H   0  0  0  0  0  0
  -21.1073  -13.1250   22.2604 H   0  0  0  0  0  0
  -24.6391  -15.8348   20.5135 H   0  0  0  0  0  0
  -26.2492  -15.6402   20.0535 H   0  0  0  0  0  0
  -26.7204  -32.5403   23.1049 H   0  0  0  0  0  0
  -24.9990  -33.9675   25.0315 H   0  0  0  0  0  0
  -22.7245  -31.2913   21.3837 H   0  0  0  0  0  0
  -23.3737  -35.9634   23.3312 H   0  0  0  0  0  0
  -24.3568  -36.8917   22.2053 H   0  0  0  0  0  0
  -23.7252  -37.6495   23.6676 H   0  0  0  0  0  0
  -26.1046  -31.5259   20.5954 H   0  0  0  0  0  0
  -26.8499  -30.8250   22.0003 H   0  0  0  0  0  0
  -28.1404  -28.9640   21.1536 H   0  0  0  0  0  0
  -26.0083  -25.8534   19.0736 H   0  0  0  0  0  0
  -23.9818  -27.2523   19.0483 H   0  0  0  0  0  0
  -23.7725  -30.5582   19.3943 H   0  0  0  0  0  0
  -22.7677  -29.2191   19.8593 H   0  0  0  0  0  0
  -25.1308  -36.1903   25.0805 H   0  0  0  0  0  0
  -20.9989  -28.3261   24.1393 H   0  0  0  0  0  0
  -20.5654  -26.2301   23.3619 H   0  0  0  0  0  0
  -21.6640  -26.7414   22.1217 H   0  0  0  0  0  0
  -19.6904  -25.6284   21.1251 H   0  0  0  0  0  0
  -19.6683  -27.3180   20.6738 H   0  0  0  0  0  0
  -17.4198  -26.6668   21.4035 H   0  0  0  0  0  0
  -18.0332  -26.0066   22.9025 H   0  0  0  0  0  0
  -19.7943  -30.7278   24.2249 H   0  0  0  0  0  0
  -17.5019  -31.6263   24.5166 H   0  0  0  0  0  0
  -15.5356  -30.2984   23.7652 H   0  0  0  0  0  0
  -15.8677  -28.0821   22.7061 H   0  0  0  0  0  0
  -24.5839  -30.7148   25.7724 H   0  0  0  0  0  0
  -24.8897  -32.2962   26.4801 H   0  0  0  0  0  0
  -25.7962  -30.8949   27.0205 H   0  0  0  0  0  0
  -26.2920  -29.6757   24.1187 H   0  0  0  0  0  0
  -27.3940  -29.7251   25.4746 H   0  0  0  0  0  0
  -27.8821  -30.4252   23.9491 H   0  0  0  0  0  0
  -27.2588  -33.3633   26.2067 H   0  0  0  0  0  0
  -28.3841  -32.6923   25.0352 H   0  0  0  0  0  0
  -28.0665  -31.8478   26.5435 H   0  0  0  0  0  0
  -28.2596  -38.0095   24.7494 H   0  0  0  0  0  0
  -28.1066  -36.2625   24.6303 H   0  0  0  0  0  0
  -27.2293  -37.1470   25.8864 H   0  0  0  0  0  0
  -20.9394  -29.8743   21.6854 H   0  0  0  0  0  0
  -26.0163  -38.2843   24.1387 H   0  0  0  0  0  0
  -29.0647  -18.3310   19.2889 H   0  0  0  0  0  0
  -30.4360  -18.8262   23.9866 H   0  0  0  0  0  0
  -30.5525  -25.1779   20.0307 H   0  0  0  0  0  0
  -30.3570  -25.0327   21.7755 H   0  0  0  0  0  0
  -27.9078  -23.7637   18.9512 H   0  0  0  0  0  0
  -26.9550  -23.4363   20.3860 H   0  0  0  0  0  0
  -28.0467  -25.1292   21.6705 H   0  0  0  0  0  0
  -29.2967  -20.8472   24.1633 H   0  0  0  0  0  0
  -28.5680  -21.6745   22.8166 H   0  0  0  0  0  0
  -30.3274  -21.7637   23.0872 H   0  0  0  0  0  0
  -27.6560  -20.9103   20.0124 H   0  0  0  0  0  0
  -29.0819  -20.9378   19.0398 H   0  0  0  0  0  0
  -28.7679  -15.5956   20.3560 H   0  0  0  0  0  0
  1 25  1  0  0  0
  1 30  2  0  0  0
  1 84  1  0  0  0
  2  3  1  0  0  0
  2 25  1  0  0  0
  2 87  1  0  0  0
  2 88  1  0  0  0
  3  4  1  0  0  0
  3 89  1  0  0  0
  3 90  1  0  0  0
  4  5  1  0  0  0
  4 91  1  0  0  0
  4 92  1  0  0  0
  5  6  1  0  0  0
  5 26  1  0  0  0
  5 93  1  0  0  0
  6 25  1  0  0  0
  6 94  1  0  0  0
  6 95  1  0  0  0
  7  8  2  0  0  0
  7 26  1  0  0  0
  7 29  1  0  0  0
  8  9  1  0  0  0
  8 22  1  0  0  0
  9 10  1  0  0  0
  9 27  2  0  0  0
 10 11  2  0  0  0
 10 15  1  0  0  0
 11 12  1  0  0  0
 11 96  1  0  0  0
 12 13  2  0  0  0
 12 97  1  0  0  0
 13 14  1  0  0  0
 13 31  1  0  0  0
 14 15  2  0  0  0
 14 98  1  0  0  0
 15 99  1  0  0  0
 16 17  2  0  0  0
 16 21  1  0  0  0
 16 31  1  0  0  0
 17 18  1  0  0  0
 17100  1  0  0  0
 18 19  2  0  0  0
 18101  1  0  0  0
 19 20  1  0  0  0
 19 24  1  0  0  0
 20 21  2  0  0  0
 20102  1  0  0  0
 21 23  1  0  0  0
 22 28  1  0  0  0
 22 32  2  0  0  0
 26 27  1  0  0  0
 28103  1  0  0  0
 28104  1  0  0  0
 29105  1  0  0  0
 29106  1  0  0  0
 33 34  1  0  0  0
 33 66  1  0  0  0
 33 70  2  0  0  0
 34 36  1  0  0  0
 34 59  1  0  0  0
 34107  1  0  0  0
 35 44  2  0  0  0
 35 45  1  0  0  0
 35 68  1  0  0  0
 36 56  1  0  0  0
 36108  1  0  0  0
 37 39  1  0  0  0
 37 47  1  0  0  0
 37 66  1  0  0  0
 37109  1  0  0  0
 38 43  2  0  0  0
 38 46  1  0  0  0
 38 47  1  0  0  0
 39 64  1  0  0  0
 39 67  2  0  0  0
 40 52  1  0  0  0
 40 53  2  0  0  0
 40 58  1  0  0  0
 41110  1  0  0  0
 41111  1  0  0  0
 41112  1  0  0  0
 41 48  1  0  0  0
 42 43  1  0  0  0
 42 66  1  0  0  0
 42113  1  0  0  0
 42114  1  0  0  0
 43 44  1  0  0  0
 44115  1  0  0  0
 45 46  2  0  0  0
 45116  1  0  0  0
 46117  1  0  0  0
 47118  1  0  0  0
 47119  1  0  0  0
 48 56  1  0  0  0
 48 65  1  0  0  0
 48120  1  0  0  0
 49 50  1  0  0  0
 49 53  1  0  0  0
 49 64  1  0  0  0
 49121  1  0  0  0
 50 51  1  0  0  0
 50122  1  0  0  0
 50123  1  0  0  0
 51 52  1  0  0  0
 51124  1  0  0  0
 51125  1  0  0  0
 52126  1  0  0  0
 52127  1  0  0  0
 53 54  1  0  0  0
 54 55  2  0  0  0
 54128  1  0  0  0
 55 57  1  0  0  0
 55129  1  0  0  0
 56 69  2  0  0  0
 57 58  2  0  0  0
 57130  1  0  0  0
 58131  1  0  0  0
 59 60  1  0  0  0
 59 61  1  0  0  0
 59 62  1  0  0  0
 60132  1  0  0  0
 60133  1  0  0  0
 60134  1  0  0  0
 61135  1  0  0  0
 61136  1  0  0  0
 61137  1  0  0  0
 62138  1  0  0  0
 62139  1  0  0  0
 62140  1  0  0  0
 63 65  1  0  0  0
 63141  1  0  0  0
 63142  1  0  0  0
 63143  1  0  0  0
 64144  1  0  0  0
 65145  1  0  0  0
 68 80  1  0  0  0
 71 73  2  0  0  0
 71 75  1  0  0  0
 71146  1  0  0  0
 72 74  2  0  0  0
 72 76  1  0  0  0
 72147  1  0  0  0
 73 74  1  0  0  0
 73 82  1  0  0  0
 74 81  1  0  0  0
 75 76  2  0  0  0
 75 84  1  0  0  0
 76 86  1  0  0  0
 77 78  1  0  0  0
 77 83  1  0  0  0
 77 85  2  0  0  0
 78 80  1  0  0  0
 78148  1  0  0  0
 78149  1  0  0  0
 79 80  1  0  0  0
 79 83  1  0  0  0
 79150  1  0  0  0
 79151  1  0  0  0
 80152  1  0  0  0
 81153  1  0  0  0
 81154  1  0  0  0
 81155  1  0  0  0
 82 83  1  0  0  0
 82156  1  0  0  0
 82157  1  0  0  0
 84158  1  0  0  0
M  ISO  4   1 100  68 101  80 101  84 100
M  END
> <chiral flag>
0

> <version>
0

> <s_m_source_file>
/data/baiqing/PycharmProjects/Reinvent-master-3.2/result/LINK_invent/BTK/process_docking_weight1_custom_product_contain_oxygen_bond_distance_aromatic_linkinvent_7_9_3/rearranged_h_0029.sdf

> <i_m_source_file_index>
45

> <r_mmod_Potential_Energy-OPLS-2005>
215.623123168945

> <r_mmod_Stretch_Energy-OPLS-2005>
131.202835083008

> <r_mmod_Bend_Energy-OPLS-2005>
224.163909912109

> <r_mmod_Torsional_Energy-OPLS-2005>
282.743804931641

> <r_mmod_Improper_Torsional_Energy-OPLS-2005>
11.8964214324951

> <r_mmod_Van_der_Waal_Energy-OPLS-2005>
127.16535949707

> <r_mmod_Electrostatic_Energy-OPLS-2005>
-411.054656982422

> <r_mmod_Solvation_Energy-OPLS-2005>
-235.86994934082

> <b_mmod_Minimization_Converged-OPLS-2005>
0

> <r_mmod_RMS_Derivative-OPLS-2005>
1.10254287719727

$$$$
45
                    3D
 Structure written by MMmdl.
160169  0  0  1  0            999 V2000
  -30.5880  -14.7136   20.4893 C   0  0  0  0  0  0
  -30.4461  -12.4374   19.4650 C   0  0  0  0  0  0
  -29.5141  -12.5161   18.2337 C   0  0  0  0  0  0
  -28.0383  -12.3411   18.6452 C   0  0  0  0  0  0
  -27.6520  -13.2213   19.8632 C   0  0  2  0  0  0
  -28.6967  -13.0998   20.9955 C   0  0  0  0  0  0
  -25.2557  -13.8178   20.5695 C   0  0  0  0  0  0
  -24.1827  -13.0440   20.9198 C   0  0  0  0  0  0
  -24.6400  -11.6912   20.8742 C   0  0  0  0  0  0
  -23.9069  -10.4294   21.0405 C   0  0  0  0  0  0
  -24.3618   -9.4208   21.9182 C   0  0  0  0  0  0
  -23.6292   -8.2245   22.0754 C   0  0  0  0  0  0
  -22.4273   -8.0283   21.3545 C   0  0  0  0  0  0
  -21.9908   -9.0259   20.4648 C   0  0  0  0  0  0
  -22.7240  -10.2136   20.3056 C   0  0  0  0  0  0
  -21.6853   -6.0735   22.5278 C   0  0  0  0  0  0
  -21.4015   -6.5639   23.8212 C   0  0  0  0  0  0
  -21.3659   -5.6792   24.9174 C   0  0  0  0  0  0
  -21.6044   -4.3055   24.7225 C   0  0  0  0  0  0
  -21.8819   -3.8147   23.4346 C   0  0  0  0  0  0
  -21.9193   -4.6963   22.3402 C   0  0  0  0  0  0
  -22.7849  -13.5232   21.1857 C   0  0  0  0  0  0
  -22.1661   -4.2148   21.0979 F   0  0  0  0  0  0
  -21.5627   -3.4539   25.7738 F   0  0  0  0  0  0
  -30.0058  -13.4674   20.4319 N   0  0  0  0  0  0
  -26.2986  -12.9364   20.3321 N   0  0  0  0  0  0
  -25.9331  -11.6516   20.5758 N   0  0  0  0  0  0
  -22.0488  -12.8226   22.0414 N   0  0  0  0  0  0
  -25.4268  -15.1899   20.4105 N   0  0  0  0  0  0
  -31.7447  -14.8847   20.0909 O   0  0  0  0  0  0
  -21.6640   -6.8879   21.4240 O   0  0  0  0  0  0
  -22.3535  -14.5539   20.6705 O   0  0  0  0  0  0
  -24.6307  -31.8562   23.2003 C   0  0  0  0  0  0
  -25.9137  -32.4760   23.8342 C   0  0  1  0  0  0
  -27.2193  -27.2672   20.1273 C   0  0  0  0  0  0
  -25.5936  -33.8563   24.2265 N   0  0  0  0  0  0
  -23.4270  -30.4799   21.5435 C   0  0  2  0  0  0
  -24.8744  -28.9304   20.1102 C   0  0  0  0  0  0
  -22.7499  -29.4605   22.4916 C   0  0  0  0  0  0
  -18.0292  -28.1387   22.8485 C   0  0  0  0  0  0
  -24.1489  -36.7285   23.2639 C   0  0  0  0  0  0
  -25.9731  -30.7693   21.3819 C   0  0  0  0  0  0
  -26.0450  -29.3926   20.7244 C   0  0  0  0  0  0
  -27.2190  -28.5728   20.7246 C   0  0  0  0  0  0
  -26.0317  -26.8868   19.4599 C   0  0  0  0  0  0
  -24.8730  -27.6850   19.4669 C   0  0  0  0  0  0
  -23.6451  -29.8163   20.1588 C   0  0  0  0  0  0
  -25.4115  -36.3073   24.0326 C   0  0  1  0  0  0
  -20.5895  -28.3697   23.1269 C   0  0  2  0  0  0
  -20.6779  -26.9414   22.5408 C   0  0  0  0  0  0
  -19.5754  -26.6384   21.5211 C   0  0  0  0  0  0
  -18.1935  -26.7931   22.1624 C   0  0  0  0  0  0
  -19.1546  -28.8860   23.2873 C   0  0  0  0  0  0
  -18.9466  -30.1461   23.8891 C   0  0  0  0  0  0
  -17.6464  -30.6588   24.0562 C   0  0  0  0  0  0
  -25.9056  -34.9442   23.5098 C   0  0  0  0  0  0
  -16.5356  -29.9085   23.6330 C   0  0  0  0  0  0
  -16.7279  -28.6502   23.0352 C   0  0  0  0  0  0
  -26.4505  -31.6584   25.0730 C   0  0  0  0  0  0
  -25.3727  -31.3739   26.1450 C   0  0  0  0  0  0
  -27.0354  -30.2999   24.6222 C   0  0  0  0  0  0
  -27.6058  -32.4328   25.7503 C   0  0  0  0  0  0
  -27.5578  -37.1800   24.8467 C   0  0  0  0  0  0
  -21.4207  -29.3045   22.3659 N   0  0  0  0  0  0
  -26.4292  -37.3769   23.9406 N   0  0  0  0  0  0
  -24.6958  -31.0530   22.0981 N   0  0  0  0  0  0
  -23.4203  -28.8139   23.3007 O   0  0  0  0  0  0
  -28.3174  -26.3754   20.1853 O   0  0  0  0  0  0
  -26.5624  -34.8914   22.4665 O   0  0  0  0  0  0
  -23.5457  -32.1385   23.7297 O   0  0  0  0  0  0
  -30.4584  -19.4032   19.7481 C   0  0  0  0  0  0
  -30.5232  -17.9735   19.8223 C   0  0  0  0  0  0
  -29.6966  -20.2152   20.6432 C   0  0  0  0  0  0
  -28.9635  -19.4723   21.6269 C   0  0  0  0  0  0
  -29.0093  -18.0242   21.6881 C   0  0  0  0  0  0
  -29.8084  -17.2322   20.7994 C   0  0  0  0  0  0
  -28.6500  -23.9963   21.3368 C   0  0  0  0  0  0
  -28.9647  -23.9105   19.3577 C   0  0  0  0  0  0
  -28.0754  -24.8848   20.1947 C   0  0  2  0  0  0
  -28.1392  -20.2266   22.6662 C   0  0  0  0  0  0
  -28.1933  -17.2720   22.7415 C   0  0  0  0  0  0
  -29.8929  -21.8126   20.6412 C   0  0  0  0  0  0
  -29.7692  -15.7516   20.8882 N   0  0  0  0  0  0
  -28.7789  -22.8429   20.3895 N   0  3  1  0  0  0
  -31.4845  -12.5788   19.1606 H   0  0  0  0  0  0
  -30.4015  -11.4470   19.9206 H   0  0  0  0  0  0
  -29.7903  -11.7558   17.5018 H   0  0  0  0  0  0
  -29.6434  -13.4791   17.7373 H   0  0  0  0  0  0
  -27.8872  -11.2889   18.8892 H   0  0  0  0  0  0
  -27.3820  -12.5539   17.8005 H   0  0  0  0  0  0
  -27.6624  -14.2528   19.5101 H   0  0  0  0  0  0
  -28.7254  -12.0806   21.3835 H   0  0  0  0  0  0
  -28.4284  -13.7315   21.8435 H   0  0  0  0  0  0
  -25.2762   -9.5683   22.4757 H   0  0  0  0  0  0
  -24.0000   -7.4635   22.7473 H   0  0  0  0  0  0
  -21.0838   -8.8779   19.8955 H   0  0  0  0  0  0
  -22.3698  -10.9675   19.6166 H   0  0  0  0  0  0
  -21.2009   -7.6147   23.9715 H   0  0  0  0  0  0
  -21.1479   -6.0522   25.9076 H   0  0  0  0  0  0
  -22.0599   -2.7609   23.2848 H   0  0  0  0  0  0
  -22.4099  -11.9886   22.4802 H   0  0  0  0  0  0
  -21.1107  -13.1254   22.2616 H   0  0  0  0  0  0
  -24.6562  -15.8413   20.5117 H   0  0  0  0  0  0
  -26.2687  -15.6266   20.0576 H   0  0  0  0  0  0
  -26.7201  -32.5413   23.1082 H   0  0  0  0  0  0
  -25.0084  -33.9701   25.0411 H   0  0  0  0  0  0
  -22.7230  -31.3021   21.3988 H   0  0  0  0  0  0
  -23.3750  -35.9620   23.3306 H   0  0  0  0  0  0
  -24.3577  -36.8903   22.2052 H   0  0  0  0  0  0
  -23.7244  -37.6489   23.6660 H   0  0  0  0  0  0
  -26.1131  -31.5298   20.6125 H   0  0  0  0  0  0
  -26.8503  -30.8172   22.0153 H   0  0  0  0  0  0
  -28.1128  -28.9203   21.2235 H   0  0  0  0  0  0
  -25.9682  -25.9571   18.9158 H   0  0  0  0  0  0
  -23.9824  -27.3336   18.9639 H   0  0  0  0  0  0
  -23.7695  -30.5938   19.4043 H   0  0  0  0  0  0
  -22.7635  -29.2500   19.8530 H   0  0  0  0  0  0
  -25.1296  -36.1923   25.0819 H   0  0  0  0  0  0
  -20.9989  -28.3277   24.1389 H   0  0  0  0  0  0
  -20.5675  -26.2308   23.3614 H   0  0  0  0  0  0
  -21.6647  -26.7436   22.1203 H   0  0  0  0  0  0
  -19.6913  -25.6293   21.1245 H   0  0  0  0  0  0
  -19.6690  -27.3191   20.6739 H   0  0  0  0  0  0
  -17.4202  -26.6677   21.4029 H   0  0  0  0  0  0
  -18.0335  -26.0075   22.9022 H   0  0  0  0  0  0
  -19.7941  -30.7280   24.2257 H   0  0  0  0  0  0
  -17.5018  -31.6267   24.5166 H   0  0  0  0  0  0
  -15.5356  -30.2983   23.7658 H   0  0  0  0  0  0
  -15.8679  -28.0819   22.7069 H   0  0  0  0  0  0
  -24.5907  -30.7079   25.7783 H   0  0  0  0  0  0
  -24.8912  -32.2910   26.4854 H   0  0  0  0  0  0
  -25.8043  -30.8935   27.0239 H   0  0  0  0  0  0
  -26.2941  -29.6743   24.1235 H   0  0  0  0  0  0
  -27.4018  -29.7266   25.4748 H   0  0  0  0  0  0
  -27.8828  -30.4269   23.9481 H   0  0  0  0  0  0
  -27.2664  -33.3631   26.2069 H   0  0  0  0  0  0
  -28.3874  -32.6883   25.0336 H   0  0  0  0  0  0
  -28.0720  -31.8462   26.5429 H   0  0  0  0  0  0
  -28.2601  -38.0091   24.7502 H   0  0  0  0  0  0
  -28.1068  -36.2621   24.6308 H   0  0  0  0  0  0
  -27.2295  -37.1469   25.8870 H   0  0  0  0  0  0
  -20.9391  -29.8775   21.6871 H   0  0  0  0  0  0
  -26.0173  -38.2846   24.1399 H   0  0  0  0  0  0
  -31.0623  -19.8884   18.9935 H   0  0  0  0  0  0
  -31.1357  -17.4467   19.1036 H   0  0  0  0  0  0
  -27.9546  -23.8138   22.1562 H   0  0  0  0  0  0
  -29.6107  -24.3543   21.7145 H   0  0  0  0  0  0
  -29.9997  -24.2473   19.2654 H   0  0  0  0  0  0
  -28.5521  -23.6487   18.3834 H   0  0  0  0  0  0
  -27.0239  -24.6215   20.0875 H   0  0  0  0  0  0
  -28.1143  -21.3013   22.5150 H   0  0  0  0  0  0
  -28.5460  -20.0609   23.6645 H   0  0  0  0  0  0
  -27.1036  -19.8844   22.6549 H   0  0  0  0  0  0
  -27.8609  -17.8852   23.5755 H   0  0  0  0  0  0
  -28.7794  -16.4687   23.1886 H   0  0  0  0  0  0
  -27.3080  -16.8305   22.2831 H   0  0  0  0  0  0
  -30.6882  -22.0328   19.9293 H   0  0  0  0  0  0
  -30.3368  -22.0516   21.6077 H   0  0  0  0  0  0
  -28.9190  -15.4013   21.3007 H   0  0  0  0  0  0
  -27.8899  -22.3861   20.2589 H   0  0  0  0  0  0
  1 25  1  0  0  0
  1 30  2  0  0  0
  1 83  1  0  0  0
  2  3  1  0  0  0
  2 25  1  0  0  0
  2 85  1  0  0  0
  2 86  1  0  0  0
  3  4  1  0  0  0
  3 87  1  0  0  0
  3 88  1  0  0  0
  4  5  1  0  0  0
  4 89  1  0  0  0
  4 90  1  0  0  0
  5  6  1  0  0  0
  5 26  1  0  0  0
  5 91  1  0  0  0
  6 25  1  0  0  0
  6 92  1  0  0  0
  6 93  1  0  0  0
  7  8  2  0  0  0
  7 26  1  0  0  0
  7 29  1  0  0  0
  8  9  1  0  0  0
  8 22  1  0  0  0
  9 10  1  0  0  0
  9 27  2  0  0  0
 10 11  2  0  0  0
 10 15  1  0  0  0
 11 12  1  0  0  0
 11 94  1  0  0  0
 12 13  2  0  0  0
 12 95  1  0  0  0
 13 14  1  0  0  0
 13 31  1  0  0  0
 14 15  2  0  0  0
 14 96  1  0  0  0
 15 97  1  0  0  0
 16 17  2  0  0  0
 16 21  1  0  0  0
 16 31  1  0  0  0
 17 18  1  0  0  0
 17 98  1  0  0  0
 18 19  2  0  0  0
 18 99  1  0  0  0
 19 20  1  0  0  0
 19 24  1  0  0  0
 20 21  2  0  0  0
 20100  1  0  0  0
 21 23  1  0  0  0
 22 28  1  0  0  0
 22 32  2  0  0  0
 26 27  1  0  0  0
 28101  1  0  0  0
 28102  1  0  0  0
 29103  1  0  0  0
 29104  1  0  0  0
 33 34  1  0  0  0
 33 66  1  0  0  0
 33 70  2  0  0  0
 34 36  1  0  0  0
 34 59  1  0  0  0
 34105  1  0  0  0
 35 44  2  0  0  0
 35 45  1  0  0  0
 35 68  1  0  0  0
 36 56  1  0  0  0
 36106  1  0  0  0
 37 39  1  0  0  0
 37 47  1  0  0  0
 37 66  1  0  0  0
 37107  1  0  0  0
 38 43  2  0  0  0
 38 46  1  0  0  0
 38 47  1  0  0  0
 39 64  1  0  0  0
 39 67  2  0  0  0
 40 52  1  0  0  0
 40 53  2  0  0  0
 40 58  1  0  0  0
 41108  1  0  0  0
 41109  1  0  0  0
 41110  1  0  0  0
 41 48  1  0  0  0
 42 43  1  0  0  0
 42 66  1  0  0  0
 42111  1  0  0  0
 42112  1  0  0  0
 43 44  1  0  0  0
 44113  1  0  0  0
 45 46  2  0  0  0
 45114  1  0  0  0
 46115  1  0  0  0
 47116  1  0  0  0
 47117  1  0  0  0
 48 56  1  0  0  0
 48 65  1  0  0  0
 48118  1  0  0  0
 49 50  1  0  0  0
 49 53  1  0  0  0
 49 64  1  0  0  0
 49119  1  0  0  0
 50 51  1  0  0  0
 50120  1  0  0  0
 50121  1  0  0  0
 51 52  1  0  0  0
 51122  1  0  0  0
 51123  1  0  0  0
 52124  1  0  0  0
 52125  1  0  0  0
 53 54  1  0  0  0
 54 55  2  0  0  0
 54126  1  0  0  0
 55 57  1  0  0  0
 55127  1  0  0  0
 56 69  2  0  0  0
 57 58  2  0  0  0
 57128  1  0  0  0
 58129  1  0  0  0
 59 60  1  0  0  0
 59 61  1  0  0  0
 59 62  1  0  0  0
 60130  1  0  0  0
 60131  1  0  0  0
 60132  1  0  0  0
 61133  1  0  0  0
 61134  1  0  0  0
 61135  1  0  0  0
 62136  1  0  0  0
 62137  1  0  0  0
 62138  1  0  0  0
 63 65  1  0  0  0
 63139  1  0  0  0
 63140  1  0  0  0
 63141  1  0  0  0
 64142  1  0  0  0
 65143  1  0  0  0
 68 79  1  0  0  0
 71 72  2  0  0  0
 71 73  1  0  0  0
 71144  1  0  0  0
 72 76  1  0  0  0
 72145  1  0  0  0
 73 74  2  0  0  0
 73 82  1  0  0  0
 74 75  1  0  0  0
 74 80  1  0  0  0
 75 76  2  0  0  0
 75 81  1  0  0  0
 76 83  1  0  0  0
 77 79  1  0  0  0
 77 84  1  0  0  0
 77146  1  0  0  0
 77147  1  0  0  0
 78 79  1  0  0  0
 78 84  1  0  0  0
 78148  1  0  0  0
 78149  1  0  0  0
 79150  1  0  0  0
 80151  1  0  0  0
 80152  1  0  0  0
 80153  1  0  0  0
 81154  1  0  0  0
 81155  1  0  0  0
 81156  1  0  0  0
 82157  1  0  0  0
 82158  1  0  0  0
 82 84  1  0  0  0
 83159  1  0  0  0
 84160  1  0  0  0
M  CHG  1  84   1
M  ISO  4   1 100  68 101  79 101  83 100
M  END
> <chiral flag>
0

> <version>
0

> <s_m_source_file>
/data/baiqing/PycharmProjects/Reinvent-master-3.2/result/LINK_invent/BTK/process_docking_weight1_custom_product_contain_oxygen_bond_distance_aromatic_linkinvent_7_9_3/rearranged_h_0029.sdf

> <i_m_source_file_index>
46

> <r_mmod_Potential_Energy-OPLS-2005>
-34.4198265075684

> <r_mmod_Stretch_Energy-OPLS-2005>
113.463043212891

> <r_mmod_Bend_Energy-OPLS-2005>
195.503936767578

> <r_mmod_Torsional_Energy-OPLS-2005>
237.091735839844

> <r_mmod_Improper_Torsional_Energy-OPLS-2005>
4.56192922592163

> <r_mmod_Van_der_Waal_Energy-OPLS-2005>
150.494094848633

> <r_mmod_Electrostatic_Energy-OPLS-2005>
-340.432769775391

> <r_mmod_Solvation_Energy-OPLS-2005>
-470.812835693359

> <b_mmod_Minimization_Converged-OPLS-2005>
0

> <r_mmod_RMS_Derivative-OPLS-2005>
0.247817024588585

$$$$
46
                    3D
 Structure written by MMmdl.
162171  0  0  1  0            999 V2000
  -30.5994  -14.7998   20.2797 C   0  0  0  0  0  0
  -30.4532  -12.4352   19.4706 C   0  0  0  0  0  0
  -29.4977  -12.2770   18.2575 C   0  0  0  0  0  0
  -28.0106  -12.2722   18.6623 C   0  0  0  0  0  0
  -27.6357  -13.2234   19.8333 C   0  0  2  0  0  0
  -28.7048  -13.2239   20.9447 C   0  0  0  0  0  0
  -25.2505  -13.8202   20.5765 C   0  0  0  0  0  0
  -24.1788  -13.0456   20.9254 C   0  0  0  0  0  0
  -24.6383  -11.6933   20.8838 C   0  0  0  0  0  0
  -23.9067  -10.4297   21.0459 C   0  0  0  0  0  0
  -24.3613   -9.4200   21.9225 C   0  0  0  0  0  0
  -23.6286   -8.2238   22.0779 C   0  0  0  0  0  0
  -22.4276   -8.0281   21.3558 C   0  0  0  0  0  0
  -21.9915   -9.0264   20.4671 C   0  0  0  0  0  0
  -22.7248  -10.2143   20.3095 C   0  0  0  0  0  0
  -21.6845   -6.0741   22.5283 C   0  0  0  0  0  0
  -21.4014   -6.5645   23.8219 C   0  0  0  0  0  0
  -21.3655   -5.6799   24.9177 C   0  0  0  0  0  0
  -21.6038   -4.3060   24.7228 C   0  0  0  0  0  0
  -21.8813   -3.8154   23.4345 C   0  0  0  0  0  0
  -21.9184   -4.6967   22.3402 C   0  0  0  0  0  0
  -22.7796  -13.5231   21.1849 C   0  0  0  0  0  0
  -22.1654   -4.2150   21.0979 F   0  0  0  0  0  0
  -21.5621   -3.4546   25.7741 F   0  0  0  0  0  0
  -29.9864  -13.5591   20.3100 N   0  0  0  0  0  0
  -26.2946  -12.9410   20.3382 N   0  0  0  0  0  0
  -25.9326  -11.6574   20.5951 N   0  0  0  0  0  0
  -22.0412  -12.8265   22.0406 N   0  0  0  0  0  0
  -25.4135  -15.1933   20.4175 N   0  0  0  0  0  0
  -31.8297  -14.8760   20.3249 O   0  0  0  0  0  0
  -21.6634   -6.8883   21.4251 O   0  0  0  0  0  0
  -22.3492  -14.5519   20.6644 O   0  0  0  0  0  0
  -24.6301  -31.8580   23.2008 C   0  0  0  0  0  0
  -25.9127  -32.4783   23.8347 C   0  0  1  0  0  0
  -27.2246  -27.2869   20.1348 C   0  0  0  0  0  0
  -25.5918  -33.8581   24.2262 N   0  0  0  0  0  0
  -23.4253  -30.4802   21.5444 C   0  0  2  0  0  0
  -24.8737  -28.9354   20.1072 C   0  0  0  0  0  0
  -22.7503  -29.4614   22.4936 C   0  0  0  0  0  0
  -18.0292  -28.1392   22.8490 C   0  0  0  0  0  0
  -24.1489  -36.7301   23.2635 C   0  0  0  0  0  0
  -25.9687  -30.7821   21.3752 C   0  0  0  0  0  0
  -26.0443  -29.4072   20.7162 C   0  0  0  0  0  0
  -27.2220  -28.5961   20.7176 C   0  0  0  0  0  0
  -26.0342  -26.8849   19.4832 C   0  0  0  0  0  0
  -24.8734  -27.6820   19.4779 C   0  0  0  0  0  0
  -23.6407  -29.8151   20.1598 C   0  0  0  0  0  0
  -25.4111  -36.3085   24.0323 C   0  0  1  0  0  0
  -20.5901  -28.3699   23.1288 C   0  0  2  0  0  0
  -20.6792  -26.9419   22.5426 C   0  0  0  0  0  0
  -19.5767  -26.6385   21.5231 C   0  0  0  0  0  0
  -18.1932  -26.7939   22.1623 C   0  0  0  0  0  0
  -19.1548  -28.8861   23.2877 C   0  0  0  0  0  0
  -18.9473  -30.1465   23.8891 C   0  0  0  0  0  0
  -17.6474  -30.6598   24.0568 C   0  0  0  0  0  0
  -25.9054  -34.9459   23.5099 C   0  0  0  0  0  0
  -16.5362  -29.9098   23.6346 C   0  0  0  0  0  0
  -16.7280  -28.6515   23.0364 C   0  0  0  0  0  0
  -26.4490  -31.6621   25.0743 C   0  0  0  0  0  0
  -25.3704  -31.3785   26.1464 C   0  0  0  0  0  0
  -27.0345  -30.3043   24.6229 C   0  0  0  0  0  0
  -27.6043  -32.4377   25.7517 C   0  0  0  0  0  0
  -27.5595  -37.1778   24.8443 C   0  0  0  0  0  0
  -21.4212  -29.3047   22.3679 N   0  0  0  0  0  0
  -26.4283  -37.3790   23.9422 N   0  0  0  0  0  0
  -24.6938  -31.0569   22.0970 N   0  0  0  0  0  0
  -23.4215  -28.8154   23.3023 O   0  0  0  0  0  0
  -28.3223  -26.4019   20.2267 O   0  0  0  0  0  0
  -26.5643  -34.8933   22.4678 O   0  0  0  0  0  0
  -23.5457  -32.1388   23.7320 O   0  0  0  0  0  0
  -30.4364  -18.6441   21.6807 C   0  0  0  0  0  0
  -29.9670  -21.0585   21.9655 C   0  0  0  0  0  0
  -29.8218  -18.6343   20.4141 C   0  0  0  0  0  0
  -29.2498  -19.9048   19.9526 C   0  0  0  0  0  0
  -29.3259  -21.1379   20.7104 C   0  0  0  0  0  0
  -30.4988  -19.8354   22.4430 C   0  0  0  0  0  0
  -30.2845  -16.6667   17.2945 C   0  0  0  0  0  0
  -30.8363  -17.6421   18.2917 C   0  0  0  0  0  0
  -29.8576  -15.4863   18.1712 C   0  0  0  0  0  0
  -29.9032  -17.3636   19.4666 C   0  0  1  0  0  0
  -28.5275  -20.0105   18.6060 C   0  0  0  0  0  0
  -29.0829  -23.8015   20.6043 C   0  0  0  0  0  0
  -28.0780  -24.9360   20.0549 C   0  0  0  0  0  0
  -29.8765  -15.8190   19.6361 N   0  0  0  0  0  0
  -28.7488  -22.3759   20.2277 N   0  0  0  0  0  0
  -31.2565  -19.7992   23.9940 Cl  0  0  0  0  0  0
  -31.4769  -12.5867   19.1228 H   0  0  0  0  0  0
  -30.4702  -11.5188   20.0625 H   0  0  0  0  0  0
  -29.7219  -11.3257   17.7726 H   0  0  0  0  0  0
  -29.6649  -12.9940   17.4639 H   0  0  0  0  0  0
  -27.7843  -11.2436   18.9428 H   0  0  0  0  0  0
  -27.3830  -12.4811   17.7950 H   0  0  0  0  0  0
  -27.6002  -14.2285   19.4194 H   0  0  0  0  0  0
  -28.7575  -12.2519   21.4383 H   0  0  0  0  0  0
  -28.4602  -13.9567   21.7156 H   0  0  0  0  0  0
  -25.2750   -9.5665   22.4813 H   0  0  0  0  0  0
  -23.9979   -7.4634   22.7510 H   0  0  0  0  0  0
  -21.0839   -8.8802   19.8985 H   0  0  0  0  0  0
  -22.3717  -10.9693   19.6212 H   0  0  0  0  0  0
  -21.2024   -7.6157   23.9719 H   0  0  0  0  0  0
  -21.1477   -6.0534   25.9078 H   0  0  0  0  0  0
  -22.0593   -2.7615   23.2848 H   0  0  0  0  0  0
  -22.4027  -11.9977   22.4893 H   0  0  0  0  0  0
  -21.1026  -13.1320   22.2565 H   0  0  0  0  0  0
  -24.6421  -15.8388   20.5479 H   0  0  0  0  0  0
  -26.2681  -15.6505   20.1279 H   0  0  0  0  0  0
  -26.7195  -32.5447   23.1096 H   0  0  0  0  0  0
  -25.0040  -33.9718   25.0392 H   0  0  0  0  0  0
  -22.7199  -31.3013   21.4014 H   0  0  0  0  0  0
  -23.3778  -35.9607   23.3256 H   0  0  0  0  0  0
  -24.3579  -36.8975   22.2057 H   0  0  0  0  0  0
  -23.7215  -37.6469   23.6706 H   0  0  0  0  0  0
  -26.1005  -31.5461   20.6072 H   0  0  0  0  0  0
  -26.8474  -30.8331   22.0066 H   0  0  0  0  0  0
  -28.1164  -28.9501   21.2119 H   0  0  0  0  0  0
  -25.9673  -25.9288   18.9863 H   0  0  0  0  0  0
  -23.9782  -27.3177   18.9916 H   0  0  0  0  0  0
  -23.7531  -30.5920   19.4019 H   0  0  0  0  0  0
  -22.7610  -29.2403   19.8639 H   0  0  0  0  0  0
  -25.1288  -36.1924   25.0813 H   0  0  0  0  0  0
  -20.9972  -28.3283   24.1418 H   0  0  0  0  0  0
  -20.5718  -26.2301   23.3626 H   0  0  0  0  0  0
  -21.6653  -26.7469   22.1198 H   0  0  0  0  0  0
  -19.6933  -25.6293   21.1271 H   0  0  0  0  0  0
  -19.6719  -27.3197   20.6763 H   0  0  0  0  0  0
  -17.4216  -26.6715   21.4006 H   0  0  0  0  0  0
  -18.0295  -26.0076   22.9005 H   0  0  0  0  0  0
  -19.7955  -30.7276   24.2257 H   0  0  0  0  0  0
  -17.5043  -31.6284   24.5165 H   0  0  0  0  0  0
  -15.5366  -30.3000   23.7690 H   0  0  0  0  0  0
  -15.8677  -28.0841   22.7089 H   0  0  0  0  0  0
  -24.5897  -30.7106   25.7804 H   0  0  0  0  0  0
  -24.8865  -32.2960   26.4833 H   0  0  0  0  0  0
  -25.8003  -30.9020   27.0283 H   0  0  0  0  0  0
  -26.2939  -29.6785   24.1231 H   0  0  0  0  0  0
  -27.4010  -29.7314   25.4755 H   0  0  0  0  0  0
  -27.8821  -30.4333   23.9492 H   0  0  0  0  0  0
  -27.2653  -33.3700   26.2056 H   0  0  0  0  0  0
  -28.3870  -32.6897   25.0350 H   0  0  0  0  0  0
  -28.0699  -31.8530   26.5462 H   0  0  0  0  0  0
  -28.2549  -38.0142   24.7595 H   0  0  0  0  0  0
  -28.1153  -36.2675   24.6135 H   0  0  0  0  0  0
  -27.2324  -37.1258   25.8843 H   0  0  0  0  0  0
  -20.9399  -29.8756   21.6874 H   0  0  0  0  0  0
  -26.0166  -38.2850   24.1498 H   0  0  0  0  0  0
  -30.8984  -17.7449   22.0633 H   0  0  0  0  0  0
  -30.0430  -21.9336   22.5936 H   0  0  0  0  0  0
  -31.0130  -16.3941   16.5292 H   0  0  0  0  0  0
  -29.4175  -17.0926   16.7857 H   0  0  0  0  0  0
  -30.8023  -18.6604   17.9065 H   0  0  0  0  0  0
  -31.8724  -17.4240   18.5547 H   0  0  0  0  0  0
  -30.6010  -14.7345   17.9051 H   0  0  0  0  0  0
  -28.8764  -15.1302   17.8574 H   0  0  0  0  0  0
  -28.8709  -17.4465   19.1213 H   0  0  0  0  0  0
  -28.6530  -19.1708   17.9313 H   0  0  0  0  0  0
  -28.8740  -20.8849   18.0541 H   0  0  0  0  0  0
  -27.4565  -20.1225   18.7727 H   0  0  0  0  0  0
  -29.1446  -23.8826   21.6898 H   0  0  0  0  0  0
  -30.0845  -24.0138   20.2276 H   0  0  0  0  0  0
  -27.1136  -24.7021   20.5087 H   0  0  0  0  0  0
  -27.9592  -24.7721   18.9832 H   0  0  0  0  0  0
  -28.1806  -22.2903   19.3899 H   0  0  0  0  0  0
  1 25  1  0  0  0
  1 30  2  0  0  0
  1 84  1  0  0  0
  2  3  1  0  0  0
  2 25  1  0  0  0
  2 87  1  0  0  0
  2 88  1  0  0  0
  3  4  1  0  0  0
  3 89  1  0  0  0
  3 90  1  0  0  0
  4  5  1  0  0  0
  4 91  1  0  0  0
  4 92  1  0  0  0
  5  6  1  0  0  0
  5 26  1  0  0  0
  5 93  1  0  0  0
  6 25  1  0  0  0
  6 94  1  0  0  0
  6 95  1  0  0  0
  7  8  2  0  0  0
  7 26  1  0  0  0
  7 29  1  0  0  0
  8  9  1  0  0  0
  8 22  1  0  0  0
  9 10  1  0  0  0
  9 27  2  0  0  0
 10 11  2  0  0  0
 10 15  1  0  0  0
 11 12  1  0  0  0
 11 96  1  0  0  0
 12 13  2  0  0  0
 12 97  1  0  0  0
 13 14  1  0  0  0
 13 31  1  0  0  0
 14 15  2  0  0  0
 14 98  1  0  0  0
 15 99  1  0  0  0
 16 17  2  0  0  0
 16 21  1  0  0  0
 16 31  1  0  0  0
 17 18  1  0  0  0
 17100  1  0  0  0
 18 19  2  0  0  0
 18101  1  0  0  0
 19 20  1  0  0  0
 19 24  1  0  0  0
 20 21  2  0  0  0
 20102  1  0  0  0
 21 23  1  0  0  0
 22 28  1  0  0  0
 22 32  2  0  0  0
 26 27  1  0  0  0
 28103  1  0  0  0
 28104  1  0  0  0
 29105  1  0  0  0
 29106  1  0  0  0
 33 34  1  0  0  0
 33 66  1  0  0  0
 33 70  2  0  0  0
 34 36  1  0  0  0
 34 59  1  0  0  0
 34107  1  0  0  0
 35 44  2  0  0  0
 35 45  1  0  0  0
 35 68  1  0  0  0
 36 56  1  0  0  0
 36108  1  0  0  0
 37 39  1  0  0  0
 37 47  1  0  0  0
 37 66  1  0  0  0
 37109  1  0  0  0
 38 43  2  0  0  0
 38 46  1  0  0  0
 38 47  1  0  0  0
 39 64  1  0  0  0
 39 67  2  0  0  0
 40 52  1  0  0  0
 40 53  2  0  0  0
 40 58  1  0  0  0
 41110  1  0  0  0
 41111  1  0  0  0
 41112  1  0  0  0
 41 48  1  0  0  0
 42 43  1  0  0  0
 42 66  1  0  0  0
 42113  1  0  0  0
 42114  1  0  0  0
 43 44  1  0  0  0
 44115  1  0  0  0
 45 46  2  0  0  0
 45116  1  0  0  0
 46117  1  0  0  0
 47118  1  0  0  0
 47119  1  0  0  0
 48 56  1  0  0  0
 48 65  1  0  0  0
 48120  1  0  0  0
 49 50  1  0  0  0
 49 53  1  0  0  0
 49 64  1  0  0  0
 49121  1  0  0  0
 50 51  1  0  0  0
 50122  1  0  0  0
 50123  1  0  0  0
 51 52  1  0  0  0
 51124  1  0  0  0
 51125  1  0  0  0
 52126  1  0  0  0
 52127  1  0  0  0
 53 54  1  0  0  0
 54 55  2  0  0  0
 54128  1  0  0  0
 55 57  1  0  0  0
 55129  1  0  0  0
 56 69  2  0  0  0
 57 58  2  0  0  0
 57130  1  0  0  0
 58131  1  0  0  0
 59 60  1  0  0  0
 59 61  1  0  0  0
 59 62  1  0  0  0
 60132  1  0  0  0
 60133  1  0  0  0
 60134  1  0  0  0
 61135  1  0  0  0
 61136  1  0  0  0
 61137  1  0  0  0
 62138  1  0  0  0
 62139  1  0  0  0
 62140  1  0  0  0
 63 65  1  0  0  0
 63141  1  0  0  0
 63142  1  0  0  0
 63143  1  0  0  0
 64144  1  0  0  0
 65145  1  0  0  0
 68 83  1  0  0  0
 71 73  2  0  0  0
 71 76  1  0  0  0
 71146  1  0  0  0
 72 75  1  0  0  0
 72 76  2  0  0  0
 72147  1  0  0  0
 73 74  1  0  0  0
 73 80  1  0  0  0
 74 75  2  0  0  0
 74 81  1  0  0  0
 75 85  1  0  0  0
 76 86  1  0  0  0
 77 78  1  0  0  0
 77 79  1  0  0  0
 77148  1  0  0  0
 77149  1  0  0  0
 78 80  1  0  0  0
 78150  1  0  0  0
 78151  1  0  0  0
 79 84  1  0  0  0
 79152  1  0  0  0
 79153  1  0  0  0
 80 84  1  0  0  0
 80154  1  0  0  0
 81155  1  0  0  0
 81156  1  0  0  0
 81157  1  0  0  0
 82 83  1  0  0  0
 82 85  1  0  0  0
 82158  1  0  0  0
 82159  1  0  0  0
 83160  1  0  0  0
 83161  1  0  0  0
 85162  1  0  0  0
M  ISO  4   1 100  68 101  83 101  84 100
M  END
> <chiral flag>
0

> <version>
0

> <s_m_source_file>
/data/baiqing/PycharmProjects/Reinvent-master-3.2/result/LINK_invent/BTK/process_docking_weight1_custom_product_contain_oxygen_bond_distance_aromatic_linkinvent_7_9_3/rearranged_h_0029.sdf

> <i_m_source_file_index>
47

> <r_mmod_Potential_Energy-OPLS-2005>
586.300964355469

> <r_mmod_Stretch_Energy-OPLS-2005>
127.866943359375

> <r_mmod_Bend_Energy-OPLS-2005>
313.046508789062

> <r_mmod_Torsional_Energy-OPLS-2005>
342.661926269531

> <r_mmod_Improper_Torsional_Energy-OPLS-2005>
26.0632228851318

> <r_mmod_Van_der_Waal_Energy-OPLS-2005>
162.835754394531

> <r_mmod_Electrostatic_Energy-OPLS-2005>
-300.373840332031

> <r_mmod_Solvation_Energy-OPLS-2005>
-205.37321472168

> <b_mmod_Minimization_Converged-OPLS-2005>
0

> <r_mmod_RMS_Derivative-OPLS-2005>
1.78324210643768

$$$$
47
                    3D
 Structure written by MMmdl.
160169  0  0  1  0            999 V2000
  -30.6126  -14.7459   20.4778 C   0  0  0  0  0  0
  -30.4338  -12.4627   19.4638 C   0  0  0  0  0  0
  -29.5064  -12.5076   18.2298 C   0  0  0  0  0  0
  -28.0337  -12.3288   18.6480 C   0  0  0  0  0  0
  -27.6397  -13.2299   19.8484 C   0  0  2  0  0  0
  -28.6868  -13.1662   20.9806 C   0  0  0  0  0  0
  -25.2502  -13.8192   20.5695 C   0  0  0  0  0  0
  -24.1800  -13.0438   20.9218 C   0  0  0  0  0  0
  -24.6393  -11.6914   20.8764 C   0  0  0  0  0  0
  -23.9071  -10.4294   21.0420 C   0  0  0  0  0  0
  -24.3623   -9.4206   21.9190 C   0  0  0  0  0  0
  -23.6298   -8.2243   22.0755 C   0  0  0  0  0  0
  -22.4279   -8.0285   21.3546 C   0  0  0  0  0  0
  -21.9920   -9.0260   20.4645 C   0  0  0  0  0  0
  -22.7250  -10.2138   20.3060 C   0  0  0  0  0  0
  -21.6849   -6.0740   22.5281 C   0  0  0  0  0  0
  -21.4014   -6.5646   23.8217 C   0  0  0  0  0  0
  -21.3657   -5.6798   24.9178 C   0  0  0  0  0  0
  -21.6042   -4.3059   24.7227 C   0  0  0  0  0  0
  -21.8817   -3.8151   23.4348 C   0  0  0  0  0  0
  -21.9194   -4.6969   22.3404 C   0  0  0  0  0  0
  -22.7821  -13.5218   21.1878 C   0  0  0  0  0  0
  -22.1660   -4.2156   21.0982 F   0  0  0  0  0  0
  -21.5628   -3.4541   25.7740 F   0  0  0  0  0  0
  -29.9825  -13.5243   20.3911 N   0  0  0  0  0  0
  -26.2926  -12.9397   20.3279 N   0  0  0  0  0  0
  -25.9319  -11.6541   20.5756 N   0  0  0  0  0  0
  -22.0467  -12.8201   22.0430 N   0  0  0  0  0  0
  -25.4190  -15.1919   20.4097 N   0  0  0  0  0  0
  -31.8122  -14.8335   20.1998 O   0  0  0  0  0  0
  -21.6641   -6.8883   21.4242 O   0  0  0  0  0  0
  -22.3506  -14.5530   20.6730 O   0  0  0  0  0  0
  -24.6329  -31.8554   23.2008 C   0  0  0  0  0  0
  -25.9159  -32.4754   23.8337 C   0  0  1  0  0  0
  -27.2064  -27.2413   20.1400 C   0  0  0  0  0  0
  -25.5951  -33.8557   24.2258 N   0  0  0  0  0  0
  -23.4282  -30.4797   21.5463 C   0  0  2  0  0  0
  -24.8740  -28.9258   20.1165 C   0  0  0  0  0  0
  -22.7510  -29.4596   22.4943 C   0  0  0  0  0  0
  -18.0288  -28.1368   22.8470 C   0  0  0  0  0  0
  -24.1503  -36.7281   23.2643 C   0  0  0  0  0  0
  -25.9767  -30.7596   21.3883 C   0  0  0  0  0  0
  -26.0471  -29.3798   20.7340 C   0  0  0  0  0  0
  -27.2173  -28.5502   20.7364 C   0  0  0  0  0  0
  -26.0222  -26.8806   19.4636 C   0  0  0  0  0  0
  -24.8682  -27.6839   19.4690 C   0  0  0  0  0  0
  -23.6475  -29.8167   20.1623 C   0  0  0  0  0  0
  -25.4129  -36.3069   24.0326 C   0  0  1  0  0  0
  -20.5881  -28.3685   23.1262 C   0  0  2  0  0  0
  -20.6782  -26.9404   22.5397 C   0  0  0  0  0  0
  -19.5763  -26.6363   21.5197 C   0  0  0  0  0  0
  -18.1937  -26.7906   22.1602 C   0  0  0  0  0  0
  -19.1541  -28.8844   23.2852 C   0  0  0  0  0  0
  -18.9466  -30.1442   23.8870 C   0  0  0  0  0  0
  -17.6471  -30.6575   24.0551 C   0  0  0  0  0  0
  -25.9071  -34.9440   23.5098 C   0  0  0  0  0  0
  -16.5356  -29.9065   23.6336 C   0  0  0  0  0  0
  -16.7270  -28.6483   23.0349 C   0  0  0  0  0  0
  -26.4513  -31.6587   25.0734 C   0  0  0  0  0  0
  -25.3717  -31.3738   26.1441 C   0  0  0  0  0  0
  -27.0372  -30.3001   24.6246 C   0  0  0  0  0  0
  -27.6064  -32.4337   25.7499 C   0  0  0  0  0  0
  -27.5587  -37.1797   24.8463 C   0  0  0  0  0  0
  -21.4220  -29.3032   22.3672 N   0  0  0  0  0  0
  -26.4302  -37.3765   23.9406 N   0  0  0  0  0  0
  -24.6981  -31.0503   22.1004 N   0  0  0  0  0  0
  -23.4211  -28.8133   23.3037 O   0  0  0  0  0  0
  -28.2994  -26.3393   20.1308 O   0  0  0  0  0  0
  -26.5636  -34.8907   22.4666 O   0  0  0  0  0  0
  -23.5478  -32.1386   23.7301 O   0  0  0  0  0  0
  -29.5004  -18.4832   20.3651 C   0  0  0  0  0  0
  -31.2641  -17.5635   21.7548 C   0  0  0  0  0  0
  -29.8813  -19.8604   20.6755 C   0  0  0  0  0  0
  -30.9773  -20.0112   21.5694 C   0  0  0  0  0  0
  -30.1941  -17.3041   20.8742 C   0  0  0  0  0  0
  -31.6389  -18.8766   22.1009 C   0  0  0  0  0  0
  -26.9651  -24.0345   20.2265 C   0  0  0  0  0  0
  -27.2881  -22.5797   20.6747 C   0  0  0  0  0  0
  -29.2787  -23.8058   20.3091 C   0  0  0  0  0  0
  -28.1667  -24.9085   20.6306 C   0  0  1  0  0  0
  -31.5003  -21.3913   21.9478 C   0  0  0  0  0  0
  -29.2860  -21.1541   19.9334 C   0  0  0  0  0  0
  -29.8257  -15.8869   20.6079 N   0  0  0  0  0  0
  -28.7655  -22.4082   20.6788 N   0  3  2  0  0  0
  -32.6763  -19.0412   22.9571 F   0  0  0  0  0  0
  -31.4727  -12.5958   19.1574 H   0  0  0  0  0  0
  -30.3870  -11.4865   19.9496 H   0  0  0  0  0  0
  -29.7894  -11.7344   17.5142 H   0  0  0  0  0  0
  -29.6275  -13.4614   17.7138 H   0  0  0  0  0  0
  -27.8933  -11.2804   18.9125 H   0  0  0  0  0  0
  -27.3740  -12.5182   17.8002 H   0  0  0  0  0  0
  -27.6317  -14.2502   19.4647 H   0  0  0  0  0  0
  -28.7270  -12.1677   21.4187 H   0  0  0  0  0  0
  -28.4230  -13.8466   21.7921 H   0  0  0  0  0  0
  -25.2765   -9.5680   22.4768 H   0  0  0  0  0  0
  -24.0006   -7.4630   22.7472 H   0  0  0  0  0  0
  -21.0853   -8.8780   19.8945 H   0  0  0  0  0  0
  -22.3711  -10.9679   19.6173 H   0  0  0  0  0  0
  -21.2005   -7.6153   23.9721 H   0  0  0  0  0  0
  -21.1479   -6.0528   25.9081 H   0  0  0  0  0  0
  -22.0597   -2.7615   23.2847 H   0  0  0  0  0  0
  -22.4086  -11.9856   22.4801 H   0  0  0  0  0  0
  -21.1081  -13.1215   22.2642 H   0  0  0  0  0  0
  -24.6481  -15.8423   20.5155 H   0  0  0  0  0  0
  -26.2585  -15.6313   20.0563 H   0  0  0  0  0  0
  -26.7230  -32.5398   23.1077 H   0  0  0  0  0  0
  -25.0066  -33.9682   25.0386 H   0  0  0  0  0  0
  -22.7243  -31.3022   21.4033 H   0  0  0  0  0  0
  -23.3763  -35.9614   23.3296 H   0  0  0  0  0  0
  -24.3585  -36.8908   22.2057 H   0  0  0  0  0  0
  -23.7262  -37.6479   23.6673 H   0  0  0  0  0  0
  -26.1192  -31.5200   20.6194 H   0  0  0  0  0  0
  -26.8535  -30.8066   22.0229 H   0  0  0  0  0  0
  -28.1166  -28.8944   21.2267 H   0  0  0  0  0  0
  -25.9657  -25.9634   18.9020 H   0  0  0  0  0  0
  -23.9794  -27.3408   18.9569 H   0  0  0  0  0  0
  -23.7762  -30.5950   19.4090 H   0  0  0  0  0  0
  -22.7640  -29.2526   19.8568 H   0  0  0  0  0  0
  -25.1318  -36.1919   25.0815 H   0  0  0  0  0  0
  -20.9949  -28.3258   24.1391 H   0  0  0  0  0  0
  -20.5687  -26.2290   23.3598 H   0  0  0  0  0  0
  -21.6655  -26.7431   22.1196 H   0  0  0  0  0  0
  -19.6939  -25.6273   21.1233 H   0  0  0  0  0  0
  -19.6711  -27.3176   20.6728 H   0  0  0  0  0  0
  -17.4210  -26.6637   21.4000 H   0  0  0  0  0  0
  -18.0339  -26.0047   22.8997 H   0  0  0  0  0  0
  -19.7954  -30.7249   24.2225 H   0  0  0  0  0  0
  -17.5034  -31.6258   24.5147 H   0  0  0  0  0  0
  -15.5358  -30.2962   23.7684 H   0  0  0  0  0  0
  -15.8662  -28.0804   22.7071 H   0  0  0  0  0  0
  -24.5917  -30.7058   25.7761 H   0  0  0  0  0  0
  -24.8871  -32.2904   26.4807 H   0  0  0  0  0  0
  -25.8016  -30.8957   27.0252 H   0  0  0  0  0  0
  -26.2966  -29.6723   24.1270 H   0  0  0  0  0  0
  -27.4042  -29.7286   25.4778 H   0  0  0  0  0  0
  -27.8855  -30.4244   23.9504 H   0  0  0  0  0  0
  -27.2681  -33.3667   26.2015 H   0  0  0  0  0  0
  -28.3898  -32.6849   25.0331 H   0  0  0  0  0  0
  -28.0706  -31.8499   26.5451 H   0  0  0  0  0  0
  -28.2600  -38.0099   24.7517 H   0  0  0  0  0  0
  -28.1088  -36.2631   24.6291 H   0  0  0  0  0  0
  -27.2292  -37.1436   25.8858 H   0  0  0  0  0  0
  -20.9407  -29.8757   21.6881 H   0  0  0  0  0  0
  -26.0182  -38.2836   24.1404 H   0  0  0  0  0  0
  -28.6818  -18.3300   19.6758 H   0  0  0  0  0  0
  -31.8161  -16.7468   22.1958 H   0  0  0  0  0  0
  -26.0255  -24.3792   20.6577 H   0  0  0  0  0  0
  -26.8604  -24.0337   19.1413 H   0  0  0  0  0  0
  -26.7750  -21.8600   20.0357 H   0  0  0  0  0  0
  -26.9298  -22.4099   21.6899 H   0  0  0  0  0  0
  -30.2132  -24.0259   20.8248 H   0  0  0  0  0  0
  -29.4937  -23.8305   19.2402 H   0  0  0  0  0  0
  -28.1257  -25.0071   21.7170 H   0  0  0  0  0  0
  -30.7796  -21.9187   22.5719 H   0  0  0  0  0  0
  -31.7087  -21.9896   21.0610 H   0  0  0  0  0  0
  -32.4310  -21.3379   22.5123 H   0  0  0  0  0  0
  -28.5235  -20.8096   19.2357 H   0  0  0  0  0  0
  -30.0869  -21.4961   19.2768 H   0  0  0  0  0  0
  -28.8352  -15.7060   20.5594 H   0  0  0  0  0  0
  -29.0032  -22.2589   21.6479 H   0  0  0  0  0  0
  1 25  1  0  0  0
  1 30  2  0  0  0
  1 83  1  0  0  0
  2  3  1  0  0  0
  2 25  1  0  0  0
  2 86  1  0  0  0
  2 87  1  0  0  0
  3  4  1  0  0  0
  3 88  1  0  0  0
  3 89  1  0  0  0
  4  5  1  0  0  0
  4 90  1  0  0  0
  4 91  1  0  0  0
  5  6  1  0  0  0
  5 26  1  0  0  0
  5 92  1  0  0  0
  6 25  1  0  0  0
  6 93  1  0  0  0
  6 94  1  0  0  0
  7  8  2  0  0  0
  7 26  1  0  0  0
  7 29  1  0  0  0
  8  9  1  0  0  0
  8 22  1  0  0  0
  9 10  1  0  0  0
  9 27  2  0  0  0
 10 11  2  0  0  0
 10 15  1  0  0  0
 11 12  1  0  0  0
 11 95  1  0  0  0
 12 13  2  0  0  0
 12 96  1  0  0  0
 13 14  1  0  0  0
 13 31  1  0  0  0
 14 15  2  0  0  0
 14 97  1  0  0  0
 15 98  1  0  0  0
 16 17  2  0  0  0
 16 21  1  0  0  0
 16 31  1  0  0  0
 17 18  1  0  0  0
 17 99  1  0  0  0
 18 19  2  0  0  0
 18100  1  0  0  0
 19 20  1  0  0  0
 19 24  1  0  0  0
 20 21  2  0  0  0
 20101  1  0  0  0
 21 23  1  0  0  0
 22 28  1  0  0  0
 22 32  2  0  0  0
 26 27  1  0  0  0
 28102  1  0  0  0
 28103  1  0  0  0
 29104  1  0  0  0
 29105  1  0  0  0
 33 34  1  0  0  0
 33 66  1  0  0  0
 33 70  2  0  0  0
 34 36  1  0  0  0
 34 59  1  0  0  0
 34106  1  0  0  0
 35 44  2  0  0  0
 35 45  1  0  0  0
 35 68  1  0  0  0
 36 56  1  0  0  0
 36107  1  0  0  0
 37 39  1  0  0  0
 37 47  1  0  0  0
 37 66  1  0  0  0
 37108  1  0  0  0
 38 43  2  0  0  0
 38 46  1  0  0  0
 38 47  1  0  0  0
 39 64  1  0  0  0
 39 67  2  0  0  0
 40 52  1  0  0  0
 40 53  2  0  0  0
 40 58  1  0  0  0
 41109  1  0  0  0
 41110  1  0  0  0
 41111  1  0  0  0
 41 48  1  0  0  0
 42 43  1  0  0  0
 42 66  1  0  0  0
 42112  1  0  0  0
 42113  1  0  0  0
 43 44  1  0  0  0
 44114  1  0  0  0
 45 46  2  0  0  0
 45115  1  0  0  0
 46116  1  0  0  0
 47117  1  0  0  0
 47118  1  0  0  0
 48 56  1  0  0  0
 48 65  1  0  0  0
 48119  1  0  0  0
 49 50  1  0  0  0
 49 53  1  0  0  0
 49 64  1  0  0  0
 49120  1  0  0  0
 50 51  1  0  0  0
 50121  1  0  0  0
 50122  1  0  0  0
 51 52  1  0  0  0
 51123  1  0  0  0
 51124  1  0  0  0
 52125  1  0  0  0
 52126  1  0  0  0
 53 54  1  0  0  0
 54 55  2  0  0  0
 54127  1  0  0  0
 55 57  1  0  0  0
 55128  1  0  0  0
 56 69  2  0  0  0
 57 58  2  0  0  0
 57129  1  0  0  0
 58130  1  0  0  0
 59 60  1  0  0  0
 59 61  1  0  0  0
 59 62  1  0  0  0
 60131  1  0  0  0
 60132  1  0  0  0
 60133  1  0  0  0
 61134  1  0  0  0
 61135  1  0  0  0
 61136  1  0  0  0
 62137  1  0  0  0
 62138  1  0  0  0
 62139  1  0  0  0
 63 65  1  0  0  0
 63140  1  0  0  0
 63141  1  0  0  0
 63142  1  0  0  0
 64143  1  0  0  0
 65144  1  0  0  0
 68 80  1  0  0  0
 71 73  2  0  0  0
 71 75  1  0  0  0
 71145  1  0  0  0
 72 75  2  0  0  0
 72 76  1  0  0  0
 72146  1  0  0  0
 73 74  1  0  0  0
 73 82  1  0  0  0
 74 76  2  0  0  0
 74 81  1  0  0  0
 75 83  1  0  0  0
 76 85  1  0  0  0
 77 78  1  0  0  0
 77 80  1  0  0  0
 77147  1  0  0  0
 77148  1  0  0  0
 78 84  1  0  0  0
 78149  1  0  0  0
 78150  1  0  0  0
 79 80  1  0  0  0
 79 84  1  0  0  0
 79151  1  0  0  0
 79152  1  0  0  0
 80153  1  0  0  0
 81154  1  0  0  0
 81155  1  0  0  0
 81156  1  0  0  0
 82157  1  0  0  0
 82158  1  0  0  0
 82 84  1  0  0  0
 83159  1  0  0  0
 84160  1  0  0  0
M  CHG  1  84   1
M  ISO  4   1 100  68 101  80 101  83 100
M  END
> <chiral flag>
0

> <version>
0

> <s_m_source_file>
/data/baiqing/PycharmProjects/Reinvent-master-3.2/result/LINK_invent/BTK/process_docking_weight1_custom_product_contain_oxygen_bond_distance_aromatic_linkinvent_7_9_3/rearranged_h_0029.sdf

> <i_m_source_file_index>
48

> <r_mmod_Potential_Energy-OPLS-2005>
158.08869934082

> <r_mmod_Stretch_Energy-OPLS-2005>
128.246704101562

> <r_mmod_Bend_Energy-OPLS-2005>
204.993988037109

> <r_mmod_Torsional_Energy-OPLS-2005>
295.755615234375

> <r_mmod_Improper_Torsional_Energy-OPLS-2005>
7.37232494354248

> <r_mmod_Van_der_Waal_Energy-OPLS-2005>
139.867553710938

> <r_mmod_Electrostatic_Energy-OPLS-2005>
-256.518524169922

> <r_mmod_Solvation_Energy-OPLS-2005>
-451.662963867188

> <b_mmod_Minimization_Converged-OPLS-2005>
0

> <r_mmod_RMS_Derivative-OPLS-2005>
1.47991287708282

$$$$
48
                    3D
 Structure written by MMmdl.
163173  0  0  1  0            999 V2000
  -30.6858  -14.5575   20.5877 C   0  0  0  0  0  0
  -30.4317  -12.3645   19.4447 C   0  0  0  0  0  0
  -29.5048  -12.5154   18.2190 C   0  0  0  0  0  0
  -28.0251  -12.3623   18.6233 C   0  0  0  0  0  0
  -27.6579  -13.2128   19.8676 C   0  0  2  0  0  0
  -28.6968  -13.0158   20.9906 C   0  0  0  0  0  0
  -25.2578  -13.8168   20.5677 C   0  0  0  0  0  0
  -24.1836  -13.0440   20.9170 C   0  0  0  0  0  0
  -24.6398  -11.6908   20.8726 C   0  0  0  0  0  0
  -23.9069  -10.4293   21.0400 C   0  0  0  0  0  0
  -24.3624   -9.4209   21.9178 C   0  0  0  0  0  0
  -23.6296   -8.2246   22.0749 C   0  0  0  0  0  0
  -22.4275   -8.0285   21.3542 C   0  0  0  0  0  0
  -21.9912   -9.0261   20.4646 C   0  0  0  0  0  0
  -22.7242  -10.2137   20.3051 C   0  0  0  0  0  0
  -21.6854   -6.0737   22.5279 C   0  0  0  0  0  0
  -21.4015   -6.5640   23.8214 C   0  0  0  0  0  0
  -21.3659   -5.6790   24.9175 C   0  0  0  0  0  0
  -21.6046   -4.3053   24.7220 C   0  0  0  0  0  0
  -21.8822   -3.8146   23.4340 C   0  0  0  0  0  0
  -21.9193   -4.6965   22.3398 C   0  0  0  0  0  0
  -22.7859  -13.5232   21.1838 C   0  0  0  0  0  0
  -22.1662   -4.2155   21.0974 F   0  0  0  0  0  0
  -21.5627   -3.4534   25.7730 F   0  0  0  0  0  0
  -30.0207  -13.3656   20.4502 N   0  0  0  0  0  0
  -26.3005  -12.9345   20.3316 N   0  0  0  0  0  0
  -25.9323  -11.6501   20.5741 N   0  0  0  0  0  0
  -22.0503  -12.8233   22.0402 N   0  0  0  0  0  0
  -25.4323  -15.1889   20.4123 N   0  0  0  0  0  0
  -31.7997  -14.7241   20.0772 O   0  0  0  0  0  0
  -21.6639   -6.8881   21.4241 O   0  0  0  0  0  0
  -22.3542  -14.5537   20.6684 O   0  0  0  0  0  0
  -24.6224  -31.8645   23.2065 C   0  0  0  0  0  0
  -25.9086  -32.4809   23.8384 C   0  0  1  0  0  0
  -27.2255  -27.3671   20.1000 C   0  0  0  0  0  0
  -25.5921  -33.8608   24.2317 N   0  0  0  0  0  0
  -23.4127  -30.4898   21.5499 C   0  0  2  0  0  0
  -24.8569  -28.9546   20.1134 C   0  0  0  0  0  0
  -22.7453  -29.4649   22.4972 C   0  0  0  0  0  0
  -18.0281  -28.1380   22.8496 C   0  0  0  0  0  0
  -24.1489  -36.7303   23.2637 C   0  0  0  0  0  0
  -25.9506  -30.8118   21.3688 C   0  0  0  0  0  0
  -26.0258  -29.4441   20.7089 C   0  0  0  0  0  0
  -27.2141  -28.6625   20.6908 C   0  0  0  0  0  0
  -26.0278  -26.9183   19.4941 C   0  0  0  0  0  0
  -24.8570  -27.6945   19.4999 C   0  0  0  0  0  0
  -23.6231  -29.8278   20.1642 C   0  0  0  0  0  0
  -25.4112  -36.3105   24.0337 C   0  0  1  0  0  0
  -20.5879  -28.3676   23.1301 C   0  0  2  0  0  0
  -20.6774  -26.9406   22.5413 C   0  0  0  0  0  0
  -19.5749  -26.6388   21.5215 C   0  0  0  0  0  0
  -18.1927  -26.7927   22.1627 C   0  0  0  0  0  0
  -19.1534  -28.8845   23.2896 C   0  0  0  0  0  0
  -18.9456  -30.1449   23.8906 C   0  0  0  0  0  0
  -17.6457  -30.6584   24.0566 C   0  0  0  0  0  0
  -25.9042  -34.9470   23.5123 C   0  0  0  0  0  0
  -16.5348  -29.9084   23.6329 C   0  0  0  0  0  0
  -16.7270  -28.6502   23.0354 C   0  0  0  0  0  0
  -26.4481  -31.6597   25.0732 C   0  0  0  0  0  0
  -25.3724  -31.3725   26.1466 C   0  0  0  0  0  0
  -27.0311  -30.3029   24.6145 C   0  0  0  0  0  0
  -27.6053  -32.4318   25.7497 C   0  0  0  0  0  0
  -27.5584  -37.1809   24.8468 C   0  0  0  0  0  0
  -21.4174  -29.3041   22.3706 N   0  0  0  0  0  0
  -26.4300  -37.3792   23.9408 N   0  0  0  0  0  0
  -24.6808  -31.0701   22.0992 N   0  0  0  0  0  0
  -23.4196  -28.8189   23.3034 O   0  0  0  0  0  0
  -28.3662  -26.5599   20.1377 O   0  0  0  0  0  0
  -26.5607  -34.8926   22.4688 O   0  0  0  0  0  0
  -23.5398  -32.1421   23.7420 O   0  0  0  0  0  0
  -29.1979  -19.3122   23.9881 C   0  0  0  0  0  0
  -29.3840  -17.9180   23.9750 C   0  0  0  0  0  0
  -29.2813  -20.0578   22.7913 C   0  0  0  0  0  0
  -29.6446  -17.2980   22.7436 C   0  0  0  0  0  0
  -29.7393  -18.0164   21.5566 C   0  0  0  0  0  0
  -29.5707  -19.4462   21.5421 C   0  0  0  0  0  0
  -29.8213  -15.8175   22.5239 C   0  0  0  0  0  0
  -30.0189  -17.0001   20.4477 C   0  0  0  0  0  0
  -28.5149  -22.9929   18.8353 C   0  0  0  0  0  0
  -28.2687  -24.5111   18.6552 C   0  0  0  0  0  0
  -29.2262  -24.2120   20.7993 C   0  0  0  0  0  0
  -28.9342  -22.7600   20.3023 C   0  0  2  0  0  0
  -28.1879  -25.1059   20.0702 C   0  0  2  0  0  0
  -30.0703  -21.6895   20.4892 C   0  0  0  0  0  0
  -29.9804  -15.6287   21.0681 N   0  0  0  0  0  0
  -29.6578  -20.2621   20.3844 N   0  0  0  0  0  0
  -31.4746  -12.4763   19.1432 H   0  0  0  0  0  0
  -30.3558  -11.3596   19.8627 H   0  0  0  0  0  0
  -29.7627  -11.7760   17.4594 H   0  0  0  0  0  0
  -29.6601  -13.4931   17.7602 H   0  0  0  0  0  0
  -27.8474  -11.3068   18.8322 H   0  0  0  0  0  0
  -27.3759  -12.6187   17.7853 H   0  0  0  0  0  0
  -27.6938  -14.2582   19.5603 H   0  0  0  0  0  0
  -28.6977  -11.9790   21.3303 H   0  0  0  0  0  0
  -28.4178  -13.5952   21.8634 H   0  0  0  0  0  0
  -25.2774   -9.5681   22.4745 H   0  0  0  0  0  0
  -24.0009   -7.4633   22.7465 H   0  0  0  0  0  0
  -21.0842   -8.8785   19.8950 H   0  0  0  0  0  0
  -22.3710  -10.9677   19.6157 H   0  0  0  0  0  0
  -21.2015   -7.6148   23.9723 H   0  0  0  0  0  0
  -21.1476   -6.0514   25.9079 H   0  0  0  0  0  0
  -22.0602   -2.7610   23.2836 H   0  0  0  0  0  0
  -22.4121  -11.9902   22.4803 H   0  0  0  0  0  0
  -21.1123  -13.1267   22.2604 H   0  0  0  0  0  0
  -24.6735  -15.8502   20.5350 H   0  0  0  0  0  0
  -26.2987  -15.6290   20.1283 H   0  0  0  0  0  0
  -26.7155  -32.5497   23.1142 H   0  0  0  0  0  0
  -25.0082  -33.9767   25.0469 H   0  0  0  0  0  0
  -22.7040  -31.3088   21.4107 H   0  0  0  0  0  0
  -23.3755  -35.9633   23.3309 H   0  0  0  0  0  0
  -24.3582  -36.8906   22.2049 H   0  0  0  0  0  0
  -23.7234  -37.6510   23.6641 H   0  0  0  0  0  0
  -26.0745  -31.5789   20.6031 H   0  0  0  0  0  0
  -26.8342  -30.8607   21.9934 H   0  0  0  0  0  0
  -28.1143  -29.0372   21.1579 H   0  0  0  0  0  0
  -25.9592  -25.9544   19.0176 H   0  0  0  0  0  0
  -23.9585  -27.3100   19.0367 H   0  0  0  0  0  0
  -23.7375  -30.6050   19.4079 H   0  0  0  0  0  0
  -22.7448  -29.2534   19.8644 H   0  0  0  0  0  0
  -25.1285  -36.1976   25.0830 H   0  0  0  0  0  0
  -20.9971  -28.3239   24.1422 H   0  0  0  0  0  0
  -20.5686  -26.2279   23.3602 H   0  0  0  0  0  0
  -21.6640  -26.7451   22.1194 H   0  0  0  0  0  0
  -19.6910  -25.6305   21.1230 H   0  0  0  0  0  0
  -19.6682  -27.3211   20.6753 H   0  0  0  0  0  0
  -17.4198  -26.6683   21.4026 H   0  0  0  0  0  0
  -18.0323  -26.0062   22.9016 H   0  0  0  0  0  0
  -19.7932  -30.7265   24.2278 H   0  0  0  0  0  0
  -17.5010  -31.6264   24.5168 H   0  0  0  0  0  0
  -15.5349  -30.2990   23.7645 H   0  0  0  0  0  0
  -15.8670  -28.0821   22.7068 H   0  0  0  0  0  0
  -24.5911  -30.7057   25.7801 H   0  0  0  0  0  0
  -24.8896  -32.2886   26.4884 H   0  0  0  0  0  0
  -25.8058  -30.8919   27.0246 H   0  0  0  0  0  0
  -26.2871  -29.6805   24.1159 H   0  0  0  0  0  0
  -27.4021  -29.7258   25.4625 H   0  0  0  0  0  0
  -27.8734  -30.4334   23.9345 H   0  0  0  0  0  0
  -27.2677  -33.3619   26.2086 H   0  0  0  0  0  0
  -28.3856  -32.6878   25.0315 H   0  0  0  0  0  0
  -28.0728  -31.8433   26.5404 H   0  0  0  0  0  0
  -28.2610  -38.0097   24.7510 H   0  0  0  0  0  0
  -28.1070  -36.2631   24.6301 H   0  0  0  0  0  0
  -27.2301  -37.1465   25.8871 H   0  0  0  0  0  0
  -20.9343  -29.8767   21.6925 H   0  0  0  0  0  0
  -26.0191  -38.2874   24.1397 H   0  0  0  0  0  0
  -28.9804  -19.8165   24.9191 H   0  0  0  0  0  0
  -29.3110  -17.3412   24.8871 H   0  0  0  0  0  0
  -29.1069  -21.1217   22.8603 H   0  0  0  0  0  0
  -30.6979  -15.4642   23.0703 H   0  0  0  0  0  0
  -28.9446  -15.3110   22.9214 H   0  0  0  0  0  0
  -30.9892  -17.2119   19.9963 H   0  0  0  0  0  0
  -29.2592  -17.0788   19.6697 H   0  0  0  0  0  0
  -29.2830  -22.6563   18.1377 H   0  0  0  0  0  0
  -27.6142  -22.4201   18.6118 H   0  0  0  0  0  0
  -27.3893  -24.7045   18.0431 H   0  0  0  0  0  0
  -29.1176  -24.9551   18.1333 H   0  0  0  0  0  0
  -29.1477  -24.2946   21.8838 H   0  0  0  0  0  0
  -30.2374  -24.5115   20.5203 H   0  0  0  0  0  0
  -28.0567  -22.4218   20.8564 H   0  0  0  0  0  0
  -27.2262  -24.8418   20.5138 H   0  0  0  0  0  0
  -30.5786  -21.8622   21.4385 H   0  0  0  0  0  0
  -30.8437  -21.8662   19.7398 H   0  0  0  0  0  0
  -29.8943  -19.7940   19.5127 H   0  0  0  0  0  0
  1 25  1  0  0  0
  1 30  2  0  0  0
  1 85  1  0  0  0
  2  3  1  0  0  0
  2 25  1  0  0  0
  2 87  1  0  0  0
  2 88  1  0  0  0
  3  4  1  0  0  0
  3 89  1  0  0  0
  3 90  1  0  0  0
  4  5  1  0  0  0
  4 91  1  0  0  0
  4 92  1  0  0  0
  5  6  1  0  0  0
  5 26  1  0  0  0
  5 93  1  0  0  0
  6 25  1  0  0  0
  6 94  1  0  0  0
  6 95  1  0  0  0
  7  8  2  0  0  0
  7 26  1  0  0  0
  7 29  1  0  0  0
  8  9  1  0  0  0
  8 22  1  0  0  0
  9 10  1  0  0  0
  9 27  2  0  0  0
 10 11  2  0  0  0
 10 15  1  0  0  0
 11 12  1  0  0  0
 11 96  1  0  0  0
 12 13  2  0  0  0
 12 97  1  0  0  0
 13 14  1  0  0  0
 13 31  1  0  0  0
 14 15  2  0  0  0
 14 98  1  0  0  0
 15 99  1  0  0  0
 16 17  2  0  0  0
 16 21  1  0  0  0
 16 31  1  0  0  0
 17 18  1  0  0  0
 17100  1  0  0  0
 18 19  2  0  0  0
 18101  1  0  0  0
 19 20  1  0  0  0
 19 24  1  0  0  0
 20 21  2  0  0  0
 20102  1  0  0  0
 21 23  1  0  0  0
 22 28  1  0  0  0
 22 32  2  0  0  0
 26 27  1  0  0  0
 28103  1  0  0  0
 28104  1  0  0  0
 29105  1  0  0  0
 29106  1  0  0  0
 33 34  1  0  0  0
 33 66  1  0  0  0
 33 70  2  0  0  0
 34 36  1  0  0  0
 34 59  1  0  0  0
 34107  1  0  0  0
 35 44  2  0  0  0
 35 45  1  0  0  0
 35 68  1  0  0  0
 36 56  1  0  0  0
 36108  1  0  0  0
 37 39  1  0  0  0
 37 47  1  0  0  0
 37 66  1  0  0  0
 37109  1  0  0  0
 38 43  2  0  0  0
 38 46  1  0  0  0
 38 47  1  0  0  0
 39 64  1  0  0  0
 39 67  2  0  0  0
 40 52  1  0  0  0
 40 53  2  0  0  0
 40 58  1  0  0  0
 41110  1  0  0  0
 41111  1  0  0  0
 41112  1  0  0  0
 41 48  1  0  0  0
 42 43  1  0  0  0
 42 66  1  0  0  0
 42113  1  0  0  0
 42114  1  0  0  0
 43 44  1  0  0  0
 44115  1  0  0  0
 45 46  2  0  0  0
 45116  1  0  0  0
 46117  1  0  0  0
 47118  1  0  0  0
 47119  1  0  0  0
 48 56  1  0  0  0
 48 65  1  0  0  0
 48120  1  0  0  0
 49 50  1  0  0  0
 49 53  1  0  0  0
 49 64  1  0  0  0
 49121  1  0  0  0
 50 51  1  0  0  0
 50122  1  0  0  0
 50123  1  0  0  0
 51 52  1  0  0  0
 51124  1  0  0  0
 51125  1  0  0  0
 52126  1  0  0  0
 52127  1  0  0  0
 53 54  1  0  0  0
 54 55  2  0  0  0
 54128  1  0  0  0
 55 57  1  0  0  0
 55129  1  0  0  0
 56 69  2  0  0  0
 57 58  2  0  0  0
 57130  1  0  0  0
 58131  1  0  0  0
 59 60  1  0  0  0
 59 61  1  0  0  0
 59 62  1  0  0  0
 60132  1  0  0  0
 60133  1  0  0  0
 60134  1  0  0  0
 61135  1  0  0  0
 61136  1  0  0  0
 61137  1  0  0  0
 62138  1  0  0  0
 62139  1  0  0  0
 62140  1  0  0  0
 63 65  1  0  0  0
 63141  1  0  0  0
 63142  1  0  0  0
 63143  1  0  0  0
 64144  1  0  0  0
 65145  1  0  0  0
 68 83  1  0  0  0
 71 72  2  0  0  0
 71 73  1  0  0  0
 71146  1  0  0  0
 72 74  1  0  0  0
 72147  1  0  0  0
 73 76  2  0  0  0
 73148  1  0  0  0
 74 75  2  0  0  0
 74 77  1  0  0  0
 75 76  1  0  0  0
 75 78  1  0  0  0
 76 86  1  0  0  0
 77 85  1  0  0  0
 77149  1  0  0  0
 77150  1  0  0  0
 78 85  1  0  0  0
 78151  1  0  0  0
 78152  1  0  0  0
 79 80  1  0  0  0
 79 82  1  0  0  0
 79153  1  0  0  0
 79154  1  0  0  0
 80 83  1  0  0  0
 80155  1  0  0  0
 80156  1  0  0  0
 81 82  1  0  0  0
 81 83  1  0  0  0
 81157  1  0  0  0
 81158  1  0  0  0
 82 84  1  0  0  0
 82159  1  0  0  0
 83160  1  0  0  0
 84 86  1  0  0  0
 84161  1  0  0  0
 84162  1  0  0  0
 86163  1  0  0  0
M  ISO  4   1 100  68 101  83 101  85 100
M  END
> <chiral flag>
0

> <version>
0

> <s_m_source_file>
/data/baiqing/PycharmProjects/Reinvent-master-3.2/result/LINK_invent/BTK/process_docking_weight1_custom_product_contain_oxygen_bond_distance_aromatic_linkinvent_7_9_3/rearranged_h_0029.sdf

> <i_m_source_file_index>
49

> <r_mmod_Potential_Energy-OPLS-2005>
178.060516357422

> <r_mmod_Stretch_Energy-OPLS-2005>
61.4415092468262

> <r_mmod_Bend_Energy-OPLS-2005>
198.627716064453

> <r_mmod_Torsional_Energy-OPLS-2005>
300.498413085938

> <r_mmod_Improper_Torsional_Energy-OPLS-2005>
11.0948419570923

> <r_mmod_Van_der_Waal_Energy-OPLS-2005>
146.850616455078

> <r_mmod_Electrostatic_Energy-OPLS-2005>
-360.817749023438

> <r_mmod_Solvation_Energy-OPLS-2005>
-205.974700927734

> <b_mmod_Minimization_Converged-OPLS-2005>
0

> <r_mmod_RMS_Derivative-OPLS-2005>
0.792928636074066

$$$$
49
                    3D
 Structure written by MMmdl.
153162  0  0  1  0            999 V2000
  -30.4758  -15.1637   20.3566 C   0  0  0  0  0  0
  -30.4349  -12.7322   19.5159 C   0  0  0  0  0  0
  -29.5279  -12.5584   18.2741 C   0  0  0  0  0  0
  -28.0704  -12.3058   18.6987 C   0  0  0  0  0  0
  -27.6143  -13.2696   19.8236 C   0  0  2  0  0  0
  -28.6516  -13.4040   20.9576 C   0  0  0  0  0  0
  -25.2399  -13.8247   20.5730 C   0  0  0  0  0  0
  -24.1750  -13.0441   20.9256 C   0  0  0  0  0  0
  -24.6399  -11.6936   20.8764 C   0  0  0  0  0  0
  -23.9092  -10.4295   21.0410 C   0  0  0  0  0  0
  -24.3638   -9.4207   21.9185 C   0  0  0  0  0  0
  -23.6305   -8.2244   22.0756 C   0  0  0  0  0  0
  -22.4286   -8.0286   21.3546 C   0  0  0  0  0  0
  -21.9928   -9.0259   20.4646 C   0  0  0  0  0  0
  -22.7265  -10.2134   20.3055 C   0  0  0  0  0  0
  -21.6859   -6.0740   22.5280 C   0  0  0  0  0  0
  -21.4014   -6.5643   23.8213 C   0  0  0  0  0  0
  -21.3659   -5.6795   24.9174 C   0  0  0  0  0  0
  -21.6043   -4.3058   24.7224 C   0  0  0  0  0  0
  -21.8819   -3.8150   23.4346 C   0  0  0  0  0  0
  -21.9191   -4.6966   22.3402 C   0  0  0  0  0  0
  -22.7766  -13.5193   21.1902 C   0  0  0  0  0  0
  -22.1661   -4.2153   21.0979 F   0  0  0  0  0  0
  -21.5627   -3.4540   25.7736 F   0  0  0  0  0  0
  -29.8976  -13.8735   20.3342 N   0  0  0  0  0  0
  -26.2822  -12.9514   20.3210 N   0  0  0  0  0  0
  -25.9332  -11.6624   20.5724 N   0  0  0  0  0  0
  -22.0427  -12.8169   22.0455 N   0  0  0  0  0  0
  -25.4033  -15.1978   20.4145 N   0  0  0  0  0  0
  -31.7015  -15.1452   20.1904 O   0  0  0  0  0  0
  -21.6646   -6.8885   21.4243 O   0  0  0  0  0  0
  -22.3440  -14.5495   20.6748 O   0  0  0  0  0  0
  -24.6558  -31.8299   23.1742 C   0  0  0  0  0  0
  -25.9266  -32.4618   23.8187 C   0  0  1  0  0  0
  -27.2188  -26.9956   20.1818 C   0  0  0  0  0  0
  -25.5961  -33.8430   24.2101 N   0  0  0  0  0  0
  -23.4666  -30.4423   21.5222 C   0  0  2  0  0  0
  -24.9185  -28.8359   20.1156 C   0  0  0  0  0  0
  -22.7628  -29.4478   22.4810 C   0  0  0  0  0  0
  -18.0316  -28.1411   22.8477 C   0  0  0  0  0  0
  -24.1487  -36.7217   23.2646 C   0  0  0  0  0  0
  -26.0310  -30.6601   21.3908 C   0  0  0  0  0  0
  -26.1007  -29.2546   20.7391 C   0  0  0  0  0  0
  -27.2503  -28.3553   20.7433 C   0  0  0  0  0  0
  -26.0064  -26.7042   19.5215 C   0  0  0  0  0  0
  -24.8917  -27.5794   19.4875 C   0  0  0  0  0  0
  -23.7020  -29.7566   20.1483 C   0  0  0  0  0  0
  -25.4127  -36.2984   24.0303 C   0  0  1  0  0  0
  -20.5934  -28.3742   23.1213 C   0  0  2  0  0  0
  -20.6794  -26.9430   22.5408 C   0  0  0  0  0  0
  -19.5767  -26.6387   21.5215 C   0  0  0  0  0  0
  -18.1951  -26.7947   22.1625 C   0  0  0  0  0  0
  -19.1576  -28.8898   23.2834 C   0  0  0  0  0  0
  -18.9490  -30.1494   23.8862 C   0  0  0  0  0  0
  -17.6487  -30.6604   24.0561 C   0  0  0  0  0  0
  -25.9088  -34.9364   23.5022 C   0  0  0  0  0  0
  -16.5375  -29.9094   23.6345 C   0  0  0  0  0  0
  -16.7299  -28.6513   23.0364 C   0  0  0  0  0  0
  -26.4539  -31.6538   25.0687 C   0  0  0  0  0  0
  -25.3687  -31.3784   26.1361 C   0  0  0  0  0  0
  -27.0414  -30.2912   24.6357 C   0  0  0  0  0  0
  -27.6051  -32.4322   25.7481 C   0  0  0  0  0  0
  -27.5567  -37.1768   24.8468 C   0  0  0  0  0  0
  -21.4304  -29.3045   22.3567 N   0  0  0  0  0  0
  -26.4276  -37.3714   23.9411 N   0  0  0  0  0  0
  -24.7387  -31.0031   22.0834 N   0  0  0  0  0  0
  -23.4208  -28.8046   23.3026 O   0  0  0  0  0  0
  -28.2550  -25.9485   20.2232 O   0  0  0  0  0  0
  -26.5694  -34.8891   22.4615 O   0  0  0  0  0  0
  -23.5646  -32.1236   23.6884 O   0  0  0  0  0  0
  -30.3266  -20.7810   19.1671 C   0  0  0  0  0  0
  -31.0549  -19.6763   18.6757 C   0  0  0  0  0  0
  -29.1059  -19.2120   20.5036 C   0  0  0  0  0  0
  -29.2569  -20.6858   20.0801 C   0  0  0  0  0  0
  -29.8863  -17.9673   20.0499 C   0  0  0  0  0  0
  -30.8358  -18.3314   19.0502 C   0  0  0  0  0  0
  -28.1645  -23.1317   19.3298 C   0  0  0  0  0  0
  -29.0777  -23.2910   21.0664 C   0  0  0  0  0  0
  -28.0324  -24.3478   20.3971 C   0  0  0  0  0  0
  -28.0026  -18.9403   21.5055 C   0  0  0  0  0  0
  -28.5029  -22.0614   20.3728 N   0  0  0  0  0  0
  -29.7061  -16.4166   20.4265 N   0  0  0  0  0  0
  -31.7228  -17.1773   18.1195 Cl  0  0  0  0  0  0
  -31.4610  -12.9123   19.1924 H   0  0  0  0  0  0
  -30.4692  -11.8137   20.1040 H   0  0  0  0  0  0
  -29.8863  -11.7379   17.6511 H   0  0  0  0  0  0
  -29.5791  -13.4576   17.6579 H   0  0  0  0  0  0
  -28.0053  -11.2756   19.0502 H   0  0  0  0  0  0
  -27.4035  -12.3773   17.8385 H   0  0  0  0  0  0
  -27.5420  -14.2467   19.3448 H   0  0  0  0  0  0
  -28.7926  -12.4592   21.4844 H   0  0  0  0  0  0
  -28.3123  -14.1277   21.7004 H   0  0  0  0  0  0
  -25.2780   -9.5679   22.4767 H   0  0  0  0  0  0
  -24.0010   -7.4634   22.7478 H   0  0  0  0  0  0
  -21.0861   -8.8782   19.8950 H   0  0  0  0  0  0
  -22.3727  -10.9674   19.6166 H   0  0  0  0  0  0
  -21.2012   -7.6152   23.9717 H   0  0  0  0  0  0
  -21.1480   -6.0525   25.9077 H   0  0  0  0  0  0
  -22.0598   -2.7612   23.2843 H   0  0  0  0  0  0
  -22.4056  -11.9830   22.4830 H   0  0  0  0  0  0
  -21.1039  -13.1171   22.2670 H   0  0  0  0  0  0
  -24.6269  -15.8430   20.5130 H   0  0  0  0  0  0
  -26.2357  -15.6363   20.0436 H   0  0  0  0  0  0
  -26.7331  -32.5178   23.0905 H   0  0  0  0  0  0
  -25.0064  -33.9513   25.0222 H   0  0  0  0  0  0
  -22.7763  -31.2716   21.3540 H   0  0  0  0  0  0
  -23.3757  -35.9540   23.3282 H   0  0  0  0  0  0
  -24.3573  -36.8885   22.2067 H   0  0  0  0  0  0
  -23.7232  -37.6396   23.6713 H   0  0  0  0  0  0
  -26.1988  -31.4030   20.6099 H   0  0  0  0  0  0
  -26.8964  -30.7202   22.0390 H   0  0  0  0  0  0
  -28.1518  -28.6770   21.2454 H   0  0  0  0  0  0
  -25.9000  -25.7409   19.0436 H   0  0  0  0  0  0
  -23.9903  -27.2536   18.9861 H   0  0  0  0  0  0
  -23.8521  -30.5235   19.3876 H   0  0  0  0  0  0
  -22.8136  -29.2062   19.8340 H   0  0  0  0  0  0
  -25.1322  -36.1784   25.0794 H   0  0  0  0  0  0
  -21.0028  -28.3341   24.1334 H   0  0  0  0  0  0
  -20.5676  -26.2357   23.3641 H   0  0  0  0  0  0
  -21.6660  -26.7421   22.1213 H   0  0  0  0  0  0
  -19.6924  -25.6288   21.1269 H   0  0  0  0  0  0
  -19.6705  -27.3181   20.6731 H   0  0  0  0  0  0
  -17.4218  -26.6694   21.4029 H   0  0  0  0  0  0
  -18.0348  -26.0098   22.9031 H   0  0  0  0  0  0
  -19.7966  -30.7327   24.2203 H   0  0  0  0  0  0
  -17.5037  -31.6275   24.5179 H   0  0  0  0  0  0
  -15.5374  -30.2988   23.7693 H   0  0  0  0  0  0
  -15.8696  -28.0825   22.7095 H   0  0  0  0  0  0
  -24.5879  -30.7110   25.7692 H   0  0  0  0  0  0
  -24.8859  -32.2986   26.4663 H   0  0  0  0  0  0
  -25.7940  -30.9047   27.0217 H   0  0  0  0  0  0
  -26.3057  -29.6610   24.1345 H   0  0  0  0  0  0
  -27.3963  -29.7245   25.4975 H   0  0  0  0  0  0
  -27.8992  -30.4112   23.9734 H   0  0  0  0  0  0
  -27.2649  -33.3690   26.1906 H   0  0  0  0  0  0
  -28.3946  -32.6763   25.0360 H   0  0  0  0  0  0
  -28.0610  -31.8529   26.5521 H   0  0  0  0  0  0
  -28.2571  -38.0075   24.7513 H   0  0  0  0  0  0
  -28.1074  -36.2604   24.6294 H   0  0  0  0  0  0
  -27.2288  -37.1410   25.8871 H   0  0  0  0  0  0
  -20.9545  -29.8726   21.6701 H   0  0  0  0  0  0
  -26.0122  -38.2770   24.1428 H   0  0  0  0  0  0
  -30.5922  -21.7503   18.7724 H   0  0  0  0  0  0
  -31.8081  -19.8724   17.9265 H   0  0  0  0  0  0
  -28.9692  -23.2967   18.6101 H   0  0  0  0  0  0
  -27.2337  -22.9284   18.7992 H   0  0  0  0  0  0
  -28.9993  -23.2404   22.1532 H   0  0  0  0  0  0
  -30.1141  -23.4818   20.7777 H   0  0  0  0  0  0
  -27.0774  -24.2413   20.9139 H   0  0  0  0  0  0
  -27.6402  -19.8636   21.9578 H   0  0  0  0  0  0
  -28.3638  -18.2954   22.3063 H   0  0  0  0  0  0
  -27.1614  -18.4474   21.0178 H   0  0  0  0  0  0
  -28.7663  -16.2156   20.7297 H   0  0  0  0  0  0
  1 25  1  0  0  0
  1 30  2  0  0  0
  1 82  1  0  0  0
  2  3  1  0  0  0
  2 25  1  0  0  0
  2 84  1  0  0  0
  2 85  1  0  0  0
  3  4  1  0  0  0
  3 86  1  0  0  0
  3 87  1  0  0  0
  4  5  1  0  0  0
  4 88  1  0  0  0
  4 89  1  0  0  0
  5  6  1  0  0  0
  5 26  1  0  0  0
  5 90  1  0  0  0
  6 25  1  0  0  0
  6 91  1  0  0  0
  6 92  1  0  0  0
  7  8  2  0  0  0
  7 26  1  0  0  0
  7 29  1  0  0  0
  8  9  1  0  0  0
  8 22  1  0  0  0
  9 10  1  0  0  0
  9 27  2  0  0  0
 10 11  2  0  0  0
 10 15  1  0  0  0
 11 12  1  0  0  0
 11 93  1  0  0  0
 12 13  2  0  0  0
 12 94  1  0  0  0
 13 14  1  0  0  0
 13 31  1  0  0  0
 14 15  2  0  0  0
 14 95  1  0  0  0
 15 96  1  0  0  0
 16 17  2  0  0  0
 16 21  1  0  0  0
 16 31  1  0  0  0
 17 18  1  0  0  0
 17 97  1  0  0  0
 18 19  2  0  0  0
 18 98  1  0  0  0
 19 20  1  0  0  0
 19 24  1  0  0  0
 20 21  2  0  0  0
 20 99  1  0  0  0
 21 23  1  0  0  0
 22 28  1  0  0  0
 22 32  2  0  0  0
 26 27  1  0  0  0
 28100  1  0  0  0
 28101  1  0  0  0
 29102  1  0  0  0
 29103  1  0  0  0
 33 34  1  0  0  0
 33 66  1  0  0  0
 33 70  2  0  0  0
 34 36  1  0  0  0
 34 59  1  0  0  0
 34104  1  0  0  0
 35 44  2  0  0  0
 35 45  1  0  0  0
 35 68  1  0  0  0
 36 56  1  0  0  0
 36105  1  0  0  0
 37 39  1  0  0  0
 37 47  1  0  0  0
 37 66  1  0  0  0
 37106  1  0  0  0
 38 43  2  0  0  0
 38 46  1  0  0  0
 38 47  1  0  0  0
 39 64  1  0  0  0
 39 67  2  0  0  0
 40 52  1  0  0  0
 40 53  2  0  0  0
 40 58  1  0  0  0
 41107  1  0  0  0
 41108  1  0  0  0
 41109  1  0  0  0
 41 48  1  0  0  0
 42 43  1  0  0  0
 42 66  1  0  0  0
 42110  1  0  0  0
 42111  1  0  0  0
 43 44  1  0  0  0
 44112  1  0  0  0
 45 46  2  0  0  0
 45113  1  0  0  0
 46114  1  0  0  0
 47115  1  0  0  0
 47116  1  0  0  0
 48 56  1  0  0  0
 48 65  1  0  0  0
 48117  1  0  0  0
 49 50  1  0  0  0
 49 53  1  0  0  0
 49 64  1  0  0  0
 49118  1  0  0  0
 50 51  1  0  0  0
 50119  1  0  0  0
 50120  1  0  0  0
 51 52  1  0  0  0
 51121  1  0  0  0
 51122  1  0  0  0
 52123  1  0  0  0
 52124  1  0  0  0
 53 54  1  0  0  0
 54 55  2  0  0  0
 54125  1  0  0  0
 55 57  1  0  0  0
 55126  1  0  0  0
 56 69  2  0  0  0
 57 58  2  0  0  0
 57127  1  0  0  0
 58128  1  0  0  0
 59 60  1  0  0  0
 59 61  1  0  0  0
 59 62  1  0  0  0
 60129  1  0  0  0
 60130  1  0  0  0
 60131  1  0  0  0
 61132  1  0  0  0
 61133  1  0  0  0
 61134  1  0  0  0
 62135  1  0  0  0
 62136  1  0  0  0
 62137  1  0  0  0
 63 65  1  0  0  0
 63138  1  0  0  0
 63139  1  0  0  0
 63140  1  0  0  0
 64141  1  0  0  0
 65142  1  0  0  0
 68 79  1  0  0  0
 71 72  2  0  0  0
 71 74  1  0  0  0
 71143  1  0  0  0
 72 76  1  0  0  0
 72144  1  0  0  0
 73 74  2  0  0  0
 73 75  1  0  0  0
 73 80  1  0  0  0
 74 81  1  0  0  0
 75 76  2  0  0  0
 75 82  1  0  0  0
 76 83  1  0  0  0
 77 79  1  0  0  0
 77 81  1  0  0  0
 77145  1  0  0  0
 77146  1  0  0  0
 78 79  1  0  0  0
 78 81  1  0  0  0
 78147  1  0  0  0
 78148  1  0  0  0
 79149  1  0  0  0
 80150  1  0  0  0
 80151  1  0  0  0
 80152  1  0  0  0
 82153  1  0  0  0
M  ISO  4   1 100  68 101  79 101  82 100
M  END
> <chiral flag>
0

> <version>
0

> <s_m_source_file>
/data/baiqing/PycharmProjects/Reinvent-master-3.2/result/LINK_invent/BTK/process_docking_weight1_custom_product_contain_oxygen_bond_distance_aromatic_linkinvent_7_9_3/rearranged_h_0029.sdf

> <i_m_source_file_index>
50

> <r_mmod_Potential_Energy-OPLS-2005>
964.466796875

> <r_mmod_Stretch_Energy-OPLS-2005>
427.453796386719

> <r_mmod_Bend_Energy-OPLS-2005>
398.872009277344

> <r_mmod_Torsional_Energy-OPLS-2005>
268.423187255859

> <r_mmod_Improper_Torsional_Energy-OPLS-2005>
11.2913827896118

> <r_mmod_Van_der_Waal_Energy-OPLS-2005>
132.242706298828

> <r_mmod_Electrostatic_Energy-OPLS-2005>
-395.020629882812

> <r_mmod_Solvation_Energy-OPLS-2005>
-233.464950561523

> <b_mmod_Minimization_Converged-OPLS-2005>
0

> <r_mmod_RMS_Derivative-OPLS-2005>
0.757567584514618

$$$$
50
                    3D
 Structure written by MMmdl.
156165  0  0  1  0            999 V2000
  -30.5323  -14.8039   20.4554 C   0  0  0  0  0  0
  -30.4171  -12.4765   19.5258 C   0  0  0  0  0  0
  -29.5188  -12.5326   18.2690 C   0  0  0  0  0  0
  -28.0432  -12.3314   18.6638 C   0  0  0  0  0  0
  -27.6286  -13.2350   19.8558 C   0  0  2  0  0  0
  -28.6508  -13.1682   21.0096 C   0  0  0  0  0  0
  -25.2398  -13.8175   20.5654 C   0  0  0  0  0  0
  -24.1715  -13.0431   20.9205 C   0  0  0  0  0  0
  -24.6332  -11.6895   20.8762 C   0  0  0  0  0  0
  -23.9033  -10.4271   21.0419 C   0  0  0  0  0  0
  -24.3582   -9.4179   21.9197 C   0  0  0  0  0  0
  -23.6257   -8.2214   22.0750 C   0  0  0  0  0  0
  -22.4243   -8.0258   21.3544 C   0  0  0  0  0  0
  -21.9888   -9.0231   20.4644 C   0  0  0  0  0  0
  -22.7214  -10.2109   20.3058 C   0  0  0  0  0  0
  -21.6841   -6.0718   22.5282 C   0  0  0  0  0  0
  -21.4010   -6.5630   23.8214 C   0  0  0  0  0  0
  -21.3673   -5.6792   24.9182 C   0  0  0  0  0  0
  -21.6046   -4.3056   24.7237 C   0  0  0  0  0  0
  -21.8804   -3.8136   23.4366 C   0  0  0  0  0  0
  -21.9173   -4.6941   22.3413 C   0  0  0  0  0  0
  -22.7741  -13.5190   21.1877 C   0  0  0  0  0  0
  -22.1641   -4.2125   21.0990 F   0  0  0  0  0  0
  -21.5628   -3.4539   25.7757 F   0  0  0  0  0  0
  -29.9599  -13.5444   20.4543 N   0  0  0  0  0  0
  -26.2815  -12.9396   20.3220 N   0  0  0  0  0  0
  -25.9234  -11.6541   20.5704 N   0  0  0  0  0  0
  -22.0382  -12.8213   22.0448 N   0  0  0  0  0  0
  -25.4076  -15.1903   20.4009 N   0  0  0  0  0  0
  -31.6960  -14.9271   20.0566 O   0  0  0  0  0  0
  -21.6625   -6.8852   21.4237 O   0  0  0  0  0  0
  -22.3422  -14.5490   20.6693 O   0  0  0  0  0  0
  -24.6372  -31.8524   23.1950 C   0  0  0  0  0  0
  -25.9180  -32.4744   23.8278 C   0  0  1  0  0  0
  -27.1998  -27.1903   20.1222 C   0  0  0  0  0  0
  -25.5987  -33.8554   24.2238 N   0  0  0  0  0  0
  -23.4341  -30.4759   21.5448 C   0  0  2  0  0  0
  -24.8717  -28.9078   20.1126 C   0  0  0  0  0  0
  -22.7508  -29.4586   22.4901 C   0  0  0  0  0  0
  -18.0292  -28.1406   22.8499 C   0  0  0  0  0  0
  -24.1463  -36.7263   23.2636 C   0  0  0  0  0  0
  -25.9853  -30.7351   21.3847 C   0  0  0  0  0  0
  -26.0503  -29.3526   20.7239 C   0  0  0  0  0  0
  -27.2141  -28.5076   20.7157 C   0  0  0  0  0  0
  -25.9892  -26.8211   19.4920 C   0  0  0  0  0  0
  -24.8498  -27.6512   19.4870 C   0  0  0  0  0  0
  -23.6561  -29.8181   20.1573 C   0  0  0  0  0  0
  -25.4108  -36.3086   24.0328 C   0  0  1  0  0  0
  -20.5891  -28.3726   23.1273 C   0  0  2  0  0  0
  -20.6783  -26.9452   22.5408 C   0  0  0  0  0  0
  -19.5764  -26.6402   21.5217 C   0  0  0  0  0  0
  -18.1949  -26.7948   22.1622 C   0  0  0  0  0  0
  -19.1543  -28.8881   23.2875 C   0  0  0  0  0  0
  -18.9468  -30.1458   23.8915 C   0  0  0  0  0  0
  -17.6469  -30.6606   24.0562 C   0  0  0  0  0  0
  -25.9067  -34.9457   23.5091 C   0  0  0  0  0  0
  -16.5357  -29.9115   23.6324 C   0  0  0  0  0  0
  -16.7287  -28.6508   23.0377 C   0  0  0  0  0  0
  -26.4509  -31.6592   25.0709 C   0  0  0  0  0  0
  -25.3715  -31.3759   26.1423 C   0  0  0  0  0  0
  -27.0356  -30.2995   24.6246 C   0  0  0  0  0  0
  -27.6037  -32.4334   25.7511 C   0  0  0  0  0  0
  -27.5570  -37.1799   24.8474 C   0  0  0  0  0  0
  -21.4213  -29.3046   22.3639 N   0  0  0  0  0  0
  -26.4277  -37.3797   23.9432 N   0  0  0  0  0  0
  -24.7069  -31.0392   22.0991 N   0  0  0  0  0  0
  -23.4172  -28.8142   23.3033 O   0  0  0  0  0  0
  -28.2875  -26.2658   20.1737 O   0  0  0  0  0  0
  -26.5629  -34.8928   22.4645 O   0  0  0  0  0  0
  -23.5522  -32.1408   23.7219 O   0  0  0  0  0  0
  -29.8147  -21.4830   21.6987 C   0  0  0  0  0  0
  -30.4214  -20.3784   22.3324 C   0  0  0  0  0  0
  -29.0475  -20.0053   19.9689 C   0  0  0  0  0  0
  -29.6467  -18.8059   20.6084 C   0  0  0  0  0  0
  -29.1072  -21.3918   20.4816 C   0  0  0  0  0  0
  -30.3510  -19.0728   21.8077 C   0  0  0  0  0  0
  -29.4417  -23.8579   19.6954 C   0  0  0  0  0  0
  -27.6667  -23.6008   20.6067 C   0  0  0  0  0  0
  -28.1803  -24.8035   19.7208 C   0  0  0  0  0  0
  -28.3058  -19.8468   18.6481 C   0  0  0  0  0  0
  -29.6859  -17.3032   19.9703 C   0  0  0  0  0  0
  -28.5650  -22.6592   19.8653 N   0  0  0  0  0  0
  -29.7202  -15.9226   20.6841 N   0  0  0  0  0  0
  -31.2120  -17.8348   22.6493 Cl  0  0  0  0  0  0
  -31.4668  -12.5866   19.2558 H   0  0  0  0  0  0
  -30.3363  -11.4979   20.0032 H   0  0  0  0  0  0
  -29.8266  -11.7735   17.5485 H   0  0  0  0  0  0
  -29.6393  -13.4990   17.7726 H   0  0  0  0  0  0
  -27.9181  -11.2820   18.9353 H   0  0  0  0  0  0
  -27.3907  -12.5009   17.8083 H   0  0  0  0  0  0
  -27.6226  -14.2568   19.4755 H   0  0  0  0  0  0
  -28.6746  -12.1627   21.4353 H   0  0  0  0  0  0
  -28.3495  -13.8308   21.8226 H   0  0  0  0  0  0
  -25.2708   -9.5655   22.4799 H   0  0  0  0  0  0
  -23.9967   -7.4591   22.7460 H   0  0  0  0  0  0
  -21.0831   -8.8744   19.8934 H   0  0  0  0  0  0
  -22.3673  -10.9649   19.6172 H   0  0  0  0  0  0
  -21.2020   -7.6138   23.9715 H   0  0  0  0  0  0
  -21.1514   -6.0529   25.9090 H   0  0  0  0  0  0
  -22.0572   -2.7590   23.2876 H   0  0  0  0  0  0
  -22.3992  -11.9915   22.4933 H   0  0  0  0  0  0
  -21.0973  -13.1202   22.2582 H   0  0  0  0  0  0
  -24.6287  -15.8346   20.4724 H   0  0  0  0  0  0
  -26.2495  -15.6273   20.0466 H   0  0  0  0  0  0
  -26.7229  -32.5334   23.0981 H   0  0  0  0  0  0
  -25.0152  -33.9675   25.0400 H   0  0  0  0  0  0
  -22.7319  -31.3018   21.4040 H   0  0  0  0  0  0
  -23.3759  -35.9562   23.3328 H   0  0  0  0  0  0
  -24.3517  -36.8860   22.2034 H   0  0  0  0  0  0
  -23.7168  -37.6451   23.6640 H   0  0  0  0  0  0
  -26.1350  -31.4909   20.6138 H   0  0  0  0  0  0
  -26.8573  -30.7773   22.0269 H   0  0  0  0  0  0
  -28.1134  -28.8505   21.2088 H   0  0  0  0  0  0
  -25.8830  -25.8558   19.0200 H   0  0  0  0  0  0
  -23.9460  -27.3076   19.0046 H   0  0  0  0  0  0
  -23.8130  -30.6081   19.4214 H   0  0  0  0  0  0
  -22.7642  -29.2856   19.8258 H   0  0  0  0  0  0
  -25.1275  -36.1949   25.0819 H   0  0  0  0  0  0
  -20.9957  -28.3324   24.1400 H   0  0  0  0  0  0
  -20.5703  -26.2359   23.3619 H   0  0  0  0  0  0
  -21.6658  -26.7488   22.1198 H   0  0  0  0  0  0
  -19.6935  -25.6310   21.1272 H   0  0  0  0  0  0
  -19.6705  -27.3184   20.6728 H   0  0  0  0  0  0
  -17.4218  -26.6713   21.4017 H   0  0  0  0  0  0
  -18.0350  -26.0070   22.8995 H   0  0  0  0  0  0
  -19.7939  -30.7264   24.2328 H   0  0  0  0  0  0
  -17.5038  -31.6303   24.5147 H   0  0  0  0  0  0
  -15.5362  -30.3044   23.7629 H   0  0  0  0  0  0
  -15.8676  -28.0820   22.7142 H   0  0  0  0  0  0
  -24.5883  -30.7135   25.7741 H   0  0  0  0  0  0
  -24.8918  -32.2924   26.4847 H   0  0  0  0  0  0
  -25.8003  -30.8923   27.0215 H   0  0  0  0  0  0
  -26.2953  -29.6742   24.1250 H   0  0  0  0  0  0
  -27.3985  -29.7257   25.4785 H   0  0  0  0  0  0
  -27.8853  -30.4243   23.9540 H   0  0  0  0  0  0
  -27.2635  -33.3618   26.2109 H   0  0  0  0  0  0
  -28.3842  -32.6936   25.0354 H   0  0  0  0  0  0
  -28.0712  -31.8462   26.5420 H   0  0  0  0  0  0
  -28.2621  -38.0069   24.7535 H   0  0  0  0  0  0
  -28.1039  -36.2614   24.6309 H   0  0  0  0  0  0
  -27.2286  -37.1450   25.8874 H   0  0  0  0  0  0
  -20.9454  -29.8783   21.6831 H   0  0  0  0  0  0
  -26.0164  -38.2877   24.1463 H   0  0  0  0  0  0
  -29.9271  -22.4509   22.1613 H   0  0  0  0  0  0
  -30.9861  -20.5493   23.2392 H   0  0  0  0  0  0
  -29.9823  -23.8759   18.7471 H   0  0  0  0  0  0
  -30.1163  -24.0236   20.5373 H   0  0  0  0  0  0
  -26.6068  -23.3843   20.4696 H   0  0  0  0  0  0
  -27.9150  -23.7091   21.6645 H   0  0  0  0  0  0
  -27.7278  -24.7624   18.7279 H   0  0  0  0  0  0
  -28.4716  -18.8948   18.1498 H   0  0  0  0  0  0
  -28.6146  -20.6224   17.9482 H   0  0  0  0  0  0
  -27.2339  -19.9569   18.8098 H   0  0  0  0  0  0
  -30.4991  -17.3073   19.2454 H   0  0  0  0  0  0
  -28.7787  -17.2147   19.3762 H   0  0  0  0  0  0
  -28.8488  -15.6859   21.1344 H   0  0  0  0  0  0
  1 25  1  0  0  0
  1 30  2  0  0  0
  1 83  1  0  0  0
  2  3  1  0  0  0
  2 25  1  0  0  0
  2 85  1  0  0  0
  2 86  1  0  0  0
  3  4  1  0  0  0
  3 87  1  0  0  0
  3 88  1  0  0  0
  4  5  1  0  0  0
  4 89  1  0  0  0
  4 90  1  0  0  0
  5  6  1  0  0  0
  5 26  1  0  0  0
  5 91  1  0  0  0
  6 25  1  0  0  0
  6 92  1  0  0  0
  6 93  1  0  0  0
  7  8  2  0  0  0
  7 26  1  0  0  0
  7 29  1  0  0  0
  8  9  1  0  0  0
  8 22  1  0  0  0
  9 10  1  0  0  0
  9 27  2  0  0  0
 10 11  2  0  0  0
 10 15  1  0  0  0
 11 12  1  0  0  0
 11 94  1  0  0  0
 12 13  2  0  0  0
 12 95  1  0  0  0
 13 14  1  0  0  0
 13 31  1  0  0  0
 14 15  2  0  0  0
 14 96  1  0  0  0
 15 97  1  0  0  0
 16 17  2  0  0  0
 16 21  1  0  0  0
 16 31  1  0  0  0
 17 18  1  0  0  0
 17 98  1  0  0  0
 18 19  2  0  0  0
 18 99  1  0  0  0
 19 20  1  0  0  0
 19 24  1  0  0  0
 20 21  2  0  0  0
 20100  1  0  0  0
 21 23  1  0  0  0
 22 28  1  0  0  0
 22 32  2  0  0  0
 26 27  1  0  0  0
 28101  1  0  0  0
 28102  1  0  0  0
 29103  1  0  0  0
 29104  1  0  0  0
 33 34  1  0  0  0
 33 66  1  0  0  0
 33 70  2  0  0  0
 34 36  1  0  0  0
 34 59  1  0  0  0
 34105  1  0  0  0
 35 44  2  0  0  0
 35 45  1  0  0  0
 35 68  1  0  0  0
 36 56  1  0  0  0
 36106  1  0  0  0
 37 39  1  0  0  0
 37 47  1  0  0  0
 37 66  1  0  0  0
 37107  1  0  0  0
 38 43  2  0  0  0
 38 46  1  0  0  0
 38 47  1  0  0  0
 39 64  1  0  0  0
 39 67  2  0  0  0
 40 52  1  0  0  0
 40 53  2  0  0  0
 40 58  1  0  0  0
 41108  1  0  0  0
 41109  1  0  0  0
 41110  1  0  0  0
 41 48  1  0  0  0
 42 43  1  0  0  0
 42 66  1  0  0  0
 42111  1  0  0  0
 42112  1  0  0  0
 43 44  1  0  0  0
 44113  1  0  0  0
 45 46  2  0  0  0
 45114  1  0  0  0
 46115  1  0  0  0
 47116  1  0  0  0
 47117  1  0  0  0
 48 56  1  0  0  0
 48 65  1  0  0  0
 48118  1  0  0  0
 49 50  1  0  0  0
 49 53  1  0  0  0
 49 64  1  0  0  0
 49119  1  0  0  0
 50 51  1  0  0  0
 50120  1  0  0  0
 50121  1  0  0  0
 51 52  1  0  0  0
 51122  1  0  0  0
 51123  1  0  0  0
 52124  1  0  0  0
 52125  1  0  0  0
 53 54  1  0  0  0
 54 55  2  0  0  0
 54126  1  0  0  0
 55 57  1  0  0  0
 55127  1  0  0  0
 56 69  2  0  0  0
 57 58  2  0  0  0
 57128  1  0  0  0
 58129  1  0  0  0
 59 60  1  0  0  0
 59 61  1  0  0  0
 59 62  1  0  0  0
 60130  1  0  0  0
 60131  1  0  0  0
 60132  1  0  0  0
 61133  1  0  0  0
 61134  1  0  0  0
 61135  1  0  0  0
 62136  1  0  0  0
 62137  1  0  0  0
 62138  1  0  0  0
 63 65  1  0  0  0
 63139  1  0  0  0
 63140  1  0  0  0
 63141  1  0  0  0
 64142  1  0  0  0
 65143  1  0  0  0
 68 79  1  0  0  0
 71 72  2  0  0  0
 71 75  1  0  0  0
 71144  1  0  0  0
 72 76  1  0  0  0
 72145  1  0  0  0
 73 74  1  0  0  0
 73 75  2  0  0  0
 73 80  1  0  0  0
 74 76  2  0  0  0
 74 81  1  0  0  0
 75 82  1  0  0  0
 76 84  1  0  0  0
 77 79  1  0  0  0
 77 82  1  0  0  0
 77146  1  0  0  0
 77147  1  0  0  0
 78 79  1  0  0  0
 78 82  1  0  0  0
 78148  1  0  0  0
 78149  1  0  0  0
 79150  1  0  0  0
 80151  1  0  0  0
 80152  1  0  0  0
 80153  1  0  0  0
 81 83  1  0  0  0
 81154  1  0  0  0
 81155  1  0  0  0
 83156  1  0  0  0
M  ISO  4   1 100  68 101  79 101  83 100
M  END
> <chiral flag>
0

> <version>
0

> <s_m_source_file>
/data/baiqing/PycharmProjects/Reinvent-master-3.2/result/LINK_invent/BTK/process_docking_weight1_custom_product_contain_oxygen_bond_distance_aromatic_linkinvent_7_9_3/rearranged_h_0029.sdf

> <i_m_source_file_index>
51

> <r_mmod_Potential_Energy-OPLS-2005>
312.438232421875

> <r_mmod_Stretch_Energy-OPLS-2005>
173.182327270508

> <r_mmod_Bend_Energy-OPLS-2005>
251.191879272461

> <r_mmod_Torsional_Energy-OPLS-2005>
242.514541625977

> <r_mmod_Improper_Torsional_Energy-OPLS-2005>
15.5174360275269

> <r_mmod_Van_der_Waal_Energy-OPLS-2005>
139.755767822266

> <r_mmod_Electrostatic_Energy-OPLS-2005>
-404.029510498047

> <r_mmod_Solvation_Energy-OPLS-2005>
-228.67578125

> <b_mmod_Minimization_Converged-OPLS-2005>
0

> <r_mmod_RMS_Derivative-OPLS-2005>
4.26078939437866

$$$$
51
                    3D
 Structure written by MMmdl.
159168  0  0  1  0            999 V2000
  -30.5275  -15.0719   20.3701 C   0  0  0  0  0  0
  -30.4366  -12.6733   19.5013 C   0  0  0  0  0  0
  -29.5223  -12.5378   18.2621 C   0  0  0  0  0  0
  -28.0625  -12.3030   18.6888 C   0  0  0  0  0  0
  -27.6190  -13.2620   19.8226 C   0  0  2  0  0  0
  -28.6614  -13.3709   20.9546 C   0  0  0  0  0  0
  -25.2422  -13.8236   20.5729 C   0  0  0  0  0  0
  -24.1759  -13.0434   20.9243 C   0  0  0  0  0  0
  -24.6402  -11.6931   20.8755 C   0  0  0  0  0  0
  -23.9099  -10.4297   21.0403 C   0  0  0  0  0  0
  -24.3632   -9.4207   21.9188 C   0  0  0  0  0  0
  -23.6293   -8.2253   22.0758 C   0  0  0  0  0  0
  -22.4278   -8.0297   21.3549 C   0  0  0  0  0  0
  -21.9916   -9.0272   20.4653 C   0  0  0  0  0  0
  -22.7259  -10.2144   20.3064 C   0  0  0  0  0  0
  -21.6864   -6.0732   22.5271 C   0  0  0  0  0  0
  -21.4020   -6.5631   23.8202 C   0  0  0  0  0  0
  -21.3661   -5.6785   24.9166 C   0  0  0  0  0  0
  -21.6048   -4.3046   24.7216 C   0  0  0  0  0  0
  -21.8816   -3.8136   23.4336 C   0  0  0  0  0  0
  -21.9194   -4.6958   22.3397 C   0  0  0  0  0  0
  -22.7784  -13.5193   21.1890 C   0  0  0  0  0  0
  -22.1668   -4.2142   21.0976 F   0  0  0  0  0  0
  -21.5631   -3.4535   25.7728 F   0  0  0  0  0  0
  -29.9182  -13.8064   20.3311 N   0  0  0  0  0  0
  -26.2844  -12.9500   20.3201 N   0  0  0  0  0  0
  -25.9331  -11.6617   20.5714 N   0  0  0  0  0  0
  -22.0445  -12.8183   22.0444 N   0  0  0  0  0  0
  -25.4047  -15.1974   20.4165 N   0  0  0  0  0  0
  -31.7537  -15.0371   20.2477 O   0  0  0  0  0  0
  -21.6651   -6.8885   21.4236 O   0  0  0  0  0  0
  -22.3462  -14.5510   20.6759 O   0  0  0  0  0  0
  -24.6525  -31.8373   23.1794 C   0  0  0  0  0  0
  -25.9257  -32.4650   23.8228 C   0  0  1  0  0  0
  -27.2170  -27.0541   20.1706 C   0  0  0  0  0  0
  -25.5989  -33.8465   24.2163 N   0  0  0  0  0  0
  -23.4593  -30.4500   21.5278 C   0  0  2  0  0  0
  -24.9066  -28.8525   20.1211 C   0  0  0  0  0  0
  -22.7617  -29.4496   22.4832 C   0  0  0  0  0  0
  -18.0327  -28.1348   22.8461 C   0  0  0  0  0  0
  -24.1496  -36.7231   23.2644 C   0  0  0  0  0  0
  -26.0193  -30.6842   21.3868 C   0  0  0  0  0  0
  -26.0893  -29.2829   20.7360 C   0  0  0  0  0  0
  -27.2453  -28.4051   20.7313 C   0  0  0  0  0  0
  -26.0055  -26.7364   19.5216 C   0  0  0  0  0  0
  -24.8814  -27.5952   19.4959 C   0  0  0  0  0  0
  -23.6911  -29.7700   20.1514 C   0  0  0  0  0  0
  -25.4121  -36.3004   24.0319 C   0  0  1  0  0  0
  -20.5947  -28.3692   23.1220 C   0  0  2  0  0  0
  -20.6810  -26.9400   22.5368 C   0  0  0  0  0  0
  -19.5779  -26.6346   21.5187 C   0  0  0  0  0  0
  -18.1965  -26.7903   22.1594 C   0  0  0  0  0  0
  -19.1582  -28.8835   23.2840 C   0  0  0  0  0  0
  -18.9491  -30.1410   23.8898 C   0  0  0  0  0  0
  -17.6488  -30.6535   24.0555 C   0  0  0  0  0  0
  -25.9087  -34.9381   23.5054 C   0  0  0  0  0  0
  -16.5382  -29.9046   23.6275 C   0  0  0  0  0  0
  -16.7304  -28.6446   23.0327 C   0  0  0  0  0  0
  -26.4539  -31.6542   25.0701 C   0  0  0  0  0  0
  -25.3706  -31.3750   26.1386 C   0  0  0  0  0  0
  -27.0407  -30.2937   24.6311 C   0  0  0  0  0  0
  -27.6073  -32.4298   25.7485 C   0  0  0  0  0  0
  -27.5572  -37.1774   24.8472 C   0  0  0  0  0  0
  -21.4302  -29.3043   22.3609 N   0  0  0  0  0  0
  -26.4281  -37.3719   23.9420 N   0  0  0  0  0  0
  -24.7312  -31.0136   22.0870 N   0  0  0  0  0  0
  -23.4233  -28.8043   23.3006 O   0  0  0  0  0  0
  -28.2920  -26.0723   20.1317 O   0  0  0  0  0  0
  -26.5675  -34.8894   22.4638 O   0  0  0  0  0  0
  -23.5625  -32.1290   23.6969 O   0  0  0  0  0  0
  -30.6616  -20.6543   19.2949 C   0  0  0  0  0  0
  -31.4227  -19.5487   18.8741 C   0  0  0  0  0  0
  -29.2320  -19.0767   20.4374 C   0  0  0  0  0  0
  -29.4869  -20.5269   20.0586 C   0  0  0  0  0  0
  -30.0386  -17.8439   20.0499 C   0  0  0  0  0  0
  -31.1154  -18.2051   19.1788 C   0  0  0  0  0  0
  -27.0084  -23.6037   20.4368 C   0  0  0  0  0  0
  -29.2746  -23.3043   20.0222 C   0  0  0  0  0  0
  -28.2549  -24.5227   20.5208 C   0  0  2  0  0  0
  -27.4326  -22.1093   20.8426 C   0  0  0  0  0  0
  -26.3880  -21.1181   20.3016 C   0  0  0  0  0  0
  -27.5108  -21.9805   22.3767 C   0  0  0  0  0  0
  -28.7765  -21.8544   20.2863 N   0  0  0  0  0  0
  -29.7783  -16.3193   20.3894 N   0  0  0  0  0  0
  -32.0792  -17.0685   18.3048 Cl  0  0  0  0  0  0
  -31.4651  -12.8372   19.1777 H   0  0  0  0  0  0
  -30.4536  -11.7467   20.0763 H   0  0  0  0  0  0
  -29.8614  -11.7222   17.6220 H   0  0  0  0  0  0
  -29.5837  -13.4463   17.6607 H   0  0  0  0  0  0
  -27.9782  -11.2692   19.0274 H   0  0  0  0  0  0
  -27.3997  -12.4001   17.8285 H   0  0  0  0  0  0
  -27.5569  -14.2437   19.3531 H   0  0  0  0  0  0
  -28.7805  -12.4245   21.4832 H   0  0  0  0  0  0
  -28.3384  -14.1038   21.6943 H   0  0  0  0  0  0
  -25.2779   -9.5676   22.4752 H   0  0  0  0  0  0
  -23.9995   -7.4636   22.7476 H   0  0  0  0  0  0
  -21.0847   -8.8813   19.8951 H   0  0  0  0  0  0
  -22.3733  -10.9689   19.6178 H   0  0  0  0  0  0
  -21.2026   -7.6141   23.9705 H   0  0  0  0  0  0
  -21.1489   -6.0517   25.9071 H   0  0  0  0  0  0
  -22.0594   -2.7597   23.2845 H   0  0  0  0  0  0
  -22.4085  -11.9846   22.4816 H   0  0  0  0  0  0
  -21.1079  -13.1206   22.2689 H   0  0  0  0  0  0
  -24.6270  -15.8402   20.5219 H   0  0  0  0  0  0
  -26.2396  -15.6420   20.0582 H   0  0  0  0  0  0
  -26.7320  -32.5216   23.0947 H   0  0  0  0  0  0
  -25.0125  -33.9562   25.0303 H   0  0  0  0  0  0
  -22.7657  -31.2770   21.3646 H   0  0  0  0  0  0
  -23.3765  -35.9555   23.3287 H   0  0  0  0  0  0
  -24.3586  -36.8888   22.2066 H   0  0  0  0  0  0
  -23.7253  -37.6425   23.6687 H   0  0  0  0  0  0
  -26.1818  -31.4288   20.6068 H   0  0  0  0  0  0
  -26.8886  -30.7388   22.0316 H   0  0  0  0  0  0
  -28.1576  -28.7400   21.2055 H   0  0  0  0  0  0
  -25.9157  -25.7815   19.0241 H   0  0  0  0  0  0
  -23.9816  -27.2652   18.9943 H   0  0  0  0  0  0
  -23.8463  -30.5425   19.3968 H   0  0  0  0  0  0
  -22.8018  -29.2247   19.8295 H   0  0  0  0  0  0
  -25.1300  -36.1817   25.0806 H   0  0  0  0  0  0
  -21.0043  -28.3254   24.1342 H   0  0  0  0  0  0
  -20.5689  -26.2299   23.3588 H   0  0  0  0  0  0
  -21.6667  -26.7402   22.1155 H   0  0  0  0  0  0
  -19.6926  -25.6232   21.1271 H   0  0  0  0  0  0
  -19.6699  -27.3123   20.6682 H   0  0  0  0  0  0
  -17.4229  -26.6666   21.4003 H   0  0  0  0  0  0
  -18.0377  -26.0023   22.8966 H   0  0  0  0  0  0
  -19.7957  -30.7210   24.2308 H   0  0  0  0  0  0
  -17.5025  -31.6181   24.5218 H   0  0  0  0  0  0
  -15.5373  -30.2942   23.7584 H   0  0  0  0  0  0
  -15.8701  -28.0738   22.7076 H   0  0  0  0  0  0
  -24.5901  -30.7070   25.7718 H   0  0  0  0  0  0
  -24.8861  -32.2929   26.4730 H   0  0  0  0  0  0
  -25.7974  -30.9001   27.0231 H   0  0  0  0  0  0
  -26.3038  -29.6647   24.1298 H   0  0  0  0  0  0
  -27.4002  -29.7235   25.4890 H   0  0  0  0  0  0
  -27.8950  -30.4179   23.9648 H   0  0  0  0  0  0
  -27.2692  -33.3627   26.2001 H   0  0  0  0  0  0
  -28.3910  -32.6810   25.0325 H   0  0  0  0  0  0
  -28.0702  -31.8465   26.5459 H   0  0  0  0  0  0
  -28.2568  -38.0085   24.7489 H   0  0  0  0  0  0
  -28.1083  -36.2613   24.6302 H   0  0  0  0  0  0
  -27.2299  -37.1419   25.8878 H   0  0  0  0  0  0
  -20.9541  -29.8821   21.6823 H   0  0  0  0  0  0
  -26.0145  -38.2792   24.1400 H   0  0  0  0  0  0
  -30.9908  -21.6251   18.9542 H   0  0  0  0  0  0
  -32.2705  -19.7425   18.2338 H   0  0  0  0  0  0
  -28.3698  -18.8904   21.0571 H   0  0  0  0  0  0
  -26.6473  -23.6084   19.4069 H   0  0  0  0  0  0
  -26.1926  -23.9780   21.0564 H   0  0  0  0  0  0
  -30.2565  -23.4396   20.4779 H   0  0  0  0  0  0
  -29.4267  -23.4031   18.9463 H   0  0  0  0  0  0
  -28.4512  -24.6032   21.5894 H   0  0  0  0  0  0
  -25.3911  -21.3712   20.6656 H   0  0  0  0  0  0
  -26.5789  -20.0943   20.6184 H   0  0  0  0  0  0
  -26.3478  -21.1266   19.2119 H   0  0  0  0  0  0
  -26.5462  -22.1766   22.8448 H   0  0  0  0  0  0
  -28.2265  -22.6791   22.8122 H   0  0  0  0  0  0
  -27.8207  -20.9779   22.6754 H   0  0  0  0  0  0
  -28.8119  -16.1398   20.6154 H   0  0  0  0  0  0
  1 25  1  0  0  0
  1 30  2  0  0  0
  1 84  1  0  0  0
  2  3  1  0  0  0
  2 25  1  0  0  0
  2 86  1  0  0  0
  2 87  1  0  0  0
  3  4  1  0  0  0
  3 88  1  0  0  0
  3 89  1  0  0  0
  4  5  1  0  0  0
  4 90  1  0  0  0
  4 91  1  0  0  0
  5  6  1  0  0  0
  5 26  1  0  0  0
  5 92  1  0  0  0
  6 25  1  0  0  0
  6 93  1  0  0  0
  6 94  1  0  0  0
  7  8  2  0  0  0
  7 26  1  0  0  0
  7 29  1  0  0  0
  8  9  1  0  0  0
  8 22  1  0  0  0
  9 10  1  0  0  0
  9 27  2  0  0  0
 10 11  2  0  0  0
 10 15  1  0  0  0
 11 12  1  0  0  0
 11 95  1  0  0  0
 12 13  2  0  0  0
 12 96  1  0  0  0
 13 14  1  0  0  0
 13 31  1  0  0  0
 14 15  2  0  0  0
 14 97  1  0  0  0
 15 98  1  0  0  0
 16 17  2  0  0  0
 16 21  1  0  0  0
 16 31  1  0  0  0
 17 18  1  0  0  0
 17 99  1  0  0  0
 18 19  2  0  0  0
 18100  1  0  0  0
 19 20  1  0  0  0
 19 24  1  0  0  0
 20 21  2  0  0  0
 20101  1  0  0  0
 21 23  1  0  0  0
 22 28  1  0  0  0
 22 32  2  0  0  0
 26 27  1  0  0  0
 28102  1  0  0  0
 28103  1  0  0  0
 29104  1  0  0  0
 29105  1  0  0  0
 33 34  1  0  0  0
 33 66  1  0  0  0
 33 70  2  0  0  0
 34 36  1  0  0  0
 34 59  1  0  0  0
 34106  1  0  0  0
 35 44  2  0  0  0
 35 45  1  0  0  0
 35 68  1  0  0  0
 36 56  1  0  0  0
 36107  1  0  0  0
 37 39  1  0  0  0
 37 47  1  0  0  0
 37 66  1  0  0  0
 37108  1  0  0  0
 38 43  2  0  0  0
 38 46  1  0  0  0
 38 47  1  0  0  0
 39 64  1  0  0  0
 39 67  2  0  0  0
 40 52  1  0  0  0
 40 53  2  0  0  0
 40 58  1  0  0  0
 41109  1  0  0  0
 41110  1  0  0  0
 41111  1  0  0  0
 41 48  1  0  0  0
 42 43  1  0  0  0
 42 66  1  0  0  0
 42112  1  0  0  0
 42113  1  0  0  0
 43 44  1  0  0  0
 44114  1  0  0  0
 45 46  2  0  0  0
 45115  1  0  0  0
 46116  1  0  0  0
 47117  1  0  0  0
 47118  1  0  0  0
 48 56  1  0  0  0
 48 65  1  0  0  0
 48119  1  0  0  0
 49 50  1  0  0  0
 49 53  1  0  0  0
 49 64  1  0  0  0
 49120  1  0  0  0
 50 51  1  0  0  0
 50121  1  0  0  0
 50122  1  0  0  0
 51 52  1  0  0  0
 51123  1  0  0  0
 51124  1  0  0  0
 52125  1  0  0  0
 52126  1  0  0  0
 53 54  1  0  0  0
 54 55  2  0  0  0
 54127  1  0  0  0
 55 57  1  0  0  0
 55128  1  0  0  0
 56 69  2  0  0  0
 57 58  2  0  0  0
 57129  1  0  0  0
 58130  1  0  0  0
 59 60  1  0  0  0
 59 61  1  0  0  0
 59 62  1  0  0  0
 60131  1  0  0  0
 60132  1  0  0  0
 60133  1  0  0  0
 61134  1  0  0  0
 61135  1  0  0  0
 61136  1  0  0  0
 62137  1  0  0  0
 62138  1  0  0  0
 62139  1  0  0  0
 63 65  1  0  0  0
 63140  1  0  0  0
 63141  1  0  0  0
 63142  1  0  0  0
 64143  1  0  0  0
 65144  1  0  0  0
 68 79  1  0  0  0
 71 72  2  0  0  0
 71 74  1  0  0  0
 71145  1  0  0  0
 72 76  1  0  0  0
 72146  1  0  0  0
 73 74  2  0  0  0
 73 75  1  0  0  0
 73147  1  0  0  0
 74 83  1  0  0  0
 75 76  2  0  0  0
 75 84  1  0  0  0
 76 85  1  0  0  0
 77 79  1  0  0  0
 77 80  1  0  0  0
 77148  1  0  0  0
 77149  1  0  0  0
 78 79  1  0  0  0
 78 83  1  0  0  0
 78150  1  0  0  0
 78151  1  0  0  0
 79152  1  0  0  0
 80 81  1  0  0  0
 80 82  1  0  0  0
 80 83  1  0  0  0
 81153  1  0  0  0
 81154  1  0  0  0
 81155  1  0  0  0
 82156  1  0  0  0
 82157  1  0  0  0
 82158  1  0  0  0
 84159  1  0  0  0
M  ISO  4   1 100  68 101  79 101  84 100
M  END
> <chiral flag>
0

> <version>
0

> <s_m_source_file>
/data/baiqing/PycharmProjects/Reinvent-master-3.2/result/LINK_invent/BTK/process_docking_weight1_custom_product_contain_oxygen_bond_distance_aromatic_linkinvent_7_9_3/rearranged_h_0029.sdf

> <i_m_source_file_index>
52

> <r_mmod_Potential_Energy-OPLS-2005>
801.375305175781

> <r_mmod_Stretch_Energy-OPLS-2005>
342.861755371094

> <r_mmod_Bend_Energy-OPLS-2005>
392.910583496094

> <r_mmod_Torsional_Energy-OPLS-2005>
291.755187988281

> <r_mmod_Improper_Torsional_Energy-OPLS-2005>
3.89760971069336

> <r_mmod_Van_der_Waal_Energy-OPLS-2005>
133.023391723633

> <r_mmod_Electrostatic_Energy-OPLS-2005>
-415.572570800781

> <r_mmod_Solvation_Energy-OPLS-2005>
-220.315155029297

> <b_mmod_Minimization_Converged-OPLS-2005>
0

> <r_mmod_RMS_Derivative-OPLS-2005>
2.86698985099792

$$$$
52
                    3D
 Structure written by MMmdl.
157166  0  0  1  0            999 V2000
  -30.5391  -14.8392   20.4543 C   0  0  0  0  0  0
  -30.4419  -12.5211   19.4593 C   0  0  0  0  0  0
  -29.5087  -12.5231   18.2262 C   0  0  0  0  0  0
  -28.0391  -12.3240   18.6532 C   0  0  0  0  0  0
  -27.6356  -13.2279   19.8454 C   0  0  2  0  0  0
  -28.6852  -13.1880   20.9736 C   0  0  0  0  0  0
  -25.2502  -13.8160   20.5687 C   0  0  0  0  0  0
  -24.1806  -13.0412   20.9239 C   0  0  0  0  0  0
  -24.6409  -11.6893   20.8775 C   0  0  0  0  0  0
  -23.9086  -10.4268   21.0416 C   0  0  0  0  0  0
  -24.3633   -9.4186   21.9196 C   0  0  0  0  0  0
  -23.6295   -8.2228   22.0765 C   0  0  0  0  0  0
  -22.4277   -8.0279   21.3553 C   0  0  0  0  0  0
  -21.9913   -9.0255   20.4663 C   0  0  0  0  0  0
  -22.7252  -10.2129   20.3071 C   0  0  0  0  0  0
  -21.6843   -6.0738   22.5275 C   0  0  0  0  0  0
  -21.4016   -6.5653   23.8214 C   0  0  0  0  0  0
  -21.3655   -5.6811   24.9174 C   0  0  0  0  0  0
  -21.6048   -4.3072   24.7215 C   0  0  0  0  0  0
  -21.8819   -3.8159   23.4333 C   0  0  0  0  0  0
  -21.9200   -4.6969   22.3392 C   0  0  0  0  0  0
  -22.7843  -13.5201   21.1897 C   0  0  0  0  0  0
  -22.1674   -4.2170   21.0964 F   0  0  0  0  0  0
  -21.5622   -3.4550   25.7721 F   0  0  0  0  0  0
  -29.9630  -13.5858   20.3739 N   0  0  0  0  0  0
  -26.2922  -12.9356   20.3289 N   0  0  0  0  0  0
  -25.9334  -11.6508   20.5774 N   0  0  0  0  0  0
  -22.0511  -12.8162   22.0451 N   0  0  0  0  0  0
  -25.4138  -15.1869   20.3996 N   0  0  0  0  0  0
  -31.7518  -14.9544   20.2491 O   0  0  0  0  0  0
  -21.6637   -6.8874   21.4238 O   0  0  0  0  0  0
  -22.3522  -14.5506   20.6756 O   0  0  0  0  0  0
  -24.6376  -31.8503   23.1915 C   0  0  0  0  0  0
  -25.9175  -32.4725   23.8296 C   0  0  1  0  0  0
  -27.2126  -27.2022   20.1372 C   0  0  0  0  0  0
  -25.5971  -33.8527   24.2241 N   0  0  0  0  0  0
  -23.4358  -30.4686   21.5386 C   0  0  2  0  0  0
  -24.8804  -28.9009   20.1129 C   0  0  0  0  0  0
  -22.7520  -29.4567   22.4901 C   0  0  0  0  0  0
  -18.0297  -28.1410   22.8451 C   0  0  0  0  0  0
  -24.1492  -36.7263   23.2641 C   0  0  0  0  0  0
  -25.9840  -30.7431   21.3760 C   0  0  0  0  0  0
  -26.0562  -29.3577   20.7233 C   0  0  0  0  0  0
  -27.2280  -28.5236   20.7178 C   0  0  0  0  0  0
  -26.0188  -26.8264   19.4901 C   0  0  0  0  0  0
  -24.8719  -27.6490   19.4782 C   0  0  0  0  0  0
  -23.6559  -29.7994   20.1562 C   0  0  0  0  0  0
  -25.4126  -36.3050   24.0327 C   0  0  1  0  0  0
  -20.5897  -28.3741   23.1239 C   0  0  2  0  0  0
  -20.6793  -26.9466   22.5396 C   0  0  0  0  0  0
  -19.5783  -26.6407   21.5184 C   0  0  0  0  0  0
  -18.1955  -26.7947   22.1591 C   0  0  0  0  0  0
  -19.1550  -28.8892   23.2843 C   0  0  0  0  0  0
  -18.9462  -30.1478   23.8892 C   0  0  0  0  0  0
  -17.6463  -30.6604   24.0557 C   0  0  0  0  0  0
  -25.9072  -34.9421   23.5084 C   0  0  0  0  0  0
  -16.5361  -29.9088   23.6333 C   0  0  0  0  0  0
  -16.7281  -28.6510   23.0345 C   0  0  0  0  0  0
  -26.4545  -31.6537   25.0691 C   0  0  0  0  0  0
  -25.3768  -31.3630   26.1400 C   0  0  0  0  0  0
  -27.0388  -30.2963   24.6141 C   0  0  0  0  0  0
  -27.6111  -32.4264   25.7480 C   0  0  0  0  0  0
  -27.5592  -37.1793   24.8468 C   0  0  0  0  0  0
  -21.4231  -29.3062   22.3619 N   0  0  0  0  0  0
  -26.4303  -37.3757   23.9415 N   0  0  0  0  0  0
  -24.7052  -31.0386   22.0931 N   0  0  0  0  0  0
  -23.4173  -28.8134   23.3054 O   0  0  0  0  0  0
  -28.2928  -26.2750   20.1588 O   0  0  0  0  0  0
  -26.5642  -34.8900   22.4652 O   0  0  0  0  0  0
  -23.5516  -32.1361   23.7182 O   0  0  0  0  0  0
  -29.5190  -20.0424   22.0875 C   0  0  0  0  0  0
  -29.7975  -18.8997   22.8683 C   0  0  0  0  0  0
  -29.4332  -18.5854   20.1446 C   0  0  0  0  0  0
  -29.3263  -19.9529   20.6927 C   0  0  0  0  0  0
  -29.9082  -17.5993   22.3197 C   0  0  0  0  0  0
  -29.7452  -17.3747   20.9259 C   0  0  0  0  0  0
  -29.2702  -23.8278   20.8259 C   0  0  0  0  0  0
  -27.7804  -23.6246   19.5153 C   0  0  0  0  0  0
  -28.0618  -24.8031   20.5203 C   0  0  2  0  0  0
  -30.1405  -16.4510   23.2901 C   0  0  0  0  0  0
  -29.0811  -21.3229   19.8490 C   0  0  0  0  0  0
  -29.6761  -15.9504   20.4370 N   0  0  0  0  0  0
  -28.4512  -22.6315   20.4338 N   0  3  1  0  0  0
  -31.4764  -12.6885   19.1551 H   0  0  0  0  0  0
  -30.4224  -11.5477   19.9532 H   0  0  0  0  0  0
  -29.8007  -11.7395   17.5267 H   0  0  0  0  0  0
  -29.6113  -13.4654   17.6862 H   0  0  0  0  0  0
  -27.9237  -11.2768   18.9365 H   0  0  0  0  0  0
  -27.3684  -12.4907   17.8086 H   0  0  0  0  0  0
  -27.6129  -14.2435   19.4522 H   0  0  0  0  0  0
  -28.7518  -12.1932   21.4171 H   0  0  0  0  0  0
  -28.4090  -13.8643   21.7829 H   0  0  0  0  0  0
  -25.2773   -9.5651   22.4783 H   0  0  0  0  0  0
  -24.0018   -7.4597   22.7460 H   0  0  0  0  0  0
  -21.0866   -8.8771   19.8942 H   0  0  0  0  0  0
  -22.3722  -10.9680   19.6195 H   0  0  0  0  0  0
  -21.2016   -7.6168   23.9719 H   0  0  0  0  0  0
  -21.1478   -6.0542   25.9088 H   0  0  0  0  0  0
  -22.0601   -2.7620   23.2821 H   0  0  0  0  0  0
  -22.4162  -11.9800   22.4756 H   0  0  0  0  0  0
  -21.1144  -13.1191   22.2714 H   0  0  0  0  0  0
  -24.6261  -15.8219   20.4739 H   0  0  0  0  0  0
  -26.2229  -15.6144   19.9692 H   0  0  0  0  0  0
  -26.7231  -32.5347   23.1023 H   0  0  0  0  0  0
  -25.0118  -33.9660   25.0386 H   0  0  0  0  0  0
  -22.7362  -31.2931   21.3903 H   0  0  0  0  0  0
  -23.3751  -35.9594   23.3305 H   0  0  0  0  0  0
  -24.3560  -36.8886   22.2051 H   0  0  0  0  0  0
  -23.7252  -37.6469   23.6665 H   0  0  0  0  0  0
  -26.1205  -31.4956   20.5978 H   0  0  0  0  0  0
  -26.8623  -30.7993   22.0075 H   0  0  0  0  0  0
  -28.1302  -28.8734   21.1983 H   0  0  0  0  0  0
  -25.9628  -25.8714   18.9869 H   0  0  0  0  0  0
  -23.9766  -27.3035   18.9792 H   0  0  0  0  0  0
  -23.7912  -30.5773   19.4023 H   0  0  0  0  0  0
  -22.7680  -29.2427   19.8488 H   0  0  0  0  0  0
  -25.1296  -36.1894   25.0822 H   0  0  0  0  0  0
  -20.9969  -28.3343   24.1363 H   0  0  0  0  0  0
  -20.5662  -26.2377   23.3604 H   0  0  0  0  0  0
  -21.6662  -26.7470   22.1221 H   0  0  0  0  0  0
  -19.6964  -25.6301   21.1242 H   0  0  0  0  0  0
  -19.6733  -27.3186   20.6682 H   0  0  0  0  0  0
  -17.4224  -26.6670   21.3998 H   0  0  0  0  0  0
  -18.0397  -26.0095   22.9008 H   0  0  0  0  0  0
  -19.7946  -30.7297   24.2259 H   0  0  0  0  0  0
  -17.5020  -31.6273   24.5186 H   0  0  0  0  0  0
  -15.5355  -30.2996   23.7665 H   0  0  0  0  0  0
  -15.8681  -28.0821   22.7072 H   0  0  0  0  0  0
  -24.5985  -30.6948   25.7695 H   0  0  0  0  0  0
  -24.8905  -32.2751   26.4858 H   0  0  0  0  0  0
  -25.8095  -30.8780   27.0157 H   0  0  0  0  0  0
  -26.2931  -29.6716   24.1202 H   0  0  0  0  0  0
  -27.4138  -29.7229   25.4629 H   0  0  0  0  0  0
  -27.8793  -30.4265   23.9318 H   0  0  0  0  0  0
  -27.2734  -33.3558   26.2076 H   0  0  0  0  0  0
  -28.3917  -32.6825   25.0301 H   0  0  0  0  0  0
  -28.0789  -31.8364   26.5375 H   0  0  0  0  0  0
  -28.2584  -38.0115   24.7521 H   0  0  0  0  0  0
  -28.1114  -36.2639   24.6268 H   0  0  0  0  0  0
  -27.2307  -37.1406   25.8873 H   0  0  0  0  0  0
  -20.9454  -29.8751   21.6779 H   0  0  0  0  0  0
  -26.0166  -38.2827   24.1416 H   0  0  0  0  0  0
  -29.4518  -20.9972   22.5918 H   0  0  0  0  0  0
  -29.9099  -19.0306   23.9365 H   0  0  0  0  0  0
  -29.2683  -18.4598   19.0829 H   0  0  0  0  0  0
  -30.1303  -23.9827   20.1692 H   0  0  0  0  0  0
  -29.5829  -23.8116   21.8689 H   0  0  0  0  0  0
  -26.7253  -23.4051   19.3561 H   0  0  0  0  0  0
  -28.3003  -23.7383   18.5617 H   0  0  0  0  0  0
  -27.3386  -24.7656   21.3379 H   0  0  0  0  0  0
  -31.1559  -16.0666   23.1939 H   0  0  0  0  0  0
  -29.4380  -15.6361   23.1158 H   0  0  0  0  0  0
  -30.0023  -16.7744   24.3225 H   0  0  0  0  0  0
  -28.4311  -21.0328   19.0242 H   0  0  0  0  0  0
  -30.0234  -21.5967   19.3753 H   0  0  0  0  0  0
  -28.7303  -15.6581   20.2497 H   0  0  0  0  0  0
  -27.8118  -22.3876   21.1730 H   0  0  0  0  0  0
  1 25  1  0  0  0
  1 30  2  0  0  0
  1 82  1  0  0  0
  2  3  1  0  0  0
  2 25  1  0  0  0
  2 84  1  0  0  0
  2 85  1  0  0  0
  3  4  1  0  0  0
  3 86  1  0  0  0
  3 87  1  0  0  0
  4  5  1  0  0  0
  4 88  1  0  0  0
  4 89  1  0  0  0
  5  6  1  0  0  0
  5 26  1  0  0  0
  5 90  1  0  0  0
  6 25  1  0  0  0
  6 91  1  0  0  0
  6 92  1  0  0  0
  7  8  2  0  0  0
  7 26  1  0  0  0
  7 29  1  0  0  0
  8  9  1  0  0  0
  8 22  1  0  0  0
  9 10  1  0  0  0
  9 27  2  0  0  0
 10 11  2  0  0  0
 10 15  1  0  0  0
 11 12  1  0  0  0
 11 93  1  0  0  0
 12 13  2  0  0  0
 12 94  1  0  0  0
 13 14  1  0  0  0
 13 31  1  0  0  0
 14 15  2  0  0  0
 14 95  1  0  0  0
 15 96  1  0  0  0
 16 17  2  0  0  0
 16 21  1  0  0  0
 16 31  1  0  0  0
 17 18  1  0  0  0
 17 97  1  0  0  0
 18 19  2  0  0  0
 18 98  1  0  0  0
 19 20  1  0  0  0
 19 24  1  0  0  0
 20 21  2  0  0  0
 20 99  1  0  0  0
 21 23  1  0  0  0
 22 28  1  0  0  0
 22 32  2  0  0  0
 26 27  1  0  0  0
 28100  1  0  0  0
 28101  1  0  0  0
 29102  1  0  0  0
 29103  1  0  0  0
 33 34  1  0  0  0
 33 66  1  0  0  0
 33 70  2  0  0  0
 34 36  1  0  0  0
 34 59  1  0  0  0
 34104  1  0  0  0
 35 44  2  0  0  0
 35 45  1  0  0  0
 35 68  1  0  0  0
 36 56  1  0  0  0
 36105  1  0  0  0
 37 39  1  0  0  0
 37 47  1  0  0  0
 37 66  1  0  0  0
 37106  1  0  0  0
 38 43  2  0  0  0
 38 46  1  0  0  0
 38 47  1  0  0  0
 39 64  1  0  0  0
 39 67  2  0  0  0
 40 52  1  0  0  0
 40 53  2  0  0  0
 40 58  1  0  0  0
 41107  1  0  0  0
 41108  1  0  0  0
 41109  1  0  0  0
 41 48  1  0  0  0
 42 43  1  0  0  0
 42 66  1  0  0  0
 42110  1  0  0  0
 42111  1  0  0  0
 43 44  1  0  0  0
 44112  1  0  0  0
 45 46  2  0  0  0
 45113  1  0  0  0
 46114  1  0  0  0
 47115  1  0  0  0
 47116  1  0  0  0
 48 56  1  0  0  0
 48 65  1  0  0  0
 48117  1  0  0  0
 49 50  1  0  0  0
 49 53  1  0  0  0
 49 64  1  0  0  0
 49118  1  0  0  0
 50 51  1  0  0  0
 50119  1  0  0  0
 50120  1  0  0  0
 51 52  1  0  0  0
 51121  1  0  0  0
 51122  1  0  0  0
 52123  1  0  0  0
 52124  1  0  0  0
 53 54  1  0  0  0
 54 55  2  0  0  0
 54125  1  0  0  0
 55 57  1  0  0  0
 55126  1  0  0  0
 56 69  2  0  0  0
 57 58  2  0  0  0
 57127  1  0  0  0
 58128  1  0  0  0
 59 60  1  0  0  0
 59 61  1  0  0  0
 59 62  1  0  0  0
 60129  1  0  0  0
 60130  1  0  0  0
 60131  1  0  0  0
 61132  1  0  0  0
 61133  1  0  0  0
 61134  1  0  0  0
 62135  1  0  0  0
 62136  1  0  0  0
 62137  1  0  0  0
 63 65  1  0  0  0
 63138  1  0  0  0
 63139  1  0  0  0
 63140  1  0  0  0
 64141  1  0  0  0
 65142  1  0  0  0
 68 79  1  0  0  0
 71 72  2  0  0  0
 71 74  1  0  0  0
 71143  1  0  0  0
 72 75  1  0  0  0
 72144  1  0  0  0
 73 74  2  0  0  0
 73 76  1  0  0  0
 73145  1  0  0  0
 74 81  1  0  0  0
 75 76  2  0  0  0
 75 80  1  0  0  0
 76 82  1  0  0  0
 77 79  1  0  0  0
 77 83  1  0  0  0
 77146  1  0  0  0
 77147  1  0  0  0
 78 79  1  0  0  0
 78 83  1  0  0  0
 78148  1  0  0  0
 78149  1  0  0  0
 79150  1  0  0  0
 80151  1  0  0  0
 80152  1  0  0  0
 80153  1  0  0  0
 81154  1  0  0  0
 81155  1  0  0  0
 81 83  1  0  0  0
 82156  1  0  0  0
 83157  1  0  0  0
M  CHG  1  83   1
M  ISO  4   1 100  68 101  79 101  82 100
M  END
> <chiral flag>
0

> <version>
0

> <s_m_source_file>
/data/baiqing/PycharmProjects/Reinvent-master-3.2/result/LINK_invent/BTK/process_docking_weight1_custom_product_contain_oxygen_bond_distance_aromatic_linkinvent_7_9_3/rearranged_h_0029.sdf

> <i_m_source_file_index>
53

> <r_mmod_Potential_Energy-OPLS-2005>
120.070915222168

> <r_mmod_Stretch_Energy-OPLS-2005>
166.435928344727

> <r_mmod_Bend_Energy-OPLS-2005>
225.0537109375

> <r_mmod_Torsional_Energy-OPLS-2005>
269.549163818359

> <r_mmod_Improper_Torsional_Energy-OPLS-2005>
10.8629302978516

> <r_mmod_Van_der_Waal_Energy-OPLS-2005>
129.708374023438

> <r_mmod_Electrostatic_Energy-OPLS-2005>
-329.241027832031

> <r_mmod_Solvation_Energy-OPLS-2005>
-482.991180419922

> <b_mmod_Minimization_Converged-OPLS-2005>
0

> <r_mmod_RMS_Derivative-OPLS-2005>
3.48525476455688

$$$$
53
                    3D
 Structure written by MMmdl.
160169  0  0  1  0            999 V2000
  -30.6149  -14.7496   20.4824 C   0  0  0  0  0  0
  -30.4353  -12.4667   19.4621 C   0  0  0  0  0  0
  -29.5065  -12.5068   18.2291 C   0  0  0  0  0  0
  -28.0348  -12.3257   18.6490 C   0  0  0  0  0  0
  -27.6397  -13.2294   19.8473 C   0  0  2  0  0  0
  -28.6874  -13.1700   20.9791 C   0  0  0  0  0  0
  -25.2508  -13.8191   20.5697 C   0  0  0  0  0  0
  -24.1802  -13.0436   20.9218 C   0  0  0  0  0  0
  -24.6393  -11.6913   20.8758 C   0  0  0  0  0  0
  -23.9071  -10.4292   21.0415 C   0  0  0  0  0  0
  -24.3624   -9.4206   21.9186 C   0  0  0  0  0  0
  -23.6298   -8.2242   22.0753 C   0  0  0  0  0  0
  -22.4279   -8.0283   21.3546 C   0  0  0  0  0  0
  -21.9920   -9.0257   20.4645 C   0  0  0  0  0  0
  -22.7249  -10.2135   20.3056 C   0  0  0  0  0  0
  -21.6852   -6.0739   22.5278 C   0  0  0  0  0  0
  -21.4015   -6.5645   23.8213 C   0  0  0  0  0  0
  -21.3657   -5.6798   24.9177 C   0  0  0  0  0  0
  -21.6043   -4.3058   24.7226 C   0  0  0  0  0  0
  -21.8818   -3.8150   23.4348 C   0  0  0  0  0  0
  -21.9194   -4.6968   22.3404 C   0  0  0  0  0  0
  -22.7824  -13.5217   21.1877 C   0  0  0  0  0  0
  -22.1661   -4.2155   21.0980 F   0  0  0  0  0  0
  -21.5629   -3.4539   25.7739 F   0  0  0  0  0  0
  -29.9823  -13.5294   20.3882 N   0  0  0  0  0  0
  -26.2928  -12.9391   20.3278 N   0  0  0  0  0  0
  -25.9321  -11.6536   20.5751 N   0  0  0  0  0  0
  -22.0474  -12.8197   22.0431 N   0  0  0  0  0  0
  -25.4196  -15.1916   20.4115 N   0  0  0  0  0  0
  -31.8161  -14.8353   20.2117 O   0  0  0  0  0  0
  -21.6640   -6.8883   21.4240 O   0  0  0  0  0  0
  -22.3507  -14.5528   20.6732 O   0  0  0  0  0  0
  -24.6326  -31.8555   23.1986 C   0  0  0  0  0  0
  -25.9155  -32.4754   23.8322 C   0  0  1  0  0  0
  -27.2135  -27.2421   20.1474 C   0  0  0  0  0  0
  -25.5948  -33.8553   24.2250 N   0  0  0  0  0  0
  -23.4290  -30.4782   21.5432 C   0  0  2  0  0  0
  -24.8765  -28.9217   20.1173 C   0  0  0  0  0  0
  -22.7509  -29.4603   22.4920 C   0  0  0  0  0  0
  -18.0297  -28.1378   22.8475 C   0  0  0  0  0  0
  -24.1503  -36.7282   23.2641 C   0  0  0  0  0  0
  -25.9766  -30.7616   21.3845 C   0  0  0  0  0  0
  -26.0485  -29.3804   20.7325 C   0  0  0  0  0  0
  -27.2212  -28.5545   20.7354 C   0  0  0  0  0  0
  -26.0279  -26.8712   19.4788 C   0  0  0  0  0  0
  -24.8721  -27.6744   19.4784 C   0  0  0  0  0  0
  -23.6492  -29.8121   20.1604 C   0  0  0  0  0  0
  -25.4129  -36.3066   24.0325 C   0  0  1  0  0  0
  -20.5894  -28.3698   23.1258 C   0  0  2  0  0  0
  -20.6791  -26.9417   22.5397 C   0  0  0  0  0  0
  -19.5770  -26.6373   21.5202 C   0  0  0  0  0  0
  -18.1944  -26.7921   22.1605 C   0  0  0  0  0  0
  -19.1548  -28.8856   23.2858 C   0  0  0  0  0  0
  -18.9474  -30.1453   23.8878 C   0  0  0  0  0  0
  -17.6473  -30.6583   24.0555 C   0  0  0  0  0  0
  -25.9069  -34.9439   23.5091 C   0  0  0  0  0  0
  -16.5361  -29.9073   23.6334 C   0  0  0  0  0  0
  -16.7280  -28.6492   23.0349 C   0  0  0  0  0  0
  -26.4512  -31.6584   25.0717 C   0  0  0  0  0  0
  -25.3722  -31.3737   26.1427 C   0  0  0  0  0  0
  -27.0371  -30.3000   24.6220 C   0  0  0  0  0  0
  -27.6064  -32.4332   25.7485 C   0  0  0  0  0  0
  -27.5589  -37.1794   24.8461 C   0  0  0  0  0  0
  -21.4217  -29.3044   22.3656 N   0  0  0  0  0  0
  -26.4301  -37.3766   23.9409 N   0  0  0  0  0  0
  -24.6982  -31.0506   22.0976 N   0  0  0  0  0  0
  -23.4209  -28.8142   23.3020 O   0  0  0  0  0  0
  -28.3143  -26.3491   20.1383 O   0  0  0  0  0  0
  -26.5637  -34.8912   22.4658 O   0  0  0  0  0  0
  -23.5476  -32.1380   23.7277 O   0  0  0  0  0  0
  -31.5297  -18.8213   22.3045 C   0  0  0  0  0  0
  -31.1789  -17.5204   21.8965 C   0  0  0  0  0  0
  -29.5478  -18.4997   20.3863 C   0  0  0  0  0  0
  -30.9307  -19.9763   21.7507 C   0  0  0  0  0  0
  -29.9126  -19.8656   20.7641 C   0  0  0  0  0  0
  -30.1851  -17.2991   20.9225 C   0  0  0  0  0  0
  -27.0198  -24.0263   20.2827 C   0  0  0  0  0  0
  -27.3748  -22.5826   20.7507 C   0  0  0  0  0  0
  -29.3395  -23.8409   20.3567 C   0  0  0  0  0  0
  -28.2079  -24.9271   20.6665 C   0  0  1  0  0  0
  -31.4501  -21.3282   22.2166 C   0  0  0  0  0  0
  -29.3991  -21.1892   20.0096 C   0  0  0  0  0  0
  -29.8274  -15.8922   20.5993 N   0  0  0  0  0  0
  -28.8538  -22.4388   20.7446 N   0  3  2  0  0  0
  -31.4728  -12.6032   19.1532 H   0  0  0  0  0  0
  -30.3925  -11.4909   19.9495 H   0  0  0  0  0  0
  -29.7903  -11.7322   17.5151 H   0  0  0  0  0  0
  -29.6250  -13.4594   17.7102 H   0  0  0  0  0  0
  -27.8974  -11.2779   18.9173 H   0  0  0  0  0  0
  -27.3734  -12.5103   17.8012 H   0  0  0  0  0  0
  -27.6304  -14.2485   19.4607 H   0  0  0  0  0  0
  -28.7290  -12.1734   21.4212 H   0  0  0  0  0  0
  -28.4228  -13.8540   21.7873 H   0  0  0  0  0  0
  -25.2766   -9.5680   22.4764 H   0  0  0  0  0  0
  -24.0008   -7.4629   22.7469 H   0  0  0  0  0  0
  -21.0853   -8.8775   19.8944 H   0  0  0  0  0  0
  -22.3708  -10.9677   19.6168 H   0  0  0  0  0  0
  -21.2004   -7.6151   23.9719 H   0  0  0  0  0  0
  -21.1480   -6.0526   25.9080 H   0  0  0  0  0  0
  -22.0598   -2.7613   23.2845 H   0  0  0  0  0  0
  -22.4096  -11.9853   22.4799 H   0  0  0  0  0  0
  -21.1086  -13.1207   22.2642 H   0  0  0  0  0  0
  -24.6507  -15.8435   20.5235 H   0  0  0  0  0  0
  -26.2629  -15.6333   20.0692 H   0  0  0  0  0  0
  -26.7223  -32.5402   23.1061 H   0  0  0  0  0  0
  -25.0071  -33.9682   25.0382 H   0  0  0  0  0  0
  -22.7256  -31.3009   21.3966 H   0  0  0  0  0  0
  -23.3763  -35.9615   23.3296 H   0  0  0  0  0  0
  -24.3589  -36.8909   22.2056 H   0  0  0  0  0  0
  -23.7262  -37.6482   23.6672 H   0  0  0  0  0  0
  -26.1181  -31.5212   20.6141 H   0  0  0  0  0  0
  -26.8534  -30.8105   22.0186 H   0  0  0  0  0  0
  -28.1208  -28.9055   21.2213 H   0  0  0  0  0  0
  -25.9728  -25.9437   18.9328 H   0  0  0  0  0  0
  -23.9825  -27.3252   18.9725 H   0  0  0  0  0  0
  -23.7779  -30.5879   19.4042 H   0  0  0  0  0  0
  -22.7668  -29.2465   19.8550 H   0  0  0  0  0  0
  -25.1315  -36.1911   25.0814 H   0  0  0  0  0  0
  -20.9977  -28.3280   24.1383 H   0  0  0  0  0  0
  -20.5706  -26.2305   23.3600 H   0  0  0  0  0  0
  -21.6660  -26.7447   22.1186 H   0  0  0  0  0  0
  -19.6940  -25.6283   21.1239 H   0  0  0  0  0  0
  -19.6714  -27.3184   20.6731 H   0  0  0  0  0  0
  -17.4217  -26.6666   21.4001 H   0  0  0  0  0  0
  -18.0337  -26.0062   22.9000 H   0  0  0  0  0  0
  -19.7954  -30.7264   24.2236 H   0  0  0  0  0  0
  -17.5033  -31.6265   24.5154 H   0  0  0  0  0  0
  -15.5363  -30.2969   23.7677 H   0  0  0  0  0  0
  -15.8676  -28.0810   22.7067 H   0  0  0  0  0  0
  -24.5923  -30.7056   25.7747 H   0  0  0  0  0  0
  -24.8878  -32.2902   26.4794 H   0  0  0  0  0  0
  -25.8027  -30.8955   27.0233 H   0  0  0  0  0  0
  -26.2957  -29.6723   24.1256 H   0  0  0  0  0  0
  -27.4062  -29.7287   25.4747 H   0  0  0  0  0  0
  -27.8835  -30.4254   23.9462 H   0  0  0  0  0  0
  -27.2679  -33.3656   26.2014 H   0  0  0  0  0  0
  -28.3893  -32.6856   25.0317 H   0  0  0  0  0  0
  -28.0713  -31.8486   26.5431 H   0  0  0  0  0  0
  -28.2590  -38.0106   24.7528 H   0  0  0  0  0  0
  -28.1104  -36.2637   24.6271 H   0  0  0  0  0  0
  -27.2301  -37.1409   25.8860 H   0  0  0  0  0  0
  -20.9411  -29.8760   21.6856 H   0  0  0  0  0  0
  -26.0179  -38.2834   24.1420 H   0  0  0  0  0  0
  -32.3033  -18.9257   23.0535 H   0  0  0  0  0  0
  -31.6818  -16.6836   22.3608 H   0  0  0  0  0  0
  -28.7897  -18.3729   19.6263 H   0  0  0  0  0  0
  -26.0776  -24.3626   20.7154 H   0  0  0  0  0  0
  -26.9085  -24.0108   19.1987 H   0  0  0  0  0  0
  -26.8738  -21.8388   20.1298 H   0  0  0  0  0  0
  -27.0296  -22.4232   21.7729 H   0  0  0  0  0  0
  -30.2706  -24.0820   20.8691 H   0  0  0  0  0  0
  -29.5524  -23.8558   19.2878 H   0  0  0  0  0  0
  -28.1706  -25.0455   21.7510 H   0  0  0  0  0  0
  -31.7816  -21.9344   21.3734 H   0  0  0  0  0  0
  -32.3052  -21.2172   22.8850 H   0  0  0  0  0  0
  -30.6841  -21.8724   22.7683 H   0  0  0  0  0  0
  -28.6904  -20.8895   19.2377 H   0  0  0  0  0  0
  -30.2651  -21.5299   19.4413 H   0  0  0  0  0  0
  -28.8392  -15.7151   20.5136 H   0  0  0  0  0  0
  -29.1093  -22.3065   21.7117 H   0  0  0  0  0  0
  1 25  1  0  0  0
  1 30  2  0  0  0
  1 83  1  0  0  0
  2  3  1  0  0  0
  2 25  1  0  0  0
  2 85  1  0  0  0
  2 86  1  0  0  0
  3  4  1  0  0  0
  3 87  1  0  0  0
  3 88  1  0  0  0
  4  5  1  0  0  0
  4 89  1  0  0  0
  4 90  1  0  0  0
  5  6  1  0  0  0
  5 26  1  0  0  0
  5 91  1  0  0  0
  6 25  1  0  0  0
  6 92  1  0  0  0
  6 93  1  0  0  0
  7  8  2  0  0  0
  7 26  1  0  0  0
  7 29  1  0  0  0
  8  9  1  0  0  0
  8 22  1  0  0  0
  9 10  1  0  0  0
  9 27  2  0  0  0
 10 11  2  0  0  0
 10 15  1  0  0  0
 11 12  1  0  0  0
 11 94  1  0  0  0
 12 13  2  0  0  0
 12 95  1  0  0  0
 13 14  1  0  0  0
 13 31  1  0  0  0
 14 15  2  0  0  0
 14 96  1  0  0  0
 15 97  1  0  0  0
 16 17  2  0  0  0
 16 21  1  0  0  0
 16 31  1  0  0  0
 17 18  1  0  0  0
 17 98  1  0  0  0
 18 19  2  0  0  0
 18 99  1  0  0  0
 19 20  1  0  0  0
 19 24  1  0  0  0
 20 21  2  0  0  0
 20100  1  0  0  0
 21 23  1  0  0  0
 22 28  1  0  0  0
 22 32  2  0  0  0
 26 27  1  0  0  0
 28101  1  0  0  0
 28102  1  0  0  0
 29103  1  0  0  0
 29104  1  0  0  0
 33 34  1  0  0  0
 33 66  1  0  0  0
 33 70  2  0  0  0
 34 36  1  0  0  0
 34 59  1  0  0  0
 34105  1  0  0  0
 35 44  2  0  0  0
 35 45  1  0  0  0
 35 68  1  0  0  0
 36 56  1  0  0  0
 36106  1  0  0  0
 37 39  1  0  0  0
 37 47  1  0  0  0
 37 66  1  0  0  0
 37107  1  0  0  0
 38 43  2  0  0  0
 38 46  1  0  0  0
 38 47  1  0  0  0
 39 64  1  0  0  0
 39 67  2  0  0  0
 40 52  1  0  0  0
 40 53  2  0  0  0
 40 58  1  0  0  0
 41108  1  0  0  0
 41109  1  0  0  0
 41110  1  0  0  0
 41 48  1  0  0  0
 42 43  1  0  0  0
 42 66  1  0  0  0
 42111  1  0  0  0
 42112  1  0  0  0
 43 44  1  0  0  0
 44113  1  0  0  0
 45 46  2  0  0  0
 45114  1  0  0  0
 46115  1  0  0  0
 47116  1  0  0  0
 47117  1  0  0  0
 48 56  1  0  0  0
 48 65  1  0  0  0
 48118  1  0  0  0
 49 50  1  0  0  0
 49 53  1  0  0  0
 49 64  1  0  0  0
 49119  1  0  0  0
 50 51  1  0  0  0
 50120  1  0  0  0
 50121  1  0  0  0
 51 52  1  0  0  0
 51122  1  0  0  0
 51123  1  0  0  0
 52124  1  0  0  0
 52125  1  0  0  0
 53 54  1  0  0  0
 54 55  2  0  0  0
 54126  1  0  0  0
 55 57  1  0  0  0
 55127  1  0  0  0
 56 69  2  0  0  0
 57 58  2  0  0  0
 57128  1  0  0  0
 58129  1  0  0  0
 59 60  1  0  0  0
 59 61  1  0  0  0
 59 62  1  0  0  0
 60130  1  0  0  0
 60131  1  0  0  0
 60132  1  0  0  0
 61133  1  0  0  0
 61134  1  0  0  0
 61135  1  0  0  0
 62136  1  0  0  0
 62137  1  0  0  0
 62138  1  0  0  0
 63 65  1  0  0  0
 63139  1  0  0  0
 63140  1  0  0  0
 63141  1  0  0  0
 64142  1  0  0  0
 65143  1  0  0  0
 68 80  1  0  0  0
 71 72  2  0  0  0
 71 74  1  0  0  0
 71144  1  0  0  0
 72 76  1  0  0  0
 72145  1  0  0  0
 73 75  1  0  0  0
 73 76  2  0  0  0
 73146  1  0  0  0
 74 75  2  0  0  0
 74 81  1  0  0  0
 75 82  1  0  0  0
 76 83  1  0  0  0
 77 78  1  0  0  0
 77 80  1  0  0  0
 77147  1  0  0  0
 77148  1  0  0  0
 78 84  1  0  0  0
 78149  1  0  0  0
 78150  1  0  0  0
 79 80  1  0  0  0
 79 84  1  0  0  0
 79151  1  0  0  0
 79152  1  0  0  0
 80153  1  0  0  0
 81154  1  0  0  0
 81155  1  0  0  0
 81156  1  0  0  0
 82157  1  0  0  0
 82158  1  0  0  0
 82 84  1  0  0  0
 83159  1  0  0  0
 84160  1  0  0  0
M  CHG  1  84   1
M  ISO  4   1 100  68 101  80 101  83 100
M  END
> <chiral flag>
0

> <version>
0

> <s_m_source_file>
/data/baiqing/PycharmProjects/Reinvent-master-3.2/result/LINK_invent/BTK/process_docking_weight1_custom_product_contain_oxygen_bond_distance_aromatic_linkinvent_7_9_3/rearranged_h_0029.sdf

> <i_m_source_file_index>
54

> <r_mmod_Potential_Energy-OPLS-2005>
149.322891235352

> <r_mmod_Stretch_Energy-OPLS-2005>
128.93977355957

> <r_mmod_Bend_Energy-OPLS-2005>
204.781127929688

> <r_mmod_Torsional_Energy-OPLS-2005>
297.455322265625

> <r_mmod_Improper_Torsional_Energy-OPLS-2005>
7.79883098602295

> <r_mmod_Van_der_Waal_Energy-OPLS-2005>
135.586654663086

> <r_mmod_Electrostatic_Energy-OPLS-2005>
-271.447143554688

> <r_mmod_Solvation_Energy-OPLS-2005>
-443.879974365234

> <b_mmod_Minimization_Converged-OPLS-2005>
0

> <r_mmod_RMS_Derivative-OPLS-2005>
1.22365629673004

$$$$
54
                    3D
 Structure written by MMmdl.
151159  0  0  1  0            999 V2000
  -30.5961  -14.7422   20.4429 C   0  0  0  0  0  0
  -30.4291  -12.4473   19.4765 C   0  0  0  0  0  0
  -29.5090  -12.4994   18.2369 C   0  0  0  0  0  0
  -28.0355  -12.3202   18.6497 C   0  0  0  0  0  0
  -27.6390  -13.2271   19.8458 C   0  0  2  0  0  0
  -28.6794  -13.1650   20.9844 C   0  0  0  0  0  0
  -25.2522  -13.8190   20.5693 C   0  0  0  0  0  0
  -24.1810  -13.0445   20.9216 C   0  0  0  0  0  0
  -24.6384  -11.6916   20.8743 C   0  0  0  0  0  0
  -23.9057  -10.4294   21.0403 C   0  0  0  0  0  0
  -24.3616   -9.4211   21.9179 C   0  0  0  0  0  0
  -23.6298   -8.2248   22.0752 C   0  0  0  0  0  0
  -22.4280   -8.0286   21.3546 C   0  0  0  0  0  0
  -21.9908   -9.0250   20.4643 C   0  0  0  0  0  0
  -22.7228  -10.2134   20.3050 C   0  0  0  0  0  0
  -21.6846   -6.0742   22.5281 C   0  0  0  0  0  0
  -21.4007   -6.5645   23.8216 C   0  0  0  0  0  0
  -21.3660   -5.6799   24.9179 C   0  0  0  0  0  0
  -21.6036   -4.3060   24.7225 C   0  0  0  0  0  0
  -21.8816   -3.8153   23.4344 C   0  0  0  0  0  0
  -21.9192   -4.6971   22.3401 C   0  0  0  0  0  0
  -22.7835  -13.5236   21.1867 C   0  0  0  0  0  0
  -22.1663   -4.2156   21.0976 F   0  0  0  0  0  0
  -21.5632   -3.4543   25.7739 F   0  0  0  0  0  0
  -29.9819  -13.5116   20.4048 N   0  0  0  0  0  0
  -26.2923  -12.9384   20.3246 N   0  0  0  0  0  0
  -25.9305  -11.6527   20.5716 N   0  0  0  0  0  0
  -22.0481  -12.8223   22.0418 N   0  0  0  0  0  0
  -25.4233  -15.1915   20.4127 N   0  0  0  0  0  0
  -31.7855  -14.8416   20.1293 O   0  0  0  0  0  0
  -21.6647   -6.8881   21.4245 O   0  0  0  0  0  0
  -22.3526  -14.5535   20.6707 O   0  0  0  0  0  0
  -24.6299  -31.8557   23.1954 C   0  0  0  0  0  0
  -25.9126  -32.4749   23.8307 C   0  0  1  0  0  0
  -27.2224  -27.2641   20.1236 C   0  0  0  0  0  0
  -25.5921  -33.8550   24.2240 N   0  0  0  0  0  0
  -23.4261  -30.4770   21.5388 C   0  0  2  0  0  0
  -24.8730  -28.9186   20.1074 C   0  0  0  0  0  0
  -22.7490  -29.4622   22.4914 C   0  0  0  0  0  0
  -18.0284  -28.1392   22.8496 C   0  0  0  0  0  0
  -24.1493  -36.7282   23.2639 C   0  0  0  0  0  0
  -25.9702  -30.7687   21.3737 C   0  0  0  0  0  0
  -26.0419  -29.3904   20.7161 C   0  0  0  0  0  0
  -27.2156  -28.5736   20.7138 C   0  0  0  0  0  0
  -26.0280  -26.8502   19.4953 C   0  0  0  0  0  0
  -24.8708  -27.6577   19.4882 C   0  0  0  0  0  0
  -23.6428  -29.8047   20.1562 C   0  0  0  0  0  0
  -25.4120  -36.3070   24.0326 C   0  0  1  0  0  0
  -20.5887  -28.3718   23.1274 C   0  0  2  0  0  0
  -20.6781  -26.9435   22.5403 C   0  0  0  0  0  0
  -19.5746  -26.6396   21.5218 C   0  0  0  0  0  0
  -18.1938  -26.7935   22.1643 C   0  0  0  0  0  0
  -19.1538  -28.8876   23.2879 C   0  0  0  0  0  0
  -18.9460  -30.1472   23.8903 C   0  0  0  0  0  0
  -17.6450  -30.6598   24.0557 C   0  0  0  0  0  0
  -25.9056  -34.9440   23.5090 C   0  0  0  0  0  0
  -16.5349  -29.9096   23.6319 C   0  0  0  0  0  0
  -16.7271  -28.6501   23.0360 C   0  0  0  0  0  0
  -26.4485  -31.6580   25.0706 C   0  0  0  0  0  0
  -25.3685  -31.3756   26.1411 C   0  0  0  0  0  0
  -27.0336  -30.2996   24.6201 C   0  0  0  0  0  0
  -27.6042  -32.4322   25.7478 C   0  0  0  0  0  0
  -27.5581  -37.1798   24.8466 C   0  0  0  0  0  0
  -21.4197  -29.3069   22.3662 N   0  0  0  0  0  0
  -26.4294  -37.3770   23.9406 N   0  0  0  0  0  0
  -24.6945  -31.0524   22.0921 N   0  0  0  0  0  0
  -23.4182  -28.8164   23.3024 O   0  0  0  0  0  0
  -28.3450  -26.4123   20.2062 O   0  0  0  0  0  0
  -26.5634  -34.8920   22.4666 O   0  0  0  0  0  0
  -23.5449  -32.1389   23.7247 O   0  0  0  0  0  0
  -27.2744  -19.5079   21.7303 C   0  0  0  0  0  0
  -28.0957  -18.4077   21.3948 C   0  0  0  0  0  0
  -27.5573  -20.8208   21.2864 C   0  0  0  0  0  0
  -29.5031  -19.9396   20.1427 C   0  0  0  0  0  0
  -29.2447  -18.5780   20.5972 C   0  0  0  0  0  0
  -28.6759  -21.0950   20.4664 C   0  0  0  0  0  0
  -30.1885  -17.3267   20.2823 C   0  0  0  0  0  0
  -28.4343  -25.0329   19.6164 C   0  0  0  0  0  0
  -28.1988  -23.6441   20.4252 C   0  0  0  0  0  0
  -29.8109  -15.8755   20.5975 N   0  0  0  0  0  0
  -28.9500  -22.4168   19.9939 O   0  0  0  0  0  0
  -31.4704  -12.5682   19.1737 H   0  0  0  0  0  0
  -30.3725  -11.4724   19.9613 H   0  0  0  0  0  0
  -29.7957  -11.7264   17.5224 H   0  0  0  0  0  0
  -29.6327  -13.4537   17.7226 H   0  0  0  0  0  0
  -27.8964  -11.2727   18.9198 H   0  0  0  0  0  0
  -27.3764  -12.5041   17.8002 H   0  0  0  0  0  0
  -27.6318  -14.2452   19.4577 H   0  0  0  0  0  0
  -28.7104  -12.1689   21.4291 H   0  0  0  0  0  0
  -28.4130  -13.8522   21.7891 H   0  0  0  0  0  0
  -25.2758   -9.5702   22.4755 H   0  0  0  0  0  0
  -24.0009   -7.4638   22.7466 H   0  0  0  0  0  0
  -21.0844   -8.8752   19.8943 H   0  0  0  0  0  0
  -22.3668  -10.9675   19.6168 H   0  0  0  0  0  0
  -21.1991   -7.6156   23.9717 H   0  0  0  0  0  0
  -21.1491   -6.0534   25.9081 H   0  0  0  0  0  0
  -22.0592   -2.7616   23.2841 H   0  0  0  0  0  0
  -22.4121  -11.9890   22.4795 H   0  0  0  0  0  0
  -21.1090  -13.1226   22.2613 H   0  0  0  0  0  0
  -24.6550  -15.8436   20.5258 H   0  0  0  0  0  0
  -26.2581  -15.6250   20.0407 H   0  0  0  0  0  0
  -26.7191  -32.5403   23.1045 H   0  0  0  0  0  0
  -25.0053  -33.9679   25.0369 H   0  0  0  0  0  0
  -22.7222  -31.2991   21.3902 H   0  0  0  0  0  0
  -23.3761  -35.9610   23.3304 H   0  0  0  0  0  0
  -24.3575  -36.8904   22.2053 H   0  0  0  0  0  0
  -23.7240  -37.6480   23.6659 H   0  0  0  0  0  0
  -26.1077  -31.5308   20.6053 H   0  0  0  0  0  0
  -26.8483  -30.8181   22.0065 H   0  0  0  0  0  0
  -28.1132  -28.9287   21.2007 H   0  0  0  0  0  0
  -25.9553  -25.8782   19.0322 H   0  0  0  0  0  0
  -23.9715  -27.2898   19.0140 H   0  0  0  0  0  0
  -23.7631  -30.5777   19.3966 H   0  0  0  0  0  0
  -22.7619  -29.2355   19.8539 H   0  0  0  0  0  0
  -25.1301  -36.1922   25.0819 H   0  0  0  0  0  0
  -20.9980  -28.3296   24.1392 H   0  0  0  0  0  0
  -20.5701  -26.2322   23.3608 H   0  0  0  0  0  0
  -21.6642  -26.7481   22.1171 H   0  0  0  0  0  0
  -19.6907  -25.6311   21.1257 H   0  0  0  0  0  0
  -19.6669  -27.3198   20.6737 H   0  0  0  0  0  0
  -17.4196  -26.6671   21.4063 H   0  0  0  0  0  0
  -18.0362  -26.0090   22.9057 H   0  0  0  0  0  0
  -19.7923  -30.7294   24.2290 H   0  0  0  0  0  0
  -17.4993  -31.6274   24.5169 H   0  0  0  0  0  0
  -15.5342  -30.2990   23.7644 H   0  0  0  0  0  0
  -15.8669  -28.0803   22.7088 H   0  0  0  0  0  0
  -24.5861  -30.7109   25.7730 H   0  0  0  0  0  0
  -24.8865  -32.2936   26.4787 H   0  0  0  0  0  0
  -25.7962  -30.8957   27.0220 H   0  0  0  0  0  0
  -26.2933  -29.6744   24.1199 H   0  0  0  0  0  0
  -27.3988  -29.7261   25.4729 H   0  0  0  0  0  0
  -27.8816  -30.4275   23.9472 H   0  0  0  0  0  0
  -27.2658  -33.3633   26.2036 H   0  0  0  0  0  0
  -28.3856  -32.6864   25.0304 H   0  0  0  0  0  0
  -28.0705  -31.8458   26.5402 H   0  0  0  0  0  0
  -28.2603  -38.0090   24.7506 H   0  0  0  0  0  0
  -28.1071  -36.2618   24.6304 H   0  0  0  0  0  0
  -27.2293  -37.1471   25.8867 H   0  0  0  0  0  0
  -20.9398  -29.8763   21.6833 H   0  0  0  0  0  0
  -26.0179  -38.2849   24.1390 H   0  0  0  0  0  0
  -26.4046  -19.3397   22.3510 H   0  0  0  0  0  0
  -27.8386  -17.4282   21.7716 H   0  0  0  0  0  0
  -26.8864  -21.6108   21.5901 H   0  0  0  0  0  0
  -30.3756  -20.1075   19.5272 H   0  0  0  0  0  0
  -31.1356  -17.5259   20.7843 H   0  0  0  0  0  0
  -30.4171  -17.3685   19.2167 H   0  0  0  0  0  0
  -27.8980  -24.9943   18.6693 H   0  0  0  0  0  0
  -29.4779  -24.9856   19.3066 H   0  0  0  0  0  0
  -27.1287  -23.4404   20.4038 H   0  0  0  0  0  0
  -28.4530  -23.8123   21.4717 H   0  0  0  0  0  0
  -28.8421  -15.7060   20.8171 H   0  0  0  0  0  0
  1 25  1  0  0  0
  1 30  2  0  0  0
  1 80  1  0  0  0
  2  3  1  0  0  0
  2 25  1  0  0  0
  2 82  1  0  0  0
  2 83  1  0  0  0
  3  4  1  0  0  0
  3 84  1  0  0  0
  3 85  1  0  0  0
  4  5  1  0  0  0
  4 86  1  0  0  0
  4 87  1  0  0  0
  5  6  1  0  0  0
  5 26  1  0  0  0
  5 88  1  0  0  0
  6 25  1  0  0  0
  6 89  1  0  0  0
  6 90  1  0  0  0
  7  8  2  0  0  0
  7 26  1  0  0  0
  7 29  1  0  0  0
  8  9  1  0  0  0
  8 22  1  0  0  0
  9 10  1  0  0  0
  9 27  2  0  0  0
 10 11  2  0  0  0
 10 15  1  0  0  0
 11 12  1  0  0  0
 11 91  1  0  0  0
 12 13  2  0  0  0
 12 92  1  0  0  0
 13 14  1  0  0  0
 13 31  1  0  0  0
 14 15  2  0  0  0
 14 93  1  0  0  0
 15 94  1  0  0  0
 16 17  2  0  0  0
 16 21  1  0  0  0
 16 31  1  0  0  0
 17 18  1  0  0  0
 17 95  1  0  0  0
 18 19  2  0  0  0
 18 96  1  0  0  0
 19 20  1  0  0  0
 19 24  1  0  0  0
 20 21  2  0  0  0
 20 97  1  0  0  0
 21 23  1  0  0  0
 22 28  1  0  0  0
 22 32  2  0  0  0
 26 27  1  0  0  0
 28 98  1  0  0  0
 28 99  1  0  0  0
 29100  1  0  0  0
 29101  1  0  0  0
 33 34  1  0  0  0
 33 66  1  0  0  0
 33 70  2  0  0  0
 34 36  1  0  0  0
 34 59  1  0  0  0
 34102  1  0  0  0
 35 44  2  0  0  0
 35 45  1  0  0  0
 35 68  1  0  0  0
 36 56  1  0  0  0
 36103  1  0  0  0
 37 39  1  0  0  0
 37 47  1  0  0  0
 37 66  1  0  0  0
 37104  1  0  0  0
 38 43  2  0  0  0
 38 46  1  0  0  0
 38 47  1  0  0  0
 39 64  1  0  0  0
 39 67  2  0  0  0
 40 52  1  0  0  0
 40 53  2  0  0  0
 40 58  1  0  0  0
 41105  1  0  0  0
 41106  1  0  0  0
 41107  1  0  0  0
 41 48  1  0  0  0
 42 43  1  0  0  0
 42 66  1  0  0  0
 42108  1  0  0  0
 42109  1  0  0  0
 43 44  1  0  0  0
 44110  1  0  0  0
 45 46  2  0  0  0
 45111  1  0  0  0
 46112  1  0  0  0
 47113  1  0  0  0
 47114  1  0  0  0
 48 56  1  0  0  0
 48 65  1  0  0  0
 48115  1  0  0  0
 49 50  1  0  0  0
 49 53  1  0  0  0
 49 64  1  0  0  0
 49116  1  0  0  0
 50 51  1  0  0  0
 50117  1  0  0  0
 50118  1  0  0  0
 51 52  1  0  0  0
 51119  1  0  0  0
 51120  1  0  0  0
 52121  1  0  0  0
 52122  1  0  0  0
 53 54  1  0  0  0
 54 55  2  0  0  0
 54123  1  0  0  0
 55 57  1  0  0  0
 55124  1  0  0  0
 56 69  2  0  0  0
 57 58  2  0  0  0
 57125  1  0  0  0
 58126  1  0  0  0
 59 60  1  0  0  0
 59 61  1  0  0  0
 59 62  1  0  0  0
 60127  1  0  0  0
 60128  1  0  0  0
 60129  1  0  0  0
 61130  1  0  0  0
 61131  1  0  0  0
 61132  1  0  0  0
 62133  1  0  0  0
 62134  1  0  0  0
 62135  1  0  0  0
 63 65  1  0  0  0
 63136  1  0  0  0
 63137  1  0  0  0
 63138  1  0  0  0
 64139  1  0  0  0
 65140  1  0  0  0
 68 78  1  0  0  0
 71 72  2  0  0  0
 71 73  1  0  0  0
 71141  1  0  0  0
 72 75  1  0  0  0
 72142  1  0  0  0
 73 76  2  0  0  0
 73143  1  0  0  0
 74 75  2  0  0  0
 74 76  1  0  0  0
 74144  1  0  0  0
 75 77  1  0  0  0
 76 81  1  0  0  0
 77 80  1  0  0  0
 77145  1  0  0  0
 77146  1  0  0  0
 78 79  1  0  0  0
 78147  1  0  0  0
 78148  1  0  0  0
 79 81  1  0  0  0
 79149  1  0  0  0
 79150  1  0  0  0
 80151  1  0  0  0
M  ISO  4   1 100  68 101  78 101  80 100
M  END
> <chiral flag>
0

> <version>
0

> <s_m_source_file>
/data/baiqing/PycharmProjects/Reinvent-master-3.2/result/LINK_invent/BTK/process_docking_weight1_custom_product_contain_oxygen_bond_distance_aromatic_linkinvent_7_9_3/rearranged_h_0029.sdf

> <i_m_source_file_index>
55

> <r_mmod_Potential_Energy-OPLS-2005>
102.604339599609

> <r_mmod_Stretch_Energy-OPLS-2005>
123.277969360352

> <r_mmod_Bend_Energy-OPLS-2005>
179.02409362793

> <r_mmod_Torsional_Energy-OPLS-2005>
193.244003295898

> <r_mmod_Improper_Torsional_Energy-OPLS-2005>
5.86152601242065

> <r_mmod_Van_der_Waal_Energy-OPLS-2005>
135.367858886719

> <r_mmod_Electrostatic_Energy-OPLS-2005>
-402.479125976562

> <r_mmod_Solvation_Energy-OPLS-2005>
-214.6943359375

> <b_mmod_Minimization_Converged-OPLS-2005>
0

> <r_mmod_RMS_Derivative-OPLS-2005>
1.67492842674255

$$$$
55
                    3D
 Structure written by MMmdl.
159168  0  0  1  0            999 V2000
  -30.5384  -14.9062   20.4192 C   0  0  0  0  0  0
  -30.4509  -12.5541   19.4939 C   0  0  0  0  0  0
  -29.5254  -12.5249   18.2551 C   0  0  0  0  0  0
  -28.0569  -12.3162   18.6721 C   0  0  0  0  0  0
  -27.6398  -13.2375   19.8477 C   0  0  2  0  0  0
  -28.6854  -13.2309   20.9846 C   0  0  0  0  0  0
  -25.2513  -13.8188   20.5725 C   0  0  0  0  0  0
  -24.1806  -13.0426   20.9206 C   0  0  0  0  0  0
  -24.6405  -11.6908   20.8740 C   0  0  0  0  0  0
  -23.9086  -10.4283   21.0401 C   0  0  0  0  0  0
  -24.3633   -9.4200   21.9180 C   0  0  0  0  0  0
  -23.6297   -8.2239   22.0751 C   0  0  0  0  0  0
  -22.4278   -8.0287   21.3546 C   0  0  0  0  0  0
  -21.9923   -9.0262   20.4651 C   0  0  0  0  0  0
  -22.7260  -10.2131   20.3051 C   0  0  0  0  0  0
  -21.6858   -6.0740   22.5279 C   0  0  0  0  0  0
  -21.4019   -6.5634   23.8214 C   0  0  0  0  0  0
  -21.3651   -5.6787   24.9173 C   0  0  0  0  0  0
  -21.6036   -4.3051   24.7228 C   0  0  0  0  0  0
  -21.8819   -3.8148   23.4344 C   0  0  0  0  0  0
  -21.9196   -4.6965   22.3405 C   0  0  0  0  0  0
  -22.7825  -13.5210   21.1870 C   0  0  0  0  0  0
  -22.1667   -4.2152   21.0982 F   0  0  0  0  0  0
  -21.5621   -3.4533   25.7737 F   0  0  0  0  0  0
  -29.9722  -13.6353   20.3974 N   0  0  0  0  0  0
  -26.2941  -12.9403   20.3290 N   0  0  0  0  0  0
  -25.9341  -11.6539   20.5742 N   0  0  0  0  0  0
  -22.0481  -12.8195   22.0425 N   0  0  0  0  0  0
  -25.4189  -15.1918   20.4195 N   0  0  0  0  0  0
  -31.7262  -15.0221   20.1000 O   0  0  0  0  0  0
  -21.6638   -6.8886   21.4244 O   0  0  0  0  0  0
  -22.3503  -14.5520   20.6732 O   0  0  0  0  0  0
  -24.6422  -31.8451   23.1896 C   0  0  0  0  0  0
  -25.9203  -32.4706   23.8274 C   0  0  1  0  0  0
  -27.2207  -27.1470   20.1315 C   0  0  0  0  0  0
  -25.5972  -33.8513   24.2202 N   0  0  0  0  0  0
  -23.4452  -30.4656   21.5343 C   0  0  2  0  0  0
  -24.8953  -28.8982   20.1049 C   0  0  0  0  0  0
  -22.7560  -29.4551   22.4853 C   0  0  0  0  0  0
  -18.0305  -28.1414   22.8472 C   0  0  0  0  0  0
  -24.1485  -36.7230   23.2627 C   0  0  0  0  0  0
  -26.0012  -30.7191   21.3904 C   0  0  0  0  0  0
  -26.0711  -29.3330   20.7279 C   0  0  0  0  0  0
  -27.2305  -28.4706   20.7307 C   0  0  0  0  0  0
  -26.0193  -26.8193   19.4607 C   0  0  0  0  0  0
  -24.8825  -27.6550   19.4573 C   0  0  0  0  0  0
  -23.6704  -29.7972   20.1526 C   0  0  0  0  0  0
  -25.4115  -36.3030   24.0314 C   0  0  1  0  0  0
  -20.5917  -28.3728   23.1234 C   0  0  2  0  0  0
  -20.6788  -26.9435   22.5401 C   0  0  0  0  0  0
  -19.5763  -26.6398   21.5205 C   0  0  0  0  0  0
  -18.1943  -26.7954   22.1619 C   0  0  0  0  0  0
  -19.1562  -28.8889   23.2849 C   0  0  0  0  0  0
  -18.9478  -30.1484   23.8875 C   0  0  0  0  0  0
  -17.6477  -30.6609   24.0561 C   0  0  0  0  0  0
  -25.9071  -34.9413   23.5061 C   0  0  0  0  0  0
  -16.5365  -29.9099   23.6347 C   0  0  0  0  0  0
  -16.7287  -28.6521   23.0355 C   0  0  0  0  0  0
  -26.4536  -31.6566   25.0705 C   0  0  0  0  0  0
  -25.3729  -31.3770   26.1411 C   0  0  0  0  0  0
  -27.0377  -30.2954   24.6275 C   0  0  0  0  0  0
  -27.6079  -32.4318   25.7483 C   0  0  0  0  0  0
  -27.5595  -37.1738   24.8439 C   0  0  0  0  0  0
  -21.4250  -29.3054   22.3606 N   0  0  0  0  0  0
  -26.4261  -37.3763   23.9450 N   0  0  0  0  0  0
  -24.7156  -31.0308   22.0934 N   0  0  0  0  0  0
  -23.4208  -28.8090   23.2991 O   0  0  0  0  0  0
  -28.2813  -26.1717   20.2281 O   0  0  0  0  0  0
  -26.5646  -34.8914   22.4632 O   0  0  0  0  0  0
  -23.5545  -32.1322   23.7124 O   0  0  0  0  0  0
  -30.0391  -19.9872   20.9346 C   0  0  0  0  0  0
  -28.8112  -18.0661   19.3312 C   0  0  0  0  0  0
  -29.1593  -20.5522   19.9466 C   0  0  0  0  0  0
  -29.6822  -17.5158   20.3342 C   0  0  0  0  0  0
  -30.2754  -18.5590   21.1335 C   0  0  0  0  0  0
  -28.5413  -19.4923   19.1742 C   0  0  0  0  0  0
  -28.4902  -23.3548   17.5972 C   0  0  0  0  0  0
  -28.5659  -24.7325   18.2795 C   0  0  0  0  0  0
  -29.4106  -22.3224   18.2740 C   0  0  0  0  0  0
  -28.8992  -23.3280   20.4473 C   0  0  0  0  0  0
  -28.1661  -24.6891   19.7682 C   0  0  1  0  0  0
  -28.1248  -17.0892   18.3791 C   0  0  0  0  0  0
  -28.9500  -22.0046   19.6297 N   0  0  0  0  0  0
  -29.6960  -16.0152   20.6447 N   0  0  0  0  0  0
  -31.3076  -18.0953   22.4388 Cl  0  0  0  0  0  0
  -27.3386  -19.9400   18.0024 Cl  0  0  0  0  0  0
  -31.4850  -12.7103   19.1831 H   0  0  0  0  0  0
  -30.4390  -11.5925   20.0094 H   0  0  0  0  0  0
  -29.8356  -11.7355   17.5693 H   0  0  0  0  0  0
  -29.6201  -13.4620   17.7044 H   0  0  0  0  0  0
  -27.9456  -11.2718   18.9684 H   0  0  0  0  0  0
  -27.3944  -12.4633   17.8185 H   0  0  0  0  0  0
  -27.6124  -14.2452   19.4348 H   0  0  0  0  0  0
  -28.7611  -12.2429   21.4419 H   0  0  0  0  0  0
  -28.3914  -13.9147   21.7826 H   0  0  0  0  0  0
  -25.2777   -9.5664   22.4754 H   0  0  0  0  0  0
  -24.0005   -7.4624   22.7458 H   0  0  0  0  0  0
  -21.0859   -8.8788   19.8948 H   0  0  0  0  0  0
  -22.3730  -10.9673   19.6156 H   0  0  0  0  0  0
  -21.2015   -7.6142   23.9720 H   0  0  0  0  0  0
  -21.1468   -6.0516   25.9079 H   0  0  0  0  0  0
  -22.0605   -2.7610   23.2849 H   0  0  0  0  0  0
  -22.4093  -11.9848   22.4799 H   0  0  0  0  0  0
  -21.1104  -13.1224   22.2646 H   0  0  0  0  0  0
  -24.6497  -15.8429   20.5368 H   0  0  0  0  0  0
  -26.2688  -15.6396   20.1081 H   0  0  0  0  0  0
  -26.7255  -32.5315   23.0990 H   0  0  0  0  0  0
  -25.0144  -33.9638   25.0371 H   0  0  0  0  0  0
  -22.7469  -31.2918   21.3824 H   0  0  0  0  0  0
  -23.3794  -35.9508   23.3209 H   0  0  0  0  0  0
  -24.3592  -36.8936   22.2060 H   0  0  0  0  0  0
  -23.7172  -37.6374   23.6708 H   0  0  0  0  0  0
  -26.1601  -31.4758   20.6214 H   0  0  0  0  0  0
  -26.8705  -30.7668   22.0345 H   0  0  0  0  0  0
  -28.1225  -28.7943   21.2484 H   0  0  0  0  0  0
  -25.9123  -25.8798   18.9423 H   0  0  0  0  0  0
  -23.9867  -27.3218   18.9515 H   0  0  0  0  0  0
  -23.8038  -30.5722   19.3967 H   0  0  0  0  0  0
  -22.7864  -29.2364   19.8435 H   0  0  0  0  0  0
  -25.1288  -36.1836   25.0796 H   0  0  0  0  0  0
  -21.0014  -28.3324   24.1355 H   0  0  0  0  0  0
  -20.5678  -26.2334   23.3614 H   0  0  0  0  0  0
  -21.6655  -26.7445   22.1203 H   0  0  0  0  0  0
  -19.6914  -25.6304   21.1247 H   0  0  0  0  0  0
  -19.6706  -27.3196   20.6725 H   0  0  0  0  0  0
  -17.4211  -26.6695   21.4027 H   0  0  0  0  0  0
  -18.0344  -26.0114   22.9034 H   0  0  0  0  0  0
  -19.7953  -30.7305   24.2238 H   0  0  0  0  0  0
  -17.5031  -31.6289   24.5172 H   0  0  0  0  0  0
  -15.5363  -30.2989   23.7697 H   0  0  0  0  0  0
  -15.8686  -28.0833   22.7083 H   0  0  0  0  0  0
  -24.5913  -30.7106   25.7743 H   0  0  0  0  0  0
  -24.8926  -32.2966   26.4766 H   0  0  0  0  0  0
  -25.8034  -30.8996   27.0225 H   0  0  0  0  0  0
  -26.2977  -29.6696   24.1274 H   0  0  0  0  0  0
  -27.3971  -29.7240   25.4842 H   0  0  0  0  0  0
  -27.8904  -30.4170   23.9592 H   0  0  0  0  0  0
  -27.2690  -33.3643   26.2007 H   0  0  0  0  0  0
  -28.3927  -32.6830   25.0335 H   0  0  0  0  0  0
  -28.0703  -31.8470   26.5447 H   0  0  0  0  0  0
  -28.2494  -38.0151   24.7676 H   0  0  0  0  0  0
  -28.1214  -36.2703   24.6020 H   0  0  0  0  0  0
  -27.2353  -37.1086   25.8838 H   0  0  0  0  0  0
  -20.9452  -29.8745   21.6773 H   0  0  0  0  0  0
  -26.0115  -38.2792   24.1595 H   0  0  0  0  0  0
  -30.5724  -20.6715   21.5770 H   0  0  0  0  0  0
  -28.7801  -23.4622   16.5511 H   0  0  0  0  0  0
  -27.4604  -22.9935   17.5865 H   0  0  0  0  0  0
  -27.9328  -25.4357   17.7388 H   0  0  0  0  0  0
  -29.5819  -25.1182   18.1905 H   0  0  0  0  0  0
  -30.4250  -22.7227   18.3315 H   0  0  0  0  0  0
  -29.4917  -21.4393   17.6407 H   0  0  0  0  0  0
  -28.4278  -23.1171   21.4079 H   0  0  0  0  0  0
  -29.9325  -23.5894   20.6819 H   0  0  0  0  0  0
  -27.1121  -24.4239   19.8208 H   0  0  0  0  0  0
  -28.6354  -16.1288   18.3265 H   0  0  0  0  0  0
  -28.1261  -17.4710   17.3584 H   0  0  0  0  0  0
  -27.0920  -16.9157   18.6785 H   0  0  0  0  0  0
  -28.7821  -15.6823   20.9084 H   0  0  0  0  0  0
  1 25  1  0  0  0
  1 30  2  0  0  0
  1 84  1  0  0  0
  2  3  1  0  0  0
  2 25  1  0  0  0
  2 87  1  0  0  0
  2 88  1  0  0  0
  3  4  1  0  0  0
  3 89  1  0  0  0
  3 90  1  0  0  0
  4  5  1  0  0  0
  4 91  1  0  0  0
  4 92  1  0  0  0
  5  6  1  0  0  0
  5 26  1  0  0  0
  5 93  1  0  0  0
  6 25  1  0  0  0
  6 94  1  0  0  0
  6 95  1  0  0  0
  7  8  2  0  0  0
  7 26  1  0  0  0
  7 29  1  0  0  0
  8  9  1  0  0  0
  8 22  1  0  0  0
  9 10  1  0  0  0
  9 27  2  0  0  0
 10 11  2  0  0  0
 10 15  1  0  0  0
 11 12  1  0  0  0
 11 96  1  0  0  0
 12 13  2  0  0  0
 12 97  1  0  0  0
 13 14  1  0  0  0
 13 31  1  0  0  0
 14 15  2  0  0  0
 14 98  1  0  0  0
 15 99  1  0  0  0
 16 17  2  0  0  0
 16 21  1  0  0  0
 16 31  1  0  0  0
 17 18  1  0  0  0
 17100  1  0  0  0
 18 19  2  0  0  0
 18101  1  0  0  0
 19 20  1  0  0  0
 19 24  1  0  0  0
 20 21  2  0  0  0
 20102  1  0  0  0
 21 23  1  0  0  0
 22 28  1  0  0  0
 22 32  2  0  0  0
 26 27  1  0  0  0
 28103  1  0  0  0
 28104  1  0  0  0
 29105  1  0  0  0
 29106  1  0  0  0
 33 34  1  0  0  0
 33 66  1  0  0  0
 33 70  2  0  0  0
 34 36  1  0  0  0
 34 59  1  0  0  0
 34107  1  0  0  0
 35 44  2  0  0  0
 35 45  1  0  0  0
 35 68  1  0  0  0
 36 56  1  0  0  0
 36108  1  0  0  0
 37 39  1  0  0  0
 37 47  1  0  0  0
 37 66  1  0  0  0
 37109  1  0  0  0
 38 43  2  0  0  0
 38 46  1  0  0  0
 38 47  1  0  0  0
 39 64  1  0  0  0
 39 67  2  0  0  0
 40 52  1  0  0  0
 40 53  2  0  0  0
 40 58  1  0  0  0
 41110  1  0  0  0
 41111  1  0  0  0
 41112  1  0  0  0
 41 48  1  0  0  0
 42 43  1  0  0  0
 42 66  1  0  0  0
 42113  1  0  0  0
 42114  1  0  0  0
 43 44  1  0  0  0
 44115  1  0  0  0
 45 46  2  0  0  0
 45116  1  0  0  0
 46117  1  0  0  0
 47118  1  0  0  0
 47119  1  0  0  0
 48 56  1  0  0  0
 48 65  1  0  0  0
 48120  1  0  0  0
 49 50  1  0  0  0
 49 53  1  0  0  0
 49 64  1  0  0  0
 49121  1  0  0  0
 50 51  1  0  0  0
 50122  1  0  0  0
 50123  1  0  0  0
 51 52  1  0  0  0
 51124  1  0  0  0
 51125  1  0  0  0
 52126  1  0  0  0
 52127  1  0  0  0
 53 54  1  0  0  0
 54 55  2  0  0  0
 54128  1  0  0  0
 55 57  1  0  0  0
 55129  1  0  0  0
 56 69  2  0  0  0
 57 58  2  0  0  0
 57130  1  0  0  0
 58131  1  0  0  0
 59 60  1  0  0  0
 59 61  1  0  0  0
 59 62  1  0  0  0
 60132  1  0  0  0
 60133  1  0  0  0
 60134  1  0  0  0
 61135  1  0  0  0
 61136  1  0  0  0
 61137  1  0  0  0
 62138  1  0  0  0
 62139  1  0  0  0
 62140  1  0  0  0
 63 65  1  0  0  0
 63141  1  0  0  0
 63142  1  0  0  0
 63143  1  0  0  0
 64144  1  0  0  0
 65145  1  0  0  0
 68 81  1  0  0  0
 71 73  2  0  0  0
 71 75  1  0  0  0
 71146  1  0  0  0
 72 74  1  0  0  0
 72 76  2  0  0  0
 72 82  1  0  0  0
 73 76  1  0  0  0
 73 83  1  0  0  0
 74 75  2  0  0  0
 74 84  1  0  0  0
 75 85  1  0  0  0
 76 86  1  0  0  0
 77 78  1  0  0  0
 77 79  1  0  0  0
 77147  1  0  0  0
 77148  1  0  0  0
 78 81  1  0  0  0
 78149  1  0  0  0
 78150  1  0  0  0
 79 83  1  0  0  0
 79151  1  0  0  0
 79152  1  0  0  0
 80 81  1  0  0  0
 80 83  1  0  0  0
 80153  1  0  0  0
 80154  1  0  0  0
 81155  1  0  0  0
 82156  1  0  0  0
 82157  1  0  0  0
 82158  1  0  0  0
 84159  1  0  0  0
M  ISO  4   1 100  68 101  81 101  84 100
M  END
> <chiral flag>
0

> <version>
0

> <s_m_source_file>
/data/baiqing/PycharmProjects/Reinvent-master-3.2/result/LINK_invent/BTK/process_docking_weight1_custom_product_contain_oxygen_bond_distance_aromatic_linkinvent_7_9_3/rearranged_h_0029.sdf

> <i_m_source_file_index>
56

> <r_mmod_Potential_Energy-OPLS-2005>
512.66796875

> <r_mmod_Stretch_Energy-OPLS-2005>
227.02165222168

> <r_mmod_Bend_Energy-OPLS-2005>
264.041015625

> <r_mmod_Torsional_Energy-OPLS-2005>
280.358367919922

> <r_mmod_Improper_Torsional_Energy-OPLS-2005>
8.3045015335083

> <r_mmod_Van_der_Waal_Energy-OPLS-2005>
139.994369506836

> <r_mmod_Electrostatic_Energy-OPLS-2005>
-356.829467773438

> <r_mmod_Solvation_Energy-OPLS-2005>
-223.371566772461

> <b_mmod_Minimization_Converged-OPLS-2005>
0

> <r_mmod_RMS_Derivative-OPLS-2005>
1.57957804203033

$$$$
56
                    3D
 Structure written by MMmdl.
160169  0  0  1  0            999 V2000
  -30.5871  -14.7421   20.4354 C   0  0  0  0  0  0
  -30.4439  -12.4185   19.5177 C   0  0  0  0  0  0
  -29.5311  -12.4037   18.2700 C   0  0  0  0  0  0
  -28.0391  -12.3256   18.6540 C   0  0  0  0  0  0
  -27.6499  -13.2292   19.8557 C   0  0  2  0  0  0
  -28.6857  -13.1500   20.9990 C   0  0  0  0  0  0
  -25.2549  -13.8228   20.5678 C   0  0  0  0  0  0
  -24.1820  -13.0473   20.9191 C   0  0  0  0  0  0
  -24.6391  -11.6950   20.8745 C   0  0  0  0  0  0
  -23.9064  -10.4315   21.0399 C   0  0  0  0  0  0
  -24.3625   -9.4226   21.9173 C   0  0  0  0  0  0
  -23.6314   -8.2248   22.0735 C   0  0  0  0  0  0
  -22.4298   -8.0267   21.3517 C   0  0  0  0  0  0
  -21.9930   -9.0249   20.4626 C   0  0  0  0  0  0
  -22.7243  -10.2145   20.3038 C   0  0  0  0  0  0
  -21.6873   -6.0729   22.5268 C   0  0  0  0  0  0
  -21.4033   -6.5636   23.8201 C   0  0  0  0  0  0
  -21.3664   -5.6792   24.9163 C   0  0  0  0  0  0
  -21.6054   -4.3052   24.7213 C   0  0  0  0  0  0
  -21.8824   -3.8136   23.4333 C   0  0  0  0  0  0
  -21.9199   -4.6953   22.3394 C   0  0  0  0  0  0
  -22.7840  -13.5243   21.1876 C   0  0  0  0  0  0
  -22.1665   -4.2131   21.0976 F   0  0  0  0  0  0
  -21.5641   -3.4546   25.7734 F   0  0  0  0  0  0
  -29.9921  -13.4990   20.4267 N   0  0  0  0  0  0
  -26.2971  -12.9424   20.3285 N   0  0  0  0  0  0
  -25.9316  -11.6571   20.5757 N   0  0  0  0  0  0
  -22.0509  -12.8165   22.0405 N   0  0  0  0  0  0
  -25.4264  -15.1953   20.4133 N   0  0  0  0  0  0
  -31.7596  -14.8666   20.0707 O   0  0  0  0  0  0
  -21.6653   -6.8870   21.4229 O   0  0  0  0  0  0
  -22.3496  -14.5552   20.6755 O   0  0  0  0  0  0
  -24.6278  -31.8560   23.1969 C   0  0  0  0  0  0
  -25.9108  -32.4759   23.8329 C   0  0  1  0  0  0
  -27.2336  -27.2765   20.1343 C   0  0  0  0  0  0
  -25.5908  -33.8564   24.2256 N   0  0  0  0  0  0
  -23.4246  -30.4738   21.5398 C   0  0  2  0  0  0
  -24.8738  -28.9170   20.1100 C   0  0  0  0  0  0
  -22.7485  -29.4597   22.4927 C   0  0  0  0  0  0
  -18.0289  -28.1379   22.8490 C   0  0  0  0  0  0
  -24.1492  -36.7292   23.2640 C   0  0  0  0  0  0
  -25.9656  -30.7755   21.3697 C   0  0  0  0  0  0
  -26.0395  -29.3955   20.7182 C   0  0  0  0  0  0
  -27.2156  -28.5852   20.7221 C   0  0  0  0  0  0
  -26.0442  -26.8550   19.4977 C   0  0  0  0  0  0
  -24.8802  -27.6551   19.4905 C   0  0  0  0  0  0
  -23.6402  -29.7989   20.1580 C   0  0  0  0  0  0
  -25.4117  -36.3082   24.0337 C   0  0  1  0  0  0
  -20.5886  -28.3695   23.1288 C   0  0  2  0  0  0
  -20.6772  -26.9412   22.5420 C   0  0  0  0  0  0
  -19.5749  -26.6381   21.5219 C   0  0  0  0  0  0
  -18.1928  -26.7924   22.1630 C   0  0  0  0  0  0
  -19.1539  -28.8856   23.2881 C   0  0  0  0  0  0
  -18.9458  -30.1455   23.8908 C   0  0  0  0  0  0
  -17.6453  -30.6584   24.0558 C   0  0  0  0  0  0
  -25.9054  -34.9448   23.5107 C   0  0  0  0  0  0
  -16.5346  -29.9080   23.6321 C   0  0  0  0  0  0
  -16.7275  -28.6488   23.0365 C   0  0  0  0  0  0
  -26.4470  -31.6574   25.0706 C   0  0  0  0  0  0
  -25.3692  -31.3711   26.1423 C   0  0  0  0  0  0
  -27.0309  -30.3001   24.6155 C   0  0  0  0  0  0
  -27.6041  -32.4296   25.7485 C   0  0  0  0  0  0
  -27.5584  -37.1792   24.8457 C   0  0  0  0  0  0
  -21.4195  -29.3043   22.3679 N   0  0  0  0  0  0
  -26.4290  -37.3780   23.9412 N   0  0  0  0  0  0
  -24.6919  -31.0541   22.0919 N   0  0  0  0  0  0
  -23.4197  -28.8169   23.3043 O   0  0  0  0  0  0
  -28.3704  -26.4489   20.2448 O   0  0  0  0  0  0
  -26.5645  -34.8926   22.4687 O   0  0  0  0  0  0
  -23.5432  -32.1389   23.7266 O   0  0  0  0  0  0
  -29.0668  -19.6563   18.6899 C   0  0  0  0  0  0
  -29.1989  -18.4441   17.9956 C   0  0  0  0  0  0
  -29.5409  -18.4517   20.7513 C   0  0  0  0  0  0
  -29.2430  -19.7192   20.0859 C   0  0  0  0  0  0
  -29.6788  -17.1720   20.0583 C   0  0  0  0  0  0
  -29.4913  -17.2312   18.6473 C   0  0  0  0  0  0
  -30.3815  -23.8538   18.3952 C   0  0  0  0  0  0
  -29.9303  -25.1689   19.0508 C   0  0  0  0  0  0
  -30.3982  -22.6835   19.3971 C   0  0  0  0  0  0
  -28.5090  -23.7455   20.6096 C   0  0  0  0  0  0
  -28.5303  -25.0735   19.6760 C   0  0  1  0  0  0
  -29.0231  -21.1312   20.8055 C   0  0  0  0  0  0
  -29.8073  -15.8496   20.7386 N   0  0  0  0  0  0
  -29.0532  -22.4400   19.9807 N   0  3  2  0  0  0
  -29.5020  -15.8364   17.6350 Cl  0  0  0  0  0  0
  -31.4870  -12.5380   19.2193 H   0  0  0  0  0  0
  -30.3957  -11.4582   20.0336 H   0  0  0  0  0  0
  -29.7849  -11.5466   17.6441 H   0  0  0  0  0  0
  -29.7246  -13.2709   17.6468 H   0  0  0  0  0  0
  -27.8316  -11.2840   18.8980 H   0  0  0  0  0  0
  -27.4165  -12.5619   17.7899 H   0  0  0  0  0  0
  -27.6547  -14.2531   19.4807 H   0  0  0  0  0  0
  -28.7119  -12.1481   21.4308 H   0  0  0  0  0  0
  -28.4158  -13.8213   21.8157 H   0  0  0  0  0  0
  -25.2763   -9.5744   22.4750 H   0  0  0  0  0  0
  -24.0051   -7.4658   22.7456 H   0  0  0  0  0  0
  -21.0867   -8.8753   19.8932 H   0  0  0  0  0  0
  -22.3671  -10.9683   19.6156 H   0  0  0  0  0  0
  -21.2024   -7.6148   23.9699 H   0  0  0  0  0  0
  -21.1490   -6.0518   25.9075 H   0  0  0  0  0  0
  -22.0595   -2.7592   23.2837 H   0  0  0  0  0  0
  -22.4184  -11.9831   22.4763 H   0  0  0  0  0  0
  -21.1113  -13.1130   22.2629 H   0  0  0  0  0  0
  -24.6622  -15.8483   20.5392 H   0  0  0  0  0  0
  -26.2784  -15.6394   20.0968 H   0  0  0  0  0  0
  -26.7175  -32.5416   23.1082 H   0  0  0  0  0  0
  -25.0007  -33.9702   25.0367 H   0  0  0  0  0  0
  -22.7193  -31.2932   21.3910 H   0  0  0  0  0  0
  -23.3767  -35.9608   23.3274 H   0  0  0  0  0  0
  -24.3588  -36.8939   22.2058 H   0  0  0  0  0  0
  -23.7219  -37.6474   23.6690 H   0  0  0  0  0  0
  -26.0930  -31.5296   20.5915 H   0  0  0  0  0  0
  -26.8466  -30.8355   21.9963 H   0  0  0  0  0  0
  -28.1073  -28.9460   21.2155 H   0  0  0  0  0  0
  -25.9704  -25.8865   19.0293 H   0  0  0  0  0  0
  -23.9840  -27.2798   19.0153 H   0  0  0  0  0  0
  -23.7554  -30.5696   19.3950 H   0  0  0  0  0  0
  -22.7603  -29.2232   19.8638 H   0  0  0  0  0  0
  -25.1284  -36.1935   25.0826 H   0  0  0  0  0  0
  -20.9976  -28.3276   24.1412 H   0  0  0  0  0  0
  -20.5678  -26.2305   23.3624 H   0  0  0  0  0  0
  -21.6643  -26.7440   22.1220 H   0  0  0  0  0  0
  -19.6911  -25.6295   21.1254 H   0  0  0  0  0  0
  -19.6681  -27.3189   20.6753 H   0  0  0  0  0  0
  -17.4197  -26.6686   21.4027 H   0  0  0  0  0  0
  -18.0312  -26.0059   22.9018 H   0  0  0  0  0  0
  -19.7925  -30.7259   24.2304 H   0  0  0  0  0  0
  -17.5005  -31.6275   24.5139 H   0  0  0  0  0  0
  -15.5349  -30.2985   23.7635 H   0  0  0  0  0  0
  -15.8674  -28.0797   22.7105 H   0  0  0  0  0  0
  -24.5878  -30.7048   25.7735 H   0  0  0  0  0  0
  -24.8860  -32.2869   26.4838 H   0  0  0  0  0  0
  -25.7998  -30.8890   27.0206 H   0  0  0  0  0  0
  -26.2878  -29.6760   24.1168 H   0  0  0  0  0  0
  -27.3989  -29.7246   25.4652 H   0  0  0  0  0  0
  -27.8760  -30.4283   23.9390 H   0  0  0  0  0  0
  -27.2665  -33.3594   26.2080 H   0  0  0  0  0  0
  -28.3850  -32.6841   25.0307 H   0  0  0  0  0  0
  -28.0717  -31.8395   26.5376 H   0  0  0  0  0  0
  -28.2573  -38.0117   24.7546 H   0  0  0  0  0  0
  -28.1110  -36.2647   24.6239 H   0  0  0  0  0  0
  -27.2313  -37.1384   25.8861 H   0  0  0  0  0  0
  -20.9383  -29.8760   21.6876 H   0  0  0  0  0  0
  -26.0172  -38.2856   24.1421 H   0  0  0  0  0  0
  -28.8055  -20.5347   18.1189 H   0  0  0  0  0  0
  -29.0333  -18.4376   16.9276 H   0  0  0  0  0  0
  -29.6336  -18.4597   21.8287 H   0  0  0  0  0  0
  -31.3838  -23.9862   17.9850 H   0  0  0  0  0  0
  -29.7368  -23.6172   17.5478 H   0  0  0  0  0  0
  -29.9413  -25.9707   18.3120 H   0  0  0  0  0  0
  -30.6500  -25.4499   19.8219 H   0  0  0  0  0  0
  -31.1073  -22.8891   20.1993 H   0  0  0  0  0  0
  -30.7669  -21.7915   18.8887 H   0  0  0  0  0  0
  -27.4871  -23.5721   20.9474 H   0  0  0  0  0  0
  -29.0919  -23.9450   21.5094 H   0  0  0  0  0  0
  -27.8366  -24.9190   18.8509 H   0  0  0  0  0  0
  -29.7589  -21.2125   21.6065 H   0  0  0  0  0  0
  -28.0532  -21.0785   21.3001 H   0  0  0  0  0  0
  -28.9927  -15.6081   21.2825 H   0  0  0  0  0  0
  -28.4411  -22.2518   19.2019 H   0  0  0  0  0  0
  1 25  1  0  0  0
  1 30  2  0  0  0
  1 83  1  0  0  0
  2  3  1  0  0  0
  2 25  1  0  0  0
  2 86  1  0  0  0
  2 87  1  0  0  0
  3  4  1  0  0  0
  3 88  1  0  0  0
  3 89  1  0  0  0
  4  5  1  0  0  0
  4 90  1  0  0  0
  4 91  1  0  0  0
  5  6  1  0  0  0
  5 26  1  0  0  0
  5 92  1  0  0  0
  6 25  1  0  0  0
  6 93  1  0  0  0
  6 94  1  0  0  0
  7  8  2  0  0  0
  7 26  1  0  0  0
  7 29  1  0  0  0
  8  9  1  0  0  0
  8 22  1  0  0  0
  9 10  1  0  0  0
  9 27  2  0  0  0
 10 11  2  0  0  0
 10 15  1  0  0  0
 11 12  1  0  0  0
 11 95  1  0  0  0
 12 13  2  0  0  0
 12 96  1  0  0  0
 13 14  1  0  0  0
 13 31  1  0  0  0
 14 15  2  0  0  0
 14 97  1  0  0  0
 15 98  1  0  0  0
 16 17  2  0  0  0
 16 21  1  0  0  0
 16 31  1  0  0  0
 17 18  1  0  0  0
 17 99  1  0  0  0
 18 19  2  0  0  0
 18100  1  0  0  0
 19 20  1  0  0  0
 19 24  1  0  0  0
 20 21  2  0  0  0
 20101  1  0  0  0
 21 23  1  0  0  0
 22 28  1  0  0  0
 22 32  2  0  0  0
 26 27  1  0  0  0
 28102  1  0  0  0
 28103  1  0  0  0
 29104  1  0  0  0
 29105  1  0  0  0
 33 34  1  0  0  0
 33 66  1  0  0  0
 33 70  2  0  0  0
 34 36  1  0  0  0
 34 59  1  0  0  0
 34106  1  0  0  0
 35 44  2  0  0  0
 35 45  1  0  0  0
 35 68  1  0  0  0
 36 56  1  0  0  0
 36107  1  0  0  0
 37 39  1  0  0  0
 37 47  1  0  0  0
 37 66  1  0  0  0
 37108  1  0  0  0
 38 43  2  0  0  0
 38 46  1  0  0  0
 38 47  1  0  0  0
 39 64  1  0  0  0
 39 67  2  0  0  0
 40 52  1  0  0  0
 40 53  2  0  0  0
 40 58  1  0  0  0
 41109  1  0  0  0
 41110  1  0  0  0
 41111  1  0  0  0
 41 48  1  0  0  0
 42 43  1  0  0  0
 42 66  1  0  0  0
 42112  1  0  0  0
 42113  1  0  0  0
 43 44  1  0  0  0
 44114  1  0  0  0
 45 46  2  0  0  0
 45115  1  0  0  0
 46116  1  0  0  0
 47117  1  0  0  0
 47118  1  0  0  0
 48 56  1  0  0  0
 48 65  1  0  0  0
 48119  1  0  0  0
 49 50  1  0  0  0
 49 53  1  0  0  0
 49 64  1  0  0  0
 49120  1  0  0  0
 50 51  1  0  0  0
 50121  1  0  0  0
 50122  1  0  0  0
 51 52  1  0  0  0
 51123  1  0  0  0
 51124  1  0  0  0
 52125  1  0  0  0
 52126  1  0  0  0
 53 54  1  0  0  0
 54 55  2  0  0  0
 54127  1  0  0  0
 55 57  1  0  0  0
 55128  1  0  0  0
 56 69  2  0  0  0
 57 58  2  0  0  0
 57129  1  0  0  0
 58130  1  0  0  0
 59 60  1  0  0  0
 59 61  1  0  0  0
 59 62  1  0  0  0
 60131  1  0  0  0
 60132  1  0  0  0
 60133  1  0  0  0
 61134  1  0  0  0
 61135  1  0  0  0
 61136  1  0  0  0
 62137  1  0  0  0
 62138  1  0  0  0
 62139  1  0  0  0
 63 65  1  0  0  0
 63140  1  0  0  0
 63141  1  0  0  0
 63142  1  0  0  0
 64143  1  0  0  0
 65144  1  0  0  0
 68 81  1  0  0  0
 71 72  2  0  0  0
 71 74  1  0  0  0
 71145  1  0  0  0
 72 76  1  0  0  0
 72146  1  0  0  0
 73 74  2  0  0  0
 73 75  1  0  0  0
 73147  1  0  0  0
 74 82  1  0  0  0
 75 76  2  0  0  0
 75 83  1  0  0  0
 76 85  1  0  0  0
 77 78  1  0  0  0
 77 79  1  0  0  0
 77148  1  0  0  0
 77149  1  0  0  0
 78 81  1  0  0  0
 78150  1  0  0  0
 78151  1  0  0  0
 79 84  1  0  0  0
 79152  1  0  0  0
 79153  1  0  0  0
 80 81  1  0  0  0
 80 84  1  0  0  0
 80154  1  0  0  0
 80155  1  0  0  0
 81156  1  0  0  0
 82157  1  0  0  0
 82158  1  0  0  0
 82 84  1  0  0  0
 83159  1  0  0  0
 84160  1  0  0  0
M  CHG  1  84   1
M  ISO  4   1 100  68 101  81 101  83 100
M  END
> <chiral flag>
0

> <version>
0

> <s_m_source_file>
/data/baiqing/PycharmProjects/Reinvent-master-3.2/result/LINK_invent/BTK/process_docking_weight1_custom_product_contain_oxygen_bond_distance_aromatic_linkinvent_7_9_3/rearranged_h_0029.sdf

> <i_m_source_file_index>
57

> <r_mmod_Potential_Energy-OPLS-2005>
89.0233535766602

> <r_mmod_Stretch_Energy-OPLS-2005>
125.863822937012

> <r_mmod_Bend_Energy-OPLS-2005>
176.275329589844

> <r_mmod_Torsional_Energy-OPLS-2005>
270.082702636719

> <r_mmod_Improper_Torsional_Energy-OPLS-2005>
5.40136480331421

> <r_mmod_Van_der_Waal_Energy-OPLS-2005>
138.366912841797

> <r_mmod_Electrostatic_Energy-OPLS-2005>
-257.299194335938

> <r_mmod_Solvation_Energy-OPLS-2005>
-451.174102783203

> <b_mmod_Minimization_Converged-OPLS-2005>
0

> <r_mmod_RMS_Derivative-OPLS-2005>
2.51684975624084

$$$$
57
                    3D
 Structure written by MMmdl.
151160  0  0  1  0            999 V2000
  -30.4413  -15.3318   20.3191 C   0  0  0  0  0  0
  -30.4262  -12.8418   19.5670 C   0  0  0  0  0  0
  -29.5461  -12.5855   18.3167 C   0  0  0  0  0  0
  -28.0970  -12.2949   18.7356 C   0  0  0  0  0  0
  -27.6036  -13.2893   19.8144 C   0  0  2  0  0  0
  -28.6197  -13.5215   20.9516 C   0  0  0  0  0  0
  -25.2369  -13.8271   20.5748 C   0  0  0  0  0  0
  -24.1741  -13.0445   20.9247 C   0  0  0  0  0  0
  -24.6408  -11.6941   20.8749 C   0  0  0  0  0  0
  -23.9111  -10.4295   21.0399 C   0  0  0  0  0  0
  -24.3650   -9.4213   21.9188 C   0  0  0  0  0  0
  -23.6314   -8.2257   22.0755 C   0  0  0  0  0  0
  -22.4295   -8.0291   21.3543 C   0  0  0  0  0  0
  -21.9940   -9.0270   20.4644 C   0  0  0  0  0  0
  -22.7277  -10.2143   20.3054 C   0  0  0  0  0  0
  -21.6869   -6.0746   22.5281 C   0  0  0  0  0  0
  -21.4017   -6.5648   23.8213 C   0  0  0  0  0  0
  -21.3650   -5.6799   24.9174 C   0  0  0  0  0  0
  -21.6042   -4.3063   24.7225 C   0  0  0  0  0  0
  -21.8816   -3.8155   23.4344 C   0  0  0  0  0  0
  -21.9187   -4.6971   22.3403 C   0  0  0  0  0  0
  -22.7756  -13.5187   21.1899 C   0  0  0  0  0  0
  -22.1662   -4.2157   21.0983 F   0  0  0  0  0  0
  -21.5618   -3.4547   25.7737 F   0  0  0  0  0  0
  -29.8623  -14.0204   20.3407 N   0  0  0  0  0  0
  -26.2787  -12.9578   20.3183 N   0  0  0  0  0  0
  -25.9343  -11.6669   20.5695 N   0  0  0  0  0  0
  -22.0417  -12.8160   22.0440 N   0  0  0  0  0  0
  -25.4034  -15.2013   20.4221 N   0  0  0  0  0  0
  -31.6595  -15.2474   20.0946 O   0  0  0  0  0  0
  -21.6653   -6.8894   21.4243 O   0  0  0  0  0  0
  -22.3416  -14.5488   20.6739 O   0  0  0  0  0  0
  -24.6642  -31.8225   23.1651 C   0  0  0  0  0  0
  -25.9319  -32.4568   23.8127 C   0  0  1  0  0  0
  -27.2095  -26.8946   20.1945 C   0  0  0  0  0  0
  -25.6008  -33.8387   24.2058 N   0  0  0  0  0  0
  -23.4790  -30.4320   21.5152 C   0  0  2  0  0  0
  -24.9304  -28.8104   20.1123 C   0  0  0  0  0  0
  -22.7668  -29.4447   22.4771 C   0  0  0  0  0  0
  -18.0318  -28.1421   22.8467 C   0  0  0  0  0  0
  -24.1512  -36.7189   23.2658 C   0  0  0  0  0  0
  -26.0484  -30.6190   21.3952 C   0  0  0  0  0  0
  -26.1151  -29.2028   20.7472 C   0  0  0  0  0  0
  -27.2497  -28.2679   20.7601 C   0  0  0  0  0  0
  -25.9980  -26.6641   19.5049 C   0  0  0  0  0  0
  -24.8989  -27.5623   19.4695 C   0  0  0  0  0  0
  -23.7184  -29.7425   20.1434 C   0  0  0  0  0  0
  -25.4155  -36.2956   24.0307 C   0  0  1  0  0  0
  -20.5940  -28.3771   23.1184 C   0  0  2  0  0  0
  -20.6799  -26.9453   22.5408 C   0  0  0  0  0  0
  -19.5779  -26.6390   21.5222 C   0  0  0  0  0  0
  -18.1949  -26.7958   22.1618 C   0  0  0  0  0  0
  -19.1577  -28.8919   23.2815 C   0  0  0  0  0  0
  -18.9499  -30.1506   23.8866 C   0  0  0  0  0  0
  -17.6493  -30.6614   24.0566 C   0  0  0  0  0  0
  -25.9105  -34.9340   23.4995 C   0  0  0  0  0  0
  -16.5383  -29.9100   23.6347 C   0  0  0  0  0  0
  -16.7302  -28.6517   23.0367 C   0  0  0  0  0  0
  -26.4560  -31.6505   25.0646 C   0  0  0  0  0  0
  -25.3688  -31.3777   26.1315 C   0  0  0  0  0  0
  -27.0394  -30.2851   24.6363 C   0  0  0  0  0  0
  -27.6092  -32.4282   25.7410 C   0  0  0  0  0  0
  -27.5531  -37.1825   24.8515 C   0  0  0  0  0  0
  -21.4333  -29.3066   22.3533 N   0  0  0  0  0  0
  -26.4325  -37.3669   23.9342 N   0  0  0  0  0  0
  -24.7526  -30.9852   22.0788 N   0  0  0  0  0  0
  -23.4208  -28.8016   23.3025 O   0  0  0  0  0  0
  -28.2102  -25.7804   20.2698 O   0  0  0  0  0  0
  -26.5693  -34.8892   22.4576 O   0  0  0  0  0  0
  -23.5708  -32.1209   23.6723 O   0  0  0  0  0  0
  -30.1397  -17.9494   19.3201 C   0  0  0  0  0  0
  -28.7159  -19.1652   21.2420 C   0  0  0  0  0  0
  -29.8129  -16.9223   20.3113 C   0  0  0  0  0  0
  -29.7672  -19.4008   19.2636 C   0  0  0  0  0  0
  -29.0273  -20.2167   20.2483 C   0  0  0  0  0  0
  -29.0458  -17.6951   21.2931 C   0  0  0  0  0  0
  -28.3415  -22.9088   21.2540 C   0  0  0  0  0  0
  -28.8234  -22.9973   19.2783 C   0  0  0  0  0  0
  -28.0014  -24.1229   20.1718 C   0  0  0  0  0  0
  -30.2185  -20.1013   17.9888 C   0  0  0  0  0  0
  -28.5832  -21.8073   20.2135 N   0  0  0  0  0  0
  -28.4745  -16.8451   22.6837 Cl  0  0  0  0  0  0
  -31.4541  -13.0134   19.2467 H   0  0  0  0  0  0
  -30.4722  -11.9523   20.1978 H   0  0  0  0  0  0
  -29.9448  -11.7545   17.7345 H   0  0  0  0  0  0
  -29.5748  -13.4615   17.6669 H   0  0  0  0  0  0
  -28.0712  -11.2812   19.1371 H   0  0  0  0  0  0
  -27.4339  -12.2990   17.8701 H   0  0  0  0  0  0
  -27.5054  -14.2410   19.2899 H   0  0  0  0  0  0
  -28.7867  -12.6159   21.5359 H   0  0  0  0  0  0
  -28.2329  -14.2659   21.6470 H   0  0  0  0  0  0
  -25.2787   -9.5688   22.4766 H   0  0  0  0  0  0
  -24.0010   -7.4651   22.7485 H   0  0  0  0  0  0
  -21.0868   -8.8791   19.8957 H   0  0  0  0  0  0
  -22.3734  -10.9681   19.6161 H   0  0  0  0  0  0
  -21.2019   -7.6161   23.9717 H   0  0  0  0  0  0
  -21.1467   -6.0537   25.9077 H   0  0  0  0  0  0
  -22.0593   -2.7621   23.2850 H   0  0  0  0  0  0
  -22.4054  -11.9816   22.4819 H   0  0  0  0  0  0
  -21.1012  -13.1152   22.2634 H   0  0  0  0  0  0
  -24.6470  -15.8596   20.5657 H   0  0  0  0  0  0
  -26.2686  -15.6467   20.1462 H   0  0  0  0  0  0
  -26.7382  -32.5093   23.0833 H   0  0  0  0  0  0
  -25.0227  -33.9478   25.0261 H   0  0  0  0  0  0
  -22.7949  -31.2655   21.3411 H   0  0  0  0  0  0
  -23.3719  -35.9593   23.3485 H   0  0  0  0  0  0
  -24.3536  -36.8626   22.2033 H   0  0  0  0  0  0
  -23.7379  -37.6487   23.6578 H   0  0  0  0  0  0
  -26.2243  -31.3496   20.6039 H   0  0  0  0  0  0
  -26.9124  -30.6864   22.0442 H   0  0  0  0  0  0
  -28.1465  -28.5683   21.2841 H   0  0  0  0  0  0
  -25.8617  -25.7147   19.0079 H   0  0  0  0  0  0
  -24.0015  -27.2572   18.9491 H   0  0  0  0  0  0
  -23.8766  -30.5088   19.3847 H   0  0  0  0  0  0
  -22.8267  -29.2003   19.8254 H   0  0  0  0  0  0
  -25.1378  -36.1786   25.0810 H   0  0  0  0  0  0
  -21.0044  -28.3390   24.1303 H   0  0  0  0  0  0
  -20.5690  -26.2397   23.3652 H   0  0  0  0  0  0
  -21.6659  -26.7442   22.1210 H   0  0  0  0  0  0
  -19.6952  -25.6290   21.1271 H   0  0  0  0  0  0
  -19.6706  -27.3191   20.6741 H   0  0  0  0  0  0
  -17.4219  -26.6711   21.4016 H   0  0  0  0  0  0
  -18.0347  -26.0103   22.9016 H   0  0  0  0  0  0
  -19.7982  -30.7328   24.2217 H   0  0  0  0  0  0
  -17.5048  -31.6291   24.5175 H   0  0  0  0  0  0
  -15.5387  -30.3000   23.7697 H   0  0  0  0  0  0
  -15.8695  -28.0833   22.7113 H   0  0  0  0  0  0
  -24.5916  -30.7066   25.7631 H   0  0  0  0  0  0
  -24.8829  -32.2980   26.4580 H   0  0  0  0  0  0
  -25.7927  -30.9063   27.0193 H   0  0  0  0  0  0
  -26.3023  -29.6572   24.1345 H   0  0  0  0  0  0
  -27.3877  -29.7182   25.5007 H   0  0  0  0  0  0
  -27.9004  -30.3980   23.9767 H   0  0  0  0  0  0
  -27.2743  -33.3701   26.1775 H   0  0  0  0  0  0
  -28.3996  -32.6638   25.0260 H   0  0  0  0  0  0
  -28.0649  -31.8516   26.5475 H   0  0  0  0  0  0
  -28.2740  -37.9909   24.7225 H   0  0  0  0  0  0
  -28.0815  -36.2441   24.6786 H   0  0  0  0  0  0
  -27.2192  -37.2004   25.8905 H   0  0  0  0  0  0
  -20.9593  -29.8749   21.6656 H   0  0  0  0  0  0
  -26.0177  -38.2774   24.1134 H   0  0  0  0  0  0
  -30.7421  -17.5901   18.4963 H   0  0  0  0  0  0
  -28.1330  -19.5154   22.0832 H   0  0  0  0  0  0
  -27.5079  -22.6890   21.9229 H   0  0  0  0  0  0
  -29.2433  -23.1091   21.8369 H   0  0  0  0  0  0
  -29.8873  -23.2244   19.1926 H   0  0  0  0  0  0
  -28.3846  -22.8585   18.2899 H   0  0  0  0  0  0
  -26.9465  -24.0013   19.9294 H   0  0  0  0  0  0
  -30.1911  -19.4114   17.1438 H   0  0  0  0  0  0
  -31.2394  -20.4722   18.0848 H   0  0  0  0  0  0
  -29.5697  -20.9340   17.7232 H   0  0  0  0  0  0
  1 25  1  0  0  0
  1 30  2  0  0  0
  1 73  1  0  0  0
  2  3  1  0  0  0
  2 25  1  0  0  0
  2 83  1  0  0  0
  2 84  1  0  0  0
  3  4  1  0  0  0
  3 85  1  0  0  0
  3 86  1  0  0  0
  4  5  1  0  0  0
  4 87  1  0  0  0
  4 88  1  0  0  0
  5  6  1  0  0  0
  5 26  1  0  0  0
  5 89  1  0  0  0
  6 25  1  0  0  0
  6 90  1  0  0  0
  6 91  1  0  0  0
  7  8  2  0  0  0
  7 26  1  0  0  0
  7 29  1  0  0  0
  8  9  1  0  0  0
  8 22  1  0  0  0
  9 10  1  0  0  0
  9 27  2  0  0  0
 10 11  2  0  0  0
 10 15  1  0  0  0
 11 12  1  0  0  0
 11 92  1  0  0  0
 12 13  2  0  0  0
 12 93  1  0  0  0
 13 14  1  0  0  0
 13 31  1  0  0  0
 14 15  2  0  0  0
 14 94  1  0  0  0
 15 95  1  0  0  0
 16 17  2  0  0  0
 16 21  1  0  0  0
 16 31  1  0  0  0
 17 18  1  0  0  0
 17 96  1  0  0  0
 18 19  2  0  0  0
 18 97  1  0  0  0
 19 20  1  0  0  0
 19 24  1  0  0  0
 20 21  2  0  0  0
 20 98  1  0  0  0
 21 23  1  0  0  0
 22 28  1  0  0  0
 22 32  2  0  0  0
 26 27  1  0  0  0
 28 99  1  0  0  0
 28100  1  0  0  0
 29101  1  0  0  0
 29102  1  0  0  0
 33 34  1  0  0  0
 33 66  1  0  0  0
 33 70  2  0  0  0
 34 36  1  0  0  0
 34 59  1  0  0  0
 34103  1  0  0  0
 35 44  2  0  0  0
 35 45  1  0  0  0
 35 68  1  0  0  0
 36 56  1  0  0  0
 36104  1  0  0  0
 37 39  1  0  0  0
 37 47  1  0  0  0
 37 66  1  0  0  0
 37105  1  0  0  0
 38 43  2  0  0  0
 38 46  1  0  0  0
 38 47  1  0  0  0
 39 64  1  0  0  0
 39 67  2  0  0  0
 40 52  1  0  0  0
 40 53  2  0  0  0
 40 58  1  0  0  0
 41106  1  0  0  0
 41107  1  0  0  0
 41108  1  0  0  0
 41 48  1  0  0  0
 42 43  1  0  0  0
 42 66  1  0  0  0
 42109  1  0  0  0
 42110  1  0  0  0
 43 44  1  0  0  0
 44111  1  0  0  0
 45 46  2  0  0  0
 45112  1  0  0  0
 46113  1  0  0  0
 47114  1  0  0  0
 47115  1  0  0  0
 48 56  1  0  0  0
 48 65  1  0  0  0
 48116  1  0  0  0
 49 50  1  0  0  0
 49 53  1  0  0  0
 49 64  1  0  0  0
 49117  1  0  0  0
 50 51  1  0  0  0
 50118  1  0  0  0
 50119  1  0  0  0
 51 52  1  0  0  0
 51120  1  0  0  0
 51121  1  0  0  0
 52122  1  0  0  0
 52123  1  0  0  0
 53 54  1  0  0  0
 54 55  2  0  0  0
 54124  1  0  0  0
 55 57  1  0  0  0
 55125  1  0  0  0
 56 69  2  0  0  0
 57 58  2  0  0  0
 57126  1  0  0  0
 58127  1  0  0  0
 59 60  1  0  0  0
 59 61  1  0  0  0
 59 62  1  0  0  0
 60128  1  0  0  0
 60129  1  0  0  0
 60130  1  0  0  0
 61131  1  0  0  0
 61132  1  0  0  0
 61133  1  0  0  0
 62134  1  0  0  0
 62135  1  0  0  0
 62136  1  0  0  0
 63 65  1  0  0  0
 63137  1  0  0  0
 63138  1  0  0  0
 63139  1  0  0  0
 64140  1  0  0  0
 65141  1  0  0  0
 68 79  1  0  0  0
 71 73  2  0  0  0
 71 74  1  0  0  0
 71142  1  0  0  0
 72 75  1  0  0  0
 72 76  2  0  0  0
 72143  1  0  0  0
 73 76  1  0  0  0
 74 75  2  0  0  0
 74 80  1  0  0  0
 75 81  1  0  0  0
 76 82  1  0  0  0
 77 79  1  0  0  0
 77 81  1  0  0  0
 77144  1  0  0  0
 77145  1  0  0  0
 78 79  1  0  0  0
 78 81  1  0  0  0
 78146  1  0  0  0
 78147  1  0  0  0
 79148  1  0  0  0
 80149  1  0  0  0
 80150  1  0  0  0
 80151  1  0  0  0
M  ISO  4   1 100  68 101  73 100  79 101
M  END
> <chiral flag>
0

> <version>
0

> <s_m_source_file>
/data/baiqing/PycharmProjects/Reinvent-master-3.2/result/LINK_invent/BTK/process_docking_weight1_custom_product_contain_oxygen_bond_distance_aromatic_linkinvent_7_9_3/rearranged_h_0029.sdf

> <i_m_source_file_index>
58

> <r_mmod_Potential_Energy-OPLS-2005>
1457.1396484375

> <r_mmod_Stretch_Energy-OPLS-2005>
532.151428222656

> <r_mmod_Bend_Energy-OPLS-2005>
558.365905761719

> <r_mmod_Torsional_Energy-OPLS-2005>
225.694732666016

> <r_mmod_Improper_Torsional_Energy-OPLS-2005>
8.09228515625

> <r_mmod_Van_der_Waal_Energy-OPLS-2005>
129.867462158203

> <r_mmod_Electrostatic_Energy-OPLS-2005>
-303.262329101562

> <r_mmod_Solvation_Energy-OPLS-2005>
-209.250961303711

> <b_mmod_Minimization_Converged-OPLS-2005>
0

> <r_mmod_RMS_Derivative-OPLS-2005>
3.14447236061096

$$$$
58
                    3D
 Structure written by MMmdl.
163172  0  0  1  0            999 V2000
  -30.6334  -14.7921   20.2953 C   0  0  0  0  0  0
  -30.4385  -12.4454   19.4743 C   0  0  0  0  0  0
  -29.5109  -12.3342   18.2454 C   0  0  0  0  0  0
  -28.0220  -12.2737   18.6578 C   0  0  0  0  0  0
  -27.6231  -13.2171   19.8310 C   0  0  2  0  0  0
  -28.6916  -13.2523   20.9405 C   0  0  0  0  0  0
  -25.2480  -13.8150   20.5769 C   0  0  0  0  0  0
  -24.1761  -13.0416   20.9263 C   0  0  0  0  0  0
  -24.6339  -11.6888   20.8821 C   0  0  0  0  0  0
  -23.9025  -10.4271   21.0443 C   0  0  0  0  0  0
  -24.3597   -9.4186   21.9200 C   0  0  0  0  0  0
  -23.6283   -8.2214   22.0748 C   0  0  0  0  0  0
  -22.4264   -8.0253   21.3540 C   0  0  0  0  0  0
  -21.9903   -9.0221   20.4642 C   0  0  0  0  0  0
  -22.7216  -10.2113   20.3067 C   0  0  0  0  0  0
  -21.6842   -6.0716   22.5274 C   0  0  0  0  0  0
  -21.4003   -6.5623   23.8205 C   0  0  0  0  0  0
  -21.3675   -5.6783   24.9175 C   0  0  0  0  0  0
  -21.6057   -4.3044   24.7225 C   0  0  0  0  0  0
  -21.8821   -3.8129   23.4344 C   0  0  0  0  0  0
  -21.9188   -4.6947   22.3400 C   0  0  0  0  0  0
  -22.7788  -13.5210   21.1887 C   0  0  0  0  0  0
  -22.1653   -4.2132   21.0976 F   0  0  0  0  0  0
  -21.5650   -3.4532   25.7742 F   0  0  0  0  0  0
  -29.9685  -13.5816   20.2932 N   0  0  0  0  0  0
  -26.2873  -12.9304   20.3361 N   0  0  0  0  0  0
  -25.9264  -11.6477   20.5883 N   0  0  0  0  0  0
  -22.0416  -12.8206   22.0434 N   0  0  0  0  0  0
  -25.4210  -15.1878   20.4193 N   0  0  0  0  0  0
  -31.8651  -14.7793   20.3336 O   0  0  0  0  0  0
  -21.6626   -6.8853   21.4232 O   0  0  0  0  0  0
  -22.3491  -14.5514   20.6718 O   0  0  0  0  0  0
  -24.6301  -31.8583   23.1996 C   0  0  0  0  0  0
  -25.9131  -32.4771   23.8350 C   0  0  1  0  0  0
  -27.2206  -27.2737   20.1318 C   0  0  0  0  0  0
  -25.5924  -33.8575   24.2270 N   0  0  0  0  0  0
  -23.4267  -30.4802   21.5434 C   0  0  2  0  0  0
  -24.8745  -28.9327   20.1085 C   0  0  0  0  0  0
  -22.7505  -29.4609   22.4926 C   0  0  0  0  0  0
  -18.0295  -28.1382   22.8495 C   0  0  0  0  0  0
  -24.1482  -36.7289   23.2635 C   0  0  0  0  0  0
  -25.9719  -30.7749   21.3791 C   0  0  0  0  0  0
  -26.0447  -29.3985   20.7211 C   0  0  0  0  0  0
  -27.2189  -28.5810   20.7236 C   0  0  0  0  0  0
  -26.0300  -26.8841   19.4733 C   0  0  0  0  0  0
  -24.8725  -27.6837   19.4725 C   0  0  0  0  0  0
  -23.6439  -29.8154   20.1589 C   0  0  0  0  0  0
  -25.4107  -36.3082   24.0330 C   0  0  1  0  0  0
  -20.5900  -28.3697   23.1279 C   0  0  2  0  0  0
  -20.6784  -26.9418   22.5410 C   0  0  0  0  0  0
  -19.5752  -26.6383   21.5224 C   0  0  0  0  0  0
  -18.1934  -26.7927   22.1633 C   0  0  0  0  0  0
  -19.1549  -28.8856   23.2881 C   0  0  0  0  0  0
  -18.9465  -30.1456   23.8900 C   0  0  0  0  0  0
  -17.6462  -30.6588   24.0561 C   0  0  0  0  0  0
  -25.9049  -34.9452   23.5105 C   0  0  0  0  0  0
  -16.5354  -29.9083   23.6329 C   0  0  0  0  0  0
  -16.7279  -28.6495   23.0365 C   0  0  0  0  0  0
  -26.4489  -31.6593   25.0741 C   0  0  0  0  0  0
  -25.3706  -31.3771   26.1463 C   0  0  0  0  0  0
  -27.0334  -30.3003   24.6234 C   0  0  0  0  0  0
  -27.6049  -32.4336   25.7510 C   0  0  0  0  0  0
  -27.5583  -37.1791   24.8459 C   0  0  0  0  0  0
  -21.4211  -29.3045   22.3665 N   0  0  0  0  0  0
  -26.4281  -37.3783   23.9421 N   0  0  0  0  0  0
  -24.6955  -31.0553   22.0970 N   0  0  0  0  0  0
  -23.4210  -28.8156   23.3031 O   0  0  0  0  0  0
  -28.3117  -26.3774   20.2190 O   0  0  0  0  0  0
  -26.5626  -34.8925   22.4675 O   0  0  0  0  0  0
  -23.5448  -32.1398   23.7291 O   0  0  0  0  0  0
  -31.8834  -19.0861   18.8991 C   0  0  0  0  0  0
  -31.2257  -20.1166   19.5855 C   0  0  0  0  0  0
  -29.7105  -18.4585   20.5459 C   0  0  0  0  0  0
  -31.4408  -17.7535   18.9924 C   0  0  0  0  0  0
  -30.0707  -19.8616   20.3509 C   0  0  0  0  0  0
  -30.4238  -17.3593   19.9089 C   0  0  0  0  0  0
  -31.9429  -16.7589   17.9582 C   0  0  0  0  0  0
  -30.7814  -15.8918   17.4194 C   0  0  0  0  0  0
  -29.5633  -15.8062   18.3829 C   0  0  0  0  0  0
  -28.8843  -22.0585   18.6653 C   0  0  0  0  0  0
  -29.3579  -21.1378   20.9860 C   0  0  0  0  0  0
  -29.0634  -23.7497   20.5280 C   0  0  0  0  0  0
  -28.0728  -24.9110   19.9879 C   0  0  0  0  0  0
  -29.9747  -15.9387   19.7975 N   0  0  0  0  0  0
  -28.7708  -22.2823   20.1276 N   0  3  1  0  0  0
  -31.4734  -12.5709   19.1510 H   0  0  0  0  0  0
  -30.4143  -11.5252   20.0596 H   0  0  0  0  0  0
  -29.7593  -11.4237   17.6979 H   0  0  0  0  0  0
  -29.7007  -13.1252   17.5271 H   0  0  0  0  0  0
  -27.8373  -11.2416   18.9582 H   0  0  0  0  0  0
  -27.3814  -12.4469   17.7929 H   0  0  0  0  0  0
  -27.5509  -14.2174   19.4216 H   0  0  0  0  0  0
  -28.7489  -12.2952   21.4603 H   0  0  0  0  0  0
  -28.4382  -14.0051   21.6883 H   0  0  0  0  0  0
  -25.2742   -9.5659   22.4776 H   0  0  0  0  0  0
  -24.0000   -7.4597   22.7453 H   0  0  0  0  0  0
  -21.0844   -8.8727   19.8934 H   0  0  0  0  0  0
  -22.3674  -10.9648   19.6173 H   0  0  0  0  0  0
  -21.1971   -7.6126   23.9702 H   0  0  0  0  0  0
  -21.1513   -6.0512   25.9081 H   0  0  0  0  0  0
  -22.0589   -2.7589   23.2845 H   0  0  0  0  0  0
  -22.4043  -11.9896   22.4867 H   0  0  0  0  0  0
  -21.1017  -13.1204   22.2602 H   0  0  0  0  0  0
  -24.6635  -15.8507   20.5420 H   0  0  0  0  0  0
  -26.2870  -15.6228   20.1269 H   0  0  0  0  0  0
  -26.7207  -32.5429   23.1105 H   0  0  0  0  0  0
  -25.0071  -33.9717   25.0414 H   0  0  0  0  0  0
  -22.7225  -31.3020   21.3978 H   0  0  0  0  0  0
  -23.3760  -35.9603   23.3264 H   0  0  0  0  0  0
  -24.3585  -36.8942   22.2058 H   0  0  0  0  0  0
  -23.7211  -37.6469   23.6678 H   0  0  0  0  0  0
  -26.1088  -31.5360   20.6092 H   0  0  0  0  0  0
  -26.8506  -30.8249   22.0109 H   0  0  0  0  0  0
  -28.1115  -28.9294   21.2245 H   0  0  0  0  0  0
  -25.9544  -25.9372   18.9613 H   0  0  0  0  0  0
  -23.9791  -27.3259   18.9794 H   0  0  0  0  0  0
  -23.7637  -30.5916   19.4023 H   0  0  0  0  0  0
  -22.7640  -29.2445   19.8564 H   0  0  0  0  0  0
  -25.1281  -36.1928   25.0821 H   0  0  0  0  0  0
  -20.9992  -28.3272   24.1400 H   0  0  0  0  0  0
  -20.5707  -26.2308   23.3617 H   0  0  0  0  0  0
  -21.6651  -26.7460   22.1191 H   0  0  0  0  0  0
  -19.6919  -25.6294   21.1255 H   0  0  0  0  0  0
  -19.6683  -27.3195   20.6755 H   0  0  0  0  0  0
  -17.4211  -26.6692   21.4026 H   0  0  0  0  0  0
  -18.0318  -26.0064   22.9022 H   0  0  0  0  0  0
  -19.7941  -30.7274   24.2274 H   0  0  0  0  0  0
  -17.5015  -31.6273   24.5158 H   0  0  0  0  0  0
  -15.5354  -30.2987   23.7644 H   0  0  0  0  0  0
  -15.8680  -28.0803   22.7094 H   0  0  0  0  0  0
  -24.5871  -30.7120   25.7799 H   0  0  0  0  0  0
  -24.8905  -32.2957   26.4849 H   0  0  0  0  0  0
  -25.8009  -30.8978   27.0263 H   0  0  0  0  0  0
  -26.2924  -29.6757   24.1223 H   0  0  0  0  0  0
  -27.3965  -29.7259   25.4764 H   0  0  0  0  0  0
  -27.8823  -30.4266   23.9512 H   0  0  0  0  0  0
  -27.2654  -33.3644   26.2067 H   0  0  0  0  0  0
  -28.3863  -32.6882   25.0339 H   0  0  0  0  0  0
  -28.0707  -31.8477   26.5441 H   0  0  0  0  0  0
  -28.2574  -38.0112   24.7547 H   0  0  0  0  0  0
  -28.1103  -36.2650   24.6225 H   0  0  0  0  0  0
  -27.2317  -37.1368   25.8863 H   0  0  0  0  0  0
  -20.9397  -29.8749   21.6850 H   0  0  0  0  0  0
  -26.0160  -38.2849   24.1447 H   0  0  0  0  0  0
  -32.6911  -19.3424   18.2280 H   0  0  0  0  0  0
  -31.5801  -21.1312   19.4622 H   0  0  0  0  0  0
  -28.8441  -18.2259   21.1491 H   0  0  0  0  0  0
  -32.7163  -16.1389   18.4102 H   0  0  0  0  0  0
  -32.4298  -17.2748   17.1286 H   0  0  0  0  0  0
  -31.1663  -14.9004   17.1777 H   0  0  0  0  0  0
  -30.4305  -16.3071   16.4737 H   0  0  0  0  0  0
  -28.9646  -14.9414   18.1537 H   0  0  0  0  0  0
  -28.8874  -16.6332   18.1542 H   0  0  0  0  0  0
  -28.6296  -21.0331   18.3952 H   0  0  0  0  0  0
  -29.8918  -22.2703   18.3085 H   0  0  0  0  0  0
  -28.1974  -22.6967   18.1111 H   0  0  0  0  0  0
  -30.0793  -21.5791   21.6743 H   0  0  0  0  0  0
  -28.5515  -20.7762   21.6239 H   0  0  0  0  0  0
  -29.0596  -23.8031   21.6171 H   0  0  0  0  0  0
  -30.0832  -23.9871   20.2256 H   0  0  0  0  0  0
  -27.0945  -24.6606   20.3995 H   0  0  0  0  0  0
  -27.9838  -24.8015   18.9075 H   0  0  0  0  0  0
  -27.7827  -22.1672   20.3063 H   0  0  0  0  0  0
  1 25  1  0  0  0
  1 30  2  0  0  0
  1 84  1  0  0  0
  2  3  1  0  0  0
  2 25  1  0  0  0
  2 86  1  0  0  0
  2 87  1  0  0  0
  3  4  1  0  0  0
  3 88  1  0  0  0
  3 89  1  0  0  0
  4  5  1  0  0  0
  4 90  1  0  0  0
  4 91  1  0  0  0
  5  6  1  0  0  0
  5 26  1  0  0  0
  5 92  1  0  0  0
  6 25  1  0  0  0
  6 93  1  0  0  0
  6 94  1  0  0  0
  7  8  2  0  0  0
  7 26  1  0  0  0
  7 29  1  0  0  0
  8  9  1  0  0  0
  8 22  1  0  0  0
  9 10  1  0  0  0
  9 27  2  0  0  0
 10 11  2  0  0  0
 10 15  1  0  0  0
 11 12  1  0  0  0
 11 95  1  0  0  0
 12 13  2  0  0  0
 12 96  1  0  0  0
 13 14  1  0  0  0
 13 31  1  0  0  0
 14 15  2  0  0  0
 14 97  1  0  0  0
 15 98  1  0  0  0
 16 17  2  0  0  0
 16 21  1  0  0  0
 16 31  1  0  0  0
 17 18  1  0  0  0
 17 99  1  0  0  0
 18 19  2  0  0  0
 18100  1  0  0  0
 19 20  1  0  0  0
 19 24  1  0  0  0
 20 21  2  0  0  0
 20101  1  0  0  0
 21 23  1  0  0  0
 22 28  1  0  0  0
 22 32  2  0  0  0
 26 27  1  0  0  0
 28102  1  0  0  0
 28103  1  0  0  0
 29104  1  0  0  0
 29105  1  0  0  0
 33 34  1  0  0  0
 33 66  1  0  0  0
 33 70  2  0  0  0
 34 36  1  0  0  0
 34 59  1  0  0  0
 34106  1  0  0  0
 35 44  2  0  0  0
 35 45  1  0  0  0
 35 68  1  0  0  0
 36 56  1  0  0  0
 36107  1  0  0  0
 37 39  1  0  0  0
 37 47  1  0  0  0
 37 66  1  0  0  0
 37108  1  0  0  0
 38 43  2  0  0  0
 38 46  1  0  0  0
 38 47  1  0  0  0
 39 64  1  0  0  0
 39 67  2  0  0  0
 40 52  1  0  0  0
 40 53  2  0  0  0
 40 58  1  0  0  0
 41109  1  0  0  0
 41110  1  0  0  0
 41111  1  0  0  0
 41 48  1  0  0  0
 42 43  1  0  0  0
 42 66  1  0  0  0
 42112  1  0  0  0
 42113  1  0  0  0
 43 44  1  0  0  0
 44114  1  0  0  0
 45 46  2  0  0  0
 45115  1  0  0  0
 46116  1  0  0  0
 47117  1  0  0  0
 47118  1  0  0  0
 48 56  1  0  0  0
 48 65  1  0  0  0
 48119  1  0  0  0
 49 50  1  0  0  0
 49 53  1  0  0  0
 49 64  1  0  0  0
 49120  1  0  0  0
 50 51  1  0  0  0
 50121  1  0  0  0
 50122  1  0  0  0
 51 52  1  0  0  0
 51123  1  0  0  0
 51124  1  0  0  0
 52125  1  0  0  0
 52126  1  0  0  0
 53 54  1  0  0  0
 54 55  2  0  0  0
 54127  1  0  0  0
 55 57  1  0  0  0
 55128  1  0  0  0
 56 69  2  0  0  0
 57 58  2  0  0  0
 57129  1  0  0  0
 58130  1  0  0  0
 59 60  1  0  0  0
 59 61  1  0  0  0
 59 62  1  0  0  0
 60131  1  0  0  0
 60132  1  0  0  0
 60133  1  0  0  0
 61134  1  0  0  0
 61135  1  0  0  0
 61136  1  0  0  0
 62137  1  0  0  0
 62138  1  0  0  0
 62139  1  0  0  0
 63 65  1  0  0  0
 63140  1  0  0  0
 63141  1  0  0  0
 63142  1  0  0  0
 64143  1  0  0  0
 65144  1  0  0  0
 68 83  1  0  0  0
 71 72  2  0  0  0
 71 74  1  0  0  0
 71145  1  0  0  0
 72 75  1  0  0  0
 72146  1  0  0  0
 73 75  2  0  0  0
 73 76  1  0  0  0
 73147  1  0  0  0
 74 76  2  0  0  0
 74 77  1  0  0  0
 75 81  1  0  0  0
 76 84  1  0  0  0
 77 78  1  0  0  0
 77148  1  0  0  0
 77149  1  0  0  0
 78 79  1  0  0  0
 78150  1  0  0  0
 78151  1  0  0  0
 79 84  1  0  0  0
 79152  1  0  0  0
 79153  1  0  0  0
 80154  1  0  0  0
 80155  1  0  0  0
 80156  1  0  0  0
 80 85  1  0  0  0
 81 85  1  0  0  0
 81157  1  0  0  0
 81158  1  0  0  0
 82 83  1  0  0  0
 82 85  1  0  0  0
 82159  1  0  0  0
 82160  1  0  0  0
 83161  1  0  0  0
 83162  1  0  0  0
 85163  1  0  0  0
M  CHG  1  85   1
M  ISO  4   1 100  68 101  83 101  84 100
M  END
> <chiral flag>
0

> <version>
0

> <s_m_source_file>
/data/baiqing/PycharmProjects/Reinvent-master-3.2/result/LINK_invent/BTK/process_docking_weight1_custom_product_contain_oxygen_bond_distance_aromatic_linkinvent_7_9_3/rearranged_h_0029.sdf

> <i_m_source_file_index>
59

> <r_mmod_Potential_Energy-OPLS-2005>
414.016723632812

> <r_mmod_Stretch_Energy-OPLS-2005>
133.949691772461

> <r_mmod_Bend_Energy-OPLS-2005>
202.761413574219

> <r_mmod_Torsional_Energy-OPLS-2005>
360.106689453125

> <r_mmod_Improper_Torsional_Energy-OPLS-2005>
23.0074615478516

> <r_mmod_Van_der_Waal_Energy-OPLS-2005>
168.204467773438

> <r_mmod_Electrostatic_Energy-OPLS-2005>
-163.245590209961

> <r_mmod_Solvation_Energy-OPLS-2005>
-430.620239257812

> <b_mmod_Minimization_Converged-OPLS-2005>
0

> <r_mmod_RMS_Derivative-OPLS-2005>
1.54596948623657

$$$$
59
                    3D
 Structure written by MMmdl.
156165  0  0  1  0            999 V2000
  -30.4640  -15.2356   20.3442 C   0  0  0  0  0  0
  -30.4306  -12.7802   19.5435 C   0  0  0  0  0  0
  -29.5359  -12.5677   18.2978 C   0  0  0  0  0  0
  -28.0818  -12.3012   18.7211 C   0  0  0  0  0  0
  -27.6114  -13.2798   19.8267 C   0  0  2  0  0  0
  -28.6401  -13.4552   20.9656 C   0  0  0  0  0  0
  -25.2373  -13.8266   20.5767 C   0  0  0  0  0  0
  -24.1729  -13.0445   20.9268 C   0  0  0  0  0  0
  -24.6390  -11.6945   20.8772 C   0  0  0  0  0  0
  -23.9091  -10.4300   21.0412 C   0  0  0  0  0  0
  -24.3639   -9.4205   21.9186 C   0  0  0  0  0  0
  -23.6305   -8.2242   22.0752 C   0  0  0  0  0  0
  -22.4282   -8.0284   21.3548 C   0  0  0  0  0  0
  -21.9921   -9.0260   20.4648 C   0  0  0  0  0  0
  -22.7261  -10.2134   20.3059 C   0  0  0  0  0  0
  -21.6849   -6.0745   22.5282 C   0  0  0  0  0  0
  -21.4021   -6.5648   23.8219 C   0  0  0  0  0  0
  -21.3660   -5.6797   24.9178 C   0  0  0  0  0  0
  -21.6039   -4.3059   24.7225 C   0  0  0  0  0  0
  -21.8813   -3.8151   23.4343 C   0  0  0  0  0  0
  -21.9186   -4.6972   22.3400 C   0  0  0  0  0  0
  -22.7744  -13.5193   21.1915 C   0  0  0  0  0  0
  -22.1657   -4.2157   21.0979 F   0  0  0  0  0  0
  -21.5617   -3.4546   25.7739 F   0  0  0  0  0  0
  -29.8835  -13.9373   20.3464 N   0  0  0  0  0  0
  -26.2807  -12.9551   20.3235 N   0  0  0  0  0  0
  -25.9329  -11.6651   20.5749 N   0  0  0  0  0  0
  -22.0398  -12.8186   22.0478 N   0  0  0  0  0  0
  -25.4003  -15.2008   20.4238 N   0  0  0  0  0  0
  -31.6797  -15.2051   20.1011 O   0  0  0  0  0  0
  -21.6638   -6.8886   21.4243 O   0  0  0  0  0  0
  -22.3427  -14.5489   20.6748 O   0  0  0  0  0  0
  -24.6598  -31.8255   23.1694 C   0  0  0  0  0  0
  -25.9291  -32.4599   23.8164 C   0  0  1  0  0  0
  -27.2217  -26.9502   20.1839 C   0  0  0  0  0  0
  -25.5965  -33.8410   24.2079 N   0  0  0  0  0  0
  -23.4740  -30.4342   21.5176 C   0  0  2  0  0  0
  -24.9270  -28.8208   20.1057 C   0  0  0  0  0  0
  -22.7659  -29.4439   22.4779 C   0  0  0  0  0  0
  -18.0321  -28.1411   22.8468 C   0  0  0  0  0  0
  -24.1491  -36.7219   23.2650 C   0  0  0  0  0  0
  -26.0385  -30.6377   21.3951 C   0  0  0  0  0  0
  -26.1057  -29.2292   20.7404 C   0  0  0  0  0  0
  -27.2443  -28.3122   20.7565 C   0  0  0  0  0  0
  -26.0183  -26.6827   19.4968 C   0  0  0  0  0  0
  -24.9070  -27.5687   19.4641 C   0  0  0  0  0  0
  -23.7121  -29.7475   20.1427 C   0  0  0  0  0  0
  -25.4129  -36.2976   24.0303 C   0  0  1  0  0  0
  -20.5945  -28.3749   23.1196 C   0  0  2  0  0  0
  -20.6797  -26.9430   22.5410 C   0  0  0  0  0  0
  -19.5773  -26.6375   21.5221 C   0  0  0  0  0  0
  -18.1954  -26.7941   22.1624 C   0  0  0  0  0  0
  -19.1585  -28.8897   23.2818 C   0  0  0  0  0  0
  -18.9494  -30.1487   23.8855 C   0  0  0  0  0  0
  -17.6489  -30.6594   24.0558 C   0  0  0  0  0  0
  -25.9092  -34.9357   23.5014 C   0  0  0  0  0  0
  -16.5378  -29.9085   23.6342 C   0  0  0  0  0  0
  -16.7305  -28.6507   23.0355 C   0  0  0  0  0  0
  -26.4545  -31.6537   25.0689 C   0  0  0  0  0  0
  -25.3677  -31.3789   26.1355 C   0  0  0  0  0  0
  -27.0440  -30.2909   24.6404 C   0  0  0  0  0  0
  -27.6036  -32.4344   25.7494 C   0  0  0  0  0  0
  -27.5568  -37.1766   24.8463 C   0  0  0  0  0  0
  -21.4328  -29.3039   22.3544 N   0  0  0  0  0  0
  -26.4279  -37.3707   23.9408 N   0  0  0  0  0  0
  -24.7451  -30.9929   22.0814 N   0  0  0  0  0  0
  -23.4221  -28.8025   23.3024 O   0  0  0  0  0  0
  -28.2517  -25.8902   20.3194 O   0  0  0  0  0  0
  -26.5708  -34.8891   22.4615 O   0  0  0  0  0  0
  -23.5674  -32.1216   23.6805 O   0  0  0  0  0  0
  -29.2028  -19.8597   18.0386 C   0  0  0  0  0  0
  -29.5582  -19.1847   16.8729 C   0  0  0  0  0  0
  -30.1158  -17.2787   18.2049 C   0  0  0  0  0  0
  -29.3166  -19.3863   19.3860 C   0  0  0  0  0  0
  -29.7254  -17.8357   19.4646 C   0  0  0  0  0  0
  -30.0596  -17.9039   16.9630 C   0  0  0  0  0  0
  -29.6613  -23.4576   20.3401 C   0  0  0  0  0  0
  -27.4484  -23.0328   20.5470 C   0  0  0  0  0  0
  -29.9682  -21.8702   19.9287 C   0  0  0  0  0  0
  -27.7017  -21.4387   20.0672 C   0  0  0  0  0  0
  -28.3131  -24.2814   19.9632 C   0  0  0  0  0  0
  -29.0367  -20.6715   20.2148 N   0  0  0  0  0  0
  -29.7559  -16.5450   20.4201 N   0  0  0  0  0  0
  -30.4489  -17.2451   15.8456 F   0  0  0  0  0  0
  -31.4578  -12.9546   19.2202 H   0  0  0  0  0  0
  -30.4722  -11.8747   20.1510 H   0  0  0  0  0  0
  -29.9104  -11.7375   17.6971 H   0  0  0  0  0  0
  -29.5795  -13.4516   17.6603 H   0  0  0  0  0  0
  -28.0359  -11.2793   19.0991 H   0  0  0  0  0  0
  -27.4151  -12.3392   17.8588 H   0  0  0  0  0  0
  -27.5295  -14.2469   19.3279 H   0  0  0  0  0  0
  -28.7942  -12.5255   21.5162 H   0  0  0  0  0  0
  -28.2830  -14.1916   21.6877 H   0  0  0  0  0  0
  -25.2775   -9.5680   22.4772 H   0  0  0  0  0  0
  -24.0007   -7.4628   22.7467 H   0  0  0  0  0  0
  -21.0850   -8.8789   19.8959 H   0  0  0  0  0  0
  -22.3718  -10.9679   19.6176 H   0  0  0  0  0  0
  -21.2033   -7.6159   23.9734 H   0  0  0  0  0  0
  -21.1487   -6.0527   25.9087 H   0  0  0  0  0  0
  -22.0591   -2.7614   23.2842 H   0  0  0  0  0  0
  -22.4029  -11.9873   22.4894 H   0  0  0  0  0  0
  -21.1000  -13.1186   22.2655 H   0  0  0  0  0  0
  -24.6326  -15.8511   20.5526 H   0  0  0  0  0  0
  -26.2425  -15.6467   20.0830 H   0  0  0  0  0  0
  -26.7364  -32.5139   23.0883 H   0  0  0  0  0  0
  -25.0048  -33.9486   25.0186 H   0  0  0  0  0  0
  -22.7858  -31.2649   21.3477 H   0  0  0  0  0  0
  -23.3761  -35.9540   23.3280 H   0  0  0  0  0  0
  -24.3569  -36.8899   22.2071 H   0  0  0  0  0  0
  -23.7241  -37.6396   23.6723 H   0  0  0  0  0  0
  -26.2148  -31.3780   20.6140 H   0  0  0  0  0  0
  -26.9005  -30.6965   22.0477 H   0  0  0  0  0  0
  -28.1341  -28.6174   21.2889 H   0  0  0  0  0  0
  -25.9057  -25.7191   19.0208 H   0  0  0  0  0  0
  -24.0093  -27.2502   18.9530 H   0  0  0  0  0  0
  -23.8676  -30.5168   19.3856 H   0  0  0  0  0  0
  -22.8211  -29.2030   19.8253 H   0  0  0  0  0  0
  -25.1325  -36.1777   25.0793 H   0  0  0  0  0  0
  -21.0031  -28.3353   24.1319 H   0  0  0  0  0  0
  -20.5679  -26.2362   23.3648 H   0  0  0  0  0  0
  -21.6659  -26.7405   22.1217 H   0  0  0  0  0  0
  -19.6927  -25.6274   21.1278 H   0  0  0  0  0  0
  -19.6710  -27.3159   20.6731 H   0  0  0  0  0  0
  -17.4222  -26.6689   21.4025 H   0  0  0  0  0  0
  -18.0339  -26.0094   22.9031 H   0  0  0  0  0  0
  -19.7969  -30.7318   24.2199 H   0  0  0  0  0  0
  -17.5038  -31.6266   24.5181 H   0  0  0  0  0  0
  -15.5378  -30.2973   23.7683 H   0  0  0  0  0  0
  -15.8708  -28.0814   22.7085 H   0  0  0  0  0  0
  -24.5856  -30.7141   25.7671 H   0  0  0  0  0  0
  -24.8869  -32.2991   26.4678 H   0  0  0  0  0  0
  -25.7911  -30.9022   27.0204 H   0  0  0  0  0  0
  -26.3093  -29.6583   24.1409 H   0  0  0  0  0  0
  -27.3985  -29.7279   25.5049 H   0  0  0  0  0  0
  -27.9028  -30.4108   23.9797 H   0  0  0  0  0  0
  -27.2597  -33.3676   26.1966 H   0  0  0  0  0  0
  -28.3898  -32.6859   25.0363 H   0  0  0  0  0  0
  -28.0645  -31.8547   26.5502 H   0  0  0  0  0  0
  -28.2570  -38.0077   24.7506 H   0  0  0  0  0  0
  -28.1082  -36.2604   24.6288 H   0  0  0  0  0  0
  -27.2288  -37.1405   25.8867 H   0  0  0  0  0  0
  -20.9578  -29.8727   21.6674 H   0  0  0  0  0  0
  -26.0130  -38.2769   24.1411 H   0  0  0  0  0  0
  -28.8647  -20.8574   17.8091 H   0  0  0  0  0  0
  -29.4689  -19.6672   15.9104 H   0  0  0  0  0  0
  -30.4486  -16.2617   18.0942 H   0  0  0  0  0  0
  -30.4936  -24.0381   19.9401 H   0  0  0  0  0  0
  -29.7943  -23.5319   21.4209 H   0  0  0  0  0  0
  -27.5084  -23.0573   21.6367 H   0  0  0  0  0  0
  -26.4018  -23.2583   20.3413 H   0  0  0  0  0  0
  -30.9061  -21.6149   20.4233 H   0  0  0  0  0  0
  -30.2549  -21.9049   18.8795 H   0  0  0  0  0  0
  -27.3394  -21.3700   19.0430 H   0  0  0  0  0  0
  -26.9774  -20.8446   20.6259 H   0  0  0  0  0  0
  -28.2044  -24.2489   18.8789 H   0  0  0  0  0  0
  -28.9303  -16.4879   20.9999 H   0  0  0  0  0  0
  1 25  1  0  0  0
  1 30  2  0  0  0
  1 83  1  0  0  0
  2  3  1  0  0  0
  2 25  1  0  0  0
  2 85  1  0  0  0
  2 86  1  0  0  0
  3  4  1  0  0  0
  3 87  1  0  0  0
  3 88  1  0  0  0
  4  5  1  0  0  0
  4 89  1  0  0  0
  4 90  1  0  0  0
  5  6  1  0  0  0
  5 26  1  0  0  0
  5 91  1  0  0  0
  6 25  1  0  0  0
  6 92  1  0  0  0
  6 93  1  0  0  0
  7  8  2  0  0  0
  7 26  1  0  0  0
  7 29  1  0  0  0
  8  9  1  0  0  0
  8 22  1  0  0  0
  9 10  1  0  0  0
  9 27  2  0  0  0
 10 11  2  0  0  0
 10 15  1  0  0  0
 11 12  1  0  0  0
 11 94  1  0  0  0
 12 13  2  0  0  0
 12 95  1  0  0  0
 13 14  1  0  0  0
 13 31  1  0  0  0
 14 15  2  0  0  0
 14 96  1  0  0  0
 15 97  1  0  0  0
 16 17  2  0  0  0
 16 21  1  0  0  0
 16 31  1  0  0  0
 17 18  1  0  0  0
 17 98  1  0  0  0
 18 19  2  0  0  0
 18 99  1  0  0  0
 19 20  1  0  0  0
 19 24  1  0  0  0
 20 21  2  0  0  0
 20100  1  0  0  0
 21 23  1  0  0  0
 22 28  1  0  0  0
 22 32  2  0  0  0
 26 27  1  0  0  0
 28101  1  0  0  0
 28102  1  0  0  0
 29103  1  0  0  0
 29104  1  0  0  0
 33 34  1  0  0  0
 33 66  1  0  0  0
 33 70  2  0  0  0
 34 36  1  0  0  0
 34 59  1  0  0  0
 34105  1  0  0  0
 35 44  2  0  0  0
 35 45  1  0  0  0
 35 68  1  0  0  0
 36 56  1  0  0  0
 36106  1  0  0  0
 37 39  1  0  0  0
 37 47  1  0  0  0
 37 66  1  0  0  0
 37107  1  0  0  0
 38 43  2  0  0  0
 38 46  1  0  0  0
 38 47  1  0  0  0
 39 64  1  0  0  0
 39 67  2  0  0  0
 40 52  1  0  0  0
 40 53  2  0  0  0
 40 58  1  0  0  0
 41108  1  0  0  0
 41109  1  0  0  0
 41110  1  0  0  0
 41 48  1  0  0  0
 42 43  1  0  0  0
 42 66  1  0  0  0
 42111  1  0  0  0
 42112  1  0  0  0
 43 44  1  0  0  0
 44113  1  0  0  0
 45 46  2  0  0  0
 45114  1  0  0  0
 46115  1  0  0  0
 47116  1  0  0  0
 47117  1  0  0  0
 48 56  1  0  0  0
 48 65  1  0  0  0
 48118  1  0  0  0
 49 50  1  0  0  0
 49 53  1  0  0  0
 49 64  1  0  0  0
 49119  1  0  0  0
 50 51  1  0  0  0
 50120  1  0  0  0
 50121  1  0  0  0
 51 52  1  0  0  0
 51122  1  0  0  0
 51123  1  0  0  0
 52124  1  0  0  0
 52125  1  0  0  0
 53 54  1  0  0  0
 54 55  2  0  0  0
 54126  1  0  0  0
 55 57  1  0  0  0
 55127  1  0  0  0
 56 69  2  0  0  0
 57 58  2  0  0  0
 57128  1  0  0  0
 58129  1  0  0  0
 59 60  1  0  0  0
 59 61  1  0  0  0
 59 62  1  0  0  0
 60130  1  0  0  0
 60131  1  0  0  0
 60132  1  0  0  0
 61133  1  0  0  0
 61134  1  0  0  0
 61135  1  0  0  0
 62136  1  0  0  0
 62137  1  0  0  0
 62138  1  0  0  0
 63 65  1  0  0  0
 63139  1  0  0  0
 63140  1  0  0  0
 63141  1  0  0  0
 64142  1  0  0  0
 65143  1  0  0  0
 68 81  1  0  0  0
 71 72  2  0  0  0
 71 74  1  0  0  0
 71144  1  0  0  0
 72 76  1  0  0  0
 72145  1  0  0  0
 73 75  1  0  0  0
 73 76  2  0  0  0
 73146  1  0  0  0
 74 75  2  0  0  0
 74 82  1  0  0  0
 75 83  1  0  0  0
 76 84  1  0  0  0
 77 79  1  0  0  0
 77 81  1  0  0  0
 77147  1  0  0  0
 77148  1  0  0  0
 78 80  1  0  0  0
 78 81  1  0  0  0
 78149  1  0  0  0
 78150  1  0  0  0
 79 82  1  0  0  0
 79151  1  0  0  0
 79152  1  0  0  0
 80 82  1  0  0  0
 80153  1  0  0  0
 80154  1  0  0  0
 81155  1  0  0  0
 83156  1  0  0  0
M  ISO  4   1 100  68 101  81 101  83 100
M  END
> <chiral flag>
0

> <version>
0

> <s_m_source_file>
/data/baiqing/PycharmProjects/Reinvent-master-3.2/result/LINK_invent/BTK/process_docking_weight1_custom_product_contain_oxygen_bond_distance_aromatic_linkinvent_7_9_3/rearranged_h_0029.sdf

> <i_m_source_file_index>
60

> <r_mmod_Potential_Energy-OPLS-2005>
1368.14770507812

> <r_mmod_Stretch_Energy-OPLS-2005>
532.173278808594

> <r_mmod_Bend_Energy-OPLS-2005>
591.266967773438

> <r_mmod_Torsional_Energy-OPLS-2005>
301.644439697266

> <r_mmod_Improper_Torsional_Energy-OPLS-2005>
12.617395401001

> <r_mmod_Van_der_Waal_Energy-OPLS-2005>
162.777084350586

> <r_mmod_Electrostatic_Energy-OPLS-2005>
-417.956390380859

> <r_mmod_Solvation_Energy-OPLS-2005>
-237.953521728516

> <b_mmod_Minimization_Converged-OPLS-2005>
0

> <r_mmod_RMS_Derivative-OPLS-2005>
1.43032550811768

$$$$
60
                    3D
 Structure written by MMmdl.
156165  0  0  1  0            999 V2000
  -30.4911  -14.9002   20.4749 C   0  0  0  0  0  0
  -30.4385  -12.5577   19.5026 C   0  0  0  0  0  0
  -29.5208  -12.5418   18.2559 C   0  0  0  0  0  0
  -28.0495  -12.3258   18.6605 C   0  0  0  0  0  0
  -27.6316  -13.2307   19.8503 C   0  0  2  0  0  0
  -28.6680  -13.1878   20.9917 C   0  0  0  0  0  0
  -25.2460  -13.8150   20.5660 C   0  0  0  0  0  0
  -24.1767  -13.0404   20.9180 C   0  0  0  0  0  0
  -24.6357  -11.6876   20.8728 C   0  0  0  0  0  0
  -23.9030  -10.4273   21.0392 C   0  0  0  0  0  0
  -24.3571   -9.4210   21.9179 C   0  0  0  0  0  0
  -23.6264   -8.2239   22.0758 C   0  0  0  0  0  0
  -22.4249   -8.0266   21.3555 C   0  0  0  0  0  0
  -21.9866   -9.0222   20.4645 C   0  0  0  0  0  0
  -22.7183  -10.2107   20.3063 C   0  0  0  0  0  0
  -21.6857   -6.0709   22.5277 C   0  0  0  0  0  0
  -21.4024   -6.5612   23.8203 C   0  0  0  0  0  0
  -21.3678   -5.6770   24.9168 C   0  0  0  0  0  0
  -21.6052   -4.3036   24.7244 C   0  0  0  0  0  0
  -21.8825   -3.8125   23.4361 C   0  0  0  0  0  0
  -21.9187   -4.6939   22.3416 C   0  0  0  0  0  0
  -22.7806  -13.5184   21.1885 C   0  0  0  0  0  0
  -22.1654   -4.2130   21.0995 F   0  0  0  0  0  0
  -21.5642   -3.4525   25.7758 F   0  0  0  0  0  0
  -29.9512  -13.6198   20.4224 N   0  0  0  0  0  0
  -26.2873  -12.9355   20.3228 N   0  0  0  0  0  0
  -25.9287  -11.6500   20.5695 N   0  0  0  0  0  0
  -22.0457  -12.8183   22.0449 N   0  0  0  0  0  0
  -25.4160  -15.1883   20.4124 N   0  0  0  0  0  0
  -31.6760  -15.0472   20.1496 O   0  0  0  0  0  0
  -21.6642   -6.8849   21.4243 O   0  0  0  0  0  0
  -22.3497  -14.5496   20.6733 O   0  0  0  0  0  0
  -24.6420  -31.8444   23.1881 C   0  0  0  0  0  0
  -25.9194  -32.4704   23.8281 C   0  0  1  0  0  0
  -27.2338  -27.1426   20.1852 C   0  0  0  0  0  0
  -25.5936  -33.8505   24.2214 N   0  0  0  0  0  0
  -23.4476  -30.4596   21.5323 C   0  0  2  0  0  0
  -24.9016  -28.8791   20.1198 C   0  0  0  0  0  0
  -22.7555  -29.4560   22.4883 C   0  0  0  0  0  0
  -18.0311  -28.1394   22.8477 C   0  0  0  0  0  0
  -24.1486  -36.7268   23.2643 C   0  0  0  0  0  0
  -25.9988  -30.7265   21.3783 C   0  0  0  0  0  0
  -26.0765  -29.3319   20.7344 C   0  0  0  0  0  0
  -27.2444  -28.4820   20.7457 C   0  0  0  0  0  0
  -26.0347  -26.7859   19.5285 C   0  0  0  0  0  0
  -24.8940  -27.6195   19.4991 C   0  0  0  0  0  0
  -23.6758  -29.7795   20.1542 C   0  0  0  0  0  0
  -25.4115  -36.3039   24.0324 C   0  0  1  0  0  0
  -20.5922  -28.3717   23.1239 C   0  0  2  0  0  0
  -20.6793  -26.9420   22.5398 C   0  0  0  0  0  0
  -19.5770  -26.6372   21.5214 C   0  0  0  0  0  0
  -18.1953  -26.7919   22.1621 C   0  0  0  0  0  0
  -19.1569  -28.8875   23.2843 C   0  0  0  0  0  0
  -18.9485  -30.1460   23.8860 C   0  0  0  0  0  0
  -17.6488  -30.6576   24.0561 C   0  0  0  0  0  0
  -25.9064  -34.9413   23.5085 C   0  0  0  0  0  0
  -16.5381  -29.9076   23.6324 C   0  0  0  0  0  0
  -16.7301  -28.6504   23.0347 C   0  0  0  0  0  0
  -26.4499  -31.6558   25.0709 C   0  0  0  0  0  0
  -25.3696  -31.3773   26.1420 C   0  0  0  0  0  0
  -27.0347  -30.2966   24.6240 C   0  0  0  0  0  0
  -27.6045  -32.4281   25.7504 C   0  0  0  0  0  0
  -27.5577  -37.1785   24.8458 C   0  0  0  0  0  0
  -21.4263  -29.3046   22.3610 N   0  0  0  0  0  0
  -26.4282  -37.3758   23.9414 N   0  0  0  0  0  0
  -24.7164  -31.0305   22.0902 N   0  0  0  0  0  0
  -23.4189  -28.8130   23.3059 O   0  0  0  0  0  0
  -28.3059  -26.1771   20.2313 O   0  0  0  0  0  0
  -26.5658  -34.8917   22.4666 O   0  0  0  0  0  0
  -23.5536  -32.1315   23.7096 O   0  0  0  0  0  0
  -28.3141  -19.6363   19.9643 C   0  0  0  0  0  0
  -28.5311  -18.2007   19.9310 C   0  0  0  0  0  0
  -30.1854  -19.8630   21.3718 C   0  0  0  0  0  0
  -29.1145  -20.5657   20.7038 C   0  0  0  0  0  0
  -29.5918  -17.5030   20.6060 C   0  0  0  0  0  0
  -30.4244  -18.4235   21.3254 C   0  0  0  0  0  0
  -27.5941  -23.3473   22.7478 C   0  0  0  0  0  0
  -28.0746  -24.6974   22.1746 C   0  0  0  0  0  0
  -28.5293  -22.1683   22.4090 C   0  0  0  0  0  0
  -28.9749  -23.3239   20.2330 C   0  0  0  0  0  0
  -28.0736  -24.6892   20.6384 C   0  0  2  0  0  0
  -28.6982  -21.9744   20.9664 N   0  0  0  0  0  0
  -29.6075  -15.9789   20.7058 N   0  0  0  0  0  0
  -31.4361  -17.9164   22.0715 F   0  0  0  0  0  0
  -31.4759  -12.7195   19.2071 H   0  0  0  0  0  0
  -30.4213  -11.5879   20.0011 H   0  0  0  0  0  0
  -29.8399  -11.7654   17.5608 H   0  0  0  0  0  0
  -29.6143  -13.4887   17.7209 H   0  0  0  0  0  0
  -27.9320  -11.2754   18.9314 H   0  0  0  0  0  0
  -27.3954  -12.4933   17.8064 H   0  0  0  0  0  0
  -27.6075  -14.2486   19.4571 H   0  0  0  0  0  0
  -28.7485  -12.1761   21.3947 H   0  0  0  0  0  0
  -28.3625  -13.8206   21.8260 H   0  0  0  0  0  0
  -25.2725   -9.5671   22.4748 H   0  0  0  0  0  0
  -23.9998   -7.4607   22.7445 H   0  0  0  0  0  0
  -21.0819   -8.8675   19.8918 H   0  0  0  0  0  0
  -22.3614  -10.9624   19.6160 H   0  0  0  0  0  0
  -21.2001   -7.6110   23.9678 H   0  0  0  0  0  0
  -21.1515   -6.0523   25.9058 H   0  0  0  0  0  0
  -22.0590   -2.7592   23.2864 H   0  0  0  0  0  0
  -22.4076  -11.9853   22.4856 H   0  0  0  0  0  0
  -21.1073  -13.1211   22.2658 H   0  0  0  0  0  0
  -24.6433  -15.8366   20.5203 H   0  0  0  0  0  0
  -26.2511  -15.6304   20.0539 H   0  0  0  0  0  0
  -26.7265  -32.5318   23.1022 H   0  0  0  0  0  0
  -25.0043  -33.9616   25.0332 H   0  0  0  0  0  0
  -22.7533  -31.2856   21.3707 H   0  0  0  0  0  0
  -23.3750  -35.9592   23.3280 H   0  0  0  0  0  0
  -24.3579  -36.8911   22.2063 H   0  0  0  0  0  0
  -23.7228  -37.6460   23.6678 H   0  0  0  0  0  0
  -26.1324  -31.4748   20.5956 H   0  0  0  0  0  0
  -26.8773  -30.7962   22.0074 H   0  0  0  0  0  0
  -28.1394  -28.8290   21.2414 H   0  0  0  0  0  0
  -25.9588  -25.8255   19.0408 H   0  0  0  0  0  0
  -23.9973  -27.2635   19.0125 H   0  0  0  0  0  0
  -23.8114  -30.5482   19.3925 H   0  0  0  0  0  0
  -22.7924  -29.2147   19.8484 H   0  0  0  0  0  0
  -25.1306  -36.1882   25.0814 H   0  0  0  0  0  0
  -21.0019  -28.3290   24.1361 H   0  0  0  0  0  0
  -20.5679  -26.2344   23.3629 H   0  0  0  0  0  0
  -21.6664  -26.7397   22.1216 H   0  0  0  0  0  0
  -19.6937  -25.6269   21.1280 H   0  0  0  0  0  0
  -19.6715  -27.3160   20.6733 H   0  0  0  0  0  0
  -17.4225  -26.6658   21.4027 H   0  0  0  0  0  0
  -18.0347  -26.0061   22.9026 H   0  0  0  0  0  0
  -19.7969  -30.7288   24.2216 H   0  0  0  0  0  0
  -17.5045  -31.6273   24.5156 H   0  0  0  0  0  0
  -15.5377  -30.2992   23.7652 H   0  0  0  0  0  0
  -15.8704  -28.0822   22.7075 H   0  0  0  0  0  0
  -24.5818  -30.7181   25.7751 H   0  0  0  0  0  0
  -24.8966  -32.2982   26.4844 H   0  0  0  0  0  0
  -25.7971  -30.8928   27.0208 H   0  0  0  0  0  0
  -26.2959  -29.6714   24.1213 H   0  0  0  0  0  0
  -27.3957  -29.7227   25.4787 H   0  0  0  0  0  0
  -27.8862  -30.4236   23.9554 H   0  0  0  0  0  0
  -27.2646  -33.3554   26.2126 H   0  0  0  0  0  0
  -28.3862  -32.6862   25.0348 H   0  0  0  0  0  0
  -28.0709  -31.8372   26.5400 H   0  0  0  0  0  0
  -28.2578  -38.0100   24.7508 H   0  0  0  0  0  0
  -28.1095  -36.2629   24.6271 H   0  0  0  0  0  0
  -27.2302  -37.1416   25.8864 H   0  0  0  0  0  0
  -20.9483  -29.8740   21.6759 H   0  0  0  0  0  0
  -26.0155  -38.2820   24.1428 H   0  0  0  0  0  0
  -27.4388  -20.0197   19.4573 H   0  0  0  0  0  0
  -27.8067  -17.6093   19.3920 H   0  0  0  0  0  0
  -30.8370  -20.4340   22.0154 H   0  0  0  0  0  0
  -26.5841  -23.1364   22.3922 H   0  0  0  0  0  0
  -27.5117  -23.4276   23.8331 H   0  0  0  0  0  0
  -29.0802  -24.9169   22.5344 H   0  0  0  0  0  0
  -27.4308  -25.4951   22.5452 H   0  0  0  0  0  0
  -28.1029  -21.2621   22.8475 H   0  0  0  0  0  0
  -29.5026  -22.3057   22.8839 H   0  0  0  0  0  0
  -30.0238  -23.5554   20.4183 H   0  0  0  0  0  0
  -28.8989  -23.1524   19.1584 H   0  0  0  0  0  0
  -27.0631  -24.4399   20.3249 H   0  0  0  0  0  0
  -28.6925  -15.6093   20.9095 H   0  0  0  0  0  0
  1 25  1  0  0  0
  1 30  2  0  0  0
  1 83  1  0  0  0
  2  3  1  0  0  0
  2 25  1  0  0  0
  2 85  1  0  0  0
  2 86  1  0  0  0
  3  4  1  0  0  0
  3 87  1  0  0  0
  3 88  1  0  0  0
  4  5  1  0  0  0
  4 89  1  0  0  0
  4 90  1  0  0  0
  5  6  1  0  0  0
  5 26  1  0  0  0
  5 91  1  0  0  0
  6 25  1  0  0  0
  6 92  1  0  0  0
  6 93  1  0  0  0
  7  8  2  0  0  0
  7 26  1  0  0  0
  7 29  1  0  0  0
  8  9  1  0  0  0
  8 22  1  0  0  0
  9 10  1  0  0  0
  9 27  2  0  0  0
 10 11  2  0  0  0
 10 15  1  0  0  0
 11 12  1  0  0  0
 11 94  1  0  0  0
 12 13  2  0  0  0
 12 95  1  0  0  0
 13 14  1  0  0  0
 13 31  1  0  0  0
 14 15  2  0  0  0
 14 96  1  0  0  0
 15 97  1  0  0  0
 16 17  2  0  0  0
 16 21  1  0  0  0
 16 31  1  0  0  0
 17 18  1  0  0  0
 17 98  1  0  0  0
 18 19  2  0  0  0
 18 99  1  0  0  0
 19 20  1  0  0  0
 19 24  1  0  0  0
 20 21  2  0  0  0
 20100  1  0  0  0
 21 23  1  0  0  0
 22 28  1  0  0  0
 22 32  2  0  0  0
 26 27  1  0  0  0
 28101  1  0  0  0
 28102  1  0  0  0
 29103  1  0  0  0
 29104  1  0  0  0
 33 34  1  0  0  0
 33 66  1  0  0  0
 33 70  2  0  0  0
 34 36  1  0  0  0
 34 59  1  0  0  0
 34105  1  0  0  0
 35 44  2  0  0  0
 35 45  1  0  0  0
 35 68  1  0  0  0
 36 56  1  0  0  0
 36106  1  0  0  0
 37 39  1  0  0  0
 37 47  1  0  0  0
 37 66  1  0  0  0
 37107  1  0  0  0
 38 43  2  0  0  0
 38 46  1  0  0  0
 38 47  1  0  0  0
 39 64  1  0  0  0
 39 67  2  0  0  0
 40 52  1  0  0  0
 40 53  2  0  0  0
 40 58  1  0  0  0
 41108  1  0  0  0
 41109  1  0  0  0
 41110  1  0  0  0
 41 48  1  0  0  0
 42 43  1  0  0  0
 42 66  1  0  0  0
 42111  1  0  0  0
 42112  1  0  0  0
 43 44  1  0  0  0
 44113  1  0  0  0
 45 46  2  0  0  0
 45114  1  0  0  0
 46115  1  0  0  0
 47116  1  0  0  0
 47117  1  0  0  0
 48 56  1  0  0  0
 48 65  1  0  0  0
 48118  1  0  0  0
 49 50  1  0  0  0
 49 53  1  0  0  0
 49 64  1  0  0  0
 49119  1  0  0  0
 50 51  1  0  0  0
 50120  1  0  0  0
 50121  1  0  0  0
 51 52  1  0  0  0
 51122  1  0  0  0
 51123  1  0  0  0
 52124  1  0  0  0
 52125  1  0  0  0
 53 54  1  0  0  0
 54 55  2  0  0  0
 54126  1  0  0  0
 55 57  1  0  0  0
 55127  1  0  0  0
 56 69  2  0  0  0
 57 58  2  0  0  0
 57128  1  0  0  0
 58129  1  0  0  0
 59 60  1  0  0  0
 59 61  1  0  0  0
 59 62  1  0  0  0
 60130  1  0  0  0
 60131  1  0  0  0
 60132  1  0  0  0
 61133  1  0  0  0
 61134  1  0  0  0
 61135  1  0  0  0
 62136  1  0  0  0
 62137  1  0  0  0
 62138  1  0  0  0
 63 65  1  0  0  0
 63139  1  0  0  0
 63140  1  0  0  0
 63141  1  0  0  0
 64142  1  0  0  0
 65143  1  0  0  0
 68 81  1  0  0  0
 71 72  2  0  0  0
 71 74  1  0  0  0
 71144  1  0  0  0
 72 75  1  0  0  0
 72145  1  0  0  0
 73 74  2  0  0  0
 73 76  1  0  0  0
 73146  1  0  0  0
 74 82  1  0  0  0
 75 76  2  0  0  0
 75 83  1  0  0  0
 76 84  1  0  0  0
 77 78  1  0  0  0
 77 79  1  0  0  0
 77147  1  0  0  0
 77148  1  0  0  0
 78 81  1  0  0  0
 78149  1  0  0  0
 78150  1  0  0  0
 79 82  1  0  0  0
 79151  1  0  0  0
 79152  1  0  0  0
 80 81  1  0  0  0
 80 82  1  0  0  0
 80153  1  0  0  0
 80154  1  0  0  0
 81155  1  0  0  0
 83156  1  0  0  0
M  ISO  4   1 100  68 101  81 101  83 100
M  END
> <chiral flag>
0

> <version>
0

> <s_m_source_file>
/data/baiqing/PycharmProjects/Reinvent-master-3.2/result/LINK_invent/BTK/process_docking_weight1_custom_product_contain_oxygen_bond_distance_aromatic_linkinvent_7_9_3/rearranged_h_0029.sdf

> <i_m_source_file_index>
61

> <r_mmod_Potential_Energy-OPLS-2005>
466.083404541016

> <r_mmod_Stretch_Energy-OPLS-2005>
217.427734375

> <r_mmod_Bend_Energy-OPLS-2005>
254.773681640625

> <r_mmod_Torsional_Energy-OPLS-2005>
297.748809814453

> <r_mmod_Improper_Torsional_Energy-OPLS-2005>
10.4552574157715

> <r_mmod_Van_der_Waal_Energy-OPLS-2005>
132.72395324707

> <r_mmod_Electrostatic_Energy-OPLS-2005>
-394.398162841797

> <r_mmod_Solvation_Energy-OPLS-2005>
-225.144165039062

> <b_mmod_Minimization_Converged-OPLS-2005>
0

> <r_mmod_RMS_Derivative-OPLS-2005>
4.19644021987915

$$$$
61
                    3D
 Structure written by MMmdl.
168177  0  0  1  0            999 V2000
  -30.6175  -14.7386   20.4702 C   0  0  0  0  0  0
  -30.4264  -12.4521   19.4758 C   0  0  0  0  0  0
  -29.5075  -12.5062   18.2365 C   0  0  0  0  0  0
  -28.0341  -12.3311   18.6496 C   0  0  0  0  0  0
  -27.6395  -13.2314   19.8509 C   0  0  2  0  0  0
  -28.6818  -13.1698   20.9877 C   0  0  0  0  0  0
  -25.2479  -13.8128   20.5608 C   0  0  0  0  0  0
  -24.1783  -13.0401   20.9176 C   0  0  0  0  0  0
  -24.6390  -11.6888   20.8752 C   0  0  0  0  0  0
  -23.9066  -10.4274   21.0415 C   0  0  0  0  0  0
  -24.3617   -9.4193   21.9192 C   0  0  0  0  0  0
  -23.6289   -8.2231   22.0757 C   0  0  0  0  0  0
  -22.4274   -8.0272   21.3545 C   0  0  0  0  0  0
  -21.9910   -9.0247   20.4648 C   0  0  0  0  0  0
  -22.7239  -10.2123   20.3059 C   0  0  0  0  0  0
  -21.6849   -6.0732   22.5278 C   0  0  0  0  0  0
  -21.4011   -6.5636   23.8211 C   0  0  0  0  0  0
  -21.3660   -5.6790   24.9173 C   0  0  0  0  0  0
  -21.6044   -4.3054   24.7225 C   0  0  0  0  0  0
  -21.8820   -3.8145   23.4346 C   0  0  0  0  0  0
  -21.9193   -4.6961   22.3402 C   0  0  0  0  0  0
  -22.7818  -13.5210   21.1850 C   0  0  0  0  0  0
  -22.1664   -4.2147   21.0981 F   0  0  0  0  0  0
  -21.5628   -3.4540   25.7738 F   0  0  0  0  0  0
  -29.9819  -13.5186   20.4045 N   0  0  0  0  0  0
  -26.2931  -12.9366   20.3285 N   0  0  0  0  0  0
  -25.9330  -11.6513   20.5785 N   0  0  0  0  0  0
  -22.0469  -12.8207   22.0418 N   0  0  0  0  0  0
  -25.4123  -15.1805   20.3894 N   0  0  0  0  0  0
  -31.8067  -14.8017   20.1475 O   0  0  0  0  0  0
  -21.6634   -6.8874   21.4240 O   0  0  0  0  0  0
  -22.3510  -14.5529   20.6717 O   0  0  0  0  0  0
  -24.6291  -31.8558   23.1972 C   0  0  0  0  0  0
  -25.9121  -32.4757   23.8322 C   0  0  1  0  0  0
  -27.2266  -27.2791   20.1429 C   0  0  0  0  0  0
  -25.5923  -33.8559   24.2252 N   0  0  0  0  0  0
  -23.4252  -30.4751   21.5404 C   0  0  2  0  0  0
  -24.8733  -28.9123   20.1197 C   0  0  0  0  0  0
  -22.7487  -29.4603   22.4927 C   0  0  0  0  0  0
  -18.0285  -28.1388   22.8483 C   0  0  0  0  0  0
  -24.1488  -36.7285   23.2641 C   0  0  0  0  0  0
  -25.9670  -30.7759   21.3705 C   0  0  0  0  0  0
  -26.0425  -29.3954   20.7214 C   0  0  0  0  0  0
  -27.2250  -28.5936   20.7140 C   0  0  0  0  0  0
  -26.0357  -26.8443   19.5285 C   0  0  0  0  0  0
  -24.8733  -27.6442   19.5129 C   0  0  0  0  0  0
  -23.6432  -29.7994   20.1598 C   0  0  0  0  0  0
  -25.4116  -36.3072   24.0327 C   0  0  1  0  0  0
  -20.5886  -28.3695   23.1278 C   0  0  2  0  0  0
  -20.6775  -26.9416   22.5413 C   0  0  0  0  0  0
  -19.5753  -26.6384   21.5214 C   0  0  0  0  0  0
  -18.1930  -26.7931   22.1620 C   0  0  0  0  0  0
  -19.1538  -28.8859   23.2875 C   0  0  0  0  0  0
  -18.9462  -30.1458   23.8896 C   0  0  0  0  0  0
  -17.6462  -30.6591   24.0562 C   0  0  0  0  0  0
  -25.9056  -34.9442   23.5095 C   0  0  0  0  0  0
  -16.5353  -29.9089   23.6331 C   0  0  0  0  0  0
  -16.7273  -28.6506   23.0354 C   0  0  0  0  0  0
  -26.4498  -31.6581   25.0707 C   0  0  0  0  0  0
  -25.3726  -31.3723   26.1431 C   0  0  0  0  0  0
  -27.0348  -30.3004   24.6179 C   0  0  0  0  0  0
  -27.6052  -32.4323   25.7482 C   0  0  0  0  0  0
  -27.5577  -37.1797   24.8467 C   0  0  0  0  0  0
  -21.4198  -29.3043   22.3670 N   0  0  0  0  0  0
  -26.4289  -37.3770   23.9410 N   0  0  0  0  0  0
  -24.6929  -31.0536   22.0933 N   0  0  0  0  0  0
  -23.4194  -28.8154   23.3029 O   0  0  0  0  0  0
  -28.3555  -26.4429   20.1068 O   0  0  0  0  0  0
  -26.5629  -34.8916   22.4665 O   0  0  0  0  0  0
  -23.5446  -32.1368   23.7281 O   0  0  0  0  0  0
  -31.9254  -19.0906   20.7424 C   0  0  0  0  0  0
  -30.9623  -20.1133   20.7054 C   0  0  0  0  0  0
  -31.5582  -17.7350   20.7329 C   0  0  0  0  0  0
  -29.5758  -19.8421   20.6524 C   0  0  0  0  0  0
  -29.2108  -18.4088   20.6418 C   0  0  0  0  0  0
  -30.2042  -17.3346   20.6754 C   0  0  0  0  0  0
  -25.7212  -18.9356   20.4521 C   0  0  0  0  0  0
  -25.8006  -18.2297   21.8114 C   0  0  0  0  0  0
  -26.9083  -18.3903   19.6544 C   0  0  0  0  0  0
  -27.2490  -17.7373   21.9444 C   0  0  0  0  0  0
  -27.9563  -21.2788   22.0724 C   0  0  0  0  0  0
  -28.2806  -23.7040   19.9111 C   0  0  0  0  0  0
  -28.3478  -25.0877   20.7446 C   0  0  0  0  0  0
  -28.6040  -21.1314   20.6849 C   0  0  1  0  0  0
  -27.8775  -17.9520   20.6466 N   0  0  0  0  0  0
  -29.8549  -15.8834   20.6837 N   0  0  0  0  0  0
  -29.1791  -22.5123   20.3175 N   0  3  0  0  0  0
  -31.4684  -12.5689   19.1734 H   0  0  0  0  0  0
  -30.3658  -11.4764   19.9607 H   0  0  0  0  0  0
  -29.7897  -11.7319   17.5218 H   0  0  0  0  0  0
  -29.6356  -13.4603   17.7226 H   0  0  0  0  0  0
  -27.8910  -11.2824   18.9129 H   0  0  0  0  0  0
  -27.3766  -12.5227   17.8008 H   0  0  0  0  0  0
  -27.6320  -14.2529   19.4699 H   0  0  0  0  0  0
  -28.7163  -12.1740   21.4320 H   0  0  0  0  0  0
  -28.4161  -13.8560   21.7936 H   0  0  0  0  0  0
  -25.2763   -9.5669   22.4766 H   0  0  0  0  0  0
  -23.9999   -7.4622   22.7476 H   0  0  0  0  0  0
  -21.0842   -8.8765   19.8953 H   0  0  0  0  0  0
  -22.3703  -10.9663   19.6166 H   0  0  0  0  0  0
  -21.1998   -7.6144   23.9713 H   0  0  0  0  0  0
  -21.1484   -6.0520   25.9076 H   0  0  0  0  0  0
  -22.0600   -2.7606   23.2845 H   0  0  0  0  0  0
  -22.4085  -11.9860   22.4789 H   0  0  0  0  0  0
  -21.1091  -13.1234   22.2635 H   0  0  0  0  0  0
  -24.6390  -15.8253   20.4996 H   0  0  0  0  0  0
  -26.2720  -15.6394   20.1179 H   0  0  0  0  0  0
  -26.7189  -32.5418   23.1067 H   0  0  0  0  0  0
  -25.0064  -33.9697   25.0394 H   0  0  0  0  0  0
  -22.7210  -31.2961   21.3901 H   0  0  0  0  0  0
  -23.3751  -35.9615   23.3305 H   0  0  0  0  0  0
  -24.3575  -36.8909   22.2055 H   0  0  0  0  0  0
  -23.7242  -37.6486   23.6668 H   0  0  0  0  0  0
  -26.0978  -31.5329   20.5961 H   0  0  0  0  0  0
  -26.8476  -30.8318   21.9991 H   0  0  0  0  0  0
  -28.1295  -28.9678   21.1724 H   0  0  0  0  0  0
  -26.0032  -25.8728   19.0557 H   0  0  0  0  0  0
  -23.9769  -27.2689   19.0388 H   0  0  0  0  0  0
  -23.7676  -30.5706   19.3988 H   0  0  0  0  0  0
  -22.7623  -29.2301   19.8579 H   0  0  0  0  0  0
  -25.1297  -36.1918   25.0820 H   0  0  0  0  0  0
  -20.9973  -28.3275   24.1400 H   0  0  0  0  0  0
  -20.5675  -26.2309   23.3616 H   0  0  0  0  0  0
  -21.6644  -26.7445   22.1207 H   0  0  0  0  0  0
  -19.6918  -25.6295   21.1245 H   0  0  0  0  0  0
  -19.6691  -27.3193   20.6743 H   0  0  0  0  0  0
  -17.4201  -26.6678   21.4021 H   0  0  0  0  0  0
  -18.0327  -26.0073   22.9017 H   0  0  0  0  0  0
  -19.7939  -30.7271   24.2269 H   0  0  0  0  0  0
  -17.5018  -31.6271   24.5163 H   0  0  0  0  0  0
  -15.5355  -30.2991   23.7660 H   0  0  0  0  0  0
  -15.8671  -28.0825   22.7076 H   0  0  0  0  0  0
  -24.5909  -30.7063   25.7761 H   0  0  0  0  0  0
  -24.8904  -32.2886   26.4845 H   0  0  0  0  0  0
  -25.8044  -30.8911   27.0215 H   0  0  0  0  0  0
  -26.2927  -29.6743   24.1211 H   0  0  0  0  0  0
  -27.4054  -29.7274   25.4689 H   0  0  0  0  0  0
  -27.8790  -30.4291   23.9400 H   0  0  0  0  0  0
  -27.2663  -33.3630   26.2043 H   0  0  0  0  0  0
  -28.3869  -32.6874   25.0314 H   0  0  0  0  0  0
  -28.0713  -31.8460   26.5410 H   0  0  0  0  0  0
  -28.2596  -38.0093   24.7509 H   0  0  0  0  0  0
  -28.1071  -36.2623   24.6296 H   0  0  0  0  0  0
  -27.2293  -37.1451   25.8869 H   0  0  0  0  0  0
  -20.9388  -29.8757   21.6864 H   0  0  0  0  0  0
  -26.0169  -38.2845   24.1407 H   0  0  0  0  0  0
  -32.9739  -19.3517   20.7933 H   0  0  0  0  0  0
  -31.3289  -21.1280   20.7420 H   0  0  0  0  0  0
  -32.3588  -17.0149   20.7882 H   0  0  0  0  0  0
  -25.8112  -20.0125   20.5876 H   0  0  0  0  0  0
  -24.7710  -18.7586   19.9465 H   0  0  0  0  0  0
  -25.1139  -17.3848   21.8409 H   0  0  0  0  0  0
  -25.5153  -18.8895   22.6315 H   0  0  0  0  0  0
  -27.3069  -19.1115   18.9406 H   0  0  0  0  0  0
  -26.5971  -17.5206   19.0741 H   0  0  0  0  0  0
  -27.2719  -16.6784   22.2068 H   0  0  0  0  0  0
  -27.7793  -18.2687   22.7363 H   0  0  0  0  0  0
  -27.4048  -20.3935   22.3644 H   0  0  0  0  0  0
  -27.2490  -22.1079   22.0985 H   0  0  0  0  0  0
  -28.7082  -21.4573   22.8410 H   0  0  0  0  0  0
  -28.5635  -23.9408   18.8856 H   0  0  0  0  0  0
  -27.2426  -23.3772   19.8441 H   0  0  0  0  0  0
  -29.2796  -25.0651   21.3094 H   0  0  0  0  0  0
  -27.5728  -25.0674   21.5120 H   0  0  0  0  0  0
  -27.8243  -20.9503   19.9498 H   0  0  0  0  0  0
  -28.8675  -15.7166   20.8031 H   0  0  0  0  0  0
  -29.7938  -22.8056   21.0599 H   0  0  0  0  0  0
  -29.7696  -22.3503   19.5164 H   0  0  0  0  0  0
  1 25  1  0  0  0
  1 30  2  0  0  0
  1 86  1  0  0  0
  2  3  1  0  0  0
  2 25  1  0  0  0
  2 88  1  0  0  0
  2 89  1  0  0  0
  3  4  1  0  0  0
  3 90  1  0  0  0
  3 91  1  0  0  0
  4  5  1  0  0  0
  4 92  1  0  0  0
  4 93  1  0  0  0
  5  6  1  0  0  0
  5 26  1  0  0  0
  5 94  1  0  0  0
  6 25  1  0  0  0
  6 95  1  0  0  0
  6 96  1  0  0  0
  7  8  2  0  0  0
  7 26  1  0  0  0
  7 29  1  0  0  0
  8  9  1  0  0  0
  8 22  1  0  0  0
  9 10  1  0  0  0
  9 27  2  0  0  0
 10 11  2  0  0  0
 10 15  1  0  0  0
 11 12  1  0  0  0
 11 97  1  0  0  0
 12 13  2  0  0  0
 12 98  1  0  0  0
 13 14  1  0  0  0
 13 31  1  0  0  0
 14 15  2  0  0  0
 14 99  1  0  0  0
 15100  1  0  0  0
 16 17  2  0  0  0
 16 21  1  0  0  0
 16 31  1  0  0  0
 17 18  1  0  0  0
 17101  1  0  0  0
 18 19  2  0  0  0
 18102  1  0  0  0
 19 20  1  0  0  0
 19 24  1  0  0  0
 20 21  2  0  0  0
 20103  1  0  0  0
 21 23  1  0  0  0
 22 28  1  0  0  0
 22 32  2  0  0  0
 26 27  1  0  0  0
 28104  1  0  0  0
 28105  1  0  0  0
 29106  1  0  0  0
 29107  1  0  0  0
 33 34  1  0  0  0
 33 66  1  0  0  0
 33 70  2  0  0  0
 34 36  1  0  0  0
 34 59  1  0  0  0
 34108  1  0  0  0
 35 44  2  0  0  0
 35 45  1  0  0  0
 35 68  1  0  0  0
 36 56  1  0  0  0
 36109  1  0  0  0
 37 39  1  0  0  0
 37 47  1  0  0  0
 37 66  1  0  0  0
 37110  1  0  0  0
 38 43  2  0  0  0
 38 46  1  0  0  0
 38 47  1  0  0  0
 39 64  1  0  0  0
 39 67  2  0  0  0
 40 52  1  0  0  0
 40 53  2  0  0  0
 40 58  1  0  0  0
 41111  1  0  0  0
 41112  1  0  0  0
 41113  1  0  0  0
 41 48  1  0  0  0
 42 43  1  0  0  0
 42 66  1  0  0  0
 42114  1  0  0  0
 42115  1  0  0  0
 43 44  1  0  0  0
 44116  1  0  0  0
 45 46  2  0  0  0
 45117  1  0  0  0
 46118  1  0  0  0
 47119  1  0  0  0
 47120  1  0  0  0
 48 56  1  0  0  0
 48 65  1  0  0  0
 48121  1  0  0  0
 49 50  1  0  0  0
 49 53  1  0  0  0
 49 64  1  0  0  0
 49122  1  0  0  0
 50 51  1  0  0  0
 50123  1  0  0  0
 50124  1  0  0  0
 51 52  1  0  0  0
 51125  1  0  0  0
 51126  1  0  0  0
 52127  1  0  0  0
 52128  1  0  0  0
 53 54  1  0  0  0
 54 55  2  0  0  0
 54129  1  0  0  0
 55 57  1  0  0  0
 55130  1  0  0  0
 56 69  2  0  0  0
 57 58  2  0  0  0
 57131  1  0  0  0
 58132  1  0  0  0
 59 60  1  0  0  0
 59 61  1  0  0  0
 59 62  1  0  0  0
 60133  1  0  0  0
 60134  1  0  0  0
 60135  1  0  0  0
 61136  1  0  0  0
 61137  1  0  0  0
 61138  1  0  0  0
 62139  1  0  0  0
 62140  1  0  0  0
 62141  1  0  0  0
 63 65  1  0  0  0
 63142  1  0  0  0
 63143  1  0  0  0
 63144  1  0  0  0
 64145  1  0  0  0
 65146  1  0  0  0
 68 83  1  0  0  0
 71 72  2  0  0  0
 71 73  1  0  0  0
 71147  1  0  0  0
 72 74  1  0  0  0
 72148  1  0  0  0
 73 76  2  0  0  0
 73149  1  0  0  0
 74 75  2  0  0  0
 74 84  1  0  0  0
 75 76  1  0  0  0
 75 85  1  0  0  0
 76 86  1  0  0  0
 77 78  1  0  0  0
 77 79  1  0  0  0
 77150  1  0  0  0
 77151  1  0  0  0
 78 80  1  0  0  0
 78152  1  0  0  0
 78153  1  0  0  0
 79 85  1  0  0  0
 79154  1  0  0  0
 79155  1  0  0  0
 80 85  1  0  0  0
 80156  1  0  0  0
 80157  1  0  0  0
 81158  1  0  0  0
 81159  1  0  0  0
 81160  1  0  0  0
 81 84  1  0  0  0
 82 83  1  0  0  0
 82 87  1  0  0  0
 82161  1  0  0  0
 82162  1  0  0  0
 83163  1  0  0  0
 83164  1  0  0  0
 84 87  1  0  0  0
 84165  1  0  0  0
 86166  1  0  0  0
 87167  1  0  0  0
 87168  1  0  0  0
M  CHG  1  87   1
M  ISO  4   1 100  68 101  83 101  86 100
M  END
> <chiral flag>
0

> <version>
0

> <s_m_source_file>
/data/baiqing/PycharmProjects/Reinvent-master-3.2/result/LINK_invent/BTK/process_docking_weight1_custom_product_contain_oxygen_bond_distance_aromatic_linkinvent_7_9_3/rearranged_h_0029.sdf

> <i_m_source_file_index>
62

> <r_mmod_Potential_Energy-OPLS-2005>
90.0048599243164

> <r_mmod_Stretch_Energy-OPLS-2005>
130.098190307617

> <r_mmod_Bend_Energy-OPLS-2005>
206.562576293945

> <r_mmod_Torsional_Energy-OPLS-2005>
343.225372314453

> <r_mmod_Improper_Torsional_Energy-OPLS-2005>
7.86120176315308

> <r_mmod_Van_der_Waal_Energy-OPLS-2005>
125.813819885254

> <r_mmod_Electrostatic_Energy-OPLS-2005>
-349.432037353516

> <r_mmod_Solvation_Energy-OPLS-2005>
-448.127319335938

> <b_mmod_Minimization_Converged-OPLS-2005>
0

> <r_mmod_RMS_Derivative-OPLS-2005>
0.428587555885315

$$$$
62
                    3D
 Structure written by MMmdl.
159168  0  0  1  0            999 V2000
  -30.4843  -14.9457   20.4202 C   0  0  0  0  0  0
  -30.4497  -12.5805   19.5027 C   0  0  0  0  0  0
  -29.5257  -12.5346   18.2610 C   0  0  0  0  0  0
  -28.0570  -12.3174   18.6752 C   0  0  0  0  0  0
  -27.6345  -13.2378   19.8493 C   0  0  2  0  0  0
  -28.6758  -13.2270   20.9894 C   0  0  0  0  0  0
  -25.2486  -13.8191   20.5717 C   0  0  0  0  0  0
  -24.1785  -13.0431   20.9229 C   0  0  0  0  0  0
  -24.6378  -11.6908   20.8752 C   0  0  0  0  0  0
  -23.9058  -10.4292   21.0414 C   0  0  0  0  0  0
  -24.3610   -9.4210   21.9193 C   0  0  0  0  0  0
  -23.6294   -8.2241   22.0749 C   0  0  0  0  0  0
  -22.4277   -8.0273   21.3539 C   0  0  0  0  0  0
  -21.9911   -9.0245   20.4642 C   0  0  0  0  0  0
  -22.7229  -10.2132   20.3062 C   0  0  0  0  0  0
  -21.6856   -6.0739   22.5279 C   0  0  0  0  0  0
  -21.4010   -6.5639   23.8210 C   0  0  0  0  0  0
  -21.3657   -5.6787   24.9169 C   0  0  0  0  0  0
  -21.6051   -4.3052   24.7219 C   0  0  0  0  0  0
  -21.8816   -3.8147   23.4339 C   0  0  0  0  0  0
  -21.9193   -4.6968   22.3399 C   0  0  0  0  0  0
  -22.7812  -13.5227   21.1878 C   0  0  0  0  0  0
  -22.1663   -4.2161   21.0977 F   0  0  0  0  0  0
  -21.5631   -3.4534   25.7730 F   0  0  0  0  0  0
  -29.9544  -13.6568   20.4055 N   0  0  0  0  0  0
  -26.2897  -12.9396   20.3278 N   0  0  0  0  0  0
  -25.9313  -11.6535   20.5756 N   0  0  0  0  0  0
  -22.0453  -12.8226   22.0432 N   0  0  0  0  0  0
  -25.4156  -15.1915   20.4117 N   0  0  0  0  0  0
  -31.6694  -15.0805   20.0883 O   0  0  0  0  0  0
  -21.6635   -6.8879   21.4237 O   0  0  0  0  0  0
  -22.3513  -14.5543   20.6728 O   0  0  0  0  0  0
  -24.6423  -31.8406   23.1872 C   0  0  0  0  0  0
  -25.9195  -32.4687   23.8259 C   0  0  1  0  0  0
  -27.2280  -27.1342   20.1588 C   0  0  0  0  0  0
  -25.5936  -33.8493   24.2183 N   0  0  0  0  0  0
  -23.4450  -30.4553   21.5319 C   0  0  2  0  0  0
  -24.8956  -28.8739   20.1091 C   0  0  0  0  0  0
  -22.7553  -29.4493   22.4870 C   0  0  0  0  0  0
  -18.0283  -28.1383   22.8487 C   0  0  0  0  0  0
  -24.1456  -36.7222   23.2660 C   0  0  0  0  0  0
  -25.9972  -30.7139   21.3830 C   0  0  0  0  0  0
  -26.0670  -29.3234   20.7274 C   0  0  0  0  0  0
  -27.2279  -28.4684   20.7332 C   0  0  0  0  0  0
  -26.0305  -26.7708   19.5097 C   0  0  0  0  0  0
  -24.8904  -27.6126   19.4853 C   0  0  0  0  0  0
  -23.6705  -29.7777   20.1517 C   0  0  0  0  0  0
  -25.4098  -36.3018   24.0330 C   0  0  1  0  0  0
  -20.5900  -28.3677   23.1262 C   0  0  2  0  0  0
  -20.6755  -26.9377   22.5428 C   0  0  0  0  0  0
  -19.5728  -26.6358   21.5230 C   0  0  0  0  0  0
  -18.1902  -26.7927   22.1627 C   0  0  0  0  0  0
  -19.1547  -28.8853   23.2866 C   0  0  0  0  0  0
  -18.9472  -30.1464   23.8861 C   0  0  0  0  0  0
  -17.6468  -30.6585   24.0555 C   0  0  0  0  0  0
  -25.9057  -34.9403   23.5058 C   0  0  0  0  0  0
  -16.5356  -29.9072   23.6354 C   0  0  0  0  0  0
  -16.7270  -28.6500   23.0365 C   0  0  0  0  0  0
  -26.4548  -31.6590   25.0713 C   0  0  0  0  0  0
  -25.3754  -31.3770   26.1424 C   0  0  0  0  0  0
  -27.0455  -30.3004   24.6292 C   0  0  0  0  0  0
  -27.6037  -32.4412   25.7505 C   0  0  0  0  0  0
  -27.5545  -37.1755   24.8480 C   0  0  0  0  0  0
  -21.4243  -29.3019   22.3647 N   0  0  0  0  0  0
  -26.4250  -37.3741   23.9431 N   0  0  0  0  0  0
  -24.7141  -31.0257   22.0895 N   0  0  0  0  0  0
  -23.4208  -28.8035   23.3007 O   0  0  0  0  0  0
  -28.3454  -26.2336   20.2564 O   0  0  0  0  0  0
  -26.5636  -34.8909   22.4636 O   0  0  0  0  0  0
  -23.5543  -32.1270   23.7104 O   0  0  0  0  0  0
  -29.9644  -19.8453   19.4756 C   0  0  0  0  0  0
  -30.2080  -18.4160   19.6224 C   0  0  0  0  0  0
  -28.3568  -19.7979   21.2012 C   0  0  0  0  0  0
  -28.6028  -18.3517   21.3576 C   0  0  0  0  0  0
  -29.0328  -20.6375   20.2409 C   0  0  0  0  0  0
  -29.5337  -17.5723   20.5635 C   0  0  0  0  0  0
  -28.2312  -24.0893   18.5715 C   0  0  0  0  0  0
  -28.8109  -22.6231   18.6048 C   0  0  0  0  0  0
  -28.4209  -23.3329   20.8228 C   0  0  0  0  0  0
  -28.5455  -24.7121   19.9387 C   0  0  2  0  0  0
  -27.2799  -20.4779   22.0434 C   0  0  0  0  0  0
  -27.8128  -17.5925   22.4230 C   0  0  0  0  0  0
  -28.7857  -22.0974   19.9803 N   0  0  0  0  0  0
  -29.6128  -16.0363   20.6856 N   0  0  0  0  0  0
  -31.4825  -12.7559   19.1974 H   0  0  0  0  0  0
  -30.4527  -11.6195   20.0196 H   0  0  0  0  0  0
  -29.8453  -11.7434   17.5819 H   0  0  0  0  0  0
  -29.6126  -13.4698   17.7055 H   0  0  0  0  0  0
  -27.9520  -11.2738   18.9732 H   0  0  0  0  0  0
  -27.3935  -12.4573   17.8204 H   0  0  0  0  0  0
  -27.6086  -14.2474   19.4384 H   0  0  0  0  0  0
  -28.7602  -12.2337   21.4322 H   0  0  0  0  0  0
  -28.3740  -13.8943   21.7988 H   0  0  0  0  0  0
  -25.2747   -9.5708   22.4776 H   0  0  0  0  0  0
  -24.0010   -7.4639   22.7468 H   0  0  0  0  0  0
  -21.0845   -8.8759   19.8950 H   0  0  0  0  0  0
  -22.3677  -10.9673   19.6180 H   0  0  0  0  0  0
  -21.1988   -7.6142   23.9727 H   0  0  0  0  0  0
  -21.1488   -6.0508   25.9079 H   0  0  0  0  0  0
  -22.0598   -2.7612   23.2829 H   0  0  0  0  0  0
  -22.4058  -11.9888   22.4830 H   0  0  0  0  0  0
  -21.1078  -13.1280   22.2645 H   0  0  0  0  0  0
  -24.6351  -15.8324   20.5020 H   0  0  0  0  0  0
  -26.2404  -15.6277   20.0214 H   0  0  0  0  0  0
  -26.7248  -32.5289   23.0972 H   0  0  0  0  0  0
  -25.0114  -33.9615   25.0351 H   0  0  0  0  0  0
  -22.7469  -31.2799   21.3764 H   0  0  0  0  0  0
  -23.3753  -35.9519   23.3309 H   0  0  0  0  0  0
  -24.3515  -36.8867   22.2074 H   0  0  0  0  0  0
  -23.7170  -37.6394   23.6708 H   0  0  0  0  0  0
  -26.1504  -31.4662   20.6086 H   0  0  0  0  0  0
  -26.8687  -30.7654   22.0244 H   0  0  0  0  0  0
  -28.1226  -28.8091   21.2352 H   0  0  0  0  0  0
  -25.9508  -25.8007   19.0449 H   0  0  0  0  0  0
  -23.9934  -27.2632   18.9951 H   0  0  0  0  0  0
  -23.8062  -30.5515   19.3952 H   0  0  0  0  0  0
  -22.7850  -29.2213   19.8409 H   0  0  0  0  0  0
  -25.1287  -36.1829   25.0822 H   0  0  0  0  0  0
  -20.9988  -28.3245   24.1388 H   0  0  0  0  0  0
  -20.5627  -26.2282   23.3641 H   0  0  0  0  0  0
  -21.6613  -26.7349   22.1225 H   0  0  0  0  0  0
  -19.6870  -25.6263   21.1257 H   0  0  0  0  0  0
  -19.6679  -27.3170   20.6762 H   0  0  0  0  0  0
  -17.4181  -26.6716   21.4011 H   0  0  0  0  0  0
  -18.0250  -26.0060   22.9005 H   0  0  0  0  0  0
  -19.7949  -30.7304   24.2187 H   0  0  0  0  0  0
  -17.5018  -31.6261   24.5156 H   0  0  0  0  0  0
  -15.5353  -30.2959   23.7709 H   0  0  0  0  0  0
  -15.8669  -28.0812   22.7094 H   0  0  0  0  0  0
  -24.5934  -30.7105   25.7764 H   0  0  0  0  0  0
  -24.8956  -32.2962   26.4799 H   0  0  0  0  0  0
  -25.8067  -30.8994   27.0231 H   0  0  0  0  0  0
  -26.3090  -29.6703   24.1293 H   0  0  0  0  0  0
  -27.4102  -29.7313   25.4854 H   0  0  0  0  0  0
  -27.8962  -30.4287   23.9592 H   0  0  0  0  0  0
  -27.2571  -33.3732   26.1985 H   0  0  0  0  0  0
  -28.3890  -32.6965   25.0379 H   0  0  0  0  0  0
  -28.0666  -31.8638   26.5518 H   0  0  0  0  0  0
  -28.2576  -38.0043   24.7522 H   0  0  0  0  0  0
  -28.1026  -36.2570   24.6308 H   0  0  0  0  0  0
  -27.2261  -37.1396   25.8886 H   0  0  0  0  0  0
  -20.9435  -29.8788   21.6887 H   0  0  0  0  0  0
  -26.0117  -38.2799   24.1471 H   0  0  0  0  0  0
  -30.5385  -20.3506   18.7123 H   0  0  0  0  0  0
  -30.9216  -17.9558   18.9540 H   0  0  0  0  0  0
  -27.1531  -24.0477   18.4215 H   0  0  0  0  0  0
  -28.6557  -24.6649   17.7482 H   0  0  0  0  0  0
  -29.8436  -22.6299   18.2525 H   0  0  0  0  0  0
  -28.2462  -21.9740   17.9335 H   0  0  0  0  0  0
  -27.3959  -23.2370   21.1815 H   0  0  0  0  0  0
  -29.0631  -23.3842   21.7023 H   0  0  0  0  0  0
  -29.6329  -24.7865   19.8919 H   0  0  0  0  0  0
  -26.5691  -19.7957   22.5032 H   0  0  0  0  0  0
  -26.6763  -21.1334   21.4166 H   0  0  0  0  0  0
  -27.7348  -21.0799   22.8295 H   0  0  0  0  0  0
  -27.7629  -18.1549   23.3549 H   0  0  0  0  0  0
  -28.2618  -16.6386   22.6941 H   0  0  0  0  0  0
  -26.7977  -17.3983   22.0751 H   0  0  0  0  0  0
  -28.7523  -15.6608   21.0527 H   0  0  0  0  0  0
  1 25  1  0  0  0
  1 30  2  0  0  0
  1 84  1  0  0  0
  2  3  1  0  0  0
  2 25  1  0  0  0
  2 85  1  0  0  0
  2 86  1  0  0  0
  3  4  1  0  0  0
  3 87  1  0  0  0
  3 88  1  0  0  0
  4  5  1  0  0  0
  4 89  1  0  0  0
  4 90  1  0  0  0
  5  6  1  0  0  0
  5 26  1  0  0  0
  5 91  1  0  0  0
  6 25  1  0  0  0
  6 92  1  0  0  0
  6 93  1  0  0  0
  7  8  2  0  0  0
  7 26  1  0  0  0
  7 29  1  0  0  0
  8  9  1  0  0  0
  8 22  1  0  0  0
  9 10  1  0  0  0
  9 27  2  0  0  0
 10 11  2  0  0  0
 10 15  1  0  0  0
 11 12  1  0  0  0
 11 94  1  0  0  0
 12 13  2  0  0  0
 12 95  1  0  0  0
 13 14  1  0  0  0
 13 31  1  0  0  0
 14 15  2  0  0  0
 14 96  1  0  0  0
 15 97  1  0  0  0
 16 17  2  0  0  0
 16 21  1  0  0  0
 16 31  1  0  0  0
 17 18  1  0  0  0
 17 98  1  0  0  0
 18 19  2  0  0  0
 18 99  1  0  0  0
 19 20  1  0  0  0
 19 24  1  0  0  0
 20 21  2  0  0  0
 20100  1  0  0  0
 21 23  1  0  0  0
 22 28  1  0  0  0
 22 32  2  0  0  0
 26 27  1  0  0  0
 28101  1  0  0  0
 28102  1  0  0  0
 29103  1  0  0  0
 29104  1  0  0  0
 33 34  1  0  0  0
 33 66  1  0  0  0
 33 70  2  0  0  0
 34 36  1  0  0  0
 34 59  1  0  0  0
 34105  1  0  0  0
 35 44  2  0  0  0
 35 45  1  0  0  0
 35 68  1  0  0  0
 36 56  1  0  0  0
 36106  1  0  0  0
 37 39  1  0  0  0
 37 47  1  0  0  0
 37 66  1  0  0  0
 37107  1  0  0  0
 38 43  2  0  0  0
 38 46  1  0  0  0
 38 47  1  0  0  0
 39 64  1  0  0  0
 39 67  2  0  0  0
 40 52  1  0  0  0
 40 53  2  0  0  0
 40 58  1  0  0  0
 41108  1  0  0  0
 41109  1  0  0  0
 41110  1  0  0  0
 41 48  1  0  0  0
 42 43  1  0  0  0
 42 66  1  0  0  0
 42111  1  0  0  0
 42112  1  0  0  0
 43 44  1  0  0  0
 44113  1  0  0  0
 45 46  2  0  0  0
 45114  1  0  0  0
 46115  1  0  0  0
 47116  1  0  0  0
 47117  1  0  0  0
 48 56  1  0  0  0
 48 65  1  0  0  0
 48118  1  0  0  0
 49 50  1  0  0  0
 49 53  1  0  0  0
 49 64  1  0  0  0
 49119  1  0  0  0
 50 51  1  0  0  0
 50120  1  0  0  0
 50121  1  0  0  0
 51 52  1  0  0  0
 51122  1  0  0  0
 51123  1  0  0  0
 52124  1  0  0  0
 52125  1  0  0  0
 53 54  1  0  0  0
 54 55  2  0  0  0
 54126  1  0  0  0
 55 57  1  0  0  0
 55127  1  0  0  0
 56 69  2  0  0  0
 57 58  2  0  0  0
 57128  1  0  0  0
 58129  1  0  0  0
 59 60  1  0  0  0
 59 61  1  0  0  0
 59 62  1  0  0  0
 60130  1  0  0  0
 60131  1  0  0  0
 60132  1  0  0  0
 61133  1  0  0  0
 61134  1  0  0  0
 61135  1  0  0  0
 62136  1  0  0  0
 62137  1  0  0  0
 62138  1  0  0  0
 63 65  1  0  0  0
 63139  1  0  0  0
 63140  1  0  0  0
 63141  1  0  0  0
 64142  1  0  0  0
 65143  1  0  0  0
 68 80  1  0  0  0
 71 72  2  0  0  0
 71 75  1  0  0  0
 71144  1  0  0  0
 72 76  1  0  0  0
 72145  1  0  0  0
 73 74  1  0  0  0
 73 75  2  0  0  0
 73 81  1  0  0  0
 74 76  2  0  0  0
 74 82  1  0  0  0
 75 83  1  0  0  0
 76 84  1  0  0  0
 77 78  1  0  0  0
 77 80  1  0  0  0
 77146  1  0  0  0
 77147  1  0  0  0
 78 83  1  0  0  0
 78148  1  0  0  0
 78149  1  0  0  0
 79 80  1  0  0  0
 79 83  1  0  0  0
 79150  1  0  0  0
 79151  1  0  0  0
 80152  1  0  0  0
 81153  1  0  0  0
 81154  1  0  0  0
 81155  1  0  0  0
 82156  1  0  0  0
 82157  1  0  0  0
 82158  1  0  0  0
 84159  1  0  0  0
M  ISO  4   1 100  68 101  80 101  84 100
M  END
> <chiral flag>
0

> <version>
0

> <s_m_source_file>
/data/baiqing/PycharmProjects/Reinvent-master-3.2/result/LINK_invent/BTK/process_docking_weight1_custom_product_contain_oxygen_bond_distance_aromatic_linkinvent_7_9_3/rearranged_h_0029.sdf

> <i_m_source_file_index>
63

> <r_mmod_Potential_Energy-OPLS-2005>
549.81884765625

> <r_mmod_Stretch_Energy-OPLS-2005>
226.096633911133

> <r_mmod_Bend_Energy-OPLS-2005>
382.270416259766

> <r_mmod_Torsional_Energy-OPLS-2005>
260.527221679688

> <r_mmod_Improper_Torsional_Energy-OPLS-2005>
4.01367568969727

> <r_mmod_Van_der_Waal_Energy-OPLS-2005>
131.998504638672

> <r_mmod_Electrostatic_Energy-OPLS-2005>
-418.219482421875

> <r_mmod_Solvation_Energy-OPLS-2005>
-223.528396606445

> <b_mmod_Minimization_Converged-OPLS-2005>
0

> <r_mmod_RMS_Derivative-OPLS-2005>
1.61485481262207

$$$$
63
                    3D
 Structure written by MMmdl.
160169  0  0  1  0            999 V2000
  -30.5598  -14.8272   20.4527 C   0  0  0  0  0  0
  -30.4395  -12.5145   19.4670 C   0  0  0  0  0  0
  -29.5100  -12.5112   18.2339 C   0  0  0  0  0  0
  -28.0383  -12.3198   18.6539 C   0  0  0  0  0  0
  -27.6304  -13.2336   19.8394 C   0  0  2  0  0  0
  -28.6772  -13.2068   20.9711 C   0  0  0  0  0  0
  -25.2466  -13.8196   20.5699 C   0  0  0  0  0  0
  -24.1777  -13.0423   20.9232 C   0  0  0  0  0  0
  -24.6385  -11.6909   20.8785 C   0  0  0  0  0  0
  -23.9087  -10.4281   21.0439 C   0  0  0  0  0  0
  -24.3630   -9.4190   21.9201 C   0  0  0  0  0  0
  -23.6294   -8.2229   22.0755 C   0  0  0  0  0  0
  -22.4275   -8.0285   21.3545 C   0  0  0  0  0  0
  -21.9931   -9.0267   20.4651 C   0  0  0  0  0  0
  -22.7269  -10.2136   20.3074 C   0  0  0  0  0  0
  -21.6845   -6.0751   22.5278 C   0  0  0  0  0  0
  -21.4014   -6.5651   23.8212 C   0  0  0  0  0  0
  -21.3657   -5.6800   24.9171 C   0  0  0  0  0  0
  -21.6035   -4.3062   24.7224 C   0  0  0  0  0  0
  -21.8813   -3.8161   23.4344 C   0  0  0  0  0  0
  -21.9189   -4.6979   22.3403 C   0  0  0  0  0  0
  -22.7799  -13.5205   21.1884 C   0  0  0  0  0  0
  -22.1650   -4.2170   21.0978 F   0  0  0  0  0  0
  -21.5629   -3.4540   25.7733 F   0  0  0  0  0  0
  -29.9599  -13.5873   20.3680 N   0  0  0  0  0  0
  -26.2874  -12.9396   20.3250 N   0  0  0  0  0  0
  -25.9303  -11.6541   20.5773 N   0  0  0  0  0  0
  -22.0452  -12.8190   22.0448 N   0  0  0  0  0  0
  -25.4141  -15.1923   20.4088 N   0  0  0  0  0  0
  -31.7773  -14.9165   20.2633 O   0  0  0  0  0  0
  -21.6621   -6.8890   21.4238 O   0  0  0  0  0  0
  -22.3483  -14.5501   20.6722 O   0  0  0  0  0  0
  -24.6378  -31.8488   23.1922 C   0  0  0  0  0  0
  -25.9169  -32.4725   23.8303 C   0  0  1  0  0  0
  -27.2196  -27.2027   20.1484 C   0  0  0  0  0  0
  -25.5938  -33.8526   24.2215 N   0  0  0  0  0  0
  -23.4380  -30.4679   21.5379 C   0  0  2  0  0  0
  -24.8877  -28.9006   20.1146 C   0  0  0  0  0  0
  -22.7539  -29.4561   22.4905 C   0  0  0  0  0  0
  -18.0297  -28.1395   22.8486 C   0  0  0  0  0  0
  -24.1489  -36.7269   23.2645 C   0  0  0  0  0  0
  -25.9884  -30.7457   21.3776 C   0  0  0  0  0  0
  -26.0621  -29.3612   20.7220 C   0  0  0  0  0  0
  -27.2337  -28.5287   20.7178 C   0  0  0  0  0  0
  -26.0218  -26.8169   19.5128 C   0  0  0  0  0  0
  -24.8761  -27.6411   19.4949 C   0  0  0  0  0  0
  -23.6601  -29.7945   20.1576 C   0  0  0  0  0  0
  -25.4122  -36.3053   24.0318 C   0  0  1  0  0  0
  -20.5907  -28.3701   23.1267 C   0  0  2  0  0  0
  -20.6781  -26.9405   22.5421 C   0  0  0  0  0  0
  -19.5752  -26.6384   21.5226 C   0  0  0  0  0  0
  -18.1936  -26.7940   22.1635 C   0  0  0  0  0  0
  -19.1552  -28.8871   23.2871 C   0  0  0  0  0  0
  -18.9465  -30.1473   23.8884 C   0  0  0  0  0  0
  -17.6458  -30.6596   24.0558 C   0  0  0  0  0  0
  -25.9068  -34.9418   23.5077 C   0  0  0  0  0  0
  -16.5354  -29.9086   23.6331 C   0  0  0  0  0  0
  -16.7280  -28.6508   23.0355 C   0  0  0  0  0  0
  -26.4517  -31.6572   25.0718 C   0  0  0  0  0  0
  -25.3703  -31.3742   26.1409 C   0  0  0  0  0  0
  -27.0367  -30.2987   24.6234 C   0  0  0  0  0  0
  -27.6073  -32.4314   25.7501 C   0  0  0  0  0  0
  -27.5576  -37.1802   24.8467 C   0  0  0  0  0  0
  -21.4245  -29.3030   22.3641 N   0  0  0  0  0  0
  -26.4297  -37.3755   23.9406 N   0  0  0  0  0  0
  -24.7082  -31.0413   22.0917 N   0  0  0  0  0  0
  -23.4217  -28.8093   23.3023 O   0  0  0  0  0  0
  -28.3000  -26.2767   20.1895 O   0  0  0  0  0  0
  -26.5648  -34.8906   22.4654 O   0  0  0  0  0  0
  -23.5510  -32.1333   23.7175 O   0  0  0  0  0  0
  -30.2832  -17.5096   22.2357 C   0  0  0  0  0  0
  -29.4767  -18.6162   20.2371 C   0  0  0  0  0  0
  -30.3140  -18.7628   22.8844 C   0  0  0  0  0  0
  -29.5324  -19.9593   20.8446 C   0  0  0  0  0  0
  -29.9797  -19.9738   22.2023 C   0  0  0  0  0  0
  -29.8754  -17.3672   20.8997 C   0  0  0  0  0  0
  -29.2147  -23.8695   21.0236 C   0  0  0  0  0  0
  -27.9600  -23.6144   19.4982 C   0  0  0  0  0  0
  -28.0476  -24.8038   20.5263 C   0  0  2  0  0  0
  -30.7223  -18.7595   24.3536 C   0  0  0  0  0  0
  -30.1335  -21.2987   22.9394 C   0  0  0  0  0  0
  -29.2713  -21.3520   20.0164 C   0  0  0  0  0  0
  -29.7382  -15.9632   20.3908 N   0  0  0  0  0  0
  -28.5125  -22.6365   20.5101 N   0  3  1  0  0  0
  -31.4723  -12.6798   19.1560 H   0  0  0  0  0  0
  -30.4259  -11.5484   19.9740 H   0  0  0  0  0  0
  -29.8059  -11.7240   17.5398 H   0  0  0  0  0  0
  -29.6165  -13.4534   17.6942 H   0  0  0  0  0  0
  -27.9073  -11.2749   18.9353 H   0  0  0  0  0  0
  -27.3790  -12.4892   17.8019 H   0  0  0  0  0  0
  -27.6082  -14.2466   19.4383 H   0  0  0  0  0  0
  -28.7379  -12.2189   21.4302 H   0  0  0  0  0  0
  -28.4030  -13.9060   21.7640 H   0  0  0  0  0  0
  -25.2779   -9.5639   22.4779 H   0  0  0  0  0  0
  -23.9997   -7.4610   22.7461 H   0  0  0  0  0  0
  -21.0870   -8.8796   19.8956 H   0  0  0  0  0  0
  -22.3746  -10.9677   19.6187 H   0  0  0  0  0  0
  -21.2002   -7.6157   23.9724 H   0  0  0  0  0  0
  -21.1486   -6.0529   25.9074 H   0  0  0  0  0  0
  -22.0601   -2.7631   23.2833 H   0  0  0  0  0  0
  -22.4080  -11.9855   22.4824 H   0  0  0  0  0  0
  -21.1070  -13.1217   22.2657 H   0  0  0  0  0  0
  -24.6458  -15.8460   20.5204 H   0  0  0  0  0  0
  -26.2560  -15.6336   20.0625 H   0  0  0  0  0  0
  -26.7229  -32.5362   23.1034 H   0  0  0  0  0  0
  -25.0046  -33.9658   25.0334 H   0  0  0  0  0  0
  -22.7366  -31.2905   21.3859 H   0  0  0  0  0  0
  -23.3753  -35.9600   23.3311 H   0  0  0  0  0  0
  -24.3568  -36.8899   22.2059 H   0  0  0  0  0  0
  -23.7240  -37.6473   23.6664 H   0  0  0  0  0  0
  -26.1296  -31.5000   20.6022 H   0  0  0  0  0  0
  -26.8650  -30.8019   22.0106 H   0  0  0  0  0  0
  -28.1346  -28.8767   21.2025 H   0  0  0  0  0  0
  -25.9538  -25.8484   19.0379 H   0  0  0  0  0  0
  -23.9759  -27.2839   19.0149 H   0  0  0  0  0  0
  -23.7886  -30.5675   19.3987 H   0  0  0  0  0  0
  -22.7768  -29.2302   19.8531 H   0  0  0  0  0  0
  -25.1305  -36.1908   25.0811 H   0  0  0  0  0  0
  -20.9993  -28.3285   24.1393 H   0  0  0  0  0  0
  -20.5688  -26.2301   23.3630 H   0  0  0  0  0  0
  -21.6642  -26.7427   22.1199 H   0  0  0  0  0  0
  -19.6906  -25.6296   21.1253 H   0  0  0  0  0  0
  -19.6701  -27.3195   20.6756 H   0  0  0  0  0  0
  -17.4204  -26.6693   21.4038 H   0  0  0  0  0  0
  -18.0322  -26.0097   22.9039 H   0  0  0  0  0  0
  -19.7935  -30.7300   24.2249 H   0  0  0  0  0  0
  -17.5006  -31.6269   24.5158 H   0  0  0  0  0  0
  -15.5349  -30.2973   23.7676 H   0  0  0  0  0  0
  -15.8685  -28.0819   22.7076 H   0  0  0  0  0  0
  -24.5898  -30.7080   25.7722 H   0  0  0  0  0  0
  -24.8857  -32.2904   26.4787 H   0  0  0  0  0  0
  -25.7978  -30.8949   27.0216 H   0  0  0  0  0  0
  -26.2959  -29.6748   24.1218 H   0  0  0  0  0  0
  -27.3996  -29.7263   25.4784 H   0  0  0  0  0  0
  -27.8850  -30.4279   23.9509 H   0  0  0  0  0  0
  -27.2691  -33.3629   26.2052 H   0  0  0  0  0  0
  -28.3887  -32.6853   25.0323 H   0  0  0  0  0  0
  -28.0710  -31.8441   26.5437 H   0  0  0  0  0  0
  -28.2601  -38.0094   24.7488 H   0  0  0  0  0  0
  -28.1069  -36.2624   24.6318 H   0  0  0  0  0  0
  -27.2280  -37.1454   25.8869 H   0  0  0  0  0  0
  -20.9458  -29.8742   21.6817 H   0  0  0  0  0  0
  -26.0175  -38.2834   24.1408 H   0  0  0  0  0  0
  -30.5387  -16.6219   22.7962 H   0  0  0  0  0  0
  -29.1391  -18.5472   19.2116 H   0  0  0  0  0  0
  -30.1626  -24.0678   20.5191 H   0  0  0  0  0  0
  -29.3442  -23.8966   22.1046 H   0  0  0  0  0  0
  -26.9438  -23.3786   19.1802 H   0  0  0  0  0  0
  -28.6160  -23.7413   18.6333 H   0  0  0  0  0  0
  -27.2184  -24.7457   21.2355 H   0  0  0  0  0  0
  -30.0034  -19.3078   24.9622 H   0  0  0  0  0  0
  -31.7033  -19.2163   24.4829 H   0  0  0  0  0  0
  -30.7737  -17.7501   24.7652 H   0  0  0  0  0  0
  -29.1571  -21.7254   23.1695 H   0  0  0  0  0  0
  -30.7120  -21.9955   22.3370 H   0  0  0  0  0  0
  -30.6732  -21.2242   23.8799 H   0  0  0  0  0  0
  -28.7228  -21.0364   19.1294 H   0  0  0  0  0  0
  -30.2393  -21.6772   19.6358 H   0  0  0  0  0  0
  -28.7972  -15.7337   20.1138 H   0  0  0  0  0  0
  -27.7654  -22.3650   21.1297 H   0  0  0  0  0  0
  1 25  1  0  0  0
  1 30  2  0  0  0
  1 83  1  0  0  0
  2  3  1  0  0  0
  2 25  1  0  0  0
  2 85  1  0  0  0
  2 86  1  0  0  0
  3  4  1  0  0  0
  3 87  1  0  0  0
  3 88  1  0  0  0
  4  5  1  0  0  0
  4 89  1  0  0  0
  4 90  1  0  0  0
  5  6  1  0  0  0
  5 26  1  0  0  0
  5 91  1  0  0  0
  6 25  1  0  0  0
  6 92  1  0  0  0
  6 93  1  0  0  0
  7  8  2  0  0  0
  7 26  1  0  0  0
  7 29  1  0  0  0
  8  9  1  0  0  0
  8 22  1  0  0  0
  9 10  1  0  0  0
  9 27  2  0  0  0
 10 11  2  0  0  0
 10 15  1  0  0  0
 11 12  1  0  0  0
 11 94  1  0  0  0
 12 13  2  0  0  0
 12 95  1  0  0  0
 13 14  1  0  0  0
 13 31  1  0  0  0
 14 15  2  0  0  0
 14 96  1  0  0  0
 15 97  1  0  0  0
 16 17  2  0  0  0
 16 21  1  0  0  0
 16 31  1  0  0  0
 17 18  1  0  0  0
 17 98  1  0  0  0
 18 19  2  0  0  0
 18 99  1  0  0  0
 19 20  1  0  0  0
 19 24  1  0  0  0
 20 21  2  0  0  0
 20100  1  0  0  0
 21 23  1  0  0  0
 22 28  1  0  0  0
 22 32  2  0  0  0
 26 27  1  0  0  0
 28101  1  0  0  0
 28102  1  0  0  0
 29103  1  0  0  0
 29104  1  0  0  0
 33 34  1  0  0  0
 33 66  1  0  0  0
 33 70  2  0  0  0
 34 36  1  0  0  0
 34 59  1  0  0  0
 34105  1  0  0  0
 35 44  2  0  0  0
 35 45  1  0  0  0
 35 68  1  0  0  0
 36 56  1  0  0  0
 36106  1  0  0  0
 37 39  1  0  0  0
 37 47  1  0  0  0
 37 66  1  0  0  0
 37107  1  0  0  0
 38 43  2  0  0  0
 38 46  1  0  0  0
 38 47  1  0  0  0
 39 64  1  0  0  0
 39 67  2  0  0  0
 40 52  1  0  0  0
 40 53  2  0  0  0
 40 58  1  0  0  0
 41108  1  0  0  0
 41109  1  0  0  0
 41110  1  0  0  0
 41 48  1  0  0  0
 42 43  1  0  0  0
 42 66  1  0  0  0
 42111  1  0  0  0
 42112  1  0  0  0
 43 44  1  0  0  0
 44113  1  0  0  0
 45 46  2  0  0  0
 45114  1  0  0  0
 46115  1  0  0  0
 47116  1  0  0  0
 47117  1  0  0  0
 48 56  1  0  0  0
 48 65  1  0  0  0
 48118  1  0  0  0
 49 50  1  0  0  0
 49 53  1  0  0  0
 49 64  1  0  0  0
 49119  1  0  0  0
 50 51  1  0  0  0
 50120  1  0  0  0
 50121  1  0  0  0
 51 52  1  0  0  0
 51122  1  0  0  0
 51123  1  0  0  0
 52124  1  0  0  0
 52125  1  0  0  0
 53 54  1  0  0  0
 54 55  2  0  0  0
 54126  1  0  0  0
 55 57  1  0  0  0
 55127  1  0  0  0
 56 69  2  0  0  0
 57 58  2  0  0  0
 57128  1  0  0  0
 58129  1  0  0  0
 59 60  1  0  0  0
 59 61  1  0  0  0
 59 62  1  0  0  0
 60130  1  0  0  0
 60131  1  0  0  0
 60132  1  0  0  0
 61133  1  0  0  0
 61134  1  0  0  0
 61135  1  0  0  0
 62136  1  0  0  0
 62137  1  0  0  0
 62138  1  0  0  0
 63 65  1  0  0  0
 63139  1  0  0  0
 63140  1  0  0  0
 63141  1  0  0  0
 64142  1  0  0  0
 65143  1  0  0  0
 68 79  1  0  0  0
 71 73  2  0  0  0
 71 76  1  0  0  0
 71144  1  0  0  0
 72 74  1  0  0  0
 72 76  2  0  0  0
 72145  1  0  0  0
 73 75  1  0  0  0
 73 80  1  0  0  0
 74 75  2  0  0  0
 74 82  1  0  0  0
 75 81  1  0  0  0
 76 83  1  0  0  0
 77 79  1  0  0  0
 77 84  1  0  0  0
 77146  1  0  0  0
 77147  1  0  0  0
 78 79  1  0  0  0
 78 84  1  0  0  0
 78148  1  0  0  0
 78149  1  0  0  0
 79150  1  0  0  0
 80151  1  0  0  0
 80152  1  0  0  0
 80153  1  0  0  0
 81154  1  0  0  0
 81155  1  0  0  0
 81156  1  0  0  0
 82157  1  0  0  0
 82158  1  0  0  0
 82 84  1  0  0  0
 83159  1  0  0  0
 84160  1  0  0  0
M  CHG  1  84   1
M  ISO  4   1 100  68 101  79 101  83 100
M  END
> <chiral flag>
0

> <version>
0

> <s_m_source_file>
/data/baiqing/PycharmProjects/Reinvent-master-3.2/result/LINK_invent/BTK/process_docking_weight1_custom_product_contain_oxygen_bond_distance_aromatic_linkinvent_7_9_3/rearranged_h_0029.sdf

> <i_m_source_file_index>
64

> <r_mmod_Potential_Energy-OPLS-2005>
140.638473510742

> <r_mmod_Stretch_Energy-OPLS-2005>
169.072952270508

> <r_mmod_Bend_Energy-OPLS-2005>
230.932250976562

> <r_mmod_Torsional_Energy-OPLS-2005>
263.515991210938

> <r_mmod_Improper_Torsional_Energy-OPLS-2005>
11.0160760879517

> <r_mmod_Van_der_Waal_Energy-OPLS-2005>
137.087966918945

> <r_mmod_Electrostatic_Energy-OPLS-2005>
-319.744415283203

> <r_mmod_Solvation_Energy-OPLS-2005>
-480.593902587891

> <b_mmod_Minimization_Converged-OPLS-2005>
0

> <r_mmod_RMS_Derivative-OPLS-2005>
2.231614112854

$$$$
64
                    3D
 Structure written by MMmdl.
174184  0  0  1  0            999 V2000
  -30.5909  -14.6555   20.5074 C   0  0  0  0  0  0
  -30.4484  -12.4067   19.4483 C   0  0  0  0  0  0
  -29.5123  -12.5129   18.2220 C   0  0  0  0  0  0
  -28.0358  -12.3406   18.6346 C   0  0  0  0  0  0
  -27.6537  -13.2100   19.8606 C   0  0  2  0  0  0
  -28.6965  -13.0527   20.9903 C   0  0  0  0  0  0
  -25.2557  -13.8139   20.5647 C   0  0  0  0  0  0
  -24.1832  -13.0422   20.9210 C   0  0  0  0  0  0
  -24.6400  -11.6896   20.8764 C   0  0  0  0  0  0
  -23.9071  -10.4282   21.0429 C   0  0  0  0  0  0
  -24.3628   -9.4192   21.9197 C   0  0  0  0  0  0
  -23.6296   -8.2229   22.0764 C   0  0  0  0  0  0
  -22.4273   -8.0283   21.3556 C   0  0  0  0  0  0
  -21.9914   -9.0257   20.4652 C   0  0  0  0  0  0
  -22.7252  -10.2131   20.3067 C   0  0  0  0  0  0
  -21.6849   -6.0744   22.5294 C   0  0  0  0  0  0
  -21.4009   -6.5645   23.8229 C   0  0  0  0  0  0
  -21.3653   -5.6796   24.9189 C   0  0  0  0  0  0
  -21.6049   -4.3061   24.7236 C   0  0  0  0  0  0
  -21.8819   -3.8155   23.4355 C   0  0  0  0  0  0
  -21.9189   -4.6972   22.3413 C   0  0  0  0  0  0
  -22.7852  -13.5222   21.1868 C   0  0  0  0  0  0
  -22.1656   -4.2162   21.0985 F   0  0  0  0  0  0
  -21.5630   -3.4540   25.7743 F   0  0  0  0  0  0
  -30.0112  -13.4146   20.4347 N   0  0  0  0  0  0
  -26.2987  -12.9316   20.3282 N   0  0  0  0  0  0
  -25.9323  -11.6485   20.5750 N   0  0  0  0  0  0
  -22.0472  -12.8223   22.0415 N   0  0  0  0  0  0
  -25.4240  -15.1848   20.3972 N   0  0  0  0  0  0
  -31.7506  -14.8494   20.1297 O   0  0  0  0  0  0
  -21.6634   -6.8887   21.4254 O   0  0  0  0  0  0
  -22.3547  -14.5528   20.6712 O   0  0  0  0  0  0
  -24.6245  -31.8609   23.2032 C   0  0  0  0  0  0
  -25.9100  -32.4787   23.8356 C   0  0  1  0  0  0
  -27.2226  -27.3299   20.1327 C   0  0  0  0  0  0
  -25.5922  -33.8585   24.2293 N   0  0  0  0  0  0
  -23.4180  -30.4831   21.5444 C   0  0  2  0  0  0
  -24.8664  -28.9367   20.1131 C   0  0  0  0  0  0
  -22.7464  -29.4632   22.4944 C   0  0  0  0  0  0
  -18.0280  -28.1385   22.8489 C   0  0  0  0  0  0
  -24.1493  -36.7293   23.2632 C   0  0  0  0  0  0
  -25.9562  -30.7951   21.3733 C   0  0  0  0  0  0
  -26.0307  -29.4200   20.7245 C   0  0  0  0  0  0
  -27.2135  -28.6259   20.7268 C   0  0  0  0  0  0
  -26.0520  -26.9061   19.4724 C   0  0  0  0  0  0
  -24.8775  -27.6835   19.4777 C   0  0  0  0  0  0
  -23.6325  -29.8143   20.1605 C   0  0  0  0  0  0
  -25.4116  -36.3088   24.0327 C   0  0  1  0  0  0
  -20.5879  -28.3687   23.1291 C   0  0  2  0  0  0
  -20.6773  -26.9412   22.5416 C   0  0  0  0  0  0
  -19.5747  -26.6386   21.5215 C   0  0  0  0  0  0
  -18.1923  -26.7929   22.1621 C   0  0  0  0  0  0
  -19.1533  -28.8848   23.2887 C   0  0  0  0  0  0
  -18.9455  -30.1444   23.8913 C   0  0  0  0  0  0
  -17.6458  -30.6586   24.0561 C   0  0  0  0  0  0
  -25.9050  -34.9456   23.5110 C   0  0  0  0  0  0
  -16.5350  -29.9086   23.6329 C   0  0  0  0  0  0
  -16.7269  -28.6502   23.0356 C   0  0  0  0  0  0
  -26.4489  -31.6582   25.0714 C   0  0  0  0  0  0
  -25.3727  -31.3704   26.1443 C   0  0  0  0  0  0
  -27.0312  -30.3009   24.6137 C   0  0  0  0  0  0
  -27.6073  -32.4284   25.7481 C   0  0  0  0  0  0
  -27.5584  -37.1798   24.8460 C   0  0  0  0  0  0
  -21.4179  -29.3044   22.3686 N   0  0  0  0  0  0
  -26.4296  -37.3786   23.9404 N   0  0  0  0  0  0
  -24.6848  -31.0629   22.0980 N   0  0  0  0  0  0
  -23.4195  -28.8176   23.3024 O   0  0  0  0  0  0
  -28.3493  -26.5028   20.1301 O   0  0  0  0  0  0
  -26.5618  -34.8918   22.4675 O   0  0  0  0  0  0
  -23.5412  -32.1405   23.7369 O   0  0  0  0  0  0
  -30.8754  -17.9625   20.6479 C   0  0  0  0  0  0
  -28.4925  -17.7817   20.4599 C   0  0  0  0  0  0
  -30.7839  -19.3794   20.4334 C   0  0  0  0  0  0
  -29.5286  -20.0255   20.1670 C   0  0  0  0  0  0
  -29.7351  -17.1185   20.6368 C   0  0  0  0  0  0
  -28.3850  -19.1812   20.2164 C   0  0  0  0  0  0
  -28.8825  -23.9783   19.9053 C   0  0  0  0  0  0
  -27.1512  -23.3104   22.1566 C   0  0  0  0  0  0
  -34.3792  -19.5521   17.6518 C   0  0  0  0  0  0
  -35.0347  -20.7018   18.4136 C   0  0  0  0  0  0
  -27.0213  -24.6896   21.4609 C   0  0  0  0  0  0
  -28.4260  -22.4969   21.8047 C   0  0  0  0  0  0
  -33.2528  -19.1116   18.5852 C   0  0  0  0  0  0
  -33.9051  -21.3065   19.2616 C   0  0  0  0  0  0
  -28.3293  -25.1642   20.7848 C   0  0  2  0  0  0
  -29.4156  -21.5188   19.6393 C   0  0  0  0  0  0
  -32.0773  -20.1890   20.5234 C   0  0  0  0  0  0
  -28.8882  -22.6975   20.4247 N   0  0  0  0  0  0
  -29.7377  -15.6700   20.8639 N   0  0  0  0  0  0
  -32.7668  -20.3557   19.2201 N   0  3  0  0  0  0
  -29.3038  -24.2224   18.7697 O   0  0  0  0  0  0
  -26.8119  -19.8393   19.9354 Cl  0  0  0  0  0  0
  -31.4867  -12.5547   19.1446 H   0  0  0  0  0  0
  -30.4034  -11.4079   19.8850 H   0  0  0  0  0  0
  -29.7807  -11.7620   17.4774 H   0  0  0  0  0  0
  -29.6469  -13.4820   17.7388 H   0  0  0  0  0  0
  -27.8800  -11.2869   18.8691 H   0  0  0  0  0  0
  -27.3804  -12.5633   17.7914 H   0  0  0  0  0  0
  -27.6723  -14.2454   19.5209 H   0  0  0  0  0  0
  -28.7113  -12.0238   21.3526 H   0  0  0  0  0  0
  -28.4354  -13.6645   21.8551 H   0  0  0  0  0  0
  -25.2781   -9.5660   22.4765 H   0  0  0  0  0  0
  -24.0010   -7.4616   22.7481 H   0  0  0  0  0  0
  -21.0851   -8.8783   19.8946 H   0  0  0  0  0  0
  -22.3733  -10.9673   19.6172 H   0  0  0  0  0  0
  -21.1990   -7.6153   23.9732 H   0  0  0  0  0  0
  -21.1477   -6.0528   25.9093 H   0  0  0  0  0  0
  -22.0598   -2.7616   23.2858 H   0  0  0  0  0  0
  -22.4077  -11.9889   22.4824 H   0  0  0  0  0  0
  -21.1079  -13.1257   22.2590 H   0  0  0  0  0  0
  -24.6422  -15.8263   20.4731 H   0  0  0  0  0  0
  -26.2353  -15.6018   19.9626 H   0  0  0  0  0  0
  -26.7172  -32.5475   23.1111 H   0  0  0  0  0  0
  -25.0069  -33.9731   25.0435 H   0  0  0  0  0  0
  -22.7122  -31.3032   21.4003 H   0  0  0  0  0  0
  -23.3769  -35.9615   23.3287 H   0  0  0  0  0  0
  -24.3592  -36.8927   22.2052 H   0  0  0  0  0  0
  -23.7237  -37.6484   23.6664 H   0  0  0  0  0  0
  -26.0793  -31.5554   20.6003 H   0  0  0  0  0  0
  -26.8401  -30.8517   21.9971 H   0  0  0  0  0  0
  -28.1094  -28.9905   21.2093 H   0  0  0  0  0  0
  -26.0423  -25.9574   18.9559 H   0  0  0  0  0  0
  -23.9909  -27.3143   18.9809 H   0  0  0  0  0  0
  -23.7478  -30.5881   19.4010 H   0  0  0  0  0  0
  -22.7550  -29.2379   19.8613 H   0  0  0  0  0  0
  -25.1301  -36.1944   25.0824 H   0  0  0  0  0  0
  -20.9966  -28.3262   24.1410 H   0  0  0  0  0  0
  -20.5679  -26.2293   23.3614 H   0  0  0  0  0  0
  -21.6646  -26.7449   22.1205 H   0  0  0  0  0  0
  -19.6911  -25.6294   21.1242 H   0  0  0  0  0  0
  -19.6686  -27.3203   20.6752 H   0  0  0  0  0  0
  -17.4194  -26.6677   21.4020 H   0  0  0  0  0  0
  -18.0323  -26.0068   22.9015 H   0  0  0  0  0  0
  -19.7928  -30.7251   24.2309 H   0  0  0  0  0  0
  -17.5011  -31.6275   24.5144 H   0  0  0  0  0  0
  -15.5353  -30.2996   23.7638 H   0  0  0  0  0  0
  -15.8667  -28.0822   22.7081 H   0  0  0  0  0  0
  -24.5907  -30.7054   25.7758 H   0  0  0  0  0  0
  -24.8906  -32.2859   26.4879 H   0  0  0  0  0  0
  -25.8049  -30.8865   27.0212 H   0  0  0  0  0  0
  -26.2866  -29.6776   24.1174 H   0  0  0  0  0  0
  -27.4034  -29.7250   25.4620 H   0  0  0  0  0  0
  -27.8735  -30.4304   23.9337 H   0  0  0  0  0  0
  -27.2722  -33.3591   26.2070 H   0  0  0  0  0  0
  -28.3884  -32.6819   25.0300 H   0  0  0  0  0  0
  -28.0739  -31.8383   26.5378 H   0  0  0  0  0  0
  -28.2592  -38.0103   24.7532 H   0  0  0  0  0  0
  -28.1087  -36.2638   24.6263 H   0  0  0  0  0  0
  -27.2297  -37.1429   25.8858 H   0  0  0  0  0  0
  -20.9350  -29.8764   21.6898 H   0  0  0  0  0  0
  -26.0178  -38.2859   24.1420 H   0  0  0  0  0  0
  -31.8425  -17.5173   20.8389 H   0  0  0  0  0  0
  -27.5801  -17.2055   20.4788 H   0  0  0  0  0  0
  -26.2711  -22.7178   21.9022 H   0  0  0  0  0  0
  -27.1050  -23.4399   23.2388 H   0  0  0  0  0  0
  -35.0752  -18.7460   17.4188 H   0  0  0  0  0  0
  -33.9641  -19.9176   16.7111 H   0  0  0  0  0  0
  -35.4996  -21.4336   17.7519 H   0  0  0  0  0  0
  -35.8151  -20.3131   19.0702 H   0  0  0  0  0  0
  -26.6720  -25.4335   22.1785 H   0  0  0  0  0  0
  -26.2348  -24.5966   20.7143 H   0  0  0  0  0  0
  -28.2469  -21.4446   22.0197 H   0  0  0  0  0  0
  -29.2383  -22.7993   22.4668 H   0  0  0  0  0  0
  -33.6522  -18.4372   19.3441 H   0  0  0  0  0  0
  -32.4563  -18.5849   18.0575 H   0  0  0  0  0  0
  -33.5820  -22.2698   18.8657 H   0  0  0  0  0  0
  -34.2556  -21.4775   20.2810 H   0  0  0  0  0  0
  -29.0618  -25.2729   21.5854 H   0  0  0  0  0  0
  -28.7923  -21.4641   18.7454 H   0  0  0  0  0  0
  -30.3837  -21.8165   19.2422 H   0  0  0  0  0  0
  -32.7535  -19.7180   21.2391 H   0  0  0  0  0  0
  -31.8515  -21.1695   20.9454 H   0  0  0  0  0  0
  -28.8406  -15.3010   21.1389 H   0  0  0  0  0  0
  -32.1014  -20.7554   18.5757 H   0  0  0  0  0  0
  1 25  1  0  0  0
  1 30  2  0  0  0
  1 89  1  0  0  0
  2  3  1  0  0  0
  2 25  1  0  0  0
  2 93  1  0  0  0
  2 94  1  0  0  0
  3  4  1  0  0  0
  3 95  1  0  0  0
  3 96  1  0  0  0
  4  5  1  0  0  0
  4 97  1  0  0  0
  4 98  1  0  0  0
  5  6  1  0  0  0
  5 26  1  0  0  0
  5 99  1  0  0  0
  6 25  1  0  0  0
  6100  1  0  0  0
  6101  1  0  0  0
  7  8  2  0  0  0
  7 26  1  0  0  0
  7 29  1  0  0  0
  8  9  1  0  0  0
  8 22  1  0  0  0
  9 10  1  0  0  0
  9 27  2  0  0  0
 10 11  2  0  0  0
 10 15  1  0  0  0
 11 12  1  0  0  0
 11102  1  0  0  0
 12 13  2  0  0  0
 12103  1  0  0  0
 13 14  1  0  0  0
 13 31  1  0  0  0
 14 15  2  0  0  0
 14104  1  0  0  0
 15105  1  0  0  0
 16 17  2  0  0  0
 16 21  1  0  0  0
 16 31  1  0  0  0
 17 18  1  0  0  0
 17106  1  0  0  0
 18 19  2  0  0  0
 18107  1  0  0  0
 19 20  1  0  0  0
 19 24  1  0  0  0
 20 21  2  0  0  0
 20108  1  0  0  0
 21 23  1  0  0  0
 22 28  1  0  0  0
 22 32  2  0  0  0
 26 27  1  0  0  0
 28109  1  0  0  0
 28110  1  0  0  0
 29111  1  0  0  0
 29112  1  0  0  0
 33 34  1  0  0  0
 33 66  1  0  0  0
 33 70  2  0  0  0
 34 36  1  0  0  0
 34 59  1  0  0  0
 34113  1  0  0  0
 35 44  2  0  0  0
 35 45  1  0  0  0
 35 68  1  0  0  0
 36 56  1  0  0  0
 36114  1  0  0  0
 37 39  1  0  0  0
 37 47  1  0  0  0
 37 66  1  0  0  0
 37115  1  0  0  0
 38 43  2  0  0  0
 38 46  1  0  0  0
 38 47  1  0  0  0
 39 64  1  0  0  0
 39 67  2  0  0  0
 40 52  1  0  0  0
 40 53  2  0  0  0
 40 58  1  0  0  0
 41116  1  0  0  0
 41117  1  0  0  0
 41118  1  0  0  0
 41 48  1  0  0  0
 42 43  1  0  0  0
 42 66  1  0  0  0
 42119  1  0  0  0
 42120  1  0  0  0
 43 44  1  0  0  0
 44121  1  0  0  0
 45 46  2  0  0  0
 45122  1  0  0  0
 46123  1  0  0  0
 47124  1  0  0  0
 47125  1  0  0  0
 48 56  1  0  0  0
 48 65  1  0  0  0
 48126  1  0  0  0
 49 50  1  0  0  0
 49 53  1  0  0  0
 49 64  1  0  0  0
 49127  1  0  0  0
 50 51  1  0  0  0
 50128  1  0  0  0
 50129  1  0  0  0
 51 52  1  0  0  0
 51130  1  0  0  0
 51131  1  0  0  0
 52132  1  0  0  0
 52133  1  0  0  0
 53 54  1  0  0  0
 54 55  2  0  0  0
 54134  1  0  0  0
 55 57  1  0  0  0
 55135  1  0  0  0
 56 69  2  0  0  0
 57 58  2  0  0  0
 57136  1  0  0  0
 58137  1  0  0  0
 59 60  1  0  0  0
 59 61  1  0  0  0
 59 62  1  0  0  0
 60138  1  0  0  0
 60139  1  0  0  0
 60140  1  0  0  0
 61141  1  0  0  0
 61142  1  0  0  0
 61143  1  0  0  0
 62144  1  0  0  0
 62145  1  0  0  0
 62146  1  0  0  0
 63 65  1  0  0  0
 63147  1  0  0  0
 63148  1  0  0  0
 63149  1  0  0  0
 64150  1  0  0  0
 65151  1  0  0  0
 68 85  1  0  0  0
 71 73  2  0  0  0
 71 75  1  0  0  0
 71152  1  0  0  0
 72 75  2  0  0  0
 72 76  1  0  0  0
 72153  1  0  0  0
 73 74  1  0  0  0
 73 87  1  0  0  0
 74 76  2  0  0  0
 74 86  1  0  0  0
 75 89  1  0  0  0
 76 92  1  0  0  0
 77 85  1  0  0  0
 77 88  1  0  0  0
 77 91  2  0  0  0
 78 81  1  0  0  0
 78 82  1  0  0  0
 78154  1  0  0  0
 78155  1  0  0  0
 79 80  1  0  0  0
 79 83  1  0  0  0
 79156  1  0  0  0
 79157  1  0  0  0
 80 84  1  0  0  0
 80158  1  0  0  0
 80159  1  0  0  0
 81 85  1  0  0  0
 81160  1  0  0  0
 81161  1  0  0  0
 82 88  1  0  0  0
 82162  1  0  0  0
 82163  1  0  0  0
 83 90  1  0  0  0
 83164  1  0  0  0
 83165  1  0  0  0
 84 90  1  0  0  0
 84166  1  0  0  0
 84167  1  0  0  0
 85168  1  0  0  0
 86 88  1  0  0  0
 86169  1  0  0  0
 86170  1  0  0  0
 87171  1  0  0  0
 87172  1  0  0  0
 87 90  1  0  0  0
 89173  1  0  0  0
 90174  1  0  0  0
M  CHG  1  90   1
M  ISO  4   1 100  68 101  85 101  89 100
M  END
> <chiral flag>
0

> <version>
0

> <s_m_source_file>
/data/baiqing/PycharmProjects/Reinvent-master-3.2/result/LINK_invent/BTK/process_docking_weight1_custom_product_contain_oxygen_bond_distance_aromatic_linkinvent_7_9_3/rearranged_h_0029.sdf

> <i_m_source_file_index>
65

> <r_mmod_Potential_Energy-OPLS-2005>
118.467643737793

> <r_mmod_Stretch_Energy-OPLS-2005>
87.2531127929688

> <r_mmod_Bend_Energy-OPLS-2005>
181.834030151367

> <r_mmod_Torsional_Energy-OPLS-2005>
341.312591552734

> <r_mmod_Improper_Torsional_Energy-OPLS-2005>
6.32645225524902

> <r_mmod_Van_der_Waal_Energy-OPLS-2005>
139.738922119141

> <r_mmod_Electrostatic_Energy-OPLS-2005>
-233.699890136719

> <r_mmod_Solvation_Energy-OPLS-2005>
-452.509033203125

> <b_mmod_Minimization_Converged-OPLS-2005>
0

> <r_mmod_RMS_Derivative-OPLS-2005>
1.4469541311264

$$$$
65
                    3D
 Structure written by MMmdl.
159168  0  0  1  0            999 V2000
  -30.7311  -14.4327   20.5860 C   0  0  0  0  0  0
  -30.4304  -12.2930   19.4011 C   0  0  0  0  0  0
  -29.4931  -12.5059   18.1954 C   0  0  0  0  0  0
  -28.0159  -12.3662   18.6134 C   0  0  0  0  0  0
  -27.6683  -13.2043   19.8727 C   0  0  2  0  0  0
  -28.7134  -12.9670   20.9872 C   0  0  0  0  0  0
  -25.2645  -13.8163   20.5698 C   0  0  0  0  0  0
  -24.1891  -13.0432   20.9181 C   0  0  0  0  0  0
  -24.6433  -11.6894   20.8747 C   0  0  0  0  0  0
  -23.9082  -10.4299   21.0413 C   0  0  0  0  0  0
  -24.3626   -9.4207   21.9194 C   0  0  0  0  0  0
  -23.6290   -8.2251   22.0763 C   0  0  0  0  0  0
  -22.4279   -8.0301   21.3537 C   0  0  0  0  0  0
  -21.9908   -9.0283   20.4645 C   0  0  0  0  0  0
  -22.7250  -10.2153   20.3056 C   0  0  0  0  0  0
  -21.6853   -6.0749   22.5283 C   0  0  0  0  0  0
  -21.4024   -6.5644   23.8225 C   0  0  0  0  0  0
  -21.3659   -5.6788   24.9184 C   0  0  0  0  0  0
  -21.6045   -4.3053   24.7220 C   0  0  0  0  0  0
  -21.8817   -3.8149   23.4341 C   0  0  0  0  0  0
  -21.9197   -4.6976   22.3403 C   0  0  0  0  0  0
  -22.7909  -13.5239   21.1832 C   0  0  0  0  0  0
  -22.1658   -4.2160   21.0975 F   0  0  0  0  0  0
  -21.5620   -3.4531   25.7732 F   0  0  0  0  0  0
  -30.0527  -13.2616   20.4405 N   0  0  0  0  0  0
  -26.3079  -12.9322   20.3362 N   0  0  0  0  0  0
  -25.9361  -11.6478   20.5753 N   0  0  0  0  0  0
  -22.0524  -12.8246   22.0371 N   0  0  0  0  0  0
  -25.4365  -15.1886   20.4130 N   0  0  0  0  0  0
  -31.8372  -14.6504   20.0843 O   0  0  0  0  0  0
  -21.6629   -6.8900   21.4251 O   0  0  0  0  0  0
  -22.3602  -14.5556   20.6697 O   0  0  0  0  0  0
  -24.6181  -31.8667   23.2098 C   0  0  0  0  0  0
  -25.9054  -32.4829   23.8406 C   0  0  1  0  0  0
  -27.2244  -27.4216   20.0866 C   0  0  0  0  0  0
  -25.5905  -33.8632   24.2335 N   0  0  0  0  0  0
  -23.4081  -30.4921   21.5511 C   0  0  2  0  0  0
  -24.8531  -28.9711   20.1048 C   0  0  0  0  0  0
  -22.7422  -29.4649   22.4961 C   0  0  0  0  0  0
  -18.0256  -28.1369   22.8505 C   0  0  0  0  0  0
  -24.1489  -36.7317   23.2636 C   0  0  0  0  0  0
  -25.9420  -30.8251   21.3707 C   0  0  0  0  0  0
  -26.0159  -29.4648   20.7080 C   0  0  0  0  0  0
  -27.2066  -28.6980   20.7008 C   0  0  0  0  0  0
  -26.0485  -26.9678   19.4436 C   0  0  0  0  0  0
  -24.8655  -27.7229   19.4656 C   0  0  0  0  0  0
  -23.6152  -29.8349   20.1612 C   0  0  0  0  0  0
  -25.4121  -36.3123   24.0339 C   0  0  1  0  0  0
  -20.5861  -28.3649   23.1213 C   0  0  2  0  0  0
  -20.6779  -26.9426   22.5253 C   0  0  0  0  0  0
  -19.5631  -26.6348   21.5209 C   0  0  0  0  0  0
  -18.1883  -26.7862   22.1747 C   0  0  0  0  0  0
  -19.1529  -28.8846   23.2835 C   0  0  0  0  0  0
  -18.9472  -30.1474   23.8804 C   0  0  0  0  0  0
  -17.6468  -30.6583   24.0541 C   0  0  0  0  0  0
  -25.9059  -34.9482   23.5139 C   0  0  0  0  0  0
  -16.5338  -29.9075   23.6392 C   0  0  0  0  0  0
  -16.7255  -28.6494   23.0408 C   0  0  0  0  0  0
  -26.4459  -31.6614   25.0754 C   0  0  0  0  0  0
  -25.3709  -31.3718   26.1480 C   0  0  0  0  0  0
  -27.0292  -30.3061   24.6150 C   0  0  0  0  0  0
  -27.6041  -32.4337   25.7509 C   0  0  0  0  0  0
  -27.5587  -37.1826   24.8469 C   0  0  0  0  0  0
  -21.4152  -29.3009   22.3649 N   0  0  0  0  0  0
  -26.4307  -37.3804   23.9404 N   0  0  0  0  0  0
  -24.6751  -31.0741   22.1027 N   0  0  0  0  0  0
  -23.4157  -28.8260   23.3087 O   0  0  0  0  0  0
  -28.3425  -26.6071   20.1623 O   0  0  0  0  0  0
  -26.5575  -34.8912   22.4681 O   0  0  0  0  0  0
  -23.5363  -32.1459   23.7455 O   0  0  0  0  0  0
  -27.9155  -20.9558   22.1330 C   0  0  0  0  0  0
  -29.9865  -21.2623   20.9358 C   0  0  0  0  0  0
  -29.1761  -18.9707   21.4039 C   0  0  0  0  0  0
  -28.0425  -19.5557   22.0380 C   0  0  0  0  0  0
  -28.8693  -21.8415   21.5806 C   0  0  0  0  0  0
  -30.1542  -19.8568   20.8525 C   0  0  0  0  0  0
  -29.2455  -17.4775   21.3572 C   0  0  0  0  0  0
  -27.4255  -25.2326   21.9816 C   0  0  0  0  0  0
  -27.5120  -23.7661   22.3705 C   0  0  0  0  0  0
  -29.2003  -24.2327   20.7308 C   0  0  0  0  0  0
  -28.0427  -25.2507   20.5768 C   0  0  1  0  0  0
  -26.9256  -18.7176   22.6547 C   0  0  0  0  0  0
  -30.2785  -16.7418   21.1277 N   0  0  0  0  0  0
  -28.7091  -23.2470   21.7112 N   0  0  0  0  0  0
  -30.0432  -15.3977   21.2136 N   0  0  0  0  0  0
  -31.5832  -19.2957   20.0481 Cl  0  0  0  0  0  0
  -31.4731  -12.3965   19.0926 H   0  0  0  0  0  0
  -30.3349  -11.2750   19.7826 H   0  0  0  0  0  0
  -29.7231  -11.7856   17.4090 H   0  0  0  0  0  0
  -29.6601  -13.4959   17.7675 H   0  0  0  0  0  0
  -27.8282  -11.3111   18.8140 H   0  0  0  0  0  0
  -27.3650  -12.6407   17.7815 H   0  0  0  0  0  0
  -27.7149  -14.2538   19.5802 H   0  0  0  0  0  0
  -28.6853  -11.9279   21.3187 H   0  0  0  0  0  0
  -28.4764  -13.5567   21.8734 H   0  0  0  0  0  0
  -25.2775   -9.5678   22.4752 H   0  0  0  0  0  0
  -24.0000   -7.4645   22.7475 H   0  0  0  0  0  0
  -21.0838   -8.8810   19.8948 H   0  0  0  0  0  0
  -22.3728  -10.9693   19.6157 H   0  0  0  0  0  0
  -21.2017   -7.6150   23.9733 H   0  0  0  0  0  0
  -21.1481   -6.0514   25.9086 H   0  0  0  0  0  0
  -22.0595   -2.7610   23.2835 H   0  0  0  0  0  0
  -22.4091  -11.9892   22.4764 H   0  0  0  0  0  0
  -21.1148  -13.1314   22.2535 H   0  0  0  0  0  0
  -24.6696  -15.8412   20.5307 H   0  0  0  0  0  0
  -26.2774  -15.6252   20.0562 H   0  0  0  0  0  0
  -26.7121  -32.5537   23.1160 H   0  0  0  0  0  0
  -25.0136  -33.9798   25.0531 H   0  0  0  0  0  0
  -22.6977  -31.3070   21.4179 H   0  0  0  0  0  0
  -23.3750  -35.9649   23.3338 H   0  0  0  0  0  0
  -24.3589  -36.8892   22.2040 H   0  0  0  0  0  0
  -23.7229  -37.6535   23.6630 H   0  0  0  0  0  0
  -26.0665  -31.5952   20.6064 H   0  0  0  0  0  0
  -26.8261  -30.8704   21.9933 H   0  0  0  0  0  0
  -28.0931  -29.0611   21.2009 H   0  0  0  0  0  0
  -26.0236  -26.0243   18.9208 H   0  0  0  0  0  0
  -23.9747  -27.3429   18.9844 H   0  0  0  0  0  0
  -23.7172  -30.6172   19.4071 H   0  0  0  0  0  0
  -22.7457  -29.2438   19.8666 H   0  0  0  0  0  0
  -25.1298  -36.2016   25.0834 H   0  0  0  0  0  0
  -20.9938  -28.3186   24.1320 H   0  0  0  0  0  0
  -20.5852  -26.2204   23.3372 H   0  0  0  0  0  0
  -21.6600  -26.7610   22.0867 H   0  0  0  0  0  0
  -19.6770  -25.6242   21.1256 H   0  0  0  0  0  0
  -19.6388  -27.3055   20.6649 H   0  0  0  0  0  0
  -17.4070  -26.6465   21.4287 H   0  0  0  0  0  0
  -18.0412  -26.0082   22.9245 H   0  0  0  0  0  0
  -19.7970  -30.7343   24.2033 H   0  0  0  0  0  0
  -17.5026  -31.6271   24.5137 H   0  0  0  0  0  0
  -15.5348  -30.2947   23.7834 H   0  0  0  0  0  0
  -15.8652  -28.0790   22.7154 H   0  0  0  0  0  0
  -24.5877  -30.7097   25.7764 H   0  0  0  0  0  0
  -24.8911  -32.2877   26.4948 H   0  0  0  0  0  0
  -25.8034  -30.8841   27.0218 H   0  0  0  0  0  0
  -26.2840  -29.6823   24.1207 H   0  0  0  0  0  0
  -27.4034  -29.7313   25.4614 H   0  0  0  0  0  0
  -27.8687  -30.4368   23.9327 H   0  0  0  0  0  0
  -27.2668  -33.3612   26.2128 H   0  0  0  0  0  0
  -28.3812  -32.6928   25.0322 H   0  0  0  0  0  0
  -28.0742  -31.8449   26.5378 H   0  0  0  0  0  0
  -28.2638  -38.0085   24.7510 H   0  0  0  0  0  0
  -28.1038  -36.2632   24.6325 H   0  0  0  0  0  0
  -27.2299  -37.1514   25.8861 H   0  0  0  0  0  0
  -20.9402  -29.8548   21.6659 H   0  0  0  0  0  0
  -26.0208  -38.2897   24.1358 H   0  0  0  0  0  0
  -27.0502  -21.3305   22.6586 H   0  0  0  0  0  0
  -30.7517  -21.8921   20.5068 H   0  0  0  0  0  0
  -28.3076  -16.9528   21.5433 H   0  0  0  0  0  0
  -28.0084  -25.8451   22.6684 H   0  0  0  0  0  0
  -26.3969  -25.5915   22.0073 H   0  0  0  0  0  0
  -26.6197  -23.2702   21.9864 H   0  0  0  0  0  0
  -27.5461  -23.6334   23.4527 H   0  0  0  0  0  0
  -30.0884  -24.7182   21.1342 H   0  0  0  0  0  0
  -29.4650  -23.7833   19.7733 H   0  0  0  0  0  0
  -27.3572  -24.7724   19.8775 H   0  0  0  0  0  0
  -26.1635  -19.3363   23.1307 H   0  0  0  0  0  0
  -27.3212  -18.0490   23.4205 H   0  0  0  0  0  0
  -26.4249  -18.1169   21.8949 H   0  0  0  0  0  0
  -29.1444  -15.1362   21.5908 H   0  0  0  0  0  0
  1 25  1  0  0  0
  1 30  2  0  0  0
  1 85  1  0  0  0
  2  3  1  0  0  0
  2 25  1  0  0  0
  2 87  1  0  0  0
  2 88  1  0  0  0
  3  4  1  0  0  0
  3 89  1  0  0  0
  3 90  1  0  0  0
  4  5  1  0  0  0
  4 91  1  0  0  0
  4 92  1  0  0  0
  5  6  1  0  0  0
  5 26  1  0  0  0
  5 93  1  0  0  0
  6 25  1  0  0  0
  6 94  1  0  0  0
  6 95  1  0  0  0
  7  8  2  0  0  0
  7 26  1  0  0  0
  7 29  1  0  0  0
  8  9  1  0  0  0
  8 22  1  0  0  0
  9 10  1  0  0  0
  9 27  2  0  0  0
 10 11  2  0  0  0
 10 15  1  0  0  0
 11 12  1  0  0  0
 11 96  1  0  0  0
 12 13  2  0  0  0
 12 97  1  0  0  0
 13 14  1  0  0  0
 13 31  1  0  0  0
 14 15  2  0  0  0
 14 98  1  0  0  0
 15 99  1  0  0  0
 16 17  2  0  0  0
 16 21  1  0  0  0
 16 31  1  0  0  0
 17 18  1  0  0  0
 17100  1  0  0  0
 18 19  2  0  0  0
 18101  1  0  0  0
 19 20  1  0  0  0
 19 24  1  0  0  0
 20 21  2  0  0  0
 20102  1  0  0  0
 21 23  1  0  0  0
 22 28  1  0  0  0
 22 32  2  0  0  0
 26 27  1  0  0  0
 28103  1  0  0  0
 28104  1  0  0  0
 29105  1  0  0  0
 29106  1  0  0  0
 33 34  1  0  0  0
 33 66  1  0  0  0
 33 70  2  0  0  0
 34 36  1  0  0  0
 34 59  1  0  0  0
 34107  1  0  0  0
 35 44  2  0  0  0
 35 45  1  0  0  0
 35 68  1  0  0  0
 36 56  1  0  0  0
 36108  1  0  0  0
 37 39  1  0  0  0
 37 47  1  0  0  0
 37 66  1  0  0  0
 37109  1  0  0  0
 38 43  2  0  0  0
 38 46  1  0  0  0
 38 47  1  0  0  0
 39 64  1  0  0  0
 39 67  2  0  0  0
 40 52  1  0  0  0
 40 53  2  0  0  0
 40 58  1  0  0  0
 41110  1  0  0  0
 41111  1  0  0  0
 41112  1  0  0  0
 41 48  1  0  0  0
 42 43  1  0  0  0
 42 66  1  0  0  0
 42113  1  0  0  0
 42114  1  0  0  0
 43 44  1  0  0  0
 44115  1  0  0  0
 45 46  2  0  0  0
 45116  1  0  0  0
 46117  1  0  0  0
 47118  1  0  0  0
 47119  1  0  0  0
 48 56  1  0  0  0
 48 65  1  0  0  0
 48120  1  0  0  0
 49 50  1  0  0  0
 49 53  1  0  0  0
 49 64  1  0  0  0
 49121  1  0  0  0
 50 51  1  0  0  0
 50122  1  0  0  0
 50123  1  0  0  0
 51 52  1  0  0  0
 51124  1  0  0  0
 51125  1  0  0  0
 52126  1  0  0  0
 52127  1  0  0  0
 53 54  1  0  0  0
 54 55  2  0  0  0
 54128  1  0  0  0
 55 57  1  0  0  0
 55129  1  0  0  0
 56 69  2  0  0  0
 57 58  2  0  0  0
 57130  1  0  0  0
 58131  1  0  0  0
 59 60  1  0  0  0
 59 61  1  0  0  0
 59 62  1  0  0  0
 60132  1  0  0  0
 60133  1  0  0  0
 60134  1  0  0  0
 61135  1  0  0  0
 61136  1  0  0  0
 61137  1  0  0  0
 62138  1  0  0  0
 62139  1  0  0  0
 62140  1  0  0  0
 63 65  1  0  0  0
 63141  1  0  0  0
 63142  1  0  0  0
 63143  1  0  0  0
 64144  1  0  0  0
 65145  1  0  0  0
 68 81  1  0  0  0
 71 74  2  0  0  0
 71 75  1  0  0  0
 71146  1  0  0  0
 72 75  2  0  0  0
 72 76  1  0  0  0
 72147  1  0  0  0
 73 74  1  0  0  0
 73 76  2  0  0  0
 73 77  1  0  0  0
 74 82  1  0  0  0
 75 84  1  0  0  0
 76 86  1  0  0  0
 77 83  2  0  0  0
 77148  1  0  0  0
 78 79  1  0  0  0
 78 81  1  0  0  0
 78149  1  0  0  0
 78150  1  0  0  0
 79 84  1  0  0  0
 79151  1  0  0  0
 79152  1  0  0  0
 80 81  1  0  0  0
 80 84  1  0  0  0
 80153  1  0  0  0
 80154  1  0  0  0
 81155  1  0  0  0
 82156  1  0  0  0
 82157  1  0  0  0
 82158  1  0  0  0
 83 85  1  0  0  0
 85159  1  0  0  0
M  ISO  4   1 100  68 101  81 101  85 100
M  END
> <chiral flag>
0

> <version>
0

> <s_m_source_file>
/data/baiqing/PycharmProjects/Reinvent-master-3.2/result/LINK_invent/BTK/process_docking_weight1_custom_product_contain_oxygen_bond_distance_aromatic_linkinvent_7_9_3/rearranged_h_0029.sdf

> <i_m_source_file_index>
66

> <r_mmod_Potential_Energy-OPLS-2005>
136.243698120117

> <r_mmod_Stretch_Energy-OPLS-2005>
44.5981292724609

> <r_mmod_Bend_Energy-OPLS-2005>
147.721038818359

> <r_mmod_Torsional_Energy-OPLS-2005>
251.203262329102

> <r_mmod_Improper_Torsional_Energy-OPLS-2005>
6.27172994613647

> <r_mmod_Van_der_Waal_Energy-OPLS-2005>
175.762222290039

> <r_mmod_Electrostatic_Energy-OPLS-2005>
-256.801422119141

> <r_mmod_Solvation_Energy-OPLS-2005>
-247.981918334961

> <b_mmod_Minimization_Converged-OPLS-2005>
0

> <r_mmod_RMS_Derivative-OPLS-2005>
4.47307968139648

$$$$
66
                    3D
 Structure written by MMmdl.
158167  0  0  1  0            999 V2000
  -30.5998  -14.6593   20.4951 C   0  0  0  0  0  0
  -30.4505  -12.4049   19.4429 C   0  0  0  0  0  0
  -29.5161  -12.5138   18.2158 C   0  0  0  0  0  0
  -28.0348  -12.3530   18.6234 C   0  0  0  0  0  0
  -27.6561  -13.2131   19.8583 C   0  0  2  0  0  0
  -28.7034  -13.0562   20.9854 C   0  0  0  0  0  0
  -25.2583  -13.8151   20.5665 C   0  0  0  0  0  0
  -24.1848  -13.0435   20.9201 C   0  0  0  0  0  0
  -24.6395  -11.6897   20.8725 C   0  0  0  0  0  0
  -23.9045  -10.4293   21.0392 C   0  0  0  0  0  0
  -24.3596   -9.4213   21.9177 C   0  0  0  0  0  0
  -23.6276   -8.2257   22.0749 C   0  0  0  0  0  0
  -22.4262   -8.0282   21.3540 C   0  0  0  0  0  0
  -21.9899   -9.0254   20.4650 C   0  0  0  0  0  0
  -22.7220  -10.2136   20.3042 C   0  0  0  0  0  0
  -21.6856   -6.0727   22.5272 C   0  0  0  0  0  0
  -21.4020   -6.5622   23.8212 C   0  0  0  0  0  0
  -21.3657   -5.6769   24.9168 C   0  0  0  0  0  0
  -21.6040   -4.3031   24.7215 C   0  0  0  0  0  0
  -21.8821   -3.8132   23.4337 C   0  0  0  0  0  0
  -21.9203   -4.6954   22.3395 C   0  0  0  0  0  0
  -22.7867  -13.5255   21.1839 C   0  0  0  0  0  0
  -22.1668   -4.2136   21.0982 F   0  0  0  0  0  0
  -21.5628   -3.4522   25.7728 F   0  0  0  0  0  0
  -30.0155  -13.4192   20.4241 N   0  0  0  0  0  0
  -26.3007  -12.9320   20.3264 N   0  0  0  0  0  0
  -25.9318  -11.6473   20.5688 N   0  0  0  0  0  0
  -22.0467  -12.8264   22.0380 N   0  0  0  0  0  0
  -25.4284  -15.1873   20.4057 N   0  0  0  0  0  0
  -31.7660  -14.8421   20.1340 O   0  0  0  0  0  0
  -21.6635   -6.8878   21.4236 O   0  0  0  0  0  0
  -22.3576  -14.5575   20.6683 O   0  0  0  0  0  0
  -24.6267  -31.8602   23.2047 C   0  0  0  0  0  0
  -25.9127  -32.4777   23.8369 C   0  0  1  0  0  0
  -27.2225  -27.3149   20.1129 C   0  0  0  0  0  0
  -25.5961  -33.8578   24.2310 N   0  0  0  0  0  0
  -23.4197  -30.4857   21.5476 C   0  0  2  0  0  0
  -24.8632  -28.9433   20.1119 C   0  0  0  0  0  0
  -22.7482  -29.4629   22.4945 C   0  0  0  0  0  0
  -18.0284  -28.1404   22.8497 C   0  0  0  0  0  0
  -24.1470  -36.7255   23.2633 C   0  0  0  0  0  0
  -25.9597  -30.7931   21.3728 C   0  0  0  0  0  0
  -26.0330  -29.4204   20.7137 C   0  0  0  0  0  0
  -27.2117  -28.6169   20.7031 C   0  0  0  0  0  0
  -26.0191  -26.8865   19.5013 C   0  0  0  0  0  0
  -24.8596  -27.6825   19.4990 C   0  0  0  0  0  0
  -23.6327  -29.8241   20.1618 C   0  0  0  0  0  0
  -25.4091  -36.3075   24.0336 C   0  0  1  0  0  0
  -20.5887  -28.3696   23.1292 C   0  0  2  0  0  0
  -20.6760  -26.9420   22.5418 C   0  0  0  0  0  0
  -19.5739  -26.6409   21.5211 C   0  0  0  0  0  0
  -18.1915  -26.7958   22.1605 C   0  0  0  0  0  0
  -19.1541  -28.8865   23.2887 C   0  0  0  0  0  0
  -18.9458  -30.1469   23.8904 C   0  0  0  0  0  0
  -17.6457  -30.6606   24.0566 C   0  0  0  0  0  0
  -25.9042  -34.9456   23.5110 C   0  0  0  0  0  0
  -16.5350  -29.9100   23.6347 C   0  0  0  0  0  0
  -16.7271  -28.6516   23.0372 C   0  0  0  0  0  0
  -26.4514  -31.6598   25.0753 C   0  0  0  0  0  0
  -25.3756  -31.3767   26.1503 C   0  0  0  0  0  0
  -27.0333  -30.3020   24.6199 C   0  0  0  0  0  0
  -27.6099  -32.4312   25.7495 C   0  0  0  0  0  0
  -27.5579  -37.1745   24.8440 C   0  0  0  0  0  0
  -21.4194  -29.3046   22.3686 N   0  0  0  0  0  0
  -26.4250  -37.3798   23.9450 N   0  0  0  0  0  0
  -24.6879  -31.0624   22.0990 N   0  0  0  0  0  0
  -23.4211  -28.8163   23.3023 O   0  0  0  0  0  0
  -28.3708  -26.5033   20.1816 O   0  0  0  0  0  0
  -26.5595  -34.8916   22.4668 O   0  0  0  0  0  0
  -23.5433  -32.1398   23.7376 O   0  0  0  0  0  0
  -28.4630  -19.2732   20.9218 C   0  0  0  0  0  0
  -30.8452  -19.3942   20.6369 C   0  0  0  0  0  0
  -28.5469  -17.8499   20.8816 C   0  0  0  0  0  0
  -30.9284  -17.9646   20.5869 C   0  0  0  0  0  0
  -29.6156  -20.0905   20.8316 C   0  0  0  0  0  0
  -29.7756  -17.1470   20.7379 C   0  0  0  0  0  0
  -28.6551  -23.9637   20.6897 C   0  0  0  0  0  0
  -29.7907  -23.6862   18.0025 C   0  0  0  0  0  0
  -29.6505  -25.0634   18.6905 C   0  0  0  0  0  0
  -29.2218  -22.4829   18.8075 C   0  0  0  0  0  0
  -28.4412  -25.1210   19.6332 C   0  0  2  0  0  0
  -29.5781  -21.6320   21.1795 C   0  0  0  0  0  0
  -29.0905  -22.7230   20.2520 N   0  0  0  0  0  0
  -29.7376  -15.6815   20.8092 N   0  0  0  0  0  0
  -28.4682  -24.2065   21.8874 O   0  0  0  0  0  0
  -31.4903  -12.5422   19.1403 H   0  0  0  0  0  0
  -30.3916  -11.4071   19.8801 H   0  0  0  0  0  0
  -29.7848  -11.7605   17.4730 H   0  0  0  0  0  0
  -29.6609  -13.4813   17.7309 H   0  0  0  0  0  0
  -27.8619  -11.2977   18.8387 H   0  0  0  0  0  0
  -27.3887  -12.6026   17.7803 H   0  0  0  0  0  0
  -27.6764  -14.2505   19.5222 H   0  0  0  0  0  0
  -28.7243  -12.0266   21.3472 H   0  0  0  0  0  0
  -28.4463  -13.6724   21.8482 H   0  0  0  0  0  0
  -25.2745   -9.5704   22.4738 H   0  0  0  0  0  0
  -23.9987   -7.4655   22.7471 H   0  0  0  0  0  0
  -21.0834   -8.8775   19.8959 H   0  0  0  0  0  0
  -22.3678  -10.9665   19.6142 H   0  0  0  0  0  0
  -21.2007   -7.6116   23.9701 H   0  0  0  0  0  0
  -21.1475   -6.0498   25.9072 H   0  0  0  0  0  0
  -22.0603   -2.7588   23.2836 H   0  0  0  0  0  0
  -22.4027  -11.9911   22.4793 H   0  0  0  0  0  0
  -21.1081  -13.1321   22.2519 H   0  0  0  0  0  0
  -24.6550  -15.8347   20.5120 H   0  0  0  0  0  0
  -26.2468  -15.6155   19.9922 H   0  0  0  0  0  0
  -26.7200  -32.5458   23.1116 H   0  0  0  0  0  0
  -25.0184  -33.9734   25.0505 H   0  0  0  0  0  0
  -22.7140  -31.3071   21.4088 H   0  0  0  0  0  0
  -23.3778  -35.9531   23.3218 H   0  0  0  0  0  0
  -24.3587  -36.8951   22.2064 H   0  0  0  0  0  0
  -23.7130  -37.6398   23.6684 H   0  0  0  0  0  0
  -26.0904  -31.5596   20.6068 H   0  0  0  0  0  0
  -26.8403  -30.8432   22.0017 H   0  0  0  0  0  0
  -28.1120  -28.9818   21.1796 H   0  0  0  0  0  0
  -25.9084  -25.9246   19.0320 H   0  0  0  0  0  0
  -23.9588  -27.3081   19.0338 H   0  0  0  0  0  0
  -23.7546  -30.6007   19.4066 H   0  0  0  0  0  0
  -22.7509  -29.2563   19.8590 H   0  0  0  0  0  0
  -25.1243  -36.1914   25.0822 H   0  0  0  0  0  0
  -20.9988  -28.3263   24.1404 H   0  0  0  0  0  0
  -20.5656  -26.2297   23.3608 H   0  0  0  0  0  0
  -21.6629  -26.7448   22.1207 H   0  0  0  0  0  0
  -19.6880  -25.6321   21.1235 H   0  0  0  0  0  0
  -19.6679  -27.3222   20.6737 H   0  0  0  0  0  0
  -17.4195  -26.6759   21.3986 H   0  0  0  0  0  0
  -18.0271  -26.0091   22.8986 H   0  0  0  0  0  0
  -19.7941  -30.7289   24.2272 H   0  0  0  0  0  0
  -17.5016  -31.6283   24.5173 H   0  0  0  0  0  0
  -15.5346  -30.2994   23.7678 H   0  0  0  0  0  0
  -15.8671  -28.0823   22.7100 H   0  0  0  0  0  0
  -24.5920  -30.7114   25.7863 H   0  0  0  0  0  0
  -24.8961  -32.2956   26.4901 H   0  0  0  0  0  0
  -25.8114  -30.8990   27.0298 H   0  0  0  0  0  0
  -26.2902  -29.6780   24.1240 H   0  0  0  0  0  0
  -27.4047  -29.7282   25.4698 H   0  0  0  0  0  0
  -27.8762  -30.4296   23.9406 H   0  0  0  0  0  0
  -27.2768  -33.3656   26.2020 H   0  0  0  0  0  0
  -28.3934  -32.6801   25.0326 H   0  0  0  0  0  0
  -28.0731  -31.8464   26.5453 H   0  0  0  0  0  0
  -28.2522  -38.0121   24.7653 H   0  0  0  0  0  0
  -28.1155  -36.2675   24.6047 H   0  0  0  0  0  0
  -27.2350  -37.1147   25.8852 H   0  0  0  0  0  0
  -20.9371  -29.8773   21.6897 H   0  0  0  0  0  0
  -26.0124  -38.2837   24.1594 H   0  0  0  0  0  0
  -27.4989  -19.7313   21.0986 H   0  0  0  0  0  0
  -31.7625  -19.9636   20.5878 H   0  0  0  0  0  0
  -27.6313  -17.2898   21.0038 H   0  0  0  0  0  0
  -31.9020  -17.5083   20.4811 H   0  0  0  0  0  0
  -30.8456  -23.5223   17.7776 H   0  0  0  0  0  0
  -29.2937  -23.7192   17.0317 H   0  0  0  0  0  0
  -29.5927  -25.8546   17.9429 H   0  0  0  0  0  0
  -30.5524  -25.2612   19.2726 H   0  0  0  0  0  0
  -29.8291  -21.5980   18.6088 H   0  0  0  0  0  0
  -28.2240  -22.2408   18.4373 H   0  0  0  0  0  0
  -27.5773  -24.8485   19.0407 H   0  0  0  0  0  0
  -30.5910  -21.9163   21.4669 H   0  0  0  0  0  0
  -29.0083  -21.7005   22.1067 H   0  0  0  0  0  0
  -28.8303  -15.3183   21.0554 H   0  0  0  0  0  0
  1 25  1  0  0  0
  1 30  2  0  0  0
  1 84  1  0  0  0
  2  3  1  0  0  0
  2 25  1  0  0  0
  2 86  1  0  0  0
  2 87  1  0  0  0
  3  4  1  0  0  0
  3 88  1  0  0  0
  3 89  1  0  0  0
  4  5  1  0  0  0
  4 90  1  0  0  0
  4 91  1  0  0  0
  5  6  1  0  0  0
  5 26  1  0  0  0
  5 92  1  0  0  0
  6 25  1  0  0  0
  6 93  1  0  0  0
  6 94  1  0  0  0
  7  8  2  0  0  0
  7 26  1  0  0  0
  7 29  1  0  0  0
  8  9  1  0  0  0
  8 22  1  0  0  0
  9 10  1  0  0  0
  9 27  2  0  0  0
 10 11  2  0  0  0
 10 15  1  0  0  0
 11 12  1  0  0  0
 11 95  1  0  0  0
 12 13  2  0  0  0
 12 96  1  0  0  0
 13 14  1  0  0  0
 13 31  1  0  0  0
 14 15  2  0  0  0
 14 97  1  0  0  0
 15 98  1  0  0  0
 16 17  2  0  0  0
 16 21  1  0  0  0
 16 31  1  0  0  0
 17 18  1  0  0  0
 17 99  1  0  0  0
 18 19  2  0  0  0
 18100  1  0  0  0
 19 20  1  0  0  0
 19 24  1  0  0  0
 20 21  2  0  0  0
 20101  1  0  0  0
 21 23  1  0  0  0
 22 28  1  0  0  0
 22 32  2  0  0  0
 26 27  1  0  0  0
 28102  1  0  0  0
 28103  1  0  0  0
 29104  1  0  0  0
 29105  1  0  0  0
 33 34  1  0  0  0
 33 66  1  0  0  0
 33 70  2  0  0  0
 34 36  1  0  0  0
 34 59  1  0  0  0
 34106  1  0  0  0
 35 44  2  0  0  0
 35 45  1  0  0  0
 35 68  1  0  0  0
 36 56  1  0  0  0
 36107  1  0  0  0
 37 39  1  0  0  0
 37 47  1  0  0  0
 37 66  1  0  0  0
 37108  1  0  0  0
 38 43  2  0  0  0
 38 46  1  0  0  0
 38 47  1  0  0  0
 39 64  1  0  0  0
 39 67  2  0  0  0
 40 52  1  0  0  0
 40 53  2  0  0  0
 40 58  1  0  0  0
 41109  1  0  0  0
 41110  1  0  0  0
 41111  1  0  0  0
 41 48  1  0  0  0
 42 43  1  0  0  0
 42 66  1  0  0  0
 42112  1  0  0  0
 42113  1  0  0  0
 43 44  1  0  0  0
 44114  1  0  0  0
 45 46  2  0  0  0
 45115  1  0  0  0
 46116  1  0  0  0
 47117  1  0  0  0
 47118  1  0  0  0
 48 56  1  0  0  0
 48 65  1  0  0  0
 48119  1  0  0  0
 49 50  1  0  0  0
 49 53  1  0  0  0
 49 64  1  0  0  0
 49120  1  0  0  0
 50 51  1  0  0  0
 50121  1  0  0  0
 50122  1  0  0  0
 51 52  1  0  0  0
 51123  1  0  0  0
 51124  1  0  0  0
 52125  1  0  0  0
 52126  1  0  0  0
 53 54  1  0  0  0
 54 55  2  0  0  0
 54127  1  0  0  0
 55 57  1  0  0  0
 55128  1  0  0  0
 56 69  2  0  0  0
 57 58  2  0  0  0
 57129  1  0  0  0
 58130  1  0  0  0
 59 60  1  0  0  0
 59 61  1  0  0  0
 59 62  1  0  0  0
 60131  1  0  0  0
 60132  1  0  0  0
 60133  1  0  0  0
 61134  1  0  0  0
 61135  1  0  0  0
 61136  1  0  0  0
 62137  1  0  0  0
 62138  1  0  0  0
 62139  1  0  0  0
 63 65  1  0  0  0
 63140  1  0  0  0
 63141  1  0  0  0
 63142  1  0  0  0
 64143  1  0  0  0
 65144  1  0  0  0
 68 81  1  0  0  0
 71 73  2  0  0  0
 71 75  1  0  0  0
 71145  1  0  0  0
 72 74  1  0  0  0
 72 75  2  0  0  0
 72146  1  0  0  0
 73 76  1  0  0  0
 73147  1  0  0  0
 74 76  2  0  0  0
 74148  1  0  0  0
 75 82  1  0  0  0
 76 84  1  0  0  0
 77 81  1  0  0  0
 77 83  1  0  0  0
 77 85  2  0  0  0
 78 79  1  0  0  0
 78 80  1  0  0  0
 78149  1  0  0  0
 78150  1  0  0  0
 79 81  1  0  0  0
 79151  1  0  0  0
 79152  1  0  0  0
 80 83  1  0  0  0
 80153  1  0  0  0
 80154  1  0  0  0
 81155  1  0  0  0
 82 83  1  0  0  0
 82156  1  0  0  0
 82157  1  0  0  0
 84158  1  0  0  0
M  ISO  4   1 100  68 101  81 101  84 100
M  END
> <chiral flag>
0

> <version>
0

> <s_m_source_file>
/data/baiqing/PycharmProjects/Reinvent-master-3.2/result/LINK_invent/BTK/process_docking_weight1_custom_product_contain_oxygen_bond_distance_aromatic_linkinvent_7_9_3/rearranged_h_0029.sdf

> <i_m_source_file_index>
67

> <r_mmod_Potential_Energy-OPLS-2005>
147.01237487793

> <r_mmod_Stretch_Energy-OPLS-2005>
87.8073959350586

> <r_mmod_Bend_Energy-OPLS-2005>
163.758712768555

> <r_mmod_Torsional_Energy-OPLS-2005>
250.784606933594

> <r_mmod_Improper_Torsional_Energy-OPLS-2005>
6.46537065505981

> <r_mmod_Van_der_Waal_Energy-OPLS-2005>
151.818267822266

> <r_mmod_Electrostatic_Energy-OPLS-2005>
-330.551940917969

> <r_mmod_Solvation_Energy-OPLS-2005>
-234.586502075195

> <b_mmod_Minimization_Converged-OPLS-2005>
0

> <r_mmod_RMS_Derivative-OPLS-2005>
2.83832979202271

$$$$
67
                    3D
 Structure written by MMmdl.
160169  0  0  1  0            999 V2000
  -30.5556  -14.8248   20.4573 C   0  0  0  0  0  0
  -30.4378  -12.5095   19.4685 C   0  0  0  0  0  0
  -29.5069  -12.5107   18.2374 C   0  0  0  0  0  0
  -28.0372  -12.3112   18.6539 C   0  0  0  0  0  0
  -27.6311  -13.2289   19.8379 C   0  0  2  0  0  0
  -28.6771  -13.1951   20.9701 C   0  0  0  0  0  0
  -25.2473  -13.8198   20.5669 C   0  0  0  0  0  0
  -24.1782  -13.0430   20.9210 C   0  0  0  0  0  0
  -24.6399  -11.6914   20.8779 C   0  0  0  0  0  0
  -23.9100  -10.4284   21.0436 C   0  0  0  0  0  0
  -24.3650   -9.4186   21.9197 C   0  0  0  0  0  0
  -23.6309   -8.2230   22.0762 C   0  0  0  0  0  0
  -22.4281   -8.0298   21.3557 C   0  0  0  0  0  0
  -21.9936   -9.0278   20.4651 C   0  0  0  0  0  0
  -22.7289  -10.2141   20.3063 C   0  0  0  0  0  0
  -21.6840   -6.0761   22.5297 C   0  0  0  0  0  0
  -21.4015   -6.5661   23.8238 C   0  0  0  0  0  0
  -21.3645   -5.6806   24.9193 C   0  0  0  0  0  0
  -21.6028   -4.3070   24.7235 C   0  0  0  0  0  0
  -21.8816   -3.8171   23.4355 C   0  0  0  0  0  0
  -21.9184   -4.6991   22.3415 C   0  0  0  0  0  0
  -22.7808  -13.5207   21.1862 C   0  0  0  0  0  0
  -22.1647   -4.2183   21.0990 F   0  0  0  0  0  0
  -21.5611   -3.4542   25.7739 F   0  0  0  0  0  0
  -29.9610  -13.5807   20.3746 N   0  0  0  0  0  0
  -26.2883  -12.9387   20.3229 N   0  0  0  0  0  0
  -25.9311  -11.6541   20.5762 N   0  0  0  0  0  0
  -22.0468  -12.8200   22.0431 N   0  0  0  0  0  0
  -25.4122  -15.1927   20.4067 N   0  0  0  0  0  0
  -31.7644  -14.9274   20.2281 O   0  0  0  0  0  0
  -21.6627   -6.8905   21.4259 O   0  0  0  0  0  0
  -22.3485  -14.5502   20.6704 O   0  0  0  0  0  0
  -24.6377  -31.8490   23.1923 C   0  0  0  0  0  0
  -25.9178  -32.4719   23.8293 C   0  0  1  0  0  0
  -27.2196  -27.2031   20.1527 C   0  0  0  0  0  0
  -25.5933  -33.8522   24.2210 N   0  0  0  0  0  0
  -23.4374  -30.4703   21.5360 C   0  0  2  0  0  0
  -24.8868  -28.9016   20.1121 C   0  0  0  0  0  0
  -22.7535  -29.4581   22.4882 C   0  0  0  0  0  0
  -18.0299  -28.1385   22.8498 C   0  0  0  0  0  0
  -24.1485  -36.7271   23.2641 C   0  0  0  0  0  0
  -25.9879  -30.7463   21.3777 C   0  0  0  0  0  0
  -26.0612  -29.3625   20.7219 C   0  0  0  0  0  0
  -27.2318  -28.5289   20.7220 C   0  0  0  0  0  0
  -26.0224  -26.8185   19.5129 C   0  0  0  0  0  0
  -24.8766  -27.6408   19.4937 C   0  0  0  0  0  0
  -23.6611  -29.7967   20.1553 C   0  0  0  0  0  0
  -25.4117  -36.3043   24.0320 C   0  0  1  0  0  0
  -20.5908  -28.3703   23.1254 C   0  0  2  0  0  0
  -20.6775  -26.9407   22.5409 C   0  0  0  0  0  0
  -19.5749  -26.6377   21.5220 C   0  0  0  0  0  0
  -18.1937  -26.7927   22.1639 C   0  0  0  0  0  0
  -19.1556  -28.8863   23.2868 C   0  0  0  0  0  0
  -18.9473  -30.1461   23.8888 C   0  0  0  0  0  0
  -17.6469  -30.6588   24.0560 C   0  0  0  0  0  0
  -25.9066  -34.9418   23.5075 C   0  0  0  0  0  0
  -16.5362  -29.9083   23.6328 C   0  0  0  0  0  0
  -16.7283  -28.6495   23.0366 C   0  0  0  0  0  0
  -26.4519  -31.6560   25.0705 C   0  0  0  0  0  0
  -25.3726  -31.3747   26.1413 C   0  0  0  0  0  0
  -27.0364  -30.2963   24.6226 C   0  0  0  0  0  0
  -27.6044  -32.4322   25.7499 C   0  0  0  0  0  0
  -27.5571  -37.1798   24.8472 C   0  0  0  0  0  0
  -21.4230  -29.3044   22.3630 N   0  0  0  0  0  0
  -26.4285  -37.3751   23.9405 N   0  0  0  0  0  0
  -24.7076  -31.0419   22.0919 N   0  0  0  0  0  0
  -23.4216  -28.8133   23.3003 O   0  0  0  0  0  0
  -28.2931  -26.2691   20.2065 O   0  0  0  0  0  0
  -26.5652  -34.8916   22.4648 O   0  0  0  0  0  0
  -23.5514  -32.1317   23.7199 O   0  0  0  0  0  0
  -30.2645  -18.8089   22.9576 C   0  0  0  0  0  0
  -29.4905  -18.6011   20.3190 C   0  0  0  0  0  0
  -29.9494  -19.9940   22.2538 C   0  0  0  0  0  0
  -30.2157  -17.5230   22.3792 C   0  0  0  0  0  0
  -29.5235  -19.9605   20.8969 C   0  0  0  0  0  0
  -29.8623  -17.3560   21.0174 C   0  0  0  0  0  0
  -29.1446  -23.8534   21.1070 C   0  0  0  0  0  0
  -28.0169  -23.6111   19.4838 C   0  0  0  0  0  0
  -28.0209  -24.7950   20.5220 C   0  0  2  0  0  0
  -30.0947  -21.2906   23.0257 C   0  0  0  0  0  0
  -30.5047  -16.3322   23.2830 C   0  0  0  0  0  0
  -29.2737  -21.3481   20.0615 C   0  0  0  0  0  0
  -29.7179  -15.9533   20.4927 N   0  0  0  0  0  0
  -28.4863  -22.6248   20.5283 N   0  3  1  0  0  0
  -31.4682  -12.6734   19.1504 H   0  0  0  0  0  0
  -30.4250  -11.5410   19.9719 H   0  0  0  0  0  0
  -29.8099  -11.7324   17.5359 H   0  0  0  0  0  0
  -29.6057  -13.4608   17.7098 H   0  0  0  0  0  0
  -27.9046  -11.2654   18.9350 H   0  0  0  0  0  0
  -27.3818  -12.4762   17.7974 H   0  0  0  0  0  0
  -27.6115  -14.2401   19.4326 H   0  0  0  0  0  0
  -28.7344  -12.2004   21.4127 H   0  0  0  0  0  0
  -28.4029  -13.8760   21.7775 H   0  0  0  0  0  0
  -25.2805   -9.5635   22.4777 H   0  0  0  0  0  0
  -24.0003   -7.4608   22.7482 H   0  0  0  0  0  0
  -21.0864   -8.8827   19.8959 H   0  0  0  0  0  0
  -22.3780  -10.9694   19.6171 H   0  0  0  0  0  0
  -21.2022   -7.6170   23.9763 H   0  0  0  0  0  0
  -21.1453   -6.0526   25.9096 H   0  0  0  0  0  0
  -22.0606   -2.7638   23.2853 H   0  0  0  0  0  0
  -22.4083  -11.9860   22.4809 H   0  0  0  0  0  0
  -21.1095  -13.1239   22.2652 H   0  0  0  0  0  0
  -24.6414  -15.8409   20.5298 H   0  0  0  0  0  0
  -26.2491  -15.6452   20.0646 H   0  0  0  0  0  0
  -26.7246  -32.5357   23.1031 H   0  0  0  0  0  0
  -25.0044  -33.9640   25.0335 H   0  0  0  0  0  0
  -22.7332  -31.2916   21.3826 H   0  0  0  0  0  0
  -23.3744  -35.9608   23.3315 H   0  0  0  0  0  0
  -24.3564  -36.8893   22.2050 H   0  0  0  0  0  0
  -23.7253  -37.6483   23.6670 H   0  0  0  0  0  0
  -26.1268  -31.5025   20.6039 H   0  0  0  0  0  0
  -26.8642  -30.7991   22.0122 H   0  0  0  0  0  0
  -28.1293  -28.8735   21.2161 H   0  0  0  0  0  0
  -25.9562  -25.8494   19.0416 H   0  0  0  0  0  0
  -23.9770  -27.2810   19.0139 H   0  0  0  0  0  0
  -23.7928  -30.5689   19.3961 H   0  0  0  0  0  0
  -22.7765  -29.2340   19.8527 H   0  0  0  0  0  0
  -25.1305  -36.1869   25.0816 H   0  0  0  0  0  0
  -21.0003  -28.3287   24.1374 H   0  0  0  0  0  0
  -20.5659  -26.2323   23.3630 H   0  0  0  0  0  0
  -21.6644  -26.7416   22.1207 H   0  0  0  0  0  0
  -19.6904  -25.6286   21.1253 H   0  0  0  0  0  0
  -19.6675  -27.3188   20.6754 H   0  0  0  0  0  0
  -17.4198  -26.6686   21.4046 H   0  0  0  0  0  0
  -18.0328  -26.0064   22.9029 H   0  0  0  0  0  0
  -19.7944  -30.7283   24.2262 H   0  0  0  0  0  0
  -17.5020  -31.6269   24.5154 H   0  0  0  0  0  0
  -15.5361  -30.2980   23.7652 H   0  0  0  0  0  0
  -15.8687  -28.0804   22.7094 H   0  0  0  0  0  0
  -24.5892  -30.7102   25.7753 H   0  0  0  0  0  0
  -24.8934  -32.2940   26.4794 H   0  0  0  0  0  0
  -25.8021  -30.8950   27.0216 H   0  0  0  0  0  0
  -26.2964  -29.6706   24.1222 H   0  0  0  0  0  0
  -27.3999  -29.7226   25.4763 H   0  0  0  0  0  0
  -27.8861  -30.4226   23.9509 H   0  0  0  0  0  0
  -27.2615  -33.3621   26.2055 H   0  0  0  0  0  0
  -28.3876  -32.6892   25.0353 H   0  0  0  0  0  0
  -28.0690  -31.8465   26.5442 H   0  0  0  0  0  0
  -28.2604  -38.0076   24.7476 H   0  0  0  0  0  0
  -28.1048  -36.2606   24.6347 H   0  0  0  0  0  0
  -27.2284  -37.1505   25.8874 H   0  0  0  0  0  0
  -20.9430  -29.8762   21.6825 H   0  0  0  0  0  0
  -26.0155  -38.2829   24.1382 H   0  0  0  0  0  0
  -30.5530  -18.8876   23.9978 H   0  0  0  0  0  0
  -29.1797  -18.5098   19.2875 H   0  0  0  0  0  0
  -30.1334  -24.0454   20.6817 H   0  0  0  0  0  0
  -29.1845  -23.8772   22.1958 H   0  0  0  0  0  0
  -27.0330  -23.3760   19.0787 H   0  0  0  0  0  0
  -28.7430  -23.7375   18.6771 H   0  0  0  0  0  0
  -27.1333  -24.7397   21.1569 H   0  0  0  0  0  0
  -29.1131  -21.7140   23.2358 H   0  0  0  0  0  0
  -30.7090  -22.0084   22.4847 H   0  0  0  0  0  0
  -30.5849  -21.1280   23.9856 H   0  0  0  0  0  0
  -31.4614  -15.8813   23.0199 H   0  0  0  0  0  0
  -29.7254  -15.5756   23.1964 H   0  0  0  0  0  0
  -30.5417  -16.6198   24.3341 H   0  0  0  0  0  0
  -28.7572  -21.0233   19.1592 H   0  0  0  0  0  0
  -30.2474  -21.6867   19.7082 H   0  0  0  0  0  0
  -28.7590  -15.7061   20.3080 H   0  0  0  0  0  0
  -27.6941  -22.3444   21.0868 H   0  0  0  0  0  0
  1 25  1  0  0  0
  1 30  2  0  0  0
  1 83  1  0  0  0
  2  3  1  0  0  0
  2 25  1  0  0  0
  2 85  1  0  0  0
  2 86  1  0  0  0
  3  4  1  0  0  0
  3 87  1  0  0  0
  3 88  1  0  0  0
  4  5  1  0  0  0
  4 89  1  0  0  0
  4 90  1  0  0  0
  5  6  1  0  0  0
  5 26  1  0  0  0
  5 91  1  0  0  0
  6 25  1  0  0  0
  6 92  1  0  0  0
  6 93  1  0  0  0
  7  8  2  0  0  0
  7 26  1  0  0  0
  7 29  1  0  0  0
  8  9  1  0  0  0
  8 22  1  0  0  0
  9 10  1  0  0  0
  9 27  2  0  0  0
 10 11  2  0  0  0
 10 15  1  0  0  0
 11 12  1  0  0  0
 11 94  1  0  0  0
 12 13  2  0  0  0
 12 95  1  0  0  0
 13 14  1  0  0  0
 13 31  1  0  0  0
 14 15  2  0  0  0
 14 96  1  0  0  0
 15 97  1  0  0  0
 16 17  2  0  0  0
 16 21  1  0  0  0
 16 31  1  0  0  0
 17 18  1  0  0  0
 17 98  1  0  0  0
 18 19  2  0  0  0
 18 99  1  0  0  0
 19 20  1  0  0  0
 19 24  1  0  0  0
 20 21  2  0  0  0
 20100  1  0  0  0
 21 23  1  0  0  0
 22 28  1  0  0  0
 22 32  2  0  0  0
 26 27  1  0  0  0
 28101  1  0  0  0
 28102  1  0  0  0
 29103  1  0  0  0
 29104  1  0  0  0
 33 34  1  0  0  0
 33 66  1  0  0  0
 33 70  2  0  0  0
 34 36  1  0  0  0
 34 59  1  0  0  0
 34105  1  0  0  0
 35 44  2  0  0  0
 35 45  1  0  0  0
 35 68  1  0  0  0
 36 56  1  0  0  0
 36106  1  0  0  0
 37 39  1  0  0  0
 37 47  1  0  0  0
 37 66  1  0  0  0
 37107  1  0  0  0
 38 43  2  0  0  0
 38 46  1  0  0  0
 38 47  1  0  0  0
 39 64  1  0  0  0
 39 67  2  0  0  0
 40 52  1  0  0  0
 40 53  2  0  0  0
 40 58  1  0  0  0
 41108  1  0  0  0
 41109  1  0  0  0
 41110  1  0  0  0
 41 48  1  0  0  0
 42 43  1  0  0  0
 42 66  1  0  0  0
 42111  1  0  0  0
 42112  1  0  0  0
 43 44  1  0  0  0
 44113  1  0  0  0
 45 46  2  0  0  0
 45114  1  0  0  0
 46115  1  0  0  0
 47116  1  0  0  0
 47117  1  0  0  0
 48 56  1  0  0  0
 48 65  1  0  0  0
 48118  1  0  0  0
 49 50  1  0  0  0
 49 53  1  0  0  0
 49 64  1  0  0  0
 49119  1  0  0  0
 50 51  1  0  0  0
 50120  1  0  0  0
 50121  1  0  0  0
 51 52  1  0  0  0
 51122  1  0  0  0
 51123  1  0  0  0
 52124  1  0  0  0
 52125  1  0  0  0
 53 54  1  0  0  0
 54 55  2  0  0  0
 54126  1  0  0  0
 55 57  1  0  0  0
 55127  1  0  0  0
 56 69  2  0  0  0
 57 58  2  0  0  0
 57128  1  0  0  0
 58129  1  0  0  0
 59 60  1  0  0  0
 59 61  1  0  0  0
 59 62  1  0  0  0
 60130  1  0  0  0
 60131  1  0  0  0
 60132  1  0  0  0
 61133  1  0  0  0
 61134  1  0  0  0
 61135  1  0  0  0
 62136  1  0  0  0
 62137  1  0  0  0
 62138  1  0  0  0
 63 65  1  0  0  0
 63139  1  0  0  0
 63140  1  0  0  0
 63141  1  0  0  0
 64142  1  0  0  0
 65143  1  0  0  0
 68 79  1  0  0  0
 71 73  2  0  0  0
 71 74  1  0  0  0
 71144  1  0  0  0
 72 75  2  0  0  0
 72 76  1  0  0  0
 72145  1  0  0  0
 73 75  1  0  0  0
 73 80  1  0  0  0
 74 76  2  0  0  0
 74 81  1  0  0  0
 75 82  1  0  0  0
 76 83  1  0  0  0
 77 79  1  0  0  0
 77 84  1  0  0  0
 77146  1  0  0  0
 77147  1  0  0  0
 78 79  1  0  0  0
 78 84  1  0  0  0
 78148  1  0  0  0
 78149  1  0  0  0
 79150  1  0  0  0
 80151  1  0  0  0
 80152  1  0  0  0
 80153  1  0  0  0
 81154  1  0  0  0
 81155  1  0  0  0
 81156  1  0  0  0
 82157  1  0  0  0
 82158  1  0  0  0
 82 84  1  0  0  0
 83159  1  0  0  0
 84160  1  0  0  0
M  CHG  1  84   1
M  ISO  4   1 100  68 101  79 101  83 100
M  END
> <chiral flag>
0

> <version>
0

> <s_m_source_file>
/data/baiqing/PycharmProjects/Reinvent-master-3.2/result/LINK_invent/BTK/process_docking_weight1_custom_product_contain_oxygen_bond_distance_aromatic_linkinvent_7_9_3/rearranged_h_0029.sdf

> <i_m_source_file_index>
68

> <r_mmod_Potential_Energy-OPLS-2005>
129.320022583008

> <r_mmod_Stretch_Energy-OPLS-2005>
171.379745483398

> <r_mmod_Bend_Energy-OPLS-2005>
234.264602661133

> <r_mmod_Torsional_Energy-OPLS-2005>
262.089996337891

> <r_mmod_Improper_Torsional_Energy-OPLS-2005>
9.40549087524414

> <r_mmod_Van_der_Waal_Energy-OPLS-2005>
135.457992553711

> <r_mmod_Electrostatic_Energy-OPLS-2005>
-334.409088134766

> <r_mmod_Solvation_Energy-OPLS-2005>
-477.14794921875

> <b_mmod_Minimization_Converged-OPLS-2005>
0

> <r_mmod_RMS_Derivative-OPLS-2005>
2.42203378677368

$$$$
68
                    3D
 Structure written by MMmdl.
157166  0  0  1  0            999 V2000
  -30.4599  -15.1423   20.3523 C   0  0  0  0  0  0
  -30.4399  -12.7170   19.5241 C   0  0  0  0  0  0
  -29.5351  -12.5498   18.2804 C   0  0  0  0  0  0
  -28.0696  -12.3159   18.6896 C   0  0  0  0  0  0
  -27.6165  -13.2698   19.8244 C   0  0  2  0  0  0
  -28.6491  -13.3851   20.9637 C   0  0  0  0  0  0
  -25.2409  -13.8270   20.5691 C   0  0  0  0  0  0
  -24.1751  -13.0458   20.9206 C   0  0  0  0  0  0
  -24.6369  -11.6956   20.8697 C   0  0  0  0  0  0
  -23.9070  -10.4307   21.0388 C   0  0  0  0  0  0
  -24.3627   -9.4227   21.9162 C   0  0  0  0  0  0
  -23.6287   -8.2272   22.0750 C   0  0  0  0  0  0
  -22.4260   -8.0306   21.3549 C   0  0  0  0  0  0
  -21.9909   -9.0273   20.4650 C   0  0  0  0  0  0
  -22.7237  -10.2144   20.3051 C   0  0  0  0  0  0
  -21.6841   -6.0739   22.5277 C   0  0  0  0  0  0
  -21.4024   -6.5651   23.8210 C   0  0  0  0  0  0
  -21.3648   -5.6802   24.9165 C   0  0  0  0  0  0
  -21.6043   -4.3068   24.7218 C   0  0  0  0  0  0
  -21.8808   -3.8150   23.4342 C   0  0  0  0  0  0
  -21.9199   -4.6971   22.3388 C   0  0  0  0  0  0
  -22.7773  -13.5221   21.1855 C   0  0  0  0  0  0
  -22.1662   -4.2153   21.0967 F   0  0  0  0  0  0
  -21.5625   -3.4546   25.7726 F   0  0  0  0  0  0
  -29.9011  -13.8494   20.3520 N   0  0  0  0  0  0
  -26.2835  -12.9514   20.3203 N   0  0  0  0  0  0
  -25.9315  -11.6627   20.5710 N   0  0  0  0  0  0
  -22.0414  -12.8208   22.0420 N   0  0  0  0  0  0
  -25.4060  -15.2001   20.4093 N   0  0  0  0  0  0
  -31.6768  -15.1615   20.1136 O   0  0  0  0  0  0
  -21.6649   -6.8882   21.4227 O   0  0  0  0  0  0
  -22.3456  -14.5498   20.6672 O   0  0  0  0  0  0
  -24.6594  -31.8273   23.1755 C   0  0  0  0  0  0
  -25.9288  -32.4605   23.8219 C   0  0  1  0  0  0
  -27.1992  -26.9899   20.1659 C   0  0  0  0  0  0
  -25.5957  -33.8418   24.2118 N   0  0  0  0  0  0
  -23.4666  -30.4445   21.5266 C   0  0  2  0  0  0
  -24.9109  -28.8377   20.1171 C   0  0  0  0  0  0
  -22.7626  -29.4468   22.4833 C   0  0  0  0  0  0
  -18.0318  -28.1371   22.8490 C   0  0  0  0  0  0
  -24.1477  -36.7217   23.2649 C   0  0  0  0  0  0
  -26.0335  -30.6527   21.3958 C   0  0  0  0  0  0
  -26.0964  -29.2492   20.7390 C   0  0  0  0  0  0
  -27.2407  -28.3446   20.7366 C   0  0  0  0  0  0
  -25.9836  -26.7026   19.5125 C   0  0  0  0  0  0
  -24.8746  -27.5832   19.4864 C   0  0  0  0  0  0
  -23.7004  -29.7625   20.1513 C   0  0  0  0  0  0
  -25.4105  -36.2977   24.0315 C   0  0  1  0  0  0
  -20.5930  -28.3711   23.1203 C   0  0  2  0  0  0
  -20.6774  -26.9393   22.5402 C   0  0  0  0  0  0
  -19.5763  -26.6353   21.5204 C   0  0  0  0  0  0
  -18.1961  -26.7912   22.1641 C   0  0  0  0  0  0
  -19.1584  -28.8866   23.2832 C   0  0  0  0  0  0
  -18.9485  -30.1452   23.8859 C   0  0  0  0  0  0
  -17.6486  -30.6575   24.0535 C   0  0  0  0  0  0
  -25.9080  -34.9358   23.5035 C   0  0  0  0  0  0
  -16.5367  -29.9057   23.6325 C   0  0  0  0  0  0
  -16.7303  -28.6461   23.0375 C   0  0  0  0  0  0
  -26.4542  -31.6558   25.0751 C   0  0  0  0  0  0
  -25.3689  -31.3812   26.1429 C   0  0  0  0  0  0
  -27.0412  -30.2922   24.6455 C   0  0  0  0  0  0
  -27.6032  -32.4360   25.7547 C   0  0  0  0  0  0
  -27.5546  -37.1764   24.8461 C   0  0  0  0  0  0
  -21.4313  -29.3022   22.3569 N   0  0  0  0  0  0
  -26.4249  -37.3707   23.9415 N   0  0  0  0  0  0
  -24.7414  -30.9981   22.0876 N   0  0  0  0  0  0
  -23.4203  -28.8015   23.3025 O   0  0  0  0  0  0
  -28.2345  -25.9462   20.1641 O   0  0  0  0  0  0
  -26.5690  -34.8869   22.4638 O   0  0  0  0  0  0
  -23.5674  -32.1232   23.6879 O   0  0  0  0  0  0
  -28.3882  -18.4724   17.5903 C   0  0  0  0  0  0
  -30.4437  -17.6918   18.6350 C   0  0  0  0  0  0
  -27.9761  -19.0336   18.8131 C   0  0  0  0  0  0
  -28.8901  -19.0815   19.8953 C   0  0  0  0  0  0
  -29.8416  -17.8620   19.9056 C   0  0  0  0  0  0
  -29.6823  -17.9322   17.4745 C   0  0  0  0  0  0
  -27.7283  -23.0421   19.5749 C   0  0  0  0  0  0
  -29.2547  -23.3674   20.8904 C   0  0  0  0  0  0
  -28.0516  -24.3625   20.4681 C   0  0  1  0  0  0
  -26.5930  -19.6484   18.8936 C   0  0  0  0  0  0
  -28.8609  -20.6096   20.6684 C   0  0  0  0  0  0
  -29.6818  -16.3817   20.4612 N   0  0  0  0  0  0
  -28.8821  -22.1372   20.0531 N   0  3  1  0  0  0
  -30.2580  -17.4072   15.9318 Cl  0  0  0  0  0  0
  -31.4647  -12.9057   19.2005 H   0  0  0  0  0  0
  -30.4846  -11.7964   20.1112 H   0  0  0  0  0  0
  -29.8897  -11.7260   17.6598 H   0  0  0  0  0  0
  -29.6014  -13.4514   17.6681 H   0  0  0  0  0  0
  -27.9723  -11.2806   19.0202 H   0  0  0  0  0  0
  -27.4120  -12.4238   17.8243 H   0  0  0  0  0  0
  -27.5462  -14.2489   19.3504 H   0  0  0  0  0  0
  -28.7809  -12.4337   21.4784 H   0  0  0  0  0  0
  -28.3146  -14.1035   21.7132 H   0  0  0  0  0  0
  -25.2764   -9.5719   22.4740 H   0  0  0  0  0  0
  -23.9984   -7.4685   22.7503 H   0  0  0  0  0  0
  -21.0834   -8.8807   19.8973 H   0  0  0  0  0  0
  -22.3688  -10.9688   19.6178 H   0  0  0  0  0  0
  -21.2023   -7.6161   23.9700 H   0  0  0  0  0  0
  -21.1464   -6.0542   25.9065 H   0  0  0  0  0  0
  -22.0581   -2.7619   23.2836 H   0  0  0  0  0  0
  -22.4018  -11.9914   22.4898 H   0  0  0  0  0  0
  -21.1016  -13.1263   22.2574 H   0  0  0  0  0  0
  -24.6363  -15.8495   20.5328 H   0  0  0  0  0  0
  -26.2370  -15.6429   20.0377 H   0  0  0  0  0  0
  -26.7360  -32.5153   23.0935 H   0  0  0  0  0  0
  -25.0048  -33.9515   25.0226 H   0  0  0  0  0  0
  -22.7789  -31.2745   21.3584 H   0  0  0  0  0  0
  -23.3744  -35.9546   23.3302 H   0  0  0  0  0  0
  -24.3560  -36.8869   22.2064 H   0  0  0  0  0  0
  -23.7219  -37.6397   23.6711 H   0  0  0  0  0  0
  -26.2099  -31.3963   20.6169 H   0  0  0  0  0  0
  -26.8970  -30.7055   22.0462 H   0  0  0  0  0  0
  -28.1486  -28.6573   21.2319 H   0  0  0  0  0  0
  -25.8721  -25.7409   19.0302 H   0  0  0  0  0  0
  -23.9681  -27.2639   18.9907 H   0  0  0  0  0  0
  -23.8538  -30.5302   19.3911 H   0  0  0  0  0  0
  -22.8106  -29.2147   19.8364 H   0  0  0  0  0  0
  -25.1298  -36.1792   25.0808 H   0  0  0  0  0  0
  -21.0035  -28.3305   24.1316 H   0  0  0  0  0  0
  -20.5628  -26.2337   23.3637 H   0  0  0  0  0  0
  -21.6641  -26.7344   22.1217 H   0  0  0  0  0  0
  -19.6897  -25.6241   21.1264 H   0  0  0  0  0  0
  -19.6673  -27.3151   20.6714 H   0  0  0  0  0  0
  -17.4192  -26.6647   21.4057 H   0  0  0  0  0  0
  -18.0338  -26.0052   22.9039 H   0  0  0  0  0  0
  -19.7953  -30.7287   24.2214 H   0  0  0  0  0  0
  -17.5019  -31.6259   24.5134 H   0  0  0  0  0  0
  -15.5355  -30.2946   23.7659 H   0  0  0  0  0  0
  -15.8706  -28.0755   22.7136 H   0  0  0  0  0  0
  -24.5860  -30.7158   25.7767 H   0  0  0  0  0  0
  -24.8896  -32.3028   26.4758 H   0  0  0  0  0  0
  -25.7957  -30.9057   27.0279 H   0  0  0  0  0  0
  -26.3077  -29.6621   24.1401 H   0  0  0  0  0  0
  -27.3882  -29.7252   25.5108 H   0  0  0  0  0  0
  -27.9053  -30.4094   23.9902 H   0  0  0  0  0  0
  -27.2595  -33.3692   26.2024 H   0  0  0  0  0  0
  -28.3907  -32.6877   25.0433 H   0  0  0  0  0  0
  -28.0639  -31.8569   26.5560 H   0  0  0  0  0  0
  -28.2556  -38.0063   24.7490 H   0  0  0  0  0  0
  -28.1059  -36.2594   24.6320 H   0  0  0  0  0  0
  -27.2286  -37.1436   25.8870 H   0  0  0  0  0  0
  -20.9557  -29.8751   21.6744 H   0  0  0  0  0  0
  -26.0118  -38.2777   24.1417 H   0  0  0  0  0  0
  -27.7464  -18.5169   16.7222 H   0  0  0  0  0  0
  -31.2983  -17.0471   18.5013 H   0  0  0  0  0  0
  -27.8022  -23.2284   18.5043 H   0  0  0  0  0  0
  -26.7539  -22.6129   19.8063 H   0  0  0  0  0  0
  -29.2609  -23.1565   21.9587 H   0  0  0  0  0  0
  -30.2296  -23.7507   20.5891 H   0  0  0  0  0  0
  -27.3214  -24.3495   21.2797 H   0  0  0  0  0  0
  -26.5768  -20.6628   18.5025 H   0  0  0  0  0  0
  -26.2121  -19.6464   19.9148 H   0  0  0  0  0  0
  -25.8936  -19.0574   18.3017 H   0  0  0  0  0  0
  -29.7306  -20.5762   21.3226 H   0  0  0  0  0  0
  -28.0156  -20.5846   21.3551 H   0  0  0  0  0  0
  -28.7616  -16.2062   20.8381 H   0  0  0  0  0  0
  -29.5524  -22.0966   19.3001 H   0  0  0  0  0  0
  1 25  1  0  0  0
  1 30  2  0  0  0
  1 82  1  0  0  0
  2  3  1  0  0  0
  2 25  1  0  0  0
  2 85  1  0  0  0
  2 86  1  0  0  0
  3  4  1  0  0  0
  3 87  1  0  0  0
  3 88  1  0  0  0
  4  5  1  0  0  0
  4 89  1  0  0  0
  4 90  1  0  0  0
  5  6  1  0  0  0
  5 26  1  0  0  0
  5 91  1  0  0  0
  6 25  1  0  0  0
  6 92  1  0  0  0
  6 93  1  0  0  0
  7  8  2  0  0  0
  7 26  1  0  0  0
  7 29  1  0  0  0
  8  9  1  0  0  0
  8 22  1  0  0  0
  9 10  1  0  0  0
  9 27  2  0  0  0
 10 11  2  0  0  0
 10 15  1  0  0  0
 11 12  1  0  0  0
 11 94  1  0  0  0
 12 13  2  0  0  0
 12 95  1  0  0  0
 13 14  1  0  0  0
 13 31  1  0  0  0
 14 15  2  0  0  0
 14 96  1  0  0  0
 15 97  1  0  0  0
 16 17  2  0  0  0
 16 21  1  0  0  0
 16 31  1  0  0  0
 17 18  1  0  0  0
 17 98  1  0  0  0
 18 19  2  0  0  0
 18 99  1  0  0  0
 19 20  1  0  0  0
 19 24  1  0  0  0
 20 21  2  0  0  0
 20100  1  0  0  0
 21 23  1  0  0  0
 22 28  1  0  0  0
 22 32  2  0  0  0
 26 27  1  0  0  0
 28101  1  0  0  0
 28102  1  0  0  0
 29103  1  0  0  0
 29104  1  0  0  0
 33 34  1  0  0  0
 33 66  1  0  0  0
 33 70  2  0  0  0
 34 36  1  0  0  0
 34 59  1  0  0  0
 34105  1  0  0  0
 35 44  2  0  0  0
 35 45  1  0  0  0
 35 68  1  0  0  0
 36 56  1  0  0  0
 36106  1  0  0  0
 37 39  1  0  0  0
 37 47  1  0  0  0
 37 66  1  0  0  0
 37107  1  0  0  0
 38 43  2  0  0  0
 38 46  1  0  0  0
 38 47  1  0  0  0
 39 64  1  0  0  0
 39 67  2  0  0  0
 40 52  1  0  0  0
 40 53  2  0  0  0
 40 58  1  0  0  0
 41108  1  0  0  0
 41109  1  0  0  0
 41110  1  0  0  0
 41 48  1  0  0  0
 42 43  1  0  0  0
 42 66  1  0  0  0
 42111  1  0  0  0
 42112  1  0  0  0
 43 44  1  0  0  0
 44113  1  0  0  0
 45 46  2  0  0  0
 45114  1  0  0  0
 46115  1  0  0  0
 47116  1  0  0  0
 47117  1  0  0  0
 48 56  1  0  0  0
 48 65  1  0  0  0
 48118  1  0  0  0
 49 50  1  0  0  0
 49 53  1  0  0  0
 49 64  1  0  0  0
 49119  1  0  0  0
 50 51  1  0  0  0
 50120  1  0  0  0
 50121  1  0  0  0
 51 52  1  0  0  0
 51122  1  0  0  0
 51123  1  0  0  0
 52124  1  0  0  0
 52125  1  0  0  0
 53 54  1  0  0  0
 54 55  2  0  0  0
 54126  1  0  0  0
 55 57  1  0  0  0
 55127  1  0  0  0
 56 69  2  0  0  0
 57 58  2  0  0  0
 57128  1  0  0  0
 58129  1  0  0  0
 59 60  1  0  0  0
 59 61  1  0  0  0
 59 62  1  0  0  0
 60130  1  0  0  0
 60131  1  0  0  0
 60132  1  0  0  0
 61133  1  0  0  0
 61134  1  0  0  0
 61135  1  0  0  0
 62136  1  0  0  0
 62137  1  0  0  0
 62138  1  0  0  0
 63 65  1  0  0  0
 63139  1  0  0  0
 63140  1  0  0  0
 63141  1  0  0  0
 64142  1  0  0  0
 65143  1  0  0  0
 68 79  1  0  0  0
 71 73  2  0  0  0
 71 76  1  0  0  0
 71144  1  0  0  0
 72 75  1  0  0  0
 72 76  2  0  0  0
 72145  1  0  0  0
 73 74  1  0  0  0
 73 80  1  0  0  0
 74 75  2  0  0  0
 74 81  1  0  0  0
 75 82  1  0  0  0
 76 84  1  0  0  0
 77 79  1  0  0  0
 77 83  1  0  0  0
 77146  1  0  0  0
 77147  1  0  0  0
 78 79  1  0  0  0
 78 83  1  0  0  0
 78148  1  0  0  0
 78149  1  0  0  0
 79150  1  0  0  0
 80151  1  0  0  0
 80152  1  0  0  0
 80153  1  0  0  0
 81154  1  0  0  0
 81155  1  0  0  0
 81 83  1  0  0  0
 82156  1  0  0  0
 83157  1  0  0  0
M  CHG  1  83   1
M  ISO  4   1 100  68 101  79 101  82 100
M  END
> <chiral flag>
0

> <version>
0

> <s_m_source_file>
/data/baiqing/PycharmProjects/Reinvent-master-3.2/result/LINK_invent/BTK/process_docking_weight1_custom_product_contain_oxygen_bond_distance_aromatic_linkinvent_7_9_3/rearranged_h_0029.sdf

> <i_m_source_file_index>
69

> <r_mmod_Potential_Energy-OPLS-2005>
1044.37255859375

> <r_mmod_Stretch_Energy-OPLS-2005>
421.974456787109

> <r_mmod_Bend_Energy-OPLS-2005>
438.445556640625

> <r_mmod_Torsional_Energy-OPLS-2005>
471.519226074219

> <r_mmod_Improper_Torsional_Energy-OPLS-2005>
23.8484477996826

> <r_mmod_Van_der_Waal_Energy-OPLS-2005>
123.065963745117

> <r_mmod_Electrostatic_Energy-OPLS-2005>
-288.444091796875

> <r_mmod_Solvation_Energy-OPLS-2005>
-493.540649414062

> <b_mmod_Minimization_Converged-OPLS-2005>
0

> <r_mmod_RMS_Derivative-OPLS-2005>
4.71196746826172

$$$$
69
                    3D
 Structure written by MMmdl.
156165  0  0  1  0            999 V2000
  -30.6735  -14.6599   20.4955 C   0  0  0  0  0  0
  -30.4185  -12.4097   19.4612 C   0  0  0  0  0  0
  -29.5024  -12.5047   18.2230 C   0  0  0  0  0  0
  -28.0252  -12.3469   18.6312 C   0  0  0  0  0  0
  -27.6421  -13.2310   19.8490 C   0  0  2  0  0  0
  -28.6854  -13.1300   20.9804 C   0  0  0  0  0  0
  -25.2513  -13.8209   20.5695 C   0  0  0  0  0  0
  -24.1804  -13.0449   20.9204 C   0  0  0  0  0  0
  -24.6394  -11.6926   20.8739 C   0  0  0  0  0  0
  -23.9079  -10.4297   21.0402 C   0  0  0  0  0  0
  -24.3631   -9.4211   21.9180 C   0  0  0  0  0  0
  -23.6307   -8.2243   22.0754 C   0  0  0  0  0  0
  -22.4286   -8.0282   21.3547 C   0  0  0  0  0  0
  -21.9923   -9.0254   20.4645 C   0  0  0  0  0  0
  -22.7252  -10.2132   20.3051 C   0  0  0  0  0  0
  -21.6853   -6.0745   22.5283 C   0  0  0  0  0  0
  -21.4015   -6.5647   23.8217 C   0  0  0  0  0  0
  -21.3660   -5.6796   24.9180 C   0  0  0  0  0  0
  -21.6043   -4.3058   24.7225 C   0  0  0  0  0  0
  -21.8818   -3.8157   23.4344 C   0  0  0  0  0  0
  -21.9192   -4.6975   22.3405 C   0  0  0  0  0  0
  -22.7821  -13.5224   21.1861 C   0  0  0  0  0  0
  -22.1655   -4.2162   21.0979 F   0  0  0  0  0  0
  -21.5631   -3.4540   25.7740 F   0  0  0  0  0  0
  -29.9922  -13.4686   20.4041 N   0  0  0  0  0  0
  -26.2937  -12.9415   20.3269 N   0  0  0  0  0  0
  -25.9323  -11.6556   20.5734 N   0  0  0  0  0  0
  -22.0462  -12.8221   22.0417 N   0  0  0  0  0  0
  -25.4215  -15.1931   20.4132 N   0  0  0  0  0  0
  -31.8563  -14.7048   20.1417 O   0  0  0  0  0  0
  -21.6645   -6.8885   21.4244 O   0  0  0  0  0  0
  -22.3499  -14.5523   20.6699 O   0  0  0  0  0  0
  -24.6272  -31.8584   23.2020 C   0  0  0  0  0  0
  -25.9113  -32.4773   23.8353 C   0  0  1  0  0  0
  -27.2188  -27.3139   20.1273 C   0  0  0  0  0  0
  -25.5931  -33.8575   24.2289 N   0  0  0  0  0  0
  -23.4215  -30.4815   21.5445 C   0  0  2  0  0  0
  -24.8685  -28.9348   20.1116 C   0  0  0  0  0  0
  -22.7476  -29.4613   22.4934 C   0  0  0  0  0  0
  -18.0288  -28.1379   22.8484 C   0  0  0  0  0  0
  -24.1488  -36.7286   23.2639 C   0  0  0  0  0  0
  -25.9623  -30.7889   21.3729 C   0  0  0  0  0  0
  -26.0375  -29.4154   20.7168 C   0  0  0  0  0  0
  -27.2202  -28.6169   20.7125 C   0  0  0  0  0  0
  -26.0343  -26.8881   19.4914 C   0  0  0  0  0  0
  -24.8690  -27.6773   19.4873 C   0  0  0  0  0  0
  -23.6367  -29.8152   20.1602 C   0  0  0  0  0  0
  -25.4113  -36.3084   24.0332 C   0  0  1  0  0  0
  -20.5885  -28.3681   23.1278 C   0  0  2  0  0  0
  -20.6776  -26.9401   22.5407 C   0  0  0  0  0  0
  -19.5756  -26.6378   21.5206 C   0  0  0  0  0  0
  -18.1936  -26.7924   22.1616 C   0  0  0  0  0  0
  -19.1537  -28.8849   23.2881 C   0  0  0  0  0  0
  -18.9457  -30.1449   23.8901 C   0  0  0  0  0  0
  -17.6456  -30.6581   24.0557 C   0  0  0  0  0  0
  -25.9047  -34.9449   23.5110 C   0  0  0  0  0  0
  -16.5349  -29.9074   23.6328 C   0  0  0  0  0  0
  -16.7274  -28.6491   23.0352 C   0  0  0  0  0  0
  -26.4505  -31.6581   25.0720 C   0  0  0  0  0  0
  -25.3743  -31.3692   26.1446 C   0  0  0  0  0  0
  -27.0358  -30.3017   24.6163 C   0  0  0  0  0  0
  -27.6080  -32.4301   25.7482 C   0  0  0  0  0  0
  -27.5582  -37.1796   24.8465 C   0  0  0  0  0  0
  -21.4189  -29.3033   22.3670 N   0  0  0  0  0  0
  -26.4295  -37.3776   23.9408 N   0  0  0  0  0  0
  -24.6892  -31.0590   22.0970 N   0  0  0  0  0  0
  -23.4195  -28.8151   23.3015 O   0  0  0  0  0  0
  -28.3170  -26.4447   20.1514 O   0  0  0  0  0  0
  -26.5606  -34.8915   22.4670 O   0  0  0  0  0  0
  -23.5430  -32.1382   23.7343 O   0  0  0  0  0  0
  -28.5636  -20.0663   21.3170 C   0  0  0  0  0  0
  -29.7156  -20.8535   19.3535 C   0  0  0  0  0  0
  -28.9923  -18.7220   21.0570 C   0  0  0  0  0  0
  -29.7932  -18.4302   19.9372 C   0  0  0  0  0  0
  -28.9151  -21.1706   20.4783 C   0  0  0  0  0  0
  -30.1447  -19.5195   19.0879 C   0  0  0  0  0  0
  -28.6049  -17.5505   21.9561 C   0  0  0  0  0  0
  -30.2776  -16.9699   19.6526 C   0  0  0  0  0  0
  -29.6350  -16.3791   21.9512 C   0  0  0  0  0  0
  -28.7475  -23.7845   20.0661 C   0  0  0  0  0  0
  -28.0886  -25.0909   20.7161 C   0  0  0  0  0  0
  -29.9626  -15.8480   20.6107 N   0  0  0  0  0  0
  -28.4630  -22.5002   20.7930 N   0  0  0  0  0  0
  -31.1230  -19.2400   17.6906 Cl  0  0  0  0  0  0
  -31.4630  -12.5043   19.1595 H   0  0  0  0  0  0
  -30.3346  -11.4266   19.9278 H   0  0  0  0  0  0
  -29.7728  -11.7409   17.4929 H   0  0  0  0  0  0
  -29.6479  -13.4662   17.7277 H   0  0  0  0  0  0
  -27.8616  -11.2954   18.8697 H   0  0  0  0  0  0
  -27.3746  -12.5687   17.7841 H   0  0  0  0  0  0
  -27.6468  -14.2613   19.4921 H   0  0  0  0  0  0
  -28.7045  -12.1228   21.3977 H   0  0  0  0  0  0
  -28.4139  -13.7900   21.8014 H   0  0  0  0  0  0
  -25.2772   -9.5694   22.4761 H   0  0  0  0  0  0
  -24.0023   -7.4635   22.7471 H   0  0  0  0  0  0
  -21.0857   -8.8769   19.8948 H   0  0  0  0  0  0
  -22.3706  -10.9674   19.6164 H   0  0  0  0  0  0
  -21.2000   -7.6154   23.9734 H   0  0  0  0  0  0
  -21.1484   -6.0519   25.9085 H   0  0  0  0  0  0
  -22.0596   -2.7622   23.2841 H   0  0  0  0  0  0
  -22.4077  -11.9895   22.4832 H   0  0  0  0  0  0
  -21.1068  -13.1240   22.2586 H   0  0  0  0  0  0
  -24.6578  -15.8501   20.5315 H   0  0  0  0  0  0
  -26.2792  -15.6337   20.1052 H   0  0  0  0  0  0
  -26.7176  -32.5445   23.1097 H   0  0  0  0  0  0
  -25.0116  -33.9719   25.0461 H   0  0  0  0  0  0
  -22.7167  -31.3027   21.3999 H   0  0  0  0  0  0
  -23.3761  -35.9608   23.3295 H   0  0  0  0  0  0
  -24.3588  -36.8910   22.2055 H   0  0  0  0  0  0
  -23.7226  -37.6480   23.6661 H   0  0  0  0  0  0
  -26.0928  -31.5510   20.6035 H   0  0  0  0  0  0
  -26.8428  -30.8394   22.0019 H   0  0  0  0  0  0
  -28.1185  -28.9789   21.1928 H   0  0  0  0  0  0
  -26.0025  -25.9228   19.0059 H   0  0  0  0  0  0
  -23.9749  -27.3053   19.0059 H   0  0  0  0  0  0
  -23.7555  -30.5906   19.4026 H   0  0  0  0  0  0
  -22.7577  -29.2434   19.8578 H   0  0  0  0  0  0
  -25.1295  -36.1942   25.0826 H   0  0  0  0  0  0
  -20.9984  -28.3252   24.1394 H   0  0  0  0  0  0
  -20.5670  -26.2285   23.3604 H   0  0  0  0  0  0
  -21.6644  -26.7429   22.1199 H   0  0  0  0  0  0
  -19.6914  -25.6287   21.1234 H   0  0  0  0  0  0
  -19.6701  -27.3188   20.6737 H   0  0  0  0  0  0
  -17.4204  -26.6673   21.4019 H   0  0  0  0  0  0
  -18.0337  -26.0065   22.9012 H   0  0  0  0  0  0
  -19.7931  -30.7267   24.2274 H   0  0  0  0  0  0
  -17.5004  -31.6267   24.5148 H   0  0  0  0  0  0
  -15.5344  -30.2972   23.7656 H   0  0  0  0  0  0
  -15.8673  -28.0806   22.7072 H   0  0  0  0  0  0
  -24.5936  -30.7029   25.7758 H   0  0  0  0  0  0
  -24.8914  -32.2842   26.4886 H   0  0  0  0  0  0
  -25.8074  -30.8857   27.0214 H   0  0  0  0  0  0
  -26.2930  -29.6745   24.1225 H   0  0  0  0  0  0
  -27.4116  -29.7293   25.4654 H   0  0  0  0  0  0
  -27.8768  -30.4322   23.9350 H   0  0  0  0  0  0
  -27.2727  -33.3614   26.2057 H   0  0  0  0  0  0
  -28.3893  -32.6831   25.0302 H   0  0  0  0  0  0
  -28.0748  -31.8420   26.5396 H   0  0  0  0  0  0
  -28.2593  -38.0102   24.7534 H   0  0  0  0  0  0
  -28.1090  -36.2636   24.6273 H   0  0  0  0  0  0
  -27.2302  -37.1414   25.8868 H   0  0  0  0  0  0
  -20.9365  -29.8757   21.6883 H   0  0  0  0  0  0
  -26.0181  -38.2850   24.1423 H   0  0  0  0  0  0
  -27.9490  -20.2475   22.1879 H   0  0  0  0  0  0
  -30.0162  -21.6360   18.6727 H   0  0  0  0  0  0
  -27.6302  -17.1818   21.6334 H   0  0  0  0  0  0
  -28.4715  -17.9125   22.9766 H   0  0  0  0  0  0
  -31.3594  -17.0427   19.5286 H   0  0  0  0  0  0
  -29.8865  -16.6806   18.6764 H   0  0  0  0  0  0
  -29.2812  -15.5893   22.6117 H   0  0  0  0  0  0
  -30.5653  -16.7319   22.4004 H   0  0  0  0  0  0
  -29.8285  -23.9216   20.0118 H   0  0  0  0  0  0
  -28.3983  -23.6873   19.0375 H   0  0  0  0  0  0
  -28.4493  -25.1541   21.7431 H   0  0  0  0  0  0
  -27.0214  -24.8970   20.8237 H   0  0  0  0  0  0
  -27.8830  -22.5966   21.6232 H   0  0  0  0  0  0
  1 25  1  0  0  0
  1 30  2  0  0  0
  1 82  1  0  0  0
  2  3  1  0  0  0
  2 25  1  0  0  0
  2 85  1  0  0  0
  2 86  1  0  0  0
  3  4  1  0  0  0
  3 87  1  0  0  0
  3 88  1  0  0  0
  4  5  1  0  0  0
  4 89  1  0  0  0
  4 90  1  0  0  0
  5  6  1  0  0  0
  5 26  1  0  0  0
  5 91  1  0  0  0
  6 25  1  0  0  0
  6 92  1  0  0  0
  6 93  1  0  0  0
  7  8  2  0  0  0
  7 26  1  0  0  0
  7 29  1  0  0  0
  8  9  1  0  0  0
  8 22  1  0  0  0
  9 10  1  0  0  0
  9 27  2  0  0  0
 10 11  2  0  0  0
 10 15  1  0  0  0
 11 12  1  0  0  0
 11 94  1  0  0  0
 12 13  2  0  0  0
 12 95  1  0  0  0
 13 14  1  0  0  0
 13 31  1  0  0  0
 14 15  2  0  0  0
 14 96  1  0  0  0
 15 97  1  0  0  0
 16 17  2  0  0  0
 16 21  1  0  0  0
 16 31  1  0  0  0
 17 18  1  0  0  0
 17 98  1  0  0  0
 18 19  2  0  0  0
 18 99  1  0  0  0
 19 20  1  0  0  0
 19 24  1  0  0  0
 20 21  2  0  0  0
 20100  1  0  0  0
 21 23  1  0  0  0
 22 28  1  0  0  0
 22 32  2  0  0  0
 26 27  1  0  0  0
 28101  1  0  0  0
 28102  1  0  0  0
 29103  1  0  0  0
 29104  1  0  0  0
 33 34  1  0  0  0
 33 66  1  0  0  0
 33 70  2  0  0  0
 34 36  1  0  0  0
 34 59  1  0  0  0
 34105  1  0  0  0
 35 44  2  0  0  0
 35 45  1  0  0  0
 35 68  1  0  0  0
 36 56  1  0  0  0
 36106  1  0  0  0
 37 39  1  0  0  0
 37 47  1  0  0  0
 37 66  1  0  0  0
 37107  1  0  0  0
 38 43  2  0  0  0
 38 46  1  0  0  0
 38 47  1  0  0  0
 39 64  1  0  0  0
 39 67  2  0  0  0
 40 52  1  0  0  0
 40 53  2  0  0  0
 40 58  1  0  0  0
 41108  1  0  0  0
 41109  1  0  0  0
 41110  1  0  0  0
 41 48  1  0  0  0
 42 43  1  0  0  0
 42 66  1  0  0  0
 42111  1  0  0  0
 42112  1  0  0  0
 43 44  1  0  0  0
 44113  1  0  0  0
 45 46  2  0  0  0
 45114  1  0  0  0
 46115  1  0  0  0
 47116  1  0  0  0
 47117  1  0  0  0
 48 56  1  0  0  0
 48 65  1  0  0  0
 48118  1  0  0  0
 49 50  1  0  0  0
 49 53  1  0  0  0
 49 64  1  0  0  0
 49119  1  0  0  0
 50 51  1  0  0  0
 50120  1  0  0  0
 50121  1  0  0  0
 51 52  1  0  0  0
 51122  1  0  0  0
 51123  1  0  0  0
 52124  1  0  0  0
 52125  1  0  0  0
 53 54  1  0  0  0
 54 55  2  0  0  0
 54126  1  0  0  0
 55 57  1  0  0  0
 55127  1  0  0  0
 56 69  2  0  0  0
 57 58  2  0  0  0
 57128  1  0  0  0
 58129  1  0  0  0
 59 60  1  0  0  0
 59 61  1  0  0  0
 59 62  1  0  0  0
 60130  1  0  0  0
 60131  1  0  0  0
 60132  1  0  0  0
 61133  1  0  0  0
 61134  1  0  0  0
 61135  1  0  0  0
 62136  1  0  0  0
 62137  1  0  0  0
 62138  1  0  0  0
 63 65  1  0  0  0
 63139  1  0  0  0
 63140  1  0  0  0
 63141  1  0  0  0
 64142  1  0  0  0
 65143  1  0  0  0
 68 81  1  0  0  0
 71 73  2  0  0  0
 71 75  1  0  0  0
 71144  1  0  0  0
 72 75  2  0  0  0
 72 76  1  0  0  0
 72145  1  0  0  0
 73 74  1  0  0  0
 73 77  1  0  0  0
 74 76  2  0  0  0
 74 78  1  0  0  0
 75 83  1  0  0  0
 76 84  1  0  0  0
 77 79  1  0  0  0
 77146  1  0  0  0
 77147  1  0  0  0
 78 82  1  0  0  0
 78148  1  0  0  0
 78149  1  0  0  0
 79 82  1  0  0  0
 79150  1  0  0  0
 79151  1  0  0  0
 80 81  1  0  0  0
 80 83  1  0  0  0
 80152  1  0  0  0
 80153  1  0  0  0
 81154  1  0  0  0
 81155  1  0  0  0
 83156  1  0  0  0
M  ISO  4   1 100  68 101  81 101  82 100
M  END
> <chiral flag>
0

> <version>
0

> <s_m_source_file>
/data/baiqing/PycharmProjects/Reinvent-master-3.2/result/LINK_invent/BTK/process_docking_weight1_custom_product_contain_oxygen_bond_distance_aromatic_linkinvent_7_9_3/rearranged_h_0029.sdf

> <i_m_source_file_index>
70

> <r_mmod_Potential_Energy-OPLS-2005>
242.197341918945

> <r_mmod_Stretch_Energy-OPLS-2005>
85.1244125366211

> <r_mmod_Bend_Energy-OPLS-2005>
153.525314331055

> <r_mmod_Torsional_Energy-OPLS-2005>
289.335144042969

> <r_mmod_Improper_Torsional_Energy-OPLS-2005>
13.324520111084

> <r_mmod_Van_der_Waal_Energy-OPLS-2005>
144.049743652344

> <r_mmod_Electrostatic_Energy-OPLS-2005>
-289.965667724609

> <r_mmod_Solvation_Energy-OPLS-2005>
-208.556884765625

> <b_mmod_Minimization_Converged-OPLS-2005>
0

> <r_mmod_RMS_Derivative-OPLS-2005>
0.92938768863678

$$$$
70
                    3D
 Structure written by MMmdl.
158167  0  0  1  0            999 V2000
  -30.6239  -14.7343   20.4504 C   0  0  0  0  0  0
  -30.4277  -12.4425   19.4902 C   0  0  0  0  0  0
  -29.5110  -12.5092   18.2483 C   0  0  0  0  0  0
  -28.0462  -12.3039   18.6694 C   0  0  0  0  0  0
  -27.6433  -13.2232   19.8528 C   0  0  2  0  0  0
  -28.6829  -13.1869   20.9965 C   0  0  0  0  0  0
  -25.2530  -13.8176   20.5682 C   0  0  0  0  0  0
  -24.1804  -13.0427   20.9176 C   0  0  0  0  0  0
  -24.6383  -11.6899   20.8729 C   0  0  0  0  0  0
  -23.9060  -10.4288   21.0396 C   0  0  0  0  0  0
  -24.3609   -9.4219   21.9186 C   0  0  0  0  0  0
  -23.6297   -8.2249   22.0759 C   0  0  0  0  0  0
  -22.4288   -8.0273   21.3543 C   0  0  0  0  0  0
  -21.9912   -9.0241   20.4646 C   0  0  0  0  0  0
  -22.7226  -10.2126   20.3054 C   0  0  0  0  0  0
  -21.6858   -6.0740   22.5278 C   0  0  0  0  0  0
  -21.4017   -6.5643   23.8208 C   0  0  0  0  0  0
  -21.3663   -5.6800   24.9169 C   0  0  0  0  0  0
  -21.6039   -4.3068   24.7221 C   0  0  0  0  0  0
  -21.8815   -3.8154   23.4346 C   0  0  0  0  0  0
  -21.9198   -4.6967   22.3403 C   0  0  0  0  0  0
  -22.7838  -13.5224   21.1855 C   0  0  0  0  0  0
  -22.1665   -4.2156   21.0985 F   0  0  0  0  0  0
  -21.5627   -3.4550   25.7734 F   0  0  0  0  0  0
  -29.9931  -13.5121   20.4187 N   0  0  0  0  0  0
  -26.2954  -12.9363   20.3297 N   0  0  0  0  0  0
  -25.9325  -11.6517   20.5774 N   0  0  0  0  0  0
  -22.0514  -12.8196   22.0423 N   0  0  0  0  0  0
  -25.4224  -15.1895   20.4082 N   0  0  0  0  0  0
  -31.8059  -14.8216   20.1084 O   0  0  0  0  0  0
  -21.6646   -6.8873   21.4238 O   0  0  0  0  0  0
  -22.3529  -14.5546   20.6736 O   0  0  0  0  0  0
  -24.6365  -31.8515   23.2041 C   0  0  0  0  0  0
  -25.9169  -32.4763   23.8375 C   0  0  1  0  0  0
  -27.2147  -27.2678   20.1235 C   0  0  0  0  0  0
  -25.5956  -33.8569   24.2256 N   0  0  0  0  0  0
  -23.4307  -30.4796   21.5458 C   0  0  2  0  0  0
  -24.8741  -28.9340   20.1094 C   0  0  0  0  0  0
  -22.7510  -29.4579   22.4906 C   0  0  0  0  0  0
  -18.0267  -28.1402   22.8458 C   0  0  0  0  0  0
  -24.1467  -36.7304   23.2653 C   0  0  0  0  0  0
  -25.9783  -30.7694   21.3800 C   0  0  0  0  0  0
  -26.0483  -29.3982   20.7118 C   0  0  0  0  0  0
  -27.2239  -28.5824   20.7016 C   0  0  0  0  0  0
  -26.0104  -26.8667   19.5016 C   0  0  0  0  0  0
  -24.8596  -27.6752   19.4926 C   0  0  0  0  0  0
  -23.6500  -29.8259   20.1575 C   0  0  0  0  0  0
  -25.4089  -36.3067   24.0324 C   0  0  1  0  0  0
  -20.5883  -28.3692   23.1257 C   0  0  2  0  0  0
  -20.6738  -26.9405   22.5392 C   0  0  0  0  0  0
  -19.5725  -26.6361   21.5200 C   0  0  0  0  0  0
  -18.1889  -26.7946   22.1583 C   0  0  0  0  0  0
  -19.1530  -28.8857   23.2844 C   0  0  0  0  0  0
  -18.9477  -30.1448   23.8870 C   0  0  0  0  0  0
  -17.6487  -30.6595   24.0553 C   0  0  0  0  0  0
  -25.9044  -34.9439   23.5070 C   0  0  0  0  0  0
  -16.5365  -29.9088   23.6378 C   0  0  0  0  0  0
  -16.7256  -28.6513   23.0373 C   0  0  0  0  0  0
  -26.4519  -31.6656   25.0811 C   0  0  0  0  0  0
  -25.3735  -31.3808   26.1537 C   0  0  0  0  0  0
  -27.0435  -30.3106   24.6308 C   0  0  0  0  0  0
  -27.6026  -32.4469   25.7581 C   0  0  0  0  0  0
  -27.5536  -37.1777   24.8458 C   0  0  0  0  0  0
  -21.4204  -29.3058   22.3673 N   0  0  0  0  0  0
  -26.4249  -37.3772   23.9429 N   0  0  0  0  0  0
  -24.7017  -31.0486   22.1015 N   0  0  0  0  0  0
  -23.4199  -28.8084   23.2984 O   0  0  0  0  0  0
  -28.3131  -26.3782   20.1920 O   0  0  0  0  0  0
  -26.5587  -34.8911   22.4620 O   0  0  0  0  0  0
  -23.5504  -32.1342   23.7327 O   0  0  0  0  0  0
  -29.0145  -18.5509   21.9984 C   0  0  0  0  0  0
  -28.5433  -20.9598   21.9961 C   0  0  0  0  0  0
  -29.5901  -18.6166   20.7143 C   0  0  0  0  0  0
  -29.6486  -19.9362   20.0810 C   0  0  0  0  0  0
  -29.0761  -21.1389   20.6982 C   0  0  0  0  0  0
  -28.5184  -19.7046   22.6339 C   0  0  0  0  0  0
  -28.4458  -22.8041   18.8994 C   0  0  0  0  0  0
  -28.1441  -24.3011   18.6979 C   0  0  0  0  0  0
  -28.9845  -23.8296   20.8686 C   0  0  0  0  0  0
  -28.0764  -24.8920   20.1134 C   0  0  1  0  0  0
  -30.3894  -20.0498   18.7500 C   0  0  0  0  0  0
  -30.1764  -17.2761   20.0849 C   0  0  0  0  0  0
  -28.9511  -22.5148   20.1203 N   0  0  0  0  0  0
  -29.8589  -15.8764   20.6136 N   0  0  0  0  0  0
  -28.2166  -21.9920   17.9987 O   0  0  0  0  0  0
  -27.8556  -19.5870   24.2229 Cl  0  0  0  0  0  0
  -31.4745  -12.5437   19.2004 H   0  0  0  0  0  0
  -30.3465  -11.4673   19.9729 H   0  0  0  0  0  0
  -29.8047  -11.7567   17.5142 H   0  0  0  0  0  0
  -29.6179  -13.4783   17.7572 H   0  0  0  0  0  0
  -27.9357  -11.2590   18.9642 H   0  0  0  0  0  0
  -27.3777  -12.4509   17.8209 H   0  0  0  0  0  0
  -27.6327  -14.2348   19.4485 H   0  0  0  0  0  0
  -28.7067  -12.2133   21.4836 H   0  0  0  0  0  0
  -28.4143  -13.9073   21.7704 H   0  0  0  0  0  0
  -25.2756   -9.5700   22.4763 H   0  0  0  0  0  0
  -24.0011   -7.4640   22.7485 H   0  0  0  0  0  0
  -21.0854   -8.8745   19.8948 H   0  0  0  0  0  0
  -22.3688  -10.9657   19.6162 H   0  0  0  0  0  0
  -21.2009   -7.6154   23.9704 H   0  0  0  0  0  0
  -21.1491   -6.0542   25.9069 H   0  0  0  0  0  0
  -22.0595   -2.7621   23.2844 H   0  0  0  0  0  0
  -22.4191  -11.9830   22.4712 H   0  0  0  0  0  0
  -21.1161  -13.1210   22.2724 H   0  0  0  0  0  0
  -24.6376  -15.8290   20.4660 H   0  0  0  0  0  0
  -26.2741  -15.6352   20.0947 H   0  0  0  0  0  0
  -26.7220  -32.5356   23.1092 H   0  0  0  0  0  0
  -25.0227  -33.9743   25.0481 H   0  0  0  0  0  0
  -22.7334  -31.3056   21.4012 H   0  0  0  0  0  0
  -23.3735  -35.9630   23.3298 H   0  0  0  0  0  0
  -24.3564  -36.8973   22.2080 H   0  0  0  0  0  0
  -23.7233  -37.6494   23.6696 H   0  0  0  0  0  0
  -26.1137  -31.5320   20.6127 H   0  0  0  0  0  0
  -26.8573  -30.8116   22.0101 H   0  0  0  0  0  0
  -28.1244  -28.9368   21.1841 H   0  0  0  0  0  0
  -25.9117  -25.8999   19.0363 H   0  0  0  0  0  0
  -23.9595  -27.3111   19.0204 H   0  0  0  0  0  0
  -23.7878  -30.6115   19.4137 H   0  0  0  0  0  0
  -22.7652  -29.2721   19.8385 H   0  0  0  0  0  0
  -25.1266  -36.1877   25.0813 H   0  0  0  0  0  0
  -20.9928  -28.3227   24.1395 H   0  0  0  0  0  0
  -20.5622  -26.2301   23.3600 H   0  0  0  0  0  0
  -21.6599  -26.7398   22.1179 H   0  0  0  0  0  0
  -19.6899  -25.6256   21.1274 H   0  0  0  0  0  0
  -19.6712  -27.3124   20.6709 H   0  0  0  0  0  0
  -17.4177  -26.6748   21.3953 H   0  0  0  0  0  0
  -18.0214  -26.0071   22.8958 H   0  0  0  0  0  0
  -19.7968  -30.7232   24.2239 H   0  0  0  0  0  0
  -17.5073  -31.6299   24.5117 H   0  0  0  0  0  0
  -15.5372  -30.2994   23.7748 H   0  0  0  0  0  0
  -15.8650  -28.0837   22.7140 H   0  0  0  0  0  0
  -24.5914  -30.7139   25.7903 H   0  0  0  0  0  0
  -24.8932  -32.2985   26.4946 H   0  0  0  0  0  0
  -25.8075  -30.9034   27.0346 H   0  0  0  0  0  0
  -26.3054  -29.6811   24.1344 H   0  0  0  0  0  0
  -27.4189  -29.7419   25.4834 H   0  0  0  0  0  0
  -27.8861  -30.4487   23.9537 H   0  0  0  0  0  0
  -27.2605  -33.3829   26.2010 H   0  0  0  0  0  0
  -28.3895  -32.6976   25.0454 H   0  0  0  0  0  0
  -28.0611  -31.8729   26.5635 H   0  0  0  0  0  0
  -28.2523  -38.0100   24.7522 H   0  0  0  0  0  0
  -28.1053  -36.2629   24.6238 H   0  0  0  0  0  0
  -27.2260  -37.1390   25.8863 H   0  0  0  0  0  0
  -20.9380  -29.8956   21.7045 H   0  0  0  0  0  0
  -26.0114  -38.2820   24.1516 H   0  0  0  0  0  0
  -28.9649  -17.6102   22.5253 H   0  0  0  0  0  0
  -28.1025  -21.7872   22.5307 H   0  0  0  0  0  0
  -27.2192  -24.4284   18.1373 H   0  0  0  0  0  0
  -28.9508  -24.7544   18.1252 H   0  0  0  0  0  0
  -28.6858  -23.7440   21.9109 H   0  0  0  0  0  0
  -30.0163  -24.1836   20.8814 H   0  0  0  0  0  0
  -27.0770  -24.7038   20.5105 H   0  0  0  0  0  0
  -31.2880  -19.4316   18.7359 H   0  0  0  0  0  0
  -30.7230  -21.0689   18.5587 H   0  0  0  0  0  0
  -29.7558  -19.7348   17.9198 H   0  0  0  0  0  0
  -31.2608  -17.3943   20.0701 H   0  0  0  0  0  0
  -29.8642  -17.2648   19.0388 H   0  0  0  0  0  0
  -28.8985  -15.7141   20.8781 H   0  0  0  0  0  0
  1 25  1  0  0  0
  1 30  2  0  0  0
  1 84  1  0  0  0
  2  3  1  0  0  0
  2 25  1  0  0  0
  2 87  1  0  0  0
  2 88  1  0  0  0
  3  4  1  0  0  0
  3 89  1  0  0  0
  3 90  1  0  0  0
  4  5  1  0  0  0
  4 91  1  0  0  0
  4 92  1  0  0  0
  5  6  1  0  0  0
  5 26  1  0  0  0
  5 93  1  0  0  0
  6 25  1  0  0  0
  6 94  1  0  0  0
  6 95  1  0  0  0
  7  8  2  0  0  0
  7 26  1  0  0  0
  7 29  1  0  0  0
  8  9  1  0  0  0
  8 22  1  0  0  0
  9 10  1  0  0  0
  9 27  2  0  0  0
 10 11  2  0  0  0
 10 15  1  0  0  0
 11 12  1  0  0  0
 11 96  1  0  0  0
 12 13  2  0  0  0
 12 97  1  0  0  0
 13 14  1  0  0  0
 13 31  1  0  0  0
 14 15  2  0  0  0
 14 98  1  0  0  0
 15 99  1  0  0  0
 16 17  2  0  0  0
 16 21  1  0  0  0
 16 31  1  0  0  0
 17 18  1  0  0  0
 17100  1  0  0  0
 18 19  2  0  0  0
 18101  1  0  0  0
 19 20  1  0  0  0
 19 24  1  0  0  0
 20 21  2  0  0  0
 20102  1  0  0  0
 21 23  1  0  0  0
 22 28  1  0  0  0
 22 32  2  0  0  0
 26 27  1  0  0  0
 28103  1  0  0  0
 28104  1  0  0  0
 29105  1  0  0  0
 29106  1  0  0  0
 33 34  1  0  0  0
 33 66  1  0  0  0
 33 70  2  0  0  0
 34 36  1  0  0  0
 34 59  1  0  0  0
 34107  1  0  0  0
 35 44  2  0  0  0
 35 45  1  0  0  0
 35 68  1  0  0  0
 36 56  1  0  0  0
 36108  1  0  0  0
 37 39  1  0  0  0
 37 47  1  0  0  0
 37 66  1  0  0  0
 37109  1  0  0  0
 38 43  2  0  0  0
 38 46  1  0  0  0
 38 47  1  0  0  0
 39 64  1  0  0  0
 39 67  2  0  0  0
 40 52  1  0  0  0
 40 53  2  0  0  0
 40 58  1  0  0  0
 41110  1  0  0  0
 41111  1  0  0  0
 41112  1  0  0  0
 41 48  1  0  0  0
 42 43  1  0  0  0
 42 66  1  0  0  0
 42113  1  0  0  0
 42114  1  0  0  0
 43 44  1  0  0  0
 44115  1  0  0  0
 45 46  2  0  0  0
 45116  1  0  0  0
 46117  1  0  0  0
 47118  1  0  0  0
 47119  1  0  0  0
 48 56  1  0  0  0
 48 65  1  0  0  0
 48120  1  0  0  0
 49 50  1  0  0  0
 49 53  1  0  0  0
 49 64  1  0  0  0
 49121  1  0  0  0
 50 51  1  0  0  0
 50122  1  0  0  0
 50123  1  0  0  0
 51 52  1  0  0  0
 51124  1  0  0  0
 51125  1  0  0  0
 52126  1  0  0  0
 52127  1  0  0  0
 53 54  1  0  0  0
 54 55  2  0  0  0
 54128  1  0  0  0
 55 57  1  0  0  0
 55129  1  0  0  0
 56 69  2  0  0  0
 57 58  2  0  0  0
 57130  1  0  0  0
 58131  1  0  0  0
 59 60  1  0  0  0
 59 61  1  0  0  0
 59 62  1  0  0  0
 60132  1  0  0  0
 60133  1  0  0  0
 60134  1  0  0  0
 61135  1  0  0  0
 61136  1  0  0  0
 61137  1  0  0  0
 62138  1  0  0  0
 62139  1  0  0  0
 62140  1  0  0  0
 63 65  1  0  0  0
 63141  1  0  0  0
 63142  1  0  0  0
 63143  1  0  0  0
 64144  1  0  0  0
 65145  1  0  0  0
 68 80  1  0  0  0
 71 73  2  0  0  0
 71 76  1  0  0  0
 71146  1  0  0  0
 72 75  1  0  0  0
 72 76  2  0  0  0
 72147  1  0  0  0
 73 74  1  0  0  0
 73 82  1  0  0  0
 74 75  2  0  0  0
 74 81  1  0  0  0
 75 83  1  0  0  0
 76 86  1  0  0  0
 77 78  1  0  0  0
 77 83  1  0  0  0
 77 85  2  0  0  0
 78 80  1  0  0  0
 78148  1  0  0  0
 78149  1  0  0  0
 79 80  1  0  0  0
 79 83  1  0  0  0
 79150  1  0  0  0
 79151  1  0  0  0
 80152  1  0  0  0
 81153  1  0  0  0
 81154  1  0  0  0
 81155  1  0  0  0
 82 84  1  0  0  0
 82156  1  0  0  0
 82157  1  0  0  0
 84158  1  0  0  0
M  ISO  4   1 100  68 101  80 101  84 100
M  END
> <chiral flag>
0

> <version>
0

> <s_m_source_file>
/data/baiqing/PycharmProjects/Reinvent-master-3.2/result/LINK_invent/BTK/process_docking_weight1_custom_product_contain_oxygen_bond_distance_aromatic_linkinvent_7_9_3/rearranged_h_0029.sdf

> <i_m_source_file_index>
71

> <r_mmod_Potential_Energy-OPLS-2005>
156.950454711914

> <r_mmod_Stretch_Energy-OPLS-2005>
120.506996154785

> <r_mmod_Bend_Energy-OPLS-2005>
187.623992919922

> <r_mmod_Torsional_Energy-OPLS-2005>
261.346618652344

> <r_mmod_Improper_Torsional_Energy-OPLS-2005>
7.6222939491272

> <r_mmod_Van_der_Waal_Energy-OPLS-2005>
140.004135131836

> <r_mmod_Electrostatic_Energy-OPLS-2005>
-422.119812011719

> <r_mmod_Solvation_Energy-OPLS-2005>
-221.767517089844

> <b_mmod_Minimization_Converged-OPLS-2005>
0

> <r_mmod_RMS_Derivative-OPLS-2005>
3.87527418136597

$$$$
71
                    3D
 Structure written by MMmdl.
158167  0  0  1  0            999 V2000
  -30.6727  -14.6418   20.4984 C   0  0  0  0  0  0
  -30.4186  -12.3993   19.4575 C   0  0  0  0  0  0
  -29.4990  -12.4997   18.2236 C   0  0  0  0  0  0
  -28.0243  -12.3405   18.6392 C   0  0  0  0  0  0
  -27.6445  -13.2288   19.8549 C   0  0  2  0  0  0
  -28.6897  -13.1314   20.9875 C   0  0  0  0  0  0
  -25.2518  -13.8201   20.5698 C   0  0  0  0  0  0
  -24.1804  -13.0446   20.9203 C   0  0  0  0  0  0
  -24.6393  -11.6923   20.8750 C   0  0  0  0  0  0
  -23.9069  -10.4298   21.0408 C   0  0  0  0  0  0
  -24.3620   -9.4211   21.9184 C   0  0  0  0  0  0
  -23.6295   -8.2245   22.0753 C   0  0  0  0  0  0
  -22.4277   -8.0284   21.3544 C   0  0  0  0  0  0
  -21.9915   -9.0257   20.4645 C   0  0  0  0  0  0
  -22.7243  -10.2136   20.3056 C   0  0  0  0  0  0
  -21.6854   -6.0738   22.5279 C   0  0  0  0  0  0
  -21.4015   -6.5641   23.8212 C   0  0  0  0  0  0
  -21.3658   -5.6794   24.9174 C   0  0  0  0  0  0
  -21.6044   -4.3056   24.7225 C   0  0  0  0  0  0
  -21.8819   -3.8148   23.4346 C   0  0  0  0  0  0
  -21.9193   -4.6965   22.3403 C   0  0  0  0  0  0
  -22.7824  -13.5226   21.1862 C   0  0  0  0  0  0
  -22.1662   -4.2151   21.0980 F   0  0  0  0  0  0
  -21.5628   -3.4540   25.7738 F   0  0  0  0  0  0
  -29.9982  -13.4524   20.4056 N   0  0  0  0  0  0
  -26.2949  -12.9406   20.3307 N   0  0  0  0  0  0
  -25.9323  -11.6547   20.5765 N   0  0  0  0  0  0
  -22.0472  -12.8214   22.0420 N   0  0  0  0  0  0
  -25.4213  -15.1923   20.4111 N   0  0  0  0  0  0
  -31.8501  -14.7173   20.1394 O   0  0  0  0  0  0
  -21.6642   -6.8880   21.4241 O   0  0  0  0  0  0
  -22.3507  -14.5533   20.6712 O   0  0  0  0  0  0
  -24.6258  -31.8601   23.2029 C   0  0  0  0  0  0
  -25.9106  -32.4781   23.8359 C   0  0  1  0  0  0
  -27.2197  -27.3248   20.1243 C   0  0  0  0  0  0
  -25.5923  -33.8582   24.2287 N   0  0  0  0  0  0
  -23.4198  -30.4829   21.5449 C   0  0  2  0  0  0
  -24.8677  -28.9381   20.1105 C   0  0  0  0  0  0
  -22.7472  -29.4622   22.4938 C   0  0  0  0  0  0
  -18.0284  -28.1383   22.8487 C   0  0  0  0  0  0
  -24.1487  -36.7291   23.2640 C   0  0  0  0  0  0
  -25.9599  -30.7935   21.3725 C   0  0  0  0  0  0
  -26.0361  -29.4209   20.7155 C   0  0  0  0  0  0
  -27.2201  -28.6257   20.7119 C   0  0  0  0  0  0
  -26.0367  -26.8936   19.4902 C   0  0  0  0  0  0
  -24.8693  -27.6798   19.4874 C   0  0  0  0  0  0
  -23.6348  -29.8172   20.1601 C   0  0  0  0  0  0
  -25.4112  -36.3084   24.0334 C   0  0  1  0  0  0
  -20.5884  -28.3687   23.1285 C   0  0  2  0  0  0
  -20.6774  -26.9411   22.5411 C   0  0  0  0  0  0
  -19.5748  -26.6383   21.5215 C   0  0  0  0  0  0
  -18.1927  -26.7927   22.1625 C   0  0  0  0  0  0
  -19.1536  -28.8852   23.2881 C   0  0  0  0  0  0
  -18.9461  -30.1454   23.8898 C   0  0  0  0  0  0
  -17.6461  -30.6587   24.0563 C   0  0  0  0  0  0
  -25.9048  -34.9453   23.5109 C   0  0  0  0  0  0
  -16.5352  -29.9086   23.6333 C   0  0  0  0  0  0
  -16.7271  -28.6502   23.0356 C   0  0  0  0  0  0
  -26.4496  -31.6588   25.0725 C   0  0  0  0  0  0
  -25.3732  -31.3715   26.1454 C   0  0  0  0  0  0
  -27.0345  -30.3018   24.6168 C   0  0  0  0  0  0
  -27.6059  -32.4320   25.7491 C   0  0  0  0  0  0
  -27.5578  -37.1798   24.8465 C   0  0  0  0  0  0
  -21.4187  -29.3040   22.3680 N   0  0  0  0  0  0
  -26.4289  -37.3780   23.9413 N   0  0  0  0  0  0
  -24.6873  -31.0617   22.0974 N   0  0  0  0  0  0
  -23.4196  -28.8162   23.3017 O   0  0  0  0  0  0
  -28.3074  -26.4465   20.1570 O   0  0  0  0  0  0
  -26.5615  -34.8918   22.4674 O   0  0  0  0  0  0
  -23.5421  -32.1390   23.7361 O   0  0  0  0  0  0
  -29.8141  -19.2593   19.7988 C   0  0  0  0  0  0
  -29.3874  -20.6286   19.7634 C   0  0  0  0  0  0
  -28.9364  -20.5186   22.1184 C   0  0  0  0  0  0
  -29.8551  -18.4950   21.0018 C   0  0  0  0  0  0
  -29.3889  -19.1676   22.1696 C   0  0  0  0  0  0
  -28.9580  -21.3052   20.9382 C   0  0  0  0  0  0
  -28.6751  -23.8345   20.2888 C   0  0  0  0  0  0
  -29.4708  -18.5149   23.5472 C   0  0  0  0  0  0
  -30.2218  -17.1733   23.5969 C   0  0  0  0  0  0
  -31.2902  -17.0567   22.5022 C   0  0  0  0  0  0
  -30.6353  -17.1220   21.1090 C   0  0  1  0  0  0
  -28.0624  -25.1735   20.8771 C   0  0  0  0  0  0
  -28.5248  -22.7021   21.0497 N   0  0  0  0  0  0
  -29.9886  -15.7824   20.8478 N   0  0  0  0  0  0
  -29.2487  -23.8360   19.1960 O   0  0  0  0  0  0
  -31.4629  -12.4962   19.1557 H   0  0  0  0  0  0
  -30.3346  -11.4160   19.9228 H   0  0  0  0  0  0
  -29.7653  -11.7374   17.4903 H   0  0  0  0  0  0
  -29.6424  -13.4628   17.7312 H   0  0  0  0  0  0
  -27.8659  -11.2901   18.8856 H   0  0  0  0  0  0
  -27.3683  -12.5553   17.7948 H   0  0  0  0  0  0
  -27.6506  -14.2572   19.4928 H   0  0  0  0  0  0
  -28.7033  -12.1291   21.4178 H   0  0  0  0  0  0
  -28.4406  -13.8104   21.8045 H   0  0  0  0  0  0
  -25.2764   -9.5688   22.4761 H   0  0  0  0  0  0
  -24.0005   -7.4637   22.7473 H   0  0  0  0  0  0
  -21.0845   -8.8775   19.8950 H   0  0  0  0  0  0
  -22.3700  -10.9675   19.6165 H   0  0  0  0  0  0
  -21.2007   -7.6149   23.9717 H   0  0  0  0  0  0
  -21.1480   -6.0524   25.9077 H   0  0  0  0  0  0
  -22.0599   -2.7611   23.2846 H   0  0  0  0  0  0
  -22.4091  -11.9876   22.4805 H   0  0  0  0  0  0
  -21.1087  -13.1232   22.2624 H   0  0  0  0  0  0
  -24.6542  -15.8466   20.5211 H   0  0  0  0  0  0
  -26.2710  -15.6331   20.0821 H   0  0  0  0  0  0
  -26.7173  -32.5458   23.1109 H   0  0  0  0  0  0
  -25.0082  -33.9730   25.0440 H   0  0  0  0  0  0
  -22.7132  -31.3030   21.4015 H   0  0  0  0  0  0
  -23.3752  -35.9620   23.3306 H   0  0  0  0  0  0
  -24.3579  -36.8908   22.2053 H   0  0  0  0  0  0
  -23.7237  -37.6493   23.6658 H   0  0  0  0  0  0
  -26.0889  -31.5566   20.6036 H   0  0  0  0  0  0
  -26.8413  -30.8440   22.0004 H   0  0  0  0  0  0
  -28.1168  -28.9880   21.1949 H   0  0  0  0  0  0
  -26.0090  -25.9246   19.0115 H   0  0  0  0  0  0
  -23.9748  -27.3054   19.0093 H   0  0  0  0  0  0
  -23.7520  -30.5937   19.4034 H   0  0  0  0  0  0
  -22.7553  -29.2453   19.8588 H   0  0  0  0  0  0
  -25.1291  -36.1938   25.0827 H   0  0  0  0  0  0
  -20.9976  -28.3261   24.1406 H   0  0  0  0  0  0
  -20.5681  -26.2296   23.3610 H   0  0  0  0  0  0
  -21.6641  -26.7442   22.1199 H   0  0  0  0  0  0
  -19.6913  -25.6296   21.1241 H   0  0  0  0  0  0
  -19.6690  -27.3196   20.6747 H   0  0  0  0  0  0
  -17.4200  -26.6680   21.4024 H   0  0  0  0  0  0
  -18.0324  -26.0066   22.9017 H   0  0  0  0  0  0
  -19.7938  -30.7269   24.2268 H   0  0  0  0  0  0
  -17.5017  -31.6268   24.5161 H   0  0  0  0  0  0
  -15.5352  -30.2989   23.7658 H   0  0  0  0  0  0
  -15.8670  -28.0821   22.7077 H   0  0  0  0  0  0
  -24.5913  -30.7058   25.7781 H   0  0  0  0  0  0
  -24.8914  -32.2875   26.4883 H   0  0  0  0  0  0
  -25.8060  -30.8892   27.0227 H   0  0  0  0  0  0
  -26.2916  -29.6761   24.1204 H   0  0  0  0  0  0
  -27.4069  -29.7278   25.4665 H   0  0  0  0  0  0
  -27.8772  -30.4319   23.9374 H   0  0  0  0  0  0
  -27.2678  -33.3624   26.2065 H   0  0  0  0  0  0
  -28.3868  -32.6874   25.0316 H   0  0  0  0  0  0
  -28.0727  -31.8446   26.5409 H   0  0  0  0  0  0
  -28.2592  -38.0098   24.7520 H   0  0  0  0  0  0
  -28.1078  -36.2631   24.6280 H   0  0  0  0  0  0
  -27.2296  -37.1431   25.8867 H   0  0  0  0  0  0
  -20.9365  -29.8763   21.6891 H   0  0  0  0  0  0
  -26.0172  -38.2855   24.1420 H   0  0  0  0  0  0
  -30.1859  -18.8134   18.8867 H   0  0  0  0  0  0
  -29.4159  -21.1603   18.8225 H   0  0  0  0  0  0
  -28.6171  -20.9815   23.0425 H   0  0  0  0  0  0
  -28.4662  -18.3969   23.9560 H   0  0  0  0  0  0
  -29.9833  -19.2174   24.2062 H   0  0  0  0  0  0
  -29.5043  -16.3616   23.4720 H   0  0  0  0  0  0
  -30.6601  -17.0295   24.5851 H   0  0  0  0  0  0
  -31.8675  -16.1405   22.6310 H   0  0  0  0  0  0
  -32.0070  -17.8727   22.6089 H   0  0  0  0  0  0
  -31.4454  -17.2159   20.3831 H   0  0  0  0  0  0
  -28.4718  -25.3018   21.8795 H   0  0  0  0  0  0
  -26.9965  -24.9964   21.0262 H   0  0  0  0  0  0
  -28.0579  -22.9061   21.9227 H   0  0  0  0  0  0
  -29.0053  -15.6949   21.0526 H   0  0  0  0  0  0
  1 25  1  0  0  0
  1 30  2  0  0  0
  1 84  1  0  0  0
  2  3  1  0  0  0
  2 25  1  0  0  0
  2 86  1  0  0  0
  2 87  1  0  0  0
  3  4  1  0  0  0
  3 88  1  0  0  0
  3 89  1  0  0  0
  4  5  1  0  0  0
  4 90  1  0  0  0
  4 91  1  0  0  0
  5  6  1  0  0  0
  5 26  1  0  0  0
  5 92  1  0  0  0
  6 25  1  0  0  0
  6 93  1  0  0  0
  6 94  1  0  0  0
  7  8  2  0  0  0
  7 26  1  0  0  0
  7 29  1  0  0  0
  8  9  1  0  0  0
  8 22  1  0  0  0
  9 10  1  0  0  0
  9 27  2  0  0  0
 10 11  2  0  0  0
 10 15  1  0  0  0
 11 12  1  0  0  0
 11 95  1  0  0  0
 12 13  2  0  0  0
 12 96  1  0  0  0
 13 14  1  0  0  0
 13 31  1  0  0  0
 14 15  2  0  0  0
 14 97  1  0  0  0
 15 98  1  0  0  0
 16 17  2  0  0  0
 16 21  1  0  0  0
 16 31  1  0  0  0
 17 18  1  0  0  0
 17 99  1  0  0  0
 18 19  2  0  0  0
 18100  1  0  0  0
 19 20  1  0  0  0
 19 24  1  0  0  0
 20 21  2  0  0  0
 20101  1  0  0  0
 21 23  1  0  0  0
 22 28  1  0  0  0
 22 32  2  0  0  0
 26 27  1  0  0  0
 28102  1  0  0  0
 28103  1  0  0  0
 29104  1  0  0  0
 29105  1  0  0  0
 33 34  1  0  0  0
 33 66  1  0  0  0
 33 70  2  0  0  0
 34 36  1  0  0  0
 34 59  1  0  0  0
 34106  1  0  0  0
 35 44  2  0  0  0
 35 45  1  0  0  0
 35 68  1  0  0  0
 36 56  1  0  0  0
 36107  1  0  0  0
 37 39  1  0  0  0
 37 47  1  0  0  0
 37 66  1  0  0  0
 37108  1  0  0  0
 38 43  2  0  0  0
 38 46  1  0  0  0
 38 47  1  0  0  0
 39 64  1  0  0  0
 39 67  2  0  0  0
 40 52  1  0  0  0
 40 53  2  0  0  0
 40 58  1  0  0  0
 41109  1  0  0  0
 41110  1  0  0  0
 41111  1  0  0  0
 41 48  1  0  0  0
 42 43  1  0  0  0
 42 66  1  0  0  0
 42112  1  0  0  0
 42113  1  0  0  0
 43 44  1  0  0  0
 44114  1  0  0  0
 45 46  2  0  0  0
 45115  1  0  0  0
 46116  1  0  0  0
 47117  1  0  0  0
 47118  1  0  0  0
 48 56  1  0  0  0
 48 65  1  0  0  0
 48119  1  0  0  0
 49 50  1  0  0  0
 49 53  1  0  0  0
 49 64  1  0  0  0
 49120  1  0  0  0
 50 51  1  0  0  0
 50121  1  0  0  0
 50122  1  0  0  0
 51 52  1  0  0  0
 51123  1  0  0  0
 51124  1  0  0  0
 52125  1  0  0  0
 52126  1  0  0  0
 53 54  1  0  0  0
 54 55  2  0  0  0
 54127  1  0  0  0
 55 57  1  0  0  0
 55128  1  0  0  0
 56 69  2  0  0  0
 57 58  2  0  0  0
 57129  1  0  0  0
 58130  1  0  0  0
 59 60  1  0  0  0
 59 61  1  0  0  0
 59 62  1  0  0  0
 60131  1  0  0  0
 60132  1  0  0  0
 60133  1  0  0  0
 61134  1  0  0  0
 61135  1  0  0  0
 61136  1  0  0  0
 62137  1  0  0  0
 62138  1  0  0  0
 62139  1  0  0  0
 63 65  1  0  0  0
 63140  1  0  0  0
 63141  1  0  0  0
 63142  1  0  0  0
 64143  1  0  0  0
 65144  1  0  0  0
 68 82  1  0  0  0
 71 72  2  0  0  0
 71 74  1  0  0  0
 71145  1  0  0  0
 72 76  1  0  0  0
 72146  1  0  0  0
 73 75  1  0  0  0
 73 76  2  0  0  0
 73147  1  0  0  0
 74 75  2  0  0  0
 74 81  1  0  0  0
 75 78  1  0  0  0
 76 83  1  0  0  0
 77 82  1  0  0  0
 77 83  1  0  0  0
 77 85  2  0  0  0
 78 79  1  0  0  0
 78148  1  0  0  0
 78149  1  0  0  0
 79 80  1  0  0  0
 79150  1  0  0  0
 79151  1  0  0  0
 80 81  1  0  0  0
 80152  1  0  0  0
 80153  1  0  0  0
 81 84  1  0  0  0
 81154  1  0  0  0
 82155  1  0  0  0
 82156  1  0  0  0
 83157  1  0  0  0
 84158  1  0  0  0
M  ISO  4   1 100  68 101  82 101  84 100
M  END
> <chiral flag>
0

> <version>
0

> <s_m_source_file>
/data/baiqing/PycharmProjects/Reinvent-master-3.2/result/LINK_invent/BTK/process_docking_weight1_custom_product_contain_oxygen_bond_distance_aromatic_linkinvent_7_9_3/rearranged_h_0029.sdf

> <i_m_source_file_index>
72

> <r_mmod_Potential_Energy-OPLS-2005>
35.547290802002

> <r_mmod_Stretch_Energy-OPLS-2005>
81.4805526733398

> <r_mmod_Bend_Energy-OPLS-2005>
155.252029418945

> <r_mmod_Torsional_Energy-OPLS-2005>
247.360061645508

> <r_mmod_Improper_Torsional_Energy-OPLS-2005>
5.40650320053101

> <r_mmod_Van_der_Waal_Energy-OPLS-2005>
146.340026855469

> <r_mmod_Electrostatic_Energy-OPLS-2005>
-416.099822998047

> <r_mmod_Solvation_Energy-OPLS-2005>
-236.290222167969

> <b_mmod_Minimization_Converged-OPLS-2005>
0

> <r_mmod_RMS_Derivative-OPLS-2005>
0.362129598855972

$$$$
72
                    3D
 Structure written by MMmdl.
165173  0  0  1  0            999 V2000
  -30.6914  -14.5121   20.5692 C   0  0  0  0  0  0
  -30.4271  -12.3296   19.4387 C   0  0  0  0  0  0
  -29.5018  -12.5042   18.2167 C   0  0  0  0  0  0
  -28.0243  -12.3542   18.6285 C   0  0  0  0  0  0
  -27.6592  -13.2090   19.8717 C   0  0  2  0  0  0
  -28.6991  -13.0209   20.9997 C   0  0  0  0  0  0
  -25.2581  -13.8163   20.5672 C   0  0  0  0  0  0
  -24.1837  -13.0435   20.9184 C   0  0  0  0  0  0
  -24.6400  -11.6907   20.8746 C   0  0  0  0  0  0
  -23.9070  -10.4293   21.0412 C   0  0  0  0  0  0
  -24.3614   -9.4210   21.9195 C   0  0  0  0  0  0
  -23.6291   -8.2246   22.0764 C   0  0  0  0  0  0
  -22.4276   -8.0283   21.3551 C   0  0  0  0  0  0
  -21.9915   -9.0256   20.4650 C   0  0  0  0  0  0
  -22.7244  -10.2137   20.3060 C   0  0  0  0  0  0
  -21.6854   -6.0735   22.5279 C   0  0  0  0  0  0
  -21.4011   -6.5637   23.8211 C   0  0  0  0  0  0
  -21.3665   -5.6790   24.9174 C   0  0  0  0  0  0
  -21.6045   -4.3052   24.7227 C   0  0  0  0  0  0
  -21.8820   -3.8146   23.4347 C   0  0  0  0  0  0
  -21.9190   -4.6964   22.3400 C   0  0  0  0  0  0
  -22.7864  -13.5241   21.1847 C   0  0  0  0  0  0
  -22.1661   -4.2147   21.0980 F   0  0  0  0  0  0
  -21.5635   -3.4537   25.7743 F   0  0  0  0  0  0
  -30.0269  -13.3286   20.4430 N   0  0  0  0  0  0
  -26.3011  -12.9333   20.3343 N   0  0  0  0  0  0
  -25.9323  -11.6493   20.5761 N   0  0  0  0  0  0
  -22.0482  -12.8232   22.0391 N   0  0  0  0  0  0
  -25.4302  -15.1880   20.4064 N   0  0  0  0  0  0
  -31.8297  -14.6762   20.1215 O   0  0  0  0  0  0
  -21.6641   -6.8879   21.4243 O   0  0  0  0  0  0
  -22.3557  -14.5555   20.6708 O   0  0  0  0  0  0
  -24.6181  -31.8671   23.2122 C   0  0  0  0  0  0
  -25.9079  -32.4808   23.8404 C   0  0  1  0  0  0
  -27.2258  -27.4017   20.1054 C   0  0  0  0  0  0
  -25.5945  -33.8606   24.2337 N   0  0  0  0  0  0
  -23.4061  -30.4929   21.5521 C   0  0  2  0  0  0
  -24.8530  -28.9559   20.1194 C   0  0  0  0  0  0
  -22.7417  -29.4668   22.4983 C   0  0  0  0  0  0
  -18.0271  -28.1379   22.8481 C   0  0  0  0  0  0
  -24.1475  -36.7274   23.2641 C   0  0  0  0  0  0
  -25.9395  -30.8216   21.3731 C   0  0  0  0  0  0
  -26.0156  -29.4533   20.7215 C   0  0  0  0  0  0
  -27.2076  -28.6851   20.7105 C   0  0  0  0  0  0
  -26.0524  -26.9430   19.4754 C   0  0  0  0  0  0
  -24.8676  -27.7000   19.4927 C   0  0  0  0  0  0
  -23.6180  -29.8274   20.1668 C   0  0  0  0  0  0
  -25.4098  -36.3081   24.0335 C   0  0  1  0  0  0
  -20.5861  -28.3671   23.1301 C   0  0  2  0  0  0
  -20.6757  -26.9404   22.5404 C   0  0  0  0  0  0
  -19.5739  -26.6384   21.5195 C   0  0  0  0  0  0
  -18.1919  -26.7924   22.1609 C   0  0  0  0  0  0
  -19.1521  -28.8838   23.2891 C   0  0  0  0  0  0
  -18.9454  -30.1442   23.8901 C   0  0  0  0  0  0
  -17.6459  -30.6586   24.0558 C   0  0  0  0  0  0
  -25.9038  -34.9457   23.5117 C   0  0  0  0  0  0
  -16.5348  -29.9084   23.6331 C   0  0  0  0  0  0
  -16.7262  -28.6506   23.0340 C   0  0  0  0  0  0
  -26.4499  -31.6594   25.0743 C   0  0  0  0  0  0
  -25.3757  -31.3683   26.1482 C   0  0  0  0  0  0
  -27.0368  -30.3037   24.6160 C   0  0  0  0  0  0
  -27.6064  -32.4325   25.7508 C   0  0  0  0  0  0
  -27.5559  -37.1779   24.8478 C   0  0  0  0  0  0
  -21.4144  -29.3042   22.3716 N   0  0  0  0  0  0
  -26.4276  -37.3769   23.9422 N   0  0  0  0  0  0
  -24.6724  -31.0749   22.1037 N   0  0  0  0  0  0
  -23.4178  -28.8200   23.3029 O   0  0  0  0  0  0
  -28.3793  -26.6389   20.0579 O   0  0  0  0  0  0
  -26.5567  -34.8909   22.4657 O   0  0  0  0  0  0
  -23.5373  -32.1453   23.7497 O   0  0  0  0  0  0
  -31.9591  -18.6595   21.7994 C   0  0  0  0  0  0
  -30.9876  -19.6622   21.6156 C   0  0  0  0  0  0
  -31.6334  -17.3030   21.6029 C   0  0  0  0  0  0
  -29.3608  -17.9480   21.0122 C   0  0  0  0  0  0
  -29.6804  -19.3222   21.2080 C   0  0  0  0  0  0
  -30.3304  -16.9239   21.2033 C   0  0  0  0  0  0
  -26.7282  -23.5312   20.2370 C   0  0  0  0  0  0
  -28.4487  -24.2376   18.5107 C   0  0  0  0  0  0
  -29.7481  -21.1080   18.9230 C   0  0  0  0  0  0
  -28.6094  -20.4252   21.0523 C   0  0  0  0  0  0
  -29.1289  -22.8884   20.5858 C   0  0  0  0  0  0
  -28.4065  -25.3844   20.7921 C   0  0  0  0  0  0
  -28.1816  -24.0204   20.0188 C   0  0  0  0  0  0
  -29.9581  -15.5432   21.0559 N   0  0  0  0  0  0
  -28.8557  -21.5101   20.0395 N   0  3  1  0  0  0
  -31.4717  -12.4319   19.1396 H   0  0  0  0  0  0
  -30.3333  -11.3251   19.8542 H   0  0  0  0  0  0
  -29.7520  -11.7715   17.4486 H   0  0  0  0  0  0
  -29.6641  -13.4855   17.7672 H   0  0  0  0  0  0
  -27.8490  -11.3001   18.8442 H   0  0  0  0  0  0
  -27.3734  -12.6059   17.7911 H   0  0  0  0  0  0
  -27.6941  -14.2518   19.5558 H   0  0  0  0  0  0
  -28.6826  -11.9944   21.3687 H   0  0  0  0  0  0
  -28.4541  -13.6422   21.8625 H   0  0  0  0  0  0
  -25.2758   -9.5682   22.4772 H   0  0  0  0  0  0
  -23.9996   -7.4637   22.7488 H   0  0  0  0  0  0
  -21.0849   -8.8774   19.8950 H   0  0  0  0  0  0
  -22.3711  -10.9672   19.6162 H   0  0  0  0  0  0
  -21.1997   -7.6144   23.9713 H   0  0  0  0  0  0
  -21.1490   -6.0523   25.9077 H   0  0  0  0  0  0
  -22.0596   -2.7608   23.2850 H   0  0  0  0  0  0
  -22.4077  -11.9878   22.4763 H   0  0  0  0  0  0
  -21.1100  -13.1269   22.2577 H   0  0  0  0  0  0
  -24.6622  -15.8424   20.5076 H   0  0  0  0  0  0
  -26.2741  -15.6222   20.0554 H   0  0  0  0  0  0
  -26.7148  -32.5510   23.1157 H   0  0  0  0  0  0
  -25.0178  -33.9783   25.0538 H   0  0  0  0  0  0
  -22.6968  -31.3118   21.4119 H   0  0  0  0  0  0
  -23.3749  -35.9598   23.3331 H   0  0  0  0  0  0
  -24.3575  -36.8874   22.2057 H   0  0  0  0  0  0
  -23.7230  -37.6478   23.6648 H   0  0  0  0  0  0
  -26.0622  -31.5894   20.6080 H   0  0  0  0  0  0
  -26.8245  -30.8695   21.9963 H   0  0  0  0  0  0
  -28.1082  -29.0692   21.1691 H   0  0  0  0  0  0
  -26.0515  -26.0142   18.9317 H   0  0  0  0  0  0
  -23.9803  -27.3213   19.0041 H   0  0  0  0  0  0
  -23.7298  -30.6054   19.4103 H   0  0  0  0  0  0
  -22.7410  -29.2502   19.8666 H   0  0  0  0  0  0
  -25.1272  -36.1920   25.0824 H   0  0  0  0  0  0
  -20.9945  -28.3232   24.1423 H   0  0  0  0  0  0
  -20.5648  -26.2275   23.3591 H   0  0  0  0  0  0
  -21.6630  -26.7434   22.1201 H   0  0  0  0  0  0
  -19.6906  -25.6294   21.1227 H   0  0  0  0  0  0
  -19.6688  -27.3193   20.6728 H   0  0  0  0  0  0
  -17.4180  -26.6677   21.4018 H   0  0  0  0  0  0
  -18.0329  -26.0057   22.9000 H   0  0  0  0  0  0
  -19.7932  -30.7251   24.2281 H   0  0  0  0  0  0
  -17.5016  -31.6270   24.5156 H   0  0  0  0  0  0
  -15.5349  -30.2983   23.7665 H   0  0  0  0  0  0
  -15.8659  -28.0835   22.7044 H   0  0  0  0  0  0
  -24.5927  -30.7046   25.7796 H   0  0  0  0  0  0
  -24.8952  -32.2831   26.4950 H   0  0  0  0  0  0
  -25.8102  -30.8821   27.0227 H   0  0  0  0  0  0
  -26.2930  -29.6730   24.1281 H   0  0  0  0  0  0
  -27.4211  -29.7342   25.4635 H   0  0  0  0  0  0
  -27.8720  -30.4362   23.9284 H   0  0  0  0  0  0
  -27.2684  -33.3624   26.2090 H   0  0  0  0  0  0
  -28.3863  -32.6893   25.0328 H   0  0  0  0  0  0
  -28.0736  -31.8450   26.5423 H   0  0  0  0  0  0
  -28.2579  -38.0071   24.7511 H   0  0  0  0  0  0
  -28.1047  -36.2597   24.6315 H   0  0  0  0  0  0
  -27.2279  -37.1443   25.8884 H   0  0  0  0  0  0
  -20.9307  -29.8787   21.6957 H   0  0  0  0  0  0
  -26.0159  -38.2836   24.1449 H   0  0  0  0  0  0
  -32.9593  -18.9314   22.1084 H   0  0  0  0  0  0
  -31.2527  -20.6963   21.7911 H   0  0  0  0  0  0
  -32.3955  -16.5572   21.7811 H   0  0  0  0  0  0
  -28.3540  -17.6790   20.7234 H   0  0  0  0  0  0
  -26.4728  -22.6932   19.5883 H   0  0  0  0  0  0
  -25.9830  -24.2953   20.0527 H   0  0  0  0  0  0
  -26.5705  -23.2066   21.2668 H   0  0  0  0  0  0
  -29.5048  -24.4276   18.3130 H   0  0  0  0  0  0
  -27.8957  -25.0870   18.1141 H   0  0  0  0  0  0
  -28.1427  -23.3818   17.9094 H   0  0  0  0  0  0
  -29.4305  -20.1530   18.5013 H   0  0  0  0  0  0
  -30.7819  -21.0083   19.2503 H   0  0  0  0  0  0
  -29.7433  -21.8347   18.1128 H   0  0  0  0  0  0
  -28.3889  -20.8399   22.0358 H   0  0  0  0  0  0
  -27.6818  -19.9387   20.7477 H   0  0  0  0  0  0
  -29.0215  -22.8782   21.6713 H   0  0  0  0  0  0
  -30.1769  -23.1467   20.4226 H   0  0  0  0  0  0
  -29.4050  -25.3612   21.2289 H   0  0  0  0  0  0
  -27.7396  -25.4427   21.6552 H   0  0  0  0  0  0
  -28.9974  -15.3152   21.2590 H   0  0  0  0  0  0
  -27.9446  -21.6179   19.6194 H   0  0  0  0  0  0
  1 25  1  0  0  0
  1 30  2  0  0  0
  1 84  1  0  0  0
  2  3  1  0  0  0
  2 25  1  0  0  0
  2 86  1  0  0  0
  2 87  1  0  0  0
  3  4  1  0  0  0
  3 88  1  0  0  0
  3 89  1  0  0  0
  4  5  1  0  0  0
  4 90  1  0  0  0
  4 91  1  0  0  0
  5  6  1  0  0  0
  5 26  1  0  0  0
  5 92  1  0  0  0
  6 25  1  0  0  0
  6 93  1  0  0  0
  6 94  1  0  0  0
  7  8  2  0  0  0
  7 26  1  0  0  0
  7 29  1  0  0  0
  8  9  1  0  0  0
  8 22  1  0  0  0
  9 10  1  0  0  0
  9 27  2  0  0  0
 10 11  2  0  0  0
 10 15  1  0  0  0
 11 12  1  0  0  0
 11 95  1  0  0  0
 12 13  2  0  0  0
 12 96  1  0  0  0
 13 14  1  0  0  0
 13 31  1  0  0  0
 14 15  2  0  0  0
 14 97  1  0  0  0
 15 98  1  0  0  0
 16 17  2  0  0  0
 16 21  1  0  0  0
 16 31  1  0  0  0
 17 18  1  0  0  0
 17 99  1  0  0  0
 18 19  2  0  0  0
 18100  1  0  0  0
 19 20  1  0  0  0
 19 24  1  0  0  0
 20 21  2  0  0  0
 20101  1  0  0  0
 21 23  1  0  0  0
 22 28  1  0  0  0
 22 32  2  0  0  0
 26 27  1  0  0  0
 28102  1  0  0  0
 28103  1  0  0  0
 29104  1  0  0  0
 29105  1  0  0  0
 33 34  1  0  0  0
 33 66  1  0  0  0
 33 70  2  0  0  0
 34 36  1  0  0  0
 34 59  1  0  0  0
 34106  1  0  0  0
 35 44  2  0  0  0
 35 45  1  0  0  0
 35 68  1  0  0  0
 36 56  1  0  0  0
 36107  1  0  0  0
 37 39  1  0  0  0
 37 47  1  0  0  0
 37 66  1  0  0  0
 37108  1  0  0  0
 38 43  2  0  0  0
 38 46  1  0  0  0
 38 47  1  0  0  0
 39 64  1  0  0  0
 39 67  2  0  0  0
 40 52  1  0  0  0
 40 53  2  0  0  0
 40 58  1  0  0  0
 41109  1  0  0  0
 41110  1  0  0  0
 41111  1  0  0  0
 41 48  1  0  0  0
 42 43  1  0  0  0
 42 66  1  0  0  0
 42112  1  0  0  0
 42113  1  0  0  0
 43 44  1  0  0  0
 44114  1  0  0  0
 45 46  2  0  0  0
 45115  1  0  0  0
 46116  1  0  0  0
 47117  1  0  0  0
 47118  1  0  0  0
 48 56  1  0  0  0
 48 65  1  0  0  0
 48119  1  0  0  0
 49 50  1  0  0  0
 49 53  1  0  0  0
 49 64  1  0  0  0
 49120  1  0  0  0
 50 51  1  0  0  0
 50121  1  0  0  0
 50122  1  0  0  0
 51 52  1  0  0  0
 51123  1  0  0  0
 51124  1  0  0  0
 52125  1  0  0  0
 52126  1  0  0  0
 53 54  1  0  0  0
 54 55  2  0  0  0
 54127  1  0  0  0
 55 57  1  0  0  0
 55128  1  0  0  0
 56 69  2  0  0  0
 57 58  2  0  0  0
 57129  1  0  0  0
 58130  1  0  0  0
 59 60  1  0  0  0
 59 61  1  0  0  0
 59 62  1  0  0  0
 60131  1  0  0  0
 60132  1  0  0  0
 60133  1  0  0  0
 61134  1  0  0  0
 61135  1  0  0  0
 61136  1  0  0  0
 62137  1  0  0  0
 62138  1  0  0  0
 62139  1  0  0  0
 63 65  1  0  0  0
 63140  1  0  0  0
 63141  1  0  0  0
 63142  1  0  0  0
 64143  1  0  0  0
 65144  1  0  0  0
 68 82  1  0  0  0
 71 72  2  0  0  0
 71 73  1  0  0  0
 71145  1  0  0  0
 72 75  1  0  0  0
 72146  1  0  0  0
 73 76  2  0  0  0
 73147  1  0  0  0
 74 75  2  0  0  0
 74 76  1  0  0  0
 74148  1  0  0  0
 75 80  1  0  0  0
 76 84  1  0  0  0
 77149  1  0  0  0
 77150  1  0  0  0
 77151  1  0  0  0
 77 83  1  0  0  0
 78 83  1  0  0  0
 78152  1  0  0  0
 78153  1  0  0  0
 78154  1  0  0  0
 79155  1  0  0  0
 79156  1  0  0  0
 79157  1  0  0  0
 79 85  1  0  0  0
 80 85  1  0  0  0
 80158  1  0  0  0
 80159  1  0  0  0
 81 83  1  0  0  0
 81 85  1  0  0  0
 81160  1  0  0  0
 81161  1  0  0  0
 82 83  1  0  0  0
 82162  1  0  0  0
 82163  1  0  0  0
 84164  1  0  0  0
 85165  1  0  0  0
M  CHG  1  85   1
M  ISO  4   1 100  68 101  82 101  84 100
M  END
> <chiral flag>
0

> <version>
0

> <s_m_source_file>
/data/baiqing/PycharmProjects/Reinvent-master-3.2/result/LINK_invent/BTK/process_docking_weight1_custom_product_contain_oxygen_bond_distance_aromatic_linkinvent_7_9_3/rearranged_h_0029.sdf

> <i_m_source_file_index>
73

> <r_mmod_Potential_Energy-OPLS-2005>
-98.1130828857422

> <r_mmod_Stretch_Energy-OPLS-2005>
51.8835678100586

> <r_mmod_Bend_Energy-OPLS-2005>
120.287651062012

> <r_mmod_Torsional_Energy-OPLS-2005>
273.718048095703

> <r_mmod_Improper_Torsional_Energy-OPLS-2005>
4.25864601135254

> <r_mmod_Van_der_Waal_Energy-OPLS-2005>
155.676956176758

> <r_mmod_Electrostatic_Energy-OPLS-2005>
-275.88232421875

> <r_mmod_Solvation_Energy-OPLS-2005>
-445.52783203125

> <b_mmod_Minimization_Converged-OPLS-2005>
0

> <r_mmod_RMS_Derivative-OPLS-2005>
1.60513365268707

$$$$
73
                    3D
 Structure written by MMmdl.
167176  0  0  1  0            999 V2000
  -30.6677  -14.5496   20.5678 C   0  0  0  0  0  0
  -30.4214  -12.3714   19.4049 C   0  0  0  0  0  0
  -29.4766  -12.5093   18.1935 C   0  0  0  0  0  0
  -27.9976  -12.3731   18.6075 C   0  0  0  0  0  0
  -27.6416  -13.2201   19.8557 C   0  0  2  0  0  0
  -28.6888  -13.0327   20.9679 C   0  0  0  0  0  0
  -25.2470  -13.8204   20.5697 C   0  0  0  0  0  0
  -24.1738  -13.0426   20.9205 C   0  0  0  0  0  0
  -24.6312  -11.6919   20.8712 C   0  0  0  0  0  0
  -23.8974  -10.4290   21.0373 C   0  0  0  0  0  0
  -24.3544   -9.4228   21.9167 C   0  0  0  0  0  0
  -23.6259   -8.2231   22.0736 C   0  0  0  0  0  0
  -22.4246   -8.0232   21.3519 C   0  0  0  0  0  0
  -21.9855   -9.0180   20.4617 C   0  0  0  0  0  0
  -22.7132  -10.2103   20.3036 C   0  0  0  0  0  0
  -21.6841   -6.0693   22.5255 C   0  0  0  0  0  0
  -21.4011   -6.5607   23.8189 C   0  0  0  0  0  0
  -21.3687   -5.6774   24.9155 C   0  0  0  0  0  0
  -21.6039   -4.3021   24.7217 C   0  0  0  0  0  0
  -21.8828   -3.8117   23.4333 C   0  0  0  0  0  0
  -21.9205   -4.6925   22.3394 C   0  0  0  0  0  0
  -22.7764  -13.5195   21.1862 C   0  0  0  0  0  0
  -22.1671   -4.2108   21.0970 F   0  0  0  0  0  0
  -21.5650   -3.4522   25.7745 F   0  0  0  0  0  0
  -30.0038  -13.3679   20.4023 N   0  0  0  0  0  0
  -26.2894  -12.9389   20.3294 N   0  0  0  0  0  0
  -25.9247  -11.6535   20.5724 N   0  0  0  0  0  0
  -22.0404  -12.8188   22.0437 N   0  0  0  0  0  0
  -25.4194  -15.1922   20.4154 N   0  0  0  0  0  0
  -31.8424  -14.6965   20.2305 O   0  0  0  0  0  0
  -21.6633   -6.8804   21.4197 O   0  0  0  0  0  0
  -22.3423  -14.5478   20.6694 O   0  0  0  0  0  0
  -24.6247  -31.8624   23.2083 C   0  0  0  0  0  0
  -25.9119  -32.4782   23.8374 C   0  0  1  0  0  0
  -27.2068  -27.3434   20.1044 C   0  0  0  0  0  0
  -25.5967  -33.8587   24.2272 N   0  0  0  0  0  0
  -23.4139  -30.4927   21.5477 C   0  0  2  0  0  0
  -24.8485  -28.9514   20.1096 C   0  0  0  0  0  0
  -22.7452  -29.4653   22.4921 C   0  0  0  0  0  0
  -18.0289  -28.1413   22.8474 C   0  0  0  0  0  0
  -24.1468  -36.7297   23.2642 C   0  0  0  0  0  0
  -25.9505  -30.8017   21.3695 C   0  0  0  0  0  0
  -26.0165  -29.4315   20.7110 C   0  0  0  0  0  0
  -27.1950  -28.6356   20.7045 C   0  0  0  0  0  0
  -26.0151  -26.9042   19.4799 C   0  0  0  0  0  0
  -24.8461  -27.6880   19.4947 C   0  0  0  0  0  0
  -23.6263  -29.8432   20.1569 C   0  0  0  0  0  0
  -25.4106  -36.3078   24.0318 C   0  0  1  0  0  0
  -20.5889  -28.3707   23.1276 C   0  0  2  0  0  0
  -20.6784  -26.9441   22.5420 C   0  0  0  0  0  0
  -19.5769  -26.6392   21.5219 C   0  0  0  0  0  0
  -18.1927  -26.7946   22.1601 C   0  0  0  0  0  0
  -19.1546  -28.8874   23.2858 C   0  0  0  0  0  0
  -18.9487  -30.1484   23.8848 C   0  0  0  0  0  0
  -17.6488  -30.6600   24.0586 C   0  0  0  0  0  0
  -25.9064  -34.9452   23.5081 C   0  0  0  0  0  0
  -16.5379  -29.9120   23.6353 C   0  0  0  0  0  0
  -16.7272  -28.6576   23.0307 C   0  0  0  0  0  0
  -26.4484  -31.6608   25.0760 C   0  0  0  0  0  0
  -25.3696  -31.3809   26.1484 C   0  0  0  0  0  0
  -27.0345  -30.3031   24.6228 C   0  0  0  0  0  0
  -27.6015  -32.4374   25.7539 C   0  0  0  0  0  0
  -27.5566  -37.1809   24.8469 C   0  0  0  0  0  0
  -21.4175  -29.3052   22.3662 N   0  0  0  0  0  0
  -26.4261  -37.3785   23.9428 N   0  0  0  0  0  0
  -24.6812  -31.0680   22.0988 N   0  0  0  0  0  0
  -23.4188  -28.8165   23.2972 O   0  0  0  0  0  0
  -28.3585  -26.5604   20.1849 O   0  0  0  0  0  0
  -26.5636  -34.8941   22.4654 O   0  0  0  0  0  0
  -23.5422  -32.1417   23.7447 O   0  0  0  0  0  0
  -30.3864  -18.0727   19.3195 C   0  0  0  0  0  0
  -30.5217  -19.2135   18.5162 C   0  0  0  0  0  0
  -30.2486  -18.1899   20.7120 C   0  0  0  0  0  0
  -30.1717  -19.5098   21.2901 C   0  0  0  0  0  0
  -30.3321  -20.6973   20.4752 C   0  0  0  0  0  0
  -30.5465  -20.5011   19.0852 C   0  0  0  0  0  0
  -27.3716  -24.1184   20.1370 C   0  0  0  0  0  0
  -28.1193  -22.7924   20.3777 C   0  0  0  0  0  0
  -29.7580  -24.5038   20.2676 C   0  0  0  0  0  0
  -28.4442  -25.1634   19.7307 C   0  0  2  0  0  0
  -29.9979  -19.5922   22.8064 C   0  0  0  0  0  0
  -32.7385  -21.4055   17.6192 C   0  0  0  0  0  0
  -30.3451  -16.8900   21.5635 C   0  0  0  0  0  0
  -30.5176  -22.1482   21.0440 C   0  0  0  0  0  0
  -29.9086  -15.5959   20.9789 N   0  0  0  0  0  0
  -29.4259  -23.1901   20.9175 N   0  3  2  0  0  0
  -31.0177  -21.8336   18.0255 S   0  0  0  0  0  0
  -31.4538  -12.5185   19.0815 H   0  0  0  0  0  0
  -30.3731  -11.3682   19.8314 H   0  0  0  0  0  0
  -29.7159  -11.7595   17.4393 H   0  0  0  0  0  0
  -29.6282  -13.4780   17.7160 H   0  0  0  0  0  0
  -27.7890  -11.3204   18.7987 H   0  0  0  0  0  0
  -27.3513  -12.6623   17.7760 H   0  0  0  0  0  0
  -27.6685  -14.2621   19.5362 H   0  0  0  0  0  0
  -28.6875  -11.9974   21.3148 H   0  0  0  0  0  0
  -28.4438  -13.6388   21.8393 H   0  0  0  0  0  0
  -25.2689   -9.5720   22.4736 H   0  0  0  0  0  0
  -23.9983   -7.4622   22.7450 H   0  0  0  0  0  0
  -21.0799   -8.8621   19.8913 H   0  0  0  0  0  0
  -22.3529  -10.9606   19.6124 H   0  0  0  0  0  0
  -21.1980   -7.6124   23.9647 H   0  0  0  0  0  0
  -21.1519   -6.0533   25.9061 H   0  0  0  0  0  0
  -22.0597   -2.7565   23.2857 H   0  0  0  0  0  0
  -22.4052  -11.9914   22.4905 H   0  0  0  0  0  0
  -21.0965  -13.1150   22.2557 H   0  0  0  0  0  0
  -24.6442  -15.8438   20.4851 H   0  0  0  0  0  0
  -26.2785  -15.6300   20.1048 H   0  0  0  0  0  0
  -26.7199  -32.5415   23.1128 H   0  0  0  0  0  0
  -25.0103  -33.9726   25.0396 H   0  0  0  0  0  0
  -22.7070  -31.3146   21.4127 H   0  0  0  0  0  0
  -23.3730  -35.9629   23.3296 H   0  0  0  0  0  0
  -24.3556  -36.8953   22.2064 H   0  0  0  0  0  0
  -23.7235  -37.6505   23.6674 H   0  0  0  0  0  0
  -26.0777  -31.5663   20.6007 H   0  0  0  0  0  0
  -26.8315  -30.8459   21.9971 H   0  0  0  0  0  0
  -28.0959  -28.9919   21.1832 H   0  0  0  0  0  0
  -25.9477  -25.9495   18.9871 H   0  0  0  0  0  0
  -23.9426  -27.3129   19.0330 H   0  0  0  0  0  0
  -23.7768  -30.6319   19.4161 H   0  0  0  0  0  0
  -22.7343  -29.3038   19.8341 H   0  0  0  0  0  0
  -25.1267  -36.1907   25.0809 H   0  0  0  0  0  0
  -20.9964  -28.3318   24.1406 H   0  0  0  0  0  0
  -20.5707  -26.2336   23.3639 H   0  0  0  0  0  0
  -21.6656  -26.7488   22.1213 H   0  0  0  0  0  0
  -19.6950  -25.6296   21.1284 H   0  0  0  0  0  0
  -19.6717  -27.3172   20.6733 H   0  0  0  0  0  0
  -17.4217  -26.6714   21.3984 H   0  0  0  0  0  0
  -18.0293  -26.0079   22.8987 H   0  0  0  0  0  0
  -19.7974  -30.7314   24.2171 H   0  0  0  0  0  0
  -17.5069  -31.6257   24.5234 H   0  0  0  0  0  0
  -15.5392  -30.3020   23.7716 H   0  0  0  0  0  0
  -15.8668  -28.0925   22.6972 H   0  0  0  0  0  0
  -24.5921  -30.7060   25.7892 H   0  0  0  0  0  0
  -24.8802  -32.2986   26.4750 H   0  0  0  0  0  0
  -25.8000  -30.9175   27.0365 H   0  0  0  0  0  0
  -26.2940  -29.6792   24.1203 H   0  0  0  0  0  0
  -27.3996  -29.7295   25.4760 H   0  0  0  0  0  0
  -27.8798  -30.4336   23.9480 H   0  0  0  0  0  0
  -27.2631  -33.3759   26.1943 H   0  0  0  0  0  0
  -28.3920  -32.6801   25.0429 H   0  0  0  0  0  0
  -28.0538  -31.8600   26.5623 H   0  0  0  0  0  0
  -28.2556  -38.0123   24.7534 H   0  0  0  0  0  0
  -28.1072  -36.2657   24.6219 H   0  0  0  0  0  0
  -27.2303  -37.1399   25.8877 H   0  0  0  0  0  0
  -20.9351  -29.8830   21.6929 H   0  0  0  0  0  0
  -26.0129  -38.2848   24.1478 H   0  0  0  0  0  0
  -30.4677  -17.0976   18.8630 H   0  0  0  0  0  0
  -30.6875  -19.0952   17.4545 H   0  0  0  0  0  0
  -26.8332  -24.4231   21.0334 H   0  0  0  0  0  0
  -26.6357  -23.9563   19.3495 H   0  0  0  0  0  0
  -28.2549  -22.2699   19.4301 H   0  0  0  0  0  0
  -27.5888  -22.1260   21.0604 H   0  0  0  0  0  0
  -30.2457  -25.1535   20.9944 H   0  0  0  0  0  0
  -30.4586  -24.3741   19.4428 H   0  0  0  0  0  0
  -28.4830  -25.1817   18.6402 H   0  0  0  0  0  0
  -30.7896  -19.0305   23.3066 H   0  0  0  0  0  0
  -30.0177  -20.5899   23.2228 H   0  0  0  0  0  0
  -29.0428  -19.1546   23.1003 H   0  0  0  0  0  0
  -32.7808  -20.3773   17.2575 H   0  0  0  0  0  0
  -33.3878  -21.4896   18.4935 H   0  0  0  0  0  0
  -33.1273  -22.0565   16.8365 H   0  0  0  0  0  0
  -29.7740  -17.0045   22.4859 H   0  0  0  0  0  0
  -31.3876  -16.7918   21.8711 H   0  0  0  0  0  0
  -31.4256  -22.5565   20.6050 H   0  0  0  0  0  0
  -30.8100  -22.1037   22.0897 H   0  0  0  0  0  0
  -28.9180  -15.4244   21.0134 H   0  0  0  0  0  0
  -29.2324  -23.4489   21.8740 H   0  0  0  0  0  0
  1 25  1  0  0  0
  1 30  2  0  0  0
  1 85  1  0  0  0
  2  3  1  0  0  0
  2 25  1  0  0  0
  2 88  1  0  0  0
  2 89  1  0  0  0
  3  4  1  0  0  0
  3 90  1  0  0  0
  3 91  1  0  0  0
  4  5  1  0  0  0
  4 92  1  0  0  0
  4 93  1  0  0  0
  5  6  1  0  0  0
  5 26  1  0  0  0
  5 94  1  0  0  0
  6 25  1  0  0  0
  6 95  1  0  0  0
  6 96  1  0  0  0
  7  8  2  0  0  0
  7 26  1  0  0  0
  7 29  1  0  0  0
  8  9  1  0  0  0
  8 22  1  0  0  0
  9 10  1  0  0  0
  9 27  2  0  0  0
 10 11  2  0  0  0
 10 15  1  0  0  0
 11 12  1  0  0  0
 11 97  1  0  0  0
 12 13  2  0  0  0
 12 98  1  0  0  0
 13 14  1  0  0  0
 13 31  1  0  0  0
 14 15  2  0  0  0
 14 99  1  0  0  0
 15100  1  0  0  0
 16 17  2  0  0  0
 16 21  1  0  0  0
 16 31  1  0  0  0
 17 18  1  0  0  0
 17101  1  0  0  0
 18 19  2  0  0  0
 18102  1  0  0  0
 19 20  1  0  0  0
 19 24  1  0  0  0
 20 21  2  0  0  0
 20103  1  0  0  0
 21 23  1  0  0  0
 22 28  1  0  0  0
 22 32  2  0  0  0
 26 27  1  0  0  0
 28104  1  0  0  0
 28105  1  0  0  0
 29106  1  0  0  0
 29107  1  0  0  0
 33 34  1  0  0  0
 33 66  1  0  0  0
 33 70  2  0  0  0
 34 36  1  0  0  0
 34 59  1  0  0  0
 34108  1  0  0  0
 35 44  2  0  0  0
 35 45  1  0  0  0
 35 68  1  0  0  0
 36 56  1  0  0  0
 36109  1  0  0  0
 37 39  1  0  0  0
 37 47  1  0  0  0
 37 66  1  0  0  0
 37110  1  0  0  0
 38 43  2  0  0  0
 38 46  1  0  0  0
 38 47  1  0  0  0
 39 64  1  0  0  0
 39 67  2  0  0  0
 40 52  1  0  0  0
 40 53  2  0  0  0
 40 58  1  0  0  0
 41111  1  0  0  0
 41112  1  0  0  0
 41113  1  0  0  0
 41 48  1  0  0  0
 42 43  1  0  0  0
 42 66  1  0  0  0
 42114  1  0  0  0
 42115  1  0  0  0
 43 44  1  0  0  0
 44116  1  0  0  0
 45 46  2  0  0  0
 45117  1  0  0  0
 46118  1  0  0  0
 47119  1  0  0  0
 47120  1  0  0  0
 48 56  1  0  0  0
 48 65  1  0  0  0
 48121  1  0  0  0
 49 50  1  0  0  0
 49 53  1  0  0  0
 49 64  1  0  0  0
 49122  1  0  0  0
 50 51  1  0  0  0
 50123  1  0  0  0
 50124  1  0  0  0
 51 52  1  0  0  0
 51125  1  0  0  0
 51126  1  0  0  0
 52127  1  0  0  0
 52128  1  0  0  0
 53 54  1  0  0  0
 54 55  2  0  0  0
 54129  1  0  0  0
 55 57  1  0  0  0
 55130  1  0  0  0
 56 69  2  0  0  0
 57 58  2  0  0  0
 57131  1  0  0  0
 58132  1  0  0  0
 59 60  1  0  0  0
 59 61  1  0  0  0
 59 62  1  0  0  0
 60133  1  0  0  0
 60134  1  0  0  0
 60135  1  0  0  0
 61136  1  0  0  0
 61137  1  0  0  0
 61138  1  0  0  0
 62139  1  0  0  0
 62140  1  0  0  0
 62141  1  0  0  0
 63 65  1  0  0  0
 63142  1  0  0  0
 63143  1  0  0  0
 63144  1  0  0  0
 64145  1  0  0  0
 65146  1  0  0  0
 68 80  1  0  0  0
 71 72  2  0  0  0
 71 73  1  0  0  0
 71147  1  0  0  0
 72 76  1  0  0  0
 72148  1  0  0  0
 73 74  2  0  0  0
 73 83  1  0  0  0
 74 75  1  0  0  0
 74 81  1  0  0  0
 75 76  2  0  0  0
 75 84  1  0  0  0
 76 87  1  0  0  0
 77 78  1  0  0  0
 77 80  1  0  0  0
 77149  1  0  0  0
 77150  1  0  0  0
 78 86  1  0  0  0
 78151  1  0  0  0
 78152  1  0  0  0
 79 80  1  0  0  0
 79 86  1  0  0  0
 79153  1  0  0  0
 79154  1  0  0  0
 80155  1  0  0  0
 81156  1  0  0  0
 81157  1  0  0  0
 81158  1  0  0  0
 82 87  1  0  0  0
 82159  1  0  0  0
 82160  1  0  0  0
 82161  1  0  0  0
 83 85  1  0  0  0
 83162  1  0  0  0
 83163  1  0  0  0
 84164  1  0  0  0
 84165  1  0  0  0
 84 86  1  0  0  0
 85166  1  0  0  0
 86167  1  0  0  0
M  CHG  1  86   1
M  ISO  4   1 100  68 101  80 101  85 100
M  END
> <chiral flag>
0

> <version>
0

> <s_m_source_file>
/data/baiqing/PycharmProjects/Reinvent-master-3.2/result/LINK_invent/BTK/process_docking_weight1_custom_product_contain_oxygen_bond_distance_aromatic_linkinvent_7_9_3/rearranged_h_0029.sdf

> <i_m_source_file_index>
74

> <r_mmod_Potential_Energy-OPLS-2005>
-71.5334243774414

> <r_mmod_Stretch_Energy-OPLS-2005>
65.4256134033203

> <r_mmod_Bend_Energy-OPLS-2005>
172.131134033203

> <r_mmod_Torsional_Energy-OPLS-2005>
275.244964599609

> <r_mmod_Improper_Torsional_Energy-OPLS-2005>
5.66723537445068

> <r_mmod_Van_der_Waal_Energy-OPLS-2005>
145.935241699219

> <r_mmod_Electrostatic_Energy-OPLS-2005>
-355.985229492188

> <r_mmod_Solvation_Energy-OPLS-2005>
-414.737731933594

> <b_mmod_Minimization_Converged-OPLS-2005>
0

> <r_mmod_RMS_Derivative-OPLS-2005>
5.7296314239502

$$$$
74
                    3D
 Structure written by MMmdl.
173183  0  0  1  0            999 V2000
  -30.5820  -14.7439   20.5076 C   0  0  0  0  0  0
  -30.4512  -12.4631   19.4718 C   0  0  0  0  0  0
  -29.5190  -12.5175   18.2391 C   0  0  0  0  0  0
  -28.0434  -12.3350   18.6501 C   0  0  0  0  0  0
  -27.6478  -13.2239   19.8584 C   0  0  2  0  0  0
  -28.6913  -13.1198   20.9929 C   0  0  0  0  0  0
  -25.2471  -13.8111   20.5563 C   0  0  0  0  0  0
  -24.1797  -13.0388   20.9209 C   0  0  0  0  0  0
  -24.6398  -11.6874   20.8777 C   0  0  0  0  0  0
  -23.9064  -10.4263   21.0425 C   0  0  0  0  0  0
  -24.3610   -9.4169   21.9202 C   0  0  0  0  0  0
  -23.6276   -8.2213   22.0755 C   0  0  0  0  0  0
  -22.4262   -8.0264   21.3540 C   0  0  0  0  0  0
  -21.9897   -9.0238   20.4648 C   0  0  0  0  0  0
  -22.7233  -10.2119   20.3069 C   0  0  0  0  0  0
  -21.6849   -6.0716   22.5273 C   0  0  0  0  0  0
  -21.4012   -6.5627   23.8203 C   0  0  0  0  0  0
  -21.3655   -5.6782   24.9168 C   0  0  0  0  0  0
  -21.6048   -4.3042   24.7225 C   0  0  0  0  0  0
  -21.8820   -3.8129   23.4348 C   0  0  0  0  0  0
  -21.9186   -4.6946   22.3399 C   0  0  0  0  0  0
  -22.7819  -13.5189   21.1859 C   0  0  0  0  0  0
  -22.1658   -4.2126   21.0977 F   0  0  0  0  0  0
  -21.5620   -3.4531   25.7741 F   0  0  0  0  0  0
  -29.9988  -13.4976   20.4311 N   0  0  0  0  0  0
  -26.2946  -12.9341   20.3273 N   0  0  0  0  0  0
  -25.9334  -11.6495   20.5800 N   0  0  0  0  0  0
  -22.0454  -12.8214   22.0437 N   0  0  0  0  0  0
  -25.4038  -15.1788   20.3696 N   0  0  0  0  0  0
  -31.7482  -14.9090   20.1329 O   0  0  0  0  0  0
  -21.6624   -6.8859   21.4236 O   0  0  0  0  0  0
  -22.3513  -14.5491   20.6685 O   0  0  0  0  0  0
  -24.6299  -31.8541   23.1975 C   0  0  0  0  0  0
  -25.9125  -32.4745   23.8323 C   0  0  1  0  0  0
  -27.2365  -27.2739   20.1310 C   0  0  0  0  0  0
  -25.5917  -33.8550   24.2251 N   0  0  0  0  0  0
  -23.4280  -30.4742   21.5393 C   0  0  2  0  0  0
  -24.8779  -28.9187   20.1132 C   0  0  0  0  0  0
  -22.7504  -29.4584   22.4905 C   0  0  0  0  0  0
  -18.0288  -28.1393   22.8479 C   0  0  0  0  0  0
  -24.1483  -36.7282   23.2640 C   0  0  0  0  0  0
  -25.9713  -30.7726   21.3738 C   0  0  0  0  0  0
  -26.0471  -29.3945   20.7190 C   0  0  0  0  0  0
  -27.2259  -28.5847   20.7159 C   0  0  0  0  0  0
  -26.0379  -26.8550   19.5085 C   0  0  0  0  0  0
  -24.8779  -27.6567   19.4972 C   0  0  0  0  0  0
  -23.6473  -29.8039   20.1568 C   0  0  0  0  0  0
  -25.4106  -36.3065   24.0327 C   0  0  1  0  0  0
  -20.5895  -28.3697   23.1263 C   0  0  2  0  0  0
  -20.6770  -26.9411   22.5405 C   0  0  0  0  0  0
  -19.5747  -26.6383   21.5207 C   0  0  0  0  0  0
  -18.1931  -26.7932   22.1620 C   0  0  0  0  0  0
  -19.1544  -28.8858   23.2870 C   0  0  0  0  0  0
  -18.9467  -30.1455   23.8903 C   0  0  0  0  0  0
  -17.6468  -30.6586   24.0570 C   0  0  0  0  0  0
  -25.9051  -34.9429   23.5091 C   0  0  0  0  0  0
  -16.5358  -29.9089   23.6332 C   0  0  0  0  0  0
  -16.7277  -28.6505   23.0353 C   0  0  0  0  0  0
  -26.4500  -31.6579   25.0713 C   0  0  0  0  0  0
  -25.3732  -31.3752   26.1451 C   0  0  0  0  0  0
  -27.0343  -30.2994   24.6196 C   0  0  0  0  0  0
  -27.6064  -32.4323   25.7474 C   0  0  0  0  0  0
  -27.5578  -37.1783   24.8462 C   0  0  0  0  0  0
  -21.4213  -29.3038   22.3653 N   0  0  0  0  0  0
  -26.4281  -37.3763   23.9418 N   0  0  0  0  0  0
  -24.6956  -31.0511   22.0939 N   0  0  0  0  0  0
  -23.4196  -28.8134   23.3018 O   0  0  0  0  0  0
  -28.3687  -26.4278   20.1873 O   0  0  0  0  0  0
  -26.5636  -34.8913   22.4675 O   0  0  0  0  0  0
  -23.5447  -32.1360   23.7260 O   0  0  0  0  0  0
  -28.6170  -19.4791   21.1795 C   0  0  0  0  0  0
  -30.8986  -18.0763   20.4383 C   0  0  0  0  0  0
  -29.7241  -20.2912   20.8134 C   0  0  0  0  0  0
  -28.6439  -18.0467   21.2160 C   0  0  0  0  0  0
  -30.8991  -19.5223   20.4596 C   0  0  0  0  0  0
  -29.7869  -17.2785   20.8224 C   0  0  0  0  0  0
  -33.4278  -19.7958   16.6768 C   0  0  0  0  0  0
  -34.3626  -20.8664   17.2412 C   0  0  0  0  0  0
  -32.6629  -19.2978   17.9002 C   0  0  0  0  0  0
  -33.7042  -21.3363   18.5482 C   0  0  0  0  0  0
  -27.9519  -23.8616   20.8493 C   0  0  0  0  0  0
  -29.6464  -24.1599   19.8101 C   0  0  0  0  0  0
  -28.3152  -24.9738   19.8136 C   0  0  2  0  0  0
  -27.3913  -17.3762   21.7549 C   0  0  0  0  0  0
  -29.6654  -21.8837   21.0858 C   0  0  0  0  0  0
  -32.2587  -20.1816   20.2020 C   0  0  0  0  0  0
  -29.7464  -15.7896   20.8652 N   0  0  0  0  0  0
  -32.5147  -20.4806   18.7731 N   0  3  0  0  0  0
  -28.9219  -22.9134   20.2104 N   0  3  1  0  0  0
  -31.4860  -12.6208   19.1638 H   0  0  0  0  0  0
  -30.4247  -11.4779   19.9403 H   0  0  0  0  0  0
  -29.8003  -11.7479   17.5181 H   0  0  0  0  0  0
  -29.6395  -13.4735   17.7280 H   0  0  0  0  0  0
  -27.9021  -11.2857   18.9076 H   0  0  0  0  0  0
  -27.3870  -12.5305   17.8014 H   0  0  0  0  0  0
  -27.6499  -14.2519   19.4959 H   0  0  0  0  0  0
  -28.7287  -12.1028   21.3862 H   0  0  0  0  0  0
  -28.4175  -13.7570   21.8348 H   0  0  0  0  0  0
  -25.2759   -9.5634   22.4774 H   0  0  0  0  0  0
  -23.9963   -7.4601   22.7484 H   0  0  0  0  0  0
  -21.0814   -8.8783   19.8969 H   0  0  0  0  0  0
  -22.3700  -10.9663   19.6180 H   0  0  0  0  0  0
  -21.2022   -7.6141   23.9702 H   0  0  0  0  0  0
  -21.1472   -6.0517   25.9067 H   0  0  0  0  0  0
  -22.0607   -2.7591   23.2865 H   0  0  0  0  0  0
  -22.4064  -11.9893   22.4859 H   0  0  0  0  0  0
  -21.1081  -13.1275   22.2634 H   0  0  0  0  0  0
  -24.6080  -15.8053   20.4110 H   0  0  0  0  0  0
  -26.2012  -15.5840   19.8969 H   0  0  0  0  0  0
  -26.7196  -32.5407   23.1072 H   0  0  0  0  0  0
  -25.0049  -33.9688   25.0381 H   0  0  0  0  0  0
  -22.7244  -31.2954   21.3897 H   0  0  0  0  0  0
  -23.3737  -35.9625   23.3297 H   0  0  0  0  0  0
  -24.3573  -36.8911   22.2057 H   0  0  0  0  0  0
  -23.7242  -37.6482   23.6668 H   0  0  0  0  0  0
  -26.1038  -31.5313   20.6011 H   0  0  0  0  0  0
  -26.8516  -30.8261   22.0033 H   0  0  0  0  0  0
  -28.1234  -28.9491   21.1972 H   0  0  0  0  0  0
  -25.9627  -25.8881   19.0356 H   0  0  0  0  0  0
  -23.9817  -27.2849   19.0195 H   0  0  0  0  0  0
  -23.7724  -30.5786   19.3992 H   0  0  0  0  0  0
  -22.7680  -29.2338   19.8515 H   0  0  0  0  0  0
  -25.1280  -36.1911   25.0816 H   0  0  0  0  0  0
  -20.9979  -28.3280   24.1386 H   0  0  0  0  0  0
  -20.5643  -26.2315   23.3613 H   0  0  0  0  0  0
  -21.6643  -26.7414   22.1220 H   0  0  0  0  0  0
  -19.6909  -25.6294   21.1234 H   0  0  0  0  0  0
  -19.6689  -27.3194   20.6739 H   0  0  0  0  0  0
  -17.4193  -26.6668   21.4037 H   0  0  0  0  0  0
  -18.0345  -26.0082   22.9022 H   0  0  0  0  0  0
  -19.7943  -30.7268   24.2285 H   0  0  0  0  0  0
  -17.5019  -31.6265   24.5177 H   0  0  0  0  0  0
  -15.5359  -30.2994   23.7649 H   0  0  0  0  0  0
  -15.8676  -28.0824   22.7072 H   0  0  0  0  0  0
  -24.5877  -30.7132   25.7788 H   0  0  0  0  0  0
  -24.8964  -32.2937   26.4890 H   0  0  0  0  0  0
  -25.8047  -30.8909   27.0219 H   0  0  0  0  0  0
  -26.2916  -29.6732   24.1233 H   0  0  0  0  0  0
  -27.4043  -29.7275   25.4717 H   0  0  0  0  0  0
  -27.8792  -30.4274   23.9424 H   0  0  0  0  0  0
  -27.2679  -33.3620   26.2062 H   0  0  0  0  0  0
  -28.3863  -32.6885   25.0289 H   0  0  0  0  0  0
  -28.0749  -31.8445   26.5377 H   0  0  0  0  0  0
  -28.2580  -38.0095   24.7515 H   0  0  0  0  0  0
  -28.1081  -36.2622   24.6255 H   0  0  0  0  0  0
  -27.2302  -37.1400   25.8868 H   0  0  0  0  0  0
  -20.9398  -29.8765   21.6862 H   0  0  0  0  0  0
  -26.0152  -38.2828   24.1449 H   0  0  0  0  0  0
  -27.7195  -19.9749   21.5258 H   0  0  0  0  0  0
  -31.8107  -17.5618   20.1699 H   0  0  0  0  0  0
  -33.9636  -18.9942   16.1676 H   0  0  0  0  0  0
  -32.7359  -20.2417   15.9612 H   0  0  0  0  0  0
  -34.5153  -21.6877   16.5409 H   0  0  0  0  0  0
  -35.3419  -20.4365   17.4579 H   0  0  0  0  0  0
  -33.2526  -18.5326   18.4086 H   0  0  0  0  0  0
  -31.7007  -18.8561   17.6387 H   0  0  0  0  0  0
  -33.4076  -22.3846   18.5022 H   0  0  0  0  0  0
  -34.4176  -21.2397   19.3697 H   0  0  0  0  0  0
  -26.9159  -23.5260   20.8007 H   0  0  0  0  0  0
  -28.2245  -24.1320   21.8717 H   0  0  0  0  0  0
  -30.3523  -24.5081   20.5676 H   0  0  0  0  0  0
  -30.1309  -24.0926   18.8362 H   0  0  0  0  0  0
  -27.8141  -24.8216   18.8553 H   0  0  0  0  0  0
  -27.1052  -17.8316   22.7038 H   0  0  0  0  0  0
  -27.5052  -16.3097   21.9407 H   0  0  0  0  0  0
  -26.5652  -17.5239   21.0601 H   0  0  0  0  0  0
  -30.6766  -22.2594   21.2085 H   0  0  0  0  0  0
  -29.2517  -21.9838   22.0896 H   0  0  0  0  0  0
  -33.0482  -19.5254   20.5748 H   0  0  0  0  0  0
  -32.3695  -21.0853   20.7960 H   0  0  0  0  0  0
  -28.8484  -15.4330   21.1526 H   0  0  0  0  0  0
  -31.7257  -20.9986   18.4193 H   0  0  0  0  0  0
  -28.4993  -22.4723   19.4083 H   0  0  0  0  0  0
  1 25  1  0  0  0
  1 30  2  0  0  0
  1 87  1  0  0  0
  2  3  1  0  0  0
  2 25  1  0  0  0
  2 90  1  0  0  0
  2 91  1  0  0  0
  3  4  1  0  0  0
  3 92  1  0  0  0
  3 93  1  0  0  0
  4  5  1  0  0  0
  4 94  1  0  0  0
  4 95  1  0  0  0
  5  6  1  0  0  0
  5 26  1  0  0  0
  5 96  1  0  0  0
  6 25  1  0  0  0
  6 97  1  0  0  0
  6 98  1  0  0  0
  7  8  2  0  0  0
  7 26  1  0  0  0
  7 29  1  0  0  0
  8  9  1  0  0  0
  8 22  1  0  0  0
  9 10  1  0  0  0
  9 27  2  0  0  0
 10 11  2  0  0  0
 10 15  1  0  0  0
 11 12  1  0  0  0
 11 99  1  0  0  0
 12 13  2  0  0  0
 12100  1  0  0  0
 13 14  1  0  0  0
 13 31  1  0  0  0
 14 15  2  0  0  0
 14101  1  0  0  0
 15102  1  0  0  0
 16 17  2  0  0  0
 16 21  1  0  0  0
 16 31  1  0  0  0
 17 18  1  0  0  0
 17103  1  0  0  0
 18 19  2  0  0  0
 18104  1  0  0  0
 19 20  1  0  0  0
 19 24  1  0  0  0
 20 21  2  0  0  0
 20105  1  0  0  0
 21 23  1  0  0  0
 22 28  1  0  0  0
 22 32  2  0  0  0
 26 27  1  0  0  0
 28106  1  0  0  0
 28107  1  0  0  0
 29108  1  0  0  0
 29109  1  0  0  0
 33 34  1  0  0  0
 33 66  1  0  0  0
 33 70  2  0  0  0
 34 36  1  0  0  0
 34 59  1  0  0  0
 34110  1  0  0  0
 35 44  2  0  0  0
 35 45  1  0  0  0
 35 68  1  0  0  0
 36 56  1  0  0  0
 36111  1  0  0  0
 37 39  1  0  0  0
 37 47  1  0  0  0
 37 66  1  0  0  0
 37112  1  0  0  0
 38 43  2  0  0  0
 38 46  1  0  0  0
 38 47  1  0  0  0
 39 64  1  0  0  0
 39 67  2  0  0  0
 40 52  1  0  0  0
 40 53  2  0  0  0
 40 58  1  0  0  0
 41113  1  0  0  0
 41114  1  0  0  0
 41115  1  0  0  0
 41 48  1  0  0  0
 42 43  1  0  0  0
 42 66  1  0  0  0
 42116  1  0  0  0
 42117  1  0  0  0
 43 44  1  0  0  0
 44118  1  0  0  0
 45 46  2  0  0  0
 45119  1  0  0  0
 46120  1  0  0  0
 47121  1  0  0  0
 47122  1  0  0  0
 48 56  1  0  0  0
 48 65  1  0  0  0
 48123  1  0  0  0
 49 50  1  0  0  0
 49 53  1  0  0  0
 49 64  1  0  0  0
 49124  1  0  0  0
 50 51  1  0  0  0
 50125  1  0  0  0
 50126  1  0  0  0
 51 52  1  0  0  0
 51127  1  0  0  0
 51128  1  0  0  0
 52129  1  0  0  0
 52130  1  0  0  0
 53 54  1  0  0  0
 54 55  2  0  0  0
 54131  1  0  0  0
 55 57  1  0  0  0
 55132  1  0  0  0
 56 69  2  0  0  0
 57 58  2  0  0  0
 57133  1  0  0  0
 58134  1  0  0  0
 59 60  1  0  0  0
 59 61  1  0  0  0
 59 62  1  0  0  0
 60135  1  0  0  0
 60136  1  0  0  0
 60137  1  0  0  0
 61138  1  0  0  0
 61139  1  0  0  0
 61140  1  0  0  0
 62141  1  0  0  0
 62142  1  0  0  0
 62143  1  0  0  0
 63 65  1  0  0  0
 63144  1  0  0  0
 63145  1  0  0  0
 63146  1  0  0  0
 64147  1  0  0  0
 65148  1  0  0  0
 68 83  1  0  0  0
 71 73  2  0  0  0
 71 74  1  0  0  0
 71149  1  0  0  0
 72 75  2  0  0  0
 72 76  1  0  0  0
 72150  1  0  0  0
 73 75  1  0  0  0
 73 85  1  0  0  0
 74 76  2  0  0  0
 74 84  1  0  0  0
 75 86  1  0  0  0
 76 87  1  0  0  0
 77 78  1  0  0  0
 77 79  1  0  0  0
 77151  1  0  0  0
 77152  1  0  0  0
 78 80  1  0  0  0
 78153  1  0  0  0
 78154  1  0  0  0
 79 88  1  0  0  0
 79155  1  0  0  0
 79156  1  0  0  0
 80 88  1  0  0  0
 80157  1  0  0  0
 80158  1  0  0  0
 81 83  1  0  0  0
 81 89  1  0  0  0
 81159  1  0  0  0
 81160  1  0  0  0
 82 83  1  0  0  0
 82 89  1  0  0  0
 82161  1  0  0  0
 82162  1  0  0  0
 83163  1  0  0  0
 84164  1  0  0  0
 84165  1  0  0  0
 84166  1  0  0  0
 85167  1  0  0  0
 85168  1  0  0  0
 85 89  1  0  0  0
 86169  1  0  0  0
 86170  1  0  0  0
 86 88  1  0  0  0
 87171  1  0  0  0
 88172  1  0  0  0
 89173  1  0  0  0
M  CHG  2  88   1  89   1
M  ISO  4   1 100  68 101  83 101  87 100
M  END
> <chiral flag>
0

> <version>
0

> <s_m_source_file>
/data/baiqing/PycharmProjects/Reinvent-master-3.2/result/LINK_invent/BTK/process_docking_weight1_custom_product_contain_oxygen_bond_distance_aromatic_linkinvent_7_9_3/rearranged_h_0029.sdf

> <i_m_source_file_index>
75

> <r_mmod_Potential_Energy-OPLS-2005>
-86.0155944824219

> <r_mmod_Stretch_Energy-OPLS-2005>
118.756828308105

> <r_mmod_Bend_Energy-OPLS-2005>
231.292663574219

> <r_mmod_Torsional_Energy-OPLS-2005>
281.496276855469

> <r_mmod_Improper_Torsional_Energy-OPLS-2005>
6.73259401321411

> <r_mmod_Van_der_Waal_Energy-OPLS-2005>
136.22705078125

> <r_mmod_Electrostatic_Energy-OPLS-2005>
23.9603748321533

> <r_mmod_Solvation_Energy-OPLS-2005>
-963.106384277344

> <b_mmod_Minimization_Converged-OPLS-2005>
0

> <r_mmod_RMS_Derivative-OPLS-2005>
2.08620119094849

$$$$
75
                    3D
 Structure written by MMmdl.
156165  0  0  1  0            999 V2000
  -30.4955  -15.0360   20.4842 C   0  0  0  0  0  0
  -30.4415  -12.6586   19.5220 C   0  0  0  0  0  0
  -29.5361  -12.6326   18.2552 C   0  0  0  0  0  0
  -28.0520  -12.4222   18.6247 C   0  0  0  0  0  0
  -27.6382  -13.2751   19.8513 C   0  0  2  0  0  0
  -28.6739  -13.2748   21.0021 C   0  0  0  0  0  0
  -25.2485  -13.8231   20.5629 C   0  0  0  0  0  0
  -24.1789  -13.0477   20.9192 C   0  0  0  0  0  0
  -24.6453  -11.6972   20.8670 C   0  0  0  0  0  0
  -23.9109  -10.4367   21.0370 C   0  0  0  0  0  0
  -24.3664   -9.4326   21.9177 C   0  0  0  0  0  0
  -23.6413   -8.2296   22.0745 C   0  0  0  0  0  0
  -22.4390   -8.0325   21.3517 C   0  0  0  0  0  0
  -21.9970   -9.0312   20.4633 C   0  0  0  0  0  0
  -22.7248  -10.2238   20.3064 C   0  0  0  0  0  0
  -21.6930   -6.0795   22.5267 C   0  0  0  0  0  0
  -21.4037   -6.5690   23.8207 C   0  0  0  0  0  0
  -21.3620   -5.6796   24.9144 C   0  0  0  0  0  0
  -21.6066   -4.3093   24.7177 C   0  0  0  0  0  0
  -21.8811   -3.8196   23.4285 C   0  0  0  0  0  0
  -21.9196   -4.7016   22.3346 C   0  0  0  0  0  0
  -22.7771  -13.5301   21.1833 C   0  0  0  0  0  0
  -22.1675   -4.2210   21.0907 F   0  0  0  0  0  0
  -21.5641   -3.4571   25.7687 F   0  0  0  0  0  0
  -29.9492  -13.7373   20.4465 N   0  0  0  0  0  0
  -26.2954  -12.9515   20.3200 N   0  0  0  0  0  0
  -25.9415  -11.6639   20.5630 N   0  0  0  0  0  0
  -22.0339  -12.8360   22.0381 N   0  0  0  0  0  0
  -25.4043  -15.1946   20.3854 N   0  0  0  0  0  0
  -31.6523  -15.1329   20.0531 O   0  0  0  0  0  0
  -21.6679   -6.8965   21.4261 O   0  0  0  0  0  0
  -22.3472  -14.5569   20.6601 O   0  0  0  0  0  0
  -24.6465  -31.8422   23.1751 C   0  0  0  0  0  0
  -25.9198  -32.4666   23.8247 C   0  0  1  0  0  0
  -27.2355  -27.0701   20.2657 C   0  0  0  0  0  0
  -25.5958  -33.8489   24.2191 N   0  0  0  0  0  0
  -23.4587  -30.4620   21.5097 C   0  0  2  0  0  0
  -24.9295  -28.8648   20.1165 C   0  0  0  0  0  0
  -22.7597  -29.4603   22.4627 C   0  0  0  0  0  0
  -18.0317  -28.1340   22.8498 C   0  0  0  0  0  0
  -24.1509  -36.7245   23.2676 C   0  0  0  0  0  0
  -26.0177  -30.7097   21.3885 C   0  0  0  0  0  0
  -26.0963  -29.3047   20.7526 C   0  0  0  0  0  0
  -27.2487  -28.4296   20.8068 C   0  0  0  0  0  0
  -26.0595  -26.7470   19.5553 C   0  0  0  0  0  0
  -24.9340  -27.6044   19.4896 C   0  0  0  0  0  0
  -23.7032  -29.7760   20.1357 C   0  0  0  0  0  0
  -25.4120  -36.3029   24.0344 C   0  0  1  0  0  0
  -20.5954  -28.3772   23.1120 C   0  0  2  0  0  0
  -20.6792  -26.9431   22.5404 C   0  0  0  0  0  0
  -19.5782  -26.6355   21.5199 C   0  0  0  0  0  0
  -18.1948  -26.7881   22.1612 C   0  0  0  0  0  0
  -19.1569  -28.8844   23.2834 C   0  0  0  0  0  0
  -18.9503  -30.1405   23.8900 C   0  0  0  0  0  0
  -17.6519  -30.6581   24.0539 C   0  0  0  0  0  0
  -25.9085  -34.9404   23.5088 C   0  0  0  0  0  0
  -16.5397  -29.9094   23.6323 C   0  0  0  0  0  0
  -16.7297  -28.6473   23.0405 C   0  0  0  0  0  0
  -26.4452  -31.6510   25.0706 C   0  0  0  0  0  0
  -25.3615  -31.3692   26.1385 C   0  0  0  0  0  0
  -27.0394  -30.2926   24.6335 C   0  0  0  0  0  0
  -27.6026  -32.4196   25.7517 C   0  0  0  0  0  0
  -27.5570  -37.1779   24.8441 C   0  0  0  0  0  0
  -21.4248  -29.3082   22.3409 N   0  0  0  0  0  0
  -26.4271  -37.3734   23.9383 N   0  0  0  0  0  0
  -24.7264  -31.0279   22.0745 N   0  0  0  0  0  0
  -23.4233  -28.8174   23.2809 O   0  0  0  0  0  0
  -28.2748  -26.0503   20.3505 O   0  0  0  0  0  0
  -26.5723  -34.8937   22.4688 O   0  0  0  0  0  0
  -23.5565  -32.1288   23.6921 O   0  0  0  0  0  0
  -28.9612  -18.9471   18.3780 C   0  0  0  0  0  0
  -28.7736  -20.1648   19.0851 C   0  0  0  0  0  0
  -29.3674  -17.7490   19.0110 C   0  0  0  0  0  0
  -29.3564  -18.9896   21.1095 C   0  0  0  0  0  0
  -28.9962  -20.3161   20.4714 C   0  0  0  0  0  0
  -29.5641  -17.6547   20.4052 C   0  0  0  0  0  0
  -28.1363  -23.1321   23.0425 C   0  0  0  0  0  0
  -28.3783  -24.5283   22.3649 C   0  0  0  0  0  0
  -28.9324  -21.9062   22.4831 C   0  0  0  0  0  0
  -28.8447  -23.1252   20.2855 C   0  0  0  0  0  0
  -28.0613  -24.5477   20.8444 C   0  0  2  0  0  0
  -28.7701  -21.7214   21.0279 N   0  0  0  0  0  0
  -29.7789  -16.2056   20.9480 N   0  0  0  0  0  0
  -31.4772  -12.8261   19.2249 H   0  0  0  0  0  0
  -30.4487  -11.6863   20.0198 H   0  0  0  0  0  0
  -29.8690  -11.8849   17.5341 H   0  0  0  0  0  0
  -29.6397  -13.5888   17.7377 H   0  0  0  0  0  0
  -27.8733  -11.3632   18.8056 H   0  0  0  0  0  0
  -27.4248  -12.6888   17.7698 H   0  0  0  0  0  0
  -27.6148  -14.2999   19.4820 H   0  0  0  0  0  0
  -28.7853  -12.2878   21.4518 H   0  0  0  0  0  0
  -28.3558  -13.9540   21.7954 H   0  0  0  0  0  0
  -25.2790   -9.5959   22.4719 H   0  0  0  0  0  0
  -24.0217   -7.4728   22.7471 H   0  0  0  0  0  0
  -21.0880   -8.8864   19.8919 H   0  0  0  0  0  0
  -22.3674  -10.9830   19.6198 H   0  0  0  0  0  0
  -21.2033   -7.6195   23.9784 H   0  0  0  0  0  0
  -21.1441   -6.0462   25.9051 H   0  0  0  0  0  0
  -22.0603   -2.7673   23.2702 H   0  0  0  0  0  0
  -22.3930  -12.0184   22.5065 H   0  0  0  0  0  0
  -21.0846  -13.1426   22.2275 H   0  0  0  0  0  0
  -24.6206  -15.8315   20.4602 H   0  0  0  0  0  0
  -26.2541  -15.6381   20.0628 H   0  0  0  0  0  0
  -26.7353  -32.5299   23.1093 H   0  0  0  0  0  0
  -24.9865  -33.9610   25.0170 H   0  0  0  0  0  0
  -22.7588  -31.2860   21.3429 H   0  0  0  0  0  0
  -23.3803  -35.9549   23.3281 H   0  0  0  0  0  0
  -24.3607  -36.8932   22.2109 H   0  0  0  0  0  0
  -23.7264  -37.6430   23.6712 H   0  0  0  0  0  0
  -26.1877  -31.4567   20.6125 H   0  0  0  0  0  0
  -26.8746  -30.7613   22.0458 H   0  0  0  0  0  0
  -28.1278  -28.7805   21.3318 H   0  0  0  0  0  0
  -26.0051  -25.7813   19.0720 H   0  0  0  0  0  0
  -24.0613  -27.2645   18.9541 H   0  0  0  0  0  0
  -23.8491  -30.5478   19.3776 H   0  0  0  0  0  0
  -22.8177  -29.2235   19.8205 H   0  0  0  0  0  0
  -25.1307  -36.1861   25.0828 H   0  0  0  0  0  0
  -21.0111  -28.3420   24.1218 H   0  0  0  0  0  0
  -20.5597  -26.2413   23.3662 H   0  0  0  0  0  0
  -21.6660  -26.7361   22.1256 H   0  0  0  0  0  0
  -19.6965  -25.6264   21.1229 H   0  0  0  0  0  0
  -19.6706  -27.3155   20.6702 H   0  0  0  0  0  0
  -17.4236  -26.6671   21.3976 H   0  0  0  0  0  0
  -18.0322  -25.9966   22.8942 H   0  0  0  0  0  0
  -19.7984  -30.7133   24.2323 H   0  0  0  0  0  0
  -17.5105  -31.6278   24.5103 H   0  0  0  0  0  0
  -15.5374  -30.3023   23.7569 H   0  0  0  0  0  0
  -15.8706  -28.0747   22.7175 H   0  0  0  0  0  0
  -24.5800  -30.7049   25.7639 H   0  0  0  0  0  0
  -24.8827  -32.2893   26.4748 H   0  0  0  0  0  0
  -25.7890  -30.8876   27.0200 H   0  0  0  0  0  0
  -26.3096  -29.6566   24.1319 H   0  0  0  0  0  0
  -27.3982  -29.7271   25.4942 H   0  0  0  0  0  0
  -27.8962  -30.4183   23.9723 H   0  0  0  0  0  0
  -27.2668  -33.3472   26.2140 H   0  0  0  0  0  0
  -28.3837  -32.6726   25.0343 H   0  0  0  0  0  0
  -28.0673  -31.8260   26.5398 H   0  0  0  0  0  0
  -28.2545  -38.0130   24.7521 H   0  0  0  0  0  0
  -28.1109  -36.2642   24.6163 H   0  0  0  0  0  0
  -27.2303  -37.1345   25.8865 H   0  0  0  0  0  0
  -20.9341  -29.8875   21.6719 H   0  0  0  0  0  0
  -26.0143  -38.2803   24.1361 H   0  0  0  0  0  0
  -28.7802  -18.9226   17.3096 H   0  0  0  0  0  0
  -28.4229  -21.0065   18.5079 H   0  0  0  0  0  0
  -29.4677  -16.8641   18.3919 H   0  0  0  0  0  0
  -29.4627  -18.9752   22.1874 H   0  0  0  0  0  0
  -27.0687  -22.8817   23.0406 H   0  0  0  0  0  0
  -28.3831  -23.2210   24.1070 H   0  0  0  0  0  0
  -29.4092  -24.8610   22.5185 H   0  0  0  0  0  0
  -27.7553  -25.2592   22.8865 H   0  0  0  0  0  0
  -28.5830  -21.0247   23.0313 H   0  0  0  0  0  0
  -29.9949  -21.9900   22.7164 H   0  0  0  0  0  0
  -29.9175  -23.3573   20.2885 H   0  0  0  0  0  0
  -28.5899  -22.9833   19.2315 H   0  0  0  0  0  0
  -26.9868  -24.3544   20.7633 H   0  0  0  0  0  0
  -29.1274  -15.9711   21.6851 H   0  0  0  0  0  0
  1 25  1  0  0  0
  1 30  2  0  0  0
  1 83  1  0  0  0
  2  3  1  0  0  0
  2 25  1  0  0  0
  2 84  1  0  0  0
  2 85  1  0  0  0
  3  4  1  0  0  0
  3 86  1  0  0  0
  3 87  1  0  0  0
  4  5  1  0  0  0
  4 88  1  0  0  0
  4 89  1  0  0  0
  5  6  1  0  0  0
  5 26  1  0  0  0
  5 90  1  0  0  0
  6 25  1  0  0  0
  6 91  1  0  0  0
  6 92  1  0  0  0
  7  8  2  0  0  0
  7 26  1  0  0  0
  7 29  1  0  0  0
  8  9  1  0  0  0
  8 22  1  0  0  0
  9 10  1  0  0  0
  9 27  2  0  0  0
 10 11  2  0  0  0
 10 15  1  0  0  0
 11 12  1  0  0  0
 11 93  1  0  0  0
 12 13  2  0  0  0
 12 94  1  0  0  0
 13 14  1  0  0  0
 13 31  1  0  0  0
 14 15  2  0  0  0
 14 95  1  0  0  0
 15 96  1  0  0  0
 16 17  2  0  0  0
 16 21  1  0  0  0
 16 31  1  0  0  0
 17 18  1  0  0  0
 17 97  1  0  0  0
 18 19  2  0  0  0
 18 98  1  0  0  0
 19 20  1  0  0  0
 19 24  1  0  0  0
 20 21  2  0  0  0
 20 99  1  0  0  0
 21 23  1  0  0  0
 22 28  1  0  0  0
 22 32  2  0  0  0
 26 27  1  0  0  0
 28100  1  0  0  0
 28101  1  0  0  0
 29102  1  0  0  0
 29103  1  0  0  0
 33 34  1  0  0  0
 33 66  1  0  0  0
 33 70  2  0  0  0
 34 36  1  0  0  0
 34 59  1  0  0  0
 34104  1  0  0  0
 35 44  2  0  0  0
 35 45  1  0  0  0
 35 68  1  0  0  0
 36 56  1  0  0  0
 36105  1  0  0  0
 37 39  1  0  0  0
 37 47  1  0  0  0
 37 66  1  0  0  0
 37106  1  0  0  0
 38 43  2  0  0  0
 38 46  1  0  0  0
 38 47  1  0  0  0
 39 64  1  0  0  0
 39 67  2  0  0  0
 40 52  1  0  0  0
 40 53  2  0  0  0
 40 58  1  0  0  0
 41107  1  0  0  0
 41108  1  0  0  0
 41109  1  0  0  0
 41 48  1  0  0  0
 42 43  1  0  0  0
 42 66  1  0  0  0
 42110  1  0  0  0
 42111  1  0  0  0
 43 44  1  0  0  0
 44112  1  0  0  0
 45 46  2  0  0  0
 45113  1  0  0  0
 46114  1  0  0  0
 47115  1  0  0  0
 47116  1  0  0  0
 48 56  1  0  0  0
 48 65  1  0  0  0
 48117  1  0  0  0
 49 50  1  0  0  0
 49 53  1  0  0  0
 49 64  1  0  0  0
 49118  1  0  0  0
 50 51  1  0  0  0
 50119  1  0  0  0
 50120  1  0  0  0
 51 52  1  0  0  0
 51121  1  0  0  0
 51122  1  0  0  0
 52123  1  0  0  0
 52124  1  0  0  0
 53 54  1  0  0  0
 54 55  2  0  0  0
 54125  1  0  0  0
 55 57  1  0  0  0
 55126  1  0  0  0
 56 69  2  0  0  0
 57 58  2  0  0  0
 57127  1  0  0  0
 58128  1  0  0  0
 59 60  1  0  0  0
 59 61  1  0  0  0
 59 62  1  0  0  0
 60129  1  0  0  0
 60130  1  0  0  0
 60131  1  0  0  0
 61132  1  0  0  0
 61133  1  0  0  0
 61134  1  0  0  0
 62135  1  0  0  0
 62136  1  0  0  0
 62137  1  0  0  0
 63 65  1  0  0  0
 63138  1  0  0  0
 63139  1  0  0  0
 63140  1  0  0  0
 64141  1  0  0  0
 65142  1  0  0  0
 68 81  1  0  0  0
 71 72  2  0  0  0
 71 73  1  0  0  0
 71143  1  0  0  0
 72 75  1  0  0  0
 72144  1  0  0  0
 73 76  2  0  0  0
 73145  1  0  0  0
 74 75  2  0  0  0
 74 76  1  0  0  0
 74146  1  0  0  0
 75 82  1  0  0  0
 76 83  1  0  0  0
 77 78  1  0  0  0
 77 79  1  0  0  0
 77147  1  0  0  0
 77148  1  0  0  0
 78 81  1  0  0  0
 78149  1  0  0  0
 78150  1  0  0  0
 79 82  1  0  0  0
 79151  1  0  0  0
 79152  1  0  0  0
 80 81  1  0  0  0
 80 82  1  0  0  0
 80153  1  0  0  0
 80154  1  0  0  0
 81155  1  0  0  0
 83156  1  0  0  0
M  ISO  4   1 100  68 101  81 101  83 100
M  END
> <chiral flag>
0

> <version>
0

> <s_m_source_file>
/data/baiqing/PycharmProjects/Reinvent-master-3.2/result/LINK_invent/BTK/process_docking_weight1_custom_product_contain_oxygen_bond_distance_aromatic_linkinvent_7_9_3/rearranged_h_0029.sdf

> <i_m_source_file_index>
76

> <r_mmod_Potential_Energy-OPLS-2005>
764.965148925781

> <r_mmod_Stretch_Energy-OPLS-2005>
361.261688232422

> <r_mmod_Bend_Energy-OPLS-2005>
302.292602539062

> <r_mmod_Torsional_Energy-OPLS-2005>
281.629547119141

> <r_mmod_Improper_Torsional_Energy-OPLS-2005>
4.87366676330566

> <r_mmod_Van_der_Waal_Energy-OPLS-2005>
124.074020385742

> <r_mmod_Electrostatic_Energy-OPLS-2005>
-341.754089355469

> <r_mmod_Solvation_Energy-OPLS-2005>
-228.777084350586

> <b_mmod_Minimization_Converged-OPLS-2005>
0

> <r_mmod_RMS_Derivative-OPLS-2005>
12.1529541015625

$$$$
76
                    3D
 Structure written by MMmdl.
156165  0  0  1  0            999 V2000
  -30.6842  -14.6187   20.4773 C   0  0  0  0  0  0
  -30.4142  -12.3775   19.4607 C   0  0  0  0  0  0
  -29.4986  -12.4904   18.2247 C   0  0  0  0  0  0
  -28.0226  -12.3397   18.6381 C   0  0  0  0  0  0
  -27.6450  -13.2283   19.8545 C   0  0  2  0  0  0
  -28.6899  -13.1316   20.9883 C   0  0  0  0  0  0
  -25.2519  -13.8201   20.5696 C   0  0  0  0  0  0
  -24.1805  -13.0446   20.9201 C   0  0  0  0  0  0
  -24.6393  -11.6923   20.8751 C   0  0  0  0  0  0
  -23.9072  -10.4297   21.0410 C   0  0  0  0  0  0
  -24.3623   -9.4210   21.9186 C   0  0  0  0  0  0
  -23.6297   -8.2246   22.0755 C   0  0  0  0  0  0
  -22.4279   -8.0284   21.3546 C   0  0  0  0  0  0
  -21.9917   -9.0257   20.4647 C   0  0  0  0  0  0
  -22.7246  -10.2137   20.3057 C   0  0  0  0  0  0
  -21.6854   -6.0738   22.5280 C   0  0  0  0  0  0
  -21.4015   -6.5642   23.8212 C   0  0  0  0  0  0
  -21.3659   -5.6794   24.9174 C   0  0  0  0  0  0
  -21.6044   -4.3057   24.7224 C   0  0  0  0  0  0
  -21.8819   -3.8149   23.4345 C   0  0  0  0  0  0
  -21.9192   -4.6966   22.3403 C   0  0  0  0  0  0
  -22.7824  -13.5226   21.1862 C   0  0  0  0  0  0
  -22.1661   -4.2152   21.0980 F   0  0  0  0  0  0
  -21.5627   -3.4541   25.7737 F   0  0  0  0  0  0
  -30.0019  -13.4345   20.4069 N   0  0  0  0  0  0
  -26.2951  -12.9408   20.3307 N   0  0  0  0  0  0
  -25.9324  -11.6550   20.5770 N   0  0  0  0  0  0
  -22.0475  -12.8211   22.0418 N   0  0  0  0  0  0
  -25.4212  -15.1924   20.4110 N   0  0  0  0  0  0
  -31.8703  -14.6777   20.1462 O   0  0  0  0  0  0
  -21.6641   -6.8882   21.4242 O   0  0  0  0  0  0
  -22.3507  -14.5532   20.6710 O   0  0  0  0  0  0
  -24.6241  -31.8606   23.2042 C   0  0  0  0  0  0
  -25.9098  -32.4785   23.8361 C   0  0  1  0  0  0
  -27.2169  -27.3361   20.1213 C   0  0  0  0  0  0
  -25.5922  -33.8585   24.2288 N   0  0  0  0  0  0
  -23.4168  -30.4852   21.5460 C   0  0  2  0  0  0
  -24.8629  -28.9425   20.1101 C   0  0  0  0  0  0
  -22.7463  -29.4631   22.4941 C   0  0  0  0  0  0
  -18.0282  -28.1388   22.8484 C   0  0  0  0  0  0
  -24.1487  -36.7294   23.2640 C   0  0  0  0  0  0
  -25.9558  -30.7980   21.3719 C   0  0  0  0  0  0
  -26.0305  -29.4268   20.7147 C   0  0  0  0  0  0
  -27.2145  -28.6346   20.7099 C   0  0  0  0  0  0
  -26.0349  -26.9025   19.4849 C   0  0  0  0  0  0
  -24.8657  -27.6854   19.4855 C   0  0  0  0  0  0
  -23.6303  -29.8208   20.1605 C   0  0  0  0  0  0
  -25.4111  -36.3086   24.0333 C   0  0  1  0  0  0
  -20.5881  -28.3689   23.1288 C   0  0  2  0  0  0
  -20.6773  -26.9414   22.5411 C   0  0  0  0  0  0
  -19.5749  -26.6385   21.5214 C   0  0  0  0  0  0
  -18.1926  -26.7932   22.1623 C   0  0  0  0  0  0
  -19.1535  -28.8853   23.2882 C   0  0  0  0  0  0
  -18.9462  -30.1454   23.8899 C   0  0  0  0  0  0
  -17.6465  -30.6590   24.0564 C   0  0  0  0  0  0
  -25.9048  -34.9454   23.5110 C   0  0  0  0  0  0
  -16.5353  -29.9090   23.6334 C   0  0  0  0  0  0
  -16.7271  -28.6509   23.0351 C   0  0  0  0  0  0
  -26.4492  -31.6589   25.0723 C   0  0  0  0  0  0
  -25.3733  -31.3721   26.1457 C   0  0  0  0  0  0
  -27.0336  -30.3017   24.6163 C   0  0  0  0  0  0
  -27.6052  -32.4321   25.7493 C   0  0  0  0  0  0
  -27.5578  -37.1800   24.8466 C   0  0  0  0  0  0
  -21.4179  -29.3043   22.3683 N   0  0  0  0  0  0
  -26.4289  -37.3780   23.9411 N   0  0  0  0  0  0
  -24.6843  -31.0640   22.0981 N   0  0  0  0  0  0
  -23.4193  -28.8170   23.3014 O   0  0  0  0  0  0
  -28.3225  -26.4830   20.1523 O   0  0  0  0  0  0
  -26.5616  -34.8917   22.4674 O   0  0  0  0  0  0
  -23.5411  -32.1393   23.7386 O   0  0  0  0  0  0
  -29.4806  -19.0981   21.7447 C   0  0  0  0  0  0
  -29.0929  -20.4685   21.8058 C   0  0  0  0  0  0
  -29.7981  -19.3275   19.3806 C   0  0  0  0  0  0
  -29.8814  -18.4983   20.5301 C   0  0  0  0  0  0
  -29.0795  -21.3398   20.6728 C   0  0  0  0  0  0
  -29.4125  -20.7015   19.4340 C   0  0  0  0  0  0
  -28.7559  -24.8789   21.9912 C   0  0  0  0  0  0
  -28.7535  -23.3489   22.1825 C   0  0  0  0  0  0
  -28.6195  -23.8472   19.8574 C   0  0  0  0  0  0
  -28.0856  -25.1065   20.6380 C   0  0  2  0  0  0
  -30.6350  -17.1239   20.4765 C   0  0  0  0  0  0
  -28.7719  -22.7467   20.8489 N   0  0  0  0  0  0
  -29.9921  -15.7833   20.6879 N   0  0  0  0  0  0
  -29.4307  -21.5640   17.9343 Cl  0  0  0  0  0  0
  -31.4604  -12.4613   19.1617 H   0  0  0  0  0  0
  -30.3163  -11.3952   19.9253 H   0  0  0  0  0  0
  -29.7600  -11.7282   17.4893 H   0  0  0  0  0  0
  -29.6501  -13.4542   17.7360 H   0  0  0  0  0  0
  -27.8578  -11.2896   18.8825 H   0  0  0  0  0  0
  -27.3688  -12.5594   17.7932 H   0  0  0  0  0  0
  -27.6515  -14.2562   19.4912 H   0  0  0  0  0  0
  -28.6946  -12.1336   21.4289 H   0  0  0  0  0  0
  -28.4489  -13.8230   21.7975 H   0  0  0  0  0  0
  -25.2767   -9.5684   22.4761 H   0  0  0  0  0  0
  -24.0004   -7.4637   22.7474 H   0  0  0  0  0  0
  -21.0849   -8.8778   19.8952 H   0  0  0  0  0  0
  -22.3707  -10.9676   19.6166 H   0  0  0  0  0  0
  -21.2009   -7.6150   23.9716 H   0  0  0  0  0  0
  -21.1480   -6.0525   25.9076 H   0  0  0  0  0  0
  -22.0598   -2.7612   23.2845 H   0  0  0  0  0  0
  -22.4096  -11.9870   22.4797 H   0  0  0  0  0  0
  -21.1093  -13.1230   22.2632 H   0  0  0  0  0  0
  -24.6543  -15.8465   20.5227 H   0  0  0  0  0  0
  -26.2702  -15.6332   20.0808 H   0  0  0  0  0  0
  -26.7161  -32.5459   23.1106 H   0  0  0  0  0  0
  -25.0075  -33.9733   25.0437 H   0  0  0  0  0  0
  -22.7101  -31.3055   21.4038 H   0  0  0  0  0  0
  -23.3750  -35.9628   23.3310 H   0  0  0  0  0  0
  -24.3573  -36.8909   22.2052 H   0  0  0  0  0  0
  -23.7245  -37.6500   23.6653 H   0  0  0  0  0  0
  -26.0842  -31.5619   20.6039 H   0  0  0  0  0  0
  -26.8372  -30.8463   21.9996 H   0  0  0  0  0  0
  -28.1112  -28.9977   21.1924 H   0  0  0  0  0  0
  -26.0068  -25.9390   18.9960 H   0  0  0  0  0  0
  -23.9721  -27.3112   19.0051 H   0  0  0  0  0  0
  -23.7477  -30.5973   19.4040 H   0  0  0  0  0  0
  -22.7503  -29.2497   19.8587 H   0  0  0  0  0  0
  -25.1291  -36.1940   25.0827 H   0  0  0  0  0  0
  -20.9970  -28.3261   24.1410 H   0  0  0  0  0  0
  -20.5683  -26.2295   23.3607 H   0  0  0  0  0  0
  -21.6640  -26.7449   22.1199 H   0  0  0  0  0  0
  -19.6915  -25.6298   21.1239 H   0  0  0  0  0  0
  -19.6691  -27.3198   20.6749 H   0  0  0  0  0  0
  -17.4198  -26.6679   21.4025 H   0  0  0  0  0  0
  -18.0326  -26.0075   22.9022 H   0  0  0  0  0  0
  -19.7939  -30.7265   24.2269 H   0  0  0  0  0  0
  -17.5023  -31.6272   24.5163 H   0  0  0  0  0  0
  -15.5355  -30.2996   23.7661 H   0  0  0  0  0  0
  -15.8668  -28.0831   22.7069 H   0  0  0  0  0  0
  -24.5910  -30.7067   25.7792 H   0  0  0  0  0  0
  -24.8922  -32.2885   26.4882 H   0  0  0  0  0  0
  -25.8065  -30.8903   27.0232 H   0  0  0  0  0  0
  -26.2907  -29.6766   24.1196 H   0  0  0  0  0  0
  -27.4058  -29.7272   25.4656 H   0  0  0  0  0  0
  -27.8761  -30.4315   23.9367 H   0  0  0  0  0  0
  -27.2665  -33.3621   26.2068 H   0  0  0  0  0  0
  -28.3863  -32.6882   25.0324 H   0  0  0  0  0  0
  -28.0716  -31.8450   26.5414 H   0  0  0  0  0  0
  -28.2596  -38.0096   24.7510 H   0  0  0  0  0  0
  -28.1071  -36.2626   24.6293 H   0  0  0  0  0  0
  -27.2292  -37.1455   25.8868 H   0  0  0  0  0  0
  -20.9351  -29.8770   21.6900 H   0  0  0  0  0  0
  -26.0174  -38.2856   24.1414 H   0  0  0  0  0  0
  -29.5384  -18.5284   22.6619 H   0  0  0  0  0  0
  -28.8361  -20.8492   22.7827 H   0  0  0  0  0  0
  -30.1059  -18.9261   18.4258 H   0  0  0  0  0  0
  -29.7839  -25.2420   21.9542 H   0  0  0  0  0  0
  -28.2519  -25.4016   22.8048 H   0  0  0  0  0  0
  -27.8467  -23.0375   22.7034 H   0  0  0  0  0  0
  -29.6104  -23.0376   22.7825 H   0  0  0  0  0  0
  -29.5902  -24.0644   19.4099 H   0  0  0  0  0  0
  -27.9314  -23.5756   19.0561 H   0  0  0  0  0  0
  -27.0206  -24.9386   20.8058 H   0  0  0  0  0  0
  -31.4443  -17.1990   21.2050 H   0  0  0  0  0  0
  -31.1409  -17.0897   19.5094 H   0  0  0  0  0  0
  -29.0070  -15.7417   20.8996 H   0  0  0  0  0  0
  1 25  1  0  0  0
  1 30  2  0  0  0
  1 83  1  0  0  0
  2  3  1  0  0  0
  2 25  1  0  0  0
  2 85  1  0  0  0
  2 86  1  0  0  0
  3  4  1  0  0  0
  3 87  1  0  0  0
  3 88  1  0  0  0
  4  5  1  0  0  0
  4 89  1  0  0  0
  4 90  1  0  0  0
  5  6  1  0  0  0
  5 26  1  0  0  0
  5 91  1  0  0  0
  6 25  1  0  0  0
  6 92  1  0  0  0
  6 93  1  0  0  0
  7  8  2  0  0  0
  7 26  1  0  0  0
  7 29  1  0  0  0
  8  9  1  0  0  0
  8 22  1  0  0  0
  9 10  1  0  0  0
  9 27  2  0  0  0
 10 11  2  0  0  0
 10 15  1  0  0  0
 11 12  1  0  0  0
 11 94  1  0  0  0
 12 13  2  0  0  0
 12 95  1  0  0  0
 13 14  1  0  0  0
 13 31  1  0  0  0
 14 15  2  0  0  0
 14 96  1  0  0  0
 15 97  1  0  0  0
 16 17  2  0  0  0
 16 21  1  0  0  0
 16 31  1  0  0  0
 17 18  1  0  0  0
 17 98  1  0  0  0
 18 19  2  0  0  0
 18 99  1  0  0  0
 19 20  1  0  0  0
 19 24  1  0  0  0
 20 21  2  0  0  0
 20100  1  0  0  0
 21 23  1  0  0  0
 22 28  1  0  0  0
 22 32  2  0  0  0
 26 27  1  0  0  0
 28101  1  0  0  0
 28102  1  0  0  0
 29103  1  0  0  0
 29104  1  0  0  0
 33 34  1  0  0  0
 33 66  1  0  0  0
 33 70  2  0  0  0
 34 36  1  0  0  0
 34 59  1  0  0  0
 34105  1  0  0  0
 35 44  2  0  0  0
 35 45  1  0  0  0
 35 68  1  0  0  0
 36 56  1  0  0  0
 36106  1  0  0  0
 37 39  1  0  0  0
 37 47  1  0  0  0
 37 66  1  0  0  0
 37107  1  0  0  0
 38 43  2  0  0  0
 38 46  1  0  0  0
 38 47  1  0  0  0
 39 64  1  0  0  0
 39 67  2  0  0  0
 40 52  1  0  0  0
 40 53  2  0  0  0
 40 58  1  0  0  0
 41108  1  0  0  0
 41109  1  0  0  0
 41110  1  0  0  0
 41 48  1  0  0  0
 42 43  1  0  0  0
 42 66  1  0  0  0
 42111  1  0  0  0
 42112  1  0  0  0
 43 44  1  0  0  0
 44113  1  0  0  0
 45 46  2  0  0  0
 45114  1  0  0  0
 46115  1  0  0  0
 47116  1  0  0  0
 47117  1  0  0  0
 48 56  1  0  0  0
 48 65  1  0  0  0
 48118  1  0  0  0
 49 50  1  0  0  0
 49 53  1  0  0  0
 49 64  1  0  0  0
 49119  1  0  0  0
 50 51  1  0  0  0
 50120  1  0  0  0
 50121  1  0  0  0
 51 52  1  0  0  0
 51122  1  0  0  0
 51123  1  0  0  0
 52124  1  0  0  0
 52125  1  0  0  0
 53 54  1  0  0  0
 54 55  2  0  0  0
 54126  1  0  0  0
 55 57  1  0  0  0
 55127  1  0  0  0
 56 69  2  0  0  0
 57 58  2  0  0  0
 57128  1  0  0  0
 58129  1  0  0  0
 59 60  1  0  0  0
 59 61  1  0  0  0
 59 62  1  0  0  0
 60130  1  0  0  0
 60131  1  0  0  0
 60132  1  0  0  0
 61133  1  0  0  0
 61134  1  0  0  0
 61135  1  0  0  0
 62136  1  0  0  0
 62137  1  0  0  0
 62138  1  0  0  0
 63 65  1  0  0  0
 63139  1  0  0  0
 63140  1  0  0  0
 63141  1  0  0  0
 64142  1  0  0  0
 65143  1  0  0  0
 68 80  1  0  0  0
 71 72  2  0  0  0
 71 74  1  0  0  0
 71144  1  0  0  0
 72 75  1  0  0  0
 72145  1  0  0  0
 73 74  2  0  0  0
 73 76  1  0  0  0
 73146  1  0  0  0
 74 81  1  0  0  0
 75 76  2  0  0  0
 75 82  1  0  0  0
 76 84  1  0  0  0
 77 78  1  0  0  0
 77 80  1  0  0  0
 77147  1  0  0  0
 77148  1  0  0  0
 78 82  1  0  0  0
 78149  1  0  0  0
 78150  1  0  0  0
 79 80  1  0  0  0
 79 82  1  0  0  0
 79151  1  0  0  0
 79152  1  0  0  0
 80153  1  0  0  0
 81 83  1  0  0  0
 81154  1  0  0  0
 81155  1  0  0  0
 83156  1  0  0  0
M  ISO  4   1 100  68 101  80 101  83 100
M  END
> <chiral flag>
0

> <version>
0

> <s_m_source_file>
/data/baiqing/PycharmProjects/Reinvent-master-3.2/result/LINK_invent/BTK/process_docking_weight1_custom_product_contain_oxygen_bond_distance_aromatic_linkinvent_7_9_3/rearranged_h_0029.sdf

> <i_m_source_file_index>
77

> <r_mmod_Potential_Energy-OPLS-2005>
136.750427246094

> <r_mmod_Stretch_Energy-OPLS-2005>
72.2005462646484

> <r_mmod_Bend_Energy-OPLS-2005>
192.941513061523

> <r_mmod_Torsional_Energy-OPLS-2005>
270.278686523438

> <r_mmod_Improper_Torsional_Energy-OPLS-2005>
7.15917730331421

> <r_mmod_Van_der_Waal_Energy-OPLS-2005>
150.175430297852

> <r_mmod_Electrostatic_Energy-OPLS-2005>
-379.796447753906

> <r_mmod_Solvation_Energy-OPLS-2005>
-222.969512939453

> <b_mmod_Minimization_Converged-OPLS-2005>
0

> <r_mmod_RMS_Derivative-OPLS-2005>
0.488329172134399

$$$$
77
                    3D
 Structure written by MMmdl.
156164  0  0  1  0            999 V2000
  -30.6440  -14.5269   20.5455 C   0  0  0  0  0  0
  -30.4327  -12.3397   19.4127 C   0  0  0  0  0  0
  -29.4927  -12.5060   18.1989 C   0  0  0  0  0  0
  -28.0135  -12.3649   18.6154 C   0  0  0  0  0  0
  -27.6561  -13.2081   19.8679 C   0  0  2  0  0  0
  -28.7000  -12.9910   20.9860 C   0  0  0  0  0  0
  -25.2554  -13.8151   20.5665 C   0  0  0  0  0  0
  -24.1825  -13.0411   20.9176 C   0  0  0  0  0  0
  -24.6389  -11.6884   20.8721 C   0  0  0  0  0  0
  -23.9057  -10.4277   21.0403 C   0  0  0  0  0  0
  -24.3604   -9.4187   21.9178 C   0  0  0  0  0  0
  -23.6282   -8.2224   22.0739 C   0  0  0  0  0  0
  -22.4264   -8.0265   21.3529 C   0  0  0  0  0  0
  -21.9901   -9.0243   20.4635 C   0  0  0  0  0  0
  -22.7228  -10.2120   20.3055 C   0  0  0  0  0  0
  -21.6855   -6.0724   22.5276 C   0  0  0  0  0  0
  -21.4021   -6.5628   23.8207 C   0  0  0  0  0  0
  -21.3657   -5.6776   24.9167 C   0  0  0  0  0  0
  -21.6046   -4.3040   24.7217 C   0  0  0  0  0  0
  -21.8827   -3.8135   23.4339 C   0  0  0  0  0  0
  -21.9195   -4.6955   22.3396 C   0  0  0  0  0  0
  -22.7849  -13.5199   21.1850 C   0  0  0  0  0  0
  -22.1662   -4.2136   21.0974 F   0  0  0  0  0  0
  -21.5621   -3.4528   25.7731 F   0  0  0  0  0  0
  -30.0205  -13.3219   20.4282 N   0  0  0  0  0  0
  -26.2988  -12.9326   20.3324 N   0  0  0  0  0  0
  -25.9313  -11.6483   20.5752 N   0  0  0  0  0  0
  -22.0501  -12.8203   22.0421 N   0  0  0  0  0  0
  -25.4258  -15.1878   20.4083 N   0  0  0  0  0  0
  -31.7936  -14.7238   20.1431 O   0  0  0  0  0  0
  -21.6628   -6.8864   21.4234 O   0  0  0  0  0  0
  -22.3533  -14.5507   20.6703 O   0  0  0  0  0  0
  -24.6192  -31.8653   23.2087 C   0  0  0  0  0  0
  -25.9069  -32.4815   23.8398 C   0  0  1  0  0  0
  -27.2279  -27.3921   20.1165 C   0  0  0  0  0  0
  -25.5910  -33.8615   24.2334 N   0  0  0  0  0  0
  -23.4103  -30.4878   21.5530 C   0  0  2  0  0  0
  -24.8556  -28.9433   20.1225 C   0  0  0  0  0  0
  -22.7474  -29.4649   22.5040 C   0  0  0  0  0  0
  -18.0321  -28.1349   22.8513 C   0  0  0  0  0  0
  -24.1486  -36.7315   23.2639 C   0  0  0  0  0  0
  -25.9425  -30.8160   21.3707 C   0  0  0  0  0  0
  -26.0181  -29.4436   20.7262 C   0  0  0  0  0  0
  -27.2103  -28.6754   20.7207 C   0  0  0  0  0  0
  -26.0540  -26.9176   19.5000 C   0  0  0  0  0  0
  -24.8707  -27.6810   19.5037 C   0  0  0  0  0  0
  -23.6201  -29.8162   20.1693 C   0  0  0  0  0  0
  -25.4104  -36.3117   24.0341 C   0  0  1  0  0  0
  -20.5927  -28.3655   23.1333 C   0  0  2  0  0  0
  -20.6879  -26.9428   22.5354 C   0  0  0  0  0  0
  -19.5800  -26.6381   21.5222 C   0  0  0  0  0  0
  -18.2012  -26.7853   22.1713 C   0  0  0  0  0  0
  -19.1567  -28.8814   23.2906 C   0  0  0  0  0  0
  -18.9502  -30.1431   23.8900 C   0  0  0  0  0  0
  -17.6509  -30.6581   24.0537 C   0  0  0  0  0  0
  -25.9037  -34.9468   23.5129 C   0  0  0  0  0  0
  -16.5398  -29.9067   23.6355 C   0  0  0  0  0  0
  -16.7311  -28.6468   23.0400 C   0  0  0  0  0  0
  -26.4463  -31.6603   25.0741 C   0  0  0  0  0  0
  -25.3721  -31.3716   26.1488 C   0  0  0  0  0  0
  -27.0303  -30.3043   24.6133 C   0  0  0  0  0  0
  -27.6034  -32.4325   25.7504 C   0  0  0  0  0  0
  -27.5577  -37.1812   24.8465 C   0  0  0  0  0  0
  -21.4196  -29.3084   22.3812 N   0  0  0  0  0  0
  -26.4296  -37.3793   23.9404 N   0  0  0  0  0  0
  -24.6765  -31.0714   22.1021 N   0  0  0  0  0  0
  -23.4222  -28.8138   23.3059 O   0  0  0  0  0  0
  -28.3689  -26.6166   20.0365 O   0  0  0  0  0  0
  -26.5605  -34.8916   22.4697 O   0  0  0  0  0  0
  -23.5369  -32.1440   23.7445 O   0  0  0  0  0  0
  -28.2294  -17.9108   19.6063 C   0  0  0  0  0  0
  -27.4021  -18.9583   19.1555 C   0  0  0  0  0  0
  -29.2112  -18.1426   20.6005 C   0  0  0  0  0  0
  -28.4493  -20.5157   20.7274 C   0  0  0  0  0  0
  -27.5092  -20.2482   19.7107 C   0  0  0  0  0  0
  -29.3113  -19.4583   21.1509 C   0  0  0  0  0  0
  -30.1403  -16.9944   21.0894 C   0  0  0  0  0  0
  -28.3882  -21.8766   21.4586 C   0  0  0  0  0  0
  -27.8666  -24.3394   21.1616 C   0  0  0  0  0  0
  -28.6349  -25.7053   21.1254 C   0  0  0  0  0  0
  -29.8462  -15.5417   20.9627 N   0  0  0  0  0  0
  -28.5951  -23.1234   20.6482 N   0  3  0  0  0  0
  -26.6854  -21.2352   19.2802 F   0  0  0  0  0  0
  -30.2219  -19.6945   22.1258 F   0  0  0  0  0  0
  -31.4714  -12.4739   19.1037 H   0  0  0  0  0  0
  -30.3673  -11.3265   19.8125 H   0  0  0  0  0  0
  -29.7322  -11.7645   17.4351 H   0  0  0  0  0  0
  -29.6527  -13.4830   17.7399 H   0  0  0  0  0  0
  -27.8267  -11.3094   18.8168 H   0  0  0  0  0  0
  -27.3609  -12.6361   17.7850 H   0  0  0  0  0  0
  -27.6943  -14.2554   19.5643 H   0  0  0  0  0  0
  -28.6883  -11.9527   21.3213 H   0  0  0  0  0  0
  -28.4620  -13.5844   21.8698 H   0  0  0  0  0  0
  -25.2757   -9.5644   22.4740 H   0  0  0  0  0  0
  -23.9983   -7.4612   22.7462 H   0  0  0  0  0  0
  -21.0829   -8.8768   19.8945 H   0  0  0  0  0  0
  -22.3700  -10.9653   19.6156 H   0  0  0  0  0  0
  -21.2027   -7.6138   23.9706 H   0  0  0  0  0  0
  -21.1470   -6.0505   25.9062 H   0  0  0  0  0  0
  -22.0617   -2.7601   23.2845 H   0  0  0  0  0  0
  -22.4130  -11.9866   22.4807 H   0  0  0  0  0  0
  -21.1115  -13.1224   22.2626 H   0  0  0  0  0  0
  -24.6526  -15.8357   20.5171 H   0  0  0  0  0  0
  -26.2677  -15.6321   20.0675 H   0  0  0  0  0  0
  -26.7145  -32.5499   23.1162 H   0  0  0  0  0  0
  -25.0071  -33.9789   25.0480 H   0  0  0  0  0  0
  -22.7015  -31.3064   21.4122 H   0  0  0  0  0  0
  -23.3742  -35.9655   23.3314 H   0  0  0  0  0  0
  -24.3580  -36.8916   22.2053 H   0  0  0  0  0  0
  -23.7242  -37.6522   23.6642 H   0  0  0  0  0  0
  -26.0569  -31.5729   20.5932 H   0  0  0  0  0  0
  -26.8318  -30.8743   21.9869 H   0  0  0  0  0  0
  -28.1128  -29.0662   21.1704 H   0  0  0  0  0  0
  -26.0543  -25.9526   19.0106 H   0  0  0  0  0  0
  -23.9813  -27.2943   19.0252 H   0  0  0  0  0  0
  -23.7320  -30.5890   19.4078 H   0  0  0  0  0  0
  -22.7406  -29.2389   19.8768 H   0  0  0  0  0  0
  -25.1277  -36.1989   25.0835 H   0  0  0  0  0  0
  -20.9987  -28.3150   24.1453 H   0  0  0  0  0  0
  -20.5940  -26.2244   23.3505 H   0  0  0  0  0  0
  -21.6710  -26.7593   22.1011 H   0  0  0  0  0  0
  -19.6979  -25.6282   21.1275 H   0  0  0  0  0  0
  -19.6690  -27.3210   20.6774 H   0  0  0  0  0  0
  -17.4245  -26.6440   21.4181 H   0  0  0  0  0  0
  -18.0576  -26.0027   22.9182 H   0  0  0  0  0  0
  -19.7997  -30.7240   24.2224 H   0  0  0  0  0  0
  -17.5093  -31.6309   24.5034 H   0  0  0  0  0  0
  -15.5401  -30.2989   23.7690 H   0  0  0  0  0  0
  -15.8698  -28.0792   22.7151 H   0  0  0  0  0  0
  -24.5888  -30.7067   25.7829 H   0  0  0  0  0  0
  -24.8906  -32.2875   26.4928 H   0  0  0  0  0  0
  -25.8063  -30.8890   27.0255 H   0  0  0  0  0  0
  -26.2865  -29.6803   24.1163 H   0  0  0  0  0  0
  -27.4053  -29.7275   25.4599 H   0  0  0  0  0  0
  -27.8701  -30.4365   23.9307 H   0  0  0  0  0  0
  -27.2650  -33.3616   26.2094 H   0  0  0  0  0  0
  -28.3823  -32.6906   25.0321 H   0  0  0  0  0  0
  -28.0722  -31.8449   26.5404 H   0  0  0  0  0  0
  -28.2605  -38.0102   24.7505 H   0  0  0  0  0  0
  -28.1072  -36.2631   24.6306 H   0  0  0  0  0  0
  -27.2296  -37.1475   25.8872 H   0  0  0  0  0  0
  -20.9328  -29.8936   21.7173 H   0  0  0  0  0  0
  -26.0190  -38.2874   24.1391 H   0  0  0  0  0  0
  -28.1147  -16.9270   19.1732 H   0  0  0  0  0  0
  -26.6635  -18.7687   18.3877 H   0  0  0  0  0  0
  -30.3795  -16.9539   20.0254 H   0  0  0  0  0  0
  -29.2596  -16.8774   21.7232 H   0  0  0  0  0  0
  -29.0855  -21.8871   22.2968 H   0  0  0  0  0  0
  -27.3936  -21.9146   21.9056 H   0  0  0  0  0  0
  -26.8908  -24.4237   20.6840 H   0  0  0  0  0  0
  -27.6502  -24.1573   22.2163 H   0  0  0  0  0  0
  -29.7088  -25.5224   21.1563 H   0  0  0  0  0  0
  -28.4247  -26.2418   22.0531 H   0  0  0  0  0  0
  -28.9228  -15.2576   21.2514 H   0  0  0  0  0  0
  -28.2765  -22.9392   19.7083 H   0  0  0  0  0  0
  -29.5870  -23.3018   20.6056 H   0  0  0  0  0  0
  1 25  1  0  0  0
  1 30  2  0  0  0
  1 81  1  0  0  0
  2  3  1  0  0  0
  2 25  1  0  0  0
  2 85  1  0  0  0
  2 86  1  0  0  0
  3  4  1  0  0  0
  3 87  1  0  0  0
  3 88  1  0  0  0
  4  5  1  0  0  0
  4 89  1  0  0  0
  4 90  1  0  0  0
  5  6  1  0  0  0
  5 26  1  0  0  0
  5 91  1  0  0  0
  6 25  1  0  0  0
  6 92  1  0  0  0
  6 93  1  0  0  0
  7  8  2  0  0  0
  7 26  1  0  0  0
  7 29  1  0  0  0
  8  9  1  0  0  0
  8 22  1  0  0  0
  9 10  1  0  0  0
  9 27  2  0  0  0
 10 11  2  0  0  0
 10 15  1  0  0  0
 11 12  1  0  0  0
 11 94  1  0  0  0
 12 13  2  0  0  0
 12 95  1  0  0  0
 13 14  1  0  0  0
 13 31  1  0  0  0
 14 15  2  0  0  0
 14 96  1  0  0  0
 15 97  1  0  0  0
 16 17  2  0  0  0
 16 21  1  0  0  0
 16 31  1  0  0  0
 17 18  1  0  0  0
 17 98  1  0  0  0
 18 19  2  0  0  0
 18 99  1  0  0  0
 19 20  1  0  0  0
 19 24  1  0  0  0
 20 21  2  0  0  0
 20100  1  0  0  0
 21 23  1  0  0  0
 22 28  1  0  0  0
 22 32  2  0  0  0
 26 27  1  0  0  0
 28101  1  0  0  0
 28102  1  0  0  0
 29103  1  0  0  0
 29104  1  0  0  0
 33 34  1  0  0  0
 33 66  1  0  0  0
 33 70  2  0  0  0
 34 36  1  0  0  0
 34 59  1  0  0  0
 34105  1  0  0  0
 35 44  2  0  0  0
 35 45  1  0  0  0
 35 68  1  0  0  0
 36 56  1  0  0  0
 36106  1  0  0  0
 37 39  1  0  0  0
 37 47  1  0  0  0
 37 66  1  0  0  0
 37107  1  0  0  0
 38 43  2  0  0  0
 38 46  1  0  0  0
 38 47  1  0  0  0
 39 64  1  0  0  0
 39 67  2  0  0  0
 40 52  1  0  0  0
 40 53  2  0  0  0
 40 58  1  0  0  0
 41108  1  0  0  0
 41109  1  0  0  0
 41110  1  0  0  0
 41 48  1  0  0  0
 42 43  1  0  0  0
 42 66  1  0  0  0
 42111  1  0  0  0
 42112  1  0  0  0
 43 44  1  0  0  0
 44113  1  0  0  0
 45 46  2  0  0  0
 45114  1  0  0  0
 46115  1  0  0  0
 47116  1  0  0  0
 47117  1  0  0  0
 48 56  1  0  0  0
 48 65  1  0  0  0
 48118  1  0  0  0
 49 50  1  0  0  0
 49 53  1  0  0  0
 49 64  1  0  0  0
 49119  1  0  0  0
 50 51  1  0  0  0
 50120  1  0  0  0
 50121  1  0  0  0
 51 52  1  0  0  0
 51122  1  0  0  0
 51123  1  0  0  0
 52124  1  0  0  0
 52125  1  0  0  0
 53 54  1  0  0  0
 54 55  2  0  0  0
 54126  1  0  0  0
 55 57  1  0  0  0
 55127  1  0  0  0
 56 69  2  0  0  0
 57 58  2  0  0  0
 57128  1  0  0  0
 58129  1  0  0  0
 59 60  1  0  0  0
 59 61  1  0  0  0
 59 62  1  0  0  0
 60130  1  0  0  0
 60131  1  0  0  0
 60132  1  0  0  0
 61133  1  0  0  0
 61134  1  0  0  0
 61135  1  0  0  0
 62136  1  0  0  0
 62137  1  0  0  0
 62138  1  0  0  0
 63 65  1  0  0  0
 63139  1  0  0  0
 63140  1  0  0  0
 63141  1  0  0  0
 64142  1  0  0  0
 65143  1  0  0  0
 68 80  1  0  0  0
 71 72  2  0  0  0
 71 73  1  0  0  0
 71144  1  0  0  0
 72 75  1  0  0  0
 72145  1  0  0  0
 73 76  2  0  0  0
 73 77  1  0  0  0
 74 75  2  0  0  0
 74 76  1  0  0  0
 74 78  1  0  0  0
 75 83  1  0  0  0
 76 84  1  0  0  0
 77 81  1  0  0  0
 77146  1  0  0  0
 77147  1  0  0  0
 78 82  1  0  0  0
 78148  1  0  0  0
 78149  1  0  0  0
 79 80  1  0  0  0
 79 82  1  0  0  0
 79150  1  0  0  0
 79151  1  0  0  0
 80152  1  0  0  0
 80153  1  0  0  0
 81154  1  0  0  0
 82155  1  0  0  0
 82156  1  0  0  0
M  CHG  1  82   1
M  ISO  4   1 100  68 101  80 101  81 100
M  END
> <chiral flag>
0

> <version>
0

> <s_m_source_file>
/data/baiqing/PycharmProjects/Reinvent-master-3.2/result/LINK_invent/BTK/process_docking_weight1_custom_product_contain_oxygen_bond_distance_aromatic_linkinvent_7_9_3/rearranged_h_0029.sdf

> <i_m_source_file_index>
78

> <r_mmod_Potential_Energy-OPLS-2005>
-22.7259826660156

> <r_mmod_Stretch_Energy-OPLS-2005>
49.045467376709

> <r_mmod_Bend_Energy-OPLS-2005>
312.705078125

> <r_mmod_Torsional_Energy-OPLS-2005>
233.655181884766

> <r_mmod_Improper_Torsional_Energy-OPLS-2005>
4.95361995697021

> <r_mmod_Van_der_Waal_Energy-OPLS-2005>
146.973373413086

> <r_mmod_Electrostatic_Energy-OPLS-2005>
-346.742950439453

> <r_mmod_Solvation_Energy-OPLS-2005>
-443.541015625

> <b_mmod_Minimization_Converged-OPLS-2005>
0

> <r_mmod_RMS_Derivative-OPLS-2005>
2.54038023948669

$$$$
78
                    3D
 Structure written by MMmdl.
159168  0  0  1  0            999 V2000
  -30.6341  -14.7197   20.4457 C   0  0  0  0  0  0
  -30.4272  -12.4385   19.4662 C   0  0  0  0  0  0
  -29.5090  -12.4919   18.2272 C   0  0  0  0  0  0
  -28.0329  -12.3321   18.6421 C   0  0  0  0  0  0
  -27.6405  -13.2352   19.8434 C   0  0  2  0  0  0
  -28.6863  -13.1790   20.9772 C   0  0  0  0  0  0
  -25.2517  -13.8208   20.5698 C   0  0  0  0  0  0
  -24.1805  -13.0444   20.9192 C   0  0  0  0  0  0
  -24.6399  -11.6928   20.8729 C   0  0  0  0  0  0
  -23.9075  -10.4297   21.0396 C   0  0  0  0  0  0
  -24.3621   -9.4212   21.9175 C   0  0  0  0  0  0
  -23.6300   -8.2245   22.0745 C   0  0  0  0  0  0
  -22.4280   -8.0279   21.3540 C   0  0  0  0  0  0
  -21.9917   -9.0256   20.4640 C   0  0  0  0  0  0
  -22.7248  -10.2131   20.3052 C   0  0  0  0  0  0
  -21.6854   -6.0731   22.5273 C   0  0  0  0  0  0
  -21.4012   -6.5634   23.8202 C   0  0  0  0  0  0
  -21.3663   -5.6786   24.9167 C   0  0  0  0  0  0
  -21.6048   -4.3048   24.7224 C   0  0  0  0  0  0
  -21.8819   -3.8142   23.4338 C   0  0  0  0  0  0
  -21.9194   -4.6957   22.3396 C   0  0  0  0  0  0
  -22.7825  -13.5225   21.1862 C   0  0  0  0  0  0
  -22.1662   -4.2141   21.0974 F   0  0  0  0  0  0
  -21.5637   -3.4536   25.7736 F   0  0  0  0  0  0
  -29.9819  -13.5121   20.3797 N   0  0  0  0  0  0
  -26.2937  -12.9418   20.3260 N   0  0  0  0  0  0
  -25.9331  -11.6559   20.5731 N   0  0  0  0  0  0
  -22.0471  -12.8215   22.0414 N   0  0  0  0  0  0
  -25.4262  -15.1927   20.4153 N   0  0  0  0  0  0
  -31.8492  -14.7618   20.2222 O   0  0  0  0  0  0
  -21.6645   -6.8876   21.4236 O   0  0  0  0  0  0
  -22.3508  -14.5537   20.6712 O   0  0  0  0  0  0
  -24.6292  -31.8565   23.1984 C   0  0  0  0  0  0
  -25.9128  -32.4759   23.8320 C   0  0  1  0  0  0
  -27.2220  -27.2870   20.1374 C   0  0  0  0  0  0
  -25.5928  -33.8559   24.2254 N   0  0  0  0  0  0
  -23.4240  -30.4779   21.5410 C   0  0  2  0  0  0
  -24.8705  -28.9166   20.1193 C   0  0  0  0  0  0
  -22.7483  -29.4619   22.4926 C   0  0  0  0  0  0
  -18.0284  -28.1383   22.8488 C   0  0  0  0  0  0
  -24.1488  -36.7288   23.2641 C   0  0  0  0  0  0
  -25.9657  -30.7789   21.3710 C   0  0  0  0  0  0
  -26.0401  -29.3995   20.7210 C   0  0  0  0  0  0
  -27.2224  -28.5983   20.7127 C   0  0  0  0  0  0
  -26.0317  -26.8514   19.5249 C   0  0  0  0  0  0
  -24.8684  -27.6488   19.5116 C   0  0  0  0  0  0
  -23.6415  -29.8040   20.1598 C   0  0  0  0  0  0
  -25.4112  -36.3075   24.0332 C   0  0  1  0  0  0
  -20.5887  -28.3695   23.1282 C   0  0  2  0  0  0
  -20.6773  -26.9418   22.5414 C   0  0  0  0  0  0
  -19.5746  -26.6385   21.5218 C   0  0  0  0  0  0
  -18.1925  -26.7929   22.1627 C   0  0  0  0  0  0
  -19.1539  -28.8851   23.2878 C   0  0  0  0  0  0
  -18.9459  -30.1455   23.8890 C   0  0  0  0  0  0
  -17.6461  -30.6590   24.0561 C   0  0  0  0  0  0
  -25.9050  -34.9444   23.5094 C   0  0  0  0  0  0
  -16.5353  -29.9086   23.6336 C   0  0  0  0  0  0
  -16.7273  -28.6504   23.0354 C   0  0  0  0  0  0
  -26.4505  -31.6575   25.0701 C   0  0  0  0  0  0
  -25.3740  -31.3722   26.1431 C   0  0  0  0  0  0
  -27.0342  -30.2986   24.6181 C   0  0  0  0  0  0
  -27.6052  -32.4316   25.7487 C   0  0  0  0  0  0
  -27.5578  -37.1797   24.8463 C   0  0  0  0  0  0
  -21.4193  -29.3049   22.3676 N   0  0  0  0  0  0
  -26.4284  -37.3776   23.9414 N   0  0  0  0  0  0
  -24.6919  -31.0558   22.0939 N   0  0  0  0  0  0
  -23.4195  -28.8169   23.3024 O   0  0  0  0  0  0
  -28.3436  -26.4458   20.0887 O   0  0  0  0  0  0
  -26.5625  -34.8925   22.4665 O   0  0  0  0  0  0
  -23.5453  -32.1366   23.7312 O   0  0  0  0  0  0
  -29.0021  -20.2322   19.3474 C   0  0  0  0  0  0
  -29.2629  -20.8694   21.6437 C   0  0  0  0  0  0
  -29.1838  -18.8477   19.6993 C   0  0  0  0  0  0
  -29.4671  -18.4501   21.0221 C   0  0  0  0  0  0
  -29.4807  -19.4967   21.9963 C   0  0  0  0  0  0
  -29.0527  -21.2927   20.3070 C   0  0  0  0  0  0
  -29.0831  -17.7316   18.6709 C   0  0  0  0  0  0
  -29.7497  -16.9300   21.3774 C   0  0  0  0  0  0
  -30.0259  -16.5295   18.9598 C   0  0  0  0  0  0
  -29.7669  -19.1692   23.4514 C   0  0  0  0  0  0
  -27.9723  -23.7040   20.1929 C   0  0  0  0  0  0
  -28.3530  -25.1448   20.8159 C   0  0  0  0  0  0
  -29.8861  -15.8875   20.2910 N   0  0  0  0  0  0
  -29.0574  -22.6898   19.9329 N   0  0  0  0  0  0
  -31.4707  -12.5508   19.1662 H   0  0  0  0  0  0
  -30.3608  -11.4665   19.9560 H   0  0  0  0  0  0
  -29.7872  -11.7108   17.5181 H   0  0  0  0  0  0
  -29.6459  -13.4384   17.7030 H   0  0  0  0  0  0
  -27.8819  -11.2840   18.9030 H   0  0  0  0  0  0
  -27.3788  -12.5307   17.7926 H   0  0  0  0  0  0
  -27.6344  -14.2561   19.4590 H   0  0  0  0  0  0
  -28.7167  -12.1905   21.4376 H   0  0  0  0  0  0
  -28.4344  -13.8880   21.7678 H   0  0  0  0  0  0
  -25.2762   -9.5698   22.4753 H   0  0  0  0  0  0
  -24.0007   -7.4638   22.7466 H   0  0  0  0  0  0
  -21.0845   -8.8776   19.8953 H   0  0  0  0  0  0
  -22.3699  -10.9669   19.6158 H   0  0  0  0  0  0
  -21.2003   -7.6140   23.9702 H   0  0  0  0  0  0
  -21.1490   -6.0518   25.9070 H   0  0  0  0  0  0
  -22.0600   -2.7604   23.2837 H   0  0  0  0  0  0
  -22.4089  -11.9876   22.4805 H   0  0  0  0  0  0
  -21.1081  -13.1238   22.2615 H   0  0  0  0  0  0
  -24.6703  -15.8569   20.5391 H   0  0  0  0  0  0
  -26.2949  -15.6277   20.1307 H   0  0  0  0  0  0
  -26.7194  -32.5419   23.1063 H   0  0  0  0  0  0
  -25.0073  -33.9687   25.0399 H   0  0  0  0  0  0
  -22.7196  -31.2991   21.3932 H   0  0  0  0  0  0
  -23.3757  -35.9613   23.3299 H   0  0  0  0  0  0
  -24.3581  -36.8916   22.2056 H   0  0  0  0  0  0
  -23.7238  -37.6488   23.6664 H   0  0  0  0  0  0
  -26.0970  -31.5379   20.5985 H   0  0  0  0  0  0
  -26.8461  -30.8319   22.0002 H   0  0  0  0  0  0
  -28.1263  -28.9723   21.1717 H   0  0  0  0  0  0
  -26.0031  -25.8803   19.0526 H   0  0  0  0  0  0
  -23.9723  -27.2731   19.0374 H   0  0  0  0  0  0
  -23.7658  -30.5752   19.3985 H   0  0  0  0  0  0
  -22.7610  -29.2339   19.8592 H   0  0  0  0  0  0
  -25.1299  -36.1913   25.0826 H   0  0  0  0  0  0
  -20.9976  -28.3267   24.1403 H   0  0  0  0  0  0
  -20.5679  -26.2307   23.3615 H   0  0  0  0  0  0
  -21.6639  -26.7438   22.1210 H   0  0  0  0  0  0
  -19.6908  -25.6296   21.1251 H   0  0  0  0  0  0
  -19.6686  -27.3197   20.6748 H   0  0  0  0  0  0
  -17.4203  -26.6684   21.4022 H   0  0  0  0  0  0
  -18.0316  -26.0067   22.9016 H   0  0  0  0  0  0
  -19.7931  -30.7270   24.2259 H   0  0  0  0  0  0
  -17.5017  -31.6273   24.5164 H   0  0  0  0  0  0
  -15.5355  -30.2987   23.7661 H   0  0  0  0  0  0
  -15.8675  -28.0831   22.7061 H   0  0  0  0  0  0
  -24.5914  -30.7071   25.7768 H   0  0  0  0  0  0
  -24.8937  -32.2890   26.4856 H   0  0  0  0  0  0
  -25.8074  -30.8902   27.0202 H   0  0  0  0  0  0
  -26.2907  -29.6736   24.1218 H   0  0  0  0  0  0
  -27.4026  -29.7255   25.4701 H   0  0  0  0  0  0
  -27.8792  -30.4251   23.9409 H   0  0  0  0  0  0
  -27.2641  -33.3613   26.2056 H   0  0  0  0  0  0
  -28.3873  -32.6880   25.0329 H   0  0  0  0  0  0
  -28.0706  -31.8445   26.5413 H   0  0  0  0  0  0
  -28.2592  -38.0099   24.7518 H   0  0  0  0  0  0
  -28.1074  -36.2629   24.6270 H   0  0  0  0  0  0
  -27.2299  -37.1432   25.8868 H   0  0  0  0  0  0
  -20.9375  -29.8760   21.6875 H   0  0  0  0  0  0
  -26.0164  -38.2852   24.1410 H   0  0  0  0  0  0
  -28.8385  -20.4789   18.3079 H   0  0  0  0  0  0
  -29.3278  -21.6244   22.4144 H   0  0  0  0  0  0
  -29.2981  -18.1332   17.6802 H   0  0  0  0  0  0
  -28.0491  -17.3868   18.6427 H   0  0  0  0  0  0
  -28.9494  -16.5963   22.0391 H   0  0  0  0  0  0
  -30.6605  -16.9030   21.9789 H   0  0  0  0  0  0
  -31.0567  -16.8702   18.8468 H   0  0  0  0  0  0
  -29.8727  -15.7807   18.1816 H   0  0  0  0  0  0
  -29.6067  -20.0335   24.0971 H   0  0  0  0  0  0
  -30.8032  -18.8547   23.5749 H   0  0  0  0  0  0
  -29.1182  -18.3693   23.8064 H   0  0  0  0  0  0
  -27.4226  -23.8617   19.2641 H   0  0  0  0  0  0
  -27.2565  -23.2301   20.8660 H   0  0  0  0  0  0
  -29.3469  -25.0566   21.2534 H   0  0  0  0  0  0
  -27.7052  -25.2833   21.6830 H   0  0  0  0  0  0
  -29.4371  -22.8258   18.9985 H   0  0  0  0  0  0
  1 25  1  0  0  0
  1 30  2  0  0  0
  1 83  1  0  0  0
  2  3  1  0  0  0
  2 25  1  0  0  0
  2 85  1  0  0  0
  2 86  1  0  0  0
  3  4  1  0  0  0
  3 87  1  0  0  0
  3 88  1  0  0  0
  4  5  1  0  0  0
  4 89  1  0  0  0
  4 90  1  0  0  0
  5  6  1  0  0  0
  5 26  1  0  0  0
  5 91  1  0  0  0
  6 25  1  0  0  0
  6 92  1  0  0  0
  6 93  1  0  0  0
  7  8  2  0  0  0
  7 26  1  0  0  0
  7 29  1  0  0  0
  8  9  1  0  0  0
  8 22  1  0  0  0
  9 10  1  0  0  0
  9 27  2  0  0  0
 10 11  2  0  0  0
 10 15  1  0  0  0
 11 12  1  0  0  0
 11 94  1  0  0  0
 12 13  2  0  0  0
 12 95  1  0  0  0
 13 14  1  0  0  0
 13 31  1  0  0  0
 14 15  2  0  0  0
 14 96  1  0  0  0
 15 97  1  0  0  0
 16 17  2  0  0  0
 16 21  1  0  0  0
 16 31  1  0  0  0
 17 18  1  0  0  0
 17 98  1  0  0  0
 18 19  2  0  0  0
 18 99  1  0  0  0
 19 20  1  0  0  0
 19 24  1  0  0  0
 20 21  2  0  0  0
 20100  1  0  0  0
 21 23  1  0  0  0
 22 28  1  0  0  0
 22 32  2  0  0  0
 26 27  1  0  0  0
 28101  1  0  0  0
 28102  1  0  0  0
 29103  1  0  0  0
 29104  1  0  0  0
 33 34  1  0  0  0
 33 66  1  0  0  0
 33 70  2  0  0  0
 34 36  1  0  0  0
 34 59  1  0  0  0
 34105  1  0  0  0
 35 44  2  0  0  0
 35 45  1  0  0  0
 35 68  1  0  0  0
 36 56  1  0  0  0
 36106  1  0  0  0
 37 39  1  0  0  0
 37 47  1  0  0  0
 37 66  1  0  0  0
 37107  1  0  0  0
 38 43  2  0  0  0
 38 46  1  0  0  0
 38 47  1  0  0  0
 39 64  1  0  0  0
 39 67  2  0  0  0
 40 52  1  0  0  0
 40 53  2  0  0  0
 40 58  1  0  0  0
 41108  1  0  0  0
 41109  1  0  0  0
 41110  1  0  0  0
 41 48  1  0  0  0
 42 43  1  0  0  0
 42 66  1  0  0  0
 42111  1  0  0  0
 42112  1  0  0  0
 43 44  1  0  0  0
 44113  1  0  0  0
 45 46  2  0  0  0
 45114  1  0  0  0
 46115  1  0  0  0
 47116  1  0  0  0
 47117  1  0  0  0
 48 56  1  0  0  0
 48 65  1  0  0  0
 48118  1  0  0  0
 49 50  1  0  0  0
 49 53  1  0  0  0
 49 64  1  0  0  0
 49119  1  0  0  0
 50 51  1  0  0  0
 50120  1  0  0  0
 50121  1  0  0  0
 51 52  1  0  0  0
 51122  1  0  0  0
 51123  1  0  0  0
 52124  1  0  0  0
 52125  1  0  0  0
 53 54  1  0  0  0
 54 55  2  0  0  0
 54126  1  0  0  0
 55 57  1  0  0  0
 55127  1  0  0  0
 56 69  2  0  0  0
 57 58  2  0  0  0
 57128  1  0  0  0
 58129  1  0  0  0
 59 60  1  0  0  0
 59 61  1  0  0  0
 59 62  1  0  0  0
 60130  1  0  0  0
 60131  1  0  0  0
 60132  1  0  0  0
 61133  1  0  0  0
 61134  1  0  0  0
 61135  1  0  0  0
 62136  1  0  0  0
 62137  1  0  0  0
 62138  1  0  0  0
 63 65  1  0  0  0
 63139  1  0  0  0
 63140  1  0  0  0
 63141  1  0  0  0
 64142  1  0  0  0
 65143  1  0  0  0
 68 82  1  0  0  0
 71 73  2  0  0  0
 71 76  1  0  0  0
 71144  1  0  0  0
 72 75  1  0  0  0
 72 76  2  0  0  0
 72145  1  0  0  0
 73 74  1  0  0  0
 73 77  1  0  0  0
 74 75  2  0  0  0
 74 78  1  0  0  0
 75 80  1  0  0  0
 76 84  1  0  0  0
 77 79  1  0  0  0
 77146  1  0  0  0
 77147  1  0  0  0
 78 83  1  0  0  0
 78148  1  0  0  0
 78149  1  0  0  0
 79 83  1  0  0  0
 79150  1  0  0  0
 79151  1  0  0  0
 80152  1  0  0  0
 80153  1  0  0  0
 80154  1  0  0  0
 81 82  1  0  0  0
 81 84  1  0  0  0
 81155  1  0  0  0
 81156  1  0  0  0
 82157  1  0  0  0
 82158  1  0  0  0
 84159  1  0  0  0
M  ISO  4   1 100  68 101  82 101  83 100
M  END
> <chiral flag>
0

> <version>
0

> <s_m_source_file>
/data/baiqing/PycharmProjects/Reinvent-master-3.2/result/LINK_invent/BTK/process_docking_weight1_custom_product_contain_oxygen_bond_distance_aromatic_linkinvent_7_9_3/rearranged_h_0029.sdf

> <i_m_source_file_index>
79

> <r_mmod_Potential_Energy-OPLS-2005>
321.629272460938

> <r_mmod_Stretch_Energy-OPLS-2005>
100.440238952637

> <r_mmod_Bend_Energy-OPLS-2005>
175.812942504883

> <r_mmod_Torsional_Energy-OPLS-2005>
348.873291015625

> <r_mmod_Improper_Torsional_Energy-OPLS-2005>
21.9133052825928

> <r_mmod_Van_der_Waal_Energy-OPLS-2005>
133.220321655273

> <r_mmod_Electrostatic_Energy-OPLS-2005>
-321.321868896484

> <r_mmod_Solvation_Energy-OPLS-2005>
-210.18359375

> <b_mmod_Minimization_Converged-OPLS-2005>
0

> <r_mmod_RMS_Derivative-OPLS-2005>
1.4925537109375

$$$$
79
                    3D
 Structure written by MMmdl.
172182  0  0  1  0            999 V2000
  -30.4632  -14.6880   20.5360 C   0  0  0  0  0  0
  -30.4501  -12.4248   19.4344 C   0  0  0  0  0  0
  -29.5207  -12.5499   18.2055 C   0  0  0  0  0  0
  -28.0389  -12.3762   18.6150 C   0  0  0  0  0  0
  -27.6567  -13.2036   19.8710 C   0  0  2  0  0  0
  -28.6882  -12.9755   20.9905 C   0  0  0  0  0  0
  -25.2612  -13.8176   20.5534 C   0  0  0  0  0  0
  -24.1791  -13.0384   20.9197 C   0  0  0  0  0  0
  -24.6402  -11.6948   20.8723 C   0  0  0  0  0  0
  -23.9071  -10.4300   21.0390 C   0  0  0  0  0  0
  -24.3606   -9.4236   21.9159 C   0  0  0  0  0  0
  -23.6275   -8.2270   22.0756 C   0  0  0  0  0  0
  -22.4252   -8.0291   21.3571 C   0  0  0  0  0  0
  -21.9914   -9.0261   20.4678 C   0  0  0  0  0  0
  -22.7248  -10.2147   20.3059 C   0  0  0  0  0  0
  -21.6872   -6.0740   22.5279 C   0  0  0  0  0  0
  -21.4021   -6.5638   23.8209 C   0  0  0  0  0  0
  -21.3659   -5.6787   24.9171 C   0  0  0  0  0  0
  -21.6035   -4.3051   24.7226 C   0  0  0  0  0  0
  -21.8824   -3.8157   23.4350 C   0  0  0  0  0  0
  -21.9201   -4.6973   22.3400 C   0  0  0  0  0  0
  -22.7885  -13.5302   21.1838 C   0  0  0  0  0  0
  -22.1660   -4.2143   21.0989 F   0  0  0  0  0  0
  -21.5635   -3.4534   25.7759 F   0  0  0  0  0  0
  -29.9966  -13.3971   20.4594 N   0  0  0  0  0  0
  -26.3025  -12.9267   20.3347 N   0  0  0  0  0  0
  -25.9319  -11.6477   20.5736 N   0  0  0  0  0  0
  -22.0492  -12.8237   22.0385 N   0  0  0  0  0  0
  -25.4250  -15.1858   20.3833 N   0  0  0  0  0  0
  -31.5775  -14.9892   20.0669 O   0  0  0  0  0  0
  -21.6634   -6.8869   21.4230 O   0  0  0  0  0  0
  -22.3571  -14.5533   20.6714 O   0  0  0  0  0  0
  -24.6463  -31.8677   23.1931 C   0  0  0  0  0  0
  -25.9330  -32.4858   23.8337 C   0  0  1  0  0  0
  -27.1039  -27.1594   20.1242 C   0  0  0  0  0  0
  -25.6070  -33.8665   24.2310 N   0  0  0  0  0  0
  -23.4374  -30.5043   21.5338 C   0  0  2  0  0  0
  -24.8714  -28.9684   20.0948 C   0  0  0  0  0  0
  -22.7316  -29.5065   22.4755 C   0  0  0  0  0  0
  -18.0313  -28.1336   22.8252 C   0  0  0  0  0  0
  -24.1515  -36.7344   23.2607 C   0  0  0  0  0  0
  -25.9902  -30.7347   21.4080 C   0  0  0  0  0  0
  -26.0543  -29.3505   20.7526 C   0  0  0  0  0  0
  -27.1836  -28.4518   20.7811 C   0  0  0  0  0  0
  -25.9365  -26.9411   19.3536 C   0  0  0  0  0  0
  -24.8391  -27.7906   19.3599 C   0  0  0  0  0  0
  -23.6520  -29.8701   20.1431 C   0  0  0  0  0  0
  -25.4151  -36.3104   24.0308 C   0  0  1  0  0  0
  -20.5660  -28.4467   23.1404 C   0  0  2  0  0  0
  -20.6788  -26.9777   22.6057 C   0  0  0  0  0  0
  -19.6070  -26.6851   21.5291 C   0  0  0  0  0  0
  -18.2235  -26.7733   22.1812 C   0  0  0  0  0  0
  -19.1211  -28.9249   23.2816 C   0  0  0  0  0  0
  -18.8532  -30.1832   23.8698 C   0  0  0  0  0  0
  -17.5198  -30.6156   24.0512 C   0  0  0  0  0  0
  -25.9145  -34.9497   23.5114 C   0  0  0  0  0  0
  -16.4525  -29.8303   23.5863 C   0  0  0  0  0  0
  -16.7139  -28.6227   22.9192 C   0  0  0  0  0  0
  -26.4586  -31.6561   25.0663 C   0  0  0  0  0  0
  -25.3769  -31.3727   26.1338 C   0  0  0  0  0  0
  -27.0449  -30.2952   24.6190 C   0  0  0  0  0  0
  -27.6124  -32.4222   25.7529 C   0  0  0  0  0  0
  -27.5589  -37.1825   24.8468 C   0  0  0  0  0  0
  -21.3944  -29.4078   22.3915 N   0  0  0  0  0  0
  -26.4339  -37.3767   23.9398 N   0  0  0  0  0  0
  -24.7087  -31.0490   22.0997 N   0  0  0  0  0  0
  -23.3796  -28.8386   23.2764 O   0  0  0  0  0  0
  -28.0243  -26.0763   20.1641 O   0  0  0  0  0  0
  -26.5552  -34.9011   22.4566 O   0  0  0  0  0  0
  -23.5607  -32.1691   23.7090 O   0  0  0  0  0  0
  -28.2247  -17.4542   22.0156 C   0  0  0  0  0  0
  -27.5022  -19.4427   20.6738 C   0  0  0  0  0  0
  -28.1295  -18.7531   19.5675 C   0  0  0  0  0  0
  -27.4365  -18.6381   21.8680 C   0  0  0  0  0  0
  -29.0213  -16.8848   20.9747 C   0  0  0  0  0  0
  -28.9020  -17.5456   19.7177 C   0  0  0  0  0  0
  -24.6800  -20.0149   23.9028 C   0  0  0  0  0  0
  -24.0084  -19.2189   22.7856 C   0  0  0  0  0  0
  -27.2375  -24.0430   18.5782 C   0  0  0  0  0  0
  -26.1948  -19.9063   23.6668 C   0  0  0  0  0  0
  -25.0909  -18.2467   22.3042 C   0  0  0  0  0  0
  -26.5032  -22.6897   18.8046 C   0  0  0  0  0  0
  -27.8628  -23.2399   20.6925 C   0  0  0  0  0  0
  -27.4022  -24.6567   20.0233 C   0  0  1  0  0  0
  -27.7532  -19.1795   18.1490 C   0  0  0  0  0  0
  -26.5588  -20.7401   20.4882 C   0  0  0  0  0  0
  -26.3778  -18.7453   22.7939 N   0  0  0  0  0  0
  -29.6260  -15.5571   21.2084 N   0  0  0  0  0  0
  -26.8882  -22.2156   20.1356 N   0  3  2  0  0  0
  -29.4234  -16.9417   18.6368 F   0  0  0  0  0  0
  -31.4874  -12.6111   19.1355 H   0  0  0  0  0  0
  -30.4439  -11.4072   19.8413 H   0  0  0  0  0  0
  -29.7884  -11.8082   17.4512 H   0  0  0  0  0  0
  -29.6552  -13.5248   17.7393 H   0  0  0  0  0  0
  -27.8494  -11.3157   18.7977 H   0  0  0  0  0  0
  -27.3926  -12.6512   17.7819 H   0  0  0  0  0  0
  -27.6867  -14.2487   19.5706 H   0  0  0  0  0  0
  -28.7329  -11.9233   21.2932 H   0  0  0  0  0  0
  -28.4165  -13.5148   21.8957 H   0  0  0  0  0  0
  -25.2747   -9.5711   22.4700 H   0  0  0  0  0  0
  -24.0015   -7.4672   22.7480 H   0  0  0  0  0  0
  -21.0834   -8.8777   19.8990 H   0  0  0  0  0  0
  -22.3671  -10.9661   19.6168 H   0  0  0  0  0  0
  -21.1996   -7.6131   23.9706 H   0  0  0  0  0  0
  -21.1469   -6.0517   25.9070 H   0  0  0  0  0  0
  -22.0600   -2.7606   23.2858 H   0  0  0  0  0  0
  -22.4108  -11.9971   22.4779 H   0  0  0  0  0  0
  -21.1171  -13.1328   22.2572 H   0  0  0  0  0  0
  -24.6215  -15.8124   20.4048 H   0  0  0  0  0  0
  -26.2656  -15.6244   20.0118 H   0  0  0  0  0  0
  -26.7548  -32.5512   23.1191 H   0  0  0  0  0  0
  -25.0384  -33.9923   25.0579 H   0  0  0  0  0  0
  -22.7778  -31.3575   21.3973 H   0  0  0  0  0  0
  -23.3745  -35.9686   23.3211 H   0  0  0  0  0  0
  -24.3717  -36.8947   22.2034 H   0  0  0  0  0  0
  -23.7406  -37.6598   23.6680 H   0  0  0  0  0  0
  -26.1524  -31.4955   20.6428 H   0  0  0  0  0  0
  -26.8611  -30.7673   22.0448 H   0  0  0  0  0  0
  -28.0949  -28.7290   21.3164 H   0  0  0  0  0  0
  -25.8096  -26.1279   18.6789 H   0  0  0  0  0  0
  -24.0017  -27.5148   18.7441 H   0  0  0  0  0  0
  -23.7913  -30.6779   19.4166 H   0  0  0  0  0  0
  -22.7558  -29.3164   19.8410 H   0  0  0  0  0  0
  -25.1318  -36.1891   25.0801 H   0  0  0  0  0  0
  -21.0297  -28.4611   24.1173 H   0  0  0  0  0  0
  -20.4837  -26.2908   23.4435 H   0  0  0  0  0  0
  -21.6847  -26.7565   22.2436 H   0  0  0  0  0  0
  -19.7464  -25.7169   21.0886 H   0  0  0  0  0  0
  -19.6631  -27.4057   20.7169 H   0  0  0  0  0  0
  -17.4156  -26.5597   21.4806 H   0  0  0  0  0  0
  -18.1340  -26.0113   22.9749 H   0  0  0  0  0  0
  -19.6623  -30.8320   24.1751 H   0  0  0  0  0  0
  -17.2819  -31.5427   24.5697 H   0  0  0  0  0  0
  -15.4166  -30.1194   23.6955 H   0  0  0  0  0  0
  -15.8838  -28.0637   22.5206 H   0  0  0  0  0  0
  -24.5977  -30.7069   25.7598 H   0  0  0  0  0  0
  -24.8969  -32.2927   26.4684 H   0  0  0  0  0  0
  -25.8004  -30.8934   27.0195 H   0  0  0  0  0  0
  -26.3091  -29.6681   24.1143 H   0  0  0  0  0  0
  -27.4062  -29.7205   25.4741 H   0  0  0  0  0  0
  -27.8996  -30.4151   23.9527 H   0  0  0  0  0  0
  -27.2773  -33.3538   26.2154 H   0  0  0  0  0  0
  -28.3997  -32.6743   25.0389 H   0  0  0  0  0  0
  -28.0819  -31.8324   26.5439 H   0  0  0  0  0  0
  -28.2530  -38.0149   24.7459 H   0  0  0  0  0  0
  -28.1124  -36.2681   24.6306 H   0  0  0  0  0  0
  -27.2333  -37.1485   25.8869 H   0  0  0  0  0  0
  -20.9010  -30.1824   21.9441 H   0  0  0  0  0  0
  -26.0121  -38.2814   24.1342 H   0  0  0  0  0  0
  -28.0865  -16.8750   22.9225 H   0  0  0  0  0  0
  -24.4239  -19.5902   24.8729 H   0  0  0  0  0  0
  -24.3391  -21.0516   23.9079 H   0  0  0  0  0  0
  -23.7262  -19.8850   21.9686 H   0  0  0  0  0  0
  -23.0897  -18.7108   23.0987 H   0  0  0  0  0  0
  -26.6778  -24.6004   17.8290 H   0  0  0  0  0  0
  -28.2171  -23.8606   18.1262 H   0  0  0  0  0  0
  -26.7189  -19.7639   24.6084 H   0  0  0  0  0  0
  -26.6135  -20.8166   23.2475 H   0  0  0  0  0  0
  -25.0480  -18.1530   21.2117 H   0  0  0  0  0  0
  -24.9124  -17.2366   22.6895 H   0  0  0  0  0  0
  -26.6505  -21.9359   18.0146 H   0  0  0  0  0  0
  -25.4373  -22.8985   18.9370 H   0  0  0  0  0  0
  -27.8756  -23.2120   21.7845 H   0  0  0  0  0  0
  -28.8284  -22.9285   20.2729 H   0  0  0  0  0  0
  -26.3902  -24.7804   20.4481 H   0  0  0  0  0  0
  -26.6703  -19.1023   18.0176 H   0  0  0  0  0  0
  -28.1969  -18.5106   17.4081 H   0  0  0  0  0  0
  -28.0780  -20.1813   17.9064 H   0  0  0  0  0  0
  -25.8876  -20.7992   21.3336 H   0  0  0  0  0  0
  -25.8302  -20.4175   19.7445 H   0  0  0  0  0  0
  -29.0509  -15.0122   21.8311 H   0  0  0  0  0  0
  -26.0750  -22.5667   20.6436 H   0  0  0  0  0  0
  1 25  1  0  0  0
  1 30  2  0  0  0
  1 88  1  0  0  0
  2  3  1  0  0  0
  2 25  1  0  0  0
  2 91  1  0  0  0
  2 92  1  0  0  0
  3  4  1  0  0  0
  3 93  1  0  0  0
  3 94  1  0  0  0
  4  5  1  0  0  0
  4 95  1  0  0  0
  4 96  1  0  0  0
  5  6  1  0  0  0
  5 26  1  0  0  0
  5 97  1  0  0  0
  6 25  1  0  0  0
  6 98  1  0  0  0
  6 99  1  0  0  0
  7  8  2  0  0  0
  7 26  1  0  0  0
  7 29  1  0  0  0
  8  9  1  0  0  0
  8 22  1  0  0  0
  9 10  1  0  0  0
  9 27  2  0  0  0
 10 11  2  0  0  0
 10 15  1  0  0  0
 11 12  1  0  0  0
 11100  1  0  0  0
 12 13  2  0  0  0
 12101  1  0  0  0
 13 14  1  0  0  0
 13 31  1  0  0  0
 14 15  2  0  0  0
 14102  1  0  0  0
 15103  1  0  0  0
 16 17  2  0  0  0
 16 21  1  0  0  0
 16 31  1  0  0  0
 17 18  1  0  0  0
 17104  1  0  0  0
 18 19  2  0  0  0
 18105  1  0  0  0
 19 20  1  0  0  0
 19 24  1  0  0  0
 20 21  2  0  0  0
 20106  1  0  0  0
 21 23  1  0  0  0
 22 28  1  0  0  0
 22 32  2  0  0  0
 26 27  1  0  0  0
 28107  1  0  0  0
 28108  1  0  0  0
 29109  1  0  0  0
 29110  1  0  0  0
 33 34  1  0  0  0
 33 66  1  0  0  0
 33 70  2  0  0  0
 34 36  1  0  0  0
 34 59  1  0  0  0
 34111  1  0  0  0
 35 44  2  0  0  0
 35 45  1  0  0  0
 35 68  1  0  0  0
 36 56  1  0  0  0
 36112  1  0  0  0
 37 39  1  0  0  0
 37 47  1  0  0  0
 37 66  1  0  0  0
 37113  1  0  0  0
 38 43  2  0  0  0
 38 46  1  0  0  0
 38 47  1  0  0  0
 39 64  1  0  0  0
 39 67  2  0  0  0
 40 52  1  0  0  0
 40 53  2  0  0  0
 40 58  1  0  0  0
 41114  1  0  0  0
 41115  1  0  0  0
 41116  1  0  0  0
 41 48  1  0  0  0
 42 43  1  0  0  0
 42 66  1  0  0  0
 42117  1  0  0  0
 42118  1  0  0  0
 43 44  1  0  0  0
 44119  1  0  0  0
 45 46  2  0  0  0
 45120  1  0  0  0
 46121  1  0  0  0
 47122  1  0  0  0
 47123  1  0  0  0
 48 56  1  0  0  0
 48 65  1  0  0  0
 48124  1  0  0  0
 49 50  1  0  0  0
 49 53  1  0  0  0
 49 64  1  0  0  0
 49125  1  0  0  0
 50 51  1  0  0  0
 50126  1  0  0  0
 50127  1  0  0  0
 51 52  1  0  0  0
 51128  1  0  0  0
 51129  1  0  0  0
 52130  1  0  0  0
 52131  1  0  0  0
 53 54  1  0  0  0
 54 55  2  0  0  0
 54132  1  0  0  0
 55 57  1  0  0  0
 55133  1  0  0  0
 56 69  2  0  0  0
 57 58  2  0  0  0
 57134  1  0  0  0
 58135  1  0  0  0
 59 60  1  0  0  0
 59 61  1  0  0  0
 59 62  1  0  0  0
 60136  1  0  0  0
 60137  1  0  0  0
 60138  1  0  0  0
 61139  1  0  0  0
 61140  1  0  0  0
 61141  1  0  0  0
 62142  1  0  0  0
 62143  1  0  0  0
 62144  1  0  0  0
 63 65  1  0  0  0
 63145  1  0  0  0
 63146  1  0  0  0
 63147  1  0  0  0
 64148  1  0  0  0
 65149  1  0  0  0
 68 84  1  0  0  0
 71 74  2  0  0  0
 71 75  1  0  0  0
 71150  1  0  0  0
 72 73  2  0  0  0
 72 74  1  0  0  0
 72 86  1  0  0  0
 73 76  1  0  0  0
 73 85  1  0  0  0
 74 87  1  0  0  0
 75 76  2  0  0  0
 75 88  1  0  0  0
 76 90  1  0  0  0
 77 78  1  0  0  0
 77 80  1  0  0  0
 77151  1  0  0  0
 77152  1  0  0  0
 78 81  1  0  0  0
 78153  1  0  0  0
 78154  1  0  0  0
 79 82  1  0  0  0
 79 84  1  0  0  0
 79155  1  0  0  0
 79156  1  0  0  0
 80 87  1  0  0  0
 80157  1  0  0  0
 80158  1  0  0  0
 81 87  1  0  0  0
 81159  1  0  0  0
 81160  1  0  0  0
 82 89  1  0  0  0
 82161  1  0  0  0
 82162  1  0  0  0
 83 84  1  0  0  0
 83 89  1  0  0  0
 83163  1  0  0  0
 83164  1  0  0  0
 84165  1  0  0  0
 85166  1  0  0  0
 85167  1  0  0  0
 85168  1  0  0  0
 86169  1  0  0  0
 86170  1  0  0  0
 86 89  1  0  0  0
 88171  1  0  0  0
 89172  1  0  0  0
M  CHG  1  89   1
M  ISO  4   1 100  68 101  84 101  88 100
M  END
> <chiral flag>
0

> <version>
0

> <s_m_source_file>
/data/baiqing/PycharmProjects/Reinvent-master-3.2/result/LINK_invent/BTK/process_docking_weight1_custom_product_contain_oxygen_bond_distance_aromatic_linkinvent_7_9_3/rearranged_h_0029.sdf

> <i_m_source_file_index>
80

> <r_mmod_Potential_Energy-OPLS-2005>
556.444946289062

> <r_mmod_Stretch_Energy-OPLS-2005>
158.759460449219

> <r_mmod_Bend_Energy-OPLS-2005>
399.649200439453

> <r_mmod_Torsional_Energy-OPLS-2005>
418.769500732422

> <r_mmod_Improper_Torsional_Energy-OPLS-2005>
19.5110359191895

> <r_mmod_Van_der_Waal_Energy-OPLS-2005>
156.08903503418

> <r_mmod_Electrostatic_Energy-OPLS-2005>
-288.995483398438

> <r_mmod_Solvation_Energy-OPLS-2005>
-466.861755371094

> <b_mmod_Minimization_Converged-OPLS-2005>
0

> <r_mmod_RMS_Derivative-OPLS-2005>
27.0095348358154

$$$$
80
                    3D
 Structure written by MMmdl.
145153  0  0  1  0            999 V2000
  -30.3682  -15.4292   20.3363 C   0  0  0  0  0  0
  -30.4330  -12.9169   19.5601 C   0  0  0  0  0  0
  -29.5482  -12.6179   18.3192 C   0  0  0  0  0  0
  -28.1040  -12.3075   18.7426 C   0  0  0  0  0  0
  -27.6072  -13.2930   19.8273 C   0  0  2  0  0  0
  -28.6275  -13.5294   20.9651 C   0  0  0  0  0  0
  -25.2358  -13.8277   20.5770 C   0  0  0  0  0  0
  -24.1725  -13.0442   20.9261 C   0  0  0  0  0  0
  -24.6404  -11.6946   20.8756 C   0  0  0  0  0  0
  -23.9105  -10.4297   21.0399 C   0  0  0  0  0  0
  -24.3644   -9.4210   21.9179 C   0  0  0  0  0  0
  -23.6309   -8.2250   22.0754 C   0  0  0  0  0  0
  -22.4289   -8.0288   21.3545 C   0  0  0  0  0  0
  -21.9932   -9.0262   20.4645 C   0  0  0  0  0  0
  -22.7271  -10.2136   20.3051 C   0  0  0  0  0  0
  -21.6858   -6.0740   22.5278 C   0  0  0  0  0  0
  -21.4019   -6.5643   23.8212 C   0  0  0  0  0  0
  -21.3660   -5.6794   24.9173 C   0  0  0  0  0  0
  -21.6043   -4.3057   24.7223 C   0  0  0  0  0  0
  -21.8819   -3.8149   23.4344 C   0  0  0  0  0  0
  -21.9194   -4.6967   22.3401 C   0  0  0  0  0  0
  -22.7740  -13.5181   21.1906 C   0  0  0  0  0  0
  -22.1662   -4.2153   21.0978 F   0  0  0  0  0  0
  -21.5627   -3.4539   25.7735 F   0  0  0  0  0  0
  -29.8474  -14.0826   20.3464 N   0  0  0  0  0  0
  -26.2798  -12.9581   20.3239 N   0  0  0  0  0  0
  -25.9347  -11.6667   20.5714 N   0  0  0  0  0  0
  -22.0406  -12.8158   22.0461 N   0  0  0  0  0  0
  -25.3986  -15.2017   20.4228 N   0  0  0  0  0  0
  -31.5758  -15.4161   20.0431 O   0  0  0  0  0  0
  -21.6649   -6.8887   21.4241 O   0  0  0  0  0  0
  -22.3415  -14.5482   20.6748 O   0  0  0  0  0  0
  -24.6716  -31.8111   23.1601 C   0  0  0  0  0  0
  -25.9352  -32.4521   23.8108 C   0  0  1  0  0  0
  -27.2275  -26.8212   20.1955 C   0  0  0  0  0  0
  -25.5977  -33.8342   24.2003 N   0  0  0  0  0  0
  -23.4929  -30.4161   21.5101 C   0  0  2  0  0  0
  -24.9509  -28.7814   20.1062 C   0  0  0  0  0  0
  -22.7713  -29.4367   22.4735 C   0  0  0  0  0  0
  -18.0330  -28.1414   22.8461 C   0  0  0  0  0  0
  -24.1495  -36.7179   23.2651 C   0  0  0  0  0  0
  -26.0659  -30.5808   21.4087 C   0  0  0  0  0  0
  -26.1321  -29.1596   20.7543 C   0  0  0  0  0  0
  -27.2544  -28.1994   20.7780 C   0  0  0  0  0  0
  -26.0214  -26.6241   19.4822 C   0  0  0  0  0  0
  -24.9273  -27.5378   19.4488 C   0  0  0  0  0  0
  -23.7396  -29.7207   20.1397 C   0  0  0  0  0  0
  -25.4141  -36.2928   24.0290 C   0  0  1  0  0  0
  -20.5959  -28.3764   23.1166 C   0  0  2  0  0  0
  -20.6800  -26.9434   22.5405 C   0  0  0  0  0  0
  -19.5777  -26.6372   21.5216 C   0  0  0  0  0  0
  -18.1959  -26.7945   22.1620 C   0  0  0  0  0  0
  -19.1593  -28.8912   23.2798 C   0  0  0  0  0  0
  -18.9502  -30.1499   23.8838 C   0  0  0  0  0  0
  -17.6493  -30.6600   24.0552 C   0  0  0  0  0  0
  -25.9112  -34.9314   23.4978 C   0  0  0  0  0  0
  -16.5384  -29.9084   23.6346 C   0  0  0  0  0  0
  -16.7311  -28.6506   23.0364 C   0  0  0  0  0  0
  -26.4571  -31.6517   25.0687 C   0  0  0  0  0  0
  -25.3668  -31.3801   26.1323 C   0  0  0  0  0  0
  -27.0492  -30.2870   24.6511 C   0  0  0  0  0  0
  -27.6038  -32.4358   25.7497 C   0  0  0  0  0  0
  -27.5567  -37.1745   24.8465 C   0  0  0  0  0  0
  -21.4370  -29.3029   22.3494 N   0  0  0  0  0  0
  -26.4275  -37.3678   23.9407 N   0  0  0  0  0  0
  -24.7654  -30.9666   22.0792 N   0  0  0  0  0  0
  -23.4210  -28.7960   23.3034 O   0  0  0  0  0  0
  -28.2042  -25.6662   20.3595 O   0  0  0  0  0  0
  -26.5743  -34.8872   22.4589 O   0  0  0  0  0  0
  -23.5763  -32.1133   23.6628 O   0  0  0  0  0  0
  -29.1034  -19.7191   20.6632 C   0  0  0  0  0  0
  -29.9817  -18.5542   18.7489 C   0  0  0  0  0  0
  -29.0174  -21.1610   20.0213 C   0  0  0  0  0  0
  -29.5851  -18.3305   20.0846 C   0  0  0  0  0  0
  -29.4179  -21.0285   18.6681 C   0  0  0  0  0  0
  -29.8836  -19.8104   18.0825 C   0  0  0  0  0  0
  -28.6652  -22.8233   20.4909 C   0  0  0  0  0  0
  -28.2277  -24.1536   19.9260 C   0  0  0  0  0  0
  -29.6156  -16.7319   20.5634 N   0  0  0  0  0  0
  -29.4032  -22.1384   17.8881 F   0  0  0  0  0  0
  -30.3726  -19.8521   16.4246 Cl  0  0  0  0  0  0
  -31.4488  -13.1306   19.2260 H   0  0  0  0  0  0
  -30.5238  -12.0303   20.1900 H   0  0  0  0  0  0
  -29.9601  -11.7860   17.7464 H   0  0  0  0  0  0
  -29.5553  -13.4831   17.6546 H   0  0  0  0  0  0
  -28.0857  -11.2909   19.1371 H   0  0  0  0  0  0
  -27.4388  -12.3150   17.8783 H   0  0  0  0  0  0
  -27.5040  -14.2444   19.3038 H   0  0  0  0  0  0
  -28.8251  -12.6139   21.5247 H   0  0  0  0  0  0
  -28.2310  -14.2495   21.6823 H   0  0  0  0  0  0
  -25.2785   -9.5686   22.4761 H   0  0  0  0  0  0
  -24.0012   -7.4643   22.7478 H   0  0  0  0  0  0
  -21.0862   -8.8788   19.8952 H   0  0  0  0  0  0
  -22.3728  -10.9676   19.6163 H   0  0  0  0  0  0
  -21.2015   -7.6151   23.9716 H   0  0  0  0  0  0
  -21.1481   -6.0525   25.9076 H   0  0  0  0  0  0
  -22.0596   -2.7612   23.2844 H   0  0  0  0  0  0
  -22.4045  -11.9830   22.4850 H   0  0  0  0  0  0
  -21.1016  -13.1158   22.2669 H   0  0  0  0  0  0
  -24.6281  -15.8512   20.5377 H   0  0  0  0  0  0
  -26.2415  -15.6448   20.0810 H   0  0  0  0  0  0
  -26.7426  -32.5024   23.0818 H   0  0  0  0  0  0
  -25.0046  -33.9401   25.0101 H   0  0  0  0  0  0
  -22.8119  -31.2503   21.3293 H   0  0  0  0  0  0
  -23.3773  -35.9492   23.3268 H   0  0  0  0  0  0
  -24.3567  -36.8880   22.2074 H   0  0  0  0  0  0
  -23.7237  -37.6342   23.6748 H   0  0  0  0  0  0
  -26.2595  -31.3149   20.6255 H   0  0  0  0  0  0
  -26.9206  -30.6413   22.0703 H   0  0  0  0  0  0
  -28.1382  -28.4813   21.3325 H   0  0  0  0  0  0
  -25.8814  -25.6720   18.9908 H   0  0  0  0  0  0
  -24.0318  -27.2419   18.9196 H   0  0  0  0  0  0
  -23.9009  -30.4849   19.3786 H   0  0  0  0  0  0
  -22.8476  -29.1783   19.8214 H   0  0  0  0  0  0
  -25.1346  -36.1706   25.0781 H   0  0  0  0  0  0
  -21.0047  -28.3384   24.1290 H   0  0  0  0  0  0
  -20.5669  -26.2387   23.3657 H   0  0  0  0  0  0
  -21.6663  -26.7391   22.1220 H   0  0  0  0  0  0
  -19.6934  -25.6266   21.1286 H   0  0  0  0  0  0
  -19.6719  -27.3148   20.6720 H   0  0  0  0  0  0
  -17.4228  -26.6688   21.4023 H   0  0  0  0  0  0
  -18.0348  -26.0101   22.9030 H   0  0  0  0  0  0
  -19.7977  -30.7332   24.2180 H   0  0  0  0  0  0
  -17.5044  -31.6274   24.5166 H   0  0  0  0  0  0
  -15.5381  -30.2967   23.7705 H   0  0  0  0  0  0
  -15.8712  -28.0804   22.7113 H   0  0  0  0  0  0
  -24.5872  -30.7129   25.7627 H   0  0  0  0  0  0
  -24.8834  -32.3012   26.4588 H   0  0  0  0  0  0
  -25.7872  -30.9071   27.0207 H   0  0  0  0  0  0
  -26.3186  -29.6507   24.1505 H   0  0  0  0  0  0
  -27.3962  -29.7284   25.5215 H   0  0  0  0  0  0
  -27.9150  -30.4023   23.9989 H   0  0  0  0  0  0
  -27.2588  -33.3715   26.1909 H   0  0  0  0  0  0
  -28.3932  -32.6831   25.0387 H   0  0  0  0  0  0
  -28.0616  -31.8601   26.5551 H   0  0  0  0  0  0
  -28.2557  -38.0066   24.7517 H   0  0  0  0  0  0
  -28.1091  -36.2591   24.6289 H   0  0  0  0  0  0
  -27.2283  -37.1378   25.8867 H   0  0  0  0  0  0
  -20.9650  -29.8693   21.6584 H   0  0  0  0  0  0
  -26.0112  -38.2730   24.1419 H   0  0  0  0  0  0
  -28.7823  -19.6806   21.6941 H   0  0  0  0  0  0
  -30.3382  -17.7135   18.1723 H   0  0  0  0  0  0
  -28.9488  -22.9445   21.5262 H   0  0  0  0  0  0
  -27.9080  -24.1268   18.8936 H   0  0  0  0  0  0
  -28.7798  -16.5098   21.0859 H   0  0  0  0  0  0
  1 25  1  0  0  0
  1 30  2  0  0  0
  1 79  1  0  0  0
  2  3  1  0  0  0
  2 25  1  0  0  0
  2 82  1  0  0  0
  2 83  1  0  0  0
  3  4  1  0  0  0
  3 84  1  0  0  0
  3 85  1  0  0  0
  4  5  1  0  0  0
  4 86  1  0  0  0
  4 87  1  0  0  0
  5  6  1  0  0  0
  5 26  1  0  0  0
  5 88  1  0  0  0
  6 25  1  0  0  0
  6 89  1  0  0  0
  6 90  1  0  0  0
  7  8  2  0  0  0
  7 26  1  0  0  0
  7 29  1  0  0  0
  8  9  1  0  0  0
  8 22  1  0  0  0
  9 10  1  0  0  0
  9 27  2  0  0  0
 10 11  2  0  0  0
 10 15  1  0  0  0
 11 12  1  0  0  0
 11 91  1  0  0  0
 12 13  2  0  0  0
 12 92  1  0  0  0
 13 14  1  0  0  0
 13 31  1  0  0  0
 14 15  2  0  0  0
 14 93  1  0  0  0
 15 94  1  0  0  0
 16 17  2  0  0  0
 16 21  1  0  0  0
 16 31  1  0  0  0
 17 18  1  0  0  0
 17 95  1  0  0  0
 18 19  2  0  0  0
 18 96  1  0  0  0
 19 20  1  0  0  0
 19 24  1  0  0  0
 20 21  2  0  0  0
 20 97  1  0  0  0
 21 23  1  0  0  0
 22 28  1  0  0  0
 22 32  2  0  0  0
 26 27  1  0  0  0
 28 98  1  0  0  0
 28 99  1  0  0  0
 29100  1  0  0  0
 29101  1  0  0  0
 33 34  1  0  0  0
 33 66  1  0  0  0
 33 70  2  0  0  0
 34 36  1  0  0  0
 34 59  1  0  0  0
 34102  1  0  0  0
 35 44  2  0  0  0
 35 45  1  0  0  0
 35 68  1  0  0  0
 36 56  1  0  0  0
 36103  1  0  0  0
 37 39  1  0  0  0
 37 47  1  0  0  0
 37 66  1  0  0  0
 37104  1  0  0  0
 38 43  2  0  0  0
 38 46  1  0  0  0
 38 47  1  0  0  0
 39 64  1  0  0  0
 39 67  2  0  0  0
 40 52  1  0  0  0
 40 53  2  0  0  0
 40 58  1  0  0  0
 41105  1  0  0  0
 41106  1  0  0  0
 41107  1  0  0  0
 41 48  1  0  0  0
 42 43  1  0  0  0
 42 66  1  0  0  0
 42108  1  0  0  0
 42109  1  0  0  0
 43 44  1  0  0  0
 44110  1  0  0  0
 45 46  2  0  0  0
 45111  1  0  0  0
 46112  1  0  0  0
 47113  1  0  0  0
 47114  1  0  0  0
 48 56  1  0  0  0
 48 65  1  0  0  0
 48115  1  0  0  0
 49 50  1  0  0  0
 49 53  1  0  0  0
 49 64  1  0  0  0
 49116  1  0  0  0
 50 51  1  0  0  0
 50117  1  0  0  0
 50118  1  0  0  0
 51 52  1  0  0  0
 51119  1  0  0  0
 51120  1  0  0  0
 52121  1  0  0  0
 52122  1  0  0  0
 53 54  1  0  0  0
 54 55  2  0  0  0
 54123  1  0  0  0
 55 57  1  0  0  0
 55124  1  0  0  0
 56 69  2  0  0  0
 57 58  2  0  0  0
 57125  1  0  0  0
 58126  1  0  0  0
 59 60  1  0  0  0
 59 61  1  0  0  0
 59 62  1  0  0  0
 60127  1  0  0  0
 60128  1  0  0  0
 60129  1  0  0  0
 61130  1  0  0  0
 61131  1  0  0  0
 61132  1  0  0  0
 62133  1  0  0  0
 62134  1  0  0  0
 62135  1  0  0  0
 63 65  1  0  0  0
 63136  1  0  0  0
 63137  1  0  0  0
 63138  1  0  0  0
 64139  1  0  0  0
 65140  1  0  0  0
 68 78  1  0  0  0
 71 73  2  0  0  0
 71 74  1  0  0  0
 71141  1  0  0  0
 72 74  2  0  0  0
 72 76  1  0  0  0
 72142  1  0  0  0
 73 75  1  0  0  0
 73 77  1  0  0  0
 74 79  1  0  0  0
 75 76  2  0  0  0
 75 80  1  0  0  0
 76 81  1  0  0  0
 77 78  2  0  0  0
 77143  1  0  0  0
 78144  1  0  0  0
 79145  1  0  0  0
M  ISO  4   1 100  68 101  78 101  79 100
M  END
> <chiral flag>
0

> <version>
0

> <s_m_source_file>
/data/baiqing/PycharmProjects/Reinvent-master-3.2/result/LINK_invent/BTK/process_docking_weight1_custom_product_contain_oxygen_bond_distance_aromatic_linkinvent_7_9_3/rearranged_h_0029.sdf

> <i_m_source_file_index>
81

> <r_mmod_Potential_Energy-OPLS-2005>
1675.22570800781

> <r_mmod_Stretch_Energy-OPLS-2005>
731.333679199219

> <r_mmod_Bend_Energy-OPLS-2005>
453.007537841797

> <r_mmod_Torsional_Energy-OPLS-2005>
247.547698974609

> <r_mmod_Improper_Torsional_Energy-OPLS-2005>
5.10806512832642

> <r_mmod_Van_der_Waal_Energy-OPLS-2005>
124.481025695801

> <r_mmod_Electrostatic_Energy-OPLS-2005>
-316.016937255859

> <r_mmod_Solvation_Energy-OPLS-2005>
-215.66943359375

> <b_mmod_Minimization_Converged-OPLS-2005>
0

> <r_mmod_RMS_Derivative-OPLS-2005>
0.163532733917236

$$$$
81
                    3D
 Structure written by MMmdl.
159168  0  0  1  0            999 V2000
  -30.6210  -14.8102   20.4366 C   0  0  0  0  0  0
  -30.4222  -12.4710   19.5246 C   0  0  0  0  0  0
  -29.5174  -12.4735   18.2697 C   0  0  0  0  0  0
  -28.0357  -12.3315   18.6584 C   0  0  0  0  0  0
  -27.6352  -13.2493   19.8471 C   0  0  2  0  0  0
  -28.6744  -13.2326   20.9930 C   0  0  0  0  0  0
  -25.2462  -13.8258   20.5755 C   0  0  0  0  0  0
  -24.1762  -13.0445   20.9187 C   0  0  0  0  0  0
  -24.6390  -11.6944   20.8717 C   0  0  0  0  0  0
  -23.9102  -10.4273   21.0372 C   0  0  0  0  0  0
  -24.3634   -9.4209   21.9151 C   0  0  0  0  0  0
  -23.6324   -8.2236   22.0759 C   0  0  0  0  0  0
  -22.4303   -8.0246   21.3556 C   0  0  0  0  0  0
  -21.9926   -9.0210   20.4635 C   0  0  0  0  0  0
  -22.7278  -10.2081   20.3047 C   0  0  0  0  0  0
  -21.6885   -6.0702   22.5286 C   0  0  0  0  0  0
  -21.4027   -6.5633   23.8207 C   0  0  0  0  0  0
  -21.3651   -5.6798   24.9182 C   0  0  0  0  0  0
  -21.6069   -4.3051   24.7230 C   0  0  0  0  0  0
  -21.8834   -3.8137   23.4359 C   0  0  0  0  0  0
  -21.9175   -4.6931   22.3410 C   0  0  0  0  0  0
  -22.7777  -13.5183   21.1837 C   0  0  0  0  0  0
  -22.1635   -4.2130   21.0969 F   0  0  0  0  0  0
  -21.5652   -3.4506   25.7712 F   0  0  0  0  0  0
  -29.9774  -13.5802   20.4131 N   0  0  0  0  0  0
  -26.2888  -12.9494   20.3286 N   0  0  0  0  0  0
  -25.9325  -11.6630   20.5704 N   0  0  0  0  0  0
  -22.0522  -12.8052   22.0372 N   0  0  0  0  0  0
  -25.4117  -15.1992   20.4274 N   0  0  0  0  0  0
  -31.7931  -14.8694   20.0693 O   0  0  0  0  0  0
  -21.6724   -6.8799   21.4221 O   0  0  0  0  0  0
  -22.3355  -14.5472   20.6702 O   0  0  0  0  0  0
  -24.6381  -31.8495   23.1881 C   0  0  0  0  0  0
  -25.9193  -32.4705   23.8276 C   0  0  1  0  0  0
  -27.2484  -27.1959   20.1493 C   0  0  0  0  0  0
  -25.6000  -33.8512   24.2237 N   0  0  0  0  0  0
  -23.4409  -30.4688   21.5280 C   0  0  2  0  0  0
  -24.8982  -28.8983   20.1174 C   0  0  0  0  0  0
  -22.7524  -29.4622   22.4806 C   0  0  0  0  0  0
  -18.0322  -28.1368   22.8469 C   0  0  0  0  0  0
  -24.1515  -36.7216   23.2638 C   0  0  0  0  0  0
  -25.9942  -30.7423   21.3813 C   0  0  0  0  0  0
  -26.0717  -29.3571   20.7284 C   0  0  0  0  0  0
  -27.2435  -28.5185   20.7363 C   0  0  0  0  0  0
  -26.0489  -26.8338   19.4897 C   0  0  0  0  0  0
  -24.8962  -27.6441   19.4897 C   0  0  0  0  0  0
  -23.6677  -29.7874   20.1525 C   0  0  0  0  0  0
  -25.4145  -36.3030   24.0331 C   0  0  1  0  0  0
  -20.5933  -28.3736   23.1184 C   0  0  2  0  0  0
  -20.6797  -26.9428   22.5371 C   0  0  0  0  0  0
  -19.5771  -26.6370   21.5181 C   0  0  0  0  0  0
  -18.1947  -26.7924   22.1584 C   0  0  0  0  0  0
  -19.1572  -28.8854   23.2850 C   0  0  0  0  0  0
  -18.9492  -30.1440   23.8903 C   0  0  0  0  0  0
  -17.6495  -30.6576   24.0555 C   0  0  0  0  0  0
  -25.9085  -34.9412   23.5081 C   0  0  0  0  0  0
  -16.5394  -29.9070   23.6318 C   0  0  0  0  0  0
  -16.7315  -28.6467   23.0378 C   0  0  0  0  0  0
  -26.4559  -31.6516   25.0661 C   0  0  0  0  0  0
  -25.3774  -31.3621   26.1346 C   0  0  0  0  0  0
  -27.0429  -30.2933   24.6172 C   0  0  0  0  0  0
  -27.6156  -32.4210   25.7436 C   0  0  0  0  0  0
  -27.5591  -37.1780   24.8478 C   0  0  0  0  0  0
  -21.4230  -29.3099   22.3549 N   0  0  0  0  0  0
  -26.4315  -37.3729   23.9402 N   0  0  0  0  0  0
  -24.7100  -31.0391   22.0887 N   0  0  0  0  0  0
  -23.4167  -28.8203   23.2974 O   0  0  0  0  0  0
  -28.3457  -26.2735   20.2148 O   0  0  0  0  0  0
  -26.5634  -34.8909   22.4634 O   0  0  0  0  0  0
  -23.5524  -32.1356   23.7144 O   0  0  0  0  0  0
  -30.8888  -21.6123   21.0894 C   0  0  0  0  0  0
  -29.3560  -20.0245   20.1877 C   0  0  0  0  0  0
  -31.7737  -20.5538   21.4073 C   0  0  0  0  0  0
  -30.2154  -18.8645   20.4978 C   0  0  0  0  0  0
  -31.4350  -19.1921   21.1537 C   0  0  0  0  0  0
  -29.6228  -21.4438   20.4849 C   0  0  0  0  0  0
  -29.1968  -23.7995   19.3579 C   0  0  0  0  0  0
  -28.5692  -23.7281   21.2540 C   0  0  0  0  0  0
  -28.1717  -24.7462   20.1105 C   0  0  0  0  0  0
  -33.1426  -20.9376   21.9635 C   0  0  0  0  0  0
  -32.4228  -18.0864   21.5173 C   0  0  0  0  0  0
  -29.9982  -17.3552   19.9123 C   0  0  0  0  0  0
  -28.7597  -22.6551   20.2221 N   0  0  0  0  0  0
  -29.8968  -15.9927   20.6511 N   0  0  0  0  0  0
  -31.4700  -12.5604   19.2402 H   0  0  0  0  0  0
  -30.3470  -11.5141   20.0498 H   0  0  0  0  0  0
  -29.8005  -11.6652   17.5940 H   0  0  0  0  0  0
  -29.6645  -13.3959   17.7099 H   0  0  0  0  0  0
  -27.8615  -11.2855   18.9226 H   0  0  0  0  0  0
  -27.4023  -12.5267   17.7897 H   0  0  0  0  0  0
  -27.6177  -14.2633   19.4430 H   0  0  0  0  0  0
  -28.7045  -12.2582   21.4774 H   0  0  0  0  0  0
  -28.3990  -13.9436   21.7738 H   0  0  0  0  0  0
  -25.2788   -9.5741   22.4670 H   0  0  0  0  0  0
  -24.0071   -7.4679   22.7530 H   0  0  0  0  0  0
  -21.0873   -8.8768   19.8885 H   0  0  0  0  0  0
  -22.3811  -10.9610   19.6119 H   0  0  0  0  0  0
  -21.2019   -7.6137   23.9678 H   0  0  0  0  0  0
  -21.1477   -6.0551   25.9092 H   0  0  0  0  0  0
  -22.0585   -2.7587   23.2919 H   0  0  0  0  0  0
  -22.4258  -11.9694   22.4610 H   0  0  0  0  0  0
  -21.1121  -13.0945   22.2607 H   0  0  0  0  0  0
  -24.6547  -15.8584   20.5703 H   0  0  0  0  0  0
  -26.2479  -15.6469   20.0742 H   0  0  0  0  0  0
  -26.7288  -32.5361   23.1050 H   0  0  0  0  0  0
  -25.0258  -33.9676   25.0463 H   0  0  0  0  0  0
  -22.7475  -31.2955   21.3615 H   0  0  0  0  0  0
  -23.3823  -35.9500   23.3279 H   0  0  0  0  0  0
  -24.3610  -36.8855   22.2058 H   0  0  0  0  0  0
  -23.7237  -37.6398   23.6668 H   0  0  0  0  0  0
  -26.1437  -31.4997   20.6092 H   0  0  0  0  0  0
  -26.8655  -30.7955   22.0227 H   0  0  0  0  0  0
  -28.1348  -28.8654   21.2423 H   0  0  0  0  0  0
  -25.9634  -25.8946   18.9683 H   0  0  0  0  0  0
  -24.0043  -27.2724   19.0097 H   0  0  0  0  0  0
  -23.7994  -30.5507   19.3843 H   0  0  0  0  0  0
  -22.7898  -29.2154   19.8457 H   0  0  0  0  0  0
  -25.1346  -36.1873   25.0832 H   0  0  0  0  0  0
  -21.0084  -28.3340   24.1283 H   0  0  0  0  0  0
  -20.5633  -26.2376   23.3602 H   0  0  0  0  0  0
  -21.6670  -26.7394   22.1208 H   0  0  0  0  0  0
  -19.6950  -25.6269   21.1222 H   0  0  0  0  0  0
  -19.6724  -27.3170   20.6689 H   0  0  0  0  0  0
  -17.4235  -26.6719   21.3960 H   0  0  0  0  0  0
  -18.0365  -26.0030   22.8930 H   0  0  0  0  0  0
  -19.7976  -30.7245   24.2288 H   0  0  0  0  0  0
  -17.5055  -31.6261   24.5131 H   0  0  0  0  0  0
  -15.5397  -30.2992   23.7592 H   0  0  0  0  0  0
  -15.8713  -28.0761   22.7138 H   0  0  0  0  0  0
  -24.6116  -30.6781   25.7659 H   0  0  0  0  0  0
  -24.8775  -32.2738   26.4630 H   0  0  0  0  0  0
  -25.8114  -30.8943   27.0190 H   0  0  0  0  0  0
  -26.3009  -29.6621   24.1257 H   0  0  0  0  0  0
  -27.4189  -29.7261   25.4698 H   0  0  0  0  0  0
  -27.8867  -30.4215   23.9389 H   0  0  0  0  0  0
  -27.2869  -33.3603   26.1903 H   0  0  0  0  0  0
  -28.4038  -32.6551   25.0260 H   0  0  0  0  0  0
  -28.0714  -31.8328   26.5417 H   0  0  0  0  0  0
  -28.2598  -38.0087   24.7526 H   0  0  0  0  0  0
  -28.1108  -36.2614   24.6315 H   0  0  0  0  0  0
  -27.2292  -37.1459   25.8880 H   0  0  0  0  0  0
  -20.9401  -29.8819   21.6764 H   0  0  0  0  0  0
  -26.0186  -38.2797   24.1394 H   0  0  0  0  0  0
  -31.2274  -22.6135   21.3131 H   0  0  0  0  0  0
  -28.4457  -19.8122   19.6490 H   0  0  0  0  0  0
  -30.2382  -24.0975   19.5108 H   0  0  0  0  0  0
  -28.9890  -23.6658   18.2951 H   0  0  0  0  0  0
  -27.7699  -23.5165   21.9636 H   0  0  0  0  0  0
  -29.4914  -23.9867   21.7839 H   0  0  0  0  0  0
  -27.1570  -24.4912   19.8156 H   0  0  0  0  0  0
  -33.2346  -22.0127   22.1409 H   0  0  0  0  0  0
  -33.9223  -20.6652   21.2520 H   0  0  0  0  0  0
  -33.3478  -20.4538   22.9214 H   0  0  0  0  0  0
  -31.8964  -17.2235   21.9163 H   0  0  0  0  0  0
  -33.1271  -18.3610   22.3001 H   0  0  0  0  0  0
  -32.9989  -17.7747   20.6452 H   0  0  0  0  0  0
  -30.8257  -17.2205   19.2157 H   0  0  0  0  0  0
  -29.1139  -17.3953   19.2741 H   0  0  0  0  0  0
  -28.9830  -15.8259   21.0426 H   0  0  0  0  0  0
  1 25  1  0  0  0
  1 30  2  0  0  0
  1 84  1  0  0  0
  2  3  1  0  0  0
  2 25  1  0  0  0
  2 85  1  0  0  0
  2 86  1  0  0  0
  3  4  1  0  0  0
  3 87  1  0  0  0
  3 88  1  0  0  0
  4  5  1  0  0  0
  4 89  1  0  0  0
  4 90  1  0  0  0
  5  6  1  0  0  0
  5 26  1  0  0  0
  5 91  1  0  0  0
  6 25  1  0  0  0
  6 92  1  0  0  0
  6 93  1  0  0  0
  7  8  2  0  0  0
  7 26  1  0  0  0
  7 29  1  0  0  0
  8  9  1  0  0  0
  8 22  1  0  0  0
  9 10  1  0  0  0
  9 27  2  0  0  0
 10 11  2  0  0  0
 10 15  1  0  0  0
 11 12  1  0  0  0
 11 94  1  0  0  0
 12 13  2  0  0  0
 12 95  1  0  0  0
 13 14  1  0  0  0
 13 31  1  0  0  0
 14 15  2  0  0  0
 14 96  1  0  0  0
 15 97  1  0  0  0
 16 17  2  0  0  0
 16 21  1  0  0  0
 16 31  1  0  0  0
 17 18  1  0  0  0
 17 98  1  0  0  0
 18 19  2  0  0  0
 18 99  1  0  0  0
 19 20  1  0  0  0
 19 24  1  0  0  0
 20 21  2  0  0  0
 20100  1  0  0  0
 21 23  1  0  0  0
 22 28  1  0  0  0
 22 32  2  0  0  0
 26 27  1  0  0  0
 28101  1  0  0  0
 28102  1  0  0  0
 29103  1  0  0  0
 29104  1  0  0  0
 33 34  1  0  0  0
 33 66  1  0  0  0
 33 70  2  0  0  0
 34 36  1  0  0  0
 34 59  1  0  0  0
 34105  1  0  0  0
 35 44  2  0  0  0
 35 45  1  0  0  0
 35 68  1  0  0  0
 36 56  1  0  0  0
 36106  1  0  0  0
 37 39  1  0  0  0
 37 47  1  0  0  0
 37 66  1  0  0  0
 37107  1  0  0  0
 38 43  2  0  0  0
 38 46  1  0  0  0
 38 47  1  0  0  0
 39 64  1  0  0  0
 39 67  2  0  0  0
 40 52  1  0  0  0
 40 53  2  0  0  0
 40 58  1  0  0  0
 41108  1  0  0  0
 41109  1  0  0  0
 41110  1  0  0  0
 41 48  1  0  0  0
 42 43  1  0  0  0
 42 66  1  0  0  0
 42111  1  0  0  0
 42112  1  0  0  0
 43 44  1  0  0  0
 44113  1  0  0  0
 45 46  2  0  0  0
 45114  1  0  0  0
 46115  1  0  0  0
 47116  1  0  0  0
 47117  1  0  0  0
 48 56  1  0  0  0
 48 65  1  0  0  0
 48118  1  0  0  0
 49 50  1  0  0  0
 49 53  1  0  0  0
 49 64  1  0  0  0
 49119  1  0  0  0
 50 51  1  0  0  0
 50120  1  0  0  0
 50121  1  0  0  0
 51 52  1  0  0  0
 51122  1  0  0  0
 51123  1  0  0  0
 52124  1  0  0  0
 52125  1  0  0  0
 53 54  1  0  0  0
 54 55  2  0  0  0
 54126  1  0  0  0
 55 57  1  0  0  0
 55127  1  0  0  0
 56 69  2  0  0  0
 57 58  2  0  0  0
 57128  1  0  0  0
 58129  1  0  0  0
 59 60  1  0  0  0
 59 61  1  0  0  0
 59 62  1  0  0  0
 60130  1  0  0  0
 60131  1  0  0  0
 60132  1  0  0  0
 61133  1  0  0  0
 61134  1  0  0  0
 61135  1  0  0  0
 62136  1  0  0  0
 62137  1  0  0  0
 62138  1  0  0  0
 63 65  1  0  0  0
 63139  1  0  0  0
 63140  1  0  0  0
 63141  1  0  0  0
 64142  1  0  0  0
 65143  1  0  0  0
 68 79  1  0  0  0
 71 73  2  0  0  0
 71 76  1  0  0  0
 71144  1  0  0  0
 72 74  1  0  0  0
 72 76  2  0  0  0
 72145  1  0  0  0
 73 75  1  0  0  0
 73 80  1  0  0  0
 74 75  2  0  0  0
 74 82  1  0  0  0
 75 81  1  0  0  0
 76 83  1  0  0  0
 77 79  1  0  0  0
 77 83  1  0  0  0
 77146  1  0  0  0
 77147  1  0  0  0
 78 79  1  0  0  0
 78 83  1  0  0  0
 78148  1  0  0  0
 78149  1  0  0  0
 79150  1  0  0  0
 80151  1  0  0  0
 80152  1  0  0  0
 80153  1  0  0  0
 81154  1  0  0  0
 81155  1  0  0  0
 81156  1  0  0  0
 82 84  1  0  0  0
 82157  1  0  0  0
 82158  1  0  0  0
 84159  1  0  0  0
M  ISO  4   1 100  68 101  79 101  84 100
M  END
> <chiral flag>
0

> <version>
0

> <s_m_source_file>
/data/baiqing/PycharmProjects/Reinvent-master-3.2/result/LINK_invent/BTK/process_docking_weight1_custom_product_contain_oxygen_bond_distance_aromatic_linkinvent_7_9_3/rearranged_h_0029.sdf

> <i_m_source_file_index>
82

> <r_mmod_Potential_Energy-OPLS-2005>
336.415191650391

> <r_mmod_Stretch_Energy-OPLS-2005>
181.288375854492

> <r_mmod_Bend_Energy-OPLS-2005>
265.509765625

> <r_mmod_Torsional_Energy-OPLS-2005>
259.84130859375

> <r_mmod_Improper_Torsional_Energy-OPLS-2005>
16.1780605316162

> <r_mmod_Van_der_Waal_Energy-OPLS-2005>
144.745040893555

> <r_mmod_Electrostatic_Energy-OPLS-2005>
-416.474731445312

> <r_mmod_Solvation_Energy-OPLS-2005>
-235.8720703125

> <b_mmod_Minimization_Converged-OPLS-2005>
0

> <r_mmod_RMS_Derivative-OPLS-2005>
6.83762216567993

$$$$
82
                    3D
 Structure written by MMmdl.
158167  0  0  1  0            999 V2000
  -30.5584  -14.8315   20.4433 C   0  0  0  0  0  0
  -30.4356  -12.5113   19.4727 C   0  0  0  0  0  0
  -29.5053  -12.5106   18.2403 C   0  0  0  0  0  0
  -28.0330  -12.3196   18.6576 C   0  0  0  0  0  0
  -27.6266  -13.2364   19.8417 C   0  0  2  0  0  0
  -28.6757  -13.2151   20.9723 C   0  0  0  0  0  0
  -25.2426  -13.8204   20.5721 C   0  0  0  0  0  0
  -24.1733  -13.0432   20.9234 C   0  0  0  0  0  0
  -24.6350  -11.6918   20.8779 C   0  0  0  0  0  0
  -23.9051  -10.4281   21.0434 C   0  0  0  0  0  0
  -24.3611   -9.4177   21.9185 C   0  0  0  0  0  0
  -23.6284   -8.2214   22.0744 C   0  0  0  0  0  0
  -22.4265   -8.0261   21.3536 C   0  0  0  0  0  0
  -21.9905   -9.0237   20.4637 C   0  0  0  0  0  0
  -22.7233  -10.2111   20.3065 C   0  0  0  0  0  0
  -21.6831   -6.0719   22.5269 C   0  0  0  0  0  0
  -21.4003   -6.5637   23.8201 C   0  0  0  0  0  0
  -21.3662   -5.6795   24.9170 C   0  0  0  0  0  0
  -21.6054   -4.3059   24.7222 C   0  0  0  0  0  0
  -21.8812   -3.8141   23.4350 C   0  0  0  0  0  0
  -21.9177   -4.6950   22.3400 C   0  0  0  0  0  0
  -22.7746  -13.5185   21.1898 C   0  0  0  0  0  0
  -22.1644   -4.2139   21.0977 F   0  0  0  0  0  0
  -21.5632   -3.4541   25.7737 F   0  0  0  0  0  0
  -29.9581  -13.5896   20.3665 N   0  0  0  0  0  0
  -26.2848  -12.9420   20.3287 N   0  0  0  0  0  0
  -25.9286  -11.6562   20.5802 N   0  0  0  0  0  0
  -22.0448  -12.8151   22.0486 N   0  0  0  0  0  0
  -25.4097  -15.1937   20.4129 N   0  0  0  0  0  0
  -31.7757  -14.9208   20.2589 O   0  0  0  0  0  0
  -21.6623   -6.8863   21.4234 O   0  0  0  0  0  0
  -22.3401  -14.5471   20.6735 O   0  0  0  0  0  0
  -24.6362  -31.8482   23.1926 C   0  0  0  0  0  0
  -25.9150  -32.4722   23.8290 C   0  0  1  0  0  0
  -27.2213  -27.2053   20.1502 C   0  0  0  0  0  0
  -25.5936  -33.8529   24.2222 N   0  0  0  0  0  0
  -23.4361  -30.4683   21.5382 C   0  0  2  0  0  0
  -24.8871  -28.9008   20.1153 C   0  0  0  0  0  0
  -22.7523  -29.4564   22.4899 C   0  0  0  0  0  0
  -18.0288  -28.1398   22.8491 C   0  0  0  0  0  0
  -24.1494  -36.7274   23.2637 C   0  0  0  0  0  0
  -25.9866  -30.7470   21.3776 C   0  0  0  0  0  0
  -26.0613  -29.3621   20.7228 C   0  0  0  0  0  0
  -27.2329  -28.5298   20.7224 C   0  0  0  0  0  0
  -26.0246  -26.8178   19.5124 C   0  0  0  0  0  0
  -24.8762  -27.6396   19.4971 C   0  0  0  0  0  0
  -23.6598  -29.7966   20.1577 C   0  0  0  0  0  0
  -25.4123  -36.3042   24.0314 C   0  0  1  0  0  0
  -20.5899  -28.3695   23.1280 C   0  0  2  0  0  0
  -20.6781  -26.9406   22.5428 C   0  0  0  0  0  0
  -19.5757  -26.6383   21.5233 C   0  0  0  0  0  0
  -18.1933  -26.7941   22.1639 C   0  0  0  0  0  0
  -19.1541  -28.8863   23.2878 C   0  0  0  0  0  0
  -18.9463  -30.1472   23.8888 C   0  0  0  0  0  0
  -17.6458  -30.6598   24.0560 C   0  0  0  0  0  0
  -25.9066  -34.9420   23.5069 C   0  0  0  0  0  0
  -16.5350  -29.9091   23.6344 C   0  0  0  0  0  0
  -16.7273  -28.6514   23.0358 C   0  0  0  0  0  0
  -26.4505  -31.6571   25.0704 C   0  0  0  0  0  0
  -25.3710  -31.3740   26.1409 C   0  0  0  0  0  0
  -27.0346  -30.2979   24.6215 C   0  0  0  0  0  0
  -27.6058  -32.4299   25.7504 C   0  0  0  0  0  0
  -27.5577  -37.1792   24.8458 C   0  0  0  0  0  0
  -21.4227  -29.3029   22.3657 N   0  0  0  0  0  0
  -26.4287  -37.3751   23.9400 N   0  0  0  0  0  0
  -24.7065  -31.0386   22.0933 N   0  0  0  0  0  0
  -23.4207  -28.8107   23.3012 O   0  0  0  0  0  0
  -28.3037  -26.2818   20.1874 O   0  0  0  0  0  0
  -26.5647  -34.8889   22.4646 O   0  0  0  0  0  0
  -23.5502  -32.1337   23.7182 O   0  0  0  0  0  0
  -30.8890  -18.7448   24.2112 C   0  0  0  0  0  0
  -30.3658  -17.5246   22.1833 C   0  0  0  0  0  0
  -29.4420  -18.6215   20.2341 C   0  0  0  0  0  0
  -30.4345  -18.7793   22.8243 C   0  0  0  0  0  0
  -29.5367  -19.9698   20.8288 C   0  0  0  0  0  0
  -30.0668  -19.9948   22.1580 C   0  0  0  0  0  0
  -29.8822  -17.3749   20.8751 C   0  0  0  0  0  0
  -29.2468  -23.8747   20.9927 C   0  0  0  0  0  0
  -27.9173  -23.6183   19.5331 C   0  0  0  0  0  0
  -28.0606  -24.8138   20.5470 C   0  0  2  0  0  0
  -30.2734  -21.3334   22.8657 C   0  0  0  0  0  0
  -29.2288  -21.3532   20.0050 C   0  0  0  0  0  0
  -31.2493  -18.7158   25.3131 N   0  0  0  0  0  0
  -29.7361  -15.9675   20.3753 N   0  0  0  0  0  0
  -28.5065  -22.6463   20.5273 N   0  3  1  0  0  0
  -31.4686  -12.6730   19.1600 H   0  0  0  0  0  0
  -30.4168  -11.5481   19.9864 H   0  0  0  0  0  0
  -29.8046  -11.7284   17.5411 H   0  0  0  0  0  0
  -29.6091  -13.4580   17.7099 H   0  0  0  0  0  0
  -27.9011  -11.2748   18.9423 H   0  0  0  0  0  0
  -27.3744  -12.4895   17.8052 H   0  0  0  0  0  0
  -27.6012  -14.2489   19.4391 H   0  0  0  0  0  0
  -28.7331  -12.2344   21.4466 H   0  0  0  0  0  0
  -28.4038  -13.9205   21.7585 H   0  0  0  0  0  0
  -25.2753   -9.5620   22.4765 H   0  0  0  0  0  0
  -23.9973   -7.4588   22.7455 H   0  0  0  0  0  0
  -21.0834   -8.8749   19.8952 H   0  0  0  0  0  0
  -22.3686  -10.9648   19.6183 H   0  0  0  0  0  0
  -21.1998   -7.6146   23.9693 H   0  0  0  0  0  0
  -21.1507   -6.0537   25.9067 H   0  0  0  0  0  0
  -22.0598   -2.7608   23.2851 H   0  0  0  0  0  0
  -22.4102  -11.9806   22.4845 H   0  0  0  0  0  0
  -21.1072  -13.1146   22.2757 H   0  0  0  0  0  0
  -24.6457  -15.8508   20.5347 H   0  0  0  0  0  0
  -26.2520  -15.6346   20.0696 H   0  0  0  0  0  0
  -26.7218  -32.5349   23.1025 H   0  0  0  0  0  0
  -25.0031  -33.9676   25.0329 H   0  0  0  0  0  0
  -22.7339  -31.2908   21.3886 H   0  0  0  0  0  0
  -23.3755  -35.9607   23.3299 H   0  0  0  0  0  0
  -24.3576  -36.8906   22.2049 H   0  0  0  0  0  0
  -23.7256  -37.6475   23.6677 H   0  0  0  0  0  0
  -26.1221  -31.5038   20.6031 H   0  0  0  0  0  0
  -26.8637  -30.8052   22.0111 H   0  0  0  0  0  0
  -28.1304  -28.8820   21.2118 H   0  0  0  0  0  0
  -25.9608  -25.8508   19.0334 H   0  0  0  0  0  0
  -23.9761  -27.2823   19.0175 H   0  0  0  0  0  0
  -23.7899  -30.5730   19.4036 H   0  0  0  0  0  0
  -22.7763  -29.2340   19.8503 H   0  0  0  0  0  0
  -25.1308  -36.1885   25.0810 H   0  0  0  0  0  0
  -20.9983  -28.3275   24.1401 H   0  0  0  0  0  0
  -20.5703  -26.2284   23.3626 H   0  0  0  0  0  0
  -21.6638  -26.7436   22.1198 H   0  0  0  0  0  0
  -19.6911  -25.6294   21.1253 H   0  0  0  0  0  0
  -19.6712  -27.3203   20.6777 H   0  0  0  0  0  0
  -17.4205  -26.6694   21.4042 H   0  0  0  0  0  0
  -18.0319  -26.0096   22.9047 H   0  0  0  0  0  0
  -19.7929  -30.7300   24.2254 H   0  0  0  0  0  0
  -17.5003  -31.6278   24.5150 H   0  0  0  0  0  0
  -15.5342  -30.2980   23.7679 H   0  0  0  0  0  0
  -15.8679  -28.0825   22.7081 H   0  0  0  0  0  0
  -24.5917  -30.7054   25.7744 H   0  0  0  0  0  0
  -24.8854  -32.2909   26.4757 H   0  0  0  0  0  0
  -25.7996  -30.8981   27.0236 H   0  0  0  0  0  0
  -26.2943  -29.6749   24.1181 H   0  0  0  0  0  0
  -27.3968  -29.7219   25.4742 H   0  0  0  0  0  0
  -27.8841  -30.4254   23.9499 H   0  0  0  0  0  0
  -27.2677  -33.3617   26.2051 H   0  0  0  0  0  0
  -28.3899  -32.6821   25.0353 H   0  0  0  0  0  0
  -28.0689  -31.8425   26.5447 H   0  0  0  0  0  0
  -28.2574  -38.0107   24.7493 H   0  0  0  0  0  0
  -28.1093  -36.2629   24.6299 H   0  0  0  0  0  0
  -27.2279  -37.1436   25.8856 H   0  0  0  0  0  0
  -20.9428  -29.8719   21.6826 H   0  0  0  0  0  0
  -26.0161  -38.2818   24.1432 H   0  0  0  0  0  0
  -30.6538  -16.6411   22.7352 H   0  0  0  0  0  0
  -29.0384  -18.5460   19.2330 H   0  0  0  0  0  0
  -30.1711  -24.0511   20.4371 H   0  0  0  0  0  0
  -29.4353  -23.9047   22.0643 H   0  0  0  0  0  0
  -26.8891  -23.3829   19.2586 H   0  0  0  0  0  0
  -28.5311  -23.7352   18.6370 H   0  0  0  0  0  0
  -27.2638  -24.7668   21.2934 H   0  0  0  0  0  0
  -29.3151  -21.7765   23.1351 H   0  0  0  0  0  0
  -30.8367  -22.0137   22.2272 H   0  0  0  0  0  0
  -30.8515  -21.2776   23.7865 H   0  0  0  0  0  0
  -28.6230  -21.0340   19.1561 H   0  0  0  0  0  0
  -30.1696  -21.6701   19.5590 H   0  0  0  0  0  0
  -28.7983  -15.7410   20.0815 H   0  0  0  0  0  0
  -27.7852  -22.3896   21.1843 H   0  0  0  0  0  0
  1 25  1  0  0  0
  1 30  2  0  0  0
  1 84  1  0  0  0
  2  3  1  0  0  0
  2 25  1  0  0  0
  2 86  1  0  0  0
  2 87  1  0  0  0
  3  4  1  0  0  0
  3 88  1  0  0  0
  3 89  1  0  0  0
  4  5  1  0  0  0
  4 90  1  0  0  0
  4 91  1  0  0  0
  5  6  1  0  0  0
  5 26  1  0  0  0
  5 92  1  0  0  0
  6 25  1  0  0  0
  6 93  1  0  0  0
  6 94  1  0  0  0
  7  8  2  0  0  0
  7 26  1  0  0  0
  7 29  1  0  0  0
  8  9  1  0  0  0
  8 22  1  0  0  0
  9 10  1  0  0  0
  9 27  2  0  0  0
 10 11  2  0  0  0
 10 15  1  0  0  0
 11 12  1  0  0  0
 11 95  1  0  0  0
 12 13  2  0  0  0
 12 96  1  0  0  0
 13 14  1  0  0  0
 13 31  1  0  0  0
 14 15  2  0  0  0
 14 97  1  0  0  0
 15 98  1  0  0  0
 16 17  2  0  0  0
 16 21  1  0  0  0
 16 31  1  0  0  0
 17 18  1  0  0  0
 17 99  1  0  0  0
 18 19  2  0  0  0
 18100  1  0  0  0
 19 20  1  0  0  0
 19 24  1  0  0  0
 20 21  2  0  0  0
 20101  1  0  0  0
 21 23  1  0  0  0
 22 28  1  0  0  0
 22 32  2  0  0  0
 26 27  1  0  0  0
 28102  1  0  0  0
 28103  1  0  0  0
 29104  1  0  0  0
 29105  1  0  0  0
 33 34  1  0  0  0
 33 66  1  0  0  0
 33 70  2  0  0  0
 34 36  1  0  0  0
 34 59  1  0  0  0
 34106  1  0  0  0
 35 44  2  0  0  0
 35 45  1  0  0  0
 35 68  1  0  0  0
 36 56  1  0  0  0
 36107  1  0  0  0
 37 39  1  0  0  0
 37 47  1  0  0  0
 37 66  1  0  0  0
 37108  1  0  0  0
 38 43  2  0  0  0
 38 46  1  0  0  0
 38 47  1  0  0  0
 39 64  1  0  0  0
 39 67  2  0  0  0
 40 52  1  0  0  0
 40 53  2  0  0  0
 40 58  1  0  0  0
 41109  1  0  0  0
 41110  1  0  0  0
 41111  1  0  0  0
 41 48  1  0  0  0
 42 43  1  0  0  0
 42 66  1  0  0  0
 42112  1  0  0  0
 42113  1  0  0  0
 43 44  1  0  0  0
 44114  1  0  0  0
 45 46  2  0  0  0
 45115  1  0  0  0
 46116  1  0  0  0
 47117  1  0  0  0
 47118  1  0  0  0
 48 56  1  0  0  0
 48 65  1  0  0  0
 48119  1  0  0  0
 49 50  1  0  0  0
 49 53  1  0  0  0
 49 64  1  0  0  0
 49120  1  0  0  0
 50 51  1  0  0  0
 50121  1  0  0  0
 50122  1  0  0  0
 51 52  1  0  0  0
 51123  1  0  0  0
 51124  1  0  0  0
 52125  1  0  0  0
 52126  1  0  0  0
 53 54  1  0  0  0
 54 55  2  0  0  0
 54127  1  0  0  0
 55 57  1  0  0  0
 55128  1  0  0  0
 56 69  2  0  0  0
 57 58  2  0  0  0
 57129  1  0  0  0
 58130  1  0  0  0
 59 60  1  0  0  0
 59 61  1  0  0  0
 59 62  1  0  0  0
 60131  1  0  0  0
 60132  1  0  0  0
 60133  1  0  0  0
 61134  1  0  0  0
 61135  1  0  0  0
 61136  1  0  0  0
 62137  1  0  0  0
 62138  1  0  0  0
 62139  1  0  0  0
 63 65  1  0  0  0
 63140  1  0  0  0
 63141  1  0  0  0
 63142  1  0  0  0
 64143  1  0  0  0
 65144  1  0  0  0
 68 80  1  0  0  0
 71 74  1  0  0  0
 71 83  3  0  0  0
 72 74  2  0  0  0
 72 77  1  0  0  0
 72145  1  0  0  0
 73 75  1  0  0  0
 73 77  2  0  0  0
 73146  1  0  0  0
 74 76  1  0  0  0
 75 76  2  0  0  0
 75 82  1  0  0  0
 76 81  1  0  0  0
 77 84  1  0  0  0
 78 80  1  0  0  0
 78 85  1  0  0  0
 78147  1  0  0  0
 78148  1  0  0  0
 79 80  1  0  0  0
 79 85  1  0  0  0
 79149  1  0  0  0
 79150  1  0  0  0
 80151  1  0  0  0
 81152  1  0  0  0
 81153  1  0  0  0
 81154  1  0  0  0
 82155  1  0  0  0
 82156  1  0  0  0
 82 85  1  0  0  0
 84157  1  0  0  0
 85158  1  0  0  0
M  CHG  1  85   1
M  ISO  4   1 100  68 101  80 101  84 100
M  END
> <chiral flag>
0

> <version>
0

> <s_m_source_file>
/data/baiqing/PycharmProjects/Reinvent-master-3.2/result/LINK_invent/BTK/process_docking_weight1_custom_product_contain_oxygen_bond_distance_aromatic_linkinvent_7_9_3/rearranged_h_0029.sdf

> <i_m_source_file_index>
83

> <r_mmod_Potential_Energy-OPLS-2005>
167.011444091797

> <r_mmod_Stretch_Energy-OPLS-2005>
169.092758178711

> <r_mmod_Bend_Energy-OPLS-2005>
231.615234375

> <r_mmod_Torsional_Energy-OPLS-2005>
262.33642578125

> <r_mmod_Improper_Torsional_Energy-OPLS-2005>
10.4616804122925

> <r_mmod_Van_der_Waal_Energy-OPLS-2005>
138.249557495117

> <r_mmod_Electrostatic_Energy-OPLS-2005>
-265.503204345703

> <r_mmod_Solvation_Energy-OPLS-2005>
-509.234100341797

> <b_mmod_Minimization_Converged-OPLS-2005>
0

> <r_mmod_RMS_Derivative-OPLS-2005>
2.66233110427856

$$$$
83
                    3D
 Structure written by MMmdl.
160169  0  0  1  0            999 V2000
  -30.5996  -14.7735   20.4160 C   0  0  0  0  0  0
  -30.4431  -12.4545   19.4948 C   0  0  0  0  0  0
  -29.5244  -12.4387   18.2524 C   0  0  0  0  0  0
  -28.0434  -12.3088   18.6577 C   0  0  0  0  0  0
  -27.6448  -13.2301   19.8432 C   0  0  2  0  0  0
  -28.6857  -13.1888   20.9819 C   0  0  0  0  0  0
  -25.2556  -13.8205   20.5682 C   0  0  0  0  0  0
  -24.1837  -13.0451   20.9198 C   0  0  0  0  0  0
  -24.6417  -11.6925   20.8755 C   0  0  0  0  0  0
  -23.9088  -10.4301   21.0411 C   0  0  0  0  0  0
  -24.3642   -9.4212   21.9187 C   0  0  0  0  0  0
  -23.6308   -8.2251   22.0755 C   0  0  0  0  0  0
  -22.4286   -8.0290   21.3549 C   0  0  0  0  0  0
  -21.9927   -9.0265   20.4646 C   0  0  0  0  0  0
  -22.7260  -10.2144   20.3053 C   0  0  0  0  0  0
  -21.6860   -6.0740   22.5276 C   0  0  0  0  0  0
  -21.4018   -6.5641   23.8211 C   0  0  0  0  0  0
  -21.3661   -5.6792   24.9174 C   0  0  0  0  0  0
  -21.6051   -4.3056   24.7226 C   0  0  0  0  0  0
  -21.8818   -3.8149   23.4345 C   0  0  0  0  0  0
  -21.9199   -4.6966   22.3403 C   0  0  0  0  0  0
  -22.7859  -13.5237   21.1851 C   0  0  0  0  0  0
  -22.1663   -4.2152   21.0980 F   0  0  0  0  0  0
  -21.5633   -3.4535   25.7739 F   0  0  0  0  0  0
  -29.9858  -13.5389   20.3978 N   0  0  0  0  0  0
  -26.2969  -12.9401   20.3249 N   0  0  0  0  0  0
  -25.9350  -11.6549   20.5759 N   0  0  0  0  0  0
  -22.0506  -12.8225   22.0404 N   0  0  0  0  0  0
  -25.4295  -15.1927   20.4097 N   0  0  0  0  0  0
  -31.7978  -14.8536   20.1337 O   0  0  0  0  0  0
  -21.6652   -6.8883   21.4238 O   0  0  0  0  0  0
  -22.3537  -14.5534   20.6680 O   0  0  0  0  0  0
  -24.6304  -31.8544   23.1948 C   0  0  0  0  0  0
  -25.9135  -32.4748   23.8295 C   0  0  1  0  0  0
  -27.2323  -27.2717   20.1332 C   0  0  0  0  0  0
  -25.5929  -33.8547   24.2235 N   0  0  0  0  0  0
  -23.4262  -30.4729   21.5383 C   0  0  2  0  0  0
  -24.8743  -28.9122   20.1091 C   0  0  0  0  0  0
  -22.7496  -29.4589   22.4918 C   0  0  0  0  0  0
  -18.0291  -28.1387   22.8479 C   0  0  0  0  0  0
  -24.1490  -36.7290   23.2637 C   0  0  0  0  0  0
  -25.9669  -30.7717   21.3671 C   0  0  0  0  0  0
  -26.0402  -29.3913   20.7162 C   0  0  0  0  0  0
  -27.2167  -28.5814   20.7183 C   0  0  0  0  0  0
  -26.0428  -26.8460   19.5031 C   0  0  0  0  0  0
  -24.8798  -27.6477   19.4930 C   0  0  0  0  0  0
  -23.6433  -29.7990   20.1556 C   0  0  0  0  0  0
  -25.4113  -36.3067   24.0323 C   0  0  1  0  0  0
  -20.5895  -28.3687   23.1279 C   0  0  2  0  0  0
  -20.6781  -26.9408   22.5415 C   0  0  0  0  0  0
  -19.5761  -26.6381   21.5216 C   0  0  0  0  0  0
  -18.1937  -26.7927   22.1621 C   0  0  0  0  0  0
  -19.1544  -28.8854   23.2871 C   0  0  0  0  0  0
  -18.9467  -30.1459   23.8885 C   0  0  0  0  0  0
  -17.6464  -30.6582   24.0567 C   0  0  0  0  0  0
  -25.9057  -34.9438   23.5087 C   0  0  0  0  0  0
  -16.5356  -29.9083   23.6327 C   0  0  0  0  0  0
  -16.7278  -28.6508   23.0337 C   0  0  0  0  0  0
  -26.4496  -31.6564   25.0682 C   0  0  0  0  0  0
  -25.3712  -31.3721   26.1399 C   0  0  0  0  0  0
  -27.0341  -30.2986   24.6142 C   0  0  0  0  0  0
  -27.6056  -32.4279   25.7476 C   0  0  0  0  0  0
  -27.5582  -37.1799   24.8461 C   0  0  0  0  0  0
  -21.4200  -29.3039   22.3674 N   0  0  0  0  0  0
  -26.4289  -37.3768   23.9414 N   0  0  0  0  0  0
  -24.6938  -31.0512   22.0910 N   0  0  0  0  0  0
  -23.4199  -28.8141   23.3022 O   0  0  0  0  0  0
  -28.3682  -26.4409   20.2265 O   0  0  0  0  0  0
  -26.5639  -34.8922   22.4661 O   0  0  0  0  0  0
  -23.5457  -32.1355   23.7258 O   0  0  0  0  0  0
  -29.4402  -18.5170   20.5635 C   0  0  0  0  0  0
  -30.0064  -18.6219   17.8646 C   0  0  0  0  0  0
  -29.2993  -19.8131   19.8894 C   0  0  0  0  0  0
  -30.1339  -17.3853   18.5273 C   0  0  0  0  0  0
  -29.8486  -17.2660   19.9191 C   0  0  0  0  0  0
  -29.5642  -19.7948   18.4953 C   0  0  0  0  0  0
  -29.9890  -24.6955   19.5712 C   0  0  0  0  0  0
  -30.2019  -23.1860   19.8964 C   0  0  0  0  0  0
  -27.9927  -23.7151   20.4386 C   0  0  0  0  0  0
  -28.4874  -25.0399   19.7014 C   0  0  1  0  0  0
  -30.4755  -16.2044   17.6389 C   0  0  0  0  0  0
  -28.7793  -21.1519   20.6188 C   0  0  0  0  0  0
  -29.8171  -15.9182   20.5811 N   0  0  0  0  0  0
  -28.8653  -22.5559   19.9681 N   0  3  2  0  0  0
  -29.2923  -21.1463   17.4494 Cl  0  0  0  0  0  0
  -31.4836  -12.5819   19.1879 H   0  0  0  0  0  0
  -30.4022  -11.4945   20.0114 H   0  0  0  0  0  0
  -29.7999  -11.6049   17.6051 H   0  0  0  0  0  0
  -29.6759  -13.3293   17.6505 H   0  0  0  0  0  0
  -27.8851  -11.2667   18.9381 H   0  0  0  0  0  0
  -27.3980  -12.4941   17.7988 H   0  0  0  0  0  0
  -27.6333  -14.2450   19.4447 H   0  0  0  0  0  0
  -28.7266  -12.2000   21.4408 H   0  0  0  0  0  0
  -28.4138  -13.8844   21.7774 H   0  0  0  0  0  0
  -25.2789   -9.5686   22.4759 H   0  0  0  0  0  0
  -24.0027   -7.4639   22.7469 H   0  0  0  0  0  0
  -21.0862   -8.8777   19.8941 H   0  0  0  0  0  0
  -22.3721  -10.9685   19.6164 H   0  0  0  0  0  0
  -21.2000   -7.6147   23.9715 H   0  0  0  0  0  0
  -21.1488   -6.0522   25.9077 H   0  0  0  0  0  0
  -22.0597   -2.7609   23.2847 H   0  0  0  0  0  0
  -22.4116  -11.9886   22.4799 H   0  0  0  0  0  0
  -21.1110  -13.1227   22.2572 H   0  0  0  0  0  0
  -24.6668  -15.8515   20.5199 H   0  0  0  0  0  0
  -26.2777  -15.6261   20.0674 H   0  0  0  0  0  0
  -26.7204  -32.5400   23.1039 H   0  0  0  0  0  0
  -25.0060  -33.9669   25.0367 H   0  0  0  0  0  0
  -22.7223  -31.2946   21.3894 H   0  0  0  0  0  0
  -23.3753  -35.9622   23.3276 H   0  0  0  0  0  0
  -24.3591  -36.8938   22.2058 H   0  0  0  0  0  0
  -23.7240  -37.6484   23.6675 H   0  0  0  0  0  0
  -26.0935  -31.5266   20.5899 H   0  0  0  0  0  0
  -26.8496  -30.8309   21.9923 H   0  0  0  0  0  0
  -28.1099  -28.9443   21.2074 H   0  0  0  0  0  0
  -25.9839  -25.8717   19.0409 H   0  0  0  0  0  0
  -23.9837  -27.2717   19.0185 H   0  0  0  0  0  0
  -23.7674  -30.5721   19.3967 H   0  0  0  0  0  0
  -22.7617  -29.2312   19.8538 H   0  0  0  0  0  0
  -25.1297  -36.1908   25.0816 H   0  0  0  0  0  0
  -20.9980  -28.3268   24.1405 H   0  0  0  0  0  0
  -20.5687  -26.2300   23.3622 H   0  0  0  0  0  0
  -21.6649  -26.7442   22.1212 H   0  0  0  0  0  0
  -19.6923  -25.6289   21.1258 H   0  0  0  0  0  0
  -19.6705  -27.3191   20.6747 H   0  0  0  0  0  0
  -17.4215  -26.6678   21.4018 H   0  0  0  0  0  0
  -18.0328  -26.0067   22.9016 H   0  0  0  0  0  0
  -19.7943  -30.7285   24.2248 H   0  0  0  0  0  0
  -17.5017  -31.6265   24.5169 H   0  0  0  0  0  0
  -15.5356  -30.2989   23.7647 H   0  0  0  0  0  0
  -15.8681  -28.0839   22.7032 H   0  0  0  0  0  0
  -24.5899  -30.7052   25.7731 H   0  0  0  0  0  0
  -24.8884  -32.2892   26.4785 H   0  0  0  0  0  0
  -25.8016  -30.8931   27.0200 H   0  0  0  0  0  0
  -26.2916  -29.6730   24.1169 H   0  0  0  0  0  0
  -27.4050  -29.7249   25.4646 H   0  0  0  0  0  0
  -27.8775  -30.4286   23.9357 H   0  0  0  0  0  0
  -27.2675  -33.3575   26.2067 H   0  0  0  0  0  0
  -28.3879  -32.6829   25.0313 H   0  0  0  0  0  0
  -28.0702  -31.8375   26.5386 H   0  0  0  0  0  0
  -28.2585  -38.0109   24.7522 H   0  0  0  0  0  0
  -28.1091  -36.2643   24.6260 H   0  0  0  0  0  0
  -27.2310  -37.1418   25.8866 H   0  0  0  0  0  0
  -20.9384  -29.8762   21.6880 H   0  0  0  0  0  0
  -26.0163  -38.2844   24.1408 H   0  0  0  0  0  0
  -29.1881  -18.4799   21.6142 H   0  0  0  0  0  0
  -30.1957  -18.6708   16.8018 H   0  0  0  0  0  0
  -30.3414  -24.9313   18.5666 H   0  0  0  0  0  0
  -30.5837  -25.2977   20.2586 H   0  0  0  0  0  0
  -30.6891  -23.0947   20.8678 H   0  0  0  0  0  0
  -30.8497  -22.6967   19.1695 H   0  0  0  0  0  0
  -26.9378  -23.5205   20.2458 H   0  0  0  0  0  0
  -28.1122  -23.8308   21.5166 H   0  0  0  0  0  0
  -28.0732  -25.0295   18.6931 H   0  0  0  0  0  0
  -31.4734  -15.8220   17.8452 H   0  0  0  0  0  0
  -30.4515  -16.4674   16.5812 H   0  0  0  0  0  0
  -29.7333  -15.4265   17.7835 H   0  0  0  0  0  0
  -29.2458  -21.2051   21.6027 H   0  0  0  0  0  0
  -27.7220  -20.9757   20.8172 H   0  0  0  0  0  0
  -28.9593  -15.7314   21.0778 H   0  0  0  0  0  0
  -28.6046  -22.3880   19.0046 H   0  0  0  0  0  0
  1 25  1  0  0  0
  1 30  2  0  0  0
  1 83  1  0  0  0
  2  3  1  0  0  0
  2 25  1  0  0  0
  2 86  1  0  0  0
  2 87  1  0  0  0
  3  4  1  0  0  0
  3 88  1  0  0  0
  3 89  1  0  0  0
  4  5  1  0  0  0
  4 90  1  0  0  0
  4 91  1  0  0  0
  5  6  1  0  0  0
  5 26  1  0  0  0
  5 92  1  0  0  0
  6 25  1  0  0  0
  6 93  1  0  0  0
  6 94  1  0  0  0
  7  8  2  0  0  0
  7 26  1  0  0  0
  7 29  1  0  0  0
  8  9  1  0  0  0
  8 22  1  0  0  0
  9 10  1  0  0  0
  9 27  2  0  0  0
 10 11  2  0  0  0
 10 15  1  0  0  0
 11 12  1  0  0  0
 11 95  1  0  0  0
 12 13  2  0  0  0
 12 96  1  0  0  0
 13 14  1  0  0  0
 13 31  1  0  0  0
 14 15  2  0  0  0
 14 97  1  0  0  0
 15 98  1  0  0  0
 16 17  2  0  0  0
 16 21  1  0  0  0
 16 31  1  0  0  0
 17 18  1  0  0  0
 17 99  1  0  0  0
 18 19  2  0  0  0
 18100  1  0  0  0
 19 20  1  0  0  0
 19 24  1  0  0  0
 20 21  2  0  0  0
 20101  1  0  0  0
 21 23  1  0  0  0
 22 28  1  0  0  0
 22 32  2  0  0  0
 26 27  1  0  0  0
 28102  1  0  0  0
 28103  1  0  0  0
 29104  1  0  0  0
 29105  1  0  0  0
 33 34  1  0  0  0
 33 66  1  0  0  0
 33 70  2  0  0  0
 34 36  1  0  0  0
 34 59  1  0  0  0
 34106  1  0  0  0
 35 44  2  0  0  0
 35 45  1  0  0  0
 35 68  1  0  0  0
 36 56  1  0  0  0
 36107  1  0  0  0
 37 39  1  0  0  0
 37 47  1  0  0  0
 37 66  1  0  0  0
 37108  1  0  0  0
 38 43  2  0  0  0
 38 46  1  0  0  0
 38 47  1  0  0  0
 39 64  1  0  0  0
 39 67  2  0  0  0
 40 52  1  0  0  0
 40 53  2  0  0  0
 40 58  1  0  0  0
 41109  1  0  0  0
 41110  1  0  0  0
 41111  1  0  0  0
 41 48  1  0  0  0
 42 43  1  0  0  0
 42 66  1  0  0  0
 42112  1  0  0  0
 42113  1  0  0  0
 43 44  1  0  0  0
 44114  1  0  0  0
 45 46  2  0  0  0
 45115  1  0  0  0
 46116  1  0  0  0
 47117  1  0  0  0
 47118  1  0  0  0
 48 56  1  0  0  0
 48 65  1  0  0  0
 48119  1  0  0  0
 49 50  1  0  0  0
 49 53  1  0  0  0
 49 64  1  0  0  0
 49120  1  0  0  0
 50 51  1  0  0  0
 50121  1  0  0  0
 50122  1  0  0  0
 51 52  1  0  0  0
 51123  1  0  0  0
 51124  1  0  0  0
 52125  1  0  0  0
 52126  1  0  0  0
 53 54  1  0  0  0
 54 55  2  0  0  0
 54127  1  0  0  0
 55 57  1  0  0  0
 55128  1  0  0  0
 56 69  2  0  0  0
 57 58  2  0  0  0
 57129  1  0  0  0
 58130  1  0  0  0
 59 60  1  0  0  0
 59 61  1  0  0  0
 59 62  1  0  0  0
 60131  1  0  0  0
 60132  1  0  0  0
 60133  1  0  0  0
 61134  1  0  0  0
 61135  1  0  0  0
 61136  1  0  0  0
 62137  1  0  0  0
 62138  1  0  0  0
 62139  1  0  0  0
 63 65  1  0  0  0
 63140  1  0  0  0
 63141  1  0  0  0
 63142  1  0  0  0
 64143  1  0  0  0
 65144  1  0  0  0
 68 80  1  0  0  0
 71 73  2  0  0  0
 71 75  1  0  0  0
 71145  1  0  0  0
 72 74  1  0  0  0
 72 76  2  0  0  0
 72146  1  0  0  0
 73 76  1  0  0  0
 73 82  1  0  0  0
 74 75  2  0  0  0
 74 81  1  0  0  0
 75 83  1  0  0  0
 76 85  1  0  0  0
 77 78  1  0  0  0
 77 80  1  0  0  0
 77147  1  0  0  0
 77148  1  0  0  0
 78 84  1  0  0  0
 78149  1  0  0  0
 78150  1  0  0  0
 79 80  1  0  0  0
 79 84  1  0  0  0
 79151  1  0  0  0
 79152  1  0  0  0
 80153  1  0  0  0
 81154  1  0  0  0
 81155  1  0  0  0
 81156  1  0  0  0
 82157  1  0  0  0
 82158  1  0  0  0
 82 84  1  0  0  0
 83159  1  0  0  0
 84160  1  0  0  0
M  CHG  1  84   1
M  ISO  4   1 100  68 101  80 101  83 100
M  END
> <chiral flag>
0

> <version>
0

> <s_m_source_file>
/data/baiqing/PycharmProjects/Reinvent-master-3.2/result/LINK_invent/BTK/process_docking_weight1_custom_product_contain_oxygen_bond_distance_aromatic_linkinvent_7_9_3/rearranged_h_0029.sdf

> <i_m_source_file_index>
84

> <r_mmod_Potential_Energy-OPLS-2005>
120.138084411621

> <r_mmod_Stretch_Energy-OPLS-2005>
128.954162597656

> <r_mmod_Bend_Energy-OPLS-2005>
218.366577148438

> <r_mmod_Torsional_Energy-OPLS-2005>
294.490264892578

> <r_mmod_Improper_Torsional_Energy-OPLS-2005>
5.64183568954468

> <r_mmod_Van_der_Waal_Energy-OPLS-2005>
141.939163208008

> <r_mmod_Electrostatic_Energy-OPLS-2005>
-327.662445068359

> <r_mmod_Solvation_Energy-OPLS-2005>
-431.5556640625

> <b_mmod_Minimization_Converged-OPLS-2005>
0

> <r_mmod_RMS_Derivative-OPLS-2005>
1.49507594108582

$$$$
84
                    3D
 Structure written by MMmdl.
159168  0  0  1  0            999 V2000
  -30.6049  -14.8367   20.5024 C   0  0  0  0  0  0
  -30.4343  -12.5239   19.5058 C   0  0  0  0  0  0
  -29.5209  -12.5301   18.2586 C   0  0  0  0  0  0
  -28.0500  -12.3296   18.6666 C   0  0  0  0  0  0
  -27.6404  -13.2378   19.8535 C   0  0  2  0  0  0
  -28.6747  -13.2061   20.9977 C   0  0  0  0  0  0
  -25.2519  -13.8208   20.5715 C   0  0  0  0  0  0
  -24.1808  -13.0460   20.9216 C   0  0  0  0  0  0
  -24.6394  -11.6928   20.8751 C   0  0  0  0  0  0
  -23.9068  -10.4304   21.0403 C   0  0  0  0  0  0
  -24.3622   -9.4223   21.9182 C   0  0  0  0  0  0
  -23.6310   -8.2248   22.0741 C   0  0  0  0  0  0
  -22.4293   -8.0278   21.3529 C   0  0  0  0  0  0
  -21.9922   -9.0254   20.4641 C   0  0  0  0  0  0
  -22.7235  -10.2142   20.3055 C   0  0  0  0  0  0
  -21.6867   -6.0733   22.5270 C   0  0  0  0  0  0
  -21.4012   -6.5634   23.8200 C   0  0  0  0  0  0
  -21.3662   -5.6788   24.9167 C   0  0  0  0  0  0
  -21.6056   -4.3052   24.7225 C   0  0  0  0  0  0
  -21.8826   -3.8141   23.4347 C   0  0  0  0  0  0
  -21.9202   -4.6959   22.3400 C   0  0  0  0  0  0
  -22.7830  -13.5238   21.1891 C   0  0  0  0  0  0
  -22.1670   -4.2138   21.0983 F   0  0  0  0  0  0
  -21.5638   -3.4540   25.7742 F   0  0  0  0  0  0
  -29.9755  -13.5980   20.4321 N   0  0  0  0  0  0
  -26.2933  -12.9412   20.3279 N   0  0  0  0  0  0
  -25.9326  -11.6552   20.5745 N   0  0  0  0  0  0
  -22.0473  -12.8210   22.0427 N   0  0  0  0  0  0
  -25.4271  -15.1930   20.4146 N   0  0  0  0  0  0
  -31.7371  -14.9324   20.0165 O   0  0  0  0  0  0
  -21.6659   -6.8873   21.4227 O   0  0  0  0  0  0
  -22.3509  -14.5555   20.6754 O   0  0  0  0  0  0
  -24.6349  -31.8508   23.1929 C   0  0  0  0  0  0
  -25.9153  -32.4731   23.8303 C   0  0  1  0  0  0
  -27.2169  -27.2026   20.1489 C   0  0  0  0  0  0
  -25.5922  -33.8534   24.2212 N   0  0  0  0  0  0
  -23.4355  -30.4684   21.5383 C   0  0  2  0  0  0
  -24.8865  -28.9095   20.1077 C   0  0  0  0  0  0
  -22.7523  -29.4558   22.4905 C   0  0  0  0  0  0
  -18.0296  -28.1381   22.8496 C   0  0  0  0  0  0
  -24.1496  -36.7287   23.2639 C   0  0  0  0  0  0
  -25.9857  -30.7453   21.3832 C   0  0  0  0  0  0
  -26.0587  -29.3622   20.7272 C   0  0  0  0  0  0
  -27.2270  -28.5225   20.7340 C   0  0  0  0  0  0
  -26.0301  -26.8464   19.4717 C   0  0  0  0  0  0
  -24.8830  -27.6650   19.4616 C   0  0  0  0  0  0
  -23.6555  -29.7970   20.1565 C   0  0  0  0  0  0
  -25.4125  -36.3053   24.0309 C   0  0  1  0  0  0
  -20.5901  -28.3694   23.1270 C   0  0  2  0  0  0
  -20.6781  -26.9409   22.5412 C   0  0  0  0  0  0
  -19.5748  -26.6372   21.5223 C   0  0  0  0  0  0
  -18.1927  -26.7924   22.1633 C   0  0  0  0  0  0
  -19.1553  -28.8863   23.2872 C   0  0  0  0  0  0
  -18.9465  -30.1464   23.8878 C   0  0  0  0  0  0
  -17.6464  -30.6584   24.0558 C   0  0  0  0  0  0
  -25.9066  -34.9422   23.5067 C   0  0  0  0  0  0
  -16.5353  -29.9075   23.6341 C   0  0  0  0  0  0
  -16.7281  -28.6493   23.0365 C   0  0  0  0  0  0
  -26.4499  -31.6579   25.0719 C   0  0  0  0  0  0
  -25.3695  -31.3759   26.1423 C   0  0  0  0  0  0
  -27.0356  -30.2979   24.6253 C   0  0  0  0  0  0
  -27.6043  -32.4341   25.7494 C   0  0  0  0  0  0
  -27.5579  -37.1790   24.8455 C   0  0  0  0  0  0
  -21.4226  -29.3035   22.3658 N   0  0  0  0  0  0
  -26.4297  -37.3753   23.9393 N   0  0  0  0  0  0
  -24.7048  -31.0411   22.0937 N   0  0  0  0  0  0
  -23.4203  -28.8116   23.3032 O   0  0  0  0  0  0
  -28.2841  -26.2564   20.2258 O   0  0  0  0  0  0
  -26.5651  -34.8905   22.4647 O   0  0  0  0  0  0
  -23.5486  -32.1351   23.7182 O   0  0  0  0  0  0
  -30.7479  -21.5450   20.6539 C   0  0  0  0  0  0
  -31.6403  -20.4526   20.6853 C   0  0  0  0  0  0
  -29.8368  -18.8047   20.4473 C   0  0  0  0  0  0
  -29.3507  -21.4000   20.4824 C   0  0  0  0  0  0
  -31.2058  -19.1185   20.5584 C   0  0  0  0  0  0
  -28.9425  -19.9797   20.3927 C   0  0  0  0  0  0
  -28.6671  -23.6713   19.3521 C   0  0  0  0  0  0
  -28.6466  -23.7859   21.3593 C   0  0  0  0  0  0
  -27.9931  -24.7480   20.2921 C   0  0  0  0  0  0
  -31.1507  -16.7059   23.0732 C   0  0  0  0  0  0
  -29.4237  -17.2443   20.2189 C   0  0  0  0  0  0
  -29.8579  -16.1519   22.4477 C   0  0  0  0  0  0
  -28.4866  -22.6372   20.4147 N   0  0  0  0  0  0
  -29.9369  -15.9848   20.9859 N   0  0  0  0  0  0
  -32.1325  -18.1326   20.5186 F   0  0  0  0  0  0
  -27.2524  -19.6862   20.1795 Cl  0  0  0  0  0  0
  -31.4751  -12.6555   19.2062 H   0  0  0  0  0  0
  -30.3946  -11.5541   20.0043 H   0  0  0  0  0  0
  -29.8254  -11.7453   17.5643 H   0  0  0  0  0  0
  -29.6303  -13.4749   17.7232 H   0  0  0  0  0  0
  -27.9293  -11.2818   18.9449 H   0  0  0  0  0  0
  -27.3904  -12.4955   17.8143 H   0  0  0  0  0  0
  -27.6277  -14.2565   19.4643 H   0  0  0  0  0  0
  -28.7339  -12.2166   21.4526 H   0  0  0  0  0  0
  -28.3520  -13.8825   21.7863 H   0  0  0  0  0  0
  -25.2763   -9.5722   22.4761 H   0  0  0  0  0  0
  -24.0039   -7.4643   22.7451 H   0  0  0  0  0  0
  -21.0852   -8.8769   19.8944 H   0  0  0  0  0  0
  -22.3679  -10.9688   19.6175 H   0  0  0  0  0  0
  -21.1983   -7.6138   23.9701 H   0  0  0  0  0  0
  -21.1483   -6.0517   25.9070 H   0  0  0  0  0  0
  -22.0603   -2.7600   23.2858 H   0  0  0  0  0  0
  -22.4095  -11.9877   22.4825 H   0  0  0  0  0  0
  -21.1078  -13.1210   22.2617 H   0  0  0  0  0  0
  -24.6754  -15.8592   20.5509 H   0  0  0  0  0  0
  -26.2847  -15.6248   20.0973 H   0  0  0  0  0  0
  -26.7220  -32.5354   23.1046 H   0  0  0  0  0  0
  -25.0048  -33.9684   25.0337 H   0  0  0  0  0  0
  -22.7344  -31.2917   21.3872 H   0  0  0  0  0  0
  -23.3750  -35.9627   23.3286 H   0  0  0  0  0  0
  -24.3589  -36.8935   22.2058 H   0  0  0  0  0  0
  -23.7265  -37.6483   23.6692 H   0  0  0  0  0  0
  -26.1279  -31.5015   20.6110 H   0  0  0  0  0  0
  -26.8622  -30.7982   22.0172 H   0  0  0  0  0  0
  -28.1207  -28.8601   21.2393 H   0  0  0  0  0  0
  -25.9630  -25.9041   18.9478 H   0  0  0  0  0  0
  -23.9936  -27.3211   18.9511 H   0  0  0  0  0  0
  -23.7677  -30.5686   19.3942 H   0  0  0  0  0  0
  -22.7774  -29.2197   19.8611 H   0  0  0  0  0  0
  -25.1310  -36.1893   25.0802 H   0  0  0  0  0  0
  -20.9992  -28.3270   24.1394 H   0  0  0  0  0  0
  -20.5693  -26.2298   23.3616 H   0  0  0  0  0  0
  -21.6643  -26.7427   22.1192 H   0  0  0  0  0  0
  -19.6906  -25.6278   21.1260 H   0  0  0  0  0  0
  -19.6686  -27.3178   20.6749 H   0  0  0  0  0  0
  -17.4200  -26.6686   21.4029 H   0  0  0  0  0  0
  -18.0317  -26.0057   22.9023 H   0  0  0  0  0  0
  -19.7939  -30.7300   24.2217 H   0  0  0  0  0  0
  -17.5010  -31.6268   24.5152 H   0  0  0  0  0  0
  -15.5351  -30.2969   23.7674 H   0  0  0  0  0  0
  -15.8681  -28.0806   22.7090 H   0  0  0  0  0  0
  -24.5871  -30.7110   25.7741 H   0  0  0  0  0  0
  -24.8890  -32.2943   26.4804 H   0  0  0  0  0  0
  -25.7984  -30.8957   27.0225 H   0  0  0  0  0  0
  -26.2955  -29.6722   24.1249 H   0  0  0  0  0  0
  -27.3973  -29.7256   25.4806 H   0  0  0  0  0  0
  -27.8861  -30.4224   23.9547 H   0  0  0  0  0  0
  -27.2634  -33.3650   26.2035 H   0  0  0  0  0  0
  -28.3869  -32.6888   25.0337 H   0  0  0  0  0  0
  -28.0690  -31.8489   26.5438 H   0  0  0  0  0  0
  -28.2575  -38.0105   24.7511 H   0  0  0  0  0  0
  -28.1093  -36.2633   24.6270 H   0  0  0  0  0  0
  -27.2294  -37.1419   25.8855 H   0  0  0  0  0  0
  -20.9417  -29.8761   21.6861 H   0  0  0  0  0  0
  -26.0166  -38.2823   24.1385 H   0  0  0  0  0  0
  -31.1723  -22.5333   20.7475 H   0  0  0  0  0  0
  -32.6980  -20.6444   20.7929 H   0  0  0  0  0  0
  -29.7152  -23.8839   19.1294 H   0  0  0  0  0  0
  -28.1034  -23.4576   18.4426 H   0  0  0  0  0  0
  -28.0602  -23.6877   22.2732 H   0  0  0  0  0  0
  -29.6860  -24.0316   21.5848 H   0  0  0  0  0  0
  -26.9180  -24.5752   20.3341 H   0  0  0  0  0  0
  -31.1040  -16.6617   24.1609 H   0  0  0  0  0  0
  -31.3107  -17.7500   22.8154 H   0  0  0  0  0  0
  -32.0322  -16.1443   22.7606 H   0  0  0  0  0  0
  -29.5943  -17.0544   19.1590 H   0  0  0  0  0  0
  -28.3408  -17.1966   20.3263 H   0  0  0  0  0  0
  -29.0147  -16.7945   22.7058 H   0  0  0  0  0  0
  -29.6461  -15.1974   22.9292 H   0  0  0  0  0  0
  1 25  1  0  0  0
  1 30  2  0  0  0
  1 84  1  0  0  0
  2  3  1  0  0  0
  2 25  1  0  0  0
  2 87  1  0  0  0
  2 88  1  0  0  0
  3  4  1  0  0  0
  3 89  1  0  0  0
  3 90  1  0  0  0
  4  5  1  0  0  0
  4 91  1  0  0  0
  4 92  1  0  0  0
  5  6  1  0  0  0
  5 26  1  0  0  0
  5 93  1  0  0  0
  6 25  1  0  0  0
  6 94  1  0  0  0
  6 95  1  0  0  0
  7  8  2  0  0  0
  7 26  1  0  0  0
  7 29  1  0  0  0
  8  9  1  0  0  0
  8 22  1  0  0  0
  9 10  1  0  0  0
  9 27  2  0  0  0
 10 11  2  0  0  0
 10 15  1  0  0  0
 11 12  1  0  0  0
 11 96  1  0  0  0
 12 13  2  0  0  0
 12 97  1  0  0  0
 13 14  1  0  0  0
 13 31  1  0  0  0
 14 15  2  0  0  0
 14 98  1  0  0  0
 15 99  1  0  0  0
 16 17  2  0  0  0
 16 21  1  0  0  0
 16 31  1  0  0  0
 17 18  1  0  0  0
 17100  1  0  0  0
 18 19  2  0  0  0
 18101  1  0  0  0
 19 20  1  0  0  0
 19 24  1  0  0  0
 20 21  2  0  0  0
 20102  1  0  0  0
 21 23  1  0  0  0
 22 28  1  0  0  0
 22 32  2  0  0  0
 26 27  1  0  0  0
 28103  1  0  0  0
 28104  1  0  0  0
 29105  1  0  0  0
 29106  1  0  0  0
 33 34  1  0  0  0
 33 66  1  0  0  0
 33 70  2  0  0  0
 34 36  1  0  0  0
 34 59  1  0  0  0
 34107  1  0  0  0
 35 44  2  0  0  0
 35 45  1  0  0  0
 35 68  1  0  0  0
 36 56  1  0  0  0
 36108  1  0  0  0
 37 39  1  0  0  0
 37 47  1  0  0  0
 37 66  1  0  0  0
 37109  1  0  0  0
 38 43  2  0  0  0
 38 46  1  0  0  0
 38 47  1  0  0  0
 39 64  1  0  0  0
 39 67  2  0  0  0
 40 52  1  0  0  0
 40 53  2  0  0  0
 40 58  1  0  0  0
 41110  1  0  0  0
 41111  1  0  0  0
 41112  1  0  0  0
 41 48  1  0  0  0
 42 43  1  0  0  0
 42 66  1  0  0  0
 42113  1  0  0  0
 42114  1  0  0  0
 43 44  1  0  0  0
 44115  1  0  0  0
 45 46  2  0  0  0
 45116  1  0  0  0
 46117  1  0  0  0
 47118  1  0  0  0
 47119  1  0  0  0
 48 56  1  0  0  0
 48 65  1  0  0  0
 48120  1  0  0  0
 49 50  1  0  0  0
 49 53  1  0  0  0
 49 64  1  0  0  0
 49121  1  0  0  0
 50 51  1  0  0  0
 50122  1  0  0  0
 50123  1  0  0  0
 51 52  1  0  0  0
 51124  1  0  0  0
 51125  1  0  0  0
 52126  1  0  0  0
 52127  1  0  0  0
 53 54  1  0  0  0
 54 55  2  0  0  0
 54128  1  0  0  0
 55 57  1  0  0  0
 55129  1  0  0  0
 56 69  2  0  0  0
 57 58  2  0  0  0
 57130  1  0  0  0
 58131  1  0  0  0
 59 60  1  0  0  0
 59 61  1  0  0  0
 59 62  1  0  0  0
 60132  1  0  0  0
 60133  1  0  0  0
 60134  1  0  0  0
 61135  1  0  0  0
 61136  1  0  0  0
 61137  1  0  0  0
 62138  1  0  0  0
 62139  1  0  0  0
 62140  1  0  0  0
 63 65  1  0  0  0
 63141  1  0  0  0
 63142  1  0  0  0
 63143  1  0  0  0
 64144  1  0  0  0
 65145  1  0  0  0
 68 79  1  0  0  0
 71 72  2  0  0  0
 71 74  1  0  0  0
 71146  1  0  0  0
 72 75  1  0  0  0
 72147  1  0  0  0
 73 75  2  0  0  0
 73 76  1  0  0  0
 73 81  1  0  0  0
 74 76  2  0  0  0
 74 83  1  0  0  0
 75 85  1  0  0  0
 76 86  1  0  0  0
 77 79  1  0  0  0
 77 83  1  0  0  0
 77148  1  0  0  0
 77149  1  0  0  0
 78 79  1  0  0  0
 78 83  1  0  0  0
 78150  1  0  0  0
 78151  1  0  0  0
 79152  1  0  0  0
 80 82  1  0  0  0
 80153  1  0  0  0
 80154  1  0  0  0
 80155  1  0  0  0
 81 84  1  0  0  0
 81156  1  0  0  0
 81157  1  0  0  0
 82 84  1  0  0  0
 82158  1  0  0  0
 82159  1  0  0  0
M  ISO  4   1 100  68 101  79 101  84 100
M  END
> <chiral flag>
0

> <version>
0

> <s_m_source_file>
/data/baiqing/PycharmProjects/Reinvent-master-3.2/result/LINK_invent/BTK/process_docking_weight1_custom_product_contain_oxygen_bond_distance_aromatic_linkinvent_7_9_3/rearranged_h_0029.sdf

> <i_m_source_file_index>
85

> <r_mmod_Potential_Energy-OPLS-2005>
576.873107910156

> <r_mmod_Stretch_Energy-OPLS-2005>
179.687103271484

> <r_mmod_Bend_Energy-OPLS-2005>
250.57991027832

> <r_mmod_Torsional_Energy-OPLS-2005>
330.118133544922

> <r_mmod_Improper_Torsional_Energy-OPLS-2005>
11.3463487625122

> <r_mmod_Van_der_Waal_Energy-OPLS-2005>
133.330612182617

> <r_mmod_Electrostatic_Energy-OPLS-2005>
-251.272399902344

> <r_mmod_Solvation_Energy-OPLS-2005>
-204.692474365234

> <b_mmod_Minimization_Converged-OPLS-2005>
0

> <r_mmod_RMS_Derivative-OPLS-2005>
2.02729892730713

$$$$
85
                    3D
 Structure written by MMmdl.
165174  0  0  1  0            999 V2000
  -28.9734  -18.4651   20.4273 C   0  0  0  0  0  0
  -29.8325  -15.2387   19.5951 C   0  0  0  0  0  0
  -29.4862  -13.8842   18.6390 C   0  0  0  0  0  0
  -28.4172  -12.9187   19.1500 C   0  0  0  0  0  0
  -27.5237  -13.8703   19.9383 C   0  0  2  0  0  0
  -28.1876  -15.1350   20.8565 C   0  0  0  0  0  0
  -25.1415  -13.9373   20.6203 C   0  0  0  0  0  0
  -24.1455  -13.0723   20.9410 C   0  0  0  0  0  0
  -24.6964  -11.7552   20.8690 C   0  0  0  0  0  0
  -23.9763  -10.4560   21.0165 C   0  0  0  0  0  0
  -24.4046   -9.4435   21.9065 C   0  0  0  0  0  0
  -23.6562   -8.2521   22.0749 C   0  0  0  0  0  0
  -22.4523   -8.0524   21.3571 C   0  0  0  0  0  0
  -22.0310   -9.0516   20.4610 C   0  0  0  0  0  0
  -22.7819  -10.2319   20.2915 C   0  0  0  0  0  0
  -21.6996   -6.0862   22.5250 C   0  0  0  0  0  0
  -21.4129   -6.5718   23.8194 C   0  0  0  0  0  0
  -21.3683   -5.6844   24.9136 C   0  0  0  0  0  0
  -21.6030   -4.3102   24.7175 C   0  0  0  0  0  0
  -21.8819   -3.8217   23.4291 C   0  0  0  0  0  0
  -21.9244   -4.7060   22.3360 C   0  0  0  0  0  0
  -22.7316  -13.4909   21.1942 C   0  0  0  0  0  0
  -22.1673   -4.2227   21.0936 F   0  0  0  0  0  0
  -21.5593   -3.4560   25.7673 F   0  0  0  0  0  0
  -28.8154  -16.5745   20.1998 N   0  0  0  0  0  0
  -26.2819  -13.2078   20.4307 N   0  0  0  0  0  0
  -26.0185  -11.8482   20.5806 N   0  0  0  0  0  0
  -22.0202  -12.7765   22.0544 N   0  0  0  0  0  0
  -25.1674  -15.3125   20.4347 N   0  0  0  0  0  0
  -30.2163  -17.9453   20.4034 O   0  0  0  0  0  0
  -21.6851   -6.9096   21.4254 O   0  0  0  0  0  0
  -22.2725  -14.5090   20.6778 O   0  0  0  0  0  0
  -24.7962  -31.4766   23.0024 C   0  0  0  0  0  0
  -25.9607  -32.2961   23.7013 C   0  0  1  0  0  0
  -27.1690  -25.5497   19.3717 C   0  0  0  0  0  0
  -25.5452  -33.7003   24.0585 N   0  0  0  0  0  0
  -23.8477  -29.5679   21.5112 C   0  0  2  0  0  0
  -25.7848  -26.9334   20.9445 C   0  0  0  0  0  0
  -22.8219  -29.1980   22.5825 C   0  0  0  0  0  0
  -18.0270  -28.1488   22.8349 C   0  0  0  0  0  0
  -24.1442  -36.6605   23.2700 C   0  0  0  0  0  0
  -26.2035  -29.5230   21.6786 C   0  0  0  0  0  0
  -26.2609  -27.7582   21.8869 C   0  0  0  0  0  0
  -26.4470  -26.2885   21.3026 C   0  0  0  0  0  0
  -27.0861  -26.0453   17.9895 C   0  0  0  0  0  0
  -27.0303  -26.0324   19.2686 C   0  0  0  0  0  0
  -24.3202  -28.1074   20.7394 C   0  0  0  0  0  0
  -25.4136  -36.2058   24.0122 C   0  0  1  0  0  0
  -20.5802  -28.3579   23.1177 C   0  0  2  0  0  0
  -20.6402  -26.9089   22.5729 C   0  0  0  0  0  0
  -19.5619  -26.6230   21.5282 C   0  0  0  0  0  0
  -18.1787  -26.8015   22.1515 C   0  0  0  0  0  0
  -19.1550  -28.8998   23.2599 C   0  0  0  0  0  0
  -18.9518  -30.1570   23.8682 C   0  0  0  0  0  0
  -17.6513  -30.6644   24.0484 C   0  0  0  0  0  0
  -25.9170  -34.8449   23.4490 C   0  0  0  0  0  0
  -16.5382  -29.9134   23.6316 C   0  0  0  0  0  0
  -16.7281  -28.6563   23.0322 C   0  0  0  0  0  0
  -26.4690  -31.6086   25.0351 C   0  0  0  0  0  0
  -25.3531  -31.3793   26.0833 C   0  0  0  0  0  0
  -27.1042  -30.2399   24.7361 C   0  0  0  0  0  0
  -27.5733  -32.4626   25.7061 C   0  0  0  0  0  0
  -27.5463  -37.1317   24.8444 C   0  0  0  0  0  0
  -21.4939  -29.2194   22.3503 N   0  0  0  0  0  0
  -26.4127  -37.3036   23.9407 N   0  0  0  0  0  0
  -24.9715  -30.3486   22.1195 N   0  0  0  0  0  0
  -23.3007  -28.7410   23.6135 O   0  0  0  0  0  0
  -28.0972  -24.3875   18.7378 O   0  0  0  0  0  0
  -26.6337  -34.8439   22.4488 O   0  0  0  0  0  0
  -23.6703  -31.8965   23.3481 O   0  0  0  0  0  0
  -26.3375  -28.0459   19.1538 C   0  0  0  0  0  0
  -28.5768  -25.1742   21.0595 C   0  0  0  0  0  0
  -25.5819  -24.1365   20.1030 C   0  0  0  0  0  0
  -24.8510  -26.0150   19.1104 C   0  0  0  0  0  0
  -27.4684  -23.2912   20.6657 C   0  0  0  0  0  0
  -28.2886  -27.3912   20.4226 C   0  0  0  0  0  0
  -23.2689  -23.1296   17.8872 C   0  0  0  0  0  0
  -24.7356  -22.6002   17.7059 C   0  0  0  0  0  0
  -23.0348  -24.6195   18.3267 C   0  0  0  0  0  0
  -24.9154  -24.9967   16.8643 C   0  0  0  0  0  0
  -25.7573  -23.6561   17.1918 C   0  0  1  0  0  0
  -24.5342  -23.3835   20.9050 C   0  0  0  0  0  0
  -29.7696  -21.0203   20.7532 C   0  0  0  0  0  0
  -27.3430  -23.5144   17.7114 C   0  0  0  0  0  0
  -24.0895  -25.5832   17.9744 N   0  0  0  0  0  0
  -28.3624  -20.7006   20.5702 N   0  0  0  0  0  0
  -29.2753  -28.2866   20.6528 F   0  0  0  0  0  0
  -30.5320  -15.7934   18.9675 H   0  0  0  0  0  0
  -30.5057  -14.9146   20.3929 H   0  0  0  0  0  0
  -30.4055  -13.3327   18.4404 H   0  0  0  0  0  0
  -29.1666  -14.2594   17.6646 H   0  0  0  0  0  0
  -28.8483  -12.1683   19.8160 H   0  0  0  0  0  0
  -27.8902  -12.4108   18.3412 H   0  0  0  0  0  0
  -27.1271  -14.4539   19.1037 H   0  0  0  0  0  0
  -28.8271  -14.7191   21.6401 H   0  0  0  0  0  0
  -27.3948  -15.5244   21.4919 H   0  0  0  0  0  0
  -25.3117   -9.5905   22.4753 H   0  0  0  0  0  0
  -24.0178   -7.4984   22.7591 H   0  0  0  0  0  0
  -21.1217   -8.9140   19.8927 H   0  0  0  0  0  0
  -22.4262  -10.9835   19.6007 H   0  0  0  0  0  0
  -21.2183   -7.6228   23.9736 H   0  0  0  0  0  0
  -21.1463   -6.0544   25.9045 H   0  0  0  0  0  0
  -22.0557   -2.7669   23.2773 H   0  0  0  0  0  0
  -22.4042  -11.9522   22.4898 H   0  0  0  0  0  0
  -21.0733  -13.0562   22.2690 H   0  0  0  0  0  0
  -24.3489  -15.9067   20.5221 H   0  0  0  0  0  0
  -25.9995  -15.8132   20.1511 H   0  0  0  0  0  0
  -26.7868  -32.3347   22.9873 H   0  0  0  0  0  0
  -24.8875  -33.7796   24.8216 H   0  0  0  0  0  0
  -23.3617  -30.2293   20.7902 H   0  0  0  0  0  0
  -23.3733  -35.8898   23.3051 H   0  0  0  0  0  0
  -24.3507  -36.8723   22.2198 H   0  0  0  0  0  0
  -23.7255  -37.5595   23.7239 H   0  0  0  0  0  0
  -26.4332  -29.8725   20.6762 H   0  0  0  0  0  0
  -27.0668  -29.9007   22.2062 H   0  0  0  0  0  0
  -26.6228  -25.5592   22.1618 H   0  0  0  0  0  0
  -27.7642  -25.7132   17.1864 H   0  0  0  0  0  0
  -27.8819  -26.8963   18.4576 H   0  0  0  0  0  0
  -24.0367  -28.3079   19.6996 H   0  0  0  0  0  0
  -23.5320  -27.4001   21.0004 H   0  0  0  0  0  0
  -25.1478  -36.0478   25.0608 H   0  0  0  0  0  0
  -20.9420  -28.3130   24.1474 H   0  0  0  0  0  0
  -20.4740  -26.2250   23.4075 H   0  0  0  0  0  0
  -21.6283  -26.6544   22.1905 H   0  0  0  0  0  0
  -19.6639  -25.6096   21.1432 H   0  0  0  0  0  0
  -19.6808  -27.2951   20.6777 H   0  0  0  0  0  0
  -17.4097  -26.6948   21.3859 H   0  0  0  0  0  0
  -17.9961  -26.0177   22.8875 H   0  0  0  0  0  0
  -19.8045  -30.7344   24.1999 H   0  0  0  0  0  0
  -17.5110  -31.6293   24.5138 H   0  0  0  0  0  0
  -15.5381  -30.2977   23.7755 H   0  0  0  0  0  0
  -15.8701  -28.0837   22.7078 H   0  0  0  0  0  0
  -24.5790  -30.7018   25.7204 H   0  0  0  0  0  0
  -24.8628  -32.3121   26.3612 H   0  0  0  0  0  0
  -25.7462  -30.9410   27.0017 H   0  0  0  0  0  0
  -26.3856  -29.5178   24.3443 H   0  0  0  0  0  0
  -27.5067  -29.7851   25.6417 H   0  0  0  0  0  0
  -27.9539  -30.3330   24.0613 H   0  0  0  0  0  0
  -27.1870  -33.4146   26.0756 H   0  0  0  0  0  0
  -28.3767  -32.6855   25.0024 H   0  0  0  0  0  0
  -28.0199  -31.9523   26.5610 H   0  0  0  0  0  0
  -28.2226  -37.9815   24.7539 H   0  0  0  0  0  0
  -28.1174  -36.2305   24.6170 H   0  0  0  0  0  0
  -27.2196  -37.0770   25.8837 H   0  0  0  0  0  0
  -21.1375  -29.6350   21.5006 H   0  0  0  0  0  0
  -25.9734  -38.1976   24.1463 H   0  0  0  0  0  0
  -26.1999  -28.9598   18.5967 H   0  0  0  0  0  0
  -29.5420  -24.9916   21.5158 H   0  0  0  0  0  0
  -22.7262  -22.4736   18.5677 H   0  0  0  0  0  0
  -22.7465  -22.9998   16.9384 H   0  0  0  0  0  0
  -24.6841  -21.7739   16.9960 H   0  0  0  0  0  0
  -25.1107  -22.0978   18.5916 H   0  0  0  0  0  0
  -22.7941  -24.6820   19.3817 H   0  0  0  0  0  0
  -22.1111  -24.9462   17.8499 H   0  0  0  0  0  0
  -24.2049  -24.7123   16.0894 H   0  0  0  0  0  0
  -25.4743  -25.7543   16.3134 H   0  0  0  0  0  0
  -25.9084  -23.2995   16.1702 H   0  0  0  0  0  0
  -23.6016  -23.9202   21.0628 H   0  0  0  0  0  0
  -24.9676  -23.2946   21.8994 H   0  0  0  0  0  0
  -24.3349  -22.3671   20.5781 H   0  0  0  0  0  0
  -29.9148  -22.0975   20.8325 H   0  0  0  0  0  0
  -30.3547  -20.6688   19.9029 H   0  0  0  0  0  0
  -30.1635  -20.5457   21.6534 H   0  0  0  0  0  0
  -27.9656  -23.5586   16.8094 H   0  0  0  0  0  0
  -27.4799  -22.4825   18.0333 H   0  0  0  0  0  0
  1 25  1  0  0  0
  1 30  2  0  0  0
  1 86  1  0  0  0
  2  3  1  0  0  0
  2 25  1  0  0  0
  2 88  1  0  0  0
  2 89  1  0  0  0
  3  4  1  0  0  0
  3 90  1  0  0  0
  3 91  1  0  0  0
  4  5  1  0  0  0
  4 92  1  0  0  0
  4 93  1  0  0  0
  5  6  1  0  0  0
  5 26  1  0  0  0
  5 94  1  0  0  0
  6 25  1  0  0  0
  6 95  1  0  0  0
  6 96  1  0  0  0
  7  8  2  0  0  0
  7 26  1  0  0  0
  7 29  1  0  0  0
  8  9  1  0  0  0
  8 22  1  0  0  0
  9 10  1  0  0  0
  9 27  2  0  0  0
 10 11  2  0  0  0
 10 15  1  0  0  0
 11 12  1  0  0  0
 11 97  1  0  0  0
 12 13  2  0  0  0
 12 98  1  0  0  0
 13 14  1  0  0  0
 13 31  1  0  0  0
 14 15  2  0  0  0
 14 99  1  0  0  0
 15100  1  0  0  0
 16 17  2  0  0  0
 16 21  1  0  0  0
 16 31  1  0  0  0
 17 18  1  0  0  0
 17101  1  0  0  0
 18 19  2  0  0  0
 18102  1  0  0  0
 19 20  1  0  0  0
 19 24  1  0  0  0
 20 21  2  0  0  0
 20103  1  0  0  0
 21 23  1  0  0  0
 22 28  1  0  0  0
 22 32  2  0  0  0
 26 27  1  0  0  0
 28104  1  0  0  0
 28105  1  0  0  0
 29106  1  0  0  0
 29107  1  0  0  0
 33 34  1  0  0  0
 33 66  1  0  0  0
 33 70  2  0  0  0
 34 36  1  0  0  0
 34 59  1  0  0  0
 34108  1  0  0  0
 35 44  2  0  0  0
 35 45  1  0  0  0
 35 68  1  0  0  0
 36 56  1  0  0  0
 36109  1  0  0  0
 37 39  1  0  0  0
 37 47  1  0  0  0
 37 66  1  0  0  0
 37110  1  0  0  0
 38 43  2  0  0  0
 38 46  1  0  0  0
 38 47  1  0  0  0
 39 64  1  0  0  0
 39 67  2  0  0  0
 40 52  1  0  0  0
 40 53  2  0  0  0
 40 58  1  0  0  0
 41111  1  0  0  0
 41112  1  0  0  0
 41113  1  0  0  0
 41 48  1  0  0  0
 42 43  1  0  0  0
 42 66  1  0  0  0
 42114  1  0  0  0
 42115  1  0  0  0
 43 44  1  0  0  0
 44116  1  0  0  0
 45 46  2  0  0  0
 45117  1  0  0  0
 46118  1  0  0  0
 47119  1  0  0  0
 47120  1  0  0  0
 48 56  1  0  0  0
 48 65  1  0  0  0
 48121  1  0  0  0
 49 50  1  0  0  0
 49 53  1  0  0  0
 49 64  1  0  0  0
 49122  1  0  0  0
 50 51  1  0  0  0
 50123  1  0  0  0
 50124  1  0  0  0
 51 52  1  0  0  0
 51125  1  0  0  0
 51126  1  0  0  0
 52127  1  0  0  0
 52128  1  0  0  0
 53 54  1  0  0  0
 54 55  2  0  0  0
 54129  1  0  0  0
 55 57  1  0  0  0
 55130  1  0  0  0
 56 69  2  0  0  0
 57 58  2  0  0  0
 57131  1  0  0  0
 58132  1  0  0  0
 59 60  1  0  0  0
 59 61  1  0  0  0
 59 62  1  0  0  0
 60133  1  0  0  0
 60134  1  0  0  0
 60135  1  0  0  0
 61136  1  0  0  0
 61137  1  0  0  0
 61138  1  0  0  0
 62139  1  0  0  0
 62140  1  0  0  0
 62141  1  0  0  0
 63 65  1  0  0  0
 63142  1  0  0  0
 63143  1  0  0  0
 63144  1  0  0  0
 64145  1  0  0  0
 65146  1  0  0  0
 68 84  1  0  0  0
 71 74  2  0  0  0
 71 76  1  0  0  0
 71147  1  0  0  0
 72 75  1  0  0  0
 72 76  2  0  0  0
 72148  1  0  0  0
 73 74  1  0  0  0
 73 75  2  0  0  0
 73 82  1  0  0  0
 74 85  1  0  0  0
 75 86  1  0  0  0
 76 87  1  0  0  0
 77 78  1  0  0  0
 77 79  1  0  0  0
 77149  1  0  0  0
 77150  1  0  0  0
 78 81  1  0  0  0
 78151  1  0  0  0
 78152  1  0  0  0
 79 85  1  0  0  0
 79153  1  0  0  0
 79154  1  0  0  0
 80 81  1  0  0  0
 80 85  1  0  0  0
 80155  1  0  0  0
 80156  1  0  0  0
 81 84  1  0  0  0
 81157  1  0  0  0
 82158  1  0  0  0
 82159  1  0  0  0
 82160  1  0  0  0
 83 86  1  0  0  0
 83161  1  0  0  0
 83162  1  0  0  0
 83163  1  0  0  0
 84164  1  0  0  0
 84165  1  0  0  0
M  ISO  4   1 100  68 101  84 101  86 100
M  END
> <chiral flag>
0

> <version>
0

> <s_m_source_file>
/data/baiqing/PycharmProjects/Reinvent-master-3.2/result/LINK_invent/BTK/process_docking_weight1_custom_product_contain_oxygen_bond_distance_aromatic_linkinvent_7_9_3/rearranged_h_0029.sdf

> <i_m_source_file_index>
86

> <r_mmod_Potential_Energy-OPLS-2005>
39410.34765625

> <r_mmod_Stretch_Energy-OPLS-2005>
19351.884765625

> <r_mmod_Bend_Energy-OPLS-2005>
3612.765625

> <r_mmod_Torsional_Energy-OPLS-2005>
806.705017089844

> <r_mmod_Improper_Torsional_Energy-OPLS-2005>
79.7143020629883

> <r_mmod_Van_der_Waal_Energy-OPLS-2005>
4797.0537109375

> <r_mmod_Electrostatic_Energy-OPLS-2005>
-299.557800292969

> <r_mmod_Solvation_Energy-OPLS-2005>
-227.385726928711

> <b_mmod_Minimization_Converged-OPLS-2005>
0

> <r_mmod_RMS_Derivative-OPLS-2005>
12.1678447723389

$$$$
86
                    3D
 Structure written by MMmdl.
153162  0  0  1  0            999 V2000
  -30.5095  -14.9437   20.4240 C   0  0  0  0  0  0
  -30.4565  -12.5904   19.4819 C   0  0  0  0  0  0
  -29.5222  -12.5226   18.2494 C   0  0  0  0  0  0
  -28.0607  -12.2930   18.6808 C   0  0  0  0  0  0
  -27.6352  -13.2342   19.8389 C   0  0  2  0  0  0
  -28.6815  -13.2474   20.9756 C   0  0  0  0  0  0
  -25.2526  -13.8202   20.5769 C   0  0  0  0  0  0
  -24.1810  -13.0432   20.9254 C   0  0  0  0  0  0
  -24.6398  -11.6911   20.8781 C   0  0  0  0  0  0
  -23.9067  -10.4288   21.0427 C   0  0  0  0  0  0
  -24.3621   -9.4194   21.9199 C   0  0  0  0  0  0
  -23.6299   -8.2234   22.0756 C   0  0  0  0  0  0
  -22.4273   -8.0289   21.3550 C   0  0  0  0  0  0
  -21.9914   -9.0249   20.4637 C   0  0  0  0  0  0
  -22.7249  -10.2136   20.3054 C   0  0  0  0  0  0
  -21.6843   -6.0753   22.5284 C   0  0  0  0  0  0
  -21.4002   -6.5650   23.8221 C   0  0  0  0  0  0
  -21.3660   -5.6792   24.9182 C   0  0  0  0  0  0
  -21.6040   -4.3055   24.7218 C   0  0  0  0  0  0
  -21.8820   -3.8156   23.4336 C   0  0  0  0  0  0
  -21.9185   -4.6980   22.3402 C   0  0  0  0  0  0
  -22.7827  -13.5219   21.1910 C   0  0  0  0  0  0
  -22.1653   -4.2170   21.0977 F   0  0  0  0  0  0
  -21.5635   -3.4533   25.7727 F   0  0  0  0  0  0
  -29.9559  -13.6678   20.3768 N   0  0  0  0  0  0
  -26.2917  -12.9393   20.3250 N   0  0  0  0  0  0
  -25.9328  -11.6534   20.5742 N   0  0  0  0  0  0
  -22.0447  -12.8191   22.0438 N   0  0  0  0  0  0
  -25.4219  -15.1952   20.4315 N   0  0  0  0  0  0
  -31.7180  -15.0599   20.1854 O   0  0  0  0  0  0
  -21.6636   -6.8895   21.4246 O   0  0  0  0  0  0
  -22.3518  -14.5536   20.6777 O   0  0  0  0  0  0
  -24.6449  -31.8431   23.1844 C   0  0  0  0  0  0
  -25.9205  -32.4716   23.8241 C   0  0  1  0  0  0
  -27.2282  -27.1318   20.1676 C   0  0  0  0  0  0
  -25.5965  -33.8509   24.2201 N   0  0  0  0  0  0
  -23.4503  -30.4620   21.5280 C   0  0  2  0  0  0
  -24.9005  -28.8748   20.1170 C   0  0  0  0  0  0
  -22.7568  -29.4557   22.4818 C   0  0  0  0  0  0
  -18.0297  -28.1446   22.8506 C   0  0  0  0  0  0
  -24.1447  -36.7229   23.2654 C   0  0  0  0  0  0
  -26.0036  -30.7218   21.3723 C   0  0  0  0  0  0
  -26.0776  -29.3238   20.7290 C   0  0  0  0  0  0
  -27.2438  -28.4719   20.7285 C   0  0  0  0  0  0
  -26.0230  -26.7714   19.5296 C   0  0  0  0  0  0
  -24.8842  -27.6107   19.5033 C   0  0  0  0  0  0
  -23.6796  -29.7826   20.1500 C   0  0  0  0  0  0
  -25.4088  -36.3031   24.0331 C   0  0  1  0  0  0
  -20.5916  -28.3753   23.1237 C   0  0  2  0  0  0
  -20.6771  -26.9451   22.5396 C   0  0  0  0  0  0
  -19.5730  -26.6409   21.5229 C   0  0  0  0  0  0
  -18.1912  -26.7998   22.1629 C   0  0  0  0  0  0
  -19.1565  -28.8908   23.2881 C   0  0  0  0  0  0
  -18.9502  -30.1504   23.8901 C   0  0  0  0  0  0
  -17.6498  -30.6648   24.0585 C   0  0  0  0  0  0
  -25.9051  -34.9415   23.5048 C   0  0  0  0  0  0
  -16.5375  -29.9163   23.6354 C   0  0  0  0  0  0
  -16.7278  -28.6577   23.0382 C   0  0  0  0  0  0
  -26.4539  -31.6582   25.0672 C   0  0  0  0  0  0
  -25.3772  -31.3830   26.1431 C   0  0  0  0  0  0
  -27.0341  -30.2975   24.6168 C   0  0  0  0  0  0
  -27.6106  -32.4298   25.7452 C   0  0  0  0  0  0
  -27.5531  -37.1769   24.8497 C   0  0  0  0  0  0
  -21.4249  -29.3102   22.3618 N   0  0  0  0  0  0
  -26.4243  -37.3753   23.9439 N   0  0  0  0  0  0
  -24.7212  -31.0298   22.0859 N   0  0  0  0  0  0
  -23.4204  -28.8063   23.2954 O   0  0  0  0  0  0
  -28.3103  -26.1820   20.1646 O   0  0  0  0  0  0
  -26.5613  -34.8921   22.4620 O   0  0  0  0  0  0
  -23.5563  -32.1260   23.7072 O   0  0  0  0  0  0
  -28.3862  -19.7667   19.8878 C   0  0  0  0  0  0
  -30.5758  -18.5018   21.0347 C   0  0  0  0  0  0
  -29.2854  -20.6890   20.5232 C   0  0  0  0  0  0
  -29.6407  -17.5879   20.4458 C   0  0  0  0  0  0
  -28.5370  -18.3161   19.8776 C   0  0  0  0  0  0
  -30.4016  -19.9515   21.0855 C   0  0  0  0  0  0
  -29.1347  -24.3945   21.7597 C   0  0  0  0  0  0
  -29.2991  -22.8469   21.9498 C   0  0  0  0  0  0
  -28.5347  -23.2962   19.7611 C   0  0  0  0  0  0
  -28.1747  -24.6851   20.5879 C   0  0  2  0  0  0
  -29.0819  -22.1753   20.6599 N   0  0  0  0  0  0
  -29.6269  -16.0502   20.4993 N   0  0  0  0  0  0
  -27.5475  -17.5821   19.3108 F   0  0  0  0  0  0
  -31.3761  -20.6532   21.7143 F   0  0  0  0  0  0
  -31.4821  -12.7807   19.1621 H   0  0  0  0  0  0
  -30.4807  -11.6367   20.0088 H   0  0  0  0  0  0
  -29.8461  -11.7271   17.5759 H   0  0  0  0  0  0
  -29.5928  -13.4523   17.6793 H   0  0  0  0  0  0
  -27.9753  -11.2551   19.0088 H   0  0  0  0  0  0
  -27.3858  -12.3952   17.8292 H   0  0  0  0  0  0
  -27.6008  -14.2348   19.4064 H   0  0  0  0  0  0
  -28.7757  -12.2655   21.4425 H   0  0  0  0  0  0
  -28.3807  -13.9375   21.7669 H   0  0  0  0  0  0
  -25.2775   -9.5684   22.4761 H   0  0  0  0  0  0
  -24.0011   -7.4621   22.7477 H   0  0  0  0  0  0
  -21.0843   -8.8760   19.8938 H   0  0  0  0  0  0
  -22.3711  -10.9664   19.6152 H   0  0  0  0  0  0
  -21.1983   -7.6156   23.9735 H   0  0  0  0  0  0
  -21.1482   -6.0519   25.9089 H   0  0  0  0  0  0
  -22.0598   -2.7611   23.2819 H   0  0  0  0  0  0
  -22.4021  -11.9794   22.4752 H   0  0  0  0  0  0
  -21.1075  -13.1237   22.2660 H   0  0  0  0  0  0
  -24.6623  -15.8445   20.6058 H   0  0  0  0  0  0
  -26.2533  -15.6553   20.0836 H   0  0  0  0  0  0
  -26.7271  -32.5319   23.0975 H   0  0  0  0  0  0
  -25.0198  -33.9622   25.0412 H   0  0  0  0  0  0
  -22.7557  -31.2891   21.3668 H   0  0  0  0  0  0
  -23.3755  -35.9511   23.3263 H   0  0  0  0  0  0
  -24.3542  -36.8894   22.2076 H   0  0  0  0  0  0
  -23.7106  -37.6376   23.6699 H   0  0  0  0  0  0
  -26.1311  -31.4620   20.5804 H   0  0  0  0  0  0
  -26.8865  -30.8007   21.9928 H   0  0  0  0  0  0
  -28.1495  -28.8208   21.2043 H   0  0  0  0  0  0
  -25.9545  -25.8008   19.0579 H   0  0  0  0  0  0
  -23.9822  -27.2614   19.0191 H   0  0  0  0  0  0
  -23.8289  -30.5536   19.3947 H   0  0  0  0  0  0
  -22.7933  -29.2311   19.8295 H   0  0  0  0  0  0
  -25.1266  -36.1845   25.0822 H   0  0  0  0  0  0
  -21.0026  -28.3321   24.1349 H   0  0  0  0  0  0
  -20.5674  -26.2368   23.3635 H   0  0  0  0  0  0
  -21.6628  -26.7448   22.1168 H   0  0  0  0  0  0
  -19.6875  -25.6319   21.1259 H   0  0  0  0  0  0
  -19.6665  -27.3233   20.6776 H   0  0  0  0  0  0
  -17.4182  -26.6797   21.4031 H   0  0  0  0  0  0
  -18.0265  -26.0155   22.9032 H   0  0  0  0  0  0
  -19.7981  -30.7335   24.2246 H   0  0  0  0  0  0
  -17.5079  -31.6336   24.5191 H   0  0  0  0  0  0
  -15.5392  -30.3094   23.7712 H   0  0  0  0  0  0
  -15.8663  -28.0918   22.7105 H   0  0  0  0  0  0
  -24.5883  -30.7241   25.7810 H   0  0  0  0  0  0
  -24.9090  -32.3080   26.4819 H   0  0  0  0  0  0
  -25.8112  -30.9022   27.0216 H   0  0  0  0  0  0
  -26.2893  -29.6744   24.1226 H   0  0  0  0  0  0
  -27.4073  -29.7219   25.4644 H   0  0  0  0  0  0
  -27.8751  -30.4244   23.9353 H   0  0  0  0  0  0
  -27.2820  -33.3792   26.1696 H   0  0  0  0  0  0
  -28.4130  -32.6492   25.0395 H   0  0  0  0  0  0
  -28.0495  -31.8581   26.5638 H   0  0  0  0  0  0
  -28.2574  -38.0035   24.7474 H   0  0  0  0  0  0
  -28.0965  -36.2548   24.6379 H   0  0  0  0  0  0
  -27.2256  -37.1497   25.8907 H   0  0  0  0  0  0
  -20.9430  -29.8929   21.6901 H   0  0  0  0  0  0
  -26.0094  -38.2802   24.1492 H   0  0  0  0  0  0
  -27.4992  -20.1702   19.4228 H   0  0  0  0  0  0
  -31.4470  -18.0884   21.5174 H   0  0  0  0  0  0
  -30.1078  -24.8126   21.5059 H   0  0  0  0  0  0
  -28.8150  -24.8935   22.6751 H   0  0  0  0  0  0
  -28.5648  -22.4820   22.6704 H   0  0  0  0  0  0
  -30.2802  -22.6344   22.3788 H   0  0  0  0  0  0
  -29.3027  -23.5201   19.0186 H   0  0  0  0  0  0
  -27.6683  -22.9443   19.1994 H   0  0  0  0  0  0
  -27.1578  -24.5577   20.9623 H   0  0  0  0  0  0
  -28.6811  -15.7032   20.5012 H   0  0  0  0  0  0
  1 25  1  0  0  0
  1 30  2  0  0  0
  1 82  1  0  0  0
  2  3  1  0  0  0
  2 25  1  0  0  0
  2 85  1  0  0  0
  2 86  1  0  0  0
  3  4  1  0  0  0
  3 87  1  0  0  0
  3 88  1  0  0  0
  4  5  1  0  0  0
  4 89  1  0  0  0
  4 90  1  0  0  0
  5  6  1  0  0  0
  5 26  1  0  0  0
  5 91  1  0  0  0
  6 25  1  0  0  0
  6 92  1  0  0  0
  6 93  1  0  0  0
  7  8  2  0  0  0
  7 26  1  0  0  0
  7 29  1  0  0  0
  8  9  1  0  0  0
  8 22  1  0  0  0
  9 10  1  0  0  0
  9 27  2  0  0  0
 10 11  2  0  0  0
 10 15  1  0  0  0
 11 12  1  0  0  0
 11 94  1  0  0  0
 12 13  2  0  0  0
 12 95  1  0  0  0
 13 14  1  0  0  0
 13 31  1  0  0  0
 14 15  2  0  0  0
 14 96  1  0  0  0
 15 97  1  0  0  0
 16 17  2  0  0  0
 16 21  1  0  0  0
 16 31  1  0  0  0
 17 18  1  0  0  0
 17 98  1  0  0  0
 18 19  2  0  0  0
 18 99  1  0  0  0
 19 20  1  0  0  0
 19 24  1  0  0  0
 20 21  2  0  0  0
 20100  1  0  0  0
 21 23  1  0  0  0
 22 28  1  0  0  0
 22 32  2  0  0  0
 26 27  1  0  0  0
 28101  1  0  0  0
 28102  1  0  0  0
 29103  1  0  0  0
 29104  1  0  0  0
 33 34  1  0  0  0
 33 66  1  0  0  0
 33 70  2  0  0  0
 34 36  1  0  0  0
 34 59  1  0  0  0
 34105  1  0  0  0
 35 44  2  0  0  0
 35 45  1  0  0  0
 35 68  1  0  0  0
 36 56  1  0  0  0
 36106  1  0  0  0
 37 39  1  0  0  0
 37 47  1  0  0  0
 37 66  1  0  0  0
 37107  1  0  0  0
 38 43  2  0  0  0
 38 46  1  0  0  0
 38 47  1  0  0  0
 39 64  1  0  0  0
 39 67  2  0  0  0
 40 52  1  0  0  0
 40 53  2  0  0  0
 40 58  1  0  0  0
 41108  1  0  0  0
 41109  1  0  0  0
 41110  1  0  0  0
 41 48  1  0  0  0
 42 43  1  0  0  0
 42 66  1  0  0  0
 42111  1  0  0  0
 42112  1  0  0  0
 43 44  1  0  0  0
 44113  1  0  0  0
 45 46  2  0  0  0
 45114  1  0  0  0
 46115  1  0  0  0
 47116  1  0  0  0
 47117  1  0  0  0
 48 56  1  0  0  0
 48 65  1  0  0  0
 48118  1  0  0  0
 49 50  1  0  0  0
 49 53  1  0  0  0
 49 64  1  0  0  0
 49119  1  0  0  0
 50 51  1  0  0  0
 50120  1  0  0  0
 50121  1  0  0  0
 51 52  1  0  0  0
 51122  1  0  0  0
 51123  1  0  0  0
 52124  1  0  0  0
 52125  1  0  0  0
 53 54  1  0  0  0
 54 55  2  0  0  0
 54126  1  0  0  0
 55 57  1  0  0  0
 55127  1  0  0  0
 56 69  2  0  0  0
 57 58  2  0  0  0
 57128  1  0  0  0
 58129  1  0  0  0
 59 60  1  0  0  0
 59 61  1  0  0  0
 59 62  1  0  0  0
 60130  1  0  0  0
 60131  1  0  0  0
 60132  1  0  0  0
 61133  1  0  0  0
 61134  1  0  0  0
 61135  1  0  0  0
 62136  1  0  0  0
 62137  1  0  0  0
 62138  1  0  0  0
 63 65  1  0  0  0
 63139  1  0  0  0
 63140  1  0  0  0
 63141  1  0  0  0
 64142  1  0  0  0
 65143  1  0  0  0
 68 80  1  0  0  0
 71 73  2  0  0  0
 71 75  1  0  0  0
 71144  1  0  0  0
 72 74  1  0  0  0
 72 76  2  0  0  0
 72145  1  0  0  0
 73 76  1  0  0  0
 73 81  1  0  0  0
 74 75  2  0  0  0
 74 82  1  0  0  0
 75 83  1  0  0  0
 76 84  1  0  0  0
 77 78  1  0  0  0
 77 80  1  0  0  0
 77146  1  0  0  0
 77147  1  0  0  0
 78 81  1  0  0  0
 78148  1  0  0  0
 78149  1  0  0  0
 79 80  1  0  0  0
 79 81  1  0  0  0
 79150  1  0  0  0
 79151  1  0  0  0
 80152  1  0  0  0
 82153  1  0  0  0
M  ISO  4   1 100  68 101  80 101  82 100
M  END
> <chiral flag>
0

> <version>
0

> <s_m_source_file>
/data/baiqing/PycharmProjects/Reinvent-master-3.2/result/LINK_invent/BTK/process_docking_weight1_custom_product_contain_oxygen_bond_distance_aromatic_linkinvent_7_9_3/rearranged_h_0029.sdf

> <i_m_source_file_index>
87

> <r_mmod_Potential_Energy-OPLS-2005>
556.692138671875

> <r_mmod_Stretch_Energy-OPLS-2005>
219.085388183594

> <r_mmod_Bend_Energy-OPLS-2005>
310.526489257812

> <r_mmod_Torsional_Energy-OPLS-2005>
300.982421875

> <r_mmod_Improper_Torsional_Energy-OPLS-2005>
6.36589860916138

> <r_mmod_Van_der_Waal_Energy-OPLS-2005>
121.747802734375

> <r_mmod_Electrostatic_Energy-OPLS-2005>
-374.692443847656

> <r_mmod_Solvation_Energy-OPLS-2005>
-217.39421081543

> <b_mmod_Minimization_Converged-OPLS-2005>
0

> <r_mmod_RMS_Derivative-OPLS-2005>
3.63585019111633

$$$$
87
                    3D
 Structure written by MMmdl.
156165  0  0  1  0            999 V2000
  -30.6527  -14.7051   20.4559 C   0  0  0  0  0  0
  -30.4195  -12.4293   19.4749 C   0  0  0  0  0  0
  -29.5048  -12.4990   18.2344 C   0  0  0  0  0  0
  -28.0307  -12.3320   18.6481 C   0  0  0  0  0  0
  -27.6397  -13.2347   19.8494 C   0  0  2  0  0  0
  -28.6840  -13.1773   20.9855 C   0  0  0  0  0  0
  -25.2494  -13.8206   20.5701 C   0  0  0  0  0  0
  -24.1792  -13.0442   20.9209 C   0  0  0  0  0  0
  -24.6389  -11.6923   20.8752 C   0  0  0  0  0  0
  -23.9070  -10.4297   21.0409 C   0  0  0  0  0  0
  -24.3621   -9.4209   21.9185 C   0  0  0  0  0  0
  -23.6298   -8.2245   22.0756 C   0  0  0  0  0  0
  -22.4284   -8.0280   21.3543 C   0  0  0  0  0  0
  -21.9919   -9.0252   20.4645 C   0  0  0  0  0  0
  -22.7244  -10.2134   20.3054 C   0  0  0  0  0  0
  -21.6854   -6.0738   22.5279 C   0  0  0  0  0  0
  -21.4012   -6.5641   23.8211 C   0  0  0  0  0  0
  -21.3662   -5.6792   24.9173 C   0  0  0  0  0  0
  -21.6046   -4.3055   24.7222 C   0  0  0  0  0  0
  -21.8821   -3.8147   23.4343 C   0  0  0  0  0  0
  -21.9191   -4.6965   22.3400 C   0  0  0  0  0  0
  -22.7811  -13.5216   21.1869 C   0  0  0  0  0  0
  -22.1661   -4.2148   21.0978 F   0  0  0  0  0  0
  -21.5630   -3.4541   25.7736 F   0  0  0  0  0  0
  -29.9879  -13.5035   20.3981 N   0  0  0  0  0  0
  -26.2926  -12.9423   20.3287 N   0  0  0  0  0  0
  -25.9321  -11.6564   20.5763 N   0  0  0  0  0  0
  -22.0461  -12.8201   22.0423 N   0  0  0  0  0  0
  -25.4171  -15.1931   20.4117 N   0  0  0  0  0  0
  -31.8475  -14.7554   20.1532 O   0  0  0  0  0  0
  -21.6643   -6.8881   21.4243 O   0  0  0  0  0  0
  -22.3495  -14.5520   20.6716 O   0  0  0  0  0  0
  -24.6304  -31.8563   23.1998 C   0  0  0  0  0  0
  -25.9134  -32.4761   23.8340 C   0  0  1  0  0  0
  -27.2150  -27.2818   20.1252 C   0  0  0  0  0  0
  -25.5936  -33.8562   24.2269 N   0  0  0  0  0  0
  -23.4255  -30.4802   21.5433 C   0  0  2  0  0  0
  -24.8720  -28.9315   20.1075 C   0  0  0  0  0  0
  -22.7495  -29.4611   22.4922 C   0  0  0  0  0  0
  -18.0289  -28.1386   22.8491 C   0  0  0  0  0  0
  -24.1486  -36.7281   23.2643 C   0  0  0  0  0  0
  -25.9701  -30.7764   21.3759 C   0  0  0  0  0  0
  -26.0438  -29.4020   20.7149 C   0  0  0  0  0  0
  -27.2214  -28.5902   20.7106 C   0  0  0  0  0  0
  -26.0253  -26.8778   19.4814 C   0  0  0  0  0  0
  -24.8671  -27.6771   19.4788 C   0  0  0  0  0  0
  -23.6416  -29.8157   20.1587 C   0  0  0  0  0  0
  -25.4112  -36.3073   24.0333 C   0  0  1  0  0  0
  -20.5892  -28.3696   23.1273 C   0  0  2  0  0  0
  -20.6777  -26.9414   22.5410 C   0  0  0  0  0  0
  -19.5750  -26.6384   21.5217 C   0  0  0  0  0  0
  -18.1930  -26.7930   22.1625 C   0  0  0  0  0  0
  -19.1544  -28.8860   23.2876 C   0  0  0  0  0  0
  -18.9463  -30.1462   23.8891 C   0  0  0  0  0  0
  -17.6464  -30.6589   24.0566 C   0  0  0  0  0  0
  -25.9053  -34.9442   23.5102 C   0  0  0  0  0  0
  -16.5355  -29.9084   23.6338 C   0  0  0  0  0  0
  -16.7277  -28.6502   23.0359 C   0  0  0  0  0  0
  -26.4507  -31.6583   25.0724 C   0  0  0  0  0  0
  -25.3737  -31.3716   26.1447 C   0  0  0  0  0  0
  -27.0371  -30.3011   24.6199 C   0  0  0  0  0  0
  -27.6060  -32.4328   25.7495 C   0  0  0  0  0  0
  -27.5581  -37.1790   24.8464 C   0  0  0  0  0  0
  -21.4204  -29.3042   22.3664 N   0  0  0  0  0  0
  -26.4283  -37.3775   23.9419 N   0  0  0  0  0  0
  -24.6945  -31.0549   22.0963 N   0  0  0  0  0  0
  -23.4201  -28.8150   23.3016 O   0  0  0  0  0  0
  -28.2937  -26.3772   20.1915 O   0  0  0  0  0  0
  -26.5622  -34.8915   22.4667 O   0  0  0  0  0  0
  -23.5461  -32.1376   23.7310 O   0  0  0  0  0  0
  -30.3295  -19.7107   19.5426 C   0  0  0  0  0  0
  -29.8389  -21.0555   19.5732 C   0  0  0  0  0  0
  -28.7901  -19.0823   21.2423 C   0  0  0  0  0  0
  -29.8327  -18.6689   20.3769 C   0  0  0  0  0  0
  -28.3062  -20.4390   21.2717 C   0  0  0  0  0  0
  -28.8101  -21.5044   20.4467 C   0  0  0  0  0  0
  -28.1061  -23.8017   19.3764 C   0  0  0  0  0  0
  -28.9102  -23.9811   21.2407 C   0  0  0  0  0  0
  -27.9548  -24.9370   20.4495 C   0  0  0  0  0  0
  -27.1862  -20.7578   22.2467 C   0  0  0  0  0  0
  -30.5677  -17.2556   20.3939 C   0  0  0  0  0  0
  -28.2488  -22.8721   20.5198 N   0  0  0  0  0  0
  -29.9468  -15.8855   20.6159 N   0  0  0  0  0  0
  -31.4643  -12.5273   19.1757 H   0  0  0  0  0  0
  -30.3389  -11.4560   19.9615 H   0  0  0  0  0  0
  -29.7811  -11.7267   17.5154 H   0  0  0  0  0  0
  -29.6402  -13.4550   17.7261 H   0  0  0  0  0  0
  -27.8824  -11.2840   18.9110 H   0  0  0  0  0  0
  -27.3746  -12.5272   17.7991 H   0  0  0  0  0  0
  -27.6330  -14.2550   19.4661 H   0  0  0  0  0  0
  -28.7079  -12.1884   21.4451 H   0  0  0  0  0  0
  -28.4284  -13.8803   21.7796 H   0  0  0  0  0  0
  -25.2764   -9.5686   22.4762 H   0  0  0  0  0  0
  -24.0004   -7.4638   22.7480 H   0  0  0  0  0  0
  -21.0853   -8.8775   19.8947 H   0  0  0  0  0  0
  -22.3705  -10.9676   19.6167 H   0  0  0  0  0  0
  -21.2008   -7.6152   23.9712 H   0  0  0  0  0  0
  -21.1484   -6.0526   25.9074 H   0  0  0  0  0  0
  -22.0599   -2.7610   23.2845 H   0  0  0  0  0  0
  -22.4091  -11.9864   22.4806 H   0  0  0  0  0  0
  -21.1075  -13.1216   22.2635 H   0  0  0  0  0  0
  -24.6471  -15.8446   20.5184 H   0  0  0  0  0  0
  -26.2620  -15.6342   20.0721 H   0  0  0  0  0  0
  -26.7204  -32.5416   23.1083 H   0  0  0  0  0  0
  -25.0095  -33.9701   25.0422 H   0  0  0  0  0  0
  -22.7219  -31.3026   21.3996 H   0  0  0  0  0  0
  -23.3761  -35.9600   23.3281 H   0  0  0  0  0  0
  -24.3583  -36.8930   22.2061 H   0  0  0  0  0  0
  -23.7222  -37.6467   23.6680 H   0  0  0  0  0  0
  -26.1061  -31.5395   20.6082 H   0  0  0  0  0  0
  -26.8491  -30.8242   22.0074 H   0  0  0  0  0  0
  -28.1175  -28.9414   21.2031 H   0  0  0  0  0  0
  -25.9719  -25.9146   18.9940 H   0  0  0  0  0  0
  -23.9711  -27.3132   18.9950 H   0  0  0  0  0  0
  -23.7627  -30.5931   19.4037 H   0  0  0  0  0  0
  -22.7600  -29.2480   19.8549 H   0  0  0  0  0  0
  -25.1290  -36.1920   25.0825 H   0  0  0  0  0  0
  -20.9987  -28.3276   24.1393 H   0  0  0  0  0  0
  -20.5685  -26.2306   23.3613 H   0  0  0  0  0  0
  -21.6642  -26.7443   22.1201 H   0  0  0  0  0  0
  -19.6910  -25.6294   21.1247 H   0  0  0  0  0  0
  -19.6686  -27.3195   20.6745 H   0  0  0  0  0  0
  -17.4201  -26.6693   21.4021 H   0  0  0  0  0  0
  -18.0317  -26.0067   22.9016 H   0  0  0  0  0  0
  -19.7940  -30.7285   24.2250 H   0  0  0  0  0  0
  -17.5016  -31.6267   24.5171 H   0  0  0  0  0  0
  -15.5353  -30.2984   23.7663 H   0  0  0  0  0  0
  -15.8677  -28.0820   22.7074 H   0  0  0  0  0  0
  -24.5912  -30.7066   25.7770 H   0  0  0  0  0  0
  -24.8924  -32.2878   26.4879 H   0  0  0  0  0  0
  -25.8059  -30.8886   27.0222 H   0  0  0  0  0  0
  -26.2960  -29.6736   24.1236 H   0  0  0  0  0  0
  -27.4088  -29.7290   25.4711 H   0  0  0  0  0  0
  -27.8815  -30.4304   23.9423 H   0  0  0  0  0  0
  -27.2672  -33.3641   26.2045 H   0  0  0  0  0  0
  -28.3878  -32.6870   25.0325 H   0  0  0  0  0  0
  -28.0717  -31.8471   26.5432 H   0  0  0  0  0  0
  -28.2576  -38.0110   24.7551 H   0  0  0  0  0  0
  -28.1102  -36.2646   24.6239 H   0  0  0  0  0  0
  -27.2305  -37.1378   25.8866 H   0  0  0  0  0  0
  -20.9389  -29.8768   21.6872 H   0  0  0  0  0  0
  -26.0163  -38.2844   24.1446 H   0  0  0  0  0  0
  -31.1428  -19.4898   18.8651 H   0  0  0  0  0  0
  -30.2904  -21.7712   18.9010 H   0  0  0  0  0  0
  -28.3735  -18.3544   21.9251 H   0  0  0  0  0  0
  -29.0058  -23.8870   18.7626 H   0  0  0  0  0  0
  -27.2130  -23.6334   18.7724 H   0  0  0  0  0  0
  -28.7457  -23.9754   22.3187 H   0  0  0  0  0  0
  -29.9667  -24.0954   20.9879 H   0  0  0  0  0  0
  -26.9706  -24.8870   20.9247 H   0  0  0  0  0  0
  -26.8577  -19.8742   22.7943 H   0  0  0  0  0  0
  -26.3241  -21.1604   21.7142 H   0  0  0  0  0  0
  -27.5162  -21.5013   22.9725 H   0  0  0  0  0  0
  -31.3609  -17.3530   21.1367 H   0  0  0  0  0  0
  -31.0931  -17.1895   19.4395 H   0  0  0  0  0  0
  -28.9581  -15.8330   20.8054 H   0  0  0  0  0  0
  1 25  1  0  0  0
  1 30  2  0  0  0
  1 83  1  0  0  0
  2  3  1  0  0  0
  2 25  1  0  0  0
  2 84  1  0  0  0
  2 85  1  0  0  0
  3  4  1  0  0  0
  3 86  1  0  0  0
  3 87  1  0  0  0
  4  5  1  0  0  0
  4 88  1  0  0  0
  4 89  1  0  0  0
  5  6  1  0  0  0
  5 26  1  0  0  0
  5 90  1  0  0  0
  6 25  1  0  0  0
  6 91  1  0  0  0
  6 92  1  0  0  0
  7  8  2  0  0  0
  7 26  1  0  0  0
  7 29  1  0  0  0
  8  9  1  0  0  0
  8 22  1  0  0  0
  9 10  1  0  0  0
  9 27  2  0  0  0
 10 11  2  0  0  0
 10 15  1  0  0  0
 11 12  1  0  0  0
 11 93  1  0  0  0
 12 13  2  0  0  0
 12 94  1  0  0  0
 13 14  1  0  0  0
 13 31  1  0  0  0
 14 15  2  0  0  0
 14 95  1  0  0  0
 15 96  1  0  0  0
 16 17  2  0  0  0
 16 21  1  0  0  0
 16 31  1  0  0  0
 17 18  1  0  0  0
 17 97  1  0  0  0
 18 19  2  0  0  0
 18 98  1  0  0  0
 19 20  1  0  0  0
 19 24  1  0  0  0
 20 21  2  0  0  0
 20 99  1  0  0  0
 21 23  1  0  0  0
 22 28  1  0  0  0
 22 32  2  0  0  0
 26 27  1  0  0  0
 28100  1  0  0  0
 28101  1  0  0  0
 29102  1  0  0  0
 29103  1  0  0  0
 33 34  1  0  0  0
 33 66  1  0  0  0
 33 70  2  0  0  0
 34 36  1  0  0  0
 34 59  1  0  0  0
 34104  1  0  0  0
 35 44  2  0  0  0
 35 45  1  0  0  0
 35 68  1  0  0  0
 36 56  1  0  0  0
 36105  1  0  0  0
 37 39  1  0  0  0
 37 47  1  0  0  0
 37 66  1  0  0  0
 37106  1  0  0  0
 38 43  2  0  0  0
 38 46  1  0  0  0
 38 47  1  0  0  0
 39 64  1  0  0  0
 39 67  2  0  0  0
 40 52  1  0  0  0
 40 53  2  0  0  0
 40 58  1  0  0  0
 41107  1  0  0  0
 41108  1  0  0  0
 41109  1  0  0  0
 41 48  1  0  0  0
 42 43  1  0  0  0
 42 66  1  0  0  0
 42110  1  0  0  0
 42111  1  0  0  0
 43 44  1  0  0  0
 44112  1  0  0  0
 45 46  2  0  0  0
 45113  1  0  0  0
 46114  1  0  0  0
 47115  1  0  0  0
 47116  1  0  0  0
 48 56  1  0  0  0
 48 65  1  0  0  0
 48117  1  0  0  0
 49 50  1  0  0  0
 49 53  1  0  0  0
 49 64  1  0  0  0
 49118  1  0  0  0
 50 51  1  0  0  0
 50119  1  0  0  0
 50120  1  0  0  0
 51 52  1  0  0  0
 51121  1  0  0  0
 51122  1  0  0  0
 52123  1  0  0  0
 52124  1  0  0  0
 53 54  1  0  0  0
 54 55  2  0  0  0
 54125  1  0  0  0
 55 57  1  0  0  0
 55126  1  0  0  0
 56 69  2  0  0  0
 57 58  2  0  0  0
 57127  1  0  0  0
 58128  1  0  0  0
 59 60  1  0  0  0
 59 61  1  0  0  0
 59 62  1  0  0  0
 60129  1  0  0  0
 60130  1  0  0  0
 60131  1  0  0  0
 61132  1  0  0  0
 61133  1  0  0  0
 61134  1  0  0  0
 62135  1  0  0  0
 62136  1  0  0  0
 62137  1  0  0  0
 63 65  1  0  0  0
 63138  1  0  0  0
 63139  1  0  0  0
 63140  1  0  0  0
 64141  1  0  0  0
 65142  1  0  0  0
 68 79  1  0  0  0
 71 72  2  0  0  0
 71 74  1  0  0  0
 71143  1  0  0  0
 72 76  1  0  0  0
 72144  1  0  0  0
 73 74  2  0  0  0
 73 75  1  0  0  0
 73145  1  0  0  0
 74 81  1  0  0  0
 75 76  2  0  0  0
 75 80  1  0  0  0
 76 82  1  0  0  0
 77 79  1  0  0  0
 77 82  1  0  0  0
 77146  1  0  0  0
 77147  1  0  0  0
 78 79  1  0  0  0
 78 82  1  0  0  0
 78148  1  0  0  0
 78149  1  0  0  0
 79150  1  0  0  0
 80151  1  0  0  0
 80152  1  0  0  0
 80153  1  0  0  0
 81 83  1  0  0  0
 81154  1  0  0  0
 81155  1  0  0  0
 83156  1  0  0  0
M  ISO  4   1 100  68 101  79 101  83 100
M  END
> <chiral flag>
0

> <version>
0

> <s_m_source_file>
/data/baiqing/PycharmProjects/Reinvent-master-3.2/result/LINK_invent/BTK/process_docking_weight1_custom_product_contain_oxygen_bond_distance_aromatic_linkinvent_7_9_3/rearranged_h_0029.sdf

> <i_m_source_file_index>
88

> <r_mmod_Potential_Energy-OPLS-2005>
156.554412841797

> <r_mmod_Stretch_Energy-OPLS-2005>
98.5361251831055

> <r_mmod_Bend_Energy-OPLS-2005>
223.126754760742

> <r_mmod_Torsional_Energy-OPLS-2005>
246.374725341797

> <r_mmod_Improper_Torsional_Energy-OPLS-2005>
13.1257419586182

> <r_mmod_Van_der_Waal_Energy-OPLS-2005>
145.937393188477

> <r_mmod_Electrostatic_Energy-OPLS-2005>
-428.2314453125

> <r_mmod_Solvation_Energy-OPLS-2005>
-218.316879272461

> <b_mmod_Minimization_Converged-OPLS-2005>
0

> <r_mmod_RMS_Derivative-OPLS-2005>
0.750200152397156

$$$$
88
                    3D
 Structure written by MMmdl.
157166  0  0  1  0            999 V2000
  -30.5725  -14.8583   20.3784 C   0  0  0  0  0  0
  -30.4478  -12.5006   19.4942 C   0  0  0  0  0  0
  -29.5328  -12.3870   18.2541 C   0  0  0  0  0  0
  -28.0422  -12.2972   18.6529 C   0  0  0  0  0  0
  -27.6330  -13.2322   19.8256 C   0  0  2  0  0  0
  -28.6812  -13.2471   20.9550 C   0  0  0  0  0  0
  -25.2534  -13.8198   20.5718 C   0  0  0  0  0  0
  -24.1820  -13.0444   20.9214 C   0  0  0  0  0  0
  -24.6395  -11.6920   20.8737 C   0  0  0  0  0  0
  -23.9069  -10.4298   21.0380 C   0  0  0  0  0  0
  -24.3620   -9.4217   21.9162 C   0  0  0  0  0  0
  -23.6307   -8.2244   22.0733 C   0  0  0  0  0  0
  -22.4281   -8.0276   21.3538 C   0  0  0  0  0  0
  -21.9911   -9.0243   20.4633 C   0  0  0  0  0  0
  -22.7231  -10.2128   20.3037 C   0  0  0  0  0  0
  -21.6858   -6.0731   22.5276 C   0  0  0  0  0  0
  -21.4022   -6.5642   23.8207 C   0  0  0  0  0  0
  -21.3659   -5.6796   24.9172 C   0  0  0  0  0  0
  -21.6036   -4.3055   24.7222 C   0  0  0  0  0  0
  -21.8827   -3.8146   23.4347 C   0  0  0  0  0  0
  -21.9204   -4.6961   22.3402 C   0  0  0  0  0  0
  -22.7845  -13.5219   21.1884 C   0  0  0  0  0  0
  -22.1666   -4.2154   21.0976 F   0  0  0  0  0  0
  -21.5630   -3.4532   25.7730 F   0  0  0  0  0  0
  -29.9564  -13.6191   20.3367 N   0  0  0  0  0  0
  -26.2921  -12.9385   20.3211 N   0  0  0  0  0  0
  -25.9314  -11.6539   20.5733 N   0  0  0  0  0  0
  -22.0500  -12.8179   22.0424 N   0  0  0  0  0  0
  -25.4284  -15.1927   20.4233 N   0  0  0  0  0  0
  -31.8000  -14.8999   20.2380 O   0  0  0  0  0  0
  -21.6651   -6.8866   21.4232 O   0  0  0  0  0  0
  -22.3511  -14.5519   20.6733 O   0  0  0  0  0  0
  -24.6365  -31.8498   23.1899 C   0  0  0  0  0  0
  -25.9182  -32.4716   23.8266 C   0  0  1  0  0  0
  -27.2083  -27.2060   20.1495 C   0  0  0  0  0  0
  -25.5959  -33.8519   24.2204 N   0  0  0  0  0  0
  -23.4341  -30.4728   21.5337 C   0  0  2  0  0  0
  -24.8785  -28.9061   20.1082 C   0  0  0  0  0  0
  -22.7527  -29.4599   22.4870 C   0  0  0  0  0  0
  -18.0313  -28.1404   22.8499 C   0  0  0  0  0  0
  -24.1488  -36.7266   23.2635 C   0  0  0  0  0  0
  -25.9837  -30.7489   21.3730 C   0  0  0  0  0  0
  -26.0538  -29.3651   20.7181 C   0  0  0  0  0  0
  -27.2244  -28.5314   20.7177 C   0  0  0  0  0  0
  -26.0111  -26.8206   19.5112 C   0  0  0  0  0  0
  -24.8669  -27.6453   19.4886 C   0  0  0  0  0  0
  -23.6524  -29.8012   20.1518 C   0  0  0  0  0  0
  -25.4117  -36.3041   24.0317 C   0  0  1  0  0  0
  -20.5911  -28.3719   23.1256 C   0  0  2  0  0  0
  -20.6804  -26.9428   22.5408 C   0  0  0  0  0  0
  -19.5768  -26.6389   21.5223 C   0  0  0  0  0  0
  -18.1950  -26.7944   22.1632 C   0  0  0  0  0  0
  -19.1564  -28.8882   23.2873 C   0  0  0  0  0  0
  -18.9479  -30.1484   23.8895 C   0  0  0  0  0  0
  -17.6473  -30.6600   24.0569 C   0  0  0  0  0  0
  -25.9075  -34.9421   23.5062 C   0  0  0  0  0  0
  -16.5368  -29.9099   23.6337 C   0  0  0  0  0  0
  -16.7293  -28.6511   23.0370 C   0  0  0  0  0  0
  -26.4524  -31.6552   25.0681 C   0  0  0  0  0  0
  -25.3730  -31.3744   26.1391 C   0  0  0  0  0  0
  -27.0359  -30.2958   24.6207 C   0  0  0  0  0  0
  -27.6079  -32.4285   25.7471 C   0  0  0  0  0  0
  -27.5570  -37.1784   24.8467 C   0  0  0  0  0  0
  -21.4231  -29.3057   22.3632 N   0  0  0  0  0  0
  -26.4278  -37.3758   23.9413 N   0  0  0  0  0  0
  -24.7049  -31.0437   22.0883 N   0  0  0  0  0  0
  -23.4213  -28.8143   23.2978 O   0  0  0  0  0  0
  -28.2854  -26.2765   20.2008 O   0  0  0  0  0  0
  -26.5640  -34.8917   22.4630 O   0  0  0  0  0  0
  -23.5507  -32.1323   23.7185 O   0  0  0  0  0  0
  -29.5346  -19.9010   22.1331 C   0  0  0  0  0  0
  -29.7465  -18.6706   22.8067 C   0  0  0  0  0  0
  -29.5138  -18.6564   20.0617 C   0  0  0  0  0  0
  -29.3996  -19.9588   20.7282 C   0  0  0  0  0  0
  -29.7506  -17.3579   20.7251 C   0  0  0  0  0  0
  -29.8512  -17.4302   22.1329 C   0  0  0  0  0  0
  -29.1503  -23.8511   21.0613 C   0  0  0  0  0  0
  -27.9774  -23.6456   19.4541 C   0  0  0  0  0  0
  -28.0163  -24.8035   20.5152 C   0  0  2  0  0  0
  -29.5269  -16.1005   18.6059 C   0  0  0  0  0  0
  -29.2829  -21.3957   19.9696 C   0  0  0  0  0  0
  -29.8186  -16.0116   20.0431 N   0  0  0  0  0  0
  -28.4811  -22.6434   20.4649 N   0  3  1  0  0  0
  -30.0340  -16.3009   22.8587 F   0  0  0  0  0  0
  -31.4841  -12.6471   19.1827 H   0  0  0  0  0  0
  -30.4396  -11.5703   20.0633 H   0  0  0  0  0  0
  -29.8050  -11.4923   17.6917 H   0  0  0  0  0  0
  -29.7113  -13.1994   17.5561 H   0  0  0  0  0  0
  -27.8618  -11.2609   18.9382 H   0  0  0  0  0  0
  -27.4082  -12.4787   17.7841 H   0  0  0  0  0  0
  -27.5926  -14.2343   19.4032 H   0  0  0  0  0  0
  -28.7508  -12.2772   21.4481 H   0  0  0  0  0  0
  -28.4087  -13.9728   21.7232 H   0  0  0  0  0  0
  -25.2767   -9.5703   22.4723 H   0  0  0  0  0  0
  -24.0033   -7.4634   22.7437 H   0  0  0  0  0  0
  -21.0850   -8.8745   19.8932 H   0  0  0  0  0  0
  -22.3681  -10.9655   19.6141 H   0  0  0  0  0  0
  -21.2008   -7.6149   23.9712 H   0  0  0  0  0  0
  -21.1472   -6.0523   25.9077 H   0  0  0  0  0  0
  -22.0607   -2.7608   23.2843 H   0  0  0  0  0  0
  -22.4151  -11.9843   22.4798 H   0  0  0  0  0  0
  -21.1089  -13.1139   22.2605 H   0  0  0  0  0  0
  -24.6763  -15.8572   20.5696 H   0  0  0  0  0  0
  -26.2997  -15.6319   20.1538 H   0  0  0  0  0  0
  -26.7248  -32.5338   23.0996 H   0  0  0  0  0  0
  -25.0117  -33.9649   25.0357 H   0  0  0  0  0  0
  -22.7325  -31.2968   21.3849 H   0  0  0  0  0  0
  -23.3757  -35.9592   23.3277 H   0  0  0  0  0  0
  -24.3573  -36.8911   22.2053 H   0  0  0  0  0  0
  -23.7247  -37.6461   23.6677 H   0  0  0  0  0  0
  -26.1282  -31.5048   20.5982 H   0  0  0  0  0  0
  -26.8599  -30.7965   22.0090 H   0  0  0  0  0  0
  -28.1238  -28.8805   21.2050 H   0  0  0  0  0  0
  -25.9421  -25.8505   19.0393 H   0  0  0  0  0  0
  -23.9672  -27.2914   19.0034 H   0  0  0  0  0  0
  -23.7817  -30.5755   19.3942 H   0  0  0  0  0  0
  -22.7673  -29.2384   19.8485 H   0  0  0  0  0  0
  -25.1309  -36.1849   25.0810 H   0  0  0  0  0  0
  -21.0028  -28.3313   24.1366 H   0  0  0  0  0  0
  -20.5728  -26.2333   23.3627 H   0  0  0  0  0  0
  -21.6669  -26.7471   22.1181 H   0  0  0  0  0  0
  -19.6926  -25.6294   21.1264 H   0  0  0  0  0  0
  -19.6699  -27.3206   20.6753 H   0  0  0  0  0  0
  -17.4224  -26.6713   21.4028 H   0  0  0  0  0  0
  -18.0329  -26.0095   22.9029 H   0  0  0  0  0  0
  -19.7954  -30.7311   24.2251 H   0  0  0  0  0  0
  -17.5025  -31.6280   24.5165 H   0  0  0  0  0  0
  -15.5366  -30.2995   23.7662 H   0  0  0  0  0  0
  -15.8696  -28.0821   22.7090 H   0  0  0  0  0  0
  -24.5915  -30.7078   25.7724 H   0  0  0  0  0  0
  -24.8919  -32.2933   26.4746 H   0  0  0  0  0  0
  -25.8032  -30.8961   27.0199 H   0  0  0  0  0  0
  -26.2941  -29.6707   24.1232 H   0  0  0  0  0  0
  -27.4014  -29.7231   25.4732 H   0  0  0  0  0  0
  -27.8834  -30.4199   23.9471 H   0  0  0  0  0  0
  -27.2713  -33.3643   26.1944 H   0  0  0  0  0  0
  -28.3972  -32.6727   25.0348 H   0  0  0  0  0  0
  -28.0647  -31.8446   26.5469 H   0  0  0  0  0  0
  -28.2578  -38.0090   24.7529 H   0  0  0  0  0  0
  -28.1074  -36.2621   24.6271 H   0  0  0  0  0  0
  -27.2293  -37.1416   25.8872 H   0  0  0  0  0  0
  -20.9410  -29.8730   21.6804 H   0  0  0  0  0  0
  -26.0137  -38.2819   24.1428 H   0  0  0  0  0  0
  -29.4998  -20.8088   22.7201 H   0  0  0  0  0  0
  -29.8374  -18.6741   23.8834 H   0  0  0  0  0  0
  -29.4424  -18.6758   18.9847 H   0  0  0  0  0  0
  -29.2189  -23.8209   22.1491 H   0  0  0  0  0  0
  -30.1272  -24.0572   20.6197 H   0  0  0  0  0  0
  -28.6722  -23.7994   18.6251 H   0  0  0  0  0  0
  -26.9789  -23.4147   19.0805 H   0  0  0  0  0  0
  -27.1443  -24.7375   21.1709 H   0  0  0  0  0  0
  -28.6157  -16.6682   18.4201 H   0  0  0  0  0  0
  -29.3615  -15.1416   18.1323 H   0  0  0  0  0  0
  -30.3533  -16.5846   18.0817 H   0  0  0  0  0  0
  -28.8648  -21.1587   18.9908 H   0  0  0  0  0  0
  -30.3008  -21.7218   19.7593 H   0  0  0  0  0  0
  -27.7082  -22.3460   21.0397 H   0  0  0  0  0  0
  1 25  1  0  0  0
  1 30  2  0  0  0
  1 82  1  0  0  0
  2  3  1  0  0  0
  2 25  1  0  0  0
  2 85  1  0  0  0
  2 86  1  0  0  0
  3  4  1  0  0  0
  3 87  1  0  0  0
  3 88  1  0  0  0
  4  5  1  0  0  0
  4 89  1  0  0  0
  4 90  1  0  0  0
  5  6  1  0  0  0
  5 26  1  0  0  0
  5 91  1  0  0  0
  6 25  1  0  0  0
  6 92  1  0  0  0
  6 93  1  0  0  0
  7  8  2  0  0  0
  7 26  1  0  0  0
  7 29  1  0  0  0
  8  9  1  0  0  0
  8 22  1  0  0  0
  9 10  1  0  0  0
  9 27  2  0  0  0
 10 11  2  0  0  0
 10 15  1  0  0  0
 11 12  1  0  0  0
 11 94  1  0  0  0
 12 13  2  0  0  0
 12 95  1  0  0  0
 13 14  1  0  0  0
 13 31  1  0  0  0
 14 15  2  0  0  0
 14 96  1  0  0  0
 15 97  1  0  0  0
 16 17  2  0  0  0
 16 21  1  0  0  0
 16 31  1  0  0  0
 17 18  1  0  0  0
 17 98  1  0  0  0
 18 19  2  0  0  0
 18 99  1  0  0  0
 19 20  1  0  0  0
 19 24  1  0  0  0
 20 21  2  0  0  0
 20100  1  0  0  0
 21 23  1  0  0  0
 22 28  1  0  0  0
 22 32  2  0  0  0
 26 27  1  0  0  0
 28101  1  0  0  0
 28102  1  0  0  0
 29103  1  0  0  0
 29104  1  0  0  0
 33 34  1  0  0  0
 33 66  1  0  0  0
 33 70  2  0  0  0
 34 36  1  0  0  0
 34 59  1  0  0  0
 34105  1  0  0  0
 35 44  2  0  0  0
 35 45  1  0  0  0
 35 68  1  0  0  0
 36 56  1  0  0  0
 36106  1  0  0  0
 37 39  1  0  0  0
 37 47  1  0  0  0
 37 66  1  0  0  0
 37107  1  0  0  0
 38 43  2  0  0  0
 38 46  1  0  0  0
 38 47  1  0  0  0
 39 64  1  0  0  0
 39 67  2  0  0  0
 40 52  1  0  0  0
 40 53  2  0  0  0
 40 58  1  0  0  0
 41108  1  0  0  0
 41109  1  0  0  0
 41110  1  0  0  0
 41 48  1  0  0  0
 42 43  1  0  0  0
 42 66  1  0  0  0
 42111  1  0  0  0
 42112  1  0  0  0
 43 44  1  0  0  0
 44113  1  0  0  0
 45 46  2  0  0  0
 45114  1  0  0  0
 46115  1  0  0  0
 47116  1  0  0  0
 47117  1  0  0  0
 48 56  1  0  0  0
 48 65  1  0  0  0
 48118  1  0  0  0
 49 50  1  0  0  0
 49 53  1  0  0  0
 49 64  1  0  0  0
 49119  1  0  0  0
 50 51  1  0  0  0
 50120  1  0  0  0
 50121  1  0  0  0
 51 52  1  0  0  0
 51122  1  0  0  0
 51123  1  0  0  0
 52124  1  0  0  0
 52125  1  0  0  0
 53 54  1  0  0  0
 54 55  2  0  0  0
 54126  1  0  0  0
 55 57  1  0  0  0
 55127  1  0  0  0
 56 69  2  0  0  0
 57 58  2  0  0  0
 57128  1  0  0  0
 58129  1  0  0  0
 59 60  1  0  0  0
 59 61  1  0  0  0
 59 62  1  0  0  0
 60130  1  0  0  0
 60131  1  0  0  0
 60132  1  0  0  0
 61133  1  0  0  0
 61134  1  0  0  0
 61135  1  0  0  0
 62136  1  0  0  0
 62137  1  0  0  0
 62138  1  0  0  0
 63 65  1  0  0  0
 63139  1  0  0  0
 63140  1  0  0  0
 63141  1  0  0  0
 64142  1  0  0  0
 65143  1  0  0  0
 68 79  1  0  0  0
 71 72  2  0  0  0
 71 74  1  0  0  0
 71144  1  0  0  0
 72 76  1  0  0  0
 72145  1  0  0  0
 73 74  2  0  0  0
 73 75  1  0  0  0
 73146  1  0  0  0
 74 81  1  0  0  0
 75 76  2  0  0  0
 75 82  1  0  0  0
 76 84  1  0  0  0
 77 79  1  0  0  0
 77 83  1  0  0  0
 77147  1  0  0  0
 77148  1  0  0  0
 78 79  1  0  0  0
 78 83  1  0  0  0
 78149  1  0  0  0
 78150  1  0  0  0
 79151  1  0  0  0
 80 82  1  0  0  0
 80152  1  0  0  0
 80153  1  0  0  0
 80154  1  0  0  0
 81155  1  0  0  0
 81156  1  0  0  0
 81 83  1  0  0  0
 83157  1  0  0  0
M  CHG  1  83   1
M  ISO  4   1 100  68 101  79 101  82 100
M  END
> <chiral flag>
0

> <version>
0

> <s_m_source_file>
/data/baiqing/PycharmProjects/Reinvent-master-3.2/result/LINK_invent/BTK/process_docking_weight1_custom_product_contain_oxygen_bond_distance_aromatic_linkinvent_7_9_3/rearranged_h_0029.sdf

> <i_m_source_file_index>
89

> <r_mmod_Potential_Energy-OPLS-2005>
274.159851074219

> <r_mmod_Stretch_Energy-OPLS-2005>
168.547668457031

> <r_mmod_Bend_Energy-OPLS-2005>
225.223037719727

> <r_mmod_Torsional_Energy-OPLS-2005>
314.677185058594

> <r_mmod_Improper_Torsional_Energy-OPLS-2005>
19.3998241424561

> <r_mmod_Van_der_Waal_Energy-OPLS-2005>
138.399932861328

> <r_mmod_Electrostatic_Energy-OPLS-2005>
-252.497650146484

> <r_mmod_Solvation_Energy-OPLS-2005>
-481.775787353516

> <b_mmod_Minimization_Converged-OPLS-2005>
0

> <r_mmod_RMS_Derivative-OPLS-2005>
2.30266690254211

$$$$
89
                    3D
 Structure written by MMmdl.
161170  0  0  1  0            999 V2000
  -30.6123  -14.7336   20.4376 C   0  0  0  0  0  0
  -30.4261  -12.4450   19.4682 C   0  0  0  0  0  0
  -29.5040  -12.4971   18.2311 C   0  0  0  0  0  0
  -28.0295  -12.3288   18.6458 C   0  0  0  0  0  0
  -27.6371  -13.2323   19.8454 C   0  0  2  0  0  0
  -28.6820  -13.1728   20.9792 C   0  0  0  0  0  0
  -25.2489  -13.8205   20.5693 C   0  0  0  0  0  0
  -24.1786  -13.0441   20.9214 C   0  0  0  0  0  0
  -24.6385  -11.6922   20.8756 C   0  0  0  0  0  0
  -23.9069  -10.4292   21.0415 C   0  0  0  0  0  0
  -24.3621   -9.4208   21.9191 C   0  0  0  0  0  0
  -23.6296   -8.2245   22.0760 C   0  0  0  0  0  0
  -22.4278   -8.0283   21.3549 C   0  0  0  0  0  0
  -21.9913   -9.0258   20.4651 C   0  0  0  0  0  0
  -22.7244  -10.2135   20.3063 C   0  0  0  0  0  0
  -21.6853   -6.0734   22.5279 C   0  0  0  0  0  0
  -21.4015   -6.5639   23.8211 C   0  0  0  0  0  0
  -21.3658   -5.6795   24.9173 C   0  0  0  0  0  0
  -21.6042   -4.3057   24.7225 C   0  0  0  0  0  0
  -21.8819   -3.8148   23.4347 C   0  0  0  0  0  0
  -21.9191   -4.6962   22.3402 C   0  0  0  0  0  0
  -22.7807  -13.5222   21.1871 C   0  0  0  0  0  0
  -22.1660   -4.2151   21.0979 F   0  0  0  0  0  0
  -21.5626   -3.4540   25.7738 F   0  0  0  0  0  0
  -29.9799  -13.5143   20.3894 N   0  0  0  0  0  0
  -26.2908  -12.9412   20.3264 N   0  0  0  0  0  0
  -25.9313  -11.6553   20.5755 N   0  0  0  0  0  0
  -22.0455  -12.8212   22.0428 N   0  0  0  0  0  0
  -25.4166  -15.1929   20.4105 N   0  0  0  0  0  0
  -31.8119  -14.8091   20.1594 O   0  0  0  0  0  0
  -21.6641   -6.8879   21.4242 O   0  0  0  0  0  0
  -22.3488  -14.5524   20.6715 O   0  0  0  0  0  0
  -24.6277  -31.8540   23.1938 C   0  0  0  0  0  0
  -25.9113  -32.4750   23.8278 C   0  0  1  0  0  0
  -27.2256  -27.2687   20.1344 C   0  0  0  0  0  0
  -25.5917  -33.8555   24.2216 N   0  0  0  0  0  0
  -23.4228  -30.4715   21.5373 C   0  0  2  0  0  0
  -24.8685  -28.9039   20.1137 C   0  0  0  0  0  0
  -22.7464  -29.4592   22.4923 C   0  0  0  0  0  0
  -18.0277  -28.1389   22.8482 C   0  0  0  0  0  0
  -24.1496  -36.7279   23.2640 C   0  0  0  0  0  0
  -25.9635  -30.7697   21.3679 C   0  0  0  0  0  0
  -26.0348  -29.3892   20.7156 C   0  0  0  0  0  0
  -27.2134  -28.5844   20.7060 C   0  0  0  0  0  0
  -26.0346  -26.8252   19.5279 C   0  0  0  0  0  0
  -24.8724  -27.6312   19.5111 C   0  0  0  0  0  0
  -23.6384  -29.7920   20.1570 C   0  0  0  0  0  0
  -25.4129  -36.3072   24.0320 C   0  0  1  0  0  0
  -20.5878  -28.3692   23.1293 C   0  0  2  0  0  0
  -20.6783  -26.9420   22.5422 C   0  0  0  0  0  0
  -19.5766  -26.6383   21.5222 C   0  0  0  0  0  0
  -18.1932  -26.7930   22.1617 C   0  0  0  0  0  0
  -19.1528  -28.8855   23.2876 C   0  0  0  0  0  0
  -18.9458  -30.1450   23.8900 C   0  0  0  0  0  0
  -17.6462  -30.6595   24.0562 C   0  0  0  0  0  0
  -25.9069  -34.9444   23.5078 C   0  0  0  0  0  0
  -16.5348  -29.9101   23.6332 C   0  0  0  0  0  0
  -16.7263  -28.6513   23.0358 C   0  0  0  0  0  0
  -26.4494  -31.6580   25.0670 C   0  0  0  0  0  0
  -25.3715  -31.3741   26.1391 C   0  0  0  0  0  0
  -27.0348  -30.3002   24.6156 C   0  0  0  0  0  0
  -27.6048  -32.4328   25.7443 C   0  0  0  0  0  0
  -27.5589  -37.1789   24.8460 C   0  0  0  0  0  0
  -21.4177  -29.3033   22.3674 N   0  0  0  0  0  0
  -26.4300  -37.3774   23.9407 N   0  0  0  0  0  0
  -24.6902  -31.0511   22.0895 N   0  0  0  0  0  0
  -23.4174  -28.8158   23.3031 O   0  0  0  0  0  0
  -28.3979  -26.4937   20.1482 O   0  0  0  0  0  0
  -26.5653  -34.8923   22.4656 O   0  0  0  0  0  0
  -23.5442  -32.1358   23.7258 O   0  0  0  0  0  0
  -28.8758  -20.8877   21.3438 C   0  0  0  0  0  0
  -28.6758  -20.6415   19.0032 C   0  0  0  0  0  0
  -29.5698  -18.6875   20.3477 C   0  0  0  0  0  0
  -28.5351  -21.5423   20.1216 C   0  0  0  0  0  0
  -29.2064  -19.2894   19.1008 C   0  0  0  0  0  0
  -29.3563  -19.5423   21.4692 C   0  0  0  0  0  0
  -28.2556  -23.9582   19.0137 C   0  0  0  0  0  0
  -28.0541  -23.9452   21.1604 C   0  0  0  0  0  0
  -28.5740  -24.9967   20.1319 C   0  0  0  0  0  0
  -28.1867  -21.1388   17.6437 C   0  0  0  0  0  0
  -30.4793  -19.0307   17.0729 C   0  0  0  0  0  0
  -30.4057  -17.3145   20.4656 C   0  0  0  0  0  0
  -28.0022  -22.9439   20.0686 N   0  0  0  0  0  0
  -29.4170  -18.5265   17.9385 N   0  0  0  0  0  0
  -29.8579  -15.8916   20.5709 N   0  0  0  0  0  0
  -29.7293  -18.9760   23.0604 Cl  0  0  0  0  0  0
  -31.4671  -12.5665   19.1635 H   0  0  0  0  0  0
  -30.3692  -11.4716   19.9577 H   0  0  0  0  0  0
  -29.7826  -11.7199   17.5183 H   0  0  0  0  0  0
  -29.6336  -13.4487   17.7132 H   0  0  0  0  0  0
  -27.8821  -11.2813   18.9098 H   0  0  0  0  0  0
  -27.3736  -12.5232   17.7965 H   0  0  0  0  0  0
  -27.6292  -14.2519   19.4606 H   0  0  0  0  0  0
  -28.7146  -12.1804   21.4312 H   0  0  0  0  0  0
  -28.4248  -13.8677   21.7801 H   0  0  0  0  0  0
  -25.2763   -9.5679   22.4770 H   0  0  0  0  0  0
  -23.9996   -7.4636   22.7483 H   0  0  0  0  0  0
  -21.0841   -8.8781   19.8962 H   0  0  0  0  0  0
  -22.3703  -10.9678   19.6175 H   0  0  0  0  0  0
  -21.2014   -7.6149   23.9714 H   0  0  0  0  0  0
  -21.1476   -6.0526   25.9076 H   0  0  0  0  0  0
  -22.0599   -2.7610   23.2848 H   0  0  0  0  0  0
  -22.4065  -11.9867   22.4807 H   0  0  0  0  0  0
  -21.1083  -13.1253   22.2652 H   0  0  0  0  0  0
  -24.6475  -15.8446   20.5221 H   0  0  0  0  0  0
  -26.2570  -15.6332   20.0600 H   0  0  0  0  0  0
  -26.7165  -32.5404   23.1003 H   0  0  0  0  0  0
  -25.0057  -33.9680   25.0362 H   0  0  0  0  0  0
  -22.7192  -31.2926   21.3874 H   0  0  0  0  0  0
  -23.3777  -35.9591   23.3298 H   0  0  0  0  0  0
  -24.3574  -36.8917   22.2052 H   0  0  0  0  0  0
  -23.7229  -37.6465   23.6679 H   0  0  0  0  0  0
  -26.0978  -31.5295   20.5968 H   0  0  0  0  0  0
  -26.8427  -30.8221   21.9987 H   0  0  0  0  0  0
  -28.1154  -28.9581   21.1709 H   0  0  0  0  0  0
  -25.9938  -25.8494   19.0679 H   0  0  0  0  0  0
  -23.9754  -27.2548   19.0401 H   0  0  0  0  0  0
  -23.7567  -30.5621   19.3941 H   0  0  0  0  0  0
  -22.7577  -29.2198   19.8607 H   0  0  0  0  0  0
  -25.1317  -36.1914   25.0814 H   0  0  0  0  0  0
  -20.9958  -28.3288   24.1420 H   0  0  0  0  0  0
  -20.5717  -26.2302   23.3620 H   0  0  0  0  0  0
  -21.6649  -26.7477   22.1201 H   0  0  0  0  0  0
  -19.6950  -25.6296   21.1251 H   0  0  0  0  0  0
  -19.6717  -27.3196   20.6756 H   0  0  0  0  0  0
  -17.4213  -26.6672   21.4004 H   0  0  0  0  0  0
  -18.0320  -26.0063   22.9006 H   0  0  0  0  0  0
  -19.7940  -30.7250   24.2289 H   0  0  0  0  0  0
  -17.5029  -31.6281   24.5157 H   0  0  0  0  0  0
  -15.5361  -30.3016   23.7662 H   0  0  0  0  0  0
  -15.8655  -28.0841   22.7097 H   0  0  0  0  0  0
  -24.5888  -30.7099   25.7707 H   0  0  0  0  0  0
  -24.8908  -32.2919   26.4788 H   0  0  0  0  0  0
  -25.8016  -30.8922   27.0181 H   0  0  0  0  0  0
  -26.2923  -29.6729   24.1210 H   0  0  0  0  0  0
  -27.4072  -29.7285   25.4665 H   0  0  0  0  0  0
  -27.8778  -30.4280   23.9363 H   0  0  0  0  0  0
  -27.2657  -33.3643   26.1990 H   0  0  0  0  0  0
  -28.3869  -32.6867   25.0276 H   0  0  0  0  0  0
  -28.0704  -31.8473   26.5381 H   0  0  0  0  0  0
  -28.2601  -38.0093   24.7539 H   0  0  0  0  0  0
  -28.1094  -36.2629   24.6264 H   0  0  0  0  0  0
  -27.2299  -37.1409   25.8858 H   0  0  0  0  0  0
  -20.9370  -29.8709   21.6837 H   0  0  0  0  0  0
  -26.0187  -38.2850   24.1419 H   0  0  0  0  0  0
  -28.7603  -21.4429   22.2625 H   0  0  0  0  0  0
  -29.1154  -23.7468   18.3760 H   0  0  0  0  0  0
  -27.3619  -24.1794   18.4308 H   0  0  0  0  0  0
  -27.0659  -24.1740   21.5613 H   0  0  0  0  0  0
  -28.7742  -23.7218   21.9483 H   0  0  0  0  0  0
  -29.6604  -24.9487   20.2277 H   0  0  0  0  0  0
  -27.2973  -21.7584   17.7479 H   0  0  0  0  0  0
  -27.8938  -20.3246   16.9812 H   0  0  0  0  0  0
  -28.9616  -21.7224   17.1474 H   0  0  0  0  0  0
  -31.0564  -18.1990   16.6665 H   0  0  0  0  0  0
  -31.1721  -19.6830   17.6080 H   0  0  0  0  0  0
  -30.0708  -19.5914   16.2313 H   0  0  0  0  0  0
  -31.0838  -17.4285   21.3101 H   0  0  0  0  0  0
  -31.0857  -17.3134   19.6127 H   0  0  0  0  0  0
  -29.5029  -17.5287   18.1129 H   0  0  0  0  0  0
  -28.8711  -15.7840   20.7459 H   0  0  0  0  0  0
  1 25  1  0  0  0
  1 30  2  0  0  0
  1 85  1  0  0  0
  2  3  1  0  0  0
  2 25  1  0  0  0
  2 87  1  0  0  0
  2 88  1  0  0  0
  3  4  1  0  0  0
  3 89  1  0  0  0
  3 90  1  0  0  0
  4  5  1  0  0  0
  4 91  1  0  0  0
  4 92  1  0  0  0
  5  6  1  0  0  0
  5 26  1  0  0  0
  5 93  1  0  0  0
  6 25  1  0  0  0
  6 94  1  0  0  0
  6 95  1  0  0  0
  7  8  2  0  0  0
  7 26  1  0  0  0
  7 29  1  0  0  0
  8  9  1  0  0  0
  8 22  1  0  0  0
  9 10  1  0  0  0
  9 27  2  0  0  0
 10 11  2  0  0  0
 10 15  1  0  0  0
 11 12  1  0  0  0
 11 96  1  0  0  0
 12 13  2  0  0  0
 12 97  1  0  0  0
 13 14  1  0  0  0
 13 31  1  0  0  0
 14 15  2  0  0  0
 14 98  1  0  0  0
 15 99  1  0  0  0
 16 17  2  0  0  0
 16 21  1  0  0  0
 16 31  1  0  0  0
 17 18  1  0  0  0
 17100  1  0  0  0
 18 19  2  0  0  0
 18101  1  0  0  0
 19 20  1  0  0  0
 19 24  1  0  0  0
 20 21  2  0  0  0
 20102  1  0  0  0
 21 23  1  0  0  0
 22 28  1  0  0  0
 22 32  2  0  0  0
 26 27  1  0  0  0
 28103  1  0  0  0
 28104  1  0  0  0
 29105  1  0  0  0
 29106  1  0  0  0
 33 34  1  0  0  0
 33 66  1  0  0  0
 33 70  2  0  0  0
 34 36  1  0  0  0
 34 59  1  0  0  0
 34107  1  0  0  0
 35 44  2  0  0  0
 35 45  1  0  0  0
 35 68  1  0  0  0
 36 56  1  0  0  0
 36108  1  0  0  0
 37 39  1  0  0  0
 37 47  1  0  0  0
 37 66  1  0  0  0
 37109  1  0  0  0
 38 43  2  0  0  0
 38 46  1  0  0  0
 38 47  1  0  0  0
 39 64  1  0  0  0
 39 67  2  0  0  0
 40 52  1  0  0  0
 40 53  2  0  0  0
 40 58  1  0  0  0
 41110  1  0  0  0
 41111  1  0  0  0
 41112  1  0  0  0
 41 48  1  0  0  0
 42 43  1  0  0  0
 42 66  1  0  0  0
 42113  1  0  0  0
 42114  1  0  0  0
 43 44  1  0  0  0
 44115  1  0  0  0
 45 46  2  0  0  0
 45116  1  0  0  0
 46117  1  0  0  0
 47118  1  0  0  0
 47119  1  0  0  0
 48 56  1  0  0  0
 48 65  1  0  0  0
 48120  1  0  0  0
 49 50  1  0  0  0
 49 53  1  0  0  0
 49 64  1  0  0  0
 49121  1  0  0  0
 50 51  1  0  0  0
 50122  1  0  0  0
 50123  1  0  0  0
 51 52  1  0  0  0
 51124  1  0  0  0
 51125  1  0  0  0
 52126  1  0  0  0
 52127  1  0  0  0
 53 54  1  0  0  0
 54 55  2  0  0  0
 54128  1  0  0  0
 55 57  1  0  0  0
 55129  1  0  0  0
 56 69  2  0  0  0
 57 58  2  0  0  0
 57130  1  0  0  0
 58131  1  0  0  0
 59 60  1  0  0  0
 59 61  1  0  0  0
 59 62  1  0  0  0
 60132  1  0  0  0
 60133  1  0  0  0
 60134  1  0  0  0
 61135  1  0  0  0
 61136  1  0  0  0
 61137  1  0  0  0
 62138  1  0  0  0
 62139  1  0  0  0
 62140  1  0  0  0
 63 65  1  0  0  0
 63141  1  0  0  0
 63142  1  0  0  0
 63143  1  0  0  0
 64144  1  0  0  0
 65145  1  0  0  0
 68 79  1  0  0  0
 71 74  2  0  0  0
 71 76  1  0  0  0
 71146  1  0  0  0
 72 74  1  0  0  0
 72 75  2  0  0  0
 72 80  1  0  0  0
 73 75  1  0  0  0
 73 76  2  0  0  0
 73 82  1  0  0  0
 74 83  1  0  0  0
 75 84  1  0  0  0
 76 86  1  0  0  0
 77 79  1  0  0  0
 77 83  1  0  0  0
 77147  1  0  0  0
 77148  1  0  0  0
 78 79  1  0  0  0
 78 83  1  0  0  0
 78149  1  0  0  0
 78150  1  0  0  0
 79151  1  0  0  0
 80152  1  0  0  0
 80153  1  0  0  0
 80154  1  0  0  0
 81 84  1  0  0  0
 81155  1  0  0  0
 81156  1  0  0  0
 81157  1  0  0  0
 82 85  1  0  0  0
 82158  1  0  0  0
 82159  1  0  0  0
 84160  1  0  0  0
 85161  1  0  0  0
M  ISO  4   1 100  68 101  79 101  85 100
M  END
> <chiral flag>
0

> <version>
0

> <s_m_source_file>
/data/baiqing/PycharmProjects/Reinvent-master-3.2/result/LINK_invent/BTK/process_docking_weight1_custom_product_contain_oxygen_bond_distance_aromatic_linkinvent_7_9_3/rearranged_h_0029.sdf

> <i_m_source_file_index>
90

> <r_mmod_Potential_Energy-OPLS-2005>
307.68115234375

> <r_mmod_Stretch_Energy-OPLS-2005>
118.398155212402

> <r_mmod_Bend_Energy-OPLS-2005>
290.579040527344

> <r_mmod_Torsional_Energy-OPLS-2005>
252.937362670898

> <r_mmod_Improper_Torsional_Energy-OPLS-2005>
16.7144412994385

> <r_mmod_Van_der_Waal_Energy-OPLS-2005>
142.418991088867

> <r_mmod_Electrostatic_Energy-OPLS-2005>
-356.880981445312

> <r_mmod_Solvation_Energy-OPLS-2005>
-231.620330810547

> <b_mmod_Minimization_Converged-OPLS-2005>
0

> <r_mmod_RMS_Derivative-OPLS-2005>
1.21615207195282

$$$$
90
                    3D
 Structure written by MMmdl.
159169  0  0  1  0            999 V2000
  -30.6471  -14.6949   20.4573 C   0  0  0  0  0  0
  -30.4197  -12.4234   19.4703 C   0  0  0  0  0  0
  -29.5035  -12.4982   18.2308 C   0  0  0  0  0  0
  -28.0280  -12.3349   18.6433 C   0  0  0  0  0  0
  -27.6389  -13.2320   19.8494 C   0  0  2  0  0  0
  -28.6843  -13.1641   20.9830 C   0  0  0  0  0  0
  -25.2486  -13.8195   20.5694 C   0  0  0  0  0  0
  -24.1783  -13.0430   20.9206 C   0  0  0  0  0  0
  -24.6381  -11.6912   20.8739 C   0  0  0  0  0  0
  -23.9062  -10.4288   21.0397 C   0  0  0  0  0  0
  -24.3619   -9.4205   21.9176 C   0  0  0  0  0  0
  -23.6299   -8.2238   22.0760 C   0  0  0  0  0  0
  -22.4283   -8.0276   21.3549 C   0  0  0  0  0  0
  -21.9916   -9.0242   20.4645 C   0  0  0  0  0  0
  -22.7234  -10.2123   20.3051 C   0  0  0  0  0  0
  -21.6851   -6.0728   22.5276 C   0  0  0  0  0  0
  -21.4012   -6.5636   23.8208 C   0  0  0  0  0  0
  -21.3661   -5.6786   24.9167 C   0  0  0  0  0  0
  -21.6050   -4.3050   24.7219 C   0  0  0  0  0  0
  -21.8819   -3.8145   23.4339 C   0  0  0  0  0  0
  -21.9192   -4.6958   22.3392 C   0  0  0  0  0  0
  -22.7802  -13.5204   21.1865 C   0  0  0  0  0  0
  -22.1658   -4.2144   21.0967 F   0  0  0  0  0  0
  -21.5637   -3.4538   25.7734 F   0  0  0  0  0  0
  -29.9876  -13.4922   20.3968 N   0  0  0  0  0  0
  -26.2917  -12.9405   20.3287 N   0  0  0  0  0  0
  -25.9313  -11.6544   20.5757 N   0  0  0  0  0  0
  -22.0458  -12.8195   22.0427 N   0  0  0  0  0  0
  -25.4138  -15.1926   20.4111 N   0  0  0  0  0  0
  -31.8436  -14.7550   20.1657 O   0  0  0  0  0  0
  -21.6647   -6.8876   21.4241 O   0  0  0  0  0  0
  -22.3476  -14.5502   20.6707 O   0  0  0  0  0  0
  -24.6311  -31.8562   23.1996 C   0  0  0  0  0  0
  -25.9147  -32.4757   23.8340 C   0  0  1  0  0  0
  -27.2174  -27.2867   20.1260 C   0  0  0  0  0  0
  -25.5947  -33.8558   24.2269 N   0  0  0  0  0  0
  -23.4257  -30.4794   21.5433 C   0  0  2  0  0  0
  -24.8724  -28.9313   20.1081 C   0  0  0  0  0  0
  -22.7495  -29.4613   22.4932 C   0  0  0  0  0  0
  -18.0283  -28.1382   22.8495 C   0  0  0  0  0  0
  -24.1483  -36.7270   23.2634 C   0  0  0  0  0  0
  -25.9695  -30.7791   21.3742 C   0  0  0  0  0  0
  -26.0440  -29.4052   20.7127 C   0  0  0  0  0  0
  -27.2235  -28.5965   20.7060 C   0  0  0  0  0  0
  -26.0268  -26.8748   19.4896 C   0  0  0  0  0  0
  -24.8683  -27.6742   19.4829 C   0  0  0  0  0  0
  -23.6412  -29.8142   20.1589 C   0  0  0  0  0  0
  -25.4104  -36.3066   24.0333 C   0  0  1  0  0  0
  -20.5884  -28.3691   23.1273 C   0  0  2  0  0  0
  -20.6770  -26.9409   22.5413 C   0  0  0  0  0  0
  -19.5745  -26.6379   21.5216 C   0  0  0  0  0  0
  -18.1919  -26.7927   22.1621 C   0  0  0  0  0  0
  -19.1540  -28.8856   23.2875 C   0  0  0  0  0  0
  -18.9465  -30.1462   23.8883 C   0  0  0  0  0  0
  -17.6464  -30.6582   24.0567 C   0  0  0  0  0  0
  -25.9059  -34.9441   23.5101 C   0  0  0  0  0  0
  -16.5353  -29.9074   23.6341 C   0  0  0  0  0  0
  -16.7277  -28.6495   23.0361 C   0  0  0  0  0  0
  -26.4515  -31.6580   25.0724 C   0  0  0  0  0  0
  -25.3748  -31.3708   26.1454 C   0  0  0  0  0  0
  -27.0376  -30.3006   24.6201 C   0  0  0  0  0  0
  -27.6066  -32.4329   25.7492 C   0  0  0  0  0  0
  -27.5599  -37.1745   24.8438 C   0  0  0  0  0  0
  -21.4207  -29.3035   22.3667 N   0  0  0  0  0  0
  -26.4254  -37.3793   23.9473 N   0  0  0  0  0  0
  -24.6943  -31.0556   22.0959 N   0  0  0  0  0  0
  -23.4202  -28.8152   23.3027 O   0  0  0  0  0  0
  -28.2996  -26.3884   20.1922 O   0  0  0  0  0  0
  -26.5624  -34.8921   22.4666 O   0  0  0  0  0  0
  -23.5469  -32.1372   23.7313 O   0  0  0  0  0  0
  -27.5485  -20.8907   22.5651 C   0  0  0  0  0  0
  -30.1095  -19.6395   19.5033 C   0  0  0  0  0  0
  -29.6411  -20.9898   19.5386 C   0  0  0  0  0  0
  -27.1433  -19.9809   23.5575 C   0  0  0  0  0  0
  -28.4813  -18.2428   22.5124 C   0  0  0  0  0  0
  -28.4224  -20.5069   21.5167 C   0  0  0  0  0  0
  -28.8888  -19.1313   21.4902 C   0  0  0  0  0  0
  -29.7664  -18.6553   20.4721 C   0  0  0  0  0  0
  -28.7865  -21.5120   20.5475 C   0  0  0  0  0  0
  -27.6104  -18.6594   23.5325 C   0  0  0  0  0  0
  -28.0389  -23.7968   19.4465 C   0  0  0  0  0  0
  -28.9751  -24.0201   21.2513 C   0  0  0  0  0  0
  -27.9701  -24.9588   20.5007 C   0  0  0  0  0  0
  -30.5292  -17.2516   20.4511 C   0  0  0  0  0  0
  -28.2628  -22.9003   20.6013 N   0  0  0  0  0  0
  -29.9265  -15.8648   20.6130 N   0  0  0  0  0  0
  -27.2221  -17.7862   24.4916 F   0  0  0  0  0  0
  -31.4640  -12.5243   19.1726 H   0  0  0  0  0  0
  -30.3395  -11.4480   19.9532 H   0  0  0  0  0  0
  -29.7763  -11.7256   17.5107 H   0  0  0  0  0  0
  -29.6424  -13.4543   17.7234 H   0  0  0  0  0  0
  -27.8736  -11.2858   18.8988 H   0  0  0  0  0  0
  -27.3736  -12.5377   17.7944 H   0  0  0  0  0  0
  -27.6333  -14.2547   19.4730 H   0  0  0  0  0  0
  -28.7064  -12.1691   21.4298 H   0  0  0  0  0  0
  -28.4304  -13.8561   21.7870 H   0  0  0  0  0  0
  -25.2759   -9.5683   22.4751 H   0  0  0  0  0  0
  -24.0002   -7.4635   22.7487 H   0  0  0  0  0  0
  -21.0852   -8.8754   19.8946 H   0  0  0  0  0  0
  -22.3689  -10.9665   19.6170 H   0  0  0  0  0  0
  -21.1998   -7.6144   23.9708 H   0  0  0  0  0  0
  -21.1493   -6.0519   25.9071 H   0  0  0  0  0  0
  -22.0601   -2.7611   23.2840 H   0  0  0  0  0  0
  -22.4093  -11.9865   22.4809 H   0  0  0  0  0  0
  -21.1077  -13.1222   22.2651 H   0  0  0  0  0  0
  -24.6415  -15.8414   20.5228 H   0  0  0  0  0  0
  -26.2531  -15.6374   20.0628 H   0  0  0  0  0  0
  -26.7217  -32.5408   23.1084 H   0  0  0  0  0  0
  -25.0128  -33.9700   25.0440 H   0  0  0  0  0  0
  -22.7226  -31.3020   21.3991 H   0  0  0  0  0  0
  -23.3794  -35.9543   23.3176 H   0  0  0  0  0  0
  -24.3612  -36.9022   22.2081 H   0  0  0  0  0  0
  -23.7157  -37.6396   23.6736 H   0  0  0  0  0  0
  -26.1060  -31.5436   20.6080 H   0  0  0  0  0  0
  -26.8479  -30.8254   22.0073 H   0  0  0  0  0  0
  -28.1208  -28.9521   21.1933 H   0  0  0  0  0  0
  -25.9753  -25.9082   19.0100 H   0  0  0  0  0  0
  -23.9719  -27.3063   19.0032 H   0  0  0  0  0  0
  -23.7617  -30.5912   19.4034 H   0  0  0  0  0  0
  -22.7600  -29.2462   19.8560 H   0  0  0  0  0  0
  -25.1263  -36.1885   25.0820 H   0  0  0  0  0  0
  -20.9979  -28.3266   24.1395 H   0  0  0  0  0  0
  -20.5672  -26.2302   23.3619 H   0  0  0  0  0  0
  -21.6635  -26.7425   22.1209 H   0  0  0  0  0  0
  -19.6900  -25.6290   21.1247 H   0  0  0  0  0  0
  -19.6677  -27.3188   20.6747 H   0  0  0  0  0  0
  -17.4197  -26.6707   21.4008 H   0  0  0  0  0  0
  -18.0291  -26.0057   22.9002 H   0  0  0  0  0  0
  -19.7940  -30.7295   24.2231 H   0  0  0  0  0  0
  -17.5009  -31.6261   24.5173 H   0  0  0  0  0  0
  -15.5350  -30.2970   23.7675 H   0  0  0  0  0  0
  -15.8678  -28.0816   22.7073 H   0  0  0  0  0  0
  -24.5935  -30.7043   25.7786 H   0  0  0  0  0  0
  -24.8926  -32.2868   26.4879 H   0  0  0  0  0  0
  -25.8085  -30.8896   27.0234 H   0  0  0  0  0  0
  -26.2964  -29.6726   24.1250 H   0  0  0  0  0  0
  -27.4105  -29.7292   25.4713 H   0  0  0  0  0  0
  -27.8814  -30.4295   23.9416 H   0  0  0  0  0  0
  -27.2673  -33.3645   26.2034 H   0  0  0  0  0  0
  -28.3879  -32.6873   25.0315 H   0  0  0  0  0  0
  -28.0728  -31.8482   26.5432 H   0  0  0  0  0  0
  -28.2468  -38.0189   24.7719 H   0  0  0  0  0  0
  -28.1242  -36.2744   24.5948 H   0  0  0  0  0  0
  -27.2368  -37.1013   25.8836 H   0  0  0  0  0  0
  -20.9394  -29.8771   21.6885 H   0  0  0  0  0  0
  -26.0113  -38.2824   24.1629 H   0  0  0  0  0  0
  -27.1664  -21.8987   22.6266 H   0  0  0  0  0  0
  -30.7929  -19.3707   18.7096 H   0  0  0  0  0  0
  -29.9734  -21.6562   18.7553 H   0  0  0  0  0  0
  -26.4714  -20.2996   24.3416 H   0  0  0  0  0  0
  -28.8205  -17.2201   22.5326 H   0  0  0  0  0  0
  -28.8907  -23.8613   18.7667 H   0  0  0  0  0  0
  -27.1023  -23.6158   18.9184 H   0  0  0  0  0  0
  -28.8854  -24.0450   22.3373 H   0  0  0  0  0  0
  -30.0117  -24.1235   20.9231 H   0  0  0  0  0  0
  -27.0161  -24.9306   21.0371 H   0  0  0  0  0  0
  -31.3034  -17.3350   21.2159 H   0  0  0  0  0  0
  -31.0808  -17.2224   19.5092 H   0  0  0  0  0  0
  -28.9315  -15.7921   20.7568 H   0  0  0  0  0  0
  1 25  1  0  0  0
  1 30  2  0  0  0
  1 86  1  0  0  0
  2  3  1  0  0  0
  2 25  1  0  0  0
  2 88  1  0  0  0
  2 89  1  0  0  0
  3  4  1  0  0  0
  3 90  1  0  0  0
  3 91  1  0  0  0
  4  5  1  0  0  0
  4 92  1  0  0  0
  4 93  1  0  0  0
  5  6  1  0  0  0
  5 26  1  0  0  0
  5 94  1  0  0  0
  6 25  1  0  0  0
  6 95  1  0  0  0
  6 96  1  0  0  0
  7  8  2  0  0  0
  7 26  1  0  0  0
  7 29  1  0  0  0
  8  9  1  0  0  0
  8 22  1  0  0  0
  9 10  1  0  0  0
  9 27  2  0  0  0
 10 11  2  0  0  0
 10 15  1  0  0  0
 11 12  1  0  0  0
 11 97  1  0  0  0
 12 13  2  0  0  0
 12 98  1  0  0  0
 13 14  1  0  0  0
 13 31  1  0  0  0
 14 15  2  0  0  0
 14 99  1  0  0  0
 15100  1  0  0  0
 16 17  2  0  0  0
 16 21  1  0  0  0
 16 31  1  0  0  0
 17 18  1  0  0  0
 17101  1  0  0  0
 18 19  2  0  0  0
 18102  1  0  0  0
 19 20  1  0  0  0
 19 24  1  0  0  0
 20 21  2  0  0  0
 20103  1  0  0  0
 21 23  1  0  0  0
 22 28  1  0  0  0
 22 32  2  0  0  0
 26 27  1  0  0  0
 28104  1  0  0  0
 28105  1  0  0  0
 29106  1  0  0  0
 29107  1  0  0  0
 33 34  1  0  0  0
 33 66  1  0  0  0
 33 70  2  0  0  0
 34 36  1  0  0  0
 34 59  1  0  0  0
 34108  1  0  0  0
 35 44  2  0  0  0
 35 45  1  0  0  0
 35 68  1  0  0  0
 36 56  1  0  0  0
 36109  1  0  0  0
 37 39  1  0  0  0
 37 47  1  0  0  0
 37 66  1  0  0  0
 37110  1  0  0  0
 38 43  2  0  0  0
 38 46  1  0  0  0
 38 47  1  0  0  0
 39 64  1  0  0  0
 39 67  2  0  0  0
 40 52  1  0  0  0
 40 53  2  0  0  0
 40 58  1  0  0  0
 41111  1  0  0  0
 41112  1  0  0  0
 41113  1  0  0  0
 41 48  1  0  0  0
 42 43  1  0  0  0
 42 66  1  0  0  0
 42114  1  0  0  0
 42115  1  0  0  0
 43 44  1  0  0  0
 44116  1  0  0  0
 45 46  2  0  0  0
 45117  1  0  0  0
 46118  1  0  0  0
 47119  1  0  0  0
 47120  1  0  0  0
 48 56  1  0  0  0
 48 65  1  0  0  0
 48121  1  0  0  0
 49 50  1  0  0  0
 49 53  1  0  0  0
 49 64  1  0  0  0
 49122  1  0  0  0
 50 51  1  0  0  0
 50123  1  0  0  0
 50124  1  0  0  0
 51 52  1  0  0  0
 51125  1  0  0  0
 51126  1  0  0  0
 52127  1  0  0  0
 52128  1  0  0  0
 53 54  1  0  0  0
 54 55  2  0  0  0
 54129  1  0  0  0
 55 57  1  0  0  0
 55130  1  0  0  0
 56 69  2  0  0  0
 57 58  2  0  0  0
 57131  1  0  0  0
 58132  1  0  0  0
 59 60  1  0  0  0
 59 61  1  0  0  0
 59 62  1  0  0  0
 60133  1  0  0  0
 60134  1  0  0  0
 60135  1  0  0  0
 61136  1  0  0  0
 61137  1  0  0  0
 61138  1  0  0  0
 62139  1  0  0  0
 62140  1  0  0  0
 62141  1  0  0  0
 63 65  1  0  0  0
 63142  1  0  0  0
 63143  1  0  0  0
 63144  1  0  0  0
 64145  1  0  0  0
 65146  1  0  0  0
 68 83  1  0  0  0
 71 74  2  0  0  0
 71 76  1  0  0  0
 71147  1  0  0  0
 72 73  1  0  0  0
 72 78  2  0  0  0
 72148  1  0  0  0
 73 79  2  0  0  0
 73149  1  0  0  0
 74 80  1  0  0  0
 74150  1  0  0  0
 75 77  1  0  0  0
 75 80  2  0  0  0
 75151  1  0  0  0
 76 77  2  0  0  0
 76 79  1  0  0  0
 77 78  1  0  0  0
 78 84  1  0  0  0
 79 85  1  0  0  0
 80 87  1  0  0  0
 81 83  1  0  0  0
 81 85  1  0  0  0
 81152  1  0  0  0
 81153  1  0  0  0
 82 83  1  0  0  0
 82 85  1  0  0  0
 82154  1  0  0  0
 82155  1  0  0  0
 83156  1  0  0  0
 84 86  1  0  0  0
 84157  1  0  0  0
 84158  1  0  0  0
 86159  1  0  0  0
M  ISO  4   1 100  68 101  83 101  86 100
M  END
> <chiral flag>
0

> <version>
0

> <s_m_source_file>
/data/baiqing/PycharmProjects/Reinvent-master-3.2/result/LINK_invent/BTK/process_docking_weight1_custom_product_contain_oxygen_bond_distance_aromatic_linkinvent_7_9_3/rearranged_h_0029.sdf

> <i_m_source_file_index>
91

> <r_mmod_Potential_Energy-OPLS-2005>
208.429458618164

> <r_mmod_Stretch_Energy-OPLS-2005>
103.028228759766

> <r_mmod_Bend_Energy-OPLS-2005>
224.184188842773

> <r_mmod_Torsional_Energy-OPLS-2005>
248.970977783203

> <r_mmod_Improper_Torsional_Energy-OPLS-2005>
13.1635570526123

> <r_mmod_Van_der_Waal_Energy-OPLS-2005>
163.250244140625

> <r_mmod_Electrostatic_Energy-OPLS-2005>
-398.677673339844

> <r_mmod_Solvation_Energy-OPLS-2005>
-218.113098144531

> <b_mmod_Minimization_Converged-OPLS-2005>
0

> <r_mmod_RMS_Derivative-OPLS-2005>
1.54343855381012

$$$$
91
                    3D
 Structure written by MMmdl.
155164  0  0  1  0            999 V2000
  -30.5860  -14.7557   20.4819 C   0  0  0  0  0  0
  -30.4524  -12.4714   19.4628 C   0  0  0  0  0  0
  -29.5195  -12.5139   18.2329 C   0  0  0  0  0  0
  -28.0434  -12.3337   18.6466 C   0  0  0  0  0  0
  -27.6465  -13.2246   19.8545 C   0  0  2  0  0  0
  -28.6954  -13.1411   20.9838 C   0  0  0  0  0  0
  -25.2541  -13.8180   20.5703 C   0  0  0  0  0  0
  -24.1823  -13.0448   20.9222 C   0  0  0  0  0  0
  -24.6390  -11.6918   20.8763 C   0  0  0  0  0  0
  -23.9055  -10.4304   21.0416 C   0  0  0  0  0  0
  -24.3610   -9.4223   21.9193 C   0  0  0  0  0  0
  -23.6292   -8.2252   22.0751 C   0  0  0  0  0  0
  -22.4278   -8.0284   21.3540 C   0  0  0  0  0  0
  -21.9911   -9.0260   20.4646 C   0  0  0  0  0  0
  -22.7231  -10.2145   20.3059 C   0  0  0  0  0  0
  -21.6855   -6.0739   22.5282 C   0  0  0  0  0  0
  -21.4016   -6.5636   23.8221 C   0  0  0  0  0  0
  -21.3659   -5.6783   24.9176 C   0  0  0  0  0  0
  -21.6038   -4.3041   24.7225 C   0  0  0  0  0  0
  -21.8825   -3.8144   23.4343 C   0  0  0  0  0  0
  -21.9203   -4.6963   22.3405 C   0  0  0  0  0  0
  -22.7835  -13.5250   21.1867 C   0  0  0  0  0  0
  -22.1665   -4.2149   21.0981 F   0  0  0  0  0  0
  -21.5632   -3.4528   25.7738 F   0  0  0  0  0  0
  -29.9882  -13.5188   20.3970 N   0  0  0  0  0  0
  -26.2964  -12.9367   20.3305 N   0  0  0  0  0  0
  -25.9324  -11.6524   20.5770 N   0  0  0  0  0  0
  -22.0450  -12.8256   22.0411 N   0  0  0  0  0  0
  -25.4233  -15.1903   20.4060 N   0  0  0  0  0  0
  -31.7866  -14.8824   20.2217 O   0  0  0  0  0  0
  -21.6646   -6.8873   21.4241 O   0  0  0  0  0  0
  -22.3545  -14.5560   20.6703 O   0  0  0  0  0  0
  -24.6305  -31.8538   23.1941 C   0  0  0  0  0  0
  -25.9110  -32.4760   23.8317 C   0  0  1  0  0  0
  -27.2353  -27.2664   20.1474 C   0  0  0  0  0  0
  -25.5888  -33.8562   24.2241 N   0  0  0  0  0  0
  -23.4305  -30.4711   21.5364 C   0  0  2  0  0  0
  -24.8815  -28.9057   20.1199 C   0  0  0  0  0  0
  -22.7512  -29.4580   22.4899 C   0  0  0  0  0  0
  -18.0290  -28.1380   22.8482 C   0  0  0  0  0  0
  -24.1480  -36.7310   23.2642 C   0  0  0  0  0  0
  -25.9725  -30.7718   21.3685 C   0  0  0  0  0  0
  -26.0508  -29.3893   20.7210 C   0  0  0  0  0  0
  -27.2340  -28.5853   20.7127 C   0  0  0  0  0  0
  -26.0426  -26.8340   19.5358 C   0  0  0  0  0  0
  -24.8816  -27.6360   19.5151 C   0  0  0  0  0  0
  -23.6525  -29.7947   20.1566 C   0  0  0  0  0  0
  -25.4109  -36.3092   24.0328 C   0  0  1  0  0  0
  -20.5894  -28.3691   23.1266 C   0  0  2  0  0  0
  -20.6767  -26.9405   22.5407 C   0  0  0  0  0  0
  -19.5741  -26.6375   21.5210 C   0  0  0  0  0  0
  -18.1925  -26.7920   22.1626 C   0  0  0  0  0  0
  -19.1544  -28.8853   23.2867 C   0  0  0  0  0  0
  -18.9463  -30.1451   23.8891 C   0  0  0  0  0  0
  -17.6461  -30.6579   24.0563 C   0  0  0  0  0  0
  -25.9047  -34.9453   23.5104 C   0  0  0  0  0  0
  -16.5353  -29.9081   23.6317 C   0  0  0  0  0  0
  -16.7278  -28.6496   23.0342 C   0  0  0  0  0  0
  -26.4464  -31.6585   25.0714 C   0  0  0  0  0  0
  -25.3672  -31.3750   26.1429 C   0  0  0  0  0  0
  -27.0297  -30.3000   24.6184 C   0  0  0  0  0  0
  -27.6012  -32.4324   25.7503 C   0  0  0  0  0  0
  -27.5581  -37.1814   24.8462 C   0  0  0  0  0  0
  -21.4214  -29.3043   22.3664 N   0  0  0  0  0  0
  -26.4293  -37.3785   23.9406 N   0  0  0  0  0  0
  -24.6971  -31.0507   22.0909 N   0  0  0  0  0  0
  -23.4207  -28.8122   23.3007 O   0  0  0  0  0  0
  -28.3589  -26.4156   20.1257 O   0  0  0  0  0  0
  -26.5647  -34.8925   22.4687 O   0  0  0  0  0  0
  -23.5452  -32.1339   23.7239 O   0  0  0  0  0  0
  -29.8308  -19.8957   22.1951 C   0  0  0  0  0  0
  -30.2384  -18.7648   22.9332 C   0  0  0  0  0  0
  -29.5114  -18.4483   20.2787 C   0  0  0  0  0  0
  -29.4788  -19.8021   20.8314 C   0  0  0  0  0  0
  -29.9067  -17.2533   21.0233 C   0  0  0  0  0  0
  -30.2766  -17.4695   22.3754 C   0  0  0  0  0  0
  -29.9194  -23.2216   21.2500 C   0  0  0  0  0  0
  -29.6157  -24.7205   21.4406 C   0  0  0  0  0  0
  -28.1794  -23.6696   19.8578 C   0  0  0  0  0  0
  -28.3053  -25.0238   20.6967 C   0  0  2  0  0  0
  -29.0540  -21.1123   19.9940 C   0  0  0  0  0  0
  -29.0072  -22.5743   20.4991 N   0  0  0  0  0  0
  -29.7390  -15.8560   20.5415 N   0  0  0  0  0  0
  -30.9399  -22.7225   21.7284 O   0  0  0  0  0  0
  -30.6884  -16.1626   23.4324 Cl  0  0  0  0  0  0
  -31.4861  -12.6334   19.1518 H   0  0  0  0  0  0
  -30.4299  -11.4909   19.9403 H   0  0  0  0  0  0
  -29.8080  -11.7435   17.5170 H   0  0  0  0  0  0
  -29.6412  -13.4689   17.7201 H   0  0  0  0  0  0
  -27.8988  -11.2829   18.9014 H   0  0  0  0  0  0
  -27.3870  -12.5343   17.7985 H   0  0  0  0  0  0
  -27.6433  -14.2497   19.4851 H   0  0  0  0  0  0
  -28.7441  -12.1301   21.3914 H   0  0  0  0  0  0
  -28.4308  -13.7972   21.8153 H   0  0  0  0  0  0
  -25.2750   -9.5715   22.4762 H   0  0  0  0  0  0
  -24.0015   -7.4647   22.7468 H   0  0  0  0  0  0
  -21.0842   -8.8768   19.8953 H   0  0  0  0  0  0
  -22.3679  -10.9679   19.6161 H   0  0  0  0  0  0
  -21.1997   -7.6140   23.9724 H   0  0  0  0  0  0
  -21.1474   -6.0507   25.9079 H   0  0  0  0  0  0
  -22.0606   -2.7606   23.2850 H   0  0  0  0  0  0
  -22.4032  -11.9919   22.4825 H   0  0  0  0  0  0
  -21.1055  -13.1291   22.2557 H   0  0  0  0  0  0
  -24.6543  -15.8413   20.5177 H   0  0  0  0  0  0
  -26.2538  -15.6263   20.0284 H   0  0  0  0  0  0
  -26.7194  -32.5421   23.1081 H   0  0  0  0  0  0
  -24.9975  -33.9685   25.0348 H   0  0  0  0  0  0
  -22.7277  -31.2925   21.3828 H   0  0  0  0  0  0
  -23.3738  -35.9647   23.3308 H   0  0  0  0  0  0
  -24.3573  -36.8933   22.2057 H   0  0  0  0  0  0
  -23.7230  -37.6511   23.6665 H   0  0  0  0  0  0
  -26.1008  -31.5259   20.5910 H   0  0  0  0  0  0
  -26.8543  -30.8348   21.9947 H   0  0  0  0  0  0
  -28.1394  -28.9600   21.1692 H   0  0  0  0  0  0
  -26.0105  -25.8577   19.0729 H   0  0  0  0  0  0
  -23.9866  -27.2582   19.0405 H   0  0  0  0  0  0
  -23.7867  -30.5651   19.3965 H   0  0  0  0  0  0
  -22.7720  -29.2279   19.8490 H   0  0  0  0  0  0
  -25.1290  -36.1957   25.0823 H   0  0  0  0  0  0
  -20.9991  -28.3261   24.1384 H   0  0  0  0  0  0
  -20.5639  -26.2308   23.3616 H   0  0  0  0  0  0
  -21.6634  -26.7399   22.1214 H   0  0  0  0  0  0
  -19.6896  -25.6282   21.1245 H   0  0  0  0  0  0
  -19.6672  -27.3181   20.6736 H   0  0  0  0  0  0
  -17.4190  -26.6663   21.4033 H   0  0  0  0  0  0
  -18.0327  -26.0058   22.9021 H   0  0  0  0  0  0
  -19.7939  -30.7271   24.2259 H   0  0  0  0  0  0
  -17.5011  -31.6260   24.5168 H   0  0  0  0  0  0
  -15.5350  -30.2988   23.7631 H   0  0  0  0  0  0
  -15.8675  -28.0824   22.7048 H   0  0  0  0  0  0
  -24.5831  -30.7118   25.7754 H   0  0  0  0  0  0
  -24.8871  -32.2926   26.4843 H   0  0  0  0  0  0
  -25.7961  -30.8926   27.0219 H   0  0  0  0  0  0
  -26.2873  -29.6776   24.1167 H   0  0  0  0  0  0
  -27.3938  -29.7239   25.4704 H   0  0  0  0  0  0
  -27.8772  -30.4284   23.9444 H   0  0  0  0  0  0
  -27.2602  -33.3616   26.2083 H   0  0  0  0  0  0
  -28.3823  -32.6894   25.0338 H   0  0  0  0  0  0
  -28.0669  -31.8443   26.5421 H   0  0  0  0  0  0
  -28.2603  -38.0108   24.7507 H   0  0  0  0  0  0
  -28.1073  -36.2640   24.6289 H   0  0  0  0  0  0
  -27.2305  -37.1470   25.8866 H   0  0  0  0  0  0
  -20.9408  -29.8805   21.6899 H   0  0  0  0  0  0
  -26.0184  -38.2871   24.1380 H   0  0  0  0  0  0
  -29.7866  -20.8378   22.7173 H   0  0  0  0  0  0
  -30.4963  -18.8875   23.9753 H   0  0  0  0  0  0
  -29.2013  -18.3213   19.2505 H   0  0  0  0  0  0
  -30.4421  -25.2873   21.0130 H   0  0  0  0  0  0
  -29.5445  -24.9783   22.4977 H   0  0  0  0  0  0
  -28.5571  -23.8295   18.8471 H   0  0  0  0  0  0
  -27.1369  -23.3627   19.7657 H   0  0  0  0  0  0
  -27.5053  -25.0119   21.4384 H   0  0  0  0  0  0
  -28.0649  -20.8995   19.5876 H   0  0  0  0  0  0
  -29.7123  -21.1294   19.1246 H   0  0  0  0  0  0
  -28.7743  -15.5902   20.4342 H   0  0  0  0  0  0
  1 25  1  0  0  0
  1 30  2  0  0  0
  1 83  1  0  0  0
  2  3  1  0  0  0
  2 25  1  0  0  0
  2 86  1  0  0  0
  2 87  1  0  0  0
  3  4  1  0  0  0
  3 88  1  0  0  0
  3 89  1  0  0  0
  4  5  1  0  0  0
  4 90  1  0  0  0
  4 91  1  0  0  0
  5  6  1  0  0  0
  5 26  1  0  0  0
  5 92  1  0  0  0
  6 25  1  0  0  0
  6 93  1  0  0  0
  6 94  1  0  0  0
  7  8  2  0  0  0
  7 26  1  0  0  0
  7 29  1  0  0  0
  8  9  1  0  0  0
  8 22  1  0  0  0
  9 10  1  0  0  0
  9 27  2  0  0  0
 10 11  2  0  0  0
 10 15  1  0  0  0
 11 12  1  0  0  0
 11 95  1  0  0  0
 12 13  2  0  0  0
 12 96  1  0  0  0
 13 14  1  0  0  0
 13 31  1  0  0  0
 14 15  2  0  0  0
 14 97  1  0  0  0
 15 98  1  0  0  0
 16 17  2  0  0  0
 16 21  1  0  0  0
 16 31  1  0  0  0
 17 18  1  0  0  0
 17 99  1  0  0  0
 18 19  2  0  0  0
 18100  1  0  0  0
 19 20  1  0  0  0
 19 24  1  0  0  0
 20 21  2  0  0  0
 20101  1  0  0  0
 21 23  1  0  0  0
 22 28  1  0  0  0
 22 32  2  0  0  0
 26 27  1  0  0  0
 28102  1  0  0  0
 28103  1  0  0  0
 29104  1  0  0  0
 29105  1  0  0  0
 33 34  1  0  0  0
 33 66  1  0  0  0
 33 70  2  0  0  0
 34 36  1  0  0  0
 34 59  1  0  0  0
 34106  1  0  0  0
 35 44  2  0  0  0
 35 45  1  0  0  0
 35 68  1  0  0  0
 36 56  1  0  0  0
 36107  1  0  0  0
 37 39  1  0  0  0
 37 47  1  0  0  0
 37 66  1  0  0  0
 37108  1  0  0  0
 38 43  2  0  0  0
 38 46  1  0  0  0
 38 47  1  0  0  0
 39 64  1  0  0  0
 39 67  2  0  0  0
 40 52  1  0  0  0
 40 53  2  0  0  0
 40 58  1  0  0  0
 41109  1  0  0  0
 41110  1  0  0  0
 41111  1  0  0  0
 41 48  1  0  0  0
 42 43  1  0  0  0
 42 66  1  0  0  0
 42112  1  0  0  0
 42113  1  0  0  0
 43 44  1  0  0  0
 44114  1  0  0  0
 45 46  2  0  0  0
 45115  1  0  0  0
 46116  1  0  0  0
 47117  1  0  0  0
 47118  1  0  0  0
 48 56  1  0  0  0
 48 65  1  0  0  0
 48119  1  0  0  0
 49 50  1  0  0  0
 49 53  1  0  0  0
 49 64  1  0  0  0
 49120  1  0  0  0
 50 51  1  0  0  0
 50121  1  0  0  0
 50122  1  0  0  0
 51 52  1  0  0  0
 51123  1  0  0  0
 51124  1  0  0  0
 52125  1  0  0  0
 52126  1  0  0  0
 53 54  1  0  0  0
 54 55  2  0  0  0
 54127  1  0  0  0
 55 57  1  0  0  0
 55128  1  0  0  0
 56 69  2  0  0  0
 57 58  2  0  0  0
 57129  1  0  0  0
 58130  1  0  0  0
 59 60  1  0  0  0
 59 61  1  0  0  0
 59 62  1  0  0  0
 60131  1  0  0  0
 60132  1  0  0  0
 60133  1  0  0  0
 61134  1  0  0  0
 61135  1  0  0  0
 61136  1  0  0  0
 62137  1  0  0  0
 62138  1  0  0  0
 62139  1  0  0  0
 63 65  1  0  0  0
 63140  1  0  0  0
 63141  1  0  0  0
 63142  1  0  0  0
 64143  1  0  0  0
 65144  1  0  0  0
 68 80  1  0  0  0
 71 72  2  0  0  0
 71 74  1  0  0  0
 71145  1  0  0  0
 72 76  1  0  0  0
 72146  1  0  0  0
 73 74  2  0  0  0
 73 75  1  0  0  0
 73147  1  0  0  0
 74 81  1  0  0  0
 75 76  2  0  0  0
 75 83  1  0  0  0
 76 85  1  0  0  0
 77 78  1  0  0  0
 77 82  1  0  0  0
 77 84  2  0  0  0
 78 80  1  0  0  0
 78148  1  0  0  0
 78149  1  0  0  0
 79 80  1  0  0  0
 79 82  1  0  0  0
 79150  1  0  0  0
 79151  1  0  0  0
 80152  1  0  0  0
 81 82  1  0  0  0
 81153  1  0  0  0
 81154  1  0  0  0
 83155  1  0  0  0
M  ISO  4   1 100  68 101  80 101  83 100
M  END
> <chiral flag>
0

> <version>
0

> <s_m_source_file>
/data/baiqing/PycharmProjects/Reinvent-master-3.2/result/LINK_invent/BTK/process_docking_weight1_custom_product_contain_oxygen_bond_distance_aromatic_linkinvent_7_9_3/rearranged_h_0029.sdf

> <i_m_source_file_index>
92

> <r_mmod_Potential_Energy-OPLS-2005>
184.936584472656

> <r_mmod_Stretch_Energy-OPLS-2005>
126.969917297363

> <r_mmod_Bend_Energy-OPLS-2005>
207.182067871094

> <r_mmod_Torsional_Energy-OPLS-2005>
280.802062988281

> <r_mmod_Improper_Torsional_Energy-OPLS-2005>
11.1019411087036

> <r_mmod_Van_der_Waal_Energy-OPLS-2005>
127.250617980957

> <r_mmod_Electrostatic_Energy-OPLS-2005>
-413.257934570312

> <r_mmod_Solvation_Energy-OPLS-2005>
-239.159362792969

> <b_mmod_Minimization_Converged-OPLS-2005>
0

> <r_mmod_RMS_Derivative-OPLS-2005>
1.71665906906128

$$$$
92
                    3D
 Structure written by MMmdl.
156165  0  0  1  0            999 V2000
  -30.5176  -15.0149   20.4120 C   0  0  0  0  0  0
  -30.4344  -12.6233   19.5366 C   0  0  0  0  0  0
  -29.5316  -12.5478   18.2819 C   0  0  0  0  0  0
  -28.0633  -12.3252   18.6864 C   0  0  0  0  0  0
  -27.6276  -13.2608   19.8442 C   0  0  2  0  0  0
  -28.6590  -13.3106   20.9905 C   0  0  0  0  0  0
  -25.2431  -13.8246   20.5729 C   0  0  0  0  0  0
  -24.1759  -13.0445   20.9224 C   0  0  0  0  0  0
  -24.6399  -11.6939   20.8744 C   0  0  0  0  0  0
  -23.9097  -10.4299   21.0402 C   0  0  0  0  0  0
  -24.3640   -9.4211   21.9181 C   0  0  0  0  0  0
  -23.6307   -8.2249   22.0754 C   0  0  0  0  0  0
  -22.4284   -8.0290   21.3552 C   0  0  0  0  0  0
  -21.9929   -9.0265   20.4650 C   0  0  0  0  0  0
  -22.7267  -10.2139   20.3054 C   0  0  0  0  0  0
  -21.6855   -6.0741   22.5285 C   0  0  0  0  0  0
  -21.4015   -6.5642   23.8220 C   0  0  0  0  0  0
  -21.3660   -5.6792   24.9179 C   0  0  0  0  0  0
  -21.6049   -4.3057   24.7228 C   0  0  0  0  0  0
  -21.8818   -3.8150   23.4347 C   0  0  0  0  0  0
  -21.9191   -4.6968   22.3404 C   0  0  0  0  0  0
  -22.7776  -13.5201   21.1886 C   0  0  0  0  0  0
  -22.1653   -4.2155   21.0980 F   0  0  0  0  0  0
  -21.5632   -3.4539   25.7738 F   0  0  0  0  0  0
  -29.9401  -13.7353   20.4123 N   0  0  0  0  0  0
  -26.2872  -12.9505   20.3264 N   0  0  0  0  0  0
  -25.9338  -11.6619   20.5731 N   0  0  0  0  0  0
  -22.0435  -12.8188   22.0446 N   0  0  0  0  0  0
  -25.4079  -15.1979   20.4190 N   0  0  0  0  0  0
  -31.6836  -15.0626   20.0020 O   0  0  0  0  0  0
  -21.6641   -6.8890   21.4249 O   0  0  0  0  0  0
  -22.3452  -14.5501   20.6726 O   0  0  0  0  0  0
  -24.6467  -31.8373   23.1798 C   0  0  0  0  0  0
  -25.9218  -32.4656   23.8214 C   0  0  1  0  0  0
  -27.2231  -27.0853   20.1627 C   0  0  0  0  0  0
  -25.5945  -33.8465   24.2131 N   0  0  0  0  0  0
  -23.4533  -30.4507   21.5255 C   0  0  2  0  0  0
  -24.9044  -28.8616   20.1031 C   0  0  0  0  0  0
  -22.7585  -29.4502   22.4830 C   0  0  0  0  0  0
  -18.0305  -28.1402   22.8478 C   0  0  0  0  0  0
  -24.1491  -36.7241   23.2645 C   0  0  0  0  0  0
  -26.0088  -30.6941   21.3847 C   0  0  0  0  0  0
  -26.0775  -29.2991   20.7284 C   0  0  0  0  0  0
  -27.2306  -28.4253   20.7404 C   0  0  0  0  0  0
  -26.0284  -26.7531   19.4907 C   0  0  0  0  0  0
  -24.8960  -27.6061   19.4675 C   0  0  0  0  0  0
  -23.6817  -29.7701   20.1467 C   0  0  0  0  0  0
  -25.4127  -36.3007   24.0307 C   0  0  1  0  0  0
  -20.5921  -28.3728   23.1229 C   0  0  2  0  0  0
  -20.6787  -26.9426   22.5409 C   0  0  0  0  0  0
  -19.5761  -26.6381   21.5218 C   0  0  0  0  0  0
  -18.1942  -26.7938   22.1626 C   0  0  0  0  0  0
  -19.1564  -28.8885   23.2844 C   0  0  0  0  0  0
  -18.9480  -30.1482   23.8869 C   0  0  0  0  0  0
  -17.6475  -30.6596   24.0562 C   0  0  0  0  0  0
  -25.9081  -34.9386   23.5035 C   0  0  0  0  0  0
  -16.5366  -29.9088   23.6340 C   0  0  0  0  0  0
  -16.7290  -28.6508   23.0356 C   0  0  0  0  0  0
  -26.4525  -31.6555   25.0687 C   0  0  0  0  0  0
  -25.3699  -31.3769   26.1379 C   0  0  0  0  0  0
  -27.0401  -30.2943   24.6313 C   0  0  0  0  0  0
  -27.6039  -32.4340   25.7479 C   0  0  0  0  0  0
  -27.5572  -37.1775   24.8464 C   0  0  0  0  0  0
  -21.4271  -29.3038   22.3589 N   0  0  0  0  0  0
  -26.4282  -37.3729   23.9408 N   0  0  0  0  0  0
  -24.7228  -31.0178   22.0850 N   0  0  0  0  0  0
  -23.4205  -28.8075   23.3018 O   0  0  0  0  0  0
  -28.2923  -26.1167   20.3077 O   0  0  0  0  0  0
  -26.5681  -34.8897   22.4624 O   0  0  0  0  0  0
  -23.5577  -32.1268   23.6995 O   0  0  0  0  0  0
  -29.5202  -16.5571   22.2414 C   0  0  0  0  0  0
  -29.0944  -17.7832   22.8085 C   0  0  0  0  0  0
  -29.6603  -17.7137   20.1229 C   0  0  0  0  0  0
  -29.8458  -16.4232   20.8749 C   0  0  0  0  0  0
  -29.1692  -19.0303   20.6748 C   0  0  0  0  0  0
  -28.9210  -18.9770   22.0656 C   0  0  0  0  0  0
  -30.1917  -22.6635   20.0497 C   0  0  0  0  0  0
  -31.3593  -22.0151   20.1977 C   0  0  0  0  0  0
  -29.9593  -24.2065   19.9703 C   0  0  0  0  0  0
  -27.8914  -23.1415   20.3753 C   0  0  0  0  0  0
  -28.4489  -24.6103   19.8388 C   0  0  1  0  0  0
  -28.6372  -20.3926   19.8548 C   0  0  0  0  0  0
  -28.8724  -21.9906   19.9682 N   0  3  2  0  0  0
  -28.3396  -20.3761   22.8967 Cl  0  0  0  0  0  0
  -31.4728  -12.7646   19.2345 H   0  0  0  0  0  0
  -30.4196  -11.6757   20.0776 H   0  0  0  0  0  0
  -29.8666  -11.7454   17.6235 H   0  0  0  0  0  0
  -29.6211  -13.4730   17.7106 H   0  0  0  0  0  0
  -27.9632  -11.2841   18.9962 H   0  0  0  0  0  0
  -27.4064  -12.4524   17.8251 H   0  0  0  0  0  0
  -27.5863  -14.2609   19.4119 H   0  0  0  0  0  0
  -28.7481  -12.3407   21.4817 H   0  0  0  0  0  0
  -28.3358  -14.0149   21.7570 H   0  0  0  0  0  0
  -25.2782   -9.5679   22.4763 H   0  0  0  0  0  0
  -24.0018   -7.4634   22.7465 H   0  0  0  0  0  0
  -21.0866   -8.8791   19.8948 H   0  0  0  0  0  0
  -22.3732  -10.9680   19.6164 H   0  0  0  0  0  0
  -21.2005   -7.6149   23.9731 H   0  0  0  0  0  0
  -21.1484   -6.0517   25.9085 H   0  0  0  0  0  0
  -22.0595   -2.7612   23.2848 H   0  0  0  0  0  0
  -22.4056  -11.9856   22.4843 H   0  0  0  0  0  0
  -21.1048  -13.1201   22.2650 H   0  0  0  0  0  0
  -24.6435  -15.8516   20.5487 H   0  0  0  0  0  0
  -26.2696  -15.6469   20.1351 H   0  0  0  0  0  0
  -26.7284  -32.5239   23.0936 H   0  0  0  0  0  0
  -25.0064  -33.9570   25.0260 H   0  0  0  0  0  0
  -22.7584  -31.2775   21.3653 H   0  0  0  0  0  0
  -23.3757  -35.9570   23.3289 H   0  0  0  0  0  0
  -24.3571  -36.8897   22.2063 H   0  0  0  0  0  0
  -23.7246  -37.6427   23.6703 H   0  0  0  0  0  0
  -26.1705  -31.4446   20.6095 H   0  0  0  0  0  0
  -26.8763  -30.7452   22.0310 H   0  0  0  0  0  0
  -28.1217  -28.7529   21.2573 H   0  0  0  0  0  0
  -25.9409  -25.7853   19.0181 H   0  0  0  0  0  0
  -23.9986  -27.2673   18.9677 H   0  0  0  0  0  0
  -23.8183  -30.5407   19.3871 H   0  0  0  0  0  0
  -22.7953  -29.2125   19.8395 H   0  0  0  0  0  0
  -25.1322  -36.1819   25.0799 H   0  0  0  0  0  0
  -21.0012  -28.3325   24.1352 H   0  0  0  0  0  0
  -20.5679  -26.2344   23.3636 H   0  0  0  0  0  0
  -21.6653  -26.7424   22.1210 H   0  0  0  0  0  0
  -19.6920  -25.6284   21.1269 H   0  0  0  0  0  0
  -19.6699  -27.3177   20.6739 H   0  0  0  0  0  0
  -17.4212  -26.6686   21.4027 H   0  0  0  0  0  0
  -18.0332  -26.0088   22.9029 H   0  0  0  0  0  0
  -19.7956  -30.7308   24.2220 H   0  0  0  0  0  0
  -17.5027  -31.6273   24.5172 H   0  0  0  0  0  0
  -15.5365  -30.2981   23.7680 H   0  0  0  0  0  0
  -15.8690  -28.0821   22.7081 H   0  0  0  0  0  0
  -24.5868  -30.7132   25.7693 H   0  0  0  0  0  0
  -24.8906  -32.2966   26.4744 H   0  0  0  0  0  0
  -25.7964  -30.8969   27.0197 H   0  0  0  0  0  0
  -26.3029  -29.6649   24.1315 H   0  0  0  0  0  0
  -27.3985  -29.7264   25.4909 H   0  0  0  0  0  0
  -27.8945  -30.4159   23.9654 H   0  0  0  0  0  0
  -27.2613  -33.3661   26.1985 H   0  0  0  0  0  0
  -28.3884  -32.6874   25.0336 H   0  0  0  0  0  0
  -28.0674  -31.8523   26.5458 H   0  0  0  0  0  0
  -28.2577  -38.0082   24.7508 H   0  0  0  0  0  0
  -28.1076  -36.2609   24.6292 H   0  0  0  0  0  0
  -27.2288  -37.1422   25.8866 H   0  0  0  0  0  0
  -20.9492  -29.8732   21.6745 H   0  0  0  0  0  0
  -26.0139  -38.2793   24.1411 H   0  0  0  0  0  0
  -29.6483  -15.7068   22.8972 H   0  0  0  0  0  0
  -28.8842  -17.8044   23.8683 H   0  0  0  0  0  0
  -29.8753  -17.6796   19.0640 H   0  0  0  0  0  0
  -32.2879  -22.5635   20.2641 H   0  0  0  0  0  0
  -31.4173  -20.9380   20.2594 H   0  0  0  0  0  0
  -30.5403  -24.6302   19.1510 H   0  0  0  0  0  0
  -30.3597  -24.6350   20.8888 H   0  0  0  0  0  0
  -26.8876  -22.9465   19.9986 H   0  0  0  0  0  0
  -27.8239  -23.1542   21.4638 H   0  0  0  0  0  0
  -28.2164  -24.6341   18.7736 H   0  0  0  0  0  0
  -27.5531  -20.2830   19.8361 H   0  0  0  0  0  0
  -28.9331  -20.1832   18.8278 H   0  0  0  0  0  0
  -28.6805  -22.0796   18.9799 H   0  0  0  0  0  0
  1 25  1  0  0  0
  1 30  2  0  0  0
  1 74  1  0  0  0
  2  3  1  0  0  0
  2 25  1  0  0  0
  2 85  1  0  0  0
  2 86  1  0  0  0
  3  4  1  0  0  0
  3 87  1  0  0  0
  3 88  1  0  0  0
  4  5  1  0  0  0
  4 89  1  0  0  0
  4 90  1  0  0  0
  5  6  1  0  0  0
  5 26  1  0  0  0
  5 91  1  0  0  0
  6 25  1  0  0  0
  6 92  1  0  0  0
  6 93  1  0  0  0
  7  8  2  0  0  0
  7 26  1  0  0  0
  7 29  1  0  0  0
  8  9  1  0  0  0
  8 22  1  0  0  0
  9 10  1  0  0  0
  9 27  2  0  0  0
 10 11  2  0  0  0
 10 15  1  0  0  0
 11 12  1  0  0  0
 11 94  1  0  0  0
 12 13  2  0  0  0
 12 95  1  0  0  0
 13 14  1  0  0  0
 13 31  1  0  0  0
 14 15  2  0  0  0
 14 96  1  0  0  0
 15 97  1  0  0  0
 16 17  2  0  0  0
 16 21  1  0  0  0
 16 31  1  0  0  0
 17 18  1  0  0  0
 17 98  1  0  0  0
 18 19  2  0  0  0
 18 99  1  0  0  0
 19 20  1  0  0  0
 19 24  1  0  0  0
 20 21  2  0  0  0
 20100  1  0  0  0
 21 23  1  0  0  0
 22 28  1  0  0  0
 22 32  2  0  0  0
 26 27  1  0  0  0
 28101  1  0  0  0
 28102  1  0  0  0
 29103  1  0  0  0
 29104  1  0  0  0
 33 34  1  0  0  0
 33 66  1  0  0  0
 33 70  2  0  0  0
 34 36  1  0  0  0
 34 59  1  0  0  0
 34105  1  0  0  0
 35 44  2  0  0  0
 35 45  1  0  0  0
 35 68  1  0  0  0
 36 56  1  0  0  0
 36106  1  0  0  0
 37 39  1  0  0  0
 37 47  1  0  0  0
 37 66  1  0  0  0
 37107  1  0  0  0
 38 43  2  0  0  0
 38 46  1  0  0  0
 38 47  1  0  0  0
 39 64  1  0  0  0
 39 67  2  0  0  0
 40 52  1  0  0  0
 40 53  2  0  0  0
 40 58  1  0  0  0
 41108  1  0  0  0
 41109  1  0  0  0
 41110  1  0  0  0
 41 48  1  0  0  0
 42 43  1  0  0  0
 42 66  1  0  0  0
 42111  1  0  0  0
 42112  1  0  0  0
 43 44  1  0  0  0
 44113  1  0  0  0
 45 46  2  0  0  0
 45114  1  0  0  0
 46115  1  0  0  0
 47116  1  0  0  0
 47117  1  0  0  0
 48 56  1  0  0  0
 48 65  1  0  0  0
 48118  1  0  0  0
 49 50  1  0  0  0
 49 53  1  0  0  0
 49 64  1  0  0  0
 49119  1  0  0  0
 50 51  1  0  0  0
 50120  1  0  0  0
 50121  1  0  0  0
 51 52  1  0  0  0
 51122  1  0  0  0
 51123  1  0  0  0
 52124  1  0  0  0
 52125  1  0  0  0
 53 54  1  0  0  0
 54 55  2  0  0  0
 54126  1  0  0  0
 55 57  1  0  0  0
 55127  1  0  0  0
 56 69  2  0  0  0
 57 58  2  0  0  0
 57128  1  0  0  0
 58129  1  0  0  0
 59 60  1  0  0  0
 59 61  1  0  0  0
 59 62  1  0  0  0
 60130  1  0  0  0
 60131  1  0  0  0
 60132  1  0  0  0
 61133  1  0  0  0
 61134  1  0  0  0
 61135  1  0  0  0
 62136  1  0  0  0
 62137  1  0  0  0
 62138  1  0  0  0
 63 65  1  0  0  0
 63139  1  0  0  0
 63140  1  0  0  0
 63141  1  0  0  0
 64142  1  0  0  0
 65143  1  0  0  0
 68 81  1  0  0  0
 71 72  2  0  0  0
 71 74  1  0  0  0
 71144  1  0  0  0
 72 76  1  0  0  0
 72145  1  0  0  0
 73 74  2  0  0  0
 73 75  1  0  0  0
 73146  1  0  0  0
 75 76  2  0  0  0
 75 82  1  0  0  0
 76 84  1  0  0  0
 77 78  2  0  0  0
 77 79  1  0  0  0
 77 83  1  0  0  0
 78147  1  0  0  0
 78148  1  0  0  0
 79 81  1  0  0  0
 79149  1  0  0  0
 79150  1  0  0  0
 80 81  1  0  0  0
 80 83  1  0  0  0
 80151  1  0  0  0
 80152  1  0  0  0
 81153  1  0  0  0
 82154  1  0  0  0
 82155  1  0  0  0
 82 83  1  0  0  0
 83156  1  0  0  0
M  CHG  1  83   1
M  ISO  4   1 100  68 101  74 100  81 101
M  END
> <chiral flag>
0

> <version>
0

> <s_m_source_file>
/data/baiqing/PycharmProjects/Reinvent-master-3.2/result/LINK_invent/BTK/process_docking_weight1_custom_product_contain_oxygen_bond_distance_aromatic_linkinvent_7_9_3/rearranged_h_0029.sdf

> <i_m_source_file_index>
93

> <r_mmod_Potential_Energy-OPLS-2005>
685.491455078125

> <r_mmod_Stretch_Energy-OPLS-2005>
299.609008789062

> <r_mmod_Bend_Energy-OPLS-2005>
438.045776367188

> <r_mmod_Torsional_Energy-OPLS-2005>
218.894897460938

> <r_mmod_Improper_Torsional_Energy-OPLS-2005>
4.21396398544312

> <r_mmod_Van_der_Waal_Energy-OPLS-2005>
113.771148681641

> <r_mmod_Electrostatic_Energy-OPLS-2005>
-205.266967773438

> <r_mmod_Solvation_Energy-OPLS-2005>
-422.131469726562

> <b_mmod_Minimization_Converged-OPLS-2005>
0

> <r_mmod_RMS_Derivative-OPLS-2005>
0.837983071804047

$$$$
93
                    3D
 Structure written by MMmdl.
163172  0  0  1  0            999 V2000
  -30.6179  -14.7439   20.4933 C   0  0  0  0  0  0
  -30.4361  -12.4592   19.4883 C   0  0  0  0  0  0
  -29.5175  -12.5104   18.2459 C   0  0  0  0  0  0
  -28.0437  -12.3285   18.6547 C   0  0  0  0  0  0
  -27.6435  -13.2297   19.8549 C   0  0  2  0  0  0
  -28.6836  -13.1650   20.9959 C   0  0  0  0  0  0
  -25.2499  -13.8180   20.5661 C   0  0  0  0  0  0
  -24.1811  -13.0435   20.9238 C   0  0  0  0  0  0
  -24.6425  -11.6912   20.8766 C   0  0  0  0  0  0
  -23.9109  -10.4281   21.0426 C   0  0  0  0  0  0
  -24.3634   -9.4187   21.9202 C   0  0  0  0  0  0
  -23.6299   -8.2220   22.0757 C   0  0  0  0  0  0
  -22.4270   -8.0286   21.3567 C   0  0  0  0  0  0
  -21.9929   -9.0269   20.4649 C   0  0  0  0  0  0
  -22.7280  -10.2141   20.3077 C   0  0  0  0  0  0
  -21.6850   -6.0743   22.5298 C   0  0  0  0  0  0
  -21.4006   -6.5651   23.8229 C   0  0  0  0  0  0
  -21.3651   -5.6811   24.9187 C   0  0  0  0  0  0
  -21.6030   -4.3073   24.7236 C   0  0  0  0  0  0
  -21.8814   -3.8161   23.4361 C   0  0  0  0  0  0
  -21.9182   -4.6972   22.3408 C   0  0  0  0  0  0
  -22.7847  -13.5220   21.1880 C   0  0  0  0  0  0
  -22.1655   -4.2162   21.0989 F   0  0  0  0  0  0
  -21.5623   -3.4552   25.7746 F   0  0  0  0  0  0
  -29.9890  -13.5192   20.4235 N   0  0  0  0  0  0
  -26.2942  -12.9394   20.3284 N   0  0  0  0  0  0
  -25.9350  -11.6531   20.5756 N   0  0  0  0  0  0
  -22.0453  -12.8228   22.0403 N   0  0  0  0  0  0
  -25.4133  -15.1887   20.3993 N   0  0  0  0  0  0
  -31.8007  -14.8210   20.1446 O   0  0  0  0  0  0
  -21.6634   -6.8894   21.4266 O   0  0  0  0  0  0
  -22.3533  -14.5504   20.6697 O   0  0  0  0  0  0
  -24.6319  -31.8510   23.1930 C   0  0  0  0  0  0
  -25.9139  -32.4712   23.8285 C   0  0  1  0  0  0
  -27.2192  -27.2706   20.1182 C   0  0  0  0  0  0
  -25.5929  -33.8519   24.2211 N   0  0  0  0  0  0
  -23.4269  -30.4748   21.5343 C   0  0  2  0  0  0
  -24.8696  -28.9114   20.1073 C   0  0  0  0  0  0
  -22.7513  -29.4593   22.4884 C   0  0  0  0  0  0
  -18.0293  -28.1425   22.8439 C   0  0  0  0  0  0
  -24.1482  -36.7307   23.2639 C   0  0  0  0  0  0
  -25.9681  -30.7711   21.3651 C   0  0  0  0  0  0
  -26.0368  -29.3914   20.7094 C   0  0  0  0  0  0
  -27.2111  -28.5812   20.6997 C   0  0  0  0  0  0
  -26.0248  -26.8383   19.5075 C   0  0  0  0  0  0
  -24.8674  -27.6454   19.4955 C   0  0  0  0  0  0
  -23.6429  -29.7996   20.1526 C   0  0  0  0  0  0
  -25.4111  -36.3052   24.0294 C   0  0  1  0  0  0
  -20.5890  -28.3726   23.1237 C   0  0  2  0  0  0
  -20.6772  -26.9439   22.5411 C   0  0  0  0  0  0
  -19.5758  -26.6400   21.5204 C   0  0  0  0  0  0
  -18.1935  -26.7949   22.1612 C   0  0  0  0  0  0
  -19.1547  -28.8897   23.2829 C   0  0  0  0  0  0
  -18.9476  -30.1497   23.8850 C   0  0  0  0  0  0
  -17.6465  -30.6597   24.0586 C   0  0  0  0  0  0
  -25.9045  -34.9413   23.5063 C   0  0  0  0  0  0
  -16.5360  -29.9106   23.6345 C   0  0  0  0  0  0
  -16.7279  -28.6554   23.0294 C   0  0  0  0  0  0
  -26.4497  -31.6550   25.0689 C   0  0  0  0  0  0
  -25.3727  -31.3737   26.1423 C   0  0  0  0  0  0
  -27.0357  -30.2958   24.6194 C   0  0  0  0  0  0
  -27.6038  -32.4299   25.7487 C   0  0  0  0  0  0
  -27.5571  -37.1813   24.8454 C   0  0  0  0  0  0
  -21.4220  -29.3051   22.3621 N   0  0  0  0  0  0
  -26.4299  -37.3758   23.9377 N   0  0  0  0  0  0
  -24.6946  -31.0507   22.0879 N   0  0  0  0  0  0
  -23.4212  -28.8153   23.3005 O   0  0  0  0  0  0
  -28.3653  -26.4598   20.1916 O   0  0  0  0  0  0
  -26.5643  -34.8895   22.4645 O   0  0  0  0  0  0
  -23.5472  -32.1321   23.7233 O   0  0  0  0  0  0
  -30.8996  -20.1390   20.6842 C   0  0  0  0  0  0
  -31.5237  -17.7682   20.7242 C   0  0  0  0  0  0
  -29.5197  -19.8482   20.6755 C   0  0  0  0  0  0
  -29.1757  -18.4160   20.7275 C   0  0  0  0  0  0
  -30.1734  -17.3432   20.7202 C   0  0  0  0  0  0
  -31.8781  -19.1295   20.7074 C   0  0  0  0  0  0
  -29.1768  -23.5163   17.7773 C   0  0  0  0  0  0
  -28.4316  -24.8067   18.2211 C   0  0  0  0  0  0
  -29.5884  -22.5276   18.9133 C   0  0  0  0  0  0
  -28.0742  -23.7162   20.5201 C   0  0  0  0  0  0
  -28.5534  -25.0409   19.7350 C   0  0  2  0  0  0
  -27.7291  -17.9696   20.8742 C   0  0  0  0  0  0
  -28.5434  -21.1176   20.8413 C   0  0  0  0  0  0
  -29.8540  -15.8808   20.7614 N   0  0  0  0  0  0
  -28.4985  -22.3586   19.9105 N   0  3  2  0  0  0
  -33.5458  -19.5696   20.7606 Cl  0  0  0  0  0  0
  -31.4773  -12.5814   19.1877 H   0  0  0  0  0  0
  -30.3803  -11.4800   19.9682 H   0  0  0  0  0  0
  -29.8004  -11.7443   17.5231 H   0  0  0  0  0  0
  -29.6403  -13.4671   17.7382 H   0  0  0  0  0  0
  -27.9021  -11.2788   18.9215 H   0  0  0  0  0  0
  -27.3863  -12.5148   17.8041 H   0  0  0  0  0  0
  -27.6354  -14.2483   19.4698 H   0  0  0  0  0  0
  -28.7150  -12.1635   21.4279 H   0  0  0  0  0  0
  -28.4143  -13.8443   21.8060 H   0  0  0  0  0  0
  -25.2771   -9.5642   22.4801 H   0  0  0  0  0  0
  -23.9986   -7.4609   22.7490 H   0  0  0  0  0  0
  -21.0846   -8.8828   19.8958 H   0  0  0  0  0  0
  -22.3756  -10.9703   19.6190 H   0  0  0  0  0  0
  -21.2006   -7.6165   23.9741 H   0  0  0  0  0  0
  -21.1473   -6.0536   25.9093 H   0  0  0  0  0  0
  -22.0588   -2.7628   23.2866 H   0  0  0  0  0  0
  -22.4066  -11.9911   22.4837 H   0  0  0  0  0  0
  -21.1076  -13.1296   22.2552 H   0  0  0  0  0  0
  -24.6227  -15.8215   20.4643 H   0  0  0  0  0  0
  -26.2209  -15.6100   19.9603 H   0  0  0  0  0  0
  -26.7210  -32.5376   23.1044 H   0  0  0  0  0  0
  -25.0016  -33.9632   25.0303 H   0  0  0  0  0  0
  -22.7219  -31.2954   21.3819 H   0  0  0  0  0  0
  -23.3709  -35.9687   23.3306 H   0  0  0  0  0  0
  -24.3574  -36.8955   22.2064 H   0  0  0  0  0  0
  -23.7279  -37.6516   23.6677 H   0  0  0  0  0  0
  -26.0980  -31.5316   20.5923 H   0  0  0  0  0  0
  -26.8499  -30.8250   21.9949 H   0  0  0  0  0  0
  -28.1110  -28.9469   21.1713 H   0  0  0  0  0  0
  -25.9554  -25.8633   19.0540 H   0  0  0  0  0  0
  -23.9713  -27.2705   19.0223 H   0  0  0  0  0  0
  -23.7641  -30.5650   19.3856 H   0  0  0  0  0  0
  -22.7634  -29.2267   19.8577 H   0  0  0  0  0  0
  -25.1305  -36.1898   25.0792 H   0  0  0  0  0  0
  -20.9973  -28.3334   24.1358 H   0  0  0  0  0  0
  -20.5647  -26.2361   23.3637 H   0  0  0  0  0  0
  -21.6640  -26.7451   22.1219 H   0  0  0  0  0  0
  -19.6924  -25.6306   21.1245 H   0  0  0  0  0  0
  -19.6690  -27.3205   20.6721 H   0  0  0  0  0  0
  -17.4198  -26.6658   21.4024 H   0  0  0  0  0  0
  -18.0356  -26.0125   22.9046 H   0  0  0  0  0  0
  -19.7955  -30.7348   24.2161 H   0  0  0  0  0  0
  -17.5024  -31.6249   24.5247 H   0  0  0  0  0  0
  -15.5363  -30.3001   23.7697 H   0  0  0  0  0  0
  -15.8674  -28.0919   22.6940 H   0  0  0  0  0  0
  -24.5860  -30.7124   25.7762 H   0  0  0  0  0  0
  -24.8977  -32.2943   26.4832 H   0  0  0  0  0  0
  -25.8047  -30.8917   27.0205 H   0  0  0  0  0  0
  -26.2969  -29.6680   24.1194 H   0  0  0  0  0  0
  -27.4008  -29.7228   25.4727 H   0  0  0  0  0  0
  -27.8840  -30.4206   23.9463 H   0  0  0  0  0  0
  -27.2597  -33.3563   26.2103 H   0  0  0  0  0  0
  -28.3849  -32.6923   25.0337 H   0  0  0  0  0  0
  -28.0705  -31.8404   26.5395 H   0  0  0  0  0  0
  -28.2591  -38.0102   24.7455 H   0  0  0  0  0  0
  -28.1054  -36.2622   24.6325 H   0  0  0  0  0  0
  -27.2281  -37.1536   25.8858 H   0  0  0  0  0  0
  -20.9423  -29.8822   21.6853 H   0  0  0  0  0  0
  -26.0153  -38.2833   24.1362 H   0  0  0  0  0  0
  -31.2348  -21.1646   20.7358 H   0  0  0  0  0  0
  -32.3314  -17.0561   20.7695 H   0  0  0  0  0  0
  -30.0747  -23.8080   17.2320 H   0  0  0  0  0  0
  -28.5588  -22.9917   17.0476 H   0  0  0  0  0  0
  -27.3860  -24.7296   17.9320 H   0  0  0  0  0  0
  -28.8182  -25.6658   17.6684 H   0  0  0  0  0  0
  -30.4932  -22.8778   19.4126 H   0  0  0  0  0  0
  -29.8317  -21.5652   18.4618 H   0  0  0  0  0  0
  -26.9872  -23.7105   20.6046 H   0  0  0  0  0  0
  -28.4525  -23.7715   21.5407 H   0  0  0  0  0  0
  -29.6324  -25.0146   19.8861 H   0  0  0  0  0  0
  -27.4554  -17.3101   20.0516 H   0  0  0  0  0  0
  -27.0068  -18.7790   20.8918 H   0  0  0  0  0  0
  -27.6088  -17.4173   21.8080 H   0  0  0  0  0  0
  -28.7516  -21.4903   21.8450 H   0  0  0  0  0  0
  -27.5075  -20.7936   20.9032 H   0  0  0  0  0  0
  -28.8874  -15.6653   20.9538 H   0  0  0  0  0  0
  -27.7266  -22.1218   19.3029 H   0  0  0  0  0  0
  1 25  1  0  0  0
  1 30  2  0  0  0
  1 84  1  0  0  0
  2  3  1  0  0  0
  2 25  1  0  0  0
  2 87  1  0  0  0
  2 88  1  0  0  0
  3  4  1  0  0  0
  3 89  1  0  0  0
  3 90  1  0  0  0
  4  5  1  0  0  0
  4 91  1  0  0  0
  4 92  1  0  0  0
  5  6  1  0  0  0
  5 26  1  0  0  0
  5 93  1  0  0  0
  6 25  1  0  0  0
  6 94  1  0  0  0
  6 95  1  0  0  0
  7  8  2  0  0  0
  7 26  1  0  0  0
  7 29  1  0  0  0
  8  9  1  0  0  0
  8 22  1  0  0  0
  9 10  1  0  0  0
  9 27  2  0  0  0
 10 11  2  0  0  0
 10 15  1  0  0  0
 11 12  1  0  0  0
 11 96  1  0  0  0
 12 13  2  0  0  0
 12 97  1  0  0  0
 13 14  1  0  0  0
 13 31  1  0  0  0
 14 15  2  0  0  0
 14 98  1  0  0  0
 15 99  1  0  0  0
 16 17  2  0  0  0
 16 21  1  0  0  0
 16 31  1  0  0  0
 17 18  1  0  0  0
 17100  1  0  0  0
 18 19  2  0  0  0
 18101  1  0  0  0
 19 20  1  0  0  0
 19 24  1  0  0  0
 20 21  2  0  0  0
 20102  1  0  0  0
 21 23  1  0  0  0
 22 28  1  0  0  0
 22 32  2  0  0  0
 26 27  1  0  0  0
 28103  1  0  0  0
 28104  1  0  0  0
 29105  1  0  0  0
 29106  1  0  0  0
 33 34  1  0  0  0
 33 66  1  0  0  0
 33 70  2  0  0  0
 34 36  1  0  0  0
 34 59  1  0  0  0
 34107  1  0  0  0
 35 44  2  0  0  0
 35 45  1  0  0  0
 35 68  1  0  0  0
 36 56  1  0  0  0
 36108  1  0  0  0
 37 39  1  0  0  0
 37 47  1  0  0  0
 37 66  1  0  0  0
 37109  1  0  0  0
 38 43  2  0  0  0
 38 46  1  0  0  0
 38 47  1  0  0  0
 39 64  1  0  0  0
 39 67  2  0  0  0
 40 52  1  0  0  0
 40 53  2  0  0  0
 40 58  1  0  0  0
 41110  1  0  0  0
 41111  1  0  0  0
 41112  1  0  0  0
 41 48  1  0  0  0
 42 43  1  0  0  0
 42 66  1  0  0  0
 42113  1  0  0  0
 42114  1  0  0  0
 43 44  1  0  0  0
 44115  1  0  0  0
 45 46  2  0  0  0
 45116  1  0  0  0
 46117  1  0  0  0
 47118  1  0  0  0
 47119  1  0  0  0
 48 56  1  0  0  0
 48 65  1  0  0  0
 48120  1  0  0  0
 49 50  1  0  0  0
 49 53  1  0  0  0
 49 64  1  0  0  0
 49121  1  0  0  0
 50 51  1  0  0  0
 50122  1  0  0  0
 50123  1  0  0  0
 51 52  1  0  0  0
 51124  1  0  0  0
 51125  1  0  0  0
 52126  1  0  0  0
 52127  1  0  0  0
 53 54  1  0  0  0
 54 55  2  0  0  0
 54128  1  0  0  0
 55 57  1  0  0  0
 55129  1  0  0  0
 56 69  2  0  0  0
 57 58  2  0  0  0
 57130  1  0  0  0
 58131  1  0  0  0
 59 60  1  0  0  0
 59 61  1  0  0  0
 59 62  1  0  0  0
 60132  1  0  0  0
 60133  1  0  0  0
 60134  1  0  0  0
 61135  1  0  0  0
 61136  1  0  0  0
 61137  1  0  0  0
 62138  1  0  0  0
 62139  1  0  0  0
 62140  1  0  0  0
 63 65  1  0  0  0
 63141  1  0  0  0
 63142  1  0  0  0
 63143  1  0  0  0
 64144  1  0  0  0
 65145  1  0  0  0
 68 81  1  0  0  0
 71 73  2  0  0  0
 71 76  1  0  0  0
 71146  1  0  0  0
 72 75  1  0  0  0
 72 76  2  0  0  0
 72147  1  0  0  0
 73 74  1  0  0  0
 73 83  1  0  0  0
 74 75  2  0  0  0
 74 82  1  0  0  0
 75 84  1  0  0  0
 76 86  1  0  0  0
 77 78  1  0  0  0
 77 79  1  0  0  0
 77148  1  0  0  0
 77149  1  0  0  0
 78 81  1  0  0  0
 78150  1  0  0  0
 78151  1  0  0  0
 79 85  1  0  0  0
 79152  1  0  0  0
 79153  1  0  0  0
 80 81  1  0  0  0
 80 85  1  0  0  0
 80154  1  0  0  0
 80155  1  0  0  0
 81156  1  0  0  0
 82157  1  0  0  0
 82158  1  0  0  0
 82159  1  0  0  0
 83160  1  0  0  0
 83161  1  0  0  0
 83 85  1  0  0  0
 84162  1  0  0  0
 85163  1  0  0  0
M  CHG  1  85   1
M  ISO  4   1 100  68 101  81 101  84 100
M  END
> <chiral flag>
0

> <version>
0

> <s_m_source_file>
/data/baiqing/PycharmProjects/Reinvent-master-3.2/result/LINK_invent/BTK/process_docking_weight1_custom_product_contain_oxygen_bond_distance_aromatic_linkinvent_7_9_3/rearranged_h_0029.sdf

> <i_m_source_file_index>
94

> <r_mmod_Potential_Energy-OPLS-2005>
152.949951171875

> <r_mmod_Stretch_Energy-OPLS-2005>
135.440353393555

> <r_mmod_Bend_Energy-OPLS-2005>
230.894546508789

> <r_mmod_Torsional_Energy-OPLS-2005>
252.547393798828

> <r_mmod_Improper_Torsional_Energy-OPLS-2005>
6.38241147994995

> <r_mmod_Van_der_Waal_Energy-OPLS-2005>
143.10270690918

> <r_mmod_Electrostatic_Energy-OPLS-2005>
-248.659591674805

> <r_mmod_Solvation_Energy-OPLS-2005>
-444.071105957031

> <b_mmod_Minimization_Converged-OPLS-2005>
0

> <r_mmod_RMS_Derivative-OPLS-2005>
4.55625629425049

$$$$
94
                    3D
 Structure written by MMmdl.
154163  0  0  1  0            999 V2000
  -30.5811  -14.7312   20.4716 C   0  0  0  0  0  0
  -30.4456  -12.4470   19.4631 C   0  0  0  0  0  0
  -29.5133  -12.5146   18.2316 C   0  0  0  0  0  0
  -28.0385  -12.3333   18.6445 C   0  0  0  0  0  0
  -27.6477  -13.2179   19.8570 C   0  0  2  0  0  0
  -28.6944  -13.1174   20.9892 C   0  0  0  0  0  0
  -25.2543  -13.8158   20.5693 C   0  0  0  0  0  0
  -24.1821  -13.0424   20.9215 C   0  0  0  0  0  0
  -24.6394  -11.6898   20.8750 C   0  0  0  0  0  0
  -23.9063  -10.4285   21.0410 C   0  0  0  0  0  0
  -24.3615   -9.4200   21.9187 C   0  0  0  0  0  0
  -23.6290   -8.2236   22.0754 C   0  0  0  0  0  0
  -22.4272   -8.0278   21.3545 C   0  0  0  0  0  0
  -21.9908   -9.0251   20.4648 C   0  0  0  0  0  0
  -22.7236  -10.2130   20.3058 C   0  0  0  0  0  0
  -21.6851   -6.0734   22.5279 C   0  0  0  0  0  0
  -21.4012   -6.5638   23.8213 C   0  0  0  0  0  0
  -21.3659   -5.6791   24.9175 C   0  0  0  0  0  0
  -21.6045   -4.3054   24.7225 C   0  0  0  0  0  0
  -21.8819   -3.8146   23.4346 C   0  0  0  0  0  0
  -21.9192   -4.6962   22.3402 C   0  0  0  0  0  0
  -22.7844  -13.5222   21.1869 C   0  0  0  0  0  0
  -22.1662   -4.2148   21.0980 F   0  0  0  0  0  0
  -21.5629   -3.4537   25.7738 F   0  0  0  0  0  0
  -29.9993  -13.4848   20.4179 N   0  0  0  0  0  0
  -26.2962  -12.9339   20.3289 N   0  0  0  0  0  0
  -25.9319  -11.6497   20.5750 N   0  0  0  0  0  0
  -22.0481  -12.8218   22.0423 N   0  0  0  0  0  0
  -25.4217  -15.1877   20.4096 N   0  0  0  0  0  0
  -31.7564  -14.8893   20.1283 O   0  0  0  0  0  0
  -21.6636   -6.8876   21.4241 O   0  0  0  0  0  0
  -22.3532  -14.5527   20.6712 O   0  0  0  0  0  0
  -24.6301  -31.8553   23.1976 C   0  0  0  0  0  0
  -25.9129  -32.4755   23.8325 C   0  0  1  0  0  0
  -27.2283  -27.2777   20.1314 C   0  0  0  0  0  0
  -25.5928  -33.8556   24.2255 N   0  0  0  0  0  0
  -23.4267  -30.4760   21.5407 C   0  0  2  0  0  0
  -24.8758  -28.9208   20.1117 C   0  0  0  0  0  0
  -22.7497  -29.4599   22.4918 C   0  0  0  0  0  0
  -18.0289  -28.1386   22.8485 C   0  0  0  0  0  0
  -24.1489  -36.7285   23.2641 C   0  0  0  0  0  0
  -25.9701  -30.7751   21.3723 C   0  0  0  0  0  0
  -26.0463  -29.3975   20.7160 C   0  0  0  0  0  0
  -27.2272  -28.5903   20.7092 C   0  0  0  0  0  0
  -26.0357  -26.8599   19.5028 C   0  0  0  0  0  0
  -24.8749  -27.6599   19.4932 C   0  0  0  0  0  0
  -23.6445  -29.8055   20.1582 C   0  0  0  0  0  0
  -25.4115  -36.3070   24.0328 C   0  0  1  0  0  0
  -20.5891  -28.3695   23.1275 C   0  0  2  0  0  0
  -20.6775  -26.9412   22.5412 C   0  0  0  0  0  0
  -19.5752  -26.6382   21.5213 C   0  0  0  0  0  0
  -18.1932  -26.7928   22.1624 C   0  0  0  0  0  0
  -19.1543  -28.8857   23.2873 C   0  0  0  0  0  0
  -18.9464  -30.1459   23.8891 C   0  0  0  0  0  0
  -17.6462  -30.6586   24.0561 C   0  0  0  0  0  0
  -25.9053  -34.9440   23.5094 C   0  0  0  0  0  0
  -16.5354  -29.9083   23.6331 C   0  0  0  0  0  0
  -16.7276  -28.6501   23.0352 C   0  0  0  0  0  0
  -26.4503  -31.6578   25.0710 C   0  0  0  0  0  0
  -25.3730  -31.3725   26.1434 C   0  0  0  0  0  0
  -27.0349  -30.2997   24.6184 C   0  0  0  0  0  0
  -27.6056  -32.4318   25.7485 C   0  0  0  0  0  0
  -27.5578  -37.1798   24.8466 C   0  0  0  0  0  0
  -21.4204  -29.3042   22.3666 N   0  0  0  0  0  0
  -26.4291  -37.3767   23.9408 N   0  0  0  0  0  0
  -24.6947  -31.0530   22.0940 N   0  0  0  0  0  0
  -23.4201  -28.8142   23.3016 O   0  0  0  0  0  0
  -28.3322  -26.4002   20.1763 O   0  0  0  0  0  0
  -26.5624  -34.8916   22.4662 O   0  0  0  0  0  0
  -23.5455  -32.1363   23.7283 O   0  0  0  0  0  0
  -28.8214  -19.3232   19.4832 C   0  0  0  0  0  0
  -30.5329  -19.5745   21.1265 C   0  0  0  0  0  0
  -29.6384  -20.2254   20.2213 C   0  0  0  0  0  0
  -29.8057  -17.2509   20.5197 C   0  0  0  0  0  0
  -28.8922  -17.8976   19.6318 C   0  0  0  0  0  0
  -30.6174  -18.1462   21.2795 C   0  0  0  0  0  0
  -29.2131  -24.0664   21.0664 C   0  0  0  0  0  0
  -28.2383  -23.8573   19.3208 C   0  0  0  0  0  0
  -28.0848  -24.9398   20.4330 C   0  0  2  0  0  0
  -29.7367  -21.7909   19.8844 C   0  0  0  0  0  0
  -29.7308  -15.7851   20.7391 N   0  0  0  0  0  0
  -28.7241  -22.8605   20.3297 N   0  3  1  0  0  0
  -27.8246  -16.9338   18.6745 Cl  0  0  0  0  0  0
  -31.7169  -17.5162   22.4546 Cl  0  0  0  0  0  0
  -31.4834  -12.5915   19.1584 H   0  0  0  0  0  0
  -30.4039  -11.4603   19.9272 H   0  0  0  0  0  0
  -29.7939  -11.7529   17.5031 H   0  0  0  0  0  0
  -29.6363  -13.4764   17.7309 H   0  0  0  0  0  0
  -27.8923  -11.2817   18.8940 H   0  0  0  0  0  0
  -27.3809  -12.5392   17.7990 H   0  0  0  0  0  0
  -27.6491  -14.2425   19.4910 H   0  0  0  0  0  0
  -28.7288  -12.1049   21.3942 H   0  0  0  0  0  0
  -28.4273  -13.7652   21.8258 H   0  0  0  0  0  0
  -25.2760   -9.5676   22.4761 H   0  0  0  0  0  0
  -23.9999   -7.4626   22.7472 H   0  0  0  0  0  0
  -21.0838   -8.8772   19.8954 H   0  0  0  0  0  0
  -22.3696  -10.9671   19.6169 H   0  0  0  0  0  0
  -21.2004   -7.6147   23.9717 H   0  0  0  0  0  0
  -21.1481   -6.0521   25.9078 H   0  0  0  0  0  0
  -22.0600   -2.7608   23.2845 H   0  0  0  0  0  0
  -22.4092  -11.9878   22.4813 H   0  0  0  0  0  0
  -21.1102  -13.1251   22.2630 H   0  0  0  0  0  0
  -24.6395  -15.8266   20.4964 H   0  0  0  0  0  0
  -26.2368  -15.6212   19.9942 H   0  0  0  0  0  0
  -26.7196  -32.5413   23.1071 H   0  0  0  0  0  0
  -25.0076  -33.9692   25.0401 H   0  0  0  0  0  0
  -22.7225  -31.2973   21.3930 H   0  0  0  0  0  0
  -23.3750  -35.9620   23.3303 H   0  0  0  0  0  0
  -24.3580  -36.8906   22.2055 H   0  0  0  0  0  0
  -23.7246  -37.6488   23.6664 H   0  0  0  0  0  0
  -26.1030  -31.5358   20.6019 H   0  0  0  0  0  0
  -26.8496  -30.8275   22.0026 H   0  0  0  0  0  0
  -28.1253  -28.9524   21.1898 H   0  0  0  0  0  0
  -25.9872  -25.8929   19.0233 H   0  0  0  0  0  0
  -23.9787  -27.2899   19.0145 H   0  0  0  0  0  0
  -23.7665  -30.5794   19.3995 H   0  0  0  0  0  0
  -22.7640  -29.2360   19.8557 H   0  0  0  0  0  0
  -25.1298  -36.1917   25.0821 H   0  0  0  0  0  0
  -20.9982  -28.3270   24.1397 H   0  0  0  0  0  0
  -20.5668  -26.2306   23.3616 H   0  0  0  0  0  0
  -21.6643  -26.7433   22.1210 H   0  0  0  0  0  0
  -19.6911  -25.6291   21.1247 H   0  0  0  0  0  0
  -19.6690  -27.3188   20.6740 H   0  0  0  0  0  0
  -17.4202  -26.6675   21.4026 H   0  0  0  0  0  0
  -18.0331  -26.0071   22.9022 H   0  0  0  0  0  0
  -19.7939  -30.7276   24.2257 H   0  0  0  0  0  0
  -17.5017  -31.6267   24.5162 H   0  0  0  0  0  0
  -15.5353  -30.2983   23.7658 H   0  0  0  0  0  0
  -15.8676  -28.0818   22.7068 H   0  0  0  0  0  0
  -24.5910  -30.7066   25.7767 H   0  0  0  0  0  0
  -24.8914  -32.2893   26.4845 H   0  0  0  0  0  0
  -25.8052  -30.8917   27.0218 H   0  0  0  0  0  0
  -26.2927  -29.6740   24.1211 H   0  0  0  0  0  0
  -27.4044  -29.7264   25.4696 H   0  0  0  0  0  0
  -27.8798  -30.4276   23.9412 H   0  0  0  0  0  0
  -27.2664  -33.3624   26.2046 H   0  0  0  0  0  0
  -28.3877  -32.6866   25.0321 H   0  0  0  0  0  0
  -28.0712  -31.8452   26.5416 H   0  0  0  0  0  0
  -28.2597  -38.0093   24.7506 H   0  0  0  0  0  0
  -28.1073  -36.2624   24.6301 H   0  0  0  0  0  0
  -27.2296  -37.1456   25.8869 H   0  0  0  0  0  0
  -20.9389  -29.8767   21.6874 H   0  0  0  0  0  0
  -26.0170  -38.2843   24.1403 H   0  0  0  0  0  0
  -28.1359  -19.7223   18.7490 H   0  0  0  0  0  0
  -31.2097  -20.1818   21.7108 H   0  0  0  0  0  0
  -29.1525  -23.9680   22.1503 H   0  0  0  0  0  0
  -30.2133  -24.3806   20.7600 H   0  0  0  0  0  0
  -28.9944  -24.1182   18.5770 H   0  0  0  0  0  0
  -27.3037  -23.5682   18.8403 H   0  0  0  0  0  0
  -27.1577  -24.7985   20.9943 H   0  0  0  0  0  0
  -29.7932  -21.8485   18.7974 H   0  0  0  0  0  0
  -30.7212  -22.1211   20.2155 H   0  0  0  0  0  0
  -28.7922  -15.4610   20.9076 H   0  0  0  0  0  0
  -27.9449  -22.4409   20.8120 H   0  0  0  0  0  0
  1 25  1  0  0  0
  1 30  2  0  0  0
  1 81  1  0  0  0
  2  3  1  0  0  0
  2 25  1  0  0  0
  2 85  1  0  0  0
  2 86  1  0  0  0
  3  4  1  0  0  0
  3 87  1  0  0  0
  3 88  1  0  0  0
  4  5  1  0  0  0
  4 89  1  0  0  0
  4 90  1  0  0  0
  5  6  1  0  0  0
  5 26  1  0  0  0
  5 91  1  0  0  0
  6 25  1  0  0  0
  6 92  1  0  0  0
  6 93  1  0  0  0
  7  8  2  0  0  0
  7 26  1  0  0  0
  7 29  1  0  0  0
  8  9  1  0  0  0
  8 22  1  0  0  0
  9 10  1  0  0  0
  9 27  2  0  0  0
 10 11  2  0  0  0
 10 15  1  0  0  0
 11 12  1  0  0  0
 11 94  1  0  0  0
 12 13  2  0  0  0
 12 95  1  0  0  0
 13 14  1  0  0  0
 13 31  1  0  0  0
 14 15  2  0  0  0
 14 96  1  0  0  0
 15 97  1  0  0  0
 16 17  2  0  0  0
 16 21  1  0  0  0
 16 31  1  0  0  0
 17 18  1  0  0  0
 17 98  1  0  0  0
 18 19  2  0  0  0
 18 99  1  0  0  0
 19 20  1  0  0  0
 19 24  1  0  0  0
 20 21  2  0  0  0
 20100  1  0  0  0
 21 23  1  0  0  0
 22 28  1  0  0  0
 22 32  2  0  0  0
 26 27  1  0  0  0
 28101  1  0  0  0
 28102  1  0  0  0
 29103  1  0  0  0
 29104  1  0  0  0
 33 34  1  0  0  0
 33 66  1  0  0  0
 33 70  2  0  0  0
 34 36  1  0  0  0
 34 59  1  0  0  0
 34105  1  0  0  0
 35 44  2  0  0  0
 35 45  1  0  0  0
 35 68  1  0  0  0
 36 56  1  0  0  0
 36106  1  0  0  0
 37 39  1  0  0  0
 37 47  1  0  0  0
 37 66  1  0  0  0
 37107  1  0  0  0
 38 43  2  0  0  0
 38 46  1  0  0  0
 38 47  1  0  0  0
 39 64  1  0  0  0
 39 67  2  0  0  0
 40 52  1  0  0  0
 40 53  2  0  0  0
 40 58  1  0  0  0
 41108  1  0  0  0
 41109  1  0  0  0
 41110  1  0  0  0
 41 48  1  0  0  0
 42 43  1  0  0  0
 42 66  1  0  0  0
 42111  1  0  0  0
 42112  1  0  0  0
 43 44  1  0  0  0
 44113  1  0  0  0
 45 46  2  0  0  0
 45114  1  0  0  0
 46115  1  0  0  0
 47116  1  0  0  0
 47117  1  0  0  0
 48 56  1  0  0  0
 48 65  1  0  0  0
 48118  1  0  0  0
 49 50  1  0  0  0
 49 53  1  0  0  0
 49 64  1  0  0  0
 49119  1  0  0  0
 50 51  1  0  0  0
 50120  1  0  0  0
 50121  1  0  0  0
 51 52  1  0  0  0
 51122  1  0  0  0
 51123  1  0  0  0
 52124  1  0  0  0
 52125  1  0  0  0
 53 54  1  0  0  0
 54 55  2  0  0  0
 54126  1  0  0  0
 55 57  1  0  0  0
 55127  1  0  0  0
 56 69  2  0  0  0
 57 58  2  0  0  0
 57128  1  0  0  0
 58129  1  0  0  0
 59 60  1  0  0  0
 59 61  1  0  0  0
 59 62  1  0  0  0
 60130  1  0  0  0
 60131  1  0  0  0
 60132  1  0  0  0
 61133  1  0  0  0
 61134  1  0  0  0
 61135  1  0  0  0
 62136  1  0  0  0
 62137  1  0  0  0
 62138  1  0  0  0
 63 65  1  0  0  0
 63139  1  0  0  0
 63140  1  0  0  0
 63141  1  0  0  0
 64142  1  0  0  0
 65143  1  0  0  0
 68 79  1  0  0  0
 71 73  2  0  0  0
 71 75  1  0  0  0
 71144  1  0  0  0
 72 73  1  0  0  0
 72 76  2  0  0  0
 72145  1  0  0  0
 73 80  1  0  0  0
 74 75  2  0  0  0
 74 76  1  0  0  0
 74 81  1  0  0  0
 75 83  1  0  0  0
 76 84  1  0  0  0
 77 79  1  0  0  0
 77 82  1  0  0  0
 77146  1  0  0  0
 77147  1  0  0  0
 78 79  1  0  0  0
 78 82  1  0  0  0
 78148  1  0  0  0
 78149  1  0  0  0
 79150  1  0  0  0
 80151  1  0  0  0
 80152  1  0  0  0
 80 82  1  0  0  0
 81153  1  0  0  0
 82154  1  0  0  0
M  CHG  1  82   1
M  ISO  4   1 100  68 101  79 101  81 100
M  END
> <chiral flag>
0

> <version>
0

> <s_m_source_file>
/data/baiqing/PycharmProjects/Reinvent-master-3.2/result/LINK_invent/BTK/process_docking_weight1_custom_product_contain_oxygen_bond_distance_aromatic_linkinvent_7_9_3/rearranged_h_0029.sdf

> <i_m_source_file_index>
95

> <r_mmod_Potential_Energy-OPLS-2005>
-98.0750350952148

> <r_mmod_Stretch_Energy-OPLS-2005>
105.571723937988

> <r_mmod_Bend_Energy-OPLS-2005>
183.850662231445

> <r_mmod_Torsional_Energy-OPLS-2005>
260.023132324219

> <r_mmod_Improper_Torsional_Energy-OPLS-2005>
7.62620115280151

> <r_mmod_Van_der_Waal_Energy-OPLS-2005>
130.015640258789

> <r_mmod_Electrostatic_Energy-OPLS-2005>
-357.323822021484

> <r_mmod_Solvation_Energy-OPLS-2005>
-504.819458007812

> <b_mmod_Minimization_Converged-OPLS-2005>
0

> <r_mmod_RMS_Derivative-OPLS-2005>
0.240686446428299

$$$$
95
                    3D
 Structure written by MMmdl.
156165  0  0  1  0            999 V2000
  -30.6673  -14.6225   20.5032 C   0  0  0  0  0  0
  -30.4179  -12.3868   19.4536 C   0  0  0  0  0  0
  -29.4978  -12.4986   18.2208 C   0  0  0  0  0  0
  -28.0223  -12.3431   18.6355 C   0  0  0  0  0  0
  -27.6449  -13.2267   19.8557 C   0  0  2  0  0  0
  -28.6886  -13.1159   20.9878 C   0  0  0  0  0  0
  -25.2528  -13.8200   20.5710 C   0  0  0  0  0  0
  -24.1807  -13.0444   20.9208 C   0  0  0  0  0  0
  -24.6391  -11.6924   20.8749 C   0  0  0  0  0  0
  -23.9067  -10.4293   21.0411 C   0  0  0  0  0  0
  -24.3617   -9.4208   21.9192 C   0  0  0  0  0  0
  -23.6292   -8.2244   22.0759 C   0  0  0  0  0  0
  -22.4278   -8.0278   21.3544 C   0  0  0  0  0  0
  -21.9915   -9.0253   20.4652 C   0  0  0  0  0  0
  -22.7242  -10.2135   20.3062 C   0  0  0  0  0  0
  -21.6850   -6.0735   22.5277 C   0  0  0  0  0  0
  -21.4014   -6.5640   23.8211 C   0  0  0  0  0  0
  -21.3661   -5.6795   24.9171 C   0  0  0  0  0  0
  -21.6041   -4.3057   24.7225 C   0  0  0  0  0  0
  -21.8819   -3.8148   23.4348 C   0  0  0  0  0  0
  -21.9194   -4.6964   22.3401 C   0  0  0  0  0  0
  -22.7829  -13.5234   21.1862 C   0  0  0  0  0  0
  -22.1663   -4.2149   21.0981 F   0  0  0  0  0  0
  -21.5630   -3.4541   25.7741 F   0  0  0  0  0  0
  -29.9986  -13.4324   20.4087 N   0  0  0  0  0  0
  -26.2949  -12.9399   20.3298 N   0  0  0  0  0  0
  -25.9317  -11.6541   20.5749 N   0  0  0  0  0  0
  -22.0476  -12.8211   22.0416 N   0  0  0  0  0  0
  -25.4240  -15.1916   20.4163 N   0  0  0  0  0  0
  -31.8482  -14.7085   20.1582 O   0  0  0  0  0  0
  -21.6639   -6.8878   21.4241 O   0  0  0  0  0  0
  -22.3513  -14.5540   20.6716 O   0  0  0  0  0  0
  -24.6290  -31.8632   23.2064 C   0  0  0  0  0  0
  -25.9142  -32.4803   23.8400 C   0  0  1  0  0  0
  -27.1971  -27.3100   20.1050 C   0  0  0  0  0  0
  -25.5966  -33.8609   24.2305 N   0  0  0  0  0  0
  -23.4202  -30.4922   21.5525 C   0  0  2  0  0  0
  -24.8573  -28.9576   20.1114 C   0  0  0  0  0  0
  -22.7490  -29.4629   22.4936 C   0  0  0  0  0  0
  -18.0298  -28.1370   22.8479 C   0  0  0  0  0  0
  -24.1490  -36.7304   23.2635 C   0  0  0  0  0  0
  -25.9644  -30.7937   21.3743 C   0  0  0  0  0  0
  -26.0337  -29.4226   20.7126 C   0  0  0  0  0  0
  -27.2107  -28.6126   20.6966 C   0  0  0  0  0  0
  -25.9901  -26.9106   19.4786 C   0  0  0  0  0  0
  -24.8366  -27.7070   19.4892 C   0  0  0  0  0  0
  -23.6327  -29.8438   20.1628 C   0  0  0  0  0  0
  -25.4120  -36.3099   24.0319 C   0  0  1  0  0  0
  -20.5896  -28.3683   23.1272 C   0  0  2  0  0  0
  -20.6792  -26.9407   22.5405 C   0  0  0  0  0  0
  -19.5772  -26.6374   21.5203 C   0  0  0  0  0  0
  -18.1941  -26.7921   22.1600 C   0  0  0  0  0  0
  -19.1547  -28.8840   23.2873 C   0  0  0  0  0  0
  -18.9475  -30.1445   23.8890 C   0  0  0  0  0  0
  -17.6477  -30.6580   24.0557 C   0  0  0  0  0  0
  -25.9054  -34.9466   23.5097 C   0  0  0  0  0  0
  -16.5367  -29.9079   23.6330 C   0  0  0  0  0  0
  -16.7282  -28.6496   23.0350 C   0  0  0  0  0  0
  -26.4505  -31.6613   25.0776 C   0  0  0  0  0  0
  -25.3729  -31.3786   26.1504 C   0  0  0  0  0  0
  -27.0316  -30.3033   24.6212 C   0  0  0  0  0  0
  -27.6067  -32.4343   25.7549 C   0  0  0  0  0  0
  -27.5564  -37.1840   24.8473 C   0  0  0  0  0  0
  -21.4196  -29.3051   22.3685 N   0  0  0  0  0  0
  -26.4301  -37.3788   23.9383 N   0  0  0  0  0  0
  -24.6917  -31.0644   22.1024 N   0  0  0  0  0  0
  -23.4206  -28.8140   23.2994 O   0  0  0  0  0  0
  -28.2937  -26.4285   20.1587 O   0  0  0  0  0  0
  -26.5590  -34.8922   22.4646 O   0  0  0  0  0  0
  -23.5449  -32.1430   23.7382 O   0  0  0  0  0  0
  -30.4036  -19.6006   21.5796 C   0  0  0  0  0  0
  -29.9427  -20.9393   21.4315 C   0  0  0  0  0  0
  -28.3164  -20.1642   19.8422 C   0  0  0  0  0  0
  -29.8592  -18.5020   20.8557 C   0  0  0  0  0  0
  -28.8889  -21.2611   20.5474 C   0  0  0  0  0  0
  -28.7865  -18.8190   19.9755 C   0  0  0  0  0  0
  -27.2084  -24.4976   21.3618 C   0  0  0  0  0  0
  -27.3144  -22.9536   21.3794 C   0  0  0  0  0  0
  -29.0890  -23.8381   20.1008 C   0  0  0  0  0  0
  -27.9976  -24.9703   20.1269 C   0  0  2  0  0  0
  -30.5894  -17.1107   20.9910 C   0  0  0  0  0  0
  -28.3545  -22.5865   20.4237 N   0  0  0  0  0  0
  -29.9612  -15.7549   20.8185 N   0  0  0  0  0  0
  -28.0362  -17.5860   19.0241 Cl  0  0  0  0  0  0
  -31.4629  -12.4850   19.1535 H   0  0  0  0  0  0
  -30.3303  -11.3999   19.9112 H   0  0  0  0  0  0
  -29.7605  -11.7382   17.4838 H   0  0  0  0  0  0
  -29.6450  -13.4636   17.7326 H   0  0  0  0  0  0
  -27.8607  -11.2919   18.8770 H   0  0  0  0  0  0
  -27.3670  -12.5645   17.7923 H   0  0  0  0  0  0
  -27.6554  -14.2577   19.5011 H   0  0  0  0  0  0
  -28.6951  -12.1113   21.4121 H   0  0  0  0  0  0
  -28.4418  -13.7907   21.8091 H   0  0  0  0  0  0
  -25.2759   -9.5679   22.4769 H   0  0  0  0  0  0
  -23.9999   -7.4635   22.7479 H   0  0  0  0  0  0
  -21.0846   -8.8770   19.8958 H   0  0  0  0  0  0
  -22.3698  -10.9674   19.6170 H   0  0  0  0  0  0
  -21.2003   -7.6148   23.9710 H   0  0  0  0  0  0
  -21.1486   -6.0528   25.9074 H   0  0  0  0  0  0
  -22.0597   -2.7613   23.2847 H   0  0  0  0  0  0
  -22.4096  -11.9857   22.4771 H   0  0  0  0  0  0
  -21.1101  -13.1242   22.2648 H   0  0  0  0  0  0
  -24.6587  -15.8456   20.5371 H   0  0  0  0  0  0
  -26.2688  -15.6341   20.0769 H   0  0  0  0  0  0
  -26.7217  -32.5461   23.1159 H   0  0  0  0  0  0
  -25.0228  -33.9796   25.0525 H   0  0  0  0  0  0
  -22.7136  -31.3128   21.4173 H   0  0  0  0  0  0
  -23.3723  -35.9672   23.3382 H   0  0  0  0  0  0
  -24.3556  -36.8847   22.2033 H   0  0  0  0  0  0
  -23.7303  -37.6559   23.6607 H   0  0  0  0  0  0
  -26.0893  -31.5560   20.6038 H   0  0  0  0  0  0
  -26.8481  -30.8428   21.9996 H   0  0  0  0  0  0
  -28.1149  -28.9646   21.1733 H   0  0  0  0  0  0
  -25.8708  -25.9635   18.9804 H   0  0  0  0  0  0
  -23.9312  -27.3441   19.0214 H   0  0  0  0  0  0
  -23.7669  -30.6302   19.4180 H   0  0  0  0  0  0
  -22.7469  -29.2886   19.8488 H   0  0  0  0  0  0
  -25.1305  -36.1969   25.0813 H   0  0  0  0  0  0
  -20.9972  -28.3260   24.1397 H   0  0  0  0  0  0
  -20.5687  -26.2290   23.3604 H   0  0  0  0  0  0
  -21.6665  -26.7440   22.1201 H   0  0  0  0  0  0
  -19.6938  -25.6275   21.1255 H   0  0  0  0  0  0
  -19.6728  -27.3162   20.6711 H   0  0  0  0  0  0
  -17.4224  -26.6676   21.3989 H   0  0  0  0  0  0
  -18.0335  -26.0052   22.8977 H   0  0  0  0  0  0
  -19.7951  -30.7266   24.2239 H   0  0  0  0  0  0
  -17.5040  -31.6256   24.5166 H   0  0  0  0  0  0
  -15.5372  -30.2985   23.7663 H   0  0  0  0  0  0
  -15.8674  -28.0825   22.7051 H   0  0  0  0  0  0
  -24.5921  -30.7088   25.7885 H   0  0  0  0  0  0
  -24.8886  -32.2957   26.4865 H   0  0  0  0  0  0
  -25.8056  -30.9059   27.0327 H   0  0  0  0  0  0
  -26.2880  -29.6829   24.1200 H   0  0  0  0  0  0
  -27.3974  -29.7258   25.4715 H   0  0  0  0  0  0
  -27.8770  -30.4326   23.9453 H   0  0  0  0  0  0
  -27.2700  -33.3673   26.2085 H   0  0  0  0  0  0
  -28.3919  -32.6859   25.0402 H   0  0  0  0  0  0
  -28.0686  -31.8494   26.5519 H   0  0  0  0  0  0
  -28.2645  -38.0062   24.7402 H   0  0  0  0  0  0
  -28.0995  -36.2594   24.6456 H   0  0  0  0  0  0
  -27.2272  -37.1692   25.8876 H   0  0  0  0  0  0
  -20.9362  -29.8865   21.6981 H   0  0  0  0  0  0
  -26.0180  -38.2874   24.1337 H   0  0  0  0  0  0
  -31.2223  -19.4233   22.2624 H   0  0  0  0  0  0
  -30.4018  -21.7239   22.0167 H   0  0  0  0  0  0
  -27.4981  -20.3526   19.1626 H   0  0  0  0  0  0
  -27.6828  -24.9000   22.2586 H   0  0  0  0  0  0
  -26.1732  -24.8395   21.3686 H   0  0  0  0  0  0
  -26.3707  -22.4961   21.0790 H   0  0  0  0  0  0
  -27.5485  -22.5953   22.3839 H   0  0  0  0  0  0
  -29.8703  -24.0242   20.8388 H   0  0  0  0  0  0
  -29.5582  -23.7677   19.1185 H   0  0  0  0  0  0
  -27.4360  -24.7514   19.2217 H   0  0  0  0  0  0
  -31.0462  -17.0901   21.9816 H   0  0  0  0  0  0
  -31.4282  -17.1850   20.2980 H   0  0  0  0  0  0
  -28.9735  -15.6627   20.9985 H   0  0  0  0  0  0
  1 25  1  0  0  0
  1 30  2  0  0  0
  1 83  1  0  0  0
  2  3  1  0  0  0
  2 25  1  0  0  0
  2 85  1  0  0  0
  2 86  1  0  0  0
  3  4  1  0  0  0
  3 87  1  0  0  0
  3 88  1  0  0  0
  4  5  1  0  0  0
  4 89  1  0  0  0
  4 90  1  0  0  0
  5  6  1  0  0  0
  5 26  1  0  0  0
  5 91  1  0  0  0
  6 25  1  0  0  0
  6 92  1  0  0  0
  6 93  1  0  0  0
  7  8  2  0  0  0
  7 26  1  0  0  0
  7 29  1  0  0  0
  8  9  1  0  0  0
  8 22  1  0  0  0
  9 10  1  0  0  0
  9 27  2  0  0  0
 10 11  2  0  0  0
 10 15  1  0  0  0
 11 12  1  0  0  0
 11 94  1  0  0  0
 12 13  2  0  0  0
 12 95  1  0  0  0
 13 14  1  0  0  0
 13 31  1  0  0  0
 14 15  2  0  0  0
 14 96  1  0  0  0
 15 97  1  0  0  0
 16 17  2  0  0  0
 16 21  1  0  0  0
 16 31  1  0  0  0
 17 18  1  0  0  0
 17 98  1  0  0  0
 18 19  2  0  0  0
 18 99  1  0  0  0
 19 20  1  0  0  0
 19 24  1  0  0  0
 20 21  2  0  0  0
 20100  1  0  0  0
 21 23  1  0  0  0
 22 28  1  0  0  0
 22 32  2  0  0  0
 26 27  1  0  0  0
 28101  1  0  0  0
 28102  1  0  0  0
 29103  1  0  0  0
 29104  1  0  0  0
 33 34  1  0  0  0
 33 66  1  0  0  0
 33 70  2  0  0  0
 34 36  1  0  0  0
 34 59  1  0  0  0
 34105  1  0  0  0
 35 44  2  0  0  0
 35 45  1  0  0  0
 35 68  1  0  0  0
 36 56  1  0  0  0
 36106  1  0  0  0
 37 39  1  0  0  0
 37 47  1  0  0  0
 37 66  1  0  0  0
 37107  1  0  0  0
 38 43  2  0  0  0
 38 46  1  0  0  0
 38 47  1  0  0  0
 39 64  1  0  0  0
 39 67  2  0  0  0
 40 52  1  0  0  0
 40 53  2  0  0  0
 40 58  1  0  0  0
 41108  1  0  0  0
 41109  1  0  0  0
 41110  1  0  0  0
 41 48  1  0  0  0
 42 43  1  0  0  0
 42 66  1  0  0  0
 42111  1  0  0  0
 42112  1  0  0  0
 43 44  1  0  0  0
 44113  1  0  0  0
 45 46  2  0  0  0
 45114  1  0  0  0
 46115  1  0  0  0
 47116  1  0  0  0
 47117  1  0  0  0
 48 56  1  0  0  0
 48 65  1  0  0  0
 48118  1  0  0  0
 49 50  1  0  0  0
 49 53  1  0  0  0
 49 64  1  0  0  0
 49119  1  0  0  0
 50 51  1  0  0  0
 50120  1  0  0  0
 50121  1  0  0  0
 51 52  1  0  0  0
 51122  1  0  0  0
 51123  1  0  0  0
 52124  1  0  0  0
 52125  1  0  0  0
 53 54  1  0  0  0
 54 55  2  0  0  0
 54126  1  0  0  0
 55 57  1  0  0  0
 55127  1  0  0  0
 56 69  2  0  0  0
 57 58  2  0  0  0
 57128  1  0  0  0
 58129  1  0  0  0
 59 60  1  0  0  0
 59 61  1  0  0  0
 59 62  1  0  0  0
 60130  1  0  0  0
 60131  1  0  0  0
 60132  1  0  0  0
 61133  1  0  0  0
 61134  1  0  0  0
 61135  1  0  0  0
 62136  1  0  0  0
 62137  1  0  0  0
 62138  1  0  0  0
 63 65  1  0  0  0
 63139  1  0  0  0
 63140  1  0  0  0
 63141  1  0  0  0
 64142  1  0  0  0
 65143  1  0  0  0
 68 80  1  0  0  0
 71 72  2  0  0  0
 71 74  1  0  0  0
 71144  1  0  0  0
 72 75  1  0  0  0
 72145  1  0  0  0
 73 75  2  0  0  0
 73 76  1  0  0  0
 73146  1  0  0  0
 74 76  2  0  0  0
 74 81  1  0  0  0
 75 82  1  0  0  0
 76 84  1  0  0  0
 77 78  1  0  0  0
 77 80  1  0  0  0
 77147  1  0  0  0
 77148  1  0  0  0
 78 82  1  0  0  0
 78149  1  0  0  0
 78150  1  0  0  0
 79 80  1  0  0  0
 79 82  1  0  0  0
 79151  1  0  0  0
 79152  1  0  0  0
 80153  1  0  0  0
 81 83  1  0  0  0
 81154  1  0  0  0
 81155  1  0  0  0
 83156  1  0  0  0
M  ISO  4   1 100  68 101  80 101  83 100
M  END
> <chiral flag>
0

> <version>
0

> <s_m_source_file>
/data/baiqing/PycharmProjects/Reinvent-master-3.2/result/LINK_invent/BTK/process_docking_weight1_custom_product_contain_oxygen_bond_distance_aromatic_linkinvent_7_9_3/rearranged_h_0029.sdf

> <i_m_source_file_index>
96

> <r_mmod_Potential_Energy-OPLS-2005>
141.293334960938

> <r_mmod_Stretch_Energy-OPLS-2005>
74.2204513549805

> <r_mmod_Bend_Energy-OPLS-2005>
196.765640258789

> <r_mmod_Torsional_Energy-OPLS-2005>
272.024169921875

> <r_mmod_Improper_Torsional_Energy-OPLS-2005>
7.57175064086914

> <r_mmod_Van_der_Waal_Energy-OPLS-2005>
143.276977539062

> <r_mmod_Electrostatic_Energy-OPLS-2005>
-391.2626953125

> <r_mmod_Solvation_Energy-OPLS-2005>
-214.227584838867

> <b_mmod_Minimization_Converged-OPLS-2005>
0

> <r_mmod_RMS_Derivative-OPLS-2005>
2.1427526473999

$$$$
