0
                    3D
 Structure written by MMmdl.
159168  0  0  1  0            999 V2000
  -30.5521  -14.7595   20.4917 C   0  0  0  0  0  0
  -30.4418  -12.4650   19.4991 C   0  0  0  0  0  0
  -29.5227  -12.5307   18.2537 C   0  0  0  0  0  0
  -28.0462  -12.3419   18.6544 C   0  0  0  0  0  0
  -27.6458  -13.2260   19.8655 C   0  0  2  0  0  0
  -28.6785  -13.1256   21.0096 C   0  0  0  0  0  0
  -25.2514  -13.8190   20.5710 C   0  0  0  0  0  0
  -24.1804  -13.0448   20.9207 C   0  0  0  0  0  0
  -24.6361  -11.6916   20.8736 C   0  0  0  0  0  0
  -23.9041  -10.4310   21.0414 C   0  0  0  0  0  0
  -24.3607   -9.4222   21.9172 C   0  0  0  0  0  0
  -23.6301   -8.2248   22.0722 C   0  0  0  0  0  0
  -22.4277   -8.0283   21.3526 C   0  0  0  0  0  0
  -21.9917   -9.0250   20.4620 C   0  0  0  0  0  0
  -22.7226  -10.2141   20.3053 C   0  0  0  0  0  0
  -21.6850   -6.0746   22.5292 C   0  0  0  0  0  0
  -21.3998   -6.5637   23.8224 C   0  0  0  0  0  0
  -21.3664   -5.6785   24.9173 C   0  0  0  0  0  0
  -21.6056   -4.3049   24.7223 C   0  0  0  0  0  0
  -21.8813   -3.8142   23.4335 C   0  0  0  0  0  0
  -21.9179   -4.6971   22.3398 C   0  0  0  0  0  0
  -22.7831  -13.5226   21.1893 C   0  0  0  0  0  0
  -22.1656   -4.2162   21.0978 F   0  0  0  0  0  0
  -21.5645   -3.4527   25.7728 F   0  0  0  0  0  0
  -29.9886  -13.5009   20.4587 N   0  0  0  0  0  0
  -26.2929  -12.9373   20.3285 N   0  0  0  0  0  0
  -25.9291  -11.6508   20.5732 N   0  0  0  0  0  0
  -22.0459  -12.8228   22.0441 N   0  0  0  0  0  0
  -25.4246  -15.1911   20.4148 N   0  0  0  0  0  0
  -31.6997  -14.9257   20.0650 O   0  0  0  0  0  0
  -21.6627   -6.8891   21.4250 O   0  0  0  0  0  0
  -22.3519  -14.5528   20.6717 O   0  0  0  0  0  0
  -24.6263  -31.8564   23.1971 C   0  0  0  0  0  0
  -25.9097  -32.4774   23.8327 C   0  0  1  0  0  0
  -27.2197  -27.2525   20.1492 C   0  0  0  0  0  0
  -25.5910  -33.8569   24.2253 N   0  0  0  0  0  0
  -23.4262  -30.4750   21.5374 C   0  0  2  0  0  0
  -24.8814  -28.9289   20.0952 C   0  0  0  0  0  0
  -22.7495  -29.4582   22.4882 C   0  0  0  0  0  0
  -18.0287  -28.1383   22.8510 C   0  0  0  0  0  0
  -24.1477  -36.7263   23.2641 C   0  0  0  0  0  0
  -25.9710  -30.7637   21.3844 C   0  0  0  0  0  0
  -26.0423  -29.3858   20.7294 C   0  0  0  0  0  0
  -27.2092  -28.5565   20.7545 C   0  0  0  0  0  0
  -26.0565  -26.8908   19.4374 C   0  0  0  0  0  0
  -24.8977  -27.6941   19.4272 C   0  0  0  0  0  0
  -23.6467  -29.8086   20.1504 C   0  0  0  0  0  0
  -25.4112  -36.3081   24.0330 C   0  0  1  0  0  0
  -20.5901  -28.3686   23.1288 C   0  0  2  0  0  0
  -20.6774  -26.9404   22.5423 C   0  0  0  0  0  0
  -19.5744  -26.6388   21.5225 C   0  0  0  0  0  0
  -18.1921  -26.7936   22.1638 C   0  0  0  0  0  0
  -19.1550  -28.8857   23.2896 C   0  0  0  0  0  0
  -18.9470  -30.1460   23.8909 C   0  0  0  0  0  0
  -17.6470  -30.6596   24.0564 C   0  0  0  0  0  0
  -25.9058  -34.9457   23.5108 C   0  0  0  0  0  0
  -16.5357  -29.9097   23.6322 C   0  0  0  0  0  0
  -16.7278  -28.6502   23.0373 C   0  0  0  0  0  0
  -26.4475  -31.6596   25.0708 C   0  0  0  0  0  0
  -25.3704  -31.3754   26.1430 C   0  0  0  0  0  0
  -27.0296  -30.3013   24.6170 C   0  0  0  0  0  0
  -27.6033  -32.4331   25.7495 C   0  0  0  0  0  0
  -27.5569  -37.1799   24.8471 C   0  0  0  0  0  0
  -21.4203  -29.3030   22.3666 N   0  0  0  0  0  0
  -26.4279  -37.3791   23.9417 N   0  0  0  0  0  0
  -24.6930  -31.0518   22.0954 N   0  0  0  0  0  0
  -23.4220  -28.8144   23.2984 O   0  0  0  0  0  0
  -28.2997  -26.3454   20.2873 O   0  0  0  0  0  0
  -26.5630  -34.8932   22.4675 O   0  0  0  0  0  0
  -23.5416  -32.1380   23.7275 O   0  0  0  0  0  0
  -30.7672  -18.7608   21.6762 C   0  0  0  0  0  0
  -30.5166  -21.2174   21.6828 C   0  0  0  0  0  0
  -29.7179  -18.6157   20.7509 C   0  0  0  0  0  0
  -29.4187  -21.1794   20.7912 C   0  0  0  0  0  0
  -31.1569  -20.0378   22.1302 C   0  0  0  0  0  0
  -29.0368  -19.8439   20.3397 C   0  0  0  0  0  0
  -26.9916  -24.0779   20.6473 C   0  0  0  0  0  0
  -27.3210  -22.5618   20.4692 C   0  0  0  0  0  0
  -29.3010  -23.8371   20.5074 C   0  0  0  0  0  0
  -28.1720  -24.8606   20.0209 C   0  0  2  0  0  0
  -29.7638  -17.1468   18.6519 C   0  0  0  0  0  0
  -29.3996  -17.1738   20.1464 C   0  0  2  0  0  0
  -28.7727  -22.4323   20.4012 N   0  0  0  0  0  0
  -29.7211  -15.8240   20.8236 N   0  0  0  0  0  0
  -32.1801  -20.1344   23.0136 F   0  0  0  0  0  0
  -28.0102  -19.7398   19.4589 F   0  0  0  0  0  0
  -31.4845  -12.6091   19.2118 H   0  0  0  0  0  0
  -30.3983  -11.4759   19.9597 H   0  0  0  0  0  0
  -29.8160  -11.7752   17.5242 H   0  0  0  0  0  0
  -29.6445  -13.4950   17.7599 H   0  0  0  0  0  0
  -27.9074  -11.2904   18.9009 H   0  0  0  0  0  0
  -27.3916  -12.5460   17.8070 H   0  0  0  0  0  0
  -27.6529  -14.2540   19.5031 H   0  0  0  0  0  0
  -28.7143  -12.1124   21.4121 H   0  0  0  0  0  0
  -28.3957  -13.7690   21.8450 H   0  0  0  0  0  0
  -25.2742   -9.5706   22.4742 H   0  0  0  0  0  0
  -24.0016   -7.4630   22.7427 H   0  0  0  0  0  0
  -21.0852   -8.8750   19.8930 H   0  0  0  0  0  0
  -22.3664  -10.9667   19.6165 H   0  0  0  0  0  0
  -21.1983   -7.6146   23.9738 H   0  0  0  0  0  0
  -21.1504   -6.0503   25.9086 H   0  0  0  0  0  0
  -22.0590   -2.7612   23.2817 H   0  0  0  0  0  0
  -22.4022  -11.9879   22.4872 H   0  0  0  0  0  0
  -21.1063  -13.1250   22.2609 H   0  0  0  0  0  0
  -24.6616  -15.8484   20.5286 H   0  0  0  0  0  0
  -26.2704  -15.6237   20.0660 H   0  0  0  0  0  0
  -26.7158  -32.5444   23.1065 H   0  0  0  0  0  0
  -25.0054  -33.9717   25.0403 H   0  0  0  0  0  0
  -22.7207  -31.2943   21.3899 H   0  0  0  0  0  0
  -23.3763  -35.9574   23.3325 H   0  0  0  0  0  0
  -24.3556  -36.8860   22.2047 H   0  0  0  0  0  0
  -23.7207  -37.6462   23.6653 H   0  0  0  0  0  0
  -26.1108  -31.5215   20.6133 H   0  0  0  0  0  0
  -26.8486  -30.8205   22.0158 H   0  0  0  0  0  0
  -28.0865  -28.8915   21.2918 H   0  0  0  0  0  0
  -26.0220  -25.9647   18.8858 H   0  0  0  0  0  0
  -24.0236  -27.3594   18.8851 H   0  0  0  0  0  0
  -23.7582  -30.5837   19.3915 H   0  0  0  0  0  0
  -22.7717  -29.2268   19.8510 H   0  0  0  0  0  0
  -25.1308  -36.1926   25.0825 H   0  0  0  0  0  0
  -20.9993  -28.3250   24.1408 H   0  0  0  0  0  0
  -20.5653  -26.2294   23.3635 H   0  0  0  0  0  0
  -21.6646  -26.7401   22.1233 H   0  0  0  0  0  0
  -19.6888  -25.6298   21.1255 H   0  0  0  0  0  0
  -19.6685  -27.3208   20.6770 H   0  0  0  0  0  0
  -17.4201  -26.6707   21.4032 H   0  0  0  0  0  0
  -18.0292  -26.0075   22.9028 H   0  0  0  0  0  0
  -19.7947  -30.7270   24.2289 H   0  0  0  0  0  0
  -17.5026  -31.6284   24.5158 H   0  0  0  0  0  0
  -15.5362  -30.3012   23.7635 H   0  0  0  0  0  0
  -15.8677  -28.0815   22.7102 H   0  0  0  0  0  0
  -24.5949  -30.6994   25.7801 H   0  0  0  0  0  0
  -24.8789  -32.2910   26.4735 H   0  0  0  0  0  0
  -25.8046  -30.9071   27.0272 H   0  0  0  0  0  0
  -26.2844  -29.6805   24.1163 H   0  0  0  0  0  0
  -27.3954  -29.7238   25.4671 H   0  0  0  0  0  0
  -27.8765  -30.4300   23.9422 H   0  0  0  0  0  0
  -27.2655  -33.3688   26.1970 H   0  0  0  0  0  0
  -28.3913  -32.6777   25.0359 H   0  0  0  0  0  0
  -28.0601  -31.8487   26.5493 H   0  0  0  0  0  0
  -28.2621  -38.0070   24.7517 H   0  0  0  0  0  0
  -28.1048  -36.2608   24.6327 H   0  0  0  0  0  0
  -27.2289  -37.1470   25.8878 H   0  0  0  0  0  0
  -20.9371  -29.8757   21.6888 H   0  0  0  0  0  0
  -26.0159  -38.2870   24.1430 H   0  0  0  0  0  0
  -31.3017  -17.8878   22.0232 H   0  0  0  0  0  0
  -30.8752  -22.1625   22.0606 H   0  0  0  0  0  0
  -26.9213  -24.3263   21.7058 H   0  0  0  0  0  0
  -26.0193  -24.3008   20.2143 H   0  0  0  0  0  0
  -26.9003  -22.1908   19.5335 H   0  0  0  0  0  0
  -26.8946  -21.9648   21.2795 H   0  0  0  0  0  0
  -29.5395  -24.0316   21.5550 H   0  0  0  0  0  0
  -30.2238  -23.9658   19.9391 H   0  0  0  0  0  0
  -28.1016  -24.7581   18.9360 H   0  0  0  0  0  0
  -30.8387  -17.2459   18.4993 H   0  0  0  0  0  0
  -29.2810  -17.9650   18.1166 H   0  0  0  0  0  0
  -29.4348  -16.2229   18.1773 H   0  0  0  0  0  0
  -28.3081  -17.1616   20.1714 H   0  0  0  0  0  0
  -28.9319  -15.4952   21.3616 H   0  0  0  0  0  0
  1 25  1  0  0  0
  1 30  2  0  0  0
  1 84  1  0  0  0
  2  3  1  0  0  0
  2 25  1  0  0  0
  2 87  1  0  0  0
  2 88  1  0  0  0
  3  4  1  0  0  0
  3 89  1  0  0  0
  3 90  1  0  0  0
  4  5  1  0  0  0
  4 91  1  0  0  0
  4 92  1  0  0  0
  5  6  1  0  0  0
  5 26  1  0  0  0
  5 93  1  0  0  0
  6 25  1  0  0  0
  6 94  1  0  0  0
  6 95  1  0  0  0
  7  8  2  0  0  0
  7 26  1  0  0  0
  7 29  1  0  0  0
  8  9  1  0  0  0
  8 22  1  0  0  0
  9 10  1  0  0  0
  9 27  2  0  0  0
 10 11  2  0  0  0
 10 15  1  0  0  0
 11 12  1  0  0  0
 11 96  1  0  0  0
 12 13  2  0  0  0
 12 97  1  0  0  0
 13 14  1  0  0  0
 13 31  1  0  0  0
 14 15  2  0  0  0
 14 98  1  0  0  0
 15 99  1  0  0  0
 16 17  2  0  0  0
 16 21  1  0  0  0
 16 31  1  0  0  0
 17 18  1  0  0  0
 17100  1  0  0  0
 18 19  2  0  0  0
 18101  1  0  0  0
 19 20  1  0  0  0
 19 24  1  0  0  0
 20 21  2  0  0  0
 20102  1  0  0  0
 21 23  1  0  0  0
 22 28  1  0  0  0
 22 32  2  0  0  0
 26 27  1  0  0  0
 28103  1  0  0  0
 28104  1  0  0  0
 29105  1  0  0  0
 29106  1  0  0  0
 33 34  1  0  0  0
 33 66  1  0  0  0
 33 70  2  0  0  0
 34 36  1  0  0  0
 34 59  1  0  0  0
 34107  1  0  0  0
 35 44  2  0  0  0
 35 45  1  0  0  0
 35 68  1  0  0  0
 36 56  1  0  0  0
 36108  1  0  0  0
 37 39  1  0  0  0
 37 47  1  0  0  0
 37 66  1  0  0  0
 37109  1  0  0  0
 38 43  2  0  0  0
 38 46  1  0  0  0
 38 47  1  0  0  0
 39 64  1  0  0  0
 39 67  2  0  0  0
 40 52  1  0  0  0
 40 53  2  0  0  0
 40 58  1  0  0  0
 41110  1  0  0  0
 41111  1  0  0  0
 41112  1  0  0  0
 41 48  1  0  0  0
 42 43  1  0  0  0
 42 66  1  0  0  0
 42113  1  0  0  0
 42114  1  0  0  0
 43 44  1  0  0  0
 44115  1  0  0  0
 45 46  2  0  0  0
 45116  1  0  0  0
 46117  1  0  0  0
 47118  1  0  0  0
 47119  1  0  0  0
 48 56  1  0  0  0
 48 65  1  0  0  0
 48120  1  0  0  0
 49 50  1  0  0  0
 49 53  1  0  0  0
 49 64  1  0  0  0
 49121  1  0  0  0
 50 51  1  0  0  0
 50122  1  0  0  0
 50123  1  0  0  0
 51 52  1  0  0  0
 51124  1  0  0  0
 51125  1  0  0  0
 52126  1  0  0  0
 52127  1  0  0  0
 53 54  1  0  0  0
 54 55  2  0  0  0
 54128  1  0  0  0
 55 57  1  0  0  0
 55129  1  0  0  0
 56 69  2  0  0  0
 57 58  2  0  0  0
 57130  1  0  0  0
 58131  1  0  0  0
 59 60  1  0  0  0
 59 61  1  0  0  0
 59 62  1  0  0  0
 60132  1  0  0  0
 60133  1  0  0  0
 60134  1  0  0  0
 61135  1  0  0  0
 61136  1  0  0  0
 61137  1  0  0  0
 62138  1  0  0  0
 62139  1  0  0  0
 62140  1  0  0  0
 63 65  1  0  0  0
 63141  1  0  0  0
 63142  1  0  0  0
 63143  1  0  0  0
 64144  1  0  0  0
 65145  1  0  0  0
 68 80  1  0  0  0
 71 73  2  0  0  0
 71 75  1  0  0  0
 71146  1  0  0  0
 72 74  1  0  0  0
 72 75  2  0  0  0
 72147  1  0  0  0
 73 76  1  0  0  0
 73 82  1  0  0  0
 74 76  2  0  0  0
 74 83  1  0  0  0
 75 85  1  0  0  0
 76 86  1  0  0  0
 77 78  1  0  0  0
 77 80  1  0  0  0
 77148  1  0  0  0
 77149  1  0  0  0
 78 83  1  0  0  0
 78150  1  0  0  0
 78151  1  0  0  0
 79 80  1  0  0  0
 79 83  1  0  0  0
 79152  1  0  0  0
 79153  1  0  0  0
 80154  1  0  0  0
 81155  1  0  0  0
 81156  1  0  0  0
 81157  1  0  0  0
 81 82  1  0  0  0
 82 84  1  0  0  0
 82158  1  0  0  0
 84159  1  0  0  0
M  ISO  4   1 100  68 101  80 101  84 100
M  END
> <chiral flag>
0

> <version>
0

> <s_m_source_file>
/data/baiqing/PycharmProjects/Reinvent-master-3.2/result/LINK_invent/BTK/process_docking_weight1_custom_product_contain_oxygen_bond_distance_aromatic_linkinvent_7_9_3/rearranged_h_0027.sdf

> <i_m_source_file_index>
1

> <r_mmod_Potential_Energy-OPLS-2005>
285.866302490234

> <r_mmod_Stretch_Energy-OPLS-2005>
126.134414672852

> <r_mmod_Bend_Energy-OPLS-2005>
230.675201416016

> <r_mmod_Torsional_Energy-OPLS-2005>
267.127227783203

> <r_mmod_Improper_Torsional_Energy-OPLS-2005>
9.15606212615967

> <r_mmod_Van_der_Waal_Energy-OPLS-2005>
130.765274047852

> <r_mmod_Electrostatic_Energy-OPLS-2005>
-352.918426513672

> <r_mmod_Solvation_Energy-OPLS-2005>
-222.439636230469

> <b_mmod_Minimization_Converged-OPLS-2005>
0

> <r_mmod_RMS_Derivative-OPLS-2005>
3.41380643844604

$$$$
1
                    3D
 Structure written by MMmdl.
169179  0  0  1  0            999 V2000
  -30.4966  -14.9413   20.4118 C   0  0  0  0  0  0
  -30.4538  -12.5779   19.4935 C   0  0  0  0  0  0
  -29.5286  -12.5257   18.2541 C   0  0  0  0  0  0
  -28.0617  -12.3066   18.6753 C   0  0  0  0  0  0
  -27.6342  -13.2373   19.8399 C   0  0  2  0  0  0
  -28.6773  -13.2367   20.9781 C   0  0  0  0  0  0
  -25.2485  -13.8181   20.5695 C   0  0  0  0  0  0
  -24.1782  -13.0433   20.9208 C   0  0  0  0  0  0
  -24.6381  -11.6913   20.8745 C   0  0  0  0  0  0
  -23.9056  -10.4296   21.0416 C   0  0  0  0  0  0
  -24.3602   -9.4211   21.9200 C   0  0  0  0  0  0
  -23.6278   -8.2244   22.0765 C   0  0  0  0  0  0
  -22.4260   -8.0278   21.3553 C   0  0  0  0  0  0
  -21.9891   -9.0254   20.4664 C   0  0  0  0  0  0
  -22.7222  -10.2137   20.3072 C   0  0  0  0  0  0
  -21.6849   -6.0733   22.5281 C   0  0  0  0  0  0
  -21.4015   -6.5631   23.8213 C   0  0  0  0  0  0
  -21.3661   -5.6784   24.9174 C   0  0  0  0  0  0
  -21.6036   -4.3044   24.7224 C   0  0  0  0  0  0
  -21.8816   -3.8144   23.4345 C   0  0  0  0  0  0
  -21.9190   -4.6965   22.3409 C   0  0  0  0  0  0
  -22.7805  -13.5231   21.1859 C   0  0  0  0  0  0
  -22.1658   -4.2156   21.0984 F   0  0  0  0  0  0
  -21.5629   -3.4525   25.7737 F   0  0  0  0  0  0
  -29.9552  -13.6590   20.3863 N   0  0  0  0  0  0
  -26.2906  -12.9398   20.3237 N   0  0  0  0  0  0
  -25.9306  -11.6539   20.5716 N   0  0  0  0  0  0
  -22.0419  -12.8258   22.0425 N   0  0  0  0  0  0
  -25.4108  -15.1911   20.4141 N   0  0  0  0  0  0
  -31.6980  -15.0656   20.1416 O   0  0  0  0  0  0
  -21.6621   -6.8877   21.4246 O   0  0  0  0  0  0
  -22.3495  -14.5526   20.6693 O   0  0  0  0  0  0
  -24.6443  -31.8437   23.1884 C   0  0  0  0  0  0
  -25.9217  -32.4698   23.8263 C   0  0  1  0  0  0
  -27.2136  -27.1261   20.1433 C   0  0  0  0  0  0
  -25.5973  -33.8507   24.2190 N   0  0  0  0  0  0
  -23.4472  -30.4641   21.5345 C   0  0  2  0  0  0
  -24.8934  -28.8899   20.1077 C   0  0  0  0  0  0
  -22.7571  -29.4545   22.4855 C   0  0  0  0  0  0
  -18.0307  -28.1399   22.8480 C   0  0  0  0  0  0
  -24.1486  -36.7246   23.2641 C   0  0  0  0  0  0
  -26.0038  -30.7140   21.3879 C   0  0  0  0  0  0
  -26.0707  -29.3247   20.7285 C   0  0  0  0  0  0
  -27.2272  -28.4580   20.7298 C   0  0  0  0  0  0
  -26.0073  -26.7957   19.4850 C   0  0  0  0  0  0
  -24.8751  -27.6401   19.4712 C   0  0  0  0  0  0
  -23.6734  -29.7970   20.1515 C   0  0  0  0  0  0
  -25.4126  -36.3041   24.0313 C   0  0  1  0  0  0
  -20.5920  -28.3727   23.1238 C   0  0  2  0  0  0
  -20.6789  -26.9429   22.5410 C   0  0  0  0  0  0
  -19.5765  -26.6382   21.5214 C   0  0  0  0  0  0
  -18.1937  -26.7944   22.1612 C   0  0  0  0  0  0
  -19.1565  -28.8880   23.2852 C   0  0  0  0  0  0
  -18.9484  -30.1474   23.8883 C   0  0  0  0  0  0
  -17.6482  -30.6599   24.0553 C   0  0  0  0  0  0
  -25.9073  -34.9412   23.5053 C   0  0  0  0  0  0
  -16.5372  -29.9090   23.6336 C   0  0  0  0  0  0
  -16.7292  -28.6503   23.0367 C   0  0  0  0  0  0
  -26.4532  -31.6588   25.0723 C   0  0  0  0  0  0
  -25.3713  -31.3818   26.1431 C   0  0  0  0  0  0
  -27.0375  -30.2974   24.6318 C   0  0  0  0  0  0
  -27.6065  -32.4351   25.7502 C   0  0  0  0  0  0
  -27.5580  -37.1778   24.8462 C   0  0  0  0  0  0
  -21.4261  -29.3051   22.3610 N   0  0  0  0  0  0
  -26.4286  -37.3755   23.9408 N   0  0  0  0  0  0
  -24.7184  -31.0283   22.0928 N   0  0  0  0  0  0
  -23.4210  -28.8090   23.3006 O   0  0  0  0  0  0
  -28.2863  -26.1623   20.2384 O   0  0  0  0  0  0
  -26.5645  -34.8909   22.4626 O   0  0  0  0  0  0
  -23.5560  -32.1317   23.7104 O   0  0  0  0  0  0
  -30.6839  -18.5009   20.4179 C   0  0  0  0  0  0
  -28.1869  -19.7193   20.2655 C   0  0  0  0  0  0
  -30.5360  -19.9551   20.3479 C   0  0  0  0  0  0
  -29.2688  -20.6599   20.2403 C   0  0  0  0  0  0
  -29.5934  -17.5711   20.4206 C   0  0  0  0  0  0
  -28.3395  -18.2738   20.3512 C   0  0  0  0  0  0
  -32.4137  -23.6792   22.7688 C   0  0  0  0  0  0
  -31.8153  -22.6459   23.7347 C   0  0  0  0  0  0
  -29.4744  -24.3022   18.9390 C   0  0  0  0  0  0
  -29.5139  -22.7470   18.7872 C   0  0  0  0  0  0
  -28.3190  -23.2738   20.7248 C   0  0  0  0  0  0
  -32.6580  -22.9119   21.4675 C   0  0  0  0  0  0
  -31.5209  -21.4008   22.8839 C   0  0  0  0  0  0
  -28.2554  -24.6561   19.8094 C   0  0  1  0  0  0
  -31.8171  -20.7762   20.4683 C   0  0  0  0  0  0
  -29.1470  -22.1481   20.0731 N   0  0  0  0  0  0
  -29.6109  -16.0404   20.5404 N   0  0  0  0  0  0
  -31.6491  -21.8419   21.4805 N   0  3  0  0  0  0
  -27.2145  -17.5180   20.3596 F   0  0  0  0  0  0
  -31.4856  -12.7574   19.1849 H   0  0  0  0  0  0
  -30.4580  -11.6197   20.0156 H   0  0  0  0  0  0
  -29.8462  -11.7309   17.5771 H   0  0  0  0  0  0
  -29.6155  -13.4582   17.6943 H   0  0  0  0  0  0
  -27.9627  -11.2660   18.9881 H   0  0  0  0  0  0
  -27.3969  -12.4340   17.8207 H   0  0  0  0  0  0
  -27.6020  -14.2411   19.4166 H   0  0  0  0  0  0
  -28.7632  -12.2473   21.4303 H   0  0  0  0  0  0
  -28.3767  -13.9139   21.7785 H   0  0  0  0  0  0
  -25.2746   -9.5682   22.4777 H   0  0  0  0  0  0
  -23.9984   -7.4627   22.7479 H   0  0  0  0  0  0
  -21.0820   -8.8778   19.8970 H   0  0  0  0  0  0
  -22.3681  -10.9673   19.6178 H   0  0  0  0  0  0
  -21.2007   -7.6138   23.9718 H   0  0  0  0  0  0
  -21.1483   -6.0513   25.9076 H   0  0  0  0  0  0
  -22.0596   -2.7611   23.2839 H   0  0  0  0  0  0
  -22.3984  -11.9914   22.4846 H   0  0  0  0  0  0
  -21.1059  -13.1357   22.2626 H   0  0  0  0  0  0
  -24.6406  -15.8354   20.5481 H   0  0  0  0  0  0
  -26.2550  -15.6658   20.1180 H   0  0  0  0  0  0
  -26.7290  -32.5295   23.0991 H   0  0  0  0  0  0
  -25.0150  -33.9615   25.0360 H   0  0  0  0  0  0
  -22.7494  -31.2902   21.3828 H   0  0  0  0  0  0
  -23.3765  -35.9558   23.3285 H   0  0  0  0  0  0
  -24.3573  -36.8893   22.2058 H   0  0  0  0  0  0
  -23.7205  -37.6425   23.6684 H   0  0  0  0  0  0
  -26.1609  -31.4696   20.6167 H   0  0  0  0  0  0
  -26.8735  -30.7637   22.0315 H   0  0  0  0  0  0
  -28.1245  -28.7853   21.2353 H   0  0  0  0  0  0
  -25.8854  -25.8462   18.9907 H   0  0  0  0  0  0
  -23.9768  -27.3023   18.9728 H   0  0  0  0  0  0
  -23.8144  -30.5736   19.3978 H   0  0  0  0  0  0
  -22.7858  -29.2440   19.8375 H   0  0  0  0  0  0
  -25.1310  -36.1870   25.0802 H   0  0  0  0  0  0
  -21.0005  -28.3325   24.1364 H   0  0  0  0  0  0
  -20.5686  -26.2341   23.3632 H   0  0  0  0  0  0
  -21.6655  -26.7433   22.1214 H   0  0  0  0  0  0
  -19.6914  -25.6281   21.1272 H   0  0  0  0  0  0
  -19.6701  -27.3165   20.6721 H   0  0  0  0  0  0
  -17.4214  -26.6715   21.4001 H   0  0  0  0  0  0
  -18.0309  -26.0091   22.9009 H   0  0  0  0  0  0
  -19.7958  -30.7287   24.2251 H   0  0  0  0  0  0
  -17.5038  -31.6282   24.5141 H   0  0  0  0  0  0
  -15.5374  -30.2986   23.7660 H   0  0  0  0  0  0
  -15.8693  -28.0802   22.7113 H   0  0  0  0  0  0
  -24.5872  -30.7185   25.7772 H   0  0  0  0  0  0
  -24.8934  -32.3025   26.4794 H   0  0  0  0  0  0
  -25.7997  -30.9037   27.0252 H   0  0  0  0  0  0
  -26.2985  -29.6725   24.1304 H   0  0  0  0  0  0
  -27.3945  -29.7268   25.4899 H   0  0  0  0  0  0
  -27.8915  -30.4193   23.9654 H   0  0  0  0  0  0
  -27.2666  -33.3670   26.2033 H   0  0  0  0  0  0
  -28.3904  -32.6893   25.0355 H   0  0  0  0  0  0
  -28.0715  -31.8521   26.5464 H   0  0  0  0  0  0
  -28.2600  -38.0076   24.7519 H   0  0  0  0  0  0
  -28.1071  -36.2604   24.6272 H   0  0  0  0  0  0
  -27.2300  -37.1411   25.8868 H   0  0  0  0  0  0
  -20.9469  -29.8787   21.6812 H   0  0  0  0  0  0
  -26.0157  -38.2822   24.1432 H   0  0  0  0  0  0
  -31.6783  -18.0853   20.4967 H   0  0  0  0  0  0
  -27.1809  -20.1055   20.1977 H   0  0  0  0  0  0
  -33.3230  -24.1434   23.1515 H   0  0  0  0  0  0
  -31.6888  -24.4758   22.5955 H   0  0  0  0  0  0
  -30.9002  -23.0325   24.1850 H   0  0  0  0  0  0
  -32.5046  -22.4073   24.5449 H   0  0  0  0  0  0
  -29.4380  -24.8009   17.9693 H   0  0  0  0  0  0
  -30.3819  -24.6432   19.4374 H   0  0  0  0  0  0
  -30.4903  -22.4137   18.4375 H   0  0  0  0  0  0
  -28.7846  -22.4315   18.0389 H   0  0  0  0  0  0
  -27.3101  -22.9213   20.9402 H   0  0  0  0  0  0
  -28.7717  -23.5077   21.6886 H   0  0  0  0  0  0
  -33.6582  -22.4751   21.4720 H   0  0  0  0  0  0
  -32.5719  -23.5467   20.5854 H   0  0  0  0  0  0
  -30.5337  -20.9834   23.0871 H   0  0  0  0  0  0
  -32.2583  -20.6258   23.0990 H   0  0  0  0  0  0
  -27.4051  -24.5080   19.1506 H   0  0  0  0  0  0
  -32.0482  -21.2159   19.4990 H   0  0  0  0  0  0
  -32.6665  -20.1465   20.7320 H   0  0  0  0  0  0
  -28.6748  -15.6936   20.6870 H   0  0  0  0  0  0
  -30.7627  -22.2662   21.2248 H   0  0  0  0  0  0
  1 25  1  0  0  0
  1 30  2  0  0  0
  1 87  1  0  0  0
  2  3  1  0  0  0
  2 25  1  0  0  0
  2 90  1  0  0  0
  2 91  1  0  0  0
  3  4  1  0  0  0
  3 92  1  0  0  0
  3 93  1  0  0  0
  4  5  1  0  0  0
  4 94  1  0  0  0
  4 95  1  0  0  0
  5  6  1  0  0  0
  5 26  1  0  0  0
  5 96  1  0  0  0
  6 25  1  0  0  0
  6 97  1  0  0  0
  6 98  1  0  0  0
  7  8  2  0  0  0
  7 26  1  0  0  0
  7 29  1  0  0  0
  8  9  1  0  0  0
  8 22  1  0  0  0
  9 10  1  0  0  0
  9 27  2  0  0  0
 10 11  2  0  0  0
 10 15  1  0  0  0
 11 12  1  0  0  0
 11 99  1  0  0  0
 12 13  2  0  0  0
 12100  1  0  0  0
 13 14  1  0  0  0
 13 31  1  0  0  0
 14 15  2  0  0  0
 14101  1  0  0  0
 15102  1  0  0  0
 16 17  2  0  0  0
 16 21  1  0  0  0
 16 31  1  0  0  0
 17 18  1  0  0  0
 17103  1  0  0  0
 18 19  2  0  0  0
 18104  1  0  0  0
 19 20  1  0  0  0
 19 24  1  0  0  0
 20 21  2  0  0  0
 20105  1  0  0  0
 21 23  1  0  0  0
 22 28  1  0  0  0
 22 32  2  0  0  0
 26 27  1  0  0  0
 28106  1  0  0  0
 28107  1  0  0  0
 29108  1  0  0  0
 29109  1  0  0  0
 33 34  1  0  0  0
 33 66  1  0  0  0
 33 70  2  0  0  0
 34 36  1  0  0  0
 34 59  1  0  0  0
 34110  1  0  0  0
 35 44  2  0  0  0
 35 45  1  0  0  0
 35 68  1  0  0  0
 36 56  1  0  0  0
 36111  1  0  0  0
 37 39  1  0  0  0
 37 47  1  0  0  0
 37 66  1  0  0  0
 37112  1  0  0  0
 38 43  2  0  0  0
 38 46  1  0  0  0
 38 47  1  0  0  0
 39 64  1  0  0  0
 39 67  2  0  0  0
 40 52  1  0  0  0
 40 53  2  0  0  0
 40 58  1  0  0  0
 41113  1  0  0  0
 41114  1  0  0  0
 41115  1  0  0  0
 41 48  1  0  0  0
 42 43  1  0  0  0
 42 66  1  0  0  0
 42116  1  0  0  0
 42117  1  0  0  0
 43 44  1  0  0  0
 44118  1  0  0  0
 45 46  2  0  0  0
 45119  1  0  0  0
 46120  1  0  0  0
 47121  1  0  0  0
 47122  1  0  0  0
 48 56  1  0  0  0
 48 65  1  0  0  0
 48123  1  0  0  0
 49 50  1  0  0  0
 49 53  1  0  0  0
 49 64  1  0  0  0
 49124  1  0  0  0
 50 51  1  0  0  0
 50125  1  0  0  0
 50126  1  0  0  0
 51 52  1  0  0  0
 51127  1  0  0  0
 51128  1  0  0  0
 52129  1  0  0  0
 52130  1  0  0  0
 53 54  1  0  0  0
 54 55  2  0  0  0
 54131  1  0  0  0
 55 57  1  0  0  0
 55132  1  0  0  0
 56 69  2  0  0  0
 57 58  2  0  0  0
 57133  1  0  0  0
 58134  1  0  0  0
 59 60  1  0  0  0
 59 61  1  0  0  0
 59 62  1  0  0  0
 60135  1  0  0  0
 60136  1  0  0  0
 60137  1  0  0  0
 61138  1  0  0  0
 61139  1  0  0  0
 61140  1  0  0  0
 62141  1  0  0  0
 62142  1  0  0  0
 62143  1  0  0  0
 63 65  1  0  0  0
 63144  1  0  0  0
 63145  1  0  0  0
 63146  1  0  0  0
 64147  1  0  0  0
 65148  1  0  0  0
 68 84  1  0  0  0
 71 73  2  0  0  0
 71 75  1  0  0  0
 71149  1  0  0  0
 72 74  2  0  0  0
 72 76  1  0  0  0
 72150  1  0  0  0
 73 74  1  0  0  0
 73 85  1  0  0  0
 74 86  1  0  0  0
 75 76  2  0  0  0
 75 87  1  0  0  0
 76 89  1  0  0  0
 77 78  1  0  0  0
 77 82  1  0  0  0
 77151  1  0  0  0
 77152  1  0  0  0
 78 83  1  0  0  0
 78153  1  0  0  0
 78154  1  0  0  0
 79 80  1  0  0  0
 79 84  1  0  0  0
 79155  1  0  0  0
 79156  1  0  0  0
 80 86  1  0  0  0
 80157  1  0  0  0
 80158  1  0  0  0
 81 84  1  0  0  0
 81 86  1  0  0  0
 81159  1  0  0  0
 81160  1  0  0  0
 82 88  1  0  0  0
 82161  1  0  0  0
 82162  1  0  0  0
 83 88  1  0  0  0
 83163  1  0  0  0
 83164  1  0  0  0
 84165  1  0  0  0
 85166  1  0  0  0
 85167  1  0  0  0
 85 88  1  0  0  0
 87168  1  0  0  0
 88169  1  0  0  0
M  CHG  1  88   1
M  ISO  4   1 100  68 101  84 101  87 100
M  END
> <chiral flag>
0

> <version>
0

> <s_m_source_file>
/data/baiqing/PycharmProjects/Reinvent-master-3.2/result/LINK_invent/BTK/process_docking_weight1_custom_product_contain_oxygen_bond_distance_aromatic_linkinvent_7_9_3/rearranged_h_0027.sdf

> <i_m_source_file_index>
2

> <r_mmod_Potential_Energy-OPLS-2005>
459.415130615234

> <r_mmod_Stretch_Energy-OPLS-2005>
221.858917236328

> <r_mmod_Bend_Energy-OPLS-2005>
346.551544189453

> <r_mmod_Torsional_Energy-OPLS-2005>
343.814117431641

> <r_mmod_Improper_Torsional_Energy-OPLS-2005>
6.18106460571289

> <r_mmod_Van_der_Waal_Energy-OPLS-2005>
123.535446166992

> <r_mmod_Electrostatic_Energy-OPLS-2005>
-359.556732177734

> <r_mmod_Solvation_Energy-OPLS-2005>
-416.970062255859

> <b_mmod_Minimization_Converged-OPLS-2005>
0

> <r_mmod_RMS_Derivative-OPLS-2005>
1.94732689857483

$$$$
2
                    3D
 Structure written by MMmdl.
170179  0  0  1  0            999 V2000
  -30.6552  -14.6113   20.4275 C   0  0  0  0  0  0
  -30.4232  -12.3492   19.4511 C   0  0  0  0  0  0
  -29.4947  -12.4238   18.2198 C   0  0  0  0  0  0
  -28.0171  -12.2906   18.6439 C   0  0  0  0  0  0
  -27.6358  -13.1872   19.8511 C   0  0  2  0  0  0
  -28.6921  -13.1131   20.9766 C   0  0  0  0  0  0
  -25.2532  -13.8066   20.5714 C   0  0  0  0  0  0
  -24.1785  -13.0381   20.9235 C   0  0  0  0  0  0
  -24.6327  -11.6846   20.8794 C   0  0  0  0  0  0
  -23.9001  -10.4262   21.0447 C   0  0  0  0  0  0
  -24.3588   -9.4164   21.9195 C   0  0  0  0  0  0
  -23.6279   -8.2198   22.0744 C   0  0  0  0  0  0
  -22.4248   -8.0258   21.3540 C   0  0  0  0  0  0
  -21.9889   -9.0219   20.4634 C   0  0  0  0  0  0
  -22.7199  -10.2104   20.3072 C   0  0  0  0  0  0
  -21.6848   -6.0736   22.5295 C   0  0  0  0  0  0
  -21.4003   -6.5645   23.8229 C   0  0  0  0  0  0
  -21.3641   -5.6798   24.9195 C   0  0  0  0  0  0
  -21.6046   -4.3066   24.7241 C   0  0  0  0  0  0
  -21.8812   -3.8161   23.4363 C   0  0  0  0  0  0
  -21.9183   -4.6970   22.3421 C   0  0  0  0  0  0
  -22.7826  -13.5206   21.1907 C   0  0  0  0  0  0
  -22.1644   -4.2166   21.0989 F   0  0  0  0  0  0
  -21.5650   -3.4530   25.7744 F   0  0  0  0  0  0
  -30.0028  -13.4092   20.3813 N   0  0  0  0  0  0
  -26.2904  -12.9170   20.3343 N   0  0  0  0  0  0
  -25.9231  -11.6358   20.5811 N   0  0  0  0  0  0
  -22.0495  -12.8194   22.0469 N   0  0  0  0  0  0
  -25.4290  -15.1788   20.4136 N   0  0  0  0  0  0
  -31.8652  -14.7061   20.2083 O   0  0  0  0  0  0
  -21.6626   -6.8846   21.4235 O   0  0  0  0  0  0
  -22.3502  -14.5512   20.6750 O   0  0  0  0  0  0
  -24.6186  -31.8642   23.2048 C   0  0  0  0  0  0
  -25.9060  -32.4802   23.8368 C   0  0  1  0  0  0
  -27.2450  -27.3990   20.0890 C   0  0  0  0  0  0
  -25.5915  -33.8600   24.2309 N   0  0  0  0  0  0
  -23.4088  -30.4852   21.5451 C   0  0  2  0  0  0
  -24.8554  -28.9414   20.1155 C   0  0  0  0  0  0
  -22.7424  -29.4637   22.4953 C   0  0  0  0  0  0
  -18.0279  -28.1396   22.8474 C   0  0  0  0  0  0
  -24.1501  -36.7314   23.2634 C   0  0  0  0  0  0
  -25.9389  -30.8176   21.3622 C   0  0  0  0  0  0
  -26.0163  -29.4486   20.7094 C   0  0  0  0  0  0
  -27.2078  -28.6834   20.6916 C   0  0  0  0  0  0
  -26.0587  -26.9099   19.4943 C   0  0  0  0  0  0
  -24.8732  -27.6733   19.5083 C   0  0  0  0  0  0
  -23.6200  -29.8123   20.1628 C   0  0  0  0  0  0
  -25.4121  -36.3094   24.0327 C   0  0  1  0  0  0
  -20.5866  -28.3689   23.1301 C   0  0  2  0  0  0
  -20.6765  -26.9422   22.5407 C   0  0  0  0  0  0
  -19.5745  -26.6396   21.5205 C   0  0  0  0  0  0
  -18.1921  -26.7932   22.1615 C   0  0  0  0  0  0
  -19.1528  -28.8851   23.2891 C   0  0  0  0  0  0
  -18.9448  -30.1445   23.8925 C   0  0  0  0  0  0
  -17.6454  -30.6592   24.0575 C   0  0  0  0  0  0
  -25.9049  -34.9461   23.5117 C   0  0  0  0  0  0
  -16.5346  -29.9101   23.6328 C   0  0  0  0  0  0
  -16.7264  -28.6519   23.0336 C   0  0  0  0  0  0
  -26.4479  -31.6597   25.0714 C   0  0  0  0  0  0
  -25.3728  -31.3693   26.1452 C   0  0  0  0  0  0
  -27.0324  -30.3046   24.6101 C   0  0  0  0  0  0
  -27.6074  -32.4299   25.7459 C   0  0  0  0  0  0
  -27.5586  -37.1798   24.8450 C   0  0  0  0  0  0
  -21.4144  -29.3052   22.3697 N   0  0  0  0  0  0
  -26.4297  -37.3784   23.9401 N   0  0  0  0  0  0
  -24.6741  -31.0715   22.0959 N   0  0  0  0  0  0
  -23.4161  -28.8185   23.3020 O   0  0  0  0  0  0
  -28.4440  -26.7003   20.1008 O   0  0  0  0  0  0
  -26.5599  -34.8908   22.4669 O   0  0  0  0  0  0
  -23.5368  -32.1391   23.7428 O   0  0  0  0  0  0
  -31.5526  -18.4613   19.9709 C   0  0  0  0  0  0
  -31.8281  -19.6692   19.3107 C   0  0  0  0  0  0
  -30.3733  -18.2969   20.7178 C   0  0  0  0  0  0
  -30.9436  -20.7753   19.3677 C   0  0  0  0  0  0
  -29.7809  -20.6784   20.2000 C   0  0  0  0  0  0
  -29.5011  -19.4258   20.8465 C   0  0  0  0  0  0
  -32.3106  -23.3089   17.0206 C   0  0  0  0  0  0
  -30.9011  -23.0599   16.4843 C   0  0  0  0  0  0
  -32.5180  -22.1363   17.9689 C   0  0  0  0  0  0
  -30.1767  -22.3262   17.6204 C   0  0  0  0  0  0
  -29.2069  -16.1399   19.1903 C   0  0  0  0  0  0
  -30.1124  -16.8983   21.3548 C   0  0  0  0  0  0
  -28.3834  -24.2738   20.8164 C   0  0  0  0  0  0
  -29.3852  -23.0630   20.8749 C   0  0  0  0  0  0
  -28.5691  -25.3188   19.6710 C   0  0  0  0  0  0
  -31.2089  -21.9196   18.5735 N   0  0  0  0  0  0
  -28.8729  -21.7657   20.3814 N   0  0  0  0  0  0
  -29.8721  -15.7370   20.4438 N   0  0  0  0  0  0
  -28.0556  -19.2890   21.7920 Cl  0  0  0  0  0  0
  -31.4672  -12.4511   19.1495 H   0  0  0  0  0  0
  -30.3415  -11.3725   19.9312 H   0  0  0  0  0  0
  -29.7479  -11.6270   17.5188 H   0  0  0  0  0  0
  -29.6495  -13.3542   17.6764 H   0  0  0  0  0  0
  -27.8526  -11.2448   18.9038 H   0  0  0  0  0  0
  -27.3594  -12.4935   17.7986 H   0  0  0  0  0  0
  -27.6035  -14.1988   19.4708 H   0  0  0  0  0  0
  -28.6994  -12.1269   21.4428 H   0  0  0  0  0  0
  -28.4556  -13.8256   21.7698 H   0  0  0  0  0  0
  -25.2728   -9.5657   22.4769 H   0  0  0  0  0  0
  -24.0012   -7.4580   22.7433 H   0  0  0  0  0  0
  -21.0852   -8.8716   19.8912 H   0  0  0  0  0  0
  -22.3652  -10.9655   19.6211 H   0  0  0  0  0  0
  -21.1972   -7.6152   23.9737 H   0  0  0  0  0  0
  -21.1473   -6.0534   25.9100 H   0  0  0  0  0  0
  -22.0601   -2.7626   23.2858 H   0  0  0  0  0  0
  -22.4155  -11.9844   22.4809 H   0  0  0  0  0  0
  -21.1101  -13.1170   22.2667 H   0  0  0  0  0  0
  -24.6706  -15.8396   20.5394 H   0  0  0  0  0  0
  -26.3018  -15.6169   20.1489 H   0  0  0  0  0  0
  -26.7128  -32.5507   23.1125 H   0  0  0  0  0  0
  -25.0074  -33.9758   25.0455 H   0  0  0  0  0  0
  -22.7016  -31.3041   21.3990 H   0  0  0  0  0  0
  -23.3759  -35.9653   23.3290 H   0  0  0  0  0  0
  -24.3595  -36.8943   22.2050 H   0  0  0  0  0  0
  -23.7252  -37.6513   23.6661 H   0  0  0  0  0  0
  -26.0489  -31.5810   20.5921 H   0  0  0  0  0  0
  -26.8269  -30.8756   21.9806 H   0  0  0  0  0  0
  -28.1097  -29.0721   21.1445 H   0  0  0  0  0  0
  -26.0272  -25.9460   19.0105 H   0  0  0  0  0  0
  -23.9793  -27.2796   19.0456 H   0  0  0  0  0  0
  -23.7288  -30.5818   19.3974 H   0  0  0  0  0  0
  -22.7440  -29.2309   19.8698 H   0  0  0  0  0  0
  -25.1296  -36.1956   25.0818 H   0  0  0  0  0  0
  -20.9960  -28.3257   24.1422 H   0  0  0  0  0  0
  -20.5659  -26.2298   23.3591 H   0  0  0  0  0  0
  -21.6633  -26.7450   22.1210 H   0  0  0  0  0  0
  -19.6917  -25.6304   21.1234 H   0  0  0  0  0  0
  -19.6708  -27.3196   20.6724 H   0  0  0  0  0  0
  -17.4191  -26.6679   21.4017 H   0  0  0  0  0  0
  -18.0347  -26.0079   22.9020 H   0  0  0  0  0  0
  -19.7925  -30.7249   24.2326 H   0  0  0  0  0  0
  -17.5009  -31.6267   24.5167 H   0  0  0  0  0  0
  -15.5342  -30.3013   23.7628 H   0  0  0  0  0  0
  -15.8669  -28.0848   22.7041 H   0  0  0  0  0  0
  -24.5898  -30.7064   25.7740 H   0  0  0  0  0  0
  -24.8926  -32.2853   26.4916 H   0  0  0  0  0  0
  -25.8059  -30.8812   27.0200 H   0  0  0  0  0  0
  -26.2872  -29.6781   24.1191 H   0  0  0  0  0  0
  -27.4136  -29.7308   25.4560 H   0  0  0  0  0  0
  -27.8685  -30.4371   23.9230 H   0  0  0  0  0  0
  -27.2732  -33.3594   26.2084 H   0  0  0  0  0  0
  -28.3858  -32.6869   25.0255 H   0  0  0  0  0  0
  -28.0791  -31.8393   26.5329 H   0  0  0  0  0  0
  -28.2575  -38.0119   24.7530 H   0  0  0  0  0  0
  -28.1111  -36.2652   24.6245 H   0  0  0  0  0  0
  -27.2308  -37.1404   25.8850 H   0  0  0  0  0  0
  -20.9302  -29.8798   21.6938 H   0  0  0  0  0  0
  -26.0193  -38.2858   24.1419 H   0  0  0  0  0  0
  -32.2467  -17.6392   19.8690 H   0  0  0  0  0  0
  -32.7317  -19.6951   18.7231 H   0  0  0  0  0  0
  -32.3484  -24.2472   17.5756 H   0  0  0  0  0  0
  -33.0625  -23.3497   16.2315 H   0  0  0  0  0  0
  -30.9487  -22.4151   15.6051 H   0  0  0  0  0  0
  -30.3997  -23.9838   16.1910 H   0  0  0  0  0  0
  -33.2868  -22.3447   18.7157 H   0  0  0  0  0  0
  -32.8276  -21.2701   17.3828 H   0  0  0  0  0  0
  -29.6176  -21.4668   17.2448 H   0  0  0  0  0  0
  -29.4619  -22.9980   18.0946 H   0  0  0  0  0  0
  -28.1948  -16.4945   19.3854 H   0  0  0  0  0  0
  -29.1406  -15.3329   18.4653 H   0  0  0  0  0  0
  -29.7380  -16.9314   18.6663 H   0  0  0  0  0  0
  -30.9659  -16.6769   21.9992 H   0  0  0  0  0  0
  -29.2637  -16.9495   22.0350 H   0  0  0  0  0  0
  -28.5370  -24.8289   21.7420 H   0  0  0  0  0  0
  -27.3460  -23.9419   20.8628 H   0  0  0  0  0  0
  -29.6277  -22.9000   21.9262 H   0  0  0  0  0  0
  -30.3338  -23.3428   20.4191 H   0  0  0  0  0  0
  -27.9566  -25.0779   18.8026 H   0  0  0  0  0  0
  -29.5927  -25.2343   19.3069 H   0  0  0  0  0  0
  -28.0609  -21.4493   20.9036 H   0  0  0  0  0  0
  1 25  1  0  0  0
  1 30  2  0  0  0
  1 88  1  0  0  0
  2  3  1  0  0  0
  2 25  1  0  0  0
  2 90  1  0  0  0
  2 91  1  0  0  0
  3  4  1  0  0  0
  3 92  1  0  0  0
  3 93  1  0  0  0
  4  5  1  0  0  0
  4 94  1  0  0  0
  4 95  1  0  0  0
  5  6  1  0  0  0
  5 26  1  0  0  0
  5 96  1  0  0  0
  6 25  1  0  0  0
  6 97  1  0  0  0
  6 98  1  0  0  0
  7  8  2  0  0  0
  7 26  1  0  0  0
  7 29  1  0  0  0
  8  9  1  0  0  0
  8 22  1  0  0  0
  9 10  1  0  0  0
  9 27  2  0  0  0
 10 11  2  0  0  0
 10 15  1  0  0  0
 11 12  1  0  0  0
 11 99  1  0  0  0
 12 13  2  0  0  0
 12100  1  0  0  0
 13 14  1  0  0  0
 13 31  1  0  0  0
 14 15  2  0  0  0
 14101  1  0  0  0
 15102  1  0  0  0
 16 17  2  0  0  0
 16 21  1  0  0  0
 16 31  1  0  0  0
 17 18  1  0  0  0
 17103  1  0  0  0
 18 19  2  0  0  0
 18104  1  0  0  0
 19 20  1  0  0  0
 19 24  1  0  0  0
 20 21  2  0  0  0
 20105  1  0  0  0
 21 23  1  0  0  0
 22 28  1  0  0  0
 22 32  2  0  0  0
 26 27  1  0  0  0
 28106  1  0  0  0
 28107  1  0  0  0
 29108  1  0  0  0
 29109  1  0  0  0
 33 34  1  0  0  0
 33 66  1  0  0  0
 33 70  2  0  0  0
 34 36  1  0  0  0
 34 59  1  0  0  0
 34110  1  0  0  0
 35 44  2  0  0  0
 35 45  1  0  0  0
 35 68  1  0  0  0
 36 56  1  0  0  0
 36111  1  0  0  0
 37 39  1  0  0  0
 37 47  1  0  0  0
 37 66  1  0  0  0
 37112  1  0  0  0
 38 43  2  0  0  0
 38 46  1  0  0  0
 38 47  1  0  0  0
 39 64  1  0  0  0
 39 67  2  0  0  0
 40 52  1  0  0  0
 40 53  2  0  0  0
 40 58  1  0  0  0
 41113  1  0  0  0
 41114  1  0  0  0
 41115  1  0  0  0
 41 48  1  0  0  0
 42 43  1  0  0  0
 42 66  1  0  0  0
 42116  1  0  0  0
 42117  1  0  0  0
 43 44  1  0  0  0
 44118  1  0  0  0
 45 46  2  0  0  0
 45119  1  0  0  0
 46120  1  0  0  0
 47121  1  0  0  0
 47122  1  0  0  0
 48 56  1  0  0  0
 48 65  1  0  0  0
 48123  1  0  0  0
 49 50  1  0  0  0
 49 53  1  0  0  0
 49 64  1  0  0  0
 49124  1  0  0  0
 50 51  1  0  0  0
 50125  1  0  0  0
 50126  1  0  0  0
 51 52  1  0  0  0
 51127  1  0  0  0
 51128  1  0  0  0
 52129  1  0  0  0
 52130  1  0  0  0
 53 54  1  0  0  0
 54 55  2  0  0  0
 54131  1  0  0  0
 55 57  1  0  0  0
 55132  1  0  0  0
 56 69  2  0  0  0
 57 58  2  0  0  0
 57133  1  0  0  0
 58134  1  0  0  0
 59 60  1  0  0  0
 59 61  1  0  0  0
 59 62  1  0  0  0
 60135  1  0  0  0
 60136  1  0  0  0
 60137  1  0  0  0
 61138  1  0  0  0
 61139  1  0  0  0
 61140  1  0  0  0
 62141  1  0  0  0
 62142  1  0  0  0
 62143  1  0  0  0
 63 65  1  0  0  0
 63144  1  0  0  0
 63145  1  0  0  0
 63146  1  0  0  0
 64147  1  0  0  0
 65148  1  0  0  0
 68 85  1  0  0  0
 71 72  2  0  0  0
 71 73  1  0  0  0
 71149  1  0  0  0
 72 74  1  0  0  0
 72150  1  0  0  0
 73 76  2  0  0  0
 73 82  1  0  0  0
 74 75  2  0  0  0
 74 86  1  0  0  0
 75 76  1  0  0  0
 75 87  1  0  0  0
 76 89  1  0  0  0
 77 78  1  0  0  0
 77 79  1  0  0  0
 77151  1  0  0  0
 77152  1  0  0  0
 78 80  1  0  0  0
 78153  1  0  0  0
 78154  1  0  0  0
 79 86  1  0  0  0
 79155  1  0  0  0
 79156  1  0  0  0
 80 86  1  0  0  0
 80157  1  0  0  0
 80158  1  0  0  0
 81 88  1  0  0  0
 81159  1  0  0  0
 81160  1  0  0  0
 81161  1  0  0  0
 82 88  1  0  0  0
 82162  1  0  0  0
 82163  1  0  0  0
 83 84  1  0  0  0
 83 85  1  0  0  0
 83164  1  0  0  0
 83165  1  0  0  0
 84 87  1  0  0  0
 84166  1  0  0  0
 84167  1  0  0  0
 85168  1  0  0  0
 85169  1  0  0  0
 87170  1  0  0  0
M  ISO  4   1 100  68 101  85 101  88 100
M  END
> <chiral flag>
0

> <version>
0

> <s_m_source_file>
/data/baiqing/PycharmProjects/Reinvent-master-3.2/result/LINK_invent/BTK/process_docking_weight1_custom_product_contain_oxygen_bond_distance_aromatic_linkinvent_7_9_3/rearranged_h_0027.sdf

> <i_m_source_file_index>
3

> <r_mmod_Potential_Energy-OPLS-2005>
329.854187011719

> <r_mmod_Stretch_Energy-OPLS-2005>
60.8474998474121

> <r_mmod_Bend_Energy-OPLS-2005>
167.276351928711

> <r_mmod_Torsional_Energy-OPLS-2005>
369.519409179688

> <r_mmod_Improper_Torsional_Energy-OPLS-2005>
16.9101543426514

> <r_mmod_Van_der_Waal_Energy-OPLS-2005>
158.14778137207

> <r_mmod_Electrostatic_Energy-OPLS-2005>
-273.312255859375

> <r_mmod_Solvation_Energy-OPLS-2005>
-207.892135620117

> <b_mmod_Minimization_Converged-OPLS-2005>
0

> <r_mmod_RMS_Derivative-OPLS-2005>
2.59719395637512

$$$$
3
                    3D
 Structure written by MMmdl.
157166  0  0  1  0            999 V2000
  -30.5681  -14.9061   20.3479 C   0  0  0  0  0  0
  -30.4472  -12.5412   19.4761 C   0  0  0  0  0  0
  -29.5165  -12.4298   18.2469 C   0  0  0  0  0  0
  -28.0427  -12.2691   18.6766 C   0  0  0  0  0  0
  -27.6228  -13.2140   19.8339 C   0  0  2  0  0  0
  -28.6827  -13.2785   20.9519 C   0  0  0  0  0  0
  -25.2501  -13.8120   20.5800 C   0  0  0  0  0  0
  -24.1764  -13.0395   20.9269 C   0  0  0  0  0  0
  -24.6338  -11.6870   20.8812 C   0  0  0  0  0  0
  -23.9012  -10.4267   21.0451 C   0  0  0  0  0  0
  -24.3573   -9.4179   21.9218 C   0  0  0  0  0  0
  -23.6263   -8.2208   22.0761 C   0  0  0  0  0  0
  -22.4252   -8.0254   21.3539 C   0  0  0  0  0  0
  -21.9880   -9.0230   20.4645 C   0  0  0  0  0  0
  -22.7197  -10.2118   20.3081 C   0  0  0  0  0  0
  -21.6841   -6.0722   22.5279 C   0  0  0  0  0  0
  -21.4000   -6.5637   23.8210 C   0  0  0  0  0  0
  -21.3662   -5.6797   24.9178 C   0  0  0  0  0  0
  -21.6041   -4.3060   24.7236 C   0  0  0  0  0  0
  -21.8814   -3.8143   23.4363 C   0  0  0  0  0  0
  -21.9185   -4.6950   22.3411 C   0  0  0  0  0  0
  -22.7794  -13.5205   21.1910 C   0  0  0  0  0  0
  -22.1660   -4.2128   21.0992 F   0  0  0  0  0  0
  -21.5628   -3.4554   25.7759 F   0  0  0  0  0  0
  -29.9539  -13.6590   20.3186 N   0  0  0  0  0  0
  -26.2870  -12.9263   20.3339 N   0  0  0  0  0  0
  -25.9259  -11.6440   20.5830 N   0  0  0  0  0  0
  -22.0422  -12.8196   22.0456 N   0  0  0  0  0  0
  -25.4247  -15.1846   20.4289 N   0  0  0  0  0  0
  -31.8008  -14.9446   20.2869 O   0  0  0  0  0  0
  -21.6624   -6.8849   21.4236 O   0  0  0  0  0  0
  -22.3503  -14.5518   20.6751 O   0  0  0  0  0  0
  -24.6375  -31.8495   23.1925 C   0  0  0  0  0  0
  -25.9171  -32.4726   23.8298 C   0  0  1  0  0  0
  -27.2208  -27.1964   20.1485 C   0  0  0  0  0  0
  -25.5937  -33.8530   24.2217 N   0  0  0  0  0  0
  -23.4393  -30.4684   21.5378 C   0  0  2  0  0  0
  -24.8909  -28.9044   20.1114 C   0  0  0  0  0  0
  -22.7539  -29.4564   22.4893 C   0  0  0  0  0  0
  -18.0295  -28.1377   22.8483 C   0  0  0  0  0  0
  -24.1493  -36.7269   23.2641 C   0  0  0  0  0  0
  -25.9907  -30.7420   21.3837 C   0  0  0  0  0  0
  -26.0659  -29.3577   20.7275 C   0  0  0  0  0  0
  -27.2369  -28.5192   20.7300 C   0  0  0  0  0  0
  -26.0250  -26.8290   19.4974 C   0  0  0  0  0  0
  -24.8798  -27.6511   19.4808 C   0  0  0  0  0  0
  -23.6635  -29.7984   20.1559 C   0  0  0  0  0  0
  -25.4122  -36.3052   24.0318 C   0  0  1  0  0  0
  -20.5901  -28.3715   23.1252 C   0  0  2  0  0  0
  -20.6794  -26.9418   22.5404 C   0  0  0  0  0  0
  -19.5762  -26.6356   21.5222 C   0  0  0  0  0  0
  -18.1942  -26.7916   22.1628 C   0  0  0  0  0  0
  -19.1543  -28.8867   23.2859 C   0  0  0  0  0  0
  -18.9444  -30.1470   23.8878 C   0  0  0  0  0  0
  -17.6433  -30.6582   24.0552 C   0  0  0  0  0  0
  -25.9065  -34.9426   23.5073 C   0  0  0  0  0  0
  -16.5337  -29.9058   23.6322 C   0  0  0  0  0  0
  -16.7273  -28.6478   23.0343 C   0  0  0  0  0  0
  -26.4515  -31.6572   25.0715 C   0  0  0  0  0  0
  -25.3710  -31.3741   26.1413 C   0  0  0  0  0  0
  -27.0368  -30.2976   24.6251 C   0  0  0  0  0  0
  -27.6056  -32.4325   25.7498 C   0  0  0  0  0  0
  -27.5577  -37.1790   24.8465 C   0  0  0  0  0  0
  -21.4236  -29.3055   22.3638 N   0  0  0  0  0  0
  -26.4290  -37.3755   23.9409 N   0  0  0  0  0  0
  -24.7087  -31.0395   22.0939 N   0  0  0  0  0  0
  -23.4205  -28.8112   23.3022 O   0  0  0  0  0  0
  -28.2718  -26.2292   20.1638 O   0  0  0  0  0  0
  -26.5652  -34.8911   22.4654 O   0  0  0  0  0  0
  -23.5506  -32.1347   23.7173 O   0  0  0  0  0  0
  -27.9477  -21.0776   19.5614 C   0  0  0  0  0  0
  -27.6833  -22.4878   19.6872 C   0  0  0  0  0  0
  -29.6496  -22.7165   20.9794 C   0  0  0  0  0  0
  -29.0657  -20.3886   20.1362 C   0  0  0  0  0  0
  -28.5112  -23.3928   20.4126 C   0  0  0  0  0  0
  -29.9274  -21.2916   20.8437 C   0  0  0  0  0  0
  -29.7357  -17.1753   17.8712 C   0  0  0  0  0  0
  -29.6512  -18.6377   18.3438 C   0  0  0  0  0  0
  -29.0966  -16.1631   18.8436 C   0  0  0  0  0  0
  -29.9860  -17.5648   20.6541 C   0  0  0  0  0  0
  -29.2382  -18.7902   19.8183 C   0  0  1  0  0  0
  -27.9863  -24.8830   20.8254 C   0  0  0  0  0  0
  -29.8013  -16.0904   20.1400 N   0  0  0  0  0  0
  -31.0447  -20.7950   21.4253 F   0  0  0  0  0  0
  -31.4755  -12.7034   19.1487 H   0  0  0  0  0  0
  -30.4548  -11.6109   20.0456 H   0  0  0  0  0  0
  -29.8097  -11.5705   17.6431 H   0  0  0  0  0  0
  -29.6373  -13.2907   17.5918 H   0  0  0  0  0  0
  -27.9222  -11.2347   18.9996 H   0  0  0  0  0  0
  -27.3785  -12.3942   17.8209 H   0  0  0  0  0  0
  -27.5450  -14.1970   19.3906 H   0  0  0  0  0  0
  -28.7706  -12.3235   21.4723 H   0  0  0  0  0  0
  -28.3994  -14.0209   21.7002 H   0  0  0  0  0  0
  -25.2711   -9.5658   22.4803 H   0  0  0  0  0  0
  -23.9969   -7.4594   22.7480 H   0  0  0  0  0  0
  -21.0810   -8.8749   19.8951 H   0  0  0  0  0  0
  -22.3654  -10.9666   19.6202 H   0  0  0  0  0  0
  -21.1991   -7.6146   23.9699 H   0  0  0  0  0  0
  -21.1493   -6.0542   25.9074 H   0  0  0  0  0  0
  -22.0591   -2.7603   23.2880 H   0  0  0  0  0  0
  -22.4037  -11.9848   22.4819 H   0  0  0  0  0  0
  -21.1049  -13.1235   22.2691 H   0  0  0  0  0  0
  -24.6679  -15.8463   20.5628 H   0  0  0  0  0  0
  -26.2958  -15.6246   20.1628 H   0  0  0  0  0  0
  -26.7237  -32.5359   23.1034 H   0  0  0  0  0  0
  -25.0051  -33.9655   25.0340 H   0  0  0  0  0  0
  -22.7385  -31.2922   21.3860 H   0  0  0  0  0  0
  -23.3756  -35.9597   23.3298 H   0  0  0  0  0  0
  -24.3575  -36.8904   22.2054 H   0  0  0  0  0  0
  -23.7246  -37.6464   23.6678 H   0  0  0  0  0  0
  -26.1367  -31.4978   20.6108 H   0  0  0  0  0  0
  -26.8650  -30.7942   22.0209 H   0  0  0  0  0  0
  -28.1344  -28.8605   21.2271 H   0  0  0  0  0  0
  -25.9650  -25.8654   19.0114 H   0  0  0  0  0  0
  -23.9847  -27.3013   18.9846 H   0  0  0  0  0  0
  -23.7907  -30.5729   19.3984 H   0  0  0  0  0  0
  -22.7819  -29.2326   19.8506 H   0  0  0  0  0  0
  -25.1308  -36.1884   25.0807 H   0  0  0  0  0  0
  -20.9983  -28.3287   24.1379 H   0  0  0  0  0  0
  -20.5716  -26.2312   23.3609 H   0  0  0  0  0  0
  -21.6659  -26.7458   22.1188 H   0  0  0  0  0  0
  -19.6924  -25.6264   21.1269 H   0  0  0  0  0  0
  -19.6688  -27.3146   20.6740 H   0  0  0  0  0  0
  -17.4213  -26.6666   21.4031 H   0  0  0  0  0  0
  -18.0326  -26.0068   22.9027 H   0  0  0  0  0  0
  -19.7908  -30.7313   24.2229 H   0  0  0  0  0  0
  -17.4964  -31.6260   24.5149 H   0  0  0  0  0  0
  -15.5326  -30.2934   23.7649 H   0  0  0  0  0  0
  -15.8685  -28.0777   22.7050 H   0  0  0  0  0  0
  -24.5896  -30.7086   25.7727 H   0  0  0  0  0  0
  -24.8888  -32.2915   26.4800 H   0  0  0  0  0  0
  -25.7992  -30.8937   27.0218 H   0  0  0  0  0  0
  -26.2967  -29.6716   24.1252 H   0  0  0  0  0  0
  -27.3997  -29.7255   25.4802 H   0  0  0  0  0  0
  -27.8872  -30.4232   23.9544 H   0  0  0  0  0  0
  -27.2656  -33.3634   26.2047 H   0  0  0  0  0  0
  -28.3878  -32.6870   25.0335 H   0  0  0  0  0  0
  -28.0712  -31.8471   26.5436 H   0  0  0  0  0  0
  -28.2591  -38.0091   24.7507 H   0  0  0  0  0  0
  -28.1077  -36.2618   24.6299 H   0  0  0  0  0  0
  -27.2293  -37.1447   25.8869 H   0  0  0  0  0  0
  -20.9449  -29.8737   21.6790 H   0  0  0  0  0  0
  -26.0163  -38.2825   24.1407 H   0  0  0  0  0  0
  -27.2380  -20.4943   18.9912 H   0  0  0  0  0  0
  -26.7716  -22.8691   19.2476 H   0  0  0  0  0  0
  -30.3249  -23.2982   21.5902 H   0  0  0  0  0  0
  -30.7810  -16.9046   17.7132 H   0  0  0  0  0  0
  -29.2630  -17.0892   16.8912 H   0  0  0  0  0  0
  -28.9370  -19.1675   17.7125 H   0  0  0  0  0  0
  -30.6124  -19.1267   18.1765 H   0  0  0  0  0  0
  -28.0441  -16.3956   19.0065 H   0  0  0  0  0  0
  -29.1074  -15.2124   18.3199 H   0  0  0  0  0  0
  -29.6431  -17.5872   21.6882 H   0  0  0  0  0  0
  -31.0556  -17.7713   20.6906 H   0  0  0  0  0  0
  -28.1924  -18.4856   19.8704 H   0  0  0  0  0  0
  -28.3133  -25.0163   21.8569 H   0  0  0  0  0  0
  -26.9050  -24.7741   20.9188 H   0  0  0  0  0  0
  1 25  1  0  0  0
  1 30  2  0  0  0
  1 83  1  0  0  0
  2  3  1  0  0  0
  2 25  1  0  0  0
  2 85  1  0  0  0
  2 86  1  0  0  0
  3  4  1  0  0  0
  3 87  1  0  0  0
  3 88  1  0  0  0
  4  5  1  0  0  0
  4 89  1  0  0  0
  4 90  1  0  0  0
  5  6  1  0  0  0
  5 26  1  0  0  0
  5 91  1  0  0  0
  6 25  1  0  0  0
  6 92  1  0  0  0
  6 93  1  0  0  0
  7  8  2  0  0  0
  7 26  1  0  0  0
  7 29  1  0  0  0
  8  9  1  0  0  0
  8 22  1  0  0  0
  9 10  1  0  0  0
  9 27  2  0  0  0
 10 11  2  0  0  0
 10 15  1  0  0  0
 11 12  1  0  0  0
 11 94  1  0  0  0
 12 13  2  0  0  0
 12 95  1  0  0  0
 13 14  1  0  0  0
 13 31  1  0  0  0
 14 15  2  0  0  0
 14 96  1  0  0  0
 15 97  1  0  0  0
 16 17  2  0  0  0
 16 21  1  0  0  0
 16 31  1  0  0  0
 17 18  1  0  0  0
 17 98  1  0  0  0
 18 19  2  0  0  0
 18 99  1  0  0  0
 19 20  1  0  0  0
 19 24  1  0  0  0
 20 21  2  0  0  0
 20100  1  0  0  0
 21 23  1  0  0  0
 22 28  1  0  0  0
 22 32  2  0  0  0
 26 27  1  0  0  0
 28101  1  0  0  0
 28102  1  0  0  0
 29103  1  0  0  0
 29104  1  0  0  0
 33 34  1  0  0  0
 33 66  1  0  0  0
 33 70  2  0  0  0
 34 36  1  0  0  0
 34 59  1  0  0  0
 34105  1  0  0  0
 35 44  2  0  0  0
 35 45  1  0  0  0
 35 68  1  0  0  0
 36 56  1  0  0  0
 36106  1  0  0  0
 37 39  1  0  0  0
 37 47  1  0  0  0
 37 66  1  0  0  0
 37107  1  0  0  0
 38 43  2  0  0  0
 38 46  1  0  0  0
 38 47  1  0  0  0
 39 64  1  0  0  0
 39 67  2  0  0  0
 40 52  1  0  0  0
 40 53  2  0  0  0
 40 58  1  0  0  0
 41108  1  0  0  0
 41109  1  0  0  0
 41110  1  0  0  0
 41 48  1  0  0  0
 42 43  1  0  0  0
 42 66  1  0  0  0
 42111  1  0  0  0
 42112  1  0  0  0
 43 44  1  0  0  0
 44113  1  0  0  0
 45 46  2  0  0  0
 45114  1  0  0  0
 46115  1  0  0  0
 47116  1  0  0  0
 47117  1  0  0  0
 48 56  1  0  0  0
 48 65  1  0  0  0
 48118  1  0  0  0
 49 50  1  0  0  0
 49 53  1  0  0  0
 49 64  1  0  0  0
 49119  1  0  0  0
 50 51  1  0  0  0
 50120  1  0  0  0
 50121  1  0  0  0
 51 52  1  0  0  0
 51122  1  0  0  0
 51123  1  0  0  0
 52124  1  0  0  0
 52125  1  0  0  0
 53 54  1  0  0  0
 54 55  2  0  0  0
 54126  1  0  0  0
 55 57  1  0  0  0
 55127  1  0  0  0
 56 69  2  0  0  0
 57 58  2  0  0  0
 57128  1  0  0  0
 58129  1  0  0  0
 59 60  1  0  0  0
 59 61  1  0  0  0
 59 62  1  0  0  0
 60130  1  0  0  0
 60131  1  0  0  0
 60132  1  0  0  0
 61133  1  0  0  0
 61134  1  0  0  0
 61135  1  0  0  0
 62136  1  0  0  0
 62137  1  0  0  0
 62138  1  0  0  0
 63 65  1  0  0  0
 63139  1  0  0  0
 63140  1  0  0  0
 63141  1  0  0  0
 64142  1  0  0  0
 65143  1  0  0  0
 68 82  1  0  0  0
 71 72  2  0  0  0
 71 74  1  0  0  0
 71144  1  0  0  0
 72 75  1  0  0  0
 72145  1  0  0  0
 73 75  2  0  0  0
 73 76  1  0  0  0
 73146  1  0  0  0
 74 76  2  0  0  0
 74 81  1  0  0  0
 75 82  1  0  0  0
 76 84  1  0  0  0
 77 78  1  0  0  0
 77 79  1  0  0  0
 77147  1  0  0  0
 77148  1  0  0  0
 78 81  1  0  0  0
 78149  1  0  0  0
 78150  1  0  0  0
 79 83  1  0  0  0
 79151  1  0  0  0
 79152  1  0  0  0
 80 81  1  0  0  0
 80 83  1  0  0  0
 80153  1  0  0  0
 80154  1  0  0  0
 81155  1  0  0  0
 82156  1  0  0  0
 82157  1  0  0  0
M  ISO  4   1 100  68 101  82 101  83 100
M  END
> <chiral flag>
0

> <version>
0

> <s_m_source_file>
/data/baiqing/PycharmProjects/Reinvent-master-3.2/result/LINK_invent/BTK/process_docking_weight1_custom_product_contain_oxygen_bond_distance_aromatic_linkinvent_7_9_3/rearranged_h_0027.sdf

> <i_m_source_file_index>
4

> <r_mmod_Potential_Energy-OPLS-2005>
672.987243652344

> <r_mmod_Stretch_Energy-OPLS-2005>
190.904830932617

> <r_mmod_Bend_Energy-OPLS-2005>
249.877288818359

> <r_mmod_Torsional_Energy-OPLS-2005>
384.212005615234

> <r_mmod_Improper_Torsional_Energy-OPLS-2005>
11.9791526794434

> <r_mmod_Van_der_Waal_Energy-OPLS-2005>
144.133972167969

> <r_mmod_Electrostatic_Energy-OPLS-2005>
-281.401428222656

> <r_mmod_Solvation_Energy-OPLS-2005>
-192.984954833984

> <b_mmod_Minimization_Converged-OPLS-2005>
0

> <r_mmod_RMS_Derivative-OPLS-2005>
1.45617187023163

$$$$
4
                    3D
 Structure written by MMmdl.
156165  0  0  1  0            999 V2000
  -30.4953  -14.9456   20.4200 C   0  0  0  0  0  0
  -30.4501  -12.5811   19.5018 C   0  0  0  0  0  0
  -29.5267  -12.5348   18.2602 C   0  0  0  0  0  0
  -28.0591  -12.3171   18.6761 C   0  0  0  0  0  0
  -27.6364  -13.2406   19.8487 C   0  0  2  0  0  0
  -28.6771  -13.2354   20.9891 C   0  0  0  0  0  0
  -25.2496  -13.8204   20.5707 C   0  0  0  0  0  0
  -24.1797  -13.0438   20.9216 C   0  0  0  0  0  0
  -24.6399  -11.6919   20.8754 C   0  0  0  0  0  0
  -23.9076  -10.4293   21.0410 C   0  0  0  0  0  0
  -24.3626   -9.4207   21.9187 C   0  0  0  0  0  0
  -23.6296   -8.2246   22.0758 C   0  0  0  0  0  0
  -22.4278   -8.0285   21.3547 C   0  0  0  0  0  0
  -21.9915   -9.0258   20.4648 C   0  0  0  0  0  0
  -22.7250  -10.2135   20.3058 C   0  0  0  0  0  0
  -21.6854   -6.0739   22.5278 C   0  0  0  0  0  0
  -21.4013   -6.5642   23.8211 C   0  0  0  0  0  0
  -21.3659   -5.6791   24.9171 C   0  0  0  0  0  0
  -21.6042   -4.3055   24.7219 C   0  0  0  0  0  0
  -21.8819   -3.8148   23.4342 C   0  0  0  0  0  0
  -21.9191   -4.6966   22.3401 C   0  0  0  0  0  0
  -22.7817  -13.5217   21.1867 C   0  0  0  0  0  0
  -22.1659   -4.2153   21.0979 F   0  0  0  0  0  0
  -21.5628   -3.4536   25.7731 F   0  0  0  0  0  0
  -29.9571  -13.6595   20.4054 N   0  0  0  0  0  0
  -26.2916  -12.9417   20.3270 N   0  0  0  0  0  0
  -25.9330  -11.6553   20.5748 N   0  0  0  0  0  0
  -22.0459  -12.8214   22.0423 N   0  0  0  0  0  0
  -25.4181  -15.1930   20.4123 N   0  0  0  0  0  0
  -31.6763  -15.0742   20.0759 O   0  0  0  0  0  0
  -21.6642   -6.8883   21.4242 O   0  0  0  0  0  0
  -22.3508  -14.5527   20.6716 O   0  0  0  0  0  0
  -24.6416  -31.8410   23.1831 C   0  0  0  0  0  0
  -25.9186  -32.4679   23.8226 C   0  0  1  0  0  0
  -27.2277  -27.1319   20.1569 C   0  0  0  0  0  0
  -25.5939  -33.8486   24.2154 N   0  0  0  0  0  0
  -23.4458  -30.4557   21.5278 C   0  0  2  0  0  0
  -24.8955  -28.8696   20.1086 C   0  0  0  0  0  0
  -22.7559  -29.4529   22.4855 C   0  0  0  0  0  0
  -18.0305  -28.1392   22.8482 C   0  0  0  0  0  0
  -24.1492  -36.7246   23.2647 C   0  0  0  0  0  0
  -25.9976  -30.7141   21.3780 C   0  0  0  0  0  0
  -26.0677  -29.3217   20.7248 C   0  0  0  0  0  0
  -27.2290  -28.4673   20.7290 C   0  0  0  0  0  0
  -26.0302  -26.7681   19.5094 C   0  0  0  0  0  0
  -24.8893  -27.6079   19.4864 C   0  0  0  0  0  0
  -23.6712  -29.7728   20.1495 C   0  0  0  0  0  0
  -25.4127  -36.3024   24.0316 C   0  0  1  0  0  0
  -20.5918  -28.3716   23.1243 C   0  0  2  0  0  0
  -20.6793  -26.9419   22.5408 C   0  0  0  0  0  0
  -19.5771  -26.6378   21.5213 C   0  0  0  0  0  0
  -18.1948  -26.7937   22.1615 C   0  0  0  0  0  0
  -19.1563  -28.8870   23.2858 C   0  0  0  0  0  0
  -18.9480  -30.1467   23.8883 C   0  0  0  0  0  0
  -17.6480  -30.6592   24.0559 C   0  0  0  0  0  0
  -25.9074  -34.9401   23.5049 C   0  0  0  0  0  0
  -16.5367  -29.9089   23.6334 C   0  0  0  0  0  0
  -16.7289  -28.6503   23.0357 C   0  0  0  0  0  0
  -26.4519  -31.6559   25.0672 C   0  0  0  0  0  0
  -25.3710  -31.3744   26.1372 C   0  0  0  0  0  0
  -27.0394  -30.2970   24.6229 C   0  0  0  0  0  0
  -27.6052  -32.4329   25.7456 C   0  0  0  0  0  0
  -27.5577  -37.1777   24.8471 C   0  0  0  0  0  0
  -21.4251  -29.3038   22.3612 N   0  0  0  0  0  0
  -26.4289  -37.3740   23.9415 N   0  0  0  0  0  0
  -24.7149  -31.0262   22.0854 N   0  0  0  0  0  0
  -23.4205  -28.8095   23.3018 O   0  0  0  0  0  0
  -28.3431  -26.2286   20.2554 O   0  0  0  0  0  0
  -26.5667  -34.8910   22.4633 O   0  0  0  0  0  0
  -23.5536  -32.1283   23.7060 O   0  0  0  0  0  0
  -29.8403  -19.7978   19.2943 C   0  0  0  0  0  0
  -30.0883  -18.3682   19.4583 C   0  0  0  0  0  0
  -28.6399  -19.8562   21.3068 C   0  0  0  0  0  0
  -28.8498  -18.4173   21.4646 C   0  0  0  0  0  0
  -29.0973  -20.6447   20.1985 C   0  0  0  0  0  0
  -29.5933  -17.5788   20.5497 C   0  0  0  0  0  0
  -28.1920  -24.0818   18.5715 C   0  0  0  0  0  0
  -28.8215  -22.6366   18.5822 C   0  0  0  0  0  0
  -28.4674  -23.3219   20.8151 C   0  0  0  0  0  0
  -28.5405  -24.7079   19.9292 C   0  0  2  0  0  0
  -28.2195  -17.7504   22.6756 C   0  0  0  0  0  0
  -28.8218  -22.0987   19.9532 N   0  0  0  0  0  0
  -29.6452  -16.0467   20.7113 N   0  0  0  0  0  0
  -31.4823  -12.7533   19.1928 H   0  0  0  0  0  0
  -30.4521  -11.6202   20.0184 H   0  0  0  0  0  0
  -29.8452  -11.7426   17.5813 H   0  0  0  0  0  0
  -29.6144  -13.4694   17.7033 H   0  0  0  0  0  0
  -27.9553  -11.2740   18.9766 H   0  0  0  0  0  0
  -27.3949  -12.4541   17.8220 H   0  0  0  0  0  0
  -27.6097  -14.2493   19.4358 H   0  0  0  0  0  0
  -28.7614  -12.2448   21.4385 H   0  0  0  0  0  0
  -28.3736  -13.9082   21.7926 H   0  0  0  0  0  0
  -25.2769   -9.5681   22.4766 H   0  0  0  0  0  0
  -23.9998   -7.4637   22.7482 H   0  0  0  0  0  0
  -21.0845   -8.8782   19.8954 H   0  0  0  0  0  0
  -22.3711  -10.9676   19.6170 H   0  0  0  0  0  0
  -21.2010   -7.6150   23.9717 H   0  0  0  0  0  0
  -21.1478   -6.0521   25.9074 H   0  0  0  0  0  0
  -22.0599   -2.7608   23.2837 H   0  0  0  0  0  0
  -22.4066  -11.9869   22.4805 H   0  0  0  0  0  0
  -21.1081  -13.1252   22.2627 H   0  0  0  0  0  0
  -24.6434  -15.8401   20.5111 H   0  0  0  0  0  0
  -26.2527  -15.6310   20.0448 H   0  0  0  0  0  0
  -26.7245  -32.5282   23.0947 H   0  0  0  0  0  0
  -25.0085  -33.9595   25.0302 H   0  0  0  0  0  0
  -22.7494  -31.2816   21.3675 H   0  0  0  0  0  0
  -23.3770  -35.9562   23.3282 H   0  0  0  0  0  0
  -24.3577  -36.8896   22.2066 H   0  0  0  0  0  0
  -23.7222  -37.6425   23.6699 H   0  0  0  0  0  0
  -26.1489  -31.4651   20.6016 H   0  0  0  0  0  0
  -26.8708  -30.7696   22.0166 H   0  0  0  0  0  0
  -28.1260  -28.8098   21.2255 H   0  0  0  0  0  0
  -25.9513  -25.7984   19.0435 H   0  0  0  0  0  0
  -23.9906  -27.2558   18.9988 H   0  0  0  0  0  0
  -23.8059  -30.5410   19.3876 H   0  0  0  0  0  0
  -22.7865  -29.2114   19.8433 H   0  0  0  0  0  0
  -25.1315  -36.1844   25.0807 H   0  0  0  0  0  0
  -21.0006  -28.3298   24.1366 H   0  0  0  0  0  0
  -20.5688  -26.2324   23.3625 H   0  0  0  0  0  0
  -21.6657  -26.7426   22.1199 H   0  0  0  0  0  0
  -19.6935  -25.6285   21.1249 H   0  0  0  0  0  0
  -19.6711  -27.3187   20.6746 H   0  0  0  0  0  0
  -17.4220  -26.6689   21.4014 H   0  0  0  0  0  0
  -18.0336  -26.0079   22.9008 H   0  0  0  0  0  0
  -19.7958  -30.7286   24.2241 H   0  0  0  0  0  0
  -17.5035  -31.6273   24.5162 H   0  0  0  0  0  0
  -15.5371  -30.2987   23.7674 H   0  0  0  0  0  0
  -15.8687  -28.0819   22.7084 H   0  0  0  0  0  0
  -24.5899  -30.7084   25.7685 H   0  0  0  0  0  0
  -24.8898  -32.2927   26.4745 H   0  0  0  0  0  0
  -25.7997  -30.8944   27.0178 H   0  0  0  0  0  0
  -26.2998  -29.6682   24.1259 H   0  0  0  0  0  0
  -27.4067  -29.7270   25.4771 H   0  0  0  0  0  0
  -27.8872  -30.4235   23.9495 H   0  0  0  0  0  0
  -27.2656  -33.3671   26.1939 H   0  0  0  0  0  0
  -28.3911  -32.6810   25.0310 H   0  0  0  0  0  0
  -28.0664  -31.8508   26.5442 H   0  0  0  0  0  0
  -28.2578  -38.0090   24.7518 H   0  0  0  0  0  0
  -28.1082  -36.2612   24.6290 H   0  0  0  0  0  0
  -27.2292  -37.1406   25.8873 H   0  0  0  0  0  0
  -20.9470  -29.8732   21.6770 H   0  0  0  0  0  0
  -26.0148  -38.2803   24.1428 H   0  0  0  0  0  0
  -30.2509  -20.2536   18.4053 H   0  0  0  0  0  0
  -30.6448  -17.8655   18.6797 H   0  0  0  0  0  0
  -28.0563  -20.3679   22.0593 H   0  0  0  0  0  0
  -27.1109  -24.0028   18.4646 H   0  0  0  0  0  0
  -28.5631  -24.6735   17.7340 H   0  0  0  0  0  0
  -29.8533  -22.6842   18.2298 H   0  0  0  0  0  0
  -28.2815  -21.9758   17.9022 H   0  0  0  0  0  0
  -27.4608  -23.1911   21.2148 H   0  0  0  0  0  0
  -29.1412  -23.3821   21.6710 H   0  0  0  0  0  0
  -29.6249  -24.7966   19.8436 H   0  0  0  0  0  0
  -27.7896  -18.4787   23.3636 H   0  0  0  0  0  0
  -28.9648  -17.1750   23.2260 H   0  0  0  0  0  0
  -27.4219  -17.0744   22.3658 H   0  0  0  0  0  0
  -28.7978  -15.6932   21.1280 H   0  0  0  0  0  0
  1 25  1  0  0  0
  1 30  2  0  0  0
  1 83  1  0  0  0
  2  3  1  0  0  0
  2 25  1  0  0  0
  2 84  1  0  0  0
  2 85  1  0  0  0
  3  4  1  0  0  0
  3 86  1  0  0  0
  3 87  1  0  0  0
  4  5  1  0  0  0
  4 88  1  0  0  0
  4 89  1  0  0  0
  5  6  1  0  0  0
  5 26  1  0  0  0
  5 90  1  0  0  0
  6 25  1  0  0  0
  6 91  1  0  0  0
  6 92  1  0  0  0
  7  8  2  0  0  0
  7 26  1  0  0  0
  7 29  1  0  0  0
  8  9  1  0  0  0
  8 22  1  0  0  0
  9 10  1  0  0  0
  9 27  2  0  0  0
 10 11  2  0  0  0
 10 15  1  0  0  0
 11 12  1  0  0  0
 11 93  1  0  0  0
 12 13  2  0  0  0
 12 94  1  0  0  0
 13 14  1  0  0  0
 13 31  1  0  0  0
 14 15  2  0  0  0
 14 95  1  0  0  0
 15 96  1  0  0  0
 16 17  2  0  0  0
 16 21  1  0  0  0
 16 31  1  0  0  0
 17 18  1  0  0  0
 17 97  1  0  0  0
 18 19  2  0  0  0
 18 98  1  0  0  0
 19 20  1  0  0  0
 19 24  1  0  0  0
 20 21  2  0  0  0
 20 99  1  0  0  0
 21 23  1  0  0  0
 22 28  1  0  0  0
 22 32  2  0  0  0
 26 27  1  0  0  0
 28100  1  0  0  0
 28101  1  0  0  0
 29102  1  0  0  0
 29103  1  0  0  0
 33 34  1  0  0  0
 33 66  1  0  0  0
 33 70  2  0  0  0
 34 36  1  0  0  0
 34 59  1  0  0  0
 34104  1  0  0  0
 35 44  2  0  0  0
 35 45  1  0  0  0
 35 68  1  0  0  0
 36 56  1  0  0  0
 36105  1  0  0  0
 37 39  1  0  0  0
 37 47  1  0  0  0
 37 66  1  0  0  0
 37106  1  0  0  0
 38 43  2  0  0  0
 38 46  1  0  0  0
 38 47  1  0  0  0
 39 64  1  0  0  0
 39 67  2  0  0  0
 40 52  1  0  0  0
 40 53  2  0  0  0
 40 58  1  0  0  0
 41107  1  0  0  0
 41108  1  0  0  0
 41109  1  0  0  0
 41 48  1  0  0  0
 42 43  1  0  0  0
 42 66  1  0  0  0
 42110  1  0  0  0
 42111  1  0  0  0
 43 44  1  0  0  0
 44112  1  0  0  0
 45 46  2  0  0  0
 45113  1  0  0  0
 46114  1  0  0  0
 47115  1  0  0  0
 47116  1  0  0  0
 48 56  1  0  0  0
 48 65  1  0  0  0
 48117  1  0  0  0
 49 50  1  0  0  0
 49 53  1  0  0  0
 49 64  1  0  0  0
 49118  1  0  0  0
 50 51  1  0  0  0
 50119  1  0  0  0
 50120  1  0  0  0
 51 52  1  0  0  0
 51121  1  0  0  0
 51122  1  0  0  0
 52123  1  0  0  0
 52124  1  0  0  0
 53 54  1  0  0  0
 54 55  2  0  0  0
 54125  1  0  0  0
 55 57  1  0  0  0
 55126  1  0  0  0
 56 69  2  0  0  0
 57 58  2  0  0  0
 57127  1  0  0  0
 58128  1  0  0  0
 59 60  1  0  0  0
 59 61  1  0  0  0
 59 62  1  0  0  0
 60129  1  0  0  0
 60130  1  0  0  0
 60131  1  0  0  0
 61132  1  0  0  0
 61133  1  0  0  0
 61134  1  0  0  0
 62135  1  0  0  0
 62136  1  0  0  0
 62137  1  0  0  0
 63 65  1  0  0  0
 63138  1  0  0  0
 63139  1  0  0  0
 63140  1  0  0  0
 64141  1  0  0  0
 65142  1  0  0  0
 68 80  1  0  0  0
 71 72  2  0  0  0
 71 75  1  0  0  0
 71143  1  0  0  0
 72 76  1  0  0  0
 72144  1  0  0  0
 73 74  1  0  0  0
 73 75  2  0  0  0
 73145  1  0  0  0
 74 76  2  0  0  0
 74 81  1  0  0  0
 75 82  1  0  0  0
 76 83  1  0  0  0
 77 78  1  0  0  0
 77 80  1  0  0  0
 77146  1  0  0  0
 77147  1  0  0  0
 78 82  1  0  0  0
 78148  1  0  0  0
 78149  1  0  0  0
 79 80  1  0  0  0
 79 82  1  0  0  0
 79150  1  0  0  0
 79151  1  0  0  0
 80152  1  0  0  0
 81153  1  0  0  0
 81154  1  0  0  0
 81155  1  0  0  0
 83156  1  0  0  0
M  ISO  4   1 100  68 101  80 101  83 100
M  END
> <chiral flag>
0

> <version>
0

> <s_m_source_file>
/data/baiqing/PycharmProjects/Reinvent-master-3.2/result/LINK_invent/BTK/process_docking_weight1_custom_product_contain_oxygen_bond_distance_aromatic_linkinvent_7_9_3/rearranged_h_0027.sdf

> <i_m_source_file_index>
5

> <r_mmod_Potential_Energy-OPLS-2005>
546.148986816406

> <r_mmod_Stretch_Energy-OPLS-2005>
220.203201293945

> <r_mmod_Bend_Energy-OPLS-2005>
379.645416259766

> <r_mmod_Torsional_Energy-OPLS-2005>
256.977783203125

> <r_mmod_Improper_Torsional_Energy-OPLS-2005>
3.73414301872253

> <r_mmod_Van_der_Waal_Energy-OPLS-2005>
123.569465637207

> <r_mmod_Electrostatic_Energy-OPLS-2005>
-395.857116699219

> <r_mmod_Solvation_Energy-OPLS-2005>
-229.239166259766

> <b_mmod_Minimization_Converged-OPLS-2005>
0

> <r_mmod_RMS_Derivative-OPLS-2005>
0.8934046626091

$$$$
5
                    3D
 Structure written by MMmdl.
159168  0  0  1  0            999 V2000
  -30.6247  -14.6368   20.5373 C   0  0  0  0  0  0
  -30.4448  -12.3973   19.4548 C   0  0  0  0  0  0
  -29.5126  -12.5196   18.2284 C   0  0  0  0  0  0
  -28.0344  -12.3579   18.6349 C   0  0  0  0  0  0
  -27.6588  -13.2165   19.8723 C   0  0  2  0  0  0
  -28.7031  -13.0519   20.9998 C   0  0  0  0  0  0
  -25.2574  -13.8177   20.5666 C   0  0  0  0  0  0
  -24.1840  -13.0447   20.9187 C   0  0  0  0  0  0
  -24.6414  -11.6916   20.8757 C   0  0  0  0  0  0
  -23.9070  -10.4302   21.0421 C   0  0  0  0  0  0
  -24.3624   -9.4207   21.9195 C   0  0  0  0  0  0
  -23.6292   -8.2244   22.0764 C   0  0  0  0  0  0
  -22.4269   -8.0290   21.3547 C   0  0  0  0  0  0
  -21.9905   -9.0272   20.4654 C   0  0  0  0  0  0
  -22.7249  -10.2145   20.3067 C   0  0  0  0  0  0
  -21.6853   -6.0738   22.5275 C   0  0  0  0  0  0
  -21.4022   -6.5639   23.8216 C   0  0  0  0  0  0
  -21.3657   -5.6787   24.9174 C   0  0  0  0  0  0
  -21.6034   -4.3049   24.7221 C   0  0  0  0  0  0
  -21.8820   -3.8144   23.4347 C   0  0  0  0  0  0
  -21.9190   -4.6962   22.3398 C   0  0  0  0  0  0
  -22.7861  -13.5250   21.1838 C   0  0  0  0  0  0
  -22.1655   -4.2148   21.0976 F   0  0  0  0  0  0
  -21.5617   -3.4530   25.7733 F   0  0  0  0  0  0
  -30.0211  -13.4077   20.4470 N   0  0  0  0  0  0
  -26.3019  -12.9355   20.3347 N   0  0  0  0  0  0
  -25.9346  -11.6514   20.5781 N   0  0  0  0  0  0
  -22.0473  -12.8266   22.0387 N   0  0  0  0  0  0
  -25.4271  -15.1894   20.4053 N   0  0  0  0  0  0
  -31.7655  -14.8213   20.1001 O   0  0  0  0  0  0
  -21.6637   -6.8885   21.4241 O   0  0  0  0  0  0
  -22.3551  -14.5555   20.6678 O   0  0  0  0  0  0
  -24.6242  -31.8590   23.2036 C   0  0  0  0  0  0
  -25.9086  -32.4776   23.8367 C   0  0  1  0  0  0
  -27.2274  -27.3218   20.1365 C   0  0  0  0  0  0
  -25.5903  -33.8577   24.2297 N   0  0  0  0  0  0
  -23.4202  -30.4803   21.5446 C   0  0  2  0  0  0
  -24.8708  -28.9369   20.1120 C   0  0  0  0  0  0
  -22.7482  -29.4599   22.4937 C   0  0  0  0  0  0
  -18.0291  -28.1378   22.8484 C   0  0  0  0  0  0
  -24.1486  -36.7300   23.2643 C   0  0  0  0  0  0
  -25.9599  -30.7934   21.3733 C   0  0  0  0  0  0
  -26.0379  -29.4201   20.7187 C   0  0  0  0  0  0
  -27.2216  -28.6244   20.7206 C   0  0  0  0  0  0
  -26.0461  -26.8973   19.4890 C   0  0  0  0  0  0
  -24.8772  -27.6814   19.4844 C   0  0  0  0  0  0
  -23.6368  -29.8140   20.1601 C   0  0  0  0  0  0
  -25.4104  -36.3081   24.0336 C   0  0  1  0  0  0
  -20.5891  -28.3677   23.1283 C   0  0  2  0  0  0
  -20.6783  -26.9404   22.5408 C   0  0  0  0  0  0
  -19.5759  -26.6371   21.5213 C   0  0  0  0  0  0
  -18.1936  -26.7924   22.1617 C   0  0  0  0  0  0
  -19.1544  -28.8846   23.2878 C   0  0  0  0  0  0
  -18.9466  -30.1449   23.8900 C   0  0  0  0  0  0
  -17.6463  -30.6575   24.0562 C   0  0  0  0  0  0
  -25.9025  -34.9448   23.5115 C   0  0  0  0  0  0
  -16.5353  -29.9075   23.6326 C   0  0  0  0  0  0
  -16.7278  -28.6490   23.0352 C   0  0  0  0  0  0
  -26.4482  -31.6581   25.0727 C   0  0  0  0  0  0
  -25.3731  -31.3725   26.1470 C   0  0  0  0  0  0
  -27.0321  -30.3013   24.6161 C   0  0  0  0  0  0
  -27.6058  -32.4311   25.7470 C   0  0  0  0  0  0
  -27.5568  -37.1812   24.8466 C   0  0  0  0  0  0
  -21.4196  -29.3027   22.3678 N   0  0  0  0  0  0
  -26.4295  -37.3760   23.9386 N   0  0  0  0  0  0
  -24.6865  -31.0607   22.0978 N   0  0  0  0  0  0
  -23.4203  -28.8138   23.3016 O   0  0  0  0  0  0
  -28.3310  -26.4583   20.1809 O   0  0  0  0  0  0
  -26.5597  -34.8905   22.4681 O   0  0  0  0  0  0
  -23.5404  -32.1381   23.7364 O   0  0  0  0  0  0
  -30.7860  -19.2972   20.1808 C   0  0  0  0  0  0
  -30.8615  -17.8736   20.2792 C   0  0  0  0  0  0
  -28.6753  -19.2889   21.3116 C   0  0  0  0  0  0
  -28.7543  -17.8663   21.4483 C   0  0  0  0  0  0
  -29.6883  -20.0527   20.6780 C   0  0  0  0  0  0
  -29.8441  -17.1102   20.9118 C   0  0  0  0  0  0
  -30.3862  -23.7742   20.8369 C   0  0  0  0  0  0
  -30.8477  -22.3064   20.6481 C   0  0  0  0  0  0
  -28.4634  -22.3934   20.5846 C   0  0  0  0  0  0
  -28.9723  -23.8521   20.2404 C   0  0  1  0  0  0
  -27.6384  -17.1786   22.2248 C   0  0  0  0  0  0
  -28.0840  -25.0928   20.7089 C   0  0  0  0  0  0
  -29.6392  -21.4899   20.5621 N   0  0  0  0  0  0
  -29.8420  -15.6472   21.0359 N   0  0  0  0  0  0
  -31.4856  -12.5271   19.1526 H   0  0  0  0  0  0
  -30.3829  -11.3976   19.8880 H   0  0  0  0  0  0
  -29.7748  -11.7721   17.4781 H   0  0  0  0  0  0
  -29.6584  -13.4933   17.7556 H   0  0  0  0  0  0
  -27.8647  -11.3025   18.8535 H   0  0  0  0  0  0
  -27.3849  -12.6048   17.7943 H   0  0  0  0  0  0
  -27.6823  -14.2568   19.5466 H   0  0  0  0  0  0
  -28.7156  -12.0215   21.3592 H   0  0  0  0  0  0
  -28.4443  -13.6592   21.8677 H   0  0  0  0  0  0
  -25.2787   -9.5669   22.4759 H   0  0  0  0  0  0
  -23.9992   -7.4633   22.7488 H   0  0  0  0  0  0
  -21.0831   -8.8820   19.8964 H   0  0  0  0  0  0
  -22.3739  -10.9692   19.6166 H   0  0  0  0  0  0
  -21.2029   -7.6148   23.9722 H   0  0  0  0  0  0
  -21.1469   -6.0515   25.9076 H   0  0  0  0  0  0
  -22.0602   -2.7601   23.2851 H   0  0  0  0  0  0
  -22.4073  -11.9937   22.4806 H   0  0  0  0  0  0
  -21.1091  -13.1319   22.2562 H   0  0  0  0  0  0
  -24.6653  -15.8474   20.5323 H   0  0  0  0  0  0
  -26.2744  -15.6268   20.0685 H   0  0  0  0  0  0
  -26.7153  -32.5457   23.1116 H   0  0  0  0  0  0
  -25.0065  -33.9727   25.0455 H   0  0  0  0  0  0
  -22.7130  -31.2993   21.3999 H   0  0  0  0  0  0
  -23.3716  -35.9669   23.3350 H   0  0  0  0  0  0
  -24.3578  -36.8868   22.2050 H   0  0  0  0  0  0
  -23.7284  -37.6537   23.6629 H   0  0  0  0  0  0
  -26.0870  -31.5562   20.6035 H   0  0  0  0  0  0
  -26.8414  -30.8474   22.0008 H   0  0  0  0  0  0
  -28.1158  -28.9882   21.2075 H   0  0  0  0  0  0
  -26.0157  -25.9396   18.9896 H   0  0  0  0  0  0
  -23.9867  -27.3093   18.9967 H   0  0  0  0  0  0
  -23.7523  -30.5888   19.4014 H   0  0  0  0  0  0
  -22.7598  -29.2382   19.8602 H   0  0  0  0  0  0
  -25.1289  -36.1951   25.0834 H   0  0  0  0  0  0
  -20.9984  -28.3254   24.1404 H   0  0  0  0  0  0
  -20.5684  -26.2291   23.3604 H   0  0  0  0  0  0
  -21.6650  -26.7427   22.1205 H   0  0  0  0  0  0
  -19.6916  -25.6281   21.1244 H   0  0  0  0  0  0
  -19.6695  -27.3182   20.6744 H   0  0  0  0  0  0
  -17.4211  -26.6685   21.4014 H   0  0  0  0  0  0
  -18.0317  -26.0059   22.9000 H   0  0  0  0  0  0
  -19.7941  -30.7272   24.2267 H   0  0  0  0  0  0
  -17.5009  -31.6264   24.5150 H   0  0  0  0  0  0
  -15.5352  -30.2975   23.7634 H   0  0  0  0  0  0
  -15.8683  -28.0794   22.7076 H   0  0  0  0  0  0
  -24.5894  -30.7077   25.7815 H   0  0  0  0  0  0
  -24.8934  -32.2896   26.4907 H   0  0  0  0  0  0
  -25.8067  -30.8900   27.0237 H   0  0  0  0  0  0
  -26.2892  -29.6757   24.1200 H   0  0  0  0  0  0
  -27.4055  -29.7273   25.4649 H   0  0  0  0  0  0
  -27.8742  -30.4320   23.9363 H   0  0  0  0  0  0
  -27.2687  -33.3609   26.2060 H   0  0  0  0  0  0
  -28.3842  -32.6866   25.0270 H   0  0  0  0  0  0
  -28.0746  -31.8428   26.5365 H   0  0  0  0  0  0
  -28.2629  -38.0062   24.7433 H   0  0  0  0  0  0
  -28.1018  -36.2594   24.6384 H   0  0  0  0  0  0
  -27.2280  -37.1577   25.8871 H   0  0  0  0  0  0
  -20.9378  -29.8758   21.6895 H   0  0  0  0  0  0
  -26.0183  -38.2848   24.1336 H   0  0  0  0  0  0
  -31.5962  -19.8098   19.6847 H   0  0  0  0  0  0
  -31.7234  -17.3793   19.8567 H   0  0  0  0  0  0
  -27.8271  -19.8067   21.7372 H   0  0  0  0  0  0
  -31.0748  -24.4874   20.3807 H   0  0  0  0  0  0
  -30.3429  -24.0047   21.9029 H   0  0  0  0  0  0
  -31.4802  -21.9867   21.4790 H   0  0  0  0  0  0
  -31.4257  -22.2009   19.7295 H   0  0  0  0  0  0
  -27.7074  -22.0651   19.8688 H   0  0  0  0  0  0
  -28.0059  -22.3735   21.5746 H   0  0  0  0  0  0
  -29.0677  -23.9087   19.1553 H   0  0  0  0  0  0
  -27.8399  -17.2357   23.2952 H   0  0  0  0  0  0
  -27.5167  -16.1287   21.9652 H   0  0  0  0  0  0
  -26.6807  -17.6676   22.0409 H   0  0  0  0  0  0
  -28.1610  -25.1671   21.7948 H   0  0  0  0  0  0
  -27.0494  -24.7975   20.5411 H   0  0  0  0  0  0
  -28.9980  -15.2834   21.4484 H   0  0  0  0  0  0
  1 25  1  0  0  0
  1 30  2  0  0  0
  1 84  1  0  0  0
  2  3  1  0  0  0
  2 25  1  0  0  0
  2 85  1  0  0  0
  2 86  1  0  0  0
  3  4  1  0  0  0
  3 87  1  0  0  0
  3 88  1  0  0  0
  4  5  1  0  0  0
  4 89  1  0  0  0
  4 90  1  0  0  0
  5  6  1  0  0  0
  5 26  1  0  0  0
  5 91  1  0  0  0
  6 25  1  0  0  0
  6 92  1  0  0  0
  6 93  1  0  0  0
  7  8  2  0  0  0
  7 26  1  0  0  0
  7 29  1  0  0  0
  8  9  1  0  0  0
  8 22  1  0  0  0
  9 10  1  0  0  0
  9 27  2  0  0  0
 10 11  2  0  0  0
 10 15  1  0  0  0
 11 12  1  0  0  0
 11 94  1  0  0  0
 12 13  2  0  0  0
 12 95  1  0  0  0
 13 14  1  0  0  0
 13 31  1  0  0  0
 14 15  2  0  0  0
 14 96  1  0  0  0
 15 97  1  0  0  0
 16 17  2  0  0  0
 16 21  1  0  0  0
 16 31  1  0  0  0
 17 18  1  0  0  0
 17 98  1  0  0  0
 18 19  2  0  0  0
 18 99  1  0  0  0
 19 20  1  0  0  0
 19 24  1  0  0  0
 20 21  2  0  0  0
 20100  1  0  0  0
 21 23  1  0  0  0
 22 28  1  0  0  0
 22 32  2  0  0  0
 26 27  1  0  0  0
 28101  1  0  0  0
 28102  1  0  0  0
 29103  1  0  0  0
 29104  1  0  0  0
 33 34  1  0  0  0
 33 66  1  0  0  0
 33 70  2  0  0  0
 34 36  1  0  0  0
 34 59  1  0  0  0
 34105  1  0  0  0
 35 44  2  0  0  0
 35 45  1  0  0  0
 35 68  1  0  0  0
 36 56  1  0  0  0
 36106  1  0  0  0
 37 39  1  0  0  0
 37 47  1  0  0  0
 37 66  1  0  0  0
 37107  1  0  0  0
 38 43  2  0  0  0
 38 46  1  0  0  0
 38 47  1  0  0  0
 39 64  1  0  0  0
 39 67  2  0  0  0
 40 52  1  0  0  0
 40 53  2  0  0  0
 40 58  1  0  0  0
 41108  1  0  0  0
 41109  1  0  0  0
 41110  1  0  0  0
 41 48  1  0  0  0
 42 43  1  0  0  0
 42 66  1  0  0  0
 42111  1  0  0  0
 42112  1  0  0  0
 43 44  1  0  0  0
 44113  1  0  0  0
 45 46  2  0  0  0
 45114  1  0  0  0
 46115  1  0  0  0
 47116  1  0  0  0
 47117  1  0  0  0
 48 56  1  0  0  0
 48 65  1  0  0  0
 48118  1  0  0  0
 49 50  1  0  0  0
 49 53  1  0  0  0
 49 64  1  0  0  0
 49119  1  0  0  0
 50 51  1  0  0  0
 50120  1  0  0  0
 50121  1  0  0  0
 51 52  1  0  0  0
 51122  1  0  0  0
 51123  1  0  0  0
 52124  1  0  0  0
 52125  1  0  0  0
 53 54  1  0  0  0
 54 55  2  0  0  0
 54126  1  0  0  0
 55 57  1  0  0  0
 55127  1  0  0  0
 56 69  2  0  0  0
 57 58  2  0  0  0
 57128  1  0  0  0
 58129  1  0  0  0
 59 60  1  0  0  0
 59 61  1  0  0  0
 59 62  1  0  0  0
 60130  1  0  0  0
 60131  1  0  0  0
 60132  1  0  0  0
 61133  1  0  0  0
 61134  1  0  0  0
 61135  1  0  0  0
 62136  1  0  0  0
 62137  1  0  0  0
 62138  1  0  0  0
 63 65  1  0  0  0
 63139  1  0  0  0
 63140  1  0  0  0
 63141  1  0  0  0
 64142  1  0  0  0
 65143  1  0  0  0
 68 82  1  0  0  0
 71 72  2  0  0  0
 71 75  1  0  0  0
 71144  1  0  0  0
 72 76  1  0  0  0
 72145  1  0  0  0
 73 74  1  0  0  0
 73 75  2  0  0  0
 73146  1  0  0  0
 74 76  2  0  0  0
 74 81  1  0  0  0
 75 83  1  0  0  0
 76 84  1  0  0  0
 77 78  1  0  0  0
 77 80  1  0  0  0
 77147  1  0  0  0
 77148  1  0  0  0
 78 83  1  0  0  0
 78149  1  0  0  0
 78150  1  0  0  0
 79 80  1  0  0  0
 79 83  1  0  0  0
 79151  1  0  0  0
 79152  1  0  0  0
 80 82  1  0  0  0
 80153  1  0  0  0
 81154  1  0  0  0
 81155  1  0  0  0
 81156  1  0  0  0
 82157  1  0  0  0
 82158  1  0  0  0
 84159  1  0  0  0
M  ISO  4   1 100  68 101  82 101  84 100
M  END
> <chiral flag>
0

> <version>
0

> <s_m_source_file>
/data/baiqing/PycharmProjects/Reinvent-master-3.2/result/LINK_invent/BTK/process_docking_weight1_custom_product_contain_oxygen_bond_distance_aromatic_linkinvent_7_9_3/rearranged_h_0027.sdf

> <i_m_source_file_index>
6

> <r_mmod_Potential_Energy-OPLS-2005>
114.989028930664

> <r_mmod_Stretch_Energy-OPLS-2005>
78.1378173828125

> <r_mmod_Bend_Energy-OPLS-2005>
184.276489257812

> <r_mmod_Torsional_Energy-OPLS-2005>
282.204895019531

> <r_mmod_Improper_Torsional_Energy-OPLS-2005>
3.49180173873901

> <r_mmod_Van_der_Waal_Energy-OPLS-2005>
139.311248779297

> <r_mmod_Electrostatic_Energy-OPLS-2005>
-397.050201416016

> <r_mmod_Solvation_Energy-OPLS-2005>
-223.042617797852

> <b_mmod_Minimization_Converged-OPLS-2005>
0

> <r_mmod_RMS_Derivative-OPLS-2005>
2.11954736709595

$$$$
6
                    3D
 Structure written by MMmdl.
178188  0  0  1  0            999 V2000
  -30.5770  -15.0155   20.4474 C   0  0  0  0  0  0
  -30.4161  -12.6370   19.5277 C   0  0  0  0  0  0
  -29.5220  -12.5546   18.2694 C   0  0  0  0  0  0
  -28.0571  -12.3229   18.6734 C   0  0  0  0  0  0
  -27.6188  -13.2623   19.8249 C   0  0  2  0  0  0
  -28.6467  -13.3457   20.9699 C   0  0  0  0  0  0
  -25.2432  -13.8243   20.5697 C   0  0  0  0  0  0
  -24.1762  -13.0443   20.9210 C   0  0  0  0  0  0
  -24.6394  -11.6938   20.8726 C   0  0  0  0  0  0
  -23.9074  -10.4302   21.0385 C   0  0  0  0  0  0
  -24.3625   -9.4223   21.9161 C   0  0  0  0  0  0
  -23.6305   -8.2256   22.0748 C   0  0  0  0  0  0
  -22.4290   -8.0287   21.3537 C   0  0  0  0  0  0
  -21.9915   -9.0252   20.4642 C   0  0  0  0  0  0
  -22.7241  -10.2132   20.3041 C   0  0  0  0  0  0
  -21.6859   -6.0739   22.5278 C   0  0  0  0  0  0
  -21.4017   -6.5632   23.8216 C   0  0  0  0  0  0
  -21.3672   -5.6782   24.9173 C   0  0  0  0  0  0
  -21.6046   -4.3045   24.7218 C   0  0  0  0  0  0
  -21.8820   -3.8142   23.4338 C   0  0  0  0  0  0
  -21.9196   -4.6965   22.3401 C   0  0  0  0  0  0
  -22.7778  -13.5220   21.1871 C   0  0  0  0  0  0
  -22.1662   -4.2142   21.0979 F   0  0  0  0  0  0
  -21.5636   -3.4536   25.7733 F   0  0  0  0  0  0
  -29.9315  -13.7653   20.3893 N   0  0  0  0  0  0
  -26.2829  -12.9484   20.3146 N   0  0  0  0  0  0
  -25.9319  -11.6599   20.5667 N   0  0  0  0  0  0
  -22.0441  -12.8204   22.0446 N   0  0  0  0  0  0
  -25.4120  -15.1973   20.4201 N   0  0  0  0  0  0
  -31.7346  -15.0221   20.0079 O   0  0  0  0  0  0
  -21.6657   -6.8878   21.4238 O   0  0  0  0  0  0
  -22.3463  -14.5521   20.6724 O   0  0  0  0  0  0
  -24.6470  -31.8345   23.1760 C   0  0  0  0  0  0
  -25.9214  -32.4615   23.8181 C   0  0  1  0  0  0
  -27.2263  -27.0638   20.1563 C   0  0  0  0  0  0
  -25.5961  -33.8436   24.2108 N   0  0  0  0  0  0
  -23.4539  -30.4477   21.5219 C   0  0  2  0  0  0
  -24.9078  -28.8534   20.0994 C   0  0  0  0  0  0
  -22.7586  -29.4512   22.4829 C   0  0  0  0  0  0
  -18.0317  -28.1405   22.8496 C   0  0  0  0  0  0
  -24.1513  -36.7237   23.2644 C   0  0  0  0  0  0
  -26.0124  -30.6829   21.3860 C   0  0  0  0  0  0
  -26.0805  -29.2867   20.7272 C   0  0  0  0  0  0
  -27.2312  -28.4038   20.7409 C   0  0  0  0  0  0
  -26.0343  -26.7447   19.4737 C   0  0  0  0  0  0
  -24.9023  -27.6003   19.4559 C   0  0  0  0  0  0
  -23.6842  -29.7621   20.1445 C   0  0  0  0  0  0
  -25.4144  -36.2985   24.0296 C   0  0  1  0  0  0
  -20.5941  -28.3745   23.1223 C   0  0  2  0  0  0
  -20.6817  -26.9442   22.5418 C   0  0  0  0  0  0
  -19.5787  -26.6393   21.5232 C   0  0  0  0  0  0
  -18.1966  -26.7942   22.1643 C   0  0  0  0  0  0
  -19.1581  -28.8886   23.2849 C   0  0  0  0  0  0
  -18.9501  -30.1487   23.8863 C   0  0  0  0  0  0
  -17.6492  -30.6598   24.0572 C   0  0  0  0  0  0
  -25.9102  -34.9361   23.5024 C   0  0  0  0  0  0
  -16.5382  -29.9095   23.6330 C   0  0  0  0  0  0
  -16.7308  -28.6518   23.0354 C   0  0  0  0  0  0
  -26.4535  -31.6491   25.0629 C   0  0  0  0  0  0
  -25.3700  -31.3704   26.1305 C   0  0  0  0  0  0
  -27.0415  -30.2863   24.6256 C   0  0  0  0  0  0
  -27.6068  -32.4266   25.7413 C   0  0  0  0  0  0
  -27.5574  -37.1770   24.8457 C   0  0  0  0  0  0
  -21.4280  -29.3047   22.3566 N   0  0  0  0  0  0
  -26.4288  -37.3706   23.9401 N   0  0  0  0  0  0
  -24.7242  -31.0131   22.0821 N   0  0  0  0  0  0
  -23.4204  -28.8097   23.3027 O   0  0  0  0  0  0
  -28.2857  -26.0772   20.3118 O   0  0  0  0  0  0
  -26.5712  -34.8877   22.4618 O   0  0  0  0  0  0
  -23.5577  -32.1302   23.6912 O   0  0  0  0  0  0
  -29.5019  -18.7917   18.1357 C   0  0  0  0  0  0
  -29.2639  -20.0733   18.6868 C   0  0  0  0  0  0
  -29.7312  -17.6304   18.9132 C   0  0  0  0  0  0
  -29.3561  -19.0176   20.8685 C   0  0  0  0  0  0
  -29.1948  -20.3040   20.0757 C   0  0  0  0  0  0
  -29.7060  -17.6274   20.3286 C   0  0  0  0  0  0
  -32.2112  -16.1122   24.9054 C   0  0  0  0  0  0
  -32.1909  -17.3879   24.0461 C   0  0  0  0  0  0
  -30.8982  -15.3265   24.7756 C   0  0  0  0  0  0
  -29.0454  -22.8383   22.6137 C   0  0  0  0  0  0
  -31.8424  -17.0834   22.5772 C   0  0  0  0  0  0
  -30.5672  -15.0264   23.3065 C   0  0  0  0  0  0
  -27.7562  -23.1773   21.8456 C   0  0  0  0  0  0
  -29.9690  -22.1296   21.6116 C   0  0  0  0  0  0
  -30.4881  -16.3347   22.4525 C   0  0  0  0  0  0
  -28.1052  -22.9893   20.3630 C   0  0  1  0  0  0
  -28.9898  -19.1535   22.3340 C   0  0  0  0  0  0
  -26.8777  -22.5133   19.5688 C   0  0  0  0  0  0
  -28.4834  -24.5857   19.7836 C   0  0  0  0  0  0
  -29.1184  -21.7663   20.4894 N   0  0  0  0  0  0
  -30.0351  -16.2318   21.0254 N   0  0  0  0  0  0
  -31.4582  -12.7564   19.2345 H   0  0  0  0  0  0
  -30.3829  -11.6968   20.0797 H   0  0  0  0  0  0
  -29.8641  -11.7541   17.6106 H   0  0  0  0  0  0
  -29.6080  -13.4793   17.6970 H   0  0  0  0  0  0
  -27.9606  -11.2828   18.9851 H   0  0  0  0  0  0
  -27.4005  -12.4422   17.8104 H   0  0  0  0  0  0
  -27.5689  -14.2571   19.3818 H   0  0  0  0  0  0
  -28.7366  -12.3969   21.4996 H   0  0  0  0  0  0
  -28.2895  -14.0806   21.6886 H   0  0  0  0  0  0
  -25.2769   -9.5712   22.4731 H   0  0  0  0  0  0
  -24.0024   -7.4646   22.7476 H   0  0  0  0  0  0
  -21.0839   -8.8765   19.8942 H   0  0  0  0  0  0
  -22.3690  -10.9665   19.6156 H   0  0  0  0  0  0
  -21.2011   -7.6139   23.9714 H   0  0  0  0  0  0
  -21.1492   -6.0512   25.9075 H   0  0  0  0  0  0
  -22.0591   -2.7600   23.2845 H   0  0  0  0  0  0
  -22.4085  -11.9888   22.4850 H   0  0  0  0  0  0
  -21.1044  -13.1210   22.2629 H   0  0  0  0  0  0
  -24.6487  -15.8529   20.5469 H   0  0  0  0  0  0
  -26.2718  -15.6412   20.1217 H   0  0  0  0  0  0
  -26.7275  -32.5172   23.0907 H   0  0  0  0  0  0
  -25.0029  -33.9569   25.0193 H   0  0  0  0  0  0
  -22.7566  -31.2724   21.3572 H   0  0  0  0  0  0
  -23.3755  -35.9589   23.3273 H   0  0  0  0  0  0
  -24.3588  -36.8907   22.2067 H   0  0  0  0  0  0
  -23.7297  -37.6428   23.6714 H   0  0  0  0  0  0
  -26.1750  -31.4312   20.6105 H   0  0  0  0  0  0
  -26.8793  -30.7348   22.0323 H   0  0  0  0  0  0
  -28.1202  -28.7239   21.2666 H   0  0  0  0  0  0
  -25.9490  -25.7831   18.9891 H   0  0  0  0  0  0
  -24.0053  -27.2630   18.9535 H   0  0  0  0  0  0
  -23.8184  -30.5302   19.3834 H   0  0  0  0  0  0
  -22.7954  -29.2094   19.8358 H   0  0  0  0  0  0
  -25.1339  -36.1802   25.0785 H   0  0  0  0  0  0
  -21.0036  -28.3364   24.1341 H   0  0  0  0  0  0
  -20.5736  -26.2372   23.3665 H   0  0  0  0  0  0
  -21.6670  -26.7467   22.1185 H   0  0  0  0  0  0
  -19.6955  -25.6299   21.1264 H   0  0  0  0  0  0
  -19.6682  -27.3198   20.6756 H   0  0  0  0  0  0
  -17.4241  -26.6689   21.4044 H   0  0  0  0  0  0
  -18.0349  -26.0095   22.9047 H   0  0  0  0  0  0
  -19.7976  -30.7316   24.2193 H   0  0  0  0  0  0
  -17.5050  -31.6256   24.5216 H   0  0  0  0  0  0
  -15.5381  -30.2997   23.7659 H   0  0  0  0  0  0
  -15.8716  -28.0825   22.7080 H   0  0  0  0  0  0
  -24.5942  -30.6977   25.7616 H   0  0  0  0  0  0
  -24.8818  -32.2894   26.4558 H   0  0  0  0  0  0
  -25.7968  -30.8996   27.0174 H   0  0  0  0  0  0
  -26.3040  -29.6547   24.1287 H   0  0  0  0  0  0
  -27.4041  -29.7181   25.4837 H   0  0  0  0  0  0
  -27.8941  -30.4041   23.9563 H   0  0  0  0  0  0
  -27.2668  -33.3632   26.1842 H   0  0  0  0  0  0
  -28.3949  -32.6712   25.0274 H   0  0  0  0  0  0
  -28.0657  -31.8471   26.5441 H   0  0  0  0  0  0
  -28.2564  -38.0089   24.7493 H   0  0  0  0  0  0
  -28.1098  -36.2610   24.6299 H   0  0  0  0  0  0
  -27.2278  -37.1413   25.8854 H   0  0  0  0  0  0
  -20.9516  -29.8702   21.6676 H   0  0  0  0  0  0
  -26.0135  -38.2767   24.1383 H   0  0  0  0  0  0
  -29.5415  -18.7025   17.0587 H   0  0  0  0  0  0
  -29.1685  -20.9082   18.0062 H   0  0  0  0  0  0
  -29.9372  -16.7160   18.3769 H   0  0  0  0  0  0
  -32.3806  -16.3653   25.9531 H   0  0  0  0  0  0
  -33.0465  -15.4787   24.6044 H   0  0  0  0  0  0
  -33.1623  -17.8822   24.1031 H   0  0  0  0  0  0
  -31.4679  -18.0934   24.4561 H   0  0  0  0  0  0
  -30.0812  -15.8920   25.2266 H   0  0  0  0  0  0
  -30.9697  -14.3921   25.3351 H   0  0  0  0  0  0
  -28.8124  -22.1904   23.4599 H   0  0  0  0  0  0
  -29.5293  -23.7302   23.0162 H   0  0  0  0  0  0
  -32.6435  -16.4870   22.1367 H   0  0  0  0  0  0
  -31.8293  -18.0201   22.0190 H   0  0  0  0  0  0
  -29.6230  -14.4880   23.2959 H   0  0  0  0  0  0
  -31.3306  -14.3433   22.9294 H   0  0  0  0  0  0
  -27.3842  -24.1780   22.0720 H   0  0  0  0  0  0
  -26.9745  -22.4768   22.1445 H   0  0  0  0  0  0
  -30.4939  -21.2865   22.0628 H   0  0  0  0  0  0
  -30.7403  -22.8111   21.2521 H   0  0  0  0  0  0
  -29.7335  -16.8924   22.9806 H   0  0  0  0  0  0
  -28.4185  -20.0614   22.5147 H   0  0  0  0  0  0
  -29.8685  -19.1720   22.9746 H   0  0  0  0  0  0
  -28.3199  -18.3482   22.6286 H   0  0  0  0  0  0
  -26.0884  -23.2657   19.5847 H   0  0  0  0  0  0
  -26.4630  -21.5909   19.9775 H   0  0  0  0  0  0
  -27.1243  -22.3216   18.5228 H   0  0  0  0  0  0
  -28.1665  -24.6226   18.7403 H   0  0  0  0  0  0
  -29.5695  -24.5530   19.6971 H   0  0  0  0  0  0
  1 25  1  0  0  0
  1 30  2  0  0  0
  1 91  1  0  0  0
  2  3  1  0  0  0
  2 25  1  0  0  0
  2 92  1  0  0  0
  2 93  1  0  0  0
  3  4  1  0  0  0
  3 94  1  0  0  0
  3 95  1  0  0  0
  4  5  1  0  0  0
  4 96  1  0  0  0
  4 97  1  0  0  0
  5  6  1  0  0  0
  5 26  1  0  0  0
  5 98  1  0  0  0
  6 25  1  0  0  0
  6 99  1  0  0  0
  6100  1  0  0  0
  7  8  2  0  0  0
  7 26  1  0  0  0
  7 29  1  0  0  0
  8  9  1  0  0  0
  8 22  1  0  0  0
  9 10  1  0  0  0
  9 27  2  0  0  0
 10 11  2  0  0  0
 10 15  1  0  0  0
 11 12  1  0  0  0
 11101  1  0  0  0
 12 13  2  0  0  0
 12102  1  0  0  0
 13 14  1  0  0  0
 13 31  1  0  0  0
 14 15  2  0  0  0
 14103  1  0  0  0
 15104  1  0  0  0
 16 17  2  0  0  0
 16 21  1  0  0  0
 16 31  1  0  0  0
 17 18  1  0  0  0
 17105  1  0  0  0
 18 19  2  0  0  0
 18106  1  0  0  0
 19 20  1  0  0  0
 19 24  1  0  0  0
 20 21  2  0  0  0
 20107  1  0  0  0
 21 23  1  0  0  0
 22 28  1  0  0  0
 22 32  2  0  0  0
 26 27  1  0  0  0
 28108  1  0  0  0
 28109  1  0  0  0
 29110  1  0  0  0
 29111  1  0  0  0
 33 34  1  0  0  0
 33 66  1  0  0  0
 33 70  2  0  0  0
 34 36  1  0  0  0
 34 59  1  0  0  0
 34112  1  0  0  0
 35 44  2  0  0  0
 35 45  1  0  0  0
 35 68  1  0  0  0
 36 56  1  0  0  0
 36113  1  0  0  0
 37 39  1  0  0  0
 37 47  1  0  0  0
 37 66  1  0  0  0
 37114  1  0  0  0
 38 43  2  0  0  0
 38 46  1  0  0  0
 38 47  1  0  0  0
 39 64  1  0  0  0
 39 67  2  0  0  0
 40 52  1  0  0  0
 40 53  2  0  0  0
 40 58  1  0  0  0
 41115  1  0  0  0
 41116  1  0  0  0
 41117  1  0  0  0
 41 48  1  0  0  0
 42 43  1  0  0  0
 42 66  1  0  0  0
 42118  1  0  0  0
 42119  1  0  0  0
 43 44  1  0  0  0
 44120  1  0  0  0
 45 46  2  0  0  0
 45121  1  0  0  0
 46122  1  0  0  0
 47123  1  0  0  0
 47124  1  0  0  0
 48 56  1  0  0  0
 48 65  1  0  0  0
 48125  1  0  0  0
 49 50  1  0  0  0
 49 53  1  0  0  0
 49 64  1  0  0  0
 49126  1  0  0  0
 50 51  1  0  0  0
 50127  1  0  0  0
 50128  1  0  0  0
 51 52  1  0  0  0
 51129  1  0  0  0
 51130  1  0  0  0
 52131  1  0  0  0
 52132  1  0  0  0
 53 54  1  0  0  0
 54 55  2  0  0  0
 54133  1  0  0  0
 55 57  1  0  0  0
 55134  1  0  0  0
 56 69  2  0  0  0
 57 58  2  0  0  0
 57135  1  0  0  0
 58136  1  0  0  0
 59 60  1  0  0  0
 59 61  1  0  0  0
 59 62  1  0  0  0
 60137  1  0  0  0
 60138  1  0  0  0
 60139  1  0  0  0
 61140  1  0  0  0
 61141  1  0  0  0
 61142  1  0  0  0
 62143  1  0  0  0
 62144  1  0  0  0
 62145  1  0  0  0
 63 65  1  0  0  0
 63146  1  0  0  0
 63147  1  0  0  0
 63148  1  0  0  0
 64149  1  0  0  0
 65150  1  0  0  0
 68 89  1  0  0  0
 71 72  2  0  0  0
 71 73  1  0  0  0
 71151  1  0  0  0
 72 75  1  0  0  0
 72152  1  0  0  0
 73 76  2  0  0  0
 73153  1  0  0  0
 74 75  2  0  0  0
 74 76  1  0  0  0
 74 87  1  0  0  0
 75 90  1  0  0  0
 76 91  1  0  0  0
 77 78  1  0  0  0
 77 79  1  0  0  0
 77154  1  0  0  0
 77155  1  0  0  0
 78 81  1  0  0  0
 78156  1  0  0  0
 78157  1  0  0  0
 79 82  1  0  0  0
 79158  1  0  0  0
 79159  1  0  0  0
 80 83  1  0  0  0
 80 84  1  0  0  0
 80160  1  0  0  0
 80161  1  0  0  0
 81 85  1  0  0  0
 81162  1  0  0  0
 81163  1  0  0  0
 82 85  1  0  0  0
 82164  1  0  0  0
 82165  1  0  0  0
 83 86  1  0  0  0
 83166  1  0  0  0
 83167  1  0  0  0
 84 90  1  0  0  0
 84168  1  0  0  0
 84169  1  0  0  0
 85 91  1  0  0  0
 85170  1  0  0  0
 86 88  1  0  0  0
 86 89  1  0  0  0
 86 90  1  0  0  0
 87171  1  0  0  0
 87172  1  0  0  0
 87173  1  0  0  0
 88174  1  0  0  0
 88175  1  0  0  0
 88176  1  0  0  0
 89177  1  0  0  0
 89178  1  0  0  0
M  ISO  4   1 100  68 101  89 101  91 100
M  END
> <chiral flag>
0

> <version>
0

> <s_m_source_file>
/data/baiqing/PycharmProjects/Reinvent-master-3.2/result/LINK_invent/BTK/process_docking_weight1_custom_product_contain_oxygen_bond_distance_aromatic_linkinvent_7_9_3/rearranged_h_0027.sdf

> <i_m_source_file_index>
7

> <r_mmod_Potential_Energy-OPLS-2005>
1137.38513183594

> <r_mmod_Stretch_Energy-OPLS-2005>
391.127349853516

> <r_mmod_Bend_Energy-OPLS-2005>
443.467620849609

> <r_mmod_Torsional_Energy-OPLS-2005>
395.427856445312

> <r_mmod_Improper_Torsional_Energy-OPLS-2005>
6.33790397644043

> <r_mmod_Van_der_Waal_Energy-OPLS-2005>
135.667236328125

> <r_mmod_Electrostatic_Energy-OPLS-2005>
-296.650024414062

> <r_mmod_Solvation_Energy-OPLS-2005>
-186.782073974609

> <b_mmod_Minimization_Converged-OPLS-2005>
0

> <r_mmod_RMS_Derivative-OPLS-2005>
3.17362928390503

$$$$
7
                    3D
 Structure written by MMmdl.
156165  0  0  1  0            999 V2000
  -30.6048  -14.7182   20.5677 C   0  0  0  0  0  0
  -30.4268  -12.4597   19.4682 C   0  0  0  0  0  0
  -29.4961  -12.5084   18.2341 C   0  0  0  0  0  0
  -28.0281  -12.3134   18.6555 C   0  0  0  0  0  0
  -27.6371  -13.2172   19.8525 C   0  0  2  0  0  0
  -28.6700  -13.1082   20.9888 C   0  0  0  0  0  0
  -25.2467  -13.8157   20.5684 C   0  0  0  0  0  0
  -24.1750  -13.0411   20.9194 C   0  0  0  0  0  0
  -24.6335  -11.6885   20.8736 C   0  0  0  0  0  0
  -23.9023  -10.4271   21.0418 C   0  0  0  0  0  0
  -24.3602   -9.4204   21.9193 C   0  0  0  0  0  0
  -23.6297   -8.2228   22.0751 C   0  0  0  0  0  0
  -22.4279   -8.0248   21.3538 C   0  0  0  0  0  0
  -21.9899   -9.0219   20.4644 C   0  0  0  0  0  0
  -22.7207  -10.2111   20.3056 C   0  0  0  0  0  0
  -21.6847   -6.0719   22.5275 C   0  0  0  0  0  0
  -21.4004   -6.5628   23.8206 C   0  0  0  0  0  0
  -21.3660   -5.6787   24.9173 C   0  0  0  0  0  0
  -21.6049   -4.3045   24.7236 C   0  0  0  0  0  0
  -21.8826   -3.8131   23.4360 C   0  0  0  0  0  0
  -21.9200   -4.6948   22.3411 C   0  0  0  0  0  0
  -22.7785  -13.5190   21.1919 C   0  0  0  0  0  0
  -22.1663   -4.2117   21.0997 F   0  0  0  0  0  0
  -21.5657   -3.4547   25.7767 F   0  0  0  0  0  0
  -29.9779  -13.4912   20.4358 N   0  0  0  0  0  0
  -26.2864  -12.9337   20.3238 N   0  0  0  0  0  0
  -25.9241  -11.6482   20.5719 N   0  0  0  0  0  0
  -22.0482  -12.8108   22.0466 N   0  0  0  0  0  0
  -25.4239  -15.1875   20.4175 N   0  0  0  0  0  0
  -31.7255  -14.8758   20.0717 O   0  0  0  0  0  0
  -21.6639   -6.8851   21.4231 O   0  0  0  0  0  0
  -22.3450  -14.5523   20.6835 O   0  0  0  0  0  0
  -24.6341  -31.8533   23.1961 C   0  0  0  0  0  0
  -25.9174  -32.4720   23.8294 C   0  0  1  0  0  0
  -27.1959  -27.2333   20.1257 C   0  0  0  0  0  0
  -25.5960  -33.8528   24.2239 N   0  0  0  0  0  0
  -23.4267  -30.4789   21.5433 C   0  0  2  0  0  0
  -24.8609  -28.9176   20.1075 C   0  0  0  0  0  0
  -22.7514  -29.4611   22.4928 C   0  0  0  0  0  0
  -18.0298  -28.1366   22.8493 C   0  0  0  0  0  0
  -24.1488  -36.7285   23.2641 C   0  0  0  0  0  0
  -25.9722  -30.7530   21.3781 C   0  0  0  0  0  0
  -26.0349  -29.3750   20.7179 C   0  0  0  0  0  0
  -27.2014  -28.5455   20.7153 C   0  0  0  0  0  0
  -25.9951  -26.8393   19.4977 C   0  0  0  0  0  0
  -24.8481  -27.6587   19.4885 C   0  0  0  0  0  0
  -23.6373  -29.8133   20.1589 C   0  0  0  0  0  0
  -25.4115  -36.3061   24.0330 C   0  0  1  0  0  0
  -20.5909  -28.3688   23.1276 C   0  0  2  0  0  0
  -20.6784  -26.9403   22.5396 C   0  0  0  0  0  0
  -19.5748  -26.6371   21.5206 C   0  0  0  0  0  0
  -18.1944  -26.7908   22.1637 C   0  0  0  0  0  0
  -19.1553  -28.8840   23.2873 C   0  0  0  0  0  0
  -18.9461  -30.1462   23.8867 C   0  0  0  0  0  0
  -17.6462  -30.6557   24.0568 C   0  0  0  0  0  0
  -25.9059  -34.9428   23.5086 C   0  0  0  0  0  0
  -16.5356  -29.9055   23.6337 C   0  0  0  0  0  0
  -16.7298  -28.6478   23.0352 C   0  0  0  0  0  0
  -26.4519  -31.6542   25.0695 C   0  0  0  0  0  0
  -25.3735  -31.3669   26.1416 C   0  0  0  0  0  0
  -27.0347  -30.2943   24.6184 C   0  0  0  0  0  0
  -27.6072  -32.4259   25.7466 C   0  0  0  0  0  0
  -27.5571  -37.1803   24.8471 C   0  0  0  0  0  0
  -21.4225  -29.3054   22.3675 N   0  0  0  0  0  0
  -26.4294  -37.3761   23.9402 N   0  0  0  0  0  0
  -24.6977  -31.0491   22.0933 N   0  0  0  0  0  0
  -23.4223  -28.8152   23.3028 O   0  0  0  0  0  0
  -28.3026  -26.3553   20.2095 O   0  0  0  0  0  0
  -26.5630  -34.8914   22.4666 O   0  0  0  0  0  0
  -23.5507  -32.1374   23.7275 O   0  0  0  0  0  0
  -28.1812  -19.1209   21.5873 C   0  0  0  0  0  0
  -29.8477  -19.4074   19.9657 C   0  0  0  0  0  0
  -28.8342  -20.0584   20.7396 C   0  0  0  0  0  0
  -29.5780  -17.1125   20.9938 C   0  0  0  0  0  0
  -28.5144  -17.7360   21.7171 C   0  0  0  0  0  0
  -30.2072  -18.0070   20.0717 C   0  0  0  0  0  0
  -27.7702  -22.2168   19.6898 C   0  0  0  0  0  0
  -29.3257  -22.6395   20.9214 C   0  0  0  0  0  0
  -28.1559  -23.5704   20.4141 C   0  0  0  0  0  0
  -30.1991  -15.4860   22.7795 C   0  0  0  0  0  0
  -28.3471  -24.9690   19.6131 C   0  0  0  0  0  0
  -28.4082  -21.4860   20.8021 N   0  0  0  0  0  0
  -29.9988  -15.7085   21.3359 N   0  0  0  0  0  0
  -27.7796  -17.0040   22.5894 F   0  0  0  0  0  0
  -31.2193  -17.5532   19.2961 F   0  0  0  0  0  0
  -31.4606  -12.6090   19.1537 H   0  0  0  0  0  0
  -30.3958  -11.4728   19.9367 H   0  0  0  0  0  0
  -29.7800  -11.7419   17.5136 H   0  0  0  0  0  0
  -29.6082  -13.4644   17.7232 H   0  0  0  0  0  0
  -27.9057  -11.2674   18.9385 H   0  0  0  0  0  0
  -27.3577  -12.4768   17.8127 H   0  0  0  0  0  0
  -27.6491  -14.2439   19.4861 H   0  0  0  0  0  0
  -28.7012  -12.0888   21.3772 H   0  0  0  0  0  0
  -28.3653  -13.7386   21.8226 H   0  0  0  0  0  0
  -25.2762   -9.5686   22.4747 H   0  0  0  0  0  0
  -24.0027   -7.4607   22.7433 H   0  0  0  0  0  0
  -21.0842   -8.8709   19.8929 H   0  0  0  0  0  0
  -22.3658  -10.9643   19.6151 H   0  0  0  0  0  0
  -21.1956   -7.6132   23.9691 H   0  0  0  0  0  0
  -21.1490   -6.0531   25.9077 H   0  0  0  0  0  0
  -22.0609   -2.7587   23.2883 H   0  0  0  0  0  0
  -22.4179  -11.9753   22.4768 H   0  0  0  0  0  0
  -21.1100  -13.1059   22.2770 H   0  0  0  0  0  0
  -24.6857  -15.8606   20.5851 H   0  0  0  0  0  0
  -26.2954  -15.6173   20.1377 H   0  0  0  0  0  0
  -26.7223  -32.5341   23.1009 H   0  0  0  0  0  0
  -25.0102  -33.9629   25.0383 H   0  0  0  0  0  0
  -22.7252  -31.3024   21.4046 H   0  0  0  0  0  0
  -23.3750  -35.9622   23.3319 H   0  0  0  0  0  0
  -24.3565  -36.8886   22.2044 H   0  0  0  0  0  0
  -23.7254  -37.6496   23.6656 H   0  0  0  0  0  0
  -26.1263  -31.5125   20.6102 H   0  0  0  0  0  0
  -26.8438  -30.7869   22.0189 H   0  0  0  0  0  0
  -28.0996  -28.8923   21.2051 H   0  0  0  0  0  0
  -25.8935  -25.8689   19.0370 H   0  0  0  0  0  0
  -23.9461  -27.2994   19.0109 H   0  0  0  0  0  0
  -23.7605  -30.5909   19.4033 H   0  0  0  0  0  0
  -22.7479  -29.2546   19.8595 H   0  0  0  0  0  0
  -25.1290  -36.1912   25.0819 H   0  0  0  0  0  0
  -21.0004  -28.3236   24.1395 H   0  0  0  0  0  0
  -20.5674  -26.2294   23.3604 H   0  0  0  0  0  0
  -21.6655  -26.7406   22.1195 H   0  0  0  0  0  0
  -19.6901  -25.6281   21.1225 H   0  0  0  0  0  0
  -19.6667  -27.3192   20.6739 H   0  0  0  0  0  0
  -17.4212  -26.6685   21.4038 H   0  0  0  0  0  0
  -18.0346  -26.0023   22.8997 H   0  0  0  0  0  0
  -19.7933  -30.7302   24.2202 H   0  0  0  0  0  0
  -17.4998  -31.6228   24.5176 H   0  0  0  0  0  0
  -15.5358  -30.2939   23.7646 H   0  0  0  0  0  0
  -15.8710  -28.0786   22.7069 H   0  0  0  0  0  0
  -24.5948  -30.6975   25.7732 H   0  0  0  0  0  0
  -24.8887  -32.2809   26.4840 H   0  0  0  0  0  0
  -25.8054  -30.8858   27.0198 H   0  0  0  0  0  0
  -26.2928  -29.6716   24.1160 H   0  0  0  0  0  0
  -27.3972  -29.7186   25.4715 H   0  0  0  0  0  0
  -27.8837  -30.4202   23.9467 H   0  0  0  0  0  0
  -27.2699  -33.3575   26.2037 H   0  0  0  0  0  0
  -28.3878  -32.6787   25.0274 H   0  0  0  0  0  0
  -28.0740  -31.8381   26.5379 H   0  0  0  0  0  0
  -28.2614  -38.0070   24.7473 H   0  0  0  0  0  0
  -28.1047  -36.2605   24.6362 H   0  0  0  0  0  0
  -27.2291  -37.1516   25.8874 H   0  0  0  0  0  0
  -20.9411  -29.8783   21.6886 H   0  0  0  0  0  0
  -26.0190  -38.2855   24.1353 H   0  0  0  0  0  0
  -27.3789  -19.4841   22.2122 H   0  0  0  0  0  0
  -30.4041  -20.0124   19.2667 H   0  0  0  0  0  0
  -28.2829  -22.0626   18.7393 H   0  0  0  0  0  0
  -26.6962  -22.0393   19.5957 H   0  0  0  0  0  0
  -29.6481  -22.8458   21.9434 H   0  0  0  0  0  0
  -30.1710  -22.5813   20.2315 H   0  0  0  0  0  0
  -27.4350  -23.7244   21.2208 H   0  0  0  0  0  0
  -29.2549  -15.2913   23.2876 H   0  0  0  0  0  0
  -30.8662  -14.6506   23.0142 H   0  0  0  0  0  0
  -30.6451  -16.3694   23.2376 H   0  0  0  0  0  0
  -27.7270  -24.9399   18.7211 H   0  0  0  0  0  0
  -29.3474  -24.9257   19.1848 H   0  0  0  0  0  0
  1 25  1  0  0  0
  1 30  2  0  0  0
  1 83  1  0  0  0
  2  3  1  0  0  0
  2 25  1  0  0  0
  2 86  1  0  0  0
  2 87  1  0  0  0
  3  4  1  0  0  0
  3 88  1  0  0  0
  3 89  1  0  0  0
  4  5  1  0  0  0
  4 90  1  0  0  0
  4 91  1  0  0  0
  5  6  1  0  0  0
  5 26  1  0  0  0
  5 92  1  0  0  0
  6 25  1  0  0  0
  6 93  1  0  0  0
  6 94  1  0  0  0
  7  8  2  0  0  0
  7 26  1  0  0  0
  7 29  1  0  0  0
  8  9  1  0  0  0
  8 22  1  0  0  0
  9 10  1  0  0  0
  9 27  2  0  0  0
 10 11  2  0  0  0
 10 15  1  0  0  0
 11 12  1  0  0  0
 11 95  1  0  0  0
 12 13  2  0  0  0
 12 96  1  0  0  0
 13 14  1  0  0  0
 13 31  1  0  0  0
 14 15  2  0  0  0
 14 97  1  0  0  0
 15 98  1  0  0  0
 16 17  2  0  0  0
 16 21  1  0  0  0
 16 31  1  0  0  0
 17 18  1  0  0  0
 17 99  1  0  0  0
 18 19  2  0  0  0
 18100  1  0  0  0
 19 20  1  0  0  0
 19 24  1  0  0  0
 20 21  2  0  0  0
 20101  1  0  0  0
 21 23  1  0  0  0
 22 28  1  0  0  0
 22 32  2  0  0  0
 26 27  1  0  0  0
 28102  1  0  0  0
 28103  1  0  0  0
 29104  1  0  0  0
 29105  1  0  0  0
 33 34  1  0  0  0
 33 66  1  0  0  0
 33 70  2  0  0  0
 34 36  1  0  0  0
 34 59  1  0  0  0
 34106  1  0  0  0
 35 44  2  0  0  0
 35 45  1  0  0  0
 35 68  1  0  0  0
 36 56  1  0  0  0
 36107  1  0  0  0
 37 39  1  0  0  0
 37 47  1  0  0  0
 37 66  1  0  0  0
 37108  1  0  0  0
 38 43  2  0  0  0
 38 46  1  0  0  0
 38 47  1  0  0  0
 39 64  1  0  0  0
 39 67  2  0  0  0
 40 52  1  0  0  0
 40 53  2  0  0  0
 40 58  1  0  0  0
 41109  1  0  0  0
 41110  1  0  0  0
 41111  1  0  0  0
 41 48  1  0  0  0
 42 43  1  0  0  0
 42 66  1  0  0  0
 42112  1  0  0  0
 42113  1  0  0  0
 43 44  1  0  0  0
 44114  1  0  0  0
 45 46  2  0  0  0
 45115  1  0  0  0
 46116  1  0  0  0
 47117  1  0  0  0
 47118  1  0  0  0
 48 56  1  0  0  0
 48 65  1  0  0  0
 48119  1  0  0  0
 49 50  1  0  0  0
 49 53  1  0  0  0
 49 64  1  0  0  0
 49120  1  0  0  0
 50 51  1  0  0  0
 50121  1  0  0  0
 50122  1  0  0  0
 51 52  1  0  0  0
 51123  1  0  0  0
 51124  1  0  0  0
 52125  1  0  0  0
 52126  1  0  0  0
 53 54  1  0  0  0
 54 55  2  0  0  0
 54127  1  0  0  0
 55 57  1  0  0  0
 55128  1  0  0  0
 56 69  2  0  0  0
 57 58  2  0  0  0
 57129  1  0  0  0
 58130  1  0  0  0
 59 60  1  0  0  0
 59 61  1  0  0  0
 59 62  1  0  0  0
 60131  1  0  0  0
 60132  1  0  0  0
 60133  1  0  0  0
 61134  1  0  0  0
 61135  1  0  0  0
 61136  1  0  0  0
 62137  1  0  0  0
 62138  1  0  0  0
 62139  1  0  0  0
 63 65  1  0  0  0
 63140  1  0  0  0
 63141  1  0  0  0
 63142  1  0  0  0
 64143  1  0  0  0
 65144  1  0  0  0
 68 81  1  0  0  0
 71 73  2  0  0  0
 71 75  1  0  0  0
 71145  1  0  0  0
 72 73  1  0  0  0
 72 76  2  0  0  0
 72146  1  0  0  0
 73 82  1  0  0  0
 74 75  2  0  0  0
 74 76  1  0  0  0
 74 83  1  0  0  0
 75 84  1  0  0  0
 76 85  1  0  0  0
 77 79  1  0  0  0
 77 82  1  0  0  0
 77147  1  0  0  0
 77148  1  0  0  0
 78 79  1  0  0  0
 78 82  1  0  0  0
 78149  1  0  0  0
 78150  1  0  0  0
 79 81  1  0  0  0
 79151  1  0  0  0
 80 83  1  0  0  0
 80152  1  0  0  0
 80153  1  0  0  0
 80154  1  0  0  0
 81155  1  0  0  0
 81156  1  0  0  0
M  ISO  4   1 100  68 101  81 101  83 100
M  END
> <chiral flag>
0

> <version>
0

> <s_m_source_file>
/data/baiqing/PycharmProjects/Reinvent-master-3.2/result/LINK_invent/BTK/process_docking_weight1_custom_product_contain_oxygen_bond_distance_aromatic_linkinvent_7_9_3/rearranged_h_0027.sdf

> <i_m_source_file_index>
8

> <r_mmod_Potential_Energy-OPLS-2005>
403.207366943359

> <r_mmod_Stretch_Energy-OPLS-2005>
125.201217651367

> <r_mmod_Bend_Energy-OPLS-2005>
247.936752319336

> <r_mmod_Torsional_Energy-OPLS-2005>
325.178924560547

> <r_mmod_Improper_Torsional_Energy-OPLS-2005>
10.85475730896

> <r_mmod_Van_der_Waal_Energy-OPLS-2005>
145.602142333984

> <r_mmod_Electrostatic_Energy-OPLS-2005>
-326.892761230469

> <r_mmod_Solvation_Energy-OPLS-2005>
-209.132766723633

> <b_mmod_Minimization_Converged-OPLS-2005>
0

> <r_mmod_RMS_Derivative-OPLS-2005>
3.81417989730835

$$$$
8
                    3D
 Structure written by MMmdl.
171179  0  0  1  0            999 V2000
  -30.6359  -14.6122   20.5181 C   0  0  0  0  0  0
  -30.4366  -12.3799   19.4447 C   0  0  0  0  0  0
  -29.5037  -12.5090   18.2200 C   0  0  0  0  0  0
  -28.0273  -12.3476   18.6331 C   0  0  0  0  0  0
  -27.6539  -13.2129   19.8665 C   0  0  2  0  0  0
  -28.6997  -13.0543   20.9947 C   0  0  0  0  0  0
  -25.2553  -13.8145   20.5669 C   0  0  0  0  0  0
  -24.1833  -13.0421   20.9176 C   0  0  0  0  0  0
  -24.6396  -11.6886   20.8723 C   0  0  0  0  0  0
  -23.9062  -10.4280   21.0390 C   0  0  0  0  0  0
  -24.3617   -9.4197   21.9172 C   0  0  0  0  0  0
  -23.6292   -8.2239   22.0754 C   0  0  0  0  0  0
  -22.4270   -8.0273   21.3546 C   0  0  0  0  0  0
  -21.9902   -9.0244   20.4646 C   0  0  0  0  0  0
  -22.7229  -10.2123   20.3044 C   0  0  0  0  0  0
  -21.6867   -6.0721   22.5275 C   0  0  0  0  0  0
  -21.4016   -6.5627   23.8201 C   0  0  0  0  0  0
  -21.3660   -5.6781   24.9170 C   0  0  0  0  0  0
  -21.6049   -4.3042   24.7221 C   0  0  0  0  0  0
  -21.8822   -3.8130   23.4343 C   0  0  0  0  0  0
  -21.9191   -4.6951   22.3395 C   0  0  0  0  0  0
  -22.7854  -13.5213   21.1845 C   0  0  0  0  0  0
  -22.1665   -4.2134   21.0980 F   0  0  0  0  0  0
  -21.5631   -3.4529   25.7737 F   0  0  0  0  0  0
  -30.0179  -13.3927   20.4333 N   0  0  0  0  0  0
  -26.2987  -12.9333   20.3319 N   0  0  0  0  0  0
  -25.9319  -11.6487   20.5746 N   0  0  0  0  0  0
  -22.0513  -12.8204   22.0417 N   0  0  0  0  0  0
  -25.4221  -15.1871   20.4065 N   0  0  0  0  0  0
  -31.7952  -14.7739   20.1273 O   0  0  0  0  0  0
  -21.6642   -6.8865   21.4236 O   0  0  0  0  0  0
  -22.3533  -14.5526   20.6706 O   0  0  0  0  0  0
  -24.6249  -31.8650   23.2065 C   0  0  0  0  0  0
  -25.9103  -32.4813   23.8381 C   0  0  1  0  0  0
  -27.2079  -27.3076   20.1113 C   0  0  0  0  0  0
  -25.5942  -33.8617   24.2294 N   0  0  0  0  0  0
  -23.4177  -30.4937   21.5488 C   0  0  2  0  0  0
  -24.8645  -28.9573   20.1102 C   0  0  0  0  0  0
  -22.7463  -29.4674   22.4926 C   0  0  0  0  0  0
  -18.0312  -28.1376   22.8497 C   0  0  0  0  0  0
  -24.1492  -36.7296   23.2629 C   0  0  0  0  0  0
  -25.9635  -30.7820   21.3952 C   0  0  0  0  0  0
  -26.0318  -29.4099   20.7374 C   0  0  0  0  0  0
  -27.2037  -28.5908   20.7467 C   0  0  0  0  0  0
  -26.0469  -26.9778   19.3789 C   0  0  0  0  0  0
  -24.8724  -27.7415   19.4225 C   0  0  0  0  0  0
  -23.6343  -29.8357   20.1629 C   0  0  0  0  0  0
  -25.4121  -36.3111   24.0327 C   0  0  1  0  0  0
  -20.5910  -28.3695   23.1268 C   0  0  2  0  0  0
  -20.6812  -26.9420   22.5383 C   0  0  0  0  0  0
  -19.5784  -26.6378   21.5203 C   0  0  0  0  0  0
  -18.1966  -26.7921   22.1614 C   0  0  0  0  0  0
  -19.1561  -28.8855   23.2884 C   0  0  0  0  0  0
  -18.9480  -30.1466   23.8888 C   0  0  0  0  0  0
  -17.6483  -30.6583   24.0568 C   0  0  0  0  0  0
  -25.9057  -34.9477   23.5105 C   0  0  0  0  0  0
  -16.5379  -29.9072   23.6340 C   0  0  0  0  0  0
  -16.7300  -28.6484   23.0369 C   0  0  0  0  0  0
  -26.4496  -31.6613   25.0733 C   0  0  0  0  0  0
  -25.3709  -31.3781   26.1434 C   0  0  0  0  0  0
  -27.0359  -30.3034   24.6222 C   0  0  0  0  0  0
  -27.6050  -32.4341   25.7511 C   0  0  0  0  0  0
  -27.5583  -37.1814   24.8463 C   0  0  0  0  0  0
  -21.4182  -29.3058   22.3641 N   0  0  0  0  0  0
  -26.4307  -37.3800   23.9393 N   0  0  0  0  0  0
  -24.6862  -31.0647   22.1044 N   0  0  0  0  0  0
  -23.4186  -28.8214   23.3004 O   0  0  0  0  0  0
  -28.2984  -26.4145   20.1307 O   0  0  0  0  0  0
  -26.5603  -34.8931   22.4658 O   0  0  0  0  0  0
  -23.5405  -32.1479   23.7357 O   0  0  0  0  0  0
  -28.9019  -19.3347   20.5019 C   0  0  0  0  0  0
  -28.8247  -17.9146   20.6078 C   0  0  0  0  0  0
  -31.2149  -17.7841   20.8097 C   0  0  0  0  0  0
  -30.1387  -20.0309   20.5740 C   0  0  0  0  0  0
  -31.3006  -19.2064   20.7224 C   0  0  0  0  0  0
  -29.9779  -17.0984   20.7537 C   0  0  0  0  0  0
  -32.6925  -19.8200   20.7636 C   0  0  0  0  0  0
  -30.4647  -21.0792   23.7657 C   0  0  0  0  0  0
  -30.7570  -23.5867   23.4159 C   0  0  0  0  0  0
  -26.9333  -24.2162   19.9074 C   0  0  0  0  0  0
  -30.2647  -21.6013   20.3986 C   0  0  0  0  0  0
  -28.7338  -22.3418   22.2983 C   0  0  0  0  0  0
  -29.3751  -24.0373   20.4726 C   0  0  0  0  0  0
  -29.7684  -22.4127   23.4588 C   0  0  0  0  0  0
  -28.1004  -24.9902   20.5749 C   0  0  2  0  0  0
  -29.8278  -15.6538   20.8833 N   0  0  0  0  0  0
  -29.2016  -22.5644   20.8920 N   0  3  1  0  0  0
  -31.4777  -12.5039   19.1415 H   0  0  0  0  0  0
  -30.3682  -11.3799   19.8761 H   0  0  0  0  0  0
  -29.7648  -11.7661   17.4648 H   0  0  0  0  0  0
  -29.6473  -13.4832   17.7511 H   0  0  0  0  0  0
  -27.8607  -11.2925   18.8546 H   0  0  0  0  0  0
  -27.3743  -12.5869   17.7938 H   0  0  0  0  0  0
  -27.6759  -14.2513   19.5358 H   0  0  0  0  0  0
  -28.7078  -12.0271   21.3652 H   0  0  0  0  0  0
  -28.4473  -13.6761   21.8556 H   0  0  0  0  0  0
  -25.2771   -9.5678   22.4736 H   0  0  0  0  0  0
  -24.0000   -7.4632   22.7473 H   0  0  0  0  0  0
  -21.0829   -8.8746   19.8961 H   0  0  0  0  0  0
  -22.3672  -10.9652   19.6145 H   0  0  0  0  0  0
  -21.2020   -7.6138   23.9701 H   0  0  0  0  0  0
  -21.1482   -6.0518   25.9074 H   0  0  0  0  0  0
  -22.0607   -2.7594   23.2846 H   0  0  0  0  0  0
  -22.4155  -11.9867   22.4785 H   0  0  0  0  0  0
  -21.1134  -13.1216   22.2655 H   0  0  0  0  0  0
  -24.6426  -15.8280   20.5052 H   0  0  0  0  0  0
  -26.2496  -15.6258   20.0256 H   0  0  0  0  0  0
  -26.7146  -32.5506   23.1112 H   0  0  0  0  0  0
  -25.0168  -33.9801   25.0487 H   0  0  0  0  0  0
  -22.7110  -31.3150   21.4070 H   0  0  0  0  0  0
  -23.3779  -35.9609   23.3314 H   0  0  0  0  0  0
  -24.3576  -36.8893   22.2040 H   0  0  0  0  0  0
  -23.7222  -37.6491   23.6640 H   0  0  0  0  0  0
  -26.1124  -31.5493   20.6333 H   0  0  0  0  0  0
  -26.8338  -30.8178   22.0363 H   0  0  0  0  0  0
  -28.0889  -28.9271   21.2667 H   0  0  0  0  0  0
  -26.0171  -26.1293   18.7202 H   0  0  0  0  0  0
  -23.9968  -27.4133   18.8792 H   0  0  0  0  0  0
  -23.7489  -30.6099   19.4043 H   0  0  0  0  0  0
  -22.7564  -29.2622   19.8627 H   0  0  0  0  0  0
  -25.1312  -36.1971   25.0828 H   0  0  0  0  0  0
  -21.0044  -28.3272   24.1379 H   0  0  0  0  0  0
  -20.5748  -26.2312   23.3585 H   0  0  0  0  0  0
  -21.6688  -26.7481   22.1172 H   0  0  0  0  0  0
  -19.6954  -25.6285   21.1245 H   0  0  0  0  0  0
  -19.6711  -27.3191   20.6733 H   0  0  0  0  0  0
  -17.4246  -26.6705   21.4001 H   0  0  0  0  0  0
  -18.0360  -26.0042   22.8984 H   0  0  0  0  0  0
  -19.7964  -30.7294   24.2227 H   0  0  0  0  0  0
  -17.5038  -31.6265   24.5166 H   0  0  0  0  0  0
  -15.5383  -30.2971   23.7659 H   0  0  0  0  0  0
  -15.8703  -28.0792   22.7090 H   0  0  0  0  0  0
  -24.5883  -30.7143   25.7746 H   0  0  0  0  0  0
  -24.8917  -32.2976   26.4808 H   0  0  0  0  0  0
  -25.8007  -30.8979   27.0230 H   0  0  0  0  0  0
  -26.2974  -29.6756   24.1231 H   0  0  0  0  0  0
  -27.4033  -29.7314   25.4749 H   0  0  0  0  0  0
  -27.8852  -30.4309   23.9507 H   0  0  0  0  0  0
  -27.2664  -33.3639   26.2088 H   0  0  0  0  0  0
  -28.3878  -32.6896   25.0358 H   0  0  0  0  0  0
  -28.0688  -31.8458   26.5428 H   0  0  0  0  0  0
  -28.2624  -38.0089   24.7536 H   0  0  0  0  0  0
  -28.1076  -36.2642   24.6304 H   0  0  0  0  0  0
  -27.2304  -37.1461   25.8863 H   0  0  0  0  0  0
  -20.9335  -29.8745   21.6834 H   0  0  0  0  0  0
  -26.0202  -38.2885   24.1394 H   0  0  0  0  0  0
  -27.9827  -19.8852   20.3591 H   0  0  0  0  0  0
  -27.8510  -17.4487   20.5622 H   0  0  0  0  0  0
  -32.1232  -17.2093   20.9272 H   0  0  0  0  0  0
  -33.4667  -19.0561   20.8321 H   0  0  0  0  0  0
  -32.8229  -20.4720   21.6252 H   0  0  0  0  0  0
  -32.8811  -20.4018   19.8623 H   0  0  0  0  0  0
  -31.0071  -21.1415   24.7081 H   0  0  0  0  0  0
  -31.1876  -20.8034   23.0074 H   0  0  0  0  0  0
  -29.7464  -20.2616   23.8530 H   0  0  0  0  0  0
  -31.3509  -23.6271   24.3296 H   0  0  0  0  0  0
  -30.2320  -24.5389   23.3305 H   0  0  0  0  0  0
  -31.4601  -23.5001   22.5886 H   0  0  0  0  0  0
  -27.0059  -24.2361   18.8188 H   0  0  0  0  0  0
  -25.9619  -24.5938   20.2198 H   0  0  0  0  0  0
  -26.8854  -23.1682   20.1875 H   0  0  0  0  0  0
  -30.4039  -21.7816   19.3327 H   0  0  0  0  0  0
  -31.1914  -21.9283   20.8635 H   0  0  0  0  0  0
  -27.9295  -23.0400   22.5229 H   0  0  0  0  0  0
  -28.2447  -21.3681   22.3361 H   0  0  0  0  0  0
  -30.2039  -24.4986   21.0027 H   0  0  0  0  0  0
  -29.6877  -24.0441   19.4285 H   0  0  0  0  0  0
  -29.1616  -22.5904   24.3472 H   0  0  0  0  0  0
  -27.8580  -25.0780   21.6340 H   0  0  0  0  0  0
  -28.9013  -15.3478   21.1368 H   0  0  0  0  0  0
  -28.4015  -22.2865   20.3436 H   0  0  0  0  0  0
  1 25  1  0  0  0
  1 30  2  0  0  0
  1 86  1  0  0  0
  2  3  1  0  0  0
  2 25  1  0  0  0
  2 88  1  0  0  0
  2 89  1  0  0  0
  3  4  1  0  0  0
  3 90  1  0  0  0
  3 91  1  0  0  0
  4  5  1  0  0  0
  4 92  1  0  0  0
  4 93  1  0  0  0
  5  6  1  0  0  0
  5 26  1  0  0  0
  5 94  1  0  0  0
  6 25  1  0  0  0
  6 95  1  0  0  0
  6 96  1  0  0  0
  7  8  2  0  0  0
  7 26  1  0  0  0
  7 29  1  0  0  0
  8  9  1  0  0  0
  8 22  1  0  0  0
  9 10  1  0  0  0
  9 27  2  0  0  0
 10 11  2  0  0  0
 10 15  1  0  0  0
 11 12  1  0  0  0
 11 97  1  0  0  0
 12 13  2  0  0  0
 12 98  1  0  0  0
 13 14  1  0  0  0
 13 31  1  0  0  0
 14 15  2  0  0  0
 14 99  1  0  0  0
 15100  1  0  0  0
 16 17  2  0  0  0
 16 21  1  0  0  0
 16 31  1  0  0  0
 17 18  1  0  0  0
 17101  1  0  0  0
 18 19  2  0  0  0
 18102  1  0  0  0
 19 20  1  0  0  0
 19 24  1  0  0  0
 20 21  2  0  0  0
 20103  1  0  0  0
 21 23  1  0  0  0
 22 28  1  0  0  0
 22 32  2  0  0  0
 26 27  1  0  0  0
 28104  1  0  0  0
 28105  1  0  0  0
 29106  1  0  0  0
 29107  1  0  0  0
 33 34  1  0  0  0
 33 66  1  0  0  0
 33 70  2  0  0  0
 34 36  1  0  0  0
 34 59  1  0  0  0
 34108  1  0  0  0
 35 44  2  0  0  0
 35 45  1  0  0  0
 35 68  1  0  0  0
 36 56  1  0  0  0
 36109  1  0  0  0
 37 39  1  0  0  0
 37 47  1  0  0  0
 37 66  1  0  0  0
 37110  1  0  0  0
 38 43  2  0  0  0
 38 46  1  0  0  0
 38 47  1  0  0  0
 39 64  1  0  0  0
 39 67  2  0  0  0
 40 52  1  0  0  0
 40 53  2  0  0  0
 40 58  1  0  0  0
 41111  1  0  0  0
 41112  1  0  0  0
 41113  1  0  0  0
 41 48  1  0  0  0
 42 43  1  0  0  0
 42 66  1  0  0  0
 42114  1  0  0  0
 42115  1  0  0  0
 43 44  1  0  0  0
 44116  1  0  0  0
 45 46  2  0  0  0
 45117  1  0  0  0
 46118  1  0  0  0
 47119  1  0  0  0
 47120  1  0  0  0
 48 56  1  0  0  0
 48 65  1  0  0  0
 48121  1  0  0  0
 49 50  1  0  0  0
 49 53  1  0  0  0
 49 64  1  0  0  0
 49122  1  0  0  0
 50 51  1  0  0  0
 50123  1  0  0  0
 50124  1  0  0  0
 51 52  1  0  0  0
 51125  1  0  0  0
 51126  1  0  0  0
 52127  1  0  0  0
 52128  1  0  0  0
 53 54  1  0  0  0
 54 55  2  0  0  0
 54129  1  0  0  0
 55 57  1  0  0  0
 55130  1  0  0  0
 56 69  2  0  0  0
 57 58  2  0  0  0
 57131  1  0  0  0
 58132  1  0  0  0
 59 60  1  0  0  0
 59 61  1  0  0  0
 59 62  1  0  0  0
 60133  1  0  0  0
 60134  1  0  0  0
 60135  1  0  0  0
 61136  1  0  0  0
 61137  1  0  0  0
 61138  1  0  0  0
 62139  1  0  0  0
 62140  1  0  0  0
 62141  1  0  0  0
 63 65  1  0  0  0
 63142  1  0  0  0
 63143  1  0  0  0
 63144  1  0  0  0
 64145  1  0  0  0
 65146  1  0  0  0
 68 85  1  0  0  0
 71 72  2  0  0  0
 71 74  1  0  0  0
 71147  1  0  0  0
 72 76  1  0  0  0
 72148  1  0  0  0
 73 75  1  0  0  0
 73 76  2  0  0  0
 73149  1  0  0  0
 74 75  2  0  0  0
 74 81  1  0  0  0
 75 77  1  0  0  0
 76 86  1  0  0  0
 77150  1  0  0  0
 77151  1  0  0  0
 77152  1  0  0  0
 78153  1  0  0  0
 78154  1  0  0  0
 78155  1  0  0  0
 78 84  1  0  0  0
 79 84  1  0  0  0
 79156  1  0  0  0
 79157  1  0  0  0
 79158  1  0  0  0
 80159  1  0  0  0
 80160  1  0  0  0
 80161  1  0  0  0
 80 85  1  0  0  0
 81162  1  0  0  0
 81163  1  0  0  0
 81 87  1  0  0  0
 82 84  1  0  0  0
 82 87  1  0  0  0
 82164  1  0  0  0
 82165  1  0  0  0
 83 85  1  0  0  0
 83 87  1  0  0  0
 83166  1  0  0  0
 83167  1  0  0  0
 84168  1  0  0  0
 85169  1  0  0  0
 86170  1  0  0  0
 87171  1  0  0  0
M  CHG  1  87   1
M  ISO  4   1 100  68 101  85 101  86 100
M  END
> <chiral flag>
0

> <version>
0

> <s_m_source_file>
/data/baiqing/PycharmProjects/Reinvent-master-3.2/result/LINK_invent/BTK/process_docking_weight1_custom_product_contain_oxygen_bond_distance_aromatic_linkinvent_7_9_3/rearranged_h_0027.sdf

> <i_m_source_file_index>
9

> <r_mmod_Potential_Energy-OPLS-2005>
69.9017181396484

> <r_mmod_Stretch_Energy-OPLS-2005>
89.8785247802734

> <r_mmod_Bend_Energy-OPLS-2005>
169.729904174805

> <r_mmod_Torsional_Energy-OPLS-2005>
266.213562011719

> <r_mmod_Improper_Torsional_Energy-OPLS-2005>
5.10475826263428

> <r_mmod_Van_der_Waal_Energy-OPLS-2005>
158.240249633789

> <r_mmod_Electrostatic_Energy-OPLS-2005>
-253.541091918945

> <r_mmod_Solvation_Energy-OPLS-2005>
-416.570037841797

> <b_mmod_Minimization_Converged-OPLS-2005>
0

> <r_mmod_RMS_Derivative-OPLS-2005>
2.9079122543335

$$$$
9
                    3D
 Structure written by MMmdl.
155164  0  0  1  0            999 V2000
  -30.5906  -14.6985   20.4967 C   0  0  0  0  0  0
  -30.4470  -12.4289   19.4619 C   0  0  0  0  0  0
  -29.5137  -12.5170   18.2321 C   0  0  0  0  0  0
  -28.0374  -12.3445   18.6429 C   0  0  0  0  0  0
  -27.6539  -13.2195   19.8656 C   0  0  2  0  0  0
  -28.6986  -13.0853   20.9966 C   0  0  0  0  0  0
  -25.2562  -13.8172   20.5686 C   0  0  0  0  0  0
  -24.1832  -13.0437   20.9194 C   0  0  0  0  0  0
  -24.6403  -11.6909   20.8743 C   0  0  0  0  0  0
  -23.9070  -10.4292   21.0406 C   0  0  0  0  0  0
  -24.3620   -9.4206   21.9184 C   0  0  0  0  0  0
  -23.6293   -8.2243   22.0754 C   0  0  0  0  0  0
  -22.4275   -8.0283   21.3544 C   0  0  0  0  0  0
  -21.9911   -9.0258   20.4647 C   0  0  0  0  0  0
  -22.7242  -10.2136   20.3057 C   0  0  0  0  0  0
  -21.6853   -6.0737   22.5279 C   0  0  0  0  0  0
  -21.4015   -6.5640   23.8213 C   0  0  0  0  0  0
  -21.3659   -5.6793   24.9174 C   0  0  0  0  0  0
  -21.6043   -4.3056   24.7225 C   0  0  0  0  0  0
  -21.8819   -3.8148   23.4346 C   0  0  0  0  0  0
  -21.9193   -4.6964   22.3402 C   0  0  0  0  0  0
  -22.7853  -13.5230   21.1854 C   0  0  0  0  0  0
  -22.1661   -4.2150   21.0980 F   0  0  0  0  0  0
  -21.5627   -3.4539   25.7738 F   0  0  0  0  0  0
  -30.0099  -13.4526   20.4360 N   0  0  0  0  0  0
  -26.2995  -12.9358   20.3329 N   0  0  0  0  0  0
  -25.9335  -11.6511   20.5763 N   0  0  0  0  0  0
  -22.0495  -12.8224   22.0412 N   0  0  0  0  0  0
  -25.4265  -15.1891   20.4082 N   0  0  0  0  0  0
  -31.7409  -14.8811   20.0848 O   0  0  0  0  0  0
  -21.6639   -6.8880   21.4241 O   0  0  0  0  0  0
  -22.3538  -14.5535   20.6701 O   0  0  0  0  0  0
  -24.6299  -31.8569   23.2006 C   0  0  0  0  0  0
  -25.9131  -32.4763   23.8343 C   0  0  1  0  0  0
  -27.2228  -27.2801   20.1196 C   0  0  0  0  0  0
  -25.5933  -33.8566   24.2266 N   0  0  0  0  0  0
  -23.4257  -30.4809   21.5438 C   0  0  2  0  0  0
  -24.8730  -28.9338   20.1091 C   0  0  0  0  0  0
  -22.7496  -29.4610   22.4917 C   0  0  0  0  0  0
  -18.0291  -28.1387   22.8484 C   0  0  0  0  0  0
  -24.1490  -36.7287   23.2639 C   0  0  0  0  0  0
  -25.9713  -30.7746   21.3794 C   0  0  0  0  0  0
  -26.0442  -29.3998   20.7194 C   0  0  0  0  0  0
  -27.2205  -28.5848   20.7160 C   0  0  0  0  0  0
  -26.0276  -26.8854   19.4723 C   0  0  0  0  0  0
  -24.8691  -27.6835   19.4757 C   0  0  0  0  0  0
  -23.6429  -29.8179   20.1588 C   0  0  0  0  0  0
  -25.4116  -36.3074   24.0326 C   0  0  1  0  0  0
  -20.5895  -28.3696   23.1271 C   0  0  2  0  0  0
  -20.6779  -26.9415   22.5407 C   0  0  0  0  0  0
  -19.5754  -26.6384   21.5211 C   0  0  0  0  0  0
  -18.1935  -26.7929   22.1625 C   0  0  0  0  0  0
  -19.1544  -28.8859   23.2873 C   0  0  0  0  0  0
  -18.9466  -30.1459   23.8892 C   0  0  0  0  0  0
  -17.6465  -30.6588   24.0562 C   0  0  0  0  0  0
  -25.9056  -34.9444   23.5097 C   0  0  0  0  0  0
  -16.5356  -29.9085   23.6331 C   0  0  0  0  0  0
  -16.7278  -28.6503   23.0352 C   0  0  0  0  0  0
  -26.4502  -31.6585   25.0728 C   0  0  0  0  0  0
  -25.3726  -31.3733   26.1448 C   0  0  0  0  0  0
  -27.0351  -30.3002   24.6213 C   0  0  0  0  0  0
  -27.6055  -32.4327   25.7502 C   0  0  0  0  0  0
  -27.5579  -37.1799   24.8464 C   0  0  0  0  0  0
  -21.4205  -29.3045   22.3660 N   0  0  0  0  0  0
  -26.4291  -37.3772   23.9408 N   0  0  0  0  0  0
  -24.6946  -31.0548   22.0976 N   0  0  0  0  0  0
  -23.4202  -28.8147   23.3008 O   0  0  0  0  0  0
  -28.3223  -26.3920   20.1897 O   0  0  0  0  0  0
  -26.5627  -34.8916   22.4665 O   0  0  0  0  0  0
  -23.5452  -32.1385   23.7309 O   0  0  0  0  0  0
  -30.3384  -19.4182   19.8112 C   0  0  0  0  0  0
  -30.4902  -17.9887   19.8882 C   0  0  0  0  0  0
  -28.7782  -19.3698   21.5775 C   0  0  0  0  0  0
  -28.8945  -17.9451   21.6652 C   0  0  0  0  0  0
  -29.4798  -20.1968   20.6530 C   0  0  0  0  0  0
  -29.7665  -17.1968   20.8226 C   0  0  0  0  0  0
  -28.5962  -22.6554   21.3248 C   0  0  0  0  0  0
  -29.4514  -22.5136   19.4477 C   0  0  0  0  0  0
  -29.1317  -23.7775   20.3428 C   0  0  1  0  0  0
  -28.0522  -17.2200   22.7032 C   0  0  0  0  0  0
  -28.0965  -24.9324   19.9192 C   0  0  0  0  0  0
  -29.3442  -21.6745   20.6482 N   0  0  0  0  0  0
  -29.7746  -15.7214   20.9283 N   0  0  0  0  0  0
  -27.8069  -22.5720   22.2435 O   0  0  0  0  0  0
  -31.4855  -12.5706   19.1578 H   0  0  0  0  0  0
  -30.4011  -11.4356   19.9109 H   0  0  0  0  0  0
  -29.7873  -11.7602   17.4958 H   0  0  0  0  0  0
  -29.6454  -13.4825   17.7406 H   0  0  0  0  0  0
  -27.8824  -11.2916   18.8810 H   0  0  0  0  0  0
  -27.3816  -12.5645   17.7997 H   0  0  0  0  0  0
  -27.6682  -14.2534   19.5199 H   0  0  0  0  0  0
  -28.7241  -12.0622   21.3745 H   0  0  0  0  0  0
  -28.4312  -13.7077   21.8517 H   0  0  0  0  0  0
  -25.2765   -9.5679   22.4757 H   0  0  0  0  0  0
  -24.0001   -7.4633   22.7472 H   0  0  0  0  0  0
  -21.0841   -8.8779   19.8953 H   0  0  0  0  0  0
  -22.3702  -10.9675   19.6166 H   0  0  0  0  0  0
  -21.2009   -7.6148   23.9717 H   0  0  0  0  0  0
  -21.1480   -6.0523   25.9077 H   0  0  0  0  0  0
  -22.0599   -2.7610   23.2846 H   0  0  0  0  0  0
  -22.4111  -11.9886   22.4801 H   0  0  0  0  0  0
  -21.1114  -13.1251   22.2619 H   0  0  0  0  0  0
  -24.6551  -15.8398   20.5079 H   0  0  0  0  0  0
  -26.2677  -15.6259   20.0537 H   0  0  0  0  0  0
  -26.7197  -32.5419   23.1086 H   0  0  0  0  0  0
  -25.0074  -33.9706   25.0407 H   0  0  0  0  0  0
  -22.7213  -31.3028   21.3998 H   0  0  0  0  0  0
  -23.3752  -35.9620   23.3299 H   0  0  0  0  0  0
  -24.3580  -36.8912   22.2054 H   0  0  0  0  0  0
  -23.7244  -37.6488   23.6665 H   0  0  0  0  0  0
  -26.1100  -31.5373   20.6118 H   0  0  0  0  0  0
  -26.8488  -30.8213   22.0126 H   0  0  0  0  0  0
  -28.1152  -28.9355   21.2113 H   0  0  0  0  0  0
  -25.9508  -25.9357   18.9651 H   0  0  0  0  0  0
  -23.9737  -27.3230   18.9879 H   0  0  0  0  0  0
  -23.7659  -30.5957   19.4043 H   0  0  0  0  0  0
  -22.7617  -29.2507   19.8534 H   0  0  0  0  0  0
  -25.1297  -36.1921   25.0818 H   0  0  0  0  0  0
  -20.9988  -28.3275   24.1391 H   0  0  0  0  0  0
  -20.5678  -26.2307   23.3611 H   0  0  0  0  0  0
  -21.6647  -26.7440   22.1201 H   0  0  0  0  0  0
  -19.6916  -25.6294   21.1244 H   0  0  0  0  0  0
  -19.6691  -27.3191   20.6738 H   0  0  0  0  0  0
  -17.4203  -26.6672   21.4030 H   0  0  0  0  0  0
  -18.0340  -26.0073   22.9024 H   0  0  0  0  0  0
  -19.7941  -30.7276   24.2261 H   0  0  0  0  0  0
  -17.5019  -31.6267   24.5165 H   0  0  0  0  0  0
  -15.5356  -30.2986   23.7658 H   0  0  0  0  0  0
  -15.8678  -28.0820   22.7070 H   0  0  0  0  0  0
  -24.5904  -30.7079   25.7777 H   0  0  0  0  0  0
  -24.8914  -32.2903   26.4861 H   0  0  0  0  0  0
  -25.8043  -30.8920   27.0232 H   0  0  0  0  0  0
  -26.2937  -29.6748   24.1227 H   0  0  0  0  0  0
  -27.4022  -29.7266   25.4734 H   0  0  0  0  0  0
  -27.8819  -30.4276   23.9465 H   0  0  0  0  0  0
  -27.2660  -33.3629   26.2069 H   0  0  0  0  0  0
  -28.3870  -32.6885   25.0335 H   0  0  0  0  0  0
  -28.0718  -31.8461   26.5427 H   0  0  0  0  0  0
  -28.2594  -38.0098   24.7512 H   0  0  0  0  0  0
  -28.1078  -36.2629   24.6290 H   0  0  0  0  0  0
  -27.2297  -37.1447   25.8868 H   0  0  0  0  0  0
  -20.9388  -29.8771   21.6870 H   0  0  0  0  0  0
  -26.0170  -38.2845   24.1410 H   0  0  0  0  0  0
  -30.9305  -19.9382   19.0717 H   0  0  0  0  0  0
  -31.1650  -17.5039   19.1970 H   0  0  0  0  0  0
  -28.1037  -19.8579   22.2668 H   0  0  0  0  0  0
  -30.4456  -22.5205   18.9981 H   0  0  0  0  0  0
  -28.6787  -22.2891   18.7079 H   0  0  0  0  0  0
  -30.0682  -24.2108   20.6952 H   0  0  0  0  0  0
  -27.5045  -17.9172   23.3376 H   0  0  0  0  0  0
  -28.6820  -16.6113   23.3528 H   0  0  0  0  0  0
  -27.3228  -16.5698   22.2201 H   0  0  0  0  0  0
  -27.1370  -24.6704   20.3673 H   0  0  0  0  0  0
  -27.9410  -24.8491   18.8431 H   0  0  0  0  0  0
  -28.9413  -15.3532   21.3593 H   0  0  0  0  0  0
  1 25  1  0  0  0
  1 30  2  0  0  0
  1 83  1  0  0  0
  2  3  1  0  0  0
  2 25  1  0  0  0
  2 85  1  0  0  0
  2 86  1  0  0  0
  3  4  1  0  0  0
  3 87  1  0  0  0
  3 88  1  0  0  0
  4  5  1  0  0  0
  4 89  1  0  0  0
  4 90  1  0  0  0
  5  6  1  0  0  0
  5 26  1  0  0  0
  5 91  1  0  0  0
  6 25  1  0  0  0
  6 92  1  0  0  0
  6 93  1  0  0  0
  7  8  2  0  0  0
  7 26  1  0  0  0
  7 29  1  0  0  0
  8  9  1  0  0  0
  8 22  1  0  0  0
  9 10  1  0  0  0
  9 27  2  0  0  0
 10 11  2  0  0  0
 10 15  1  0  0  0
 11 12  1  0  0  0
 11 94  1  0  0  0
 12 13  2  0  0  0
 12 95  1  0  0  0
 13 14  1  0  0  0
 13 31  1  0  0  0
 14 15  2  0  0  0
 14 96  1  0  0  0
 15 97  1  0  0  0
 16 17  2  0  0  0
 16 21  1  0  0  0
 16 31  1  0  0  0
 17 18  1  0  0  0
 17 98  1  0  0  0
 18 19  2  0  0  0
 18 99  1  0  0  0
 19 20  1  0  0  0
 19 24  1  0  0  0
 20 21  2  0  0  0
 20100  1  0  0  0
 21 23  1  0  0  0
 22 28  1  0  0  0
 22 32  2  0  0  0
 26 27  1  0  0  0
 28101  1  0  0  0
 28102  1  0  0  0
 29103  1  0  0  0
 29104  1  0  0  0
 33 34  1  0  0  0
 33 66  1  0  0  0
 33 70  2  0  0  0
 34 36  1  0  0  0
 34 59  1  0  0  0
 34105  1  0  0  0
 35 44  2  0  0  0
 35 45  1  0  0  0
 35 68  1  0  0  0
 36 56  1  0  0  0
 36106  1  0  0  0
 37 39  1  0  0  0
 37 47  1  0  0  0
 37 66  1  0  0  0
 37107  1  0  0  0
 38 43  2  0  0  0
 38 46  1  0  0  0
 38 47  1  0  0  0
 39 64  1  0  0  0
 39 67  2  0  0  0
 40 52  1  0  0  0
 40 53  2  0  0  0
 40 58  1  0  0  0
 41108  1  0  0  0
 41109  1  0  0  0
 41110  1  0  0  0
 41 48  1  0  0  0
 42 43  1  0  0  0
 42 66  1  0  0  0
 42111  1  0  0  0
 42112  1  0  0  0
 43 44  1  0  0  0
 44113  1  0  0  0
 45 46  2  0  0  0
 45114  1  0  0  0
 46115  1  0  0  0
 47116  1  0  0  0
 47117  1  0  0  0
 48 56  1  0  0  0
 48 65  1  0  0  0
 48118  1  0  0  0
 49 50  1  0  0  0
 49 53  1  0  0  0
 49 64  1  0  0  0
 49119  1  0  0  0
 50 51  1  0  0  0
 50120  1  0  0  0
 50121  1  0  0  0
 51 52  1  0  0  0
 51122  1  0  0  0
 51123  1  0  0  0
 52124  1  0  0  0
 52125  1  0  0  0
 53 54  1  0  0  0
 54 55  2  0  0  0
 54126  1  0  0  0
 55 57  1  0  0  0
 55127  1  0  0  0
 56 69  2  0  0  0
 57 58  2  0  0  0
 57128  1  0  0  0
 58129  1  0  0  0
 59 60  1  0  0  0
 59 61  1  0  0  0
 59 62  1  0  0  0
 60130  1  0  0  0
 60131  1  0  0  0
 60132  1  0  0  0
 61133  1  0  0  0
 61134  1  0  0  0
 61135  1  0  0  0
 62136  1  0  0  0
 62137  1  0  0  0
 62138  1  0  0  0
 63 65  1  0  0  0
 63139  1  0  0  0
 63140  1  0  0  0
 63141  1  0  0  0
 64142  1  0  0  0
 65143  1  0  0  0
 68 81  1  0  0  0
 71 72  2  0  0  0
 71 75  1  0  0  0
 71144  1  0  0  0
 72 76  1  0  0  0
 72145  1  0  0  0
 73 74  1  0  0  0
 73 75  2  0  0  0
 73146  1  0  0  0
 74 76  2  0  0  0
 74 80  1  0  0  0
 75 82  1  0  0  0
 76 83  1  0  0  0
 77 79  1  0  0  0
 77 82  1  0  0  0
 77 84  2  0  0  0
 78 79  1  0  0  0
 78 82  1  0  0  0
 78147  1  0  0  0
 78148  1  0  0  0
 79 81  1  0  0  0
 79149  1  0  0  0
 80150  1  0  0  0
 80151  1  0  0  0
 80152  1  0  0  0
 81153  1  0  0  0
 81154  1  0  0  0
 83155  1  0  0  0
M  ISO  4   1 100  68 101  81 101  83 100
M  END
> <chiral flag>
0

> <version>
0

> <s_m_source_file>
/data/baiqing/PycharmProjects/Reinvent-master-3.2/result/LINK_invent/BTK/process_docking_weight1_custom_product_contain_oxygen_bond_distance_aromatic_linkinvent_7_9_3/rearranged_h_0027.sdf

> <i_m_source_file_index>
10

> <r_mmod_Potential_Energy-OPLS-2005>
90.4646301269531

> <r_mmod_Stretch_Energy-OPLS-2005>
100.878448486328

> <r_mmod_Bend_Energy-OPLS-2005>
189.425338745117

> <r_mmod_Torsional_Energy-OPLS-2005>
222.30534362793

> <r_mmod_Improper_Torsional_Energy-OPLS-2005>
5.70310020446777

> <r_mmod_Van_der_Waal_Energy-OPLS-2005>
140.678939819336

> <r_mmod_Electrostatic_Energy-OPLS-2005>
-415.256896972656

> <r_mmod_Solvation_Energy-OPLS-2005>
-223.080123901367

> <b_mmod_Minimization_Converged-OPLS-2005>
0

> <r_mmod_RMS_Derivative-OPLS-2005>
0.202192708849907

$$$$
10
                    3D
 Structure written by MMmdl.
175185  0  0  1  0            999 V2000
  -30.7209  -14.4160   20.6204 C   0  0  0  0  0  0
  -30.4227  -12.2905   19.4079 C   0  0  0  0  0  0
  -29.4909  -12.5071   18.1984 C   0  0  0  0  0  0
  -28.0123  -12.3685   18.6124 C   0  0  0  0  0  0
  -27.6647  -13.1993   19.8764 C   0  0  2  0  0  0
  -28.7033  -12.9511   20.9929 C   0  0  0  0  0  0
  -25.2608  -13.8148   20.5659 C   0  0  0  0  0  0
  -24.1848  -13.0440   20.9163 C   0  0  0  0  0  0
  -24.6387  -11.6905   20.8734 C   0  0  0  0  0  0
  -23.9052  -10.4291   21.0407 C   0  0  0  0  0  0
  -24.3607   -9.4209   21.9187 C   0  0  0  0  0  0
  -23.6285   -8.2245   22.0760 C   0  0  0  0  0  0
  -22.4269   -8.0278   21.3547 C   0  0  0  0  0  0
  -21.9902   -9.0255   20.4645 C   0  0  0  0  0  0
  -22.7231  -10.2130   20.3056 C   0  0  0  0  0  0
  -21.6855   -6.0734   22.5282 C   0  0  0  0  0  0
  -21.4007   -6.5639   23.8214 C   0  0  0  0  0  0
  -21.3653   -5.6793   24.9174 C   0  0  0  0  0  0
  -21.6050   -4.3057   24.7228 C   0  0  0  0  0  0
  -21.8819   -3.8150   23.4350 C   0  0  0  0  0  0
  -21.9190   -4.6964   22.3408 C   0  0  0  0  0  0
  -22.7870  -13.5250   21.1834 C   0  0  0  0  0  0
  -22.1663   -4.2149   21.0983 F   0  0  0  0  0  0
  -21.5629   -3.4546   25.7742 F   0  0  0  0  0  0
  -30.0404  -13.2534   20.4498 N   0  0  0  0  0  0
  -26.3034  -12.9305   20.3359 N   0  0  0  0  0  0
  -25.9309  -11.6470   20.5753 N   0  0  0  0  0  0
  -22.0504  -12.8251   22.0387 N   0  0  0  0  0  0
  -25.4367  -15.1865   20.4067 N   0  0  0  0  0  0
  -31.8065  -14.6559   20.0838 O   0  0  0  0  0  0
  -21.6638   -6.8877   21.4242 O   0  0  0  0  0  0
  -22.3569  -14.5564   20.6685 O   0  0  0  0  0  0
  -24.6102  -31.8709   23.2108 C   0  0  0  0  0  0
  -25.8999  -32.4843   23.8408 C   0  0  1  0  0  0
  -27.2388  -27.4656   20.0885 C   0  0  0  0  0  0
  -25.5861  -33.8643   24.2319 N   0  0  0  0  0  0
  -23.3984  -30.4948   21.5491 C   0  0  2  0  0  0
  -24.8470  -28.9600   20.1146 C   0  0  0  0  0  0
  -22.7401  -29.4681   22.4971 C   0  0  0  0  0  0
  -18.0287  -28.1374   22.8512 C   0  0  0  0  0  0
  -24.1459  -36.7299   23.2654 C   0  0  0  0  0  0
  -25.9245  -30.8400   21.3652 C   0  0  0  0  0  0
  -26.0016  -29.4753   20.7173 C   0  0  0  0  0  0
  -27.1999  -28.7294   20.7114 C   0  0  0  0  0  0
  -26.0715  -26.9486   19.4915 C   0  0  0  0  0  0
  -24.8736  -27.6920   19.5035 C   0  0  0  0  0  0
  -23.6078  -29.8270   20.1628 C   0  0  0  0  0  0
  -25.4087  -36.3112   24.0348 C   0  0  1  0  0  0
  -20.5880  -28.3670   23.1308 C   0  0  2  0  0  0
  -20.6786  -26.9399   22.5417 C   0  0  0  0  0  0
  -19.5756  -26.6373   21.5224 C   0  0  0  0  0  0
  -18.1934  -26.7921   22.1639 C   0  0  0  0  0  0
  -19.1542  -28.8835   23.2914 C   0  0  0  0  0  0
  -18.9490  -30.1443   23.8917 C   0  0  0  0  0  0
  -17.6504  -30.6601   24.0570 C   0  0  0  0  0  0
  -25.9023  -34.9495   23.5132 C   0  0  0  0  0  0
  -16.5386  -29.9108   23.6336 C   0  0  0  0  0  0
  -16.7290  -28.6517   23.0365 C   0  0  0  0  0  0
  -26.4440  -31.6642   25.0747 C   0  0  0  0  0  0
  -25.3715  -31.3753   26.1515 C   0  0  0  0  0  0
  -27.0315  -30.3110   24.6111 C   0  0  0  0  0  0
  -27.6017  -32.4391   25.7485 C   0  0  0  0  0  0
  -27.5553  -37.1785   24.8482 C   0  0  0  0  0  0
  -21.4142  -29.3026   22.3700 N   0  0  0  0  0  0
  -26.4266  -37.3804   23.9439 N   0  0  0  0  0  0
  -24.6620  -31.0830   22.0996 N   0  0  0  0  0  0
  -23.4181  -28.8240   23.3020 O   0  0  0  0  0  0
  -28.4027  -26.7385   20.0746 O   0  0  0  0  0  0
  -26.5615  -34.8957   22.4699 O   0  0  0  0  0  0
  -23.5300  -32.1448   23.7507 O   0  0  0  0  0  0
  -28.8962  -21.2256   19.8421 C   0  0  0  0  0  0
  -29.1785  -22.3966   19.1252 C   0  0  0  0  0  0
  -29.3751  -21.0530   21.1532 C   0  0  0  0  0  0
  -30.1382  -22.0963   21.7566 C   0  0  0  0  0  0
  -30.3856  -23.3220   21.0504 C   0  0  0  0  0  0
  -29.9312  -23.4455   19.6997 C   0  0  0  0  0  0
  -30.5391  -24.2129   16.5227 C   0  0  0  0  0  0
  -29.5673  -25.3641   16.7427 C   0  0  0  0  0  0
  -31.2745  -24.1490   17.8577 C   0  0  0  0  0  0
  -29.8072  -17.5085   22.6349 C   0  0  0  0  0  0
  -29.9160  -17.7741   20.6153 C   0  0  0  0  0  0
  -30.5349  -16.7261   21.5447 C   0  0  2  0  0  0
  -29.2185  -25.3074   18.2417 C   0  0  2  0  0  0
  -30.7002  -21.8926   23.1651 C   0  0  0  0  0  0
  -28.9978  -19.7587   21.8911 C   0  0  0  0  0  0
  -29.0882  -26.7316   18.8266 C   0  0  0  0  0  0
  -31.1636  -24.4664   21.7427 C   0  0  0  0  0  0
  -30.2974  -24.5308   18.8739 N   0  0  0  0  0  0
  -30.0845  -15.3455   21.3490 N   0  0  0  0  0  0
  -30.0125  -18.6810   21.7702 N   0  3  1  0  0  0
  -30.7670  -24.6292   23.0070 F   0  0  0  0  0  0
  -32.4641  -24.1724   21.7479 F   0  0  0  0  0  0
  -31.0267  -25.6679   21.1839 F   0  0  0  0  0  0
  -31.4664  -12.3940   19.1061 H   0  0  0  0  0  0
  -30.3264  -11.2725   19.7888 H   0  0  0  0  0  0
  -29.7241  -11.7889   17.4107 H   0  0  0  0  0  0
  -29.6621  -13.4968   17.7725 H   0  0  0  0  0  0
  -27.8201  -11.3112   18.7995 H   0  0  0  0  0  0
  -27.3619  -12.6533   17.7840 H   0  0  0  0  0  0
  -27.7189  -14.2504   19.5927 H   0  0  0  0  0  0
  -28.6726  -11.9075   21.3097 H   0  0  0  0  0  0
  -28.4576  -13.5258   21.8863 H   0  0  0  0  0  0
  -25.2750   -9.5691   22.4765 H   0  0  0  0  0  0
  -23.9999   -7.4638   22.7480 H   0  0  0  0  0  0
  -21.0840   -8.8762   19.8950 H   0  0  0  0  0  0
  -22.3690  -10.9667   19.6164 H   0  0  0  0  0  0
  -21.1995   -7.6145   23.9717 H   0  0  0  0  0  0
  -21.1477   -6.0523   25.9074 H   0  0  0  0  0  0
  -22.0603   -2.7614   23.2853 H   0  0  0  0  0  0
  -22.4100  -11.9904   22.4778 H   0  0  0  0  0  0
  -21.1126  -13.1295   22.2590 H   0  0  0  0  0  0
  -24.6714  -15.8449   20.5033 H   0  0  0  0  0  0
  -26.2874  -15.6167   20.0681 H   0  0  0  0  0  0
  -26.7078  -32.5576   23.1195 H   0  0  0  0  0  0
  -24.9989  -33.9821   25.0444 H   0  0  0  0  0  0
  -22.6854  -31.3101   21.4105 H   0  0  0  0  0  0
  -23.3740  -35.9610   23.3343 H   0  0  0  0  0  0
  -24.3527  -36.8889   22.2057 H   0  0  0  0  0  0
  -23.7207  -37.6505   23.6665 H   0  0  0  0  0  0
  -26.0353  -31.6025   20.5933 H   0  0  0  0  0  0
  -26.8124  -30.8951   21.9830 H   0  0  0  0  0  0
  -28.0967  -29.1236   21.1699 H   0  0  0  0  0  0
  -26.0900  -25.9757   19.0215 H   0  0  0  0  0  0
  -23.9862  -27.2880   19.0376 H   0  0  0  0  0  0
  -23.7162  -30.6046   19.4066 H   0  0  0  0  0  0
  -22.7317  -29.2477   19.8646 H   0  0  0  0  0  0
  -25.1253  -36.1965   25.0842 H   0  0  0  0  0  0
  -20.9985  -28.3239   24.1421 H   0  0  0  0  0  0
  -20.5705  -26.2277   23.3607 H   0  0  0  0  0  0
  -21.6656  -26.7432   22.1197 H   0  0  0  0  0  0
  -19.6918  -25.6270   21.1280 H   0  0  0  0  0  0
  -19.6702  -27.3167   20.6736 H   0  0  0  0  0  0
  -17.4200  -26.6693   21.4037 H   0  0  0  0  0  0
  -18.0324  -26.0035   22.9008 H   0  0  0  0  0  0
  -19.7976  -30.7261   24.2258 H   0  0  0  0  0  0
  -17.5082  -31.6295   24.5145 H   0  0  0  0  0  0
  -15.5397  -30.3052   23.7627 H   0  0  0  0  0  0
  -15.8688  -28.0869   22.7039 H   0  0  0  0  0  0
  -24.5846  -30.7145   25.7857 H   0  0  0  0  0  0
  -24.8970  -32.2928   26.5012 H   0  0  0  0  0  0
  -25.8067  -30.8881   27.0251 H   0  0  0  0  0  0
  -26.2874  -29.6851   24.1178 H   0  0  0  0  0  0
  -27.4155  -29.7358   25.4547 H   0  0  0  0  0  0
  -27.8657  -30.4496   23.9232 H   0  0  0  0  0  0
  -27.2624  -33.3692   26.2066 H   0  0  0  0  0  0
  -28.3798  -32.6963   25.0283 H   0  0  0  0  0  0
  -28.0731  -31.8545   26.5394 H   0  0  0  0  0  0
  -28.2578  -38.0070   24.7529 H   0  0  0  0  0  0
  -28.1042  -36.2609   24.6306 H   0  0  0  0  0  0
  -27.2291  -37.1436   25.8892 H   0  0  0  0  0  0
  -20.9298  -29.8728   21.6910 H   0  0  0  0  0  0
  -26.0153  -38.2873   24.1491 H   0  0  0  0  0  0
  -28.3083  -20.4522   19.3655 H   0  0  0  0  0  0
  -28.8240  -22.4706   18.1077 H   0  0  0  0  0  0
  -31.2081  -24.3749   15.6773 H   0  0  0  0  0  0
  -29.9958  -23.2855   16.3398 H   0  0  0  0  0  0
  -28.6840  -25.3031   16.1076 H   0  0  0  0  0  0
  -30.0761  -26.3000   16.5028 H   0  0  0  0  0  0
  -32.0979  -24.8647   17.8758 H   0  0  0  0  0  0
  -31.7046  -23.1583   18.0263 H   0  0  0  0  0  0
  -30.3301  -17.5661   23.5898 H   0  0  0  0  0  0
  -28.7564  -17.2369   22.7651 H   0  0  0  0  0  0
  -28.8913  -17.5500   20.3103 H   0  0  0  0  0  0
  -30.5378  -18.0667   19.7694 H   0  0  0  0  0  0
  -31.6220  -16.8258   21.6274 H   0  0  0  0  0  0
  -28.2631  -24.7931   18.3547 H   0  0  0  0  0  0
  -30.8828  -20.8477   23.4050 H   0  0  0  0  0  0
  -30.0156  -22.2953   23.9128 H   0  0  0  0  0  0
  -31.6671  -22.3781   23.2882 H   0  0  0  0  0  0
  -28.0285  -19.3999   21.5410 H   0  0  0  0  0  0
  -28.8420  -19.9828   22.9458 H   0  0  0  0  0  0
  -28.5780  -27.3738   18.1048 H   0  0  0  0  0  0
  -30.0754  -27.1765   18.9660 H   0  0  0  0  0  0
  -29.2032  -15.0643   21.7539 H   0  0  0  0  0  0
  -30.9509  -19.0298   21.8774 H   0  0  0  0  0  0
  1 25  1  0  0  0
  1 30  2  0  0  0
  1 89  1  0  0  0
  2  3  1  0  0  0
  2 25  1  0  0  0
  2 94  1  0  0  0
  2 95  1  0  0  0
  3  4  1  0  0  0
  3 96  1  0  0  0
  3 97  1  0  0  0
  4  5  1  0  0  0
  4 98  1  0  0  0
  4 99  1  0  0  0
  5  6  1  0  0  0
  5 26  1  0  0  0
  5100  1  0  0  0
  6 25  1  0  0  0
  6101  1  0  0  0
  6102  1  0  0  0
  7  8  2  0  0  0
  7 26  1  0  0  0
  7 29  1  0  0  0
  8  9  1  0  0  0
  8 22  1  0  0  0
  9 10  1  0  0  0
  9 27  2  0  0  0
 10 11  2  0  0  0
 10 15  1  0  0  0
 11 12  1  0  0  0
 11103  1  0  0  0
 12 13  2  0  0  0
 12104  1  0  0  0
 13 14  1  0  0  0
 13 31  1  0  0  0
 14 15  2  0  0  0
 14105  1  0  0  0
 15106  1  0  0  0
 16 17  2  0  0  0
 16 21  1  0  0  0
 16 31  1  0  0  0
 17 18  1  0  0  0
 17107  1  0  0  0
 18 19  2  0  0  0
 18108  1  0  0  0
 19 20  1  0  0  0
 19 24  1  0  0  0
 20 21  2  0  0  0
 20109  1  0  0  0
 21 23  1  0  0  0
 22 28  1  0  0  0
 22 32  2  0  0  0
 26 27  1  0  0  0
 28110  1  0  0  0
 28111  1  0  0  0
 29112  1  0  0  0
 29113  1  0  0  0
 33 34  1  0  0  0
 33 66  1  0  0  0
 33 70  2  0  0  0
 34 36  1  0  0  0
 34 59  1  0  0  0
 34114  1  0  0  0
 35 44  2  0  0  0
 35 45  1  0  0  0
 35 68  1  0  0  0
 36 56  1  0  0  0
 36115  1  0  0  0
 37 39  1  0  0  0
 37 47  1  0  0  0
 37 66  1  0  0  0
 37116  1  0  0  0
 38 43  2  0  0  0
 38 46  1  0  0  0
 38 47  1  0  0  0
 39 64  1  0  0  0
 39 67  2  0  0  0
 40 52  1  0  0  0
 40 53  2  0  0  0
 40 58  1  0  0  0
 41117  1  0  0  0
 41118  1  0  0  0
 41119  1  0  0  0
 41 48  1  0  0  0
 42 43  1  0  0  0
 42 66  1  0  0  0
 42120  1  0  0  0
 42121  1  0  0  0
 43 44  1  0  0  0
 44122  1  0  0  0
 45 46  2  0  0  0
 45123  1  0  0  0
 46124  1  0  0  0
 47125  1  0  0  0
 47126  1  0  0  0
 48 56  1  0  0  0
 48 65  1  0  0  0
 48127  1  0  0  0
 49 50  1  0  0  0
 49 53  1  0  0  0
 49 64  1  0  0  0
 49128  1  0  0  0
 50 51  1  0  0  0
 50129  1  0  0  0
 50130  1  0  0  0
 51 52  1  0  0  0
 51131  1  0  0  0
 51132  1  0  0  0
 52133  1  0  0  0
 52134  1  0  0  0
 53 54  1  0  0  0
 54 55  2  0  0  0
 54135  1  0  0  0
 55 57  1  0  0  0
 55136  1  0  0  0
 56 69  2  0  0  0
 57 58  2  0  0  0
 57137  1  0  0  0
 58138  1  0  0  0
 59 60  1  0  0  0
 59 61  1  0  0  0
 59 62  1  0  0  0
 60139  1  0  0  0
 60140  1  0  0  0
 60141  1  0  0  0
 61142  1  0  0  0
 61143  1  0  0  0
 61144  1  0  0  0
 62145  1  0  0  0
 62146  1  0  0  0
 62147  1  0  0  0
 63 65  1  0  0  0
 63148  1  0  0  0
 63149  1  0  0  0
 63150  1  0  0  0
 64151  1  0  0  0
 65152  1  0  0  0
 68 86  1  0  0  0
 71 72  2  0  0  0
 71 73  1  0  0  0
 71153  1  0  0  0
 72 76  1  0  0  0
 72154  1  0  0  0
 73 74  2  0  0  0
 73 85  1  0  0  0
 74 75  1  0  0  0
 74 84  1  0  0  0
 75 76  2  0  0  0
 75 87  1  0  0  0
 76 88  1  0  0  0
 77 78  1  0  0  0
 77 79  1  0  0  0
 77155  1  0  0  0
 77156  1  0  0  0
 78 83  1  0  0  0
 78157  1  0  0  0
 78158  1  0  0  0
 79 88  1  0  0  0
 79159  1  0  0  0
 79160  1  0  0  0
 80 82  1  0  0  0
 80 90  1  0  0  0
 80161  1  0  0  0
 80162  1  0  0  0
 81 82  1  0  0  0
 81 90  1  0  0  0
 81163  1  0  0  0
 81164  1  0  0  0
 82 89  1  0  0  0
 82165  1  0  0  0
 83 86  1  0  0  0
 83 88  1  0  0  0
 83166  1  0  0  0
 84167  1  0  0  0
 84168  1  0  0  0
 84169  1  0  0  0
 85170  1  0  0  0
 85171  1  0  0  0
 85 90  1  0  0  0
 86172  1  0  0  0
 86173  1  0  0  0
 87 91  1  0  0  0
 87 92  1  0  0  0
 87 93  1  0  0  0
 89174  1  0  0  0
 90175  1  0  0  0
M  CHG  1  90   1
M  ISO  4   1 100  68 101  86 101  89 100
M  END
> <chiral flag>
0

> <version>
0

> <s_m_source_file>
/data/baiqing/PycharmProjects/Reinvent-master-3.2/result/LINK_invent/BTK/process_docking_weight1_custom_product_contain_oxygen_bond_distance_aromatic_linkinvent_7_9_3/rearranged_h_0027.sdf

> <i_m_source_file_index>
11

> <r_mmod_Potential_Energy-OPLS-2005>
93.4562072753906

> <r_mmod_Stretch_Energy-OPLS-2005>
42.7491798400879

> <r_mmod_Bend_Energy-OPLS-2005>
145.98649597168

> <r_mmod_Torsional_Energy-OPLS-2005>
349.713287353516

> <r_mmod_Improper_Torsional_Energy-OPLS-2005>
7.98906564712524

> <r_mmod_Van_der_Waal_Energy-OPLS-2005>
159.829879760742

> <r_mmod_Electrostatic_Energy-OPLS-2005>
-129.246246337891

> <r_mmod_Solvation_Energy-OPLS-2005>
-491.670166015625

> <b_mmod_Minimization_Converged-OPLS-2005>
0

> <r_mmod_RMS_Derivative-OPLS-2005>
2.13150072097778

$$$$
11
                    3D
 Structure written by MMmdl.
156165  0  0  1  0            999 V2000
  -30.4933  -14.9475   20.4181 C   0  0  0  0  0  0
  -30.4508  -12.5829   19.5002 C   0  0  0  0  0  0
  -29.5264  -12.5345   18.2595 C   0  0  0  0  0  0
  -28.0600  -12.3143   18.6773 C   0  0  0  0  0  0
  -27.6362  -13.2401   19.8479 C   0  0  2  0  0  0
  -28.6772  -13.2356   20.9880 C   0  0  0  0  0  0
  -25.2499  -13.8200   20.5706 C   0  0  0  0  0  0
  -24.1799  -13.0436   20.9215 C   0  0  0  0  0  0
  -24.6395  -11.6915   20.8750 C   0  0  0  0  0  0
  -23.9075  -10.4289   21.0416 C   0  0  0  0  0  0
  -24.3627   -9.4206   21.9192 C   0  0  0  0  0  0
  -23.6292   -8.2244   22.0760 C   0  0  0  0  0  0
  -22.4276   -8.0283   21.3549 C   0  0  0  0  0  0
  -21.9913   -9.0259   20.4648 C   0  0  0  0  0  0
  -22.7247  -10.2133   20.3060 C   0  0  0  0  0  0
  -21.6851   -6.0738   22.5277 C   0  0  0  0  0  0
  -21.4015   -6.5644   23.8211 C   0  0  0  0  0  0
  -21.3658   -5.6790   24.9169 C   0  0  0  0  0  0
  -21.6041   -4.3052   24.7217 C   0  0  0  0  0  0
  -21.8820   -3.8144   23.4341 C   0  0  0  0  0  0
  -21.9191   -4.6964   22.3403 C   0  0  0  0  0  0
  -22.7821  -13.5220   21.1864 C   0  0  0  0  0  0
  -22.1656   -4.2152   21.0979 F   0  0  0  0  0  0
  -21.5627   -3.4534   25.7730 F   0  0  0  0  0  0
  -29.9567  -13.6611   20.4032 N   0  0  0  0  0  0
  -26.2915  -12.9408   20.3268 N   0  0  0  0  0  0
  -25.9330  -11.6542   20.5751 N   0  0  0  0  0  0
  -22.0456  -12.8219   22.0416 N   0  0  0  0  0  0
  -25.4182  -15.1930   20.4120 N   0  0  0  0  0  0
  -31.6774  -15.0743   20.0829 O   0  0  0  0  0  0
  -21.6638   -6.8881   21.4240 O   0  0  0  0  0  0
  -22.3513  -14.5532   20.6712 O   0  0  0  0  0  0
  -24.6416  -31.8413   23.1820 C   0  0  0  0  0  0
  -25.9183  -32.4683   23.8223 C   0  0  1  0  0  0
  -27.2287  -27.1314   20.1583 C   0  0  0  0  0  0
  -25.5940  -33.8489   24.2154 N   0  0  0  0  0  0
  -23.4462  -30.4548   21.5265 C   0  0  2  0  0  0
  -24.8969  -28.8700   20.1082 C   0  0  0  0  0  0
  -22.7559  -29.4525   22.4842 C   0  0  0  0  0  0
  -18.0304  -28.1390   22.8479 C   0  0  0  0  0  0
  -24.1492  -36.7245   23.2649 C   0  0  0  0  0  0
  -25.9979  -30.7146   21.3771 C   0  0  0  0  0  0
  -26.0685  -29.3218   20.7246 C   0  0  0  0  0  0
  -27.2297  -28.4669   20.7298 C   0  0  0  0  0  0
  -26.0311  -26.7678   19.5102 C   0  0  0  0  0  0
  -24.8904  -27.6076   19.4864 C   0  0  0  0  0  0
  -23.6717  -29.7718   20.1486 C   0  0  0  0  0  0
  -25.4127  -36.3026   24.0317 C   0  0  1  0  0  0
  -20.5918  -28.3713   23.1243 C   0  0  2  0  0  0
  -20.6794  -26.9416   22.5404 C   0  0  0  0  0  0
  -19.5772  -26.6373   21.5214 C   0  0  0  0  0  0
  -18.1947  -26.7936   22.1611 C   0  0  0  0  0  0
  -19.1562  -28.8867   23.2859 C   0  0  0  0  0  0
  -18.9485  -30.1463   23.8882 C   0  0  0  0  0  0
  -17.6486  -30.6592   24.0558 C   0  0  0  0  0  0
  -25.9077  -34.9404   23.5048 C   0  0  0  0  0  0
  -16.5370  -29.9088   23.6336 C   0  0  0  0  0  0
  -16.7288  -28.6505   23.0357 C   0  0  0  0  0  0
  -26.4517  -31.6561   25.0668 C   0  0  0  0  0  0
  -25.3710  -31.3748   26.1370 C   0  0  0  0  0  0
  -27.0393  -30.2975   24.6220 C   0  0  0  0  0  0
  -27.6055  -32.4327   25.7447 C   0  0  0  0  0  0
  -27.5574  -37.1772   24.8471 C   0  0  0  0  0  0
  -21.4255  -29.3036   22.3614 N   0  0  0  0  0  0
  -26.4287  -37.3742   23.9418 N   0  0  0  0  0  0
  -24.7150  -31.0259   22.0843 N   0  0  0  0  0  0
  -23.4209  -28.8096   23.3009 O   0  0  0  0  0  0
  -28.3438  -26.2275   20.2577 O   0  0  0  0  0  0
  -26.5671  -34.8917   22.4632 O   0  0  0  0  0  0
  -23.5537  -32.1276   23.7054 O   0  0  0  0  0  0
  -28.7099  -19.8666   21.3456 C   0  0  0  0  0  0
  -29.7578  -19.7717   19.2509 C   0  0  0  0  0  0
  -28.9225  -18.4285   21.5067 C   0  0  0  0  0  0
  -29.0906  -20.6372   20.1969 C   0  0  0  0  0  0
  -29.5926  -17.5759   20.5490 C   0  0  0  0  0  0
  -30.0051  -18.3412   19.4060 C   0  0  0  0  0  0
  -28.1669  -24.0766   18.5805 C   0  0  0  0  0  0
  -28.7937  -22.6311   18.5840 C   0  0  0  0  0  0
  -28.4843  -23.3215   20.8217 C   0  0  0  0  0  0
  -28.5385  -24.7058   19.9305 C   0  0  2  0  0  0
  -28.3748  -17.7769   22.7655 C   0  0  0  0  0  0
  -28.8118  -22.0935   19.9553 N   0  0  0  0  0  0
  -29.6423  -16.0446   20.7142 N   0  0  0  0  0  0
  -30.6090  -17.6865   18.3856 F   0  0  0  0  0  0
  -31.4828  -12.7566   19.1916 H   0  0  0  0  0  0
  -30.4539  -11.6219   20.0170 H   0  0  0  0  0  0
  -29.8457  -11.7413   17.5822 H   0  0  0  0  0  0
  -29.6121  -13.4681   17.7004 H   0  0  0  0  0  0
  -27.9617  -11.2719   18.9830 H   0  0  0  0  0  0
  -27.3933  -12.4443   17.8241 H   0  0  0  0  0  0
  -27.6090  -14.2485   19.4345 H   0  0  0  0  0  0
  -28.7626  -12.2446   21.4365 H   0  0  0  0  0  0
  -28.3745  -13.9072   21.7925 H   0  0  0  0  0  0
  -25.2775   -9.5677   22.4770 H   0  0  0  0  0  0
  -23.9989   -7.4639   22.7489 H   0  0  0  0  0  0
  -21.0839   -8.8784   19.8959 H   0  0  0  0  0  0
  -22.3713  -10.9674   19.6171 H   0  0  0  0  0  0
  -21.2010   -7.6153   23.9716 H   0  0  0  0  0  0
  -21.1476   -6.0521   25.9072 H   0  0  0  0  0  0
  -22.0602   -2.7604   23.2836 H   0  0  0  0  0  0
  -22.4051  -11.9869   22.4802 H   0  0  0  0  0  0
  -21.1087  -13.1272   22.2623 H   0  0  0  0  0  0
  -24.6429  -15.8399   20.5098 H   0  0  0  0  0  0
  -26.2524  -15.6304   20.0427 H   0  0  0  0  0  0
  -26.7242  -32.5288   23.0945 H   0  0  0  0  0  0
  -25.0090  -33.9592   25.0309 H   0  0  0  0  0  0
  -22.7504  -31.2808   21.3651 H   0  0  0  0  0  0
  -23.3779  -35.9550   23.3279 H   0  0  0  0  0  0
  -24.3580  -36.8898   22.2068 H   0  0  0  0  0  0
  -23.7208  -37.6417   23.6703 H   0  0  0  0  0  0
  -26.1482  -31.4655   20.6005 H   0  0  0  0  0  0
  -26.8712  -30.7702   22.0148 H   0  0  0  0  0  0
  -28.1275  -28.8084   21.2256 H   0  0  0  0  0  0
  -25.9520  -25.7978   19.0454 H   0  0  0  0  0  0
  -23.9910  -27.2551   19.0006 H   0  0  0  0  0  0
  -23.8073  -30.5398   19.3868 H   0  0  0  0  0  0
  -22.7877  -29.2097   19.8418 H   0  0  0  0  0  0
  -25.1314  -36.1839   25.0807 H   0  0  0  0  0  0
  -21.0004  -28.3293   24.1368 H   0  0  0  0  0  0
  -20.5696  -26.2324   23.3624 H   0  0  0  0  0  0
  -21.6657  -26.7423   22.1193 H   0  0  0  0  0  0
  -19.6945  -25.6284   21.1243 H   0  0  0  0  0  0
  -19.6719  -27.3190   20.6757 H   0  0  0  0  0  0
  -17.4223  -26.6694   21.4007 H   0  0  0  0  0  0
  -18.0335  -26.0074   22.9005 H   0  0  0  0  0  0
  -19.7964  -30.7279   24.2243 H   0  0  0  0  0  0
  -17.5043  -31.6272   24.5159 H   0  0  0  0  0  0
  -15.5376  -30.2991   23.7674 H   0  0  0  0  0  0
  -15.8689  -28.0817   22.7085 H   0  0  0  0  0  0
  -24.5896  -30.7091   25.7684 H   0  0  0  0  0  0
  -24.8903  -32.2935   26.4744 H   0  0  0  0  0  0
  -25.7996  -30.8946   27.0178 H   0  0  0  0  0  0
  -26.2993  -29.6688   24.1258 H   0  0  0  0  0  0
  -27.4087  -29.7268   25.4750 H   0  0  0  0  0  0
  -27.8858  -30.4252   23.9472 H   0  0  0  0  0  0
  -27.2666  -33.3682   26.1907 H   0  0  0  0  0  0
  -28.3923  -32.6780   25.0302 H   0  0  0  0  0  0
  -28.0657  -31.8518   26.5448 H   0  0  0  0  0  0
  -28.2569  -38.0090   24.7519 H   0  0  0  0  0  0
  -28.1081  -36.2611   24.6286 H   0  0  0  0  0  0
  -27.2292  -37.1387   25.8875 H   0  0  0  0  0  0
  -20.9477  -29.8734   21.6773 H   0  0  0  0  0  0
  -26.0150  -38.2803   24.1443 H   0  0  0  0  0  0
  -28.1841  -20.3917   22.1310 H   0  0  0  0  0  0
  -30.1034  -20.2103   18.3273 H   0  0  0  0  0  0
  -27.0848  -23.9964   18.4881 H   0  0  0  0  0  0
  -28.5271  -24.6675   17.7379 H   0  0  0  0  0  0
  -29.8211  -22.6775   18.2186 H   0  0  0  0  0  0
  -28.2431  -21.9728   17.9105 H   0  0  0  0  0  0
  -27.4872  -23.1970   21.2461 H   0  0  0  0  0  0
  -29.1804  -23.3832   21.6600 H   0  0  0  0  0  0
  -29.6210  -24.7960   19.8255 H   0  0  0  0  0  0
  -27.9717  -18.5121   23.4623 H   0  0  0  0  0  0
  -29.1608  -17.2238   23.2811 H   0  0  0  0  0  0
  -27.5725  -17.0821   22.5150 H   0  0  0  0  0  0
  -28.7920  -15.6931   21.1253 H   0  0  0  0  0  0
  1 25  1  0  0  0
  1 30  2  0  0  0
  1 83  1  0  0  0
  2  3  1  0  0  0
  2 25  1  0  0  0
  2 85  1  0  0  0
  2 86  1  0  0  0
  3  4  1  0  0  0
  3 87  1  0  0  0
  3 88  1  0  0  0
  4  5  1  0  0  0
  4 89  1  0  0  0
  4 90  1  0  0  0
  5  6  1  0  0  0
  5 26  1  0  0  0
  5 91  1  0  0  0
  6 25  1  0  0  0
  6 92  1  0  0  0
  6 93  1  0  0  0
  7  8  2  0  0  0
  7 26  1  0  0  0
  7 29  1  0  0  0
  8  9  1  0  0  0
  8 22  1  0  0  0
  9 10  1  0  0  0
  9 27  2  0  0  0
 10 11  2  0  0  0
 10 15  1  0  0  0
 11 12  1  0  0  0
 11 94  1  0  0  0
 12 13  2  0  0  0
 12 95  1  0  0  0
 13 14  1  0  0  0
 13 31  1  0  0  0
 14 15  2  0  0  0
 14 96  1  0  0  0
 15 97  1  0  0  0
 16 17  2  0  0  0
 16 21  1  0  0  0
 16 31  1  0  0  0
 17 18  1  0  0  0
 17 98  1  0  0  0
 18 19  2  0  0  0
 18 99  1  0  0  0
 19 20  1  0  0  0
 19 24  1  0  0  0
 20 21  2  0  0  0
 20100  1  0  0  0
 21 23  1  0  0  0
 22 28  1  0  0  0
 22 32  2  0  0  0
 26 27  1  0  0  0
 28101  1  0  0  0
 28102  1  0  0  0
 29103  1  0  0  0
 29104  1  0  0  0
 33 34  1  0  0  0
 33 66  1  0  0  0
 33 70  2  0  0  0
 34 36  1  0  0  0
 34 59  1  0  0  0
 34105  1  0  0  0
 35 44  2  0  0  0
 35 45  1  0  0  0
 35 68  1  0  0  0
 36 56  1  0  0  0
 36106  1  0  0  0
 37 39  1  0  0  0
 37 47  1  0  0  0
 37 66  1  0  0  0
 37107  1  0  0  0
 38 43  2  0  0  0
 38 46  1  0  0  0
 38 47  1  0  0  0
 39 64  1  0  0  0
 39 67  2  0  0  0
 40 52  1  0  0  0
 40 53  2  0  0  0
 40 58  1  0  0  0
 41108  1  0  0  0
 41109  1  0  0  0
 41110  1  0  0  0
 41 48  1  0  0  0
 42 43  1  0  0  0
 42 66  1  0  0  0
 42111  1  0  0  0
 42112  1  0  0  0
 43 44  1  0  0  0
 44113  1  0  0  0
 45 46  2  0  0  0
 45114  1  0  0  0
 46115  1  0  0  0
 47116  1  0  0  0
 47117  1  0  0  0
 48 56  1  0  0  0
 48 65  1  0  0  0
 48118  1  0  0  0
 49 50  1  0  0  0
 49 53  1  0  0  0
 49 64  1  0  0  0
 49119  1  0  0  0
 50 51  1  0  0  0
 50120  1  0  0  0
 50121  1  0  0  0
 51 52  1  0  0  0
 51122  1  0  0  0
 51123  1  0  0  0
 52124  1  0  0  0
 52125  1  0  0  0
 53 54  1  0  0  0
 54 55  2  0  0  0
 54126  1  0  0  0
 55 57  1  0  0  0
 55127  1  0  0  0
 56 69  2  0  0  0
 57 58  2  0  0  0
 57128  1  0  0  0
 58129  1  0  0  0
 59 60  1  0  0  0
 59 61  1  0  0  0
 59 62  1  0  0  0
 60130  1  0  0  0
 60131  1  0  0  0
 60132  1  0  0  0
 61133  1  0  0  0
 61134  1  0  0  0
 61135  1  0  0  0
 62136  1  0  0  0
 62137  1  0  0  0
 62138  1  0  0  0
 63 65  1  0  0  0
 63139  1  0  0  0
 63140  1  0  0  0
 63141  1  0  0  0
 64142  1  0  0  0
 65143  1  0  0  0
 68 80  1  0  0  0
 71 73  2  0  0  0
 71 74  1  0  0  0
 71144  1  0  0  0
 72 74  2  0  0  0
 72 76  1  0  0  0
 72145  1  0  0  0
 73 75  1  0  0  0
 73 81  1  0  0  0
 74 82  1  0  0  0
 75 76  2  0  0  0
 75 83  1  0  0  0
 76 84  1  0  0  0
 77 78  1  0  0  0
 77 80  1  0  0  0
 77146  1  0  0  0
 77147  1  0  0  0
 78 82  1  0  0  0
 78148  1  0  0  0
 78149  1  0  0  0
 79 80  1  0  0  0
 79 82  1  0  0  0
 79150  1  0  0  0
 79151  1  0  0  0
 80152  1  0  0  0
 81153  1  0  0  0
 81154  1  0  0  0
 81155  1  0  0  0
 83156  1  0  0  0
M  ISO  4   1 100  68 101  80 101  83 100
M  END
> <chiral flag>
0

> <version>
0

> <s_m_source_file>
/data/baiqing/PycharmProjects/Reinvent-master-3.2/result/LINK_invent/BTK/process_docking_weight1_custom_product_contain_oxygen_bond_distance_aromatic_linkinvent_7_9_3/rearranged_h_0027.sdf

> <i_m_source_file_index>
12

> <r_mmod_Potential_Energy-OPLS-2005>
542.962036132812

> <r_mmod_Stretch_Energy-OPLS-2005>
221.322158813477

> <r_mmod_Bend_Energy-OPLS-2005>
376.707916259766

> <r_mmod_Torsional_Energy-OPLS-2005>
258.109252929688

> <r_mmod_Improper_Torsional_Energy-OPLS-2005>
3.7357120513916

> <r_mmod_Van_der_Waal_Energy-OPLS-2005>
123.253807067871

> <r_mmod_Electrostatic_Energy-OPLS-2005>
-396.465667724609

> <r_mmod_Solvation_Energy-OPLS-2005>
-231.936477661133

> <b_mmod_Minimization_Converged-OPLS-2005>
0

> <r_mmod_RMS_Derivative-OPLS-2005>
1.4262113571167

$$$$
12
                    3D
 Structure written by MMmdl.
165174  0  0  1  0            999 V2000
  -30.7005  -14.5832   20.5109 C   0  0  0  0  0  0
  -30.4055  -12.3622   19.4272 C   0  0  0  0  0  0
  -29.4859  -12.5257   18.1984 C   0  0  0  0  0  0
  -28.0036  -12.3831   18.6054 C   0  0  0  0  0  0
  -27.6478  -13.2235   19.8636 C   0  0  2  0  0  0
  -28.7013  -13.0338   20.9770 C   0  0  0  0  0  0
  -25.2495  -13.8200   20.5674 C   0  0  0  0  0  0
  -24.1769  -13.0431   20.9188 C   0  0  0  0  0  0
  -24.6362  -11.6921   20.8711 C   0  0  0  0  0  0
  -23.9035  -10.4291   21.0388 C   0  0  0  0  0  0
  -24.3591   -9.4211   21.9171 C   0  0  0  0  0  0
  -23.6276   -8.2239   22.0743 C   0  0  0  0  0  0
  -22.4266   -8.0259   21.3527 C   0  0  0  0  0  0
  -21.9887   -9.0226   20.4641 C   0  0  0  0  0  0
  -22.7204  -10.2121   20.3048 C   0  0  0  0  0  0
  -21.6851   -6.0715   22.5272 C   0  0  0  0  0  0
  -21.4017   -6.5624   23.8200 C   0  0  0  0  0  0
  -21.3660   -5.6779   24.9167 C   0  0  0  0  0  0
  -21.6051   -4.3043   24.7223 C   0  0  0  0  0  0
  -21.8813   -3.8127   23.4340 C   0  0  0  0  0  0
  -21.9184   -4.6939   22.3396 C   0  0  0  0  0  0
  -22.7785  -13.5198   21.1854 C   0  0  0  0  0  0
  -22.1639   -4.2117   21.0973 F   0  0  0  0  0  0
  -21.5641   -3.4531   25.7743 F   0  0  0  0  0  0
  -30.0087  -13.3968   20.4098 N   0  0  0  0  0  0
  -26.2949  -12.9397   20.3353 N   0  0  0  0  0  0
  -25.9302  -11.6534   20.5752 N   0  0  0  0  0  0
  -22.0436  -12.8190   22.0444 N   0  0  0  0  0  0
  -25.4119  -15.1922   20.4041 N   0  0  0  0  0  0
  -31.8653  -14.6387   20.1011 O   0  0  0  0  0  0
  -21.6640   -6.8853   21.4230 O   0  0  0  0  0  0
  -22.3436  -14.5459   20.6669 O   0  0  0  0  0  0
  -24.6274  -31.8621   23.2026 C   0  0  0  0  0  0
  -25.9123  -32.4783   23.8351 C   0  0  1  0  0  0
  -27.2124  -27.3103   20.0911 C   0  0  0  0  0  0
  -25.5974  -33.8583   24.2292 N   0  0  0  0  0  0
  -23.4180  -30.4906   21.5478 C   0  0  2  0  0  0
  -24.8589  -28.9467   20.1093 C   0  0  0  0  0  0
  -22.7509  -29.4610   22.4909 C   0  0  0  0  0  0
  -18.0315  -28.1401   22.8487 C   0  0  0  0  0  0
  -24.1496  -36.7264   23.2647 C   0  0  0  0  0  0
  -25.9652  -30.7823   21.3799 C   0  0  0  0  0  0
  -26.0302  -29.4115   20.7176 C   0  0  0  0  0  0
  -27.2072  -28.6023   20.7086 C   0  0  0  0  0  0
  -26.0194  -26.9146   19.4427 C   0  0  0  0  0  0
  -24.8547  -27.7021   19.4662 C   0  0  0  0  0  0
  -23.6319  -29.8324   20.1605 C   0  0  0  0  0  0
  -25.4106  -36.3066   24.0345 C   0  0  1  0  0  0
  -20.5920  -28.3666   23.1288 C   0  0  2  0  0  0
  -20.6791  -26.9371   22.5437 C   0  0  0  0  0  0
  -19.5752  -26.6362   21.5259 C   0  0  0  0  0  0
  -18.1935  -26.7945   22.1642 C   0  0  0  0  0  0
  -19.1567  -28.8849   23.2886 C   0  0  0  0  0  0
  -18.9486  -30.1465   23.8879 C   0  0  0  0  0  0
  -17.6475  -30.6575   24.0559 C   0  0  0  0  0  0
  -25.9074  -34.9458   23.5103 C   0  0  0  0  0  0
  -16.5372  -29.9063   23.6340 C   0  0  0  0  0  0
  -16.7294  -28.6505   23.0323 C   0  0  0  0  0  0
  -26.4486  -31.6572   25.0719 C   0  0  0  0  0  0
  -25.3709  -31.3744   26.1448 C   0  0  0  0  0  0
  -27.0310  -30.3000   24.6150 C   0  0  0  0  0  0
  -27.6049  -32.4298   25.7499 C   0  0  0  0  0  0
  -27.5561  -37.1803   24.8471 C   0  0  0  0  0  0
  -21.4222  -29.3015   22.3670 N   0  0  0  0  0  0
  -26.4264  -37.3781   23.9442 N   0  0  0  0  0  0
  -24.6887  -31.0630   22.0972 N   0  0  0  0  0  0
  -23.4265  -28.8091   23.2919 O   0  0  0  0  0  0
  -28.3324  -26.4591   20.1388 O   0  0  0  0  0  0
  -26.5614  -34.8925   22.4662 O   0  0  0  0  0  0
  -23.5425  -32.1440   23.7334 O   0  0  0  0  0  0
  -28.7571  -18.9331   19.4933 C   0  0  0  0  0  0
  -28.3592  -20.2951   19.6108 C   0  0  0  0  0  0
  -30.6324  -19.3867   20.9227 C   0  0  0  0  0  0
  -29.8993  -18.4396   20.1649 C   0  0  0  0  0  0
  -29.0711  -21.2510   20.3911 C   0  0  0  0  0  0
  -30.2496  -20.7547   21.0320 C   0  0  0  0  0  0
  -28.4370  -23.8063   23.1073 C   0  0  0  0  0  0
  -27.0806  -23.4578   22.5010 C   0  0  0  0  0  0
  -29.3721  -24.3958   22.0356 C   0  0  0  0  0  0
  -27.2615  -22.3465   21.4546 C   0  0  0  0  0  0
  -29.0684  -23.9130   20.5851 C   0  0  2  0  0  0
  -29.2411  -16.0170   21.9207 C   0  0  0  0  0  0
  -30.4499  -16.9932   19.9206 C   0  0  0  0  0  0
  -28.1847  -25.0124   19.8188 C   0  0  0  0  0  0
  -28.4533  -22.5346   20.6075 N   0  0  0  0  0  0
  -30.0108  -15.7694   20.6937 N   0  0  0  0  0  0
  -31.2728  -21.7607   21.9891 Cl  0  0  0  0  0  0
  -31.4530  -12.4259   19.1303 H   0  0  0  0  0  0
  -30.2879  -11.3620   19.8494 H   0  0  0  0  0  0
  -29.7351  -11.7972   17.4258 H   0  0  0  0  0  0
  -29.6526  -13.5053   17.7483 H   0  0  0  0  0  0
  -27.8076  -11.3259   18.7936 H   0  0  0  0  0  0
  -27.3575  -12.6673   17.7730 H   0  0  0  0  0  0
  -27.6776  -14.2696   19.5575 H   0  0  0  0  0  0
  -28.7161  -11.9913   21.3007 H   0  0  0  0  0  0
  -28.4510  -13.5936   21.8719 H   0  0  0  0  0  0
  -25.2737   -9.5693   22.4740 H   0  0  0  0  0  0
  -23.9982   -7.4635   22.7467 H   0  0  0  0  0  0
  -21.0805   -8.8724   19.8956 H   0  0  0  0  0  0
  -22.3628  -10.9639   19.6145 H   0  0  0  0  0  0
  -21.2012   -7.6134   23.9689 H   0  0  0  0  0  0
  -21.1497   -6.0520   25.9064 H   0  0  0  0  0  0
  -22.0599   -2.7589   23.2857 H   0  0  0  0  0  0
  -22.4065  -11.9881   22.4847 H   0  0  0  0  0  0
  -21.1054  -13.1202   22.2653 H   0  0  0  0  0  0
  -24.6317  -15.8362   20.4802 H   0  0  0  0  0  0
  -26.2613  -15.6403   20.0813 H   0  0  0  0  0  0
  -26.7166  -32.5432   23.1074 H   0  0  0  0  0  0
  -25.0164  -33.9749   25.0451 H   0  0  0  0  0  0
  -22.7076  -31.3106   21.4129 H   0  0  0  0  0  0
  -23.3767  -35.9594   23.3345 H   0  0  0  0  0  0
  -24.3584  -36.8834   22.2061 H   0  0  0  0  0  0
  -23.7269  -37.6484   23.6635 H   0  0  0  0  0  0
  -26.1131  -31.5401   20.6080 H   0  0  0  0  0  0
  -26.8426  -30.8270   22.0110 H   0  0  0  0  0  0
  -28.1009  -28.9544   21.2031 H   0  0  0  0  0  0
  -25.9472  -25.9865   18.8955 H   0  0  0  0  0  0
  -23.9588  -27.3445   18.9786 H   0  0  0  0  0  0
  -23.7628  -30.6154   19.4143 H   0  0  0  0  0  0
  -22.7457  -29.2759   19.8465 H   0  0  0  0  0  0
  -25.1295  -36.1886   25.0833 H   0  0  0  0  0  0
  -21.0051  -28.3283   24.1395 H   0  0  0  0  0  0
  -20.5750  -26.2265   23.3644 H   0  0  0  0  0  0
  -21.6645  -26.7398   22.1186 H   0  0  0  0  0  0
  -19.6891  -25.6284   21.1236 H   0  0  0  0  0  0
  -19.6725  -27.3240   20.6850 H   0  0  0  0  0  0
  -17.4228  -26.6760   21.4004 H   0  0  0  0  0  0
  -18.0228  -26.0111   22.9042 H   0  0  0  0  0  0
  -19.7966  -30.7296   24.2218 H   0  0  0  0  0  0
  -17.5031  -31.6261   24.5162 H   0  0  0  0  0  0
  -15.5364  -30.2935   23.7656 H   0  0  0  0  0  0
  -15.8730  -28.0812   22.6973 H   0  0  0  0  0  0
  -24.5879  -30.7081   25.7813 H   0  0  0  0  0  0
  -24.8899  -32.2934   26.4829 H   0  0  0  0  0  0
  -25.8024  -30.8980   27.0253 H   0  0  0  0  0  0
  -26.2885  -29.6825   24.1088 H   0  0  0  0  0  0
  -27.3967  -29.7158   25.4599 H   0  0  0  0  0  0
  -27.8766  -30.4326   23.9390 H   0  0  0  0  0  0
  -27.2641  -33.3608   26.2027 H   0  0  0  0  0  0
  -28.3870  -32.6855   25.0339 H   0  0  0  0  0  0
  -28.0684  -31.8466   26.5460 H   0  0  0  0  0  0
  -28.2576  -38.0108   24.7545 H   0  0  0  0  0  0
  -28.1084  -36.2662   24.6250 H   0  0  0  0  0  0
  -27.2324  -37.1370   25.8887 H   0  0  0  0  0  0
  -20.9372  -29.8785   21.6950 H   0  0  0  0  0  0
  -26.0142  -38.2850   24.1445 H   0  0  0  0  0  0
  -28.1876  -18.2744   18.8521 H   0  0  0  0  0  0
  -27.4681  -20.6107   19.0873 H   0  0  0  0  0  0
  -31.5357  -19.0714   21.4239 H   0  0  0  0  0  0
  -28.8707  -22.8836   23.4951 H   0  0  0  0  0  0
  -28.3301  -24.4829   23.9568 H   0  0  0  0  0  0
  -26.6190  -24.3452   22.0641 H   0  0  0  0  0  0
  -26.3994  -23.1174   23.2802 H   0  0  0  0  0  0
  -30.4063  -24.1931   22.3033 H   0  0  0  0  0  0
  -29.3113  -25.4812   22.0865 H   0  0  0  0  0  0
  -26.3682  -22.2269   20.8420 H   0  0  0  0  0  0
  -27.3775  -21.4216   22.0266 H   0  0  0  0  0  0
  -30.0176  -23.8428   20.0518 H   0  0  0  0  0  0
  -28.1865  -15.7890   21.7654 H   0  0  0  0  0  0
  -29.3018  -17.0466   22.2692 H   0  0  0  0  0  0
  -29.6075  -15.3996   22.7426 H   0  0  0  0  0  0
  -31.5347  -17.0819   20.0073 H   0  0  0  0  0  0
  -30.2814  -16.7743   18.8645 H   0  0  0  0  0  0
  -27.1546  -24.6884   19.9289 H   0  0  0  0  0  0
  -28.3925  -24.9156   18.7517 H   0  0  0  0  0  0
  1 25  1  0  0  0
  1 30  2  0  0  0
  1 86  1  0  0  0
  2  3  1  0  0  0
  2 25  1  0  0  0
  2 88  1  0  0  0
  2 89  1  0  0  0
  3  4  1  0  0  0
  3 90  1  0  0  0
  3 91  1  0  0  0
  4  5  1  0  0  0
  4 92  1  0  0  0
  4 93  1  0  0  0
  5  6  1  0  0  0
  5 26  1  0  0  0
  5 94  1  0  0  0
  6 25  1  0  0  0
  6 95  1  0  0  0
  6 96  1  0  0  0
  7  8  2  0  0  0
  7 26  1  0  0  0
  7 29  1  0  0  0
  8  9  1  0  0  0
  8 22  1  0  0  0
  9 10  1  0  0  0
  9 27  2  0  0  0
 10 11  2  0  0  0
 10 15  1  0  0  0
 11 12  1  0  0  0
 11 97  1  0  0  0
 12 13  2  0  0  0
 12 98  1  0  0  0
 13 14  1  0  0  0
 13 31  1  0  0  0
 14 15  2  0  0  0
 14 99  1  0  0  0
 15100  1  0  0  0
 16 17  2  0  0  0
 16 21  1  0  0  0
 16 31  1  0  0  0
 17 18  1  0  0  0
 17101  1  0  0  0
 18 19  2  0  0  0
 18102  1  0  0  0
 19 20  1  0  0  0
 19 24  1  0  0  0
 20 21  2  0  0  0
 20103  1  0  0  0
 21 23  1  0  0  0
 22 28  1  0  0  0
 22 32  2  0  0  0
 26 27  1  0  0  0
 28104  1  0  0  0
 28105  1  0  0  0
 29106  1  0  0  0
 29107  1  0  0  0
 33 34  1  0  0  0
 33 66  1  0  0  0
 33 70  2  0  0  0
 34 36  1  0  0  0
 34 59  1  0  0  0
 34108  1  0  0  0
 35 44  2  0  0  0
 35 45  1  0  0  0
 35 68  1  0  0  0
 36 56  1  0  0  0
 36109  1  0  0  0
 37 39  1  0  0  0
 37 47  1  0  0  0
 37 66  1  0  0  0
 37110  1  0  0  0
 38 43  2  0  0  0
 38 46  1  0  0  0
 38 47  1  0  0  0
 39 64  1  0  0  0
 39 67  2  0  0  0
 40 52  1  0  0  0
 40 53  2  0  0  0
 40 58  1  0  0  0
 41111  1  0  0  0
 41112  1  0  0  0
 41113  1  0  0  0
 41 48  1  0  0  0
 42 43  1  0  0  0
 42 66  1  0  0  0
 42114  1  0  0  0
 42115  1  0  0  0
 43 44  1  0  0  0
 44116  1  0  0  0
 45 46  2  0  0  0
 45117  1  0  0  0
 46118  1  0  0  0
 47119  1  0  0  0
 47120  1  0  0  0
 48 56  1  0  0  0
 48 65  1  0  0  0
 48121  1  0  0  0
 49 50  1  0  0  0
 49 53  1  0  0  0
 49 64  1  0  0  0
 49122  1  0  0  0
 50 51  1  0  0  0
 50123  1  0  0  0
 50124  1  0  0  0
 51 52  1  0  0  0
 51125  1  0  0  0
 51126  1  0  0  0
 52127  1  0  0  0
 52128  1  0  0  0
 53 54  1  0  0  0
 54 55  2  0  0  0
 54129  1  0  0  0
 55 57  1  0  0  0
 55130  1  0  0  0
 56 69  2  0  0  0
 57 58  2  0  0  0
 57131  1  0  0  0
 58132  1  0  0  0
 59 60  1  0  0  0
 59 61  1  0  0  0
 59 62  1  0  0  0
 60133  1  0  0  0
 60134  1  0  0  0
 60135  1  0  0  0
 61136  1  0  0  0
 61137  1  0  0  0
 61138  1  0  0  0
 62139  1  0  0  0
 62140  1  0  0  0
 62141  1  0  0  0
 63 65  1  0  0  0
 63142  1  0  0  0
 63143  1  0  0  0
 63144  1  0  0  0
 64145  1  0  0  0
 65146  1  0  0  0
 68 84  1  0  0  0
 71 72  2  0  0  0
 71 74  1  0  0  0
 71147  1  0  0  0
 72 75  1  0  0  0
 72148  1  0  0  0
 73 74  2  0  0  0
 73 76  1  0  0  0
 73149  1  0  0  0
 74 83  1  0  0  0
 75 76  2  0  0  0
 75 85  1  0  0  0
 76 87  1  0  0  0
 77 78  1  0  0  0
 77 79  1  0  0  0
 77150  1  0  0  0
 77151  1  0  0  0
 78 80  1  0  0  0
 78152  1  0  0  0
 78153  1  0  0  0
 79 81  1  0  0  0
 79154  1  0  0  0
 79155  1  0  0  0
 80 85  1  0  0  0
 80156  1  0  0  0
 80157  1  0  0  0
 81 84  1  0  0  0
 81 85  1  0  0  0
 81158  1  0  0  0
 82 86  1  0  0  0
 82159  1  0  0  0
 82160  1  0  0  0
 82161  1  0  0  0
 83 86  1  0  0  0
 83162  1  0  0  0
 83163  1  0  0  0
 84164  1  0  0  0
 84165  1  0  0  0
M  ISO  4   1 100  68 101  84 101  86 100
M  END
> <chiral flag>
0

> <version>
0

> <s_m_source_file>
/data/baiqing/PycharmProjects/Reinvent-master-3.2/result/LINK_invent/BTK/process_docking_weight1_custom_product_contain_oxygen_bond_distance_aromatic_linkinvent_7_9_3/rearranged_h_0027.sdf

> <i_m_source_file_index>
13

> <r_mmod_Potential_Energy-OPLS-2005>
356.479309082031

> <r_mmod_Stretch_Energy-OPLS-2005>
89.7430725097656

> <r_mmod_Bend_Energy-OPLS-2005>
176.059844970703

> <r_mmod_Torsional_Energy-OPLS-2005>
348.0078125

> <r_mmod_Improper_Torsional_Energy-OPLS-2005>
15.2173938751221

> <r_mmod_Van_der_Waal_Energy-OPLS-2005>
170.609909057617

> <r_mmod_Electrostatic_Energy-OPLS-2005>
-288.527526855469

> <r_mmod_Solvation_Energy-OPLS-2005>
-196.926696777344

> <b_mmod_Minimization_Converged-OPLS-2005>
0

> <r_mmod_RMS_Derivative-OPLS-2005>
5.03574752807617

$$$$
13
                    3D
 Structure written by MMmdl.
155164  0  0  1  0            999 V2000
  -30.5552  -14.8505   20.3943 C   0  0  0  0  0  0
  -30.4379  -12.5089   19.4920 C   0  0  0  0  0  0
  -29.5186  -12.5015   18.2470 C   0  0  0  0  0  0
  -28.0464  -12.2964   18.6564 C   0  0  0  0  0  0
  -27.6281  -13.2235   19.8260 C   0  0  2  0  0  0
  -28.6695  -13.2292   20.9630 C   0  0  0  0  0  0
  -25.2493  -13.8163   20.5682 C   0  0  0  0  0  0
  -24.1787  -13.0430   20.9229 C   0  0  0  0  0  0
  -24.6356  -11.6907   20.8750 C   0  0  0  0  0  0
  -23.9023  -10.4305   21.0423 C   0  0  0  0  0  0
  -24.3599   -9.4224   21.9195 C   0  0  0  0  0  0
  -23.6304   -8.2239   22.0759 C   0  0  0  0  0  0
  -22.4281   -8.0281   21.3554 C   0  0  0  0  0  0
  -21.9902   -9.0243   20.4653 C   0  0  0  0  0  0
  -22.7201  -10.2140   20.3066 C   0  0  0  0  0  0
  -21.6846   -6.0756   22.5296 C   0  0  0  0  0  0
  -21.4006   -6.5653   23.8238 C   0  0  0  0  0  0
  -21.3661   -5.6799   24.9190 C   0  0  0  0  0  0
  -21.6047   -4.3071   24.7229 C   0  0  0  0  0  0
  -21.8815   -3.8172   23.4349 C   0  0  0  0  0  0
  -21.9194   -4.6990   22.3409 C   0  0  0  0  0  0
  -22.7832  -13.5241   21.1911 C   0  0  0  0  0  0
  -22.1662   -4.2176   21.0993 F   0  0  0  0  0  0
  -21.5631   -3.4547   25.7740 F   0  0  0  0  0  0
  -29.9677  -13.5951   20.3860 N   0  0  0  0  0  0
  -26.2877  -12.9340   20.3166 N   0  0  0  0  0  0
  -25.9273  -11.6507   20.5695 N   0  0  0  0  0  0
  -22.0460  -12.8230   22.0458 N   0  0  0  0  0  0
  -25.4213  -15.1888   20.4161 N   0  0  0  0  0  0
  -31.7704  -14.9159   20.1783 O   0  0  0  0  0  0
  -21.6637   -6.8888   21.4259 O   0  0  0  0  0  0
  -22.3526  -14.5545   20.6749 O   0  0  0  0  0  0
  -24.6371  -31.8510   23.1931 C   0  0  0  0  0  0
  -25.9181  -32.4732   23.8306 C   0  0  1  0  0  0
  -27.2228  -27.2101   20.1520 C   0  0  0  0  0  0
  -25.5962  -33.8536   24.2242 N   0  0  0  0  0  0
  -23.4374  -30.4702   21.5387 C   0  0  2  0  0  0
  -24.8861  -28.8995   20.1201 C   0  0  0  0  0  0
  -22.7535  -29.4589   22.4907 C   0  0  0  0  0  0
  -18.0300  -28.1403   22.8484 C   0  0  0  0  0  0
  -24.1489  -36.7257   23.2641 C   0  0  0  0  0  0
  -25.9867  -30.7487   21.3791 C   0  0  0  0  0  0
  -26.0597  -29.3637   20.7279 C   0  0  0  0  0  0
  -27.2334  -28.5338   20.7244 C   0  0  0  0  0  0
  -26.0243  -26.8193   19.5215 C   0  0  0  0  0  0
  -24.8749  -27.6374   19.5056 C   0  0  0  0  0  0
  -23.6614  -29.7961   20.1585 C   0  0  0  0  0  0
  -25.4113  -36.3056   24.0335 C   0  0  1  0  0  0
  -20.5912  -28.3719   23.1256 C   0  0  2  0  0  0
  -20.6800  -26.9432   22.5404 C   0  0  0  0  0  0
  -19.5775  -26.6391   21.5221 C   0  0  0  0  0  0
  -18.1947  -26.7944   22.1619 C   0  0  0  0  0  0
  -19.1556  -28.8875   23.2869 C   0  0  0  0  0  0
  -18.9473  -30.1472   23.8895 C   0  0  0  0  0  0
  -17.6475  -30.6599   24.0561 C   0  0  0  0  0  0
  -25.9066  -34.9433   23.5091 C   0  0  0  0  0  0
  -16.5365  -29.9090   23.6339 C   0  0  0  0  0  0
  -16.7286  -28.6508   23.0354 C   0  0  0  0  0  0
  -26.4522  -31.6572   25.0721 C   0  0  0  0  0  0
  -25.3725  -31.3748   26.1441 C   0  0  0  0  0  0
  -27.0372  -30.2979   24.6240 C   0  0  0  0  0  0
  -27.6080  -32.4315   25.7487 C   0  0  0  0  0  0
  -27.5590  -37.1771   24.8452 C   0  0  0  0  0  0
  -21.4237  -29.3045   22.3632 N   0  0  0  0  0  0
  -26.4277  -37.3766   23.9432 N   0  0  0  0  0  0
  -24.7067  -31.0435   22.0930 N   0  0  0  0  0  0
  -23.4207  -28.8150   23.3050 O   0  0  0  0  0  0
  -28.3186  -26.3054   20.1396 O   0  0  0  0  0  0
  -26.5633  -34.8920   22.4660 O   0  0  0  0  0  0
  -23.5509  -32.1355   23.7195 O   0  0  0  0  0  0
  -27.1311  -19.5114   18.8500 C   0  0  0  0  0  0
  -27.9895  -18.4778   19.2499 C   0  0  0  0  0  0
  -27.3362  -20.8399   19.2623 C   0  0  0  0  0  0
  -29.1207  -18.7249   20.0500 C   0  0  0  0  0  0
  -29.3058  -20.1414   20.4499 C   0  0  0  0  0  0
  -28.4037  -21.2652   20.0910 C   0  0  0  0  0  0
  -30.0044  -17.4498   20.3326 C   0  0  0  0  0  0
  -29.6527  -16.0889   20.3626 C   0  0  0  0  0  0
  -27.3896  -23.7159   19.9171 C   0  0  0  0  0  0
  -29.3508  -23.7855   20.5111 C   0  0  0  0  0  0
  -28.1811  -24.8665   20.6332 C   0  0  0  0  0  0
  -30.5109  -20.4675   21.3104 C   0  0  0  0  0  0
  -28.3192  -22.7171   20.5239 N   0  0  0  0  0  0
  -31.4781  -12.6474   19.1924 H   0  0  0  0  0  0
  -30.4026  -11.5465   20.0062 H   0  0  0  0  0  0
  -29.8258  -11.7146   17.5569 H   0  0  0  0  0  0
  -29.6206  -13.4438   17.7067 H   0  0  0  0  0  0
  -27.9309  -11.2534   18.9519 H   0  0  0  0  0  0
  -27.3854  -12.4439   17.8015 H   0  0  0  0  0  0
  -27.5886  -14.2194   19.3913 H   0  0  0  0  0  0
  -28.7262  -12.2527   21.4461 H   0  0  0  0  0  0
  -28.3854  -13.9418   21.7392 H   0  0  0  0  0  0
  -25.2751   -9.5716   22.4763 H   0  0  0  0  0  0
  -24.0043   -7.4613   22.7447 H   0  0  0  0  0  0
  -21.0842   -8.8715   19.8950 H   0  0  0  0  0  0
  -22.3635  -10.9671   19.6174 H   0  0  0  0  0  0
  -21.1981   -7.6167   23.9745 H   0  0  0  0  0  0
  -21.1490   -6.0528   25.9087 H   0  0  0  0  0  0
  -22.0594   -2.7634   23.2821 H   0  0  0  0  0  0
  -22.4065  -11.9877   22.4828 H   0  0  0  0  0  0
  -21.1079  -13.1273   22.2687 H   0  0  0  0  0  0
  -24.6575  -15.8438   20.5439 H   0  0  0  0  0  0
  -26.2795  -15.6356   20.1224 H   0  0  0  0  0  0
  -26.7248  -32.5368   23.1043 H   0  0  0  0  0  0
  -25.0131  -33.9657   25.0406 H   0  0  0  0  0  0
  -22.7367  -31.2947   21.3857 H   0  0  0  0  0  0
  -23.3787  -35.9549   23.3241 H   0  0  0  0  0  0
  -24.3588  -36.8931   22.2061 H   0  0  0  0  0  0
  -23.7185  -37.6421   23.6691 H   0  0  0  0  0  0
  -26.1302  -31.5049   20.6066 H   0  0  0  0  0  0
  -26.8619  -30.8011   22.0146 H   0  0  0  0  0  0
  -28.1384  -28.8907   21.1963 H   0  0  0  0  0  0
  -25.9679  -25.8579   19.0354 H   0  0  0  0  0  0
  -23.9774  -27.2771   19.0219 H   0  0  0  0  0  0
  -23.7988  -30.5688   19.4014 H   0  0  0  0  0  0
  -22.7778  -29.2343   19.8491 H   0  0  0  0  0  0
  -25.1292  -36.1877   25.0817 H   0  0  0  0  0  0
  -21.0004  -28.3303   24.1383 H   0  0  0  0  0  0
  -20.5722  -26.2326   23.3616 H   0  0  0  0  0  0
  -21.6661  -26.7465   22.1189 H   0  0  0  0  0  0
  -19.6933  -25.6299   21.1259 H   0  0  0  0  0  0
  -19.6716  -27.3193   20.6752 H   0  0  0  0  0  0
  -17.4223  -26.6703   21.4010 H   0  0  0  0  0  0
  -18.0334  -26.0081   22.9011 H   0  0  0  0  0  0
  -19.7943  -30.7285   24.2266 H   0  0  0  0  0  0
  -17.5024  -31.6283   24.5164 H   0  0  0  0  0  0
  -15.5362  -30.2996   23.7674 H   0  0  0  0  0  0
  -15.8683  -28.0829   22.7080 H   0  0  0  0  0  0
  -24.5876  -30.7141   25.7744 H   0  0  0  0  0  0
  -24.8966  -32.2937   26.4878 H   0  0  0  0  0  0
  -25.8030  -30.8889   27.0209 H   0  0  0  0  0  0
  -26.2971  -29.6713   24.1260 H   0  0  0  0  0  0
  -27.4025  -29.7258   25.4775 H   0  0  0  0  0  0
  -27.8856  -30.4237   23.9515 H   0  0  0  0  0  0
  -27.2694  -33.3608   26.2077 H   0  0  0  0  0  0
  -28.3887  -32.6886   25.0317 H   0  0  0  0  0  0
  -28.0767  -31.8438   26.5388 H   0  0  0  0  0  0
  -28.2553  -38.0122   24.7587 H   0  0  0  0  0  0
  -28.1144  -36.2664   24.6165 H   0  0  0  0  0  0
  -27.2326  -37.1262   25.8854 H   0  0  0  0  0  0
  -20.9451  -29.8720   21.6776 H   0  0  0  0  0  0
  -26.0150  -38.2825   24.1497 H   0  0  0  0  0  0
  -26.2879  -19.2805   18.2162 H   0  0  0  0  0  0
  -27.7850  -17.4826   18.8836 H   0  0  0  0  0  0
  -26.5916  -21.5461   18.9260 H   0  0  0  0  0  0
  -31.0575  -17.6709   20.4332 H   0  0  0  0  0  0
  -28.5961  -15.8989   20.2960 H   0  0  0  0  0  0
  -27.4628  -23.7566   18.8294 H   0  0  0  0  0  0
  -26.3544  -23.6208   20.2498 H   0  0  0  0  0  0
  -30.0236  -23.7649   21.3691 H   0  0  0  0  0  0
  -29.8997  -23.8325   19.5692 H   0  0  0  0  0  0
  -27.8582  -24.9221   21.6745 H   0  0  0  0  0  0
  -30.7633  -19.6412   21.9747 H   0  0  0  0  0  0
  -30.3292  -21.3424   21.9331 H   0  0  0  0  0  0
  -31.3744  -20.6741   20.6786 H   0  0  0  0  0  0
  1 25  1  0  0  0
  1 30  2  0  0  0
  1 78  1  0  0  0
  2  3  1  0  0  0
  2 25  1  0  0  0
  2 84  1  0  0  0
  2 85  1  0  0  0
  3  4  1  0  0  0
  3 86  1  0  0  0
  3 87  1  0  0  0
  4  5  1  0  0  0
  4 88  1  0  0  0
  4 89  1  0  0  0
  5  6  1  0  0  0
  5 26  1  0  0  0
  5 90  1  0  0  0
  6 25  1  0  0  0
  6 91  1  0  0  0
  6 92  1  0  0  0
  7  8  2  0  0  0
  7 26  1  0  0  0
  7 29  1  0  0  0
  8  9  1  0  0  0
  8 22  1  0  0  0
  9 10  1  0  0  0
  9 27  2  0  0  0
 10 11  2  0  0  0
 10 15  1  0  0  0
 11 12  1  0  0  0
 11 93  1  0  0  0
 12 13  2  0  0  0
 12 94  1  0  0  0
 13 14  1  0  0  0
 13 31  1  0  0  0
 14 15  2  0  0  0
 14 95  1  0  0  0
 15 96  1  0  0  0
 16 17  2  0  0  0
 16 21  1  0  0  0
 16 31  1  0  0  0
 17 18  1  0  0  0
 17 97  1  0  0  0
 18 19  2  0  0  0
 18 98  1  0  0  0
 19 20  1  0  0  0
 19 24  1  0  0  0
 20 21  2  0  0  0
 20 99  1  0  0  0
 21 23  1  0  0  0
 22 28  1  0  0  0
 22 32  2  0  0  0
 26 27  1  0  0  0
 28100  1  0  0  0
 28101  1  0  0  0
 29102  1  0  0  0
 29103  1  0  0  0
 33 34  1  0  0  0
 33 66  1  0  0  0
 33 70  2  0  0  0
 34 36  1  0  0  0
 34 59  1  0  0  0
 34104  1  0  0  0
 35 44  2  0  0  0
 35 45  1  0  0  0
 35 68  1  0  0  0
 36 56  1  0  0  0
 36105  1  0  0  0
 37 39  1  0  0  0
 37 47  1  0  0  0
 37 66  1  0  0  0
 37106  1  0  0  0
 38 43  2  0  0  0
 38 46  1  0  0  0
 38 47  1  0  0  0
 39 64  1  0  0  0
 39 67  2  0  0  0
 40 52  1  0  0  0
 40 53  2  0  0  0
 40 58  1  0  0  0
 41107  1  0  0  0
 41108  1  0  0  0
 41109  1  0  0  0
 41 48  1  0  0  0
 42 43  1  0  0  0
 42 66  1  0  0  0
 42110  1  0  0  0
 42111  1  0  0  0
 43 44  1  0  0  0
 44112  1  0  0  0
 45 46  2  0  0  0
 45113  1  0  0  0
 46114  1  0  0  0
 47115  1  0  0  0
 47116  1  0  0  0
 48 56  1  0  0  0
 48 65  1  0  0  0
 48117  1  0  0  0
 49 50  1  0  0  0
 49 53  1  0  0  0
 49 64  1  0  0  0
 49118  1  0  0  0
 50 51  1  0  0  0
 50119  1  0  0  0
 50120  1  0  0  0
 51 52  1  0  0  0
 51121  1  0  0  0
 51122  1  0  0  0
 52123  1  0  0  0
 52124  1  0  0  0
 53 54  1  0  0  0
 54 55  2  0  0  0
 54125  1  0  0  0
 55 57  1  0  0  0
 55126  1  0  0  0
 56 69  2  0  0  0
 57 58  2  0  0  0
 57127  1  0  0  0
 58128  1  0  0  0
 59 60  1  0  0  0
 59 61  1  0  0  0
 59 62  1  0  0  0
 60129  1  0  0  0
 60130  1  0  0  0
 60131  1  0  0  0
 61132  1  0  0  0
 61133  1  0  0  0
 61134  1  0  0  0
 62135  1  0  0  0
 62136  1  0  0  0
 62137  1  0  0  0
 63 65  1  0  0  0
 63138  1  0  0  0
 63139  1  0  0  0
 63140  1  0  0  0
 64141  1  0  0  0
 65142  1  0  0  0
 68 81  1  0  0  0
 71 72  2  0  0  0
 71 73  1  0  0  0
 71143  1  0  0  0
 72 74  1  0  0  0
 72144  1  0  0  0
 73 76  2  0  0  0
 73145  1  0  0  0
 74 75  2  0  0  0
 74 77  1  0  0  0
 75 76  1  0  0  0
 75 82  1  0  0  0
 76 83  1  0  0  0
 77 78  2  0  0  0
 77146  1  0  0  0
 78147  1  0  0  0
 79 81  1  0  0  0
 79 83  1  0  0  0
 79148  1  0  0  0
 79149  1  0  0  0
 80 81  1  0  0  0
 80 83  1  0  0  0
 80150  1  0  0  0
 80151  1  0  0  0
 81152  1  0  0  0
 82153  1  0  0  0
 82154  1  0  0  0
 82155  1  0  0  0
M  ISO  4   1 100  68 101  78 100  81 101
M  END
> <chiral flag>
0

> <version>
0

> <s_m_source_file>
/data/baiqing/PycharmProjects/Reinvent-master-3.2/result/LINK_invent/BTK/process_docking_weight1_custom_product_contain_oxygen_bond_distance_aromatic_linkinvent_7_9_3/rearranged_h_0027.sdf

> <i_m_source_file_index>
14

> <r_mmod_Potential_Energy-OPLS-2005>
384.9599609375

> <r_mmod_Stretch_Energy-OPLS-2005>
168.336654663086

> <r_mmod_Bend_Energy-OPLS-2005>
262.075927734375

> <r_mmod_Torsional_Energy-OPLS-2005>
234.029525756836

> <r_mmod_Improper_Torsional_Energy-OPLS-2005>
14.9740514755249

> <r_mmod_Van_der_Waal_Energy-OPLS-2005>
135.757461547852

> <r_mmod_Electrostatic_Energy-OPLS-2005>
-342.800628662109

> <r_mmod_Solvation_Energy-OPLS-2005>
-216.437744140625

> <b_mmod_Minimization_Converged-OPLS-2005>
0

> <r_mmod_RMS_Derivative-OPLS-2005>
2.58602285385132

$$$$
14
                    3D
 Structure written by MMmdl.
159168  0  0  1  0            999 V2000
  -30.6728  -14.6366   20.5103 C   0  0  0  0  0  0
  -30.4234  -12.4007   19.4483 C   0  0  0  0  0  0
  -29.4983  -12.5059   18.2186 C   0  0  0  0  0  0
  -28.0243  -12.3460   18.6362 C   0  0  0  0  0  0
  -27.6473  -13.2280   19.8572 C   0  0  2  0  0  0
  -28.6948  -13.1195   20.9869 C   0  0  0  0  0  0
  -25.2533  -13.8201   20.5699 C   0  0  0  0  0  0
  -24.1813  -13.0446   20.9207 C   0  0  0  0  0  0
  -24.6400  -11.6922   20.8752 C   0  0  0  0  0  0
  -23.9077  -10.4298   21.0414 C   0  0  0  0  0  0
  -24.3626   -9.4209   21.9186 C   0  0  0  0  0  0
  -23.6299   -8.2245   22.0755 C   0  0  0  0  0  0
  -22.4277   -8.0288   21.3550 C   0  0  0  0  0  0
  -21.9921   -9.0263   20.4652 C   0  0  0  0  0  0
  -22.7253  -10.2142   20.3061 C   0  0  0  0  0  0
  -21.6852   -6.0743   22.5278 C   0  0  0  0  0  0
  -21.4018   -6.5644   23.8216 C   0  0  0  0  0  0
  -21.3660   -5.6793   24.9177 C   0  0  0  0  0  0
  -21.6042   -4.3055   24.7221 C   0  0  0  0  0  0
  -21.8821   -3.8151   23.4341 C   0  0  0  0  0  0
  -21.9198   -4.6973   22.3400 C   0  0  0  0  0  0
  -22.7838  -13.5230   21.1876 C   0  0  0  0  0  0
  -22.1662   -4.2159   21.0978 F   0  0  0  0  0  0
  -21.5633   -3.4537   25.7734 F   0  0  0  0  0  0
  -30.0036  -13.4454   20.4053 N   0  0  0  0  0  0
  -26.2968  -12.9404   20.3322 N   0  0  0  0  0  0
  -25.9331  -11.6545   20.5761 N   0  0  0  0  0  0
  -22.0483  -12.8207   22.0429 N   0  0  0  0  0  0
  -25.4230  -15.1923   20.4108 N   0  0  0  0  0  0
  -31.8507  -14.7284   20.1578 O   0  0  0  0  0  0
  -21.6642   -6.8885   21.4239 O   0  0  0  0  0  0
  -22.3519  -14.5535   20.6734 O   0  0  0  0  0  0
  -24.6264  -31.8600   23.2039 C   0  0  0  0  0  0
  -25.9118  -32.4771   23.8360 C   0  0  1  0  0  0
  -27.2161  -27.3090   20.1145 C   0  0  0  0  0  0
  -25.5947  -33.8575   24.2289 N   0  0  0  0  0  0
  -23.4194  -30.4864   21.5460 C   0  0  2  0  0  0
  -24.8647  -28.9471   20.1063 C   0  0  0  0  0  0
  -22.7470  -29.4631   22.4925 C   0  0  0  0  0  0
  -18.0292  -28.1379   22.8476 C   0  0  0  0  0  0
  -24.1493  -36.7294   23.2637 C   0  0  0  0  0  0
  -25.9626  -30.7869   21.3790 C   0  0  0  0  0  0
  -26.0338  -29.4151   20.7187 C   0  0  0  0  0  0
  -27.2105  -28.6061   20.7180 C   0  0  0  0  0  0
  -26.0259  -26.9115   19.4587 C   0  0  0  0  0  0
  -24.8633  -27.7009   19.4671 C   0  0  0  0  0  0
  -23.6336  -29.8275   20.1592 C   0  0  0  0  0  0
  -25.4117  -36.3076   24.0324 C   0  0  1  0  0  0
  -20.5888  -28.3689   23.1278 C   0  0  2  0  0  0
  -20.6780  -26.9412   22.5409 C   0  0  0  0  0  0
  -19.5758  -26.6378   21.5207 C   0  0  0  0  0  0
  -18.1935  -26.7922   22.1614 C   0  0  0  0  0  0
  -19.1540  -28.8849   23.2875 C   0  0  0  0  0  0
  -18.9466  -30.1452   23.8889 C   0  0  0  0  0  0
  -17.6465  -30.6583   24.0556 C   0  0  0  0  0  0
  -25.9051  -34.9445   23.5097 C   0  0  0  0  0  0
  -16.5355  -29.9081   23.6327 C   0  0  0  0  0  0
  -16.7277  -28.6498   23.0341 C   0  0  0  0  0  0
  -26.4498  -31.6573   25.0726 C   0  0  0  0  0  0
  -25.3738  -31.3705   26.1453 C   0  0  0  0  0  0
  -27.0339  -30.2994   24.6186 C   0  0  0  0  0  0
  -27.6057  -32.4309   25.7497 C   0  0  0  0  0  0
  -27.5577  -37.1805   24.8463 C   0  0  0  0  0  0
  -21.4183  -29.3044   22.3667 N   0  0  0  0  0  0
  -26.4293  -37.3775   23.9400 N   0  0  0  0  0  0
  -24.6880  -31.0614   22.0991 N   0  0  0  0  0  0
  -23.4195  -28.8157   23.2995 O   0  0  0  0  0  0
  -28.3217  -26.4382   20.1962 O   0  0  0  0  0  0
  -26.5612  -34.8903   22.4658 O   0  0  0  0  0  0
  -23.5432  -32.1404   23.7365 O   0  0  0  0  0  0
  -30.3531  -19.6324   21.6169 C   0  0  0  0  0  0
  -29.9301  -20.9526   21.2856 C   0  0  0  0  0  0
  -29.1086  -18.7404   19.7805 C   0  0  0  0  0  0
  -29.9671  -18.4870   20.8726 C   0  0  0  0  0  0
  -28.6752  -20.0639   19.4344 C   0  0  0  0  0  0
  -29.0977  -21.2337   20.1709 C   0  0  0  0  0  0
  -28.4005  -24.5947   18.5052 C   0  0  0  0  0  0
  -28.3978  -23.0539   18.5001 C   0  0  0  0  0  0
  -28.9174  -23.8346   20.6792 C   0  0  0  0  0  0
  -28.1094  -24.9842   19.9558 C   0  0  1  0  0  0
  -27.7164  -20.1394   18.2556 C   0  0  0  0  0  0
  -30.5741  -17.0834   21.2469 C   0  0  0  0  0  0
  -28.7434  -22.6046   19.8502 N   0  0  0  0  0  0
  -29.9685  -15.7586   20.8661 N   0  0  0  0  0  0
  -31.4660  -12.5065   19.1423 H   0  0  0  0  0  0
  -30.3466  -11.4130   19.9061 H   0  0  0  0  0  0
  -29.7617  -11.7486   17.4792 H   0  0  0  0  0  0
  -29.6414  -13.4716   17.7313 H   0  0  0  0  0  0
  -27.8636  -11.2942   18.8762 H   0  0  0  0  0  0
  -27.3672  -12.5686   17.7950 H   0  0  0  0  0  0
  -27.6556  -14.2585   19.5009 H   0  0  0  0  0  0
  -28.7083  -12.1136   21.4083 H   0  0  0  0  0  0
  -28.4449  -13.7897   21.8109 H   0  0  0  0  0  0
  -25.2771   -9.5686   22.4760 H   0  0  0  0  0  0
  -24.0018   -7.4634   22.7460 H   0  0  0  0  0  0
  -21.0859   -8.8780   19.8944 H   0  0  0  0  0  0
  -22.3712  -10.9683   19.6172 H   0  0  0  0  0  0
  -21.2002   -7.6150   23.9722 H   0  0  0  0  0  0
  -21.1482   -6.0521   25.9083 H   0  0  0  0  0  0
  -22.0599   -2.7614   23.2835 H   0  0  0  0  0  0
  -22.4103  -11.9861   22.4793 H   0  0  0  0  0  0
  -21.1107  -13.1236   22.2652 H   0  0  0  0  0  0
  -24.6551  -15.8457   20.5193 H   0  0  0  0  0  0
  -26.2716  -15.6317   20.0775 H   0  0  0  0  0  0
  -26.7177  -32.5436   23.1100 H   0  0  0  0  0  0
  -25.0127  -33.9721   25.0455 H   0  0  0  0  0  0
  -22.7138  -31.3080   21.4064 H   0  0  0  0  0  0
  -23.3747  -35.9637   23.3304 H   0  0  0  0  0  0
  -24.3591  -36.8909   22.2052 H   0  0  0  0  0  0
  -23.7250  -37.6498   23.6657 H   0  0  0  0  0  0
  -26.0991  -31.5524   20.6132 H   0  0  0  0  0  0
  -26.8416  -30.8333   22.0101 H   0  0  0  0  0  0
  -28.1015  -28.9565   21.2188 H   0  0  0  0  0  0
  -25.9512  -25.9712   18.9356 H   0  0  0  0  0  0
  -23.9698  -27.3415   18.9755 H   0  0  0  0  0  0
  -23.7539  -30.6075   19.4061 H   0  0  0  0  0  0
  -22.7524  -29.2601   19.8537 H   0  0  0  0  0  0
  -25.1297  -36.1928   25.0819 H   0  0  0  0  0  0
  -20.9989  -28.3263   24.1396 H   0  0  0  0  0  0
  -20.5686  -26.2297   23.3608 H   0  0  0  0  0  0
  -21.6648  -26.7442   22.1200 H   0  0  0  0  0  0
  -19.6929  -25.6290   21.1236 H   0  0  0  0  0  0
  -19.6697  -27.3184   20.6731 H   0  0  0  0  0  0
  -17.4209  -26.6663   21.4014 H   0  0  0  0  0  0
  -18.0341  -26.0064   22.9011 H   0  0  0  0  0  0
  -19.7945  -30.7270   24.2248 H   0  0  0  0  0  0
  -17.5023  -31.6260   24.5167 H   0  0  0  0  0  0
  -15.5357  -30.2981   23.7664 H   0  0  0  0  0  0
  -15.8672  -28.0824   22.7056 H   0  0  0  0  0  0
  -24.5941  -30.7015   25.7790 H   0  0  0  0  0  0
  -24.8896  -32.2863   26.4851 H   0  0  0  0  0  0
  -25.8083  -30.8911   27.0237 H   0  0  0  0  0  0
  -26.2908  -29.6744   24.1218 H   0  0  0  0  0  0
  -27.4032  -29.7248   25.4691 H   0  0  0  0  0  0
  -27.8778  -30.4269   23.9406 H   0  0  0  0  0  0
  -27.2669  -33.3621   26.2051 H   0  0  0  0  0  0
  -28.3881  -32.6844   25.0334 H   0  0  0  0  0  0
  -28.0704  -31.8445   26.5434 H   0  0  0  0  0  0
  -28.2594  -38.0101   24.7510 H   0  0  0  0  0  0
  -28.1072  -36.2631   24.6293 H   0  0  0  0  0  0
  -27.2295  -37.1452   25.8866 H   0  0  0  0  0  0
  -20.9358  -29.8783   21.6894 H   0  0  0  0  0  0
  -26.0168  -38.2848   24.1402 H   0  0  0  0  0  0
  -31.0168  -19.5063   22.4612 H   0  0  0  0  0  0
  -30.2862  -21.7668   21.9002 H   0  0  0  0  0  0
  -28.7893  -17.8979   19.1825 H   0  0  0  0  0  0
  -27.6902  -25.0110   17.7912 H   0  0  0  0  0  0
  -29.3898  -24.9593   18.2267 H   0  0  0  0  0  0
  -29.0883  -22.6664   17.7492 H   0  0  0  0  0  0
  -27.3903  -22.7258   18.2496 H   0  0  0  0  0  0
  -28.5593  -23.6815   21.6985 H   0  0  0  0  0  0
  -29.9769  -24.0894   20.7330 H   0  0  0  0  0  0
  -27.0775  -24.7328   20.1996 H   0  0  0  0  0  0
  -27.4123  -19.1479   17.9185 H   0  0  0  0  0  0
  -28.1807  -20.6282   17.4003 H   0  0  0  0  0  0
  -26.8068  -20.6697   18.5350 H   0  0  0  0  0  0
  -30.6478  -17.0603   22.3352 H   0  0  0  0  0  0
  -31.6084  -17.1141   20.9012 H   0  0  0  0  0  0
  -28.9871  -15.6338   21.0621 H   0  0  0  0  0  0
  1 25  1  0  0  0
  1 30  2  0  0  0
  1 84  1  0  0  0
  2  3  1  0  0  0
  2 25  1  0  0  0
  2 85  1  0  0  0
  2 86  1  0  0  0
  3  4  1  0  0  0
  3 87  1  0  0  0
  3 88  1  0  0  0
  4  5  1  0  0  0
  4 89  1  0  0  0
  4 90  1  0  0  0
  5  6  1  0  0  0
  5 26  1  0  0  0
  5 91  1  0  0  0
  6 25  1  0  0  0
  6 92  1  0  0  0
  6 93  1  0  0  0
  7  8  2  0  0  0
  7 26  1  0  0  0
  7 29  1  0  0  0
  8  9  1  0  0  0
  8 22  1  0  0  0
  9 10  1  0  0  0
  9 27  2  0  0  0
 10 11  2  0  0  0
 10 15  1  0  0  0
 11 12  1  0  0  0
 11 94  1  0  0  0
 12 13  2  0  0  0
 12 95  1  0  0  0
 13 14  1  0  0  0
 13 31  1  0  0  0
 14 15  2  0  0  0
 14 96  1  0  0  0
 15 97  1  0  0  0
 16 17  2  0  0  0
 16 21  1  0  0  0
 16 31  1  0  0  0
 17 18  1  0  0  0
 17 98  1  0  0  0
 18 19  2  0  0  0
 18 99  1  0  0  0
 19 20  1  0  0  0
 19 24  1  0  0  0
 20 21  2  0  0  0
 20100  1  0  0  0
 21 23  1  0  0  0
 22 28  1  0  0  0
 22 32  2  0  0  0
 26 27  1  0  0  0
 28101  1  0  0  0
 28102  1  0  0  0
 29103  1  0  0  0
 29104  1  0  0  0
 33 34  1  0  0  0
 33 66  1  0  0  0
 33 70  2  0  0  0
 34 36  1  0  0  0
 34 59  1  0  0  0
 34105  1  0  0  0
 35 44  2  0  0  0
 35 45  1  0  0  0
 35 68  1  0  0  0
 36 56  1  0  0  0
 36106  1  0  0  0
 37 39  1  0  0  0
 37 47  1  0  0  0
 37 66  1  0  0  0
 37107  1  0  0  0
 38 43  2  0  0  0
 38 46  1  0  0  0
 38 47  1  0  0  0
 39 64  1  0  0  0
 39 67  2  0  0  0
 40 52  1  0  0  0
 40 53  2  0  0  0
 40 58  1  0  0  0
 41108  1  0  0  0
 41109  1  0  0  0
 41110  1  0  0  0
 41 48  1  0  0  0
 42 43  1  0  0  0
 42 66  1  0  0  0
 42111  1  0  0  0
 42112  1  0  0  0
 43 44  1  0  0  0
 44113  1  0  0  0
 45 46  2  0  0  0
 45114  1  0  0  0
 46115  1  0  0  0
 47116  1  0  0  0
 47117  1  0  0  0
 48 56  1  0  0  0
 48 65  1  0  0  0
 48118  1  0  0  0
 49 50  1  0  0  0
 49 53  1  0  0  0
 49 64  1  0  0  0
 49119  1  0  0  0
 50 51  1  0  0  0
 50120  1  0  0  0
 50121  1  0  0  0
 51 52  1  0  0  0
 51122  1  0  0  0
 51123  1  0  0  0
 52124  1  0  0  0
 52125  1  0  0  0
 53 54  1  0  0  0
 54 55  2  0  0  0
 54126  1  0  0  0
 55 57  1  0  0  0
 55127  1  0  0  0
 56 69  2  0  0  0
 57 58  2  0  0  0
 57128  1  0  0  0
 58129  1  0  0  0
 59 60  1  0  0  0
 59 61  1  0  0  0
 59 62  1  0  0  0
 60130  1  0  0  0
 60131  1  0  0  0
 60132  1  0  0  0
 61133  1  0  0  0
 61134  1  0  0  0
 61135  1  0  0  0
 62136  1  0  0  0
 62137  1  0  0  0
 62138  1  0  0  0
 63 65  1  0  0  0
 63139  1  0  0  0
 63140  1  0  0  0
 63141  1  0  0  0
 64142  1  0  0  0
 65143  1  0  0  0
 68 80  1  0  0  0
 71 72  2  0  0  0
 71 74  1  0  0  0
 71144  1  0  0  0
 72 76  1  0  0  0
 72145  1  0  0  0
 73 74  2  0  0  0
 73 75  1  0  0  0
 73146  1  0  0  0
 74 82  1  0  0  0
 75 76  2  0  0  0
 75 81  1  0  0  0
 76 83  1  0  0  0
 77 78  1  0  0  0
 77 80  1  0  0  0
 77147  1  0  0  0
 77148  1  0  0  0
 78 83  1  0  0  0
 78149  1  0  0  0
 78150  1  0  0  0
 79 80  1  0  0  0
 79 83  1  0  0  0
 79151  1  0  0  0
 79152  1  0  0  0
 80153  1  0  0  0
 81154  1  0  0  0
 81155  1  0  0  0
 81156  1  0  0  0
 82 84  1  0  0  0
 82157  1  0  0  0
 82158  1  0  0  0
 84159  1  0  0  0
M  ISO  4   1 100  68 101  80 101  84 100
M  END
> <chiral flag>
0

> <version>
0

> <s_m_source_file>
/data/baiqing/PycharmProjects/Reinvent-master-3.2/result/LINK_invent/BTK/process_docking_weight1_custom_product_contain_oxygen_bond_distance_aromatic_linkinvent_7_9_3/rearranged_h_0027.sdf

> <i_m_source_file_index>
15

> <r_mmod_Potential_Energy-OPLS-2005>
86.6193923950195

> <r_mmod_Stretch_Energy-OPLS-2005>
82.8322525024414

> <r_mmod_Bend_Energy-OPLS-2005>
207.148971557617

> <r_mmod_Torsional_Energy-OPLS-2005>
240.046447753906

> <r_mmod_Improper_Torsional_Energy-OPLS-2005>
4.22167110443115

> <r_mmod_Van_der_Waal_Energy-OPLS-2005>
154.987121582031

> <r_mmod_Electrostatic_Energy-OPLS-2005>
-429.585510253906

> <r_mmod_Solvation_Energy-OPLS-2005>
-227.214797973633

> <b_mmod_Minimization_Converged-OPLS-2005>
0

> <r_mmod_RMS_Derivative-OPLS-2005>
1.2999655008316

$$$$
15
                    3D
 Structure written by MMmdl.
161170  0  0  1  0            999 V2000
  -30.6147  -14.7280   20.3290 C   0  0  0  0  0  0
  -30.4542  -12.3975   19.4815 C   0  0  0  0  0  0
  -29.5170  -12.2831   18.2553 C   0  0  0  0  0  0
  -28.0246  -12.2622   18.6573 C   0  0  0  0  0  0
  -27.6387  -13.2104   19.8303 C   0  0  2  0  0  0
  -28.6960  -13.1906   20.9520 C   0  0  0  0  0  0
  -25.2549  -13.8164   20.5711 C   0  0  0  0  0  0
  -24.1796  -13.0441   20.9205 C   0  0  0  0  0  0
  -24.6370  -11.6907   20.8810 C   0  0  0  0  0  0
  -23.9048  -10.4272   21.0455 C   0  0  0  0  0  0
  -24.3602   -9.4175   21.9214 C   0  0  0  0  0  0
  -23.6268   -8.2212   22.0768 C   0  0  0  0  0  0
  -22.4260   -8.0265   21.3556 C   0  0  0  0  0  0
  -21.9893   -9.0245   20.4672 C   0  0  0  0  0  0
  -22.7227  -10.2121   20.3089 C   0  0  0  0  0  0
  -21.6840   -6.0735   22.5284 C   0  0  0  0  0  0
  -21.4003   -6.5636   23.8224 C   0  0  0  0  0  0
  -21.3654   -5.6799   24.9185 C   0  0  0  0  0  0
  -21.6038   -4.3058   24.7242 C   0  0  0  0  0  0
  -21.8816   -3.8145   23.4361 C   0  0  0  0  0  0
  -21.9180   -4.6952   22.3420 C   0  0  0  0  0  0
  -22.7818  -13.5246   21.1817 C   0  0  0  0  0  0
  -22.1655   -4.2147   21.0991 F   0  0  0  0  0  0
  -21.5624   -3.4536   25.7747 F   0  0  0  0  0  0
  -29.9851  -13.5059   20.3307 N   0  0  0  0  0  0
  -26.2942  -12.9322   20.3300 N   0  0  0  0  0  0
  -25.9297  -11.6505   20.5888 N   0  0  0  0  0  0
  -22.0450  -12.8281   22.0388 N   0  0  0  0  0  0
  -25.4283  -15.1889   20.4116 N   0  0  0  0  0  0
  -31.8485  -14.7843   20.3137 O   0  0  0  0  0  0
  -21.6628   -6.8864   21.4246 O   0  0  0  0  0  0
  -22.3528  -14.5549   20.6639 O   0  0  0  0  0  0
  -24.6211  -31.8624   23.2055 C   0  0  0  0  0  0
  -25.9054  -32.4823   23.8393 C   0  0  1  0  0  0
  -27.2304  -27.3437   20.1448 C   0  0  0  0  0  0
  -25.5902  -33.8629   24.2341 N   0  0  0  0  0  0
  -23.4147  -30.4779   21.5495 C   0  0  2  0  0  0
  -24.8637  -28.9275   20.1244 C   0  0  0  0  0  0
  -22.7421  -29.4597   22.4992 C   0  0  0  0  0  0
  -18.0252  -28.1365   22.8497 C   0  0  0  0  0  0
  -24.1473  -36.7280   23.2643 C   0  0  0  0  0  0
  -25.9506  -30.8042   21.3671 C   0  0  0  0  0  0
  -26.0284  -29.4285   20.7212 C   0  0  0  0  0  0
  -27.2183  -28.6505   20.7118 C   0  0  0  0  0  0
  -26.0450  -26.8712   19.5480 C   0  0  0  0  0  0
  -24.8725  -27.6532   19.5298 C   0  0  0  0  0  0
  -23.6287  -29.8039   20.1685 C   0  0  0  0  0  0
  -25.4103  -36.3108   24.0360 C   0  0  1  0  0  0
  -20.5850  -28.3657   23.1322 C   0  0  2  0  0  0
  -20.6750  -26.9391   22.5423 C   0  0  0  0  0  0
  -19.5741  -26.6367   21.5211 C   0  0  0  0  0  0
  -18.1908  -26.7916   22.1615 C   0  0  0  0  0  0
  -19.1499  -28.8824   23.2910 C   0  0  0  0  0  0
  -18.9438  -30.1420   23.8932 C   0  0  0  0  0  0
  -17.6445  -30.6588   24.0539 C   0  0  0  0  0  0
  -25.9027  -34.9480   23.5150 C   0  0  0  0  0  0
  -16.5330  -29.9086   23.6325 C   0  0  0  0  0  0
  -16.7240  -28.6487   23.0383 C   0  0  0  0  0  0
  -26.4464  -31.6620   25.0751 C   0  0  0  0  0  0
  -25.3703  -31.3749   26.1486 C   0  0  0  0  0  0
  -27.0313  -30.3065   24.6164 C   0  0  0  0  0  0
  -27.6057  -32.4322   25.7505 C   0  0  0  0  0  0
  -27.5582  -37.1800   24.8484 C   0  0  0  0  0  0
  -21.4136  -29.3021   22.3729 N   0  0  0  0  0  0
  -26.4284  -37.3796   23.9431 N   0  0  0  0  0  0
  -24.6810  -31.0650   22.0986 N   0  0  0  0  0  0
  -23.4144  -28.8127   23.3059 O   0  0  0  0  0  0
  -28.3883  -26.5735   20.1032 O   0  0  0  0  0  0
  -26.5585  -34.8937   22.4701 O   0  0  0  0  0  0
  -23.5373  -32.1402   23.7378 O   0  0  0  0  0  0
  -29.9289  -17.6561   21.4351 C   0  0  0  0  0  0
  -29.6680  -19.0237   21.7776 C   0  0  0  0  0  0
  -28.8508  -19.4556   19.5601 C   0  0  0  0  0  0
  -29.1044  -18.1018   19.2148 C   0  0  0  0  0  0
  -29.6631  -17.1446   20.1298 C   0  0  0  0  0  0
  -29.1337  -19.9516   20.8413 C   0  0  0  0  0  0
  -28.7931  -17.7119   17.7939 C   0  0  0  0  0  0
  -29.8695  -16.7651   17.3146 C   0  0  0  0  0  0
  -29.8955  -15.5271   18.2091 C   0  0  0  0  0  0
  -26.8954  -21.5600   21.6633 C   0  0  0  0  0  0
  -27.9309  -23.9784   19.9198 C   0  0  0  0  0  0
  -28.4377  -25.2391   20.7217 C   0  0  0  0  0  0
  -28.7611  -22.7236   20.0374 N   0  0  0  0  0  0
  -29.9290  -15.7513   19.6819 N   0  0  0  0  0  0
  -29.3427  -22.0573   22.5353 O   0  0  0  0  0  0
  -28.6721  -21.7055   21.2729 S   0  0  1  0  0  0
  -31.4848  -12.5444   19.1500 H   0  0  0  0  0  0
  -30.4543  -11.4720   20.0576 H   0  0  0  0  0  0
  -29.7491  -11.3520   17.7338 H   0  0  0  0  0  0
  -29.7184  -13.0411   17.5084 H   0  0  0  0  0  0
  -27.8144  -11.2337   18.9501 H   0  0  0  0  0  0
  -27.3933  -12.4535   17.7891 H   0  0  0  0  0  0
  -27.6047  -14.2179   19.4226 H   0  0  0  0  0  0
  -28.7333  -12.2179   21.4439 H   0  0  0  0  0  0
  -28.4509  -13.9219   21.7231 H   0  0  0  0  0  0
  -25.2751   -9.5634   22.4794 H   0  0  0  0  0  0
  -23.9970   -7.4605   22.7487 H   0  0  0  0  0  0
  -21.0824   -8.8776   19.8985 H   0  0  0  0  0  0
  -22.3702  -10.9663   19.6196 H   0  0  0  0  0  0
  -21.2004   -7.6145   23.9731 H   0  0  0  0  0  0
  -21.1475   -6.0527   25.9099 H   0  0  0  0  0  0
  -22.0599   -2.7595   23.2873 H   0  0  0  0  0  0
  -22.4047  -11.9939   22.4789 H   0  0  0  0  0  0
  -21.1068  -13.1324   22.2593 H   0  0  0  0  0  0
  -24.6609  -15.8433   20.5198 H   0  0  0  0  0  0
  -26.2935  -15.6306   20.1267 H   0  0  0  0  0  0
  -26.7112  -32.5513   23.1143 H   0  0  0  0  0  0
  -25.0130  -33.9788   25.0543 H   0  0  0  0  0  0
  -22.7080  -31.2975   21.4038 H   0  0  0  0  0  0
  -23.3762  -35.9576   23.3318 H   0  0  0  0  0  0
  -24.3561  -36.8871   22.2047 H   0  0  0  0  0  0
  -23.7181  -37.6483   23.6623 H   0  0  0  0  0  0
  -26.0631  -31.5627   20.5898 H   0  0  0  0  0  0
  -26.8379  -30.8700   21.9867 H   0  0  0  0  0  0
  -28.1217  -29.0413   21.1578 H   0  0  0  0  0  0
  -26.0311  -25.8954   19.0877 H   0  0  0  0  0  0
  -23.9792  -27.2618   19.0629 H   0  0  0  0  0  0
  -23.7401  -30.5784   19.4095 H   0  0  0  0  0  0
  -22.7512  -29.2273   19.8694 H   0  0  0  0  0  0
  -25.1255  -36.1997   25.0850 H   0  0  0  0  0  0
  -20.9927  -28.3219   24.1450 H   0  0  0  0  0  0
  -20.5646  -26.2252   23.3597 H   0  0  0  0  0  0
  -21.6623  -26.7435   22.1219 H   0  0  0  0  0  0
  -19.6910  -25.6276   21.1248 H   0  0  0  0  0  0
  -19.6706  -27.3171   20.6735 H   0  0  0  0  0  0
  -17.4180  -26.6656   21.4017 H   0  0  0  0  0  0
  -18.0319  -26.0046   22.9000 H   0  0  0  0  0  0
  -19.7907  -30.7198   24.2365 H   0  0  0  0  0  0
  -17.5003  -31.6290   24.5096 H   0  0  0  0  0  0
  -15.5335  -30.3003   23.7634 H   0  0  0  0  0  0
  -15.8626  -28.0784   22.7159 H   0  0  0  0  0  0
  -24.5881  -30.7098   25.7831 H   0  0  0  0  0  0
  -24.8869  -32.2899   26.4919 H   0  0  0  0  0  0
  -25.8016  -30.8943   27.0271 H   0  0  0  0  0  0
  -26.2903  -29.6841   24.1145 H   0  0  0  0  0  0
  -27.4009  -29.7313   25.4661 H   0  0  0  0  0  0
  -27.8747  -30.4431   23.9393 H   0  0  0  0  0  0
  -27.2740  -33.3650   26.2087 H   0  0  0  0  0  0
  -28.3858  -32.6837   25.0305 H   0  0  0  0  0  0
  -28.0722  -31.8430   26.5411 H   0  0  0  0  0  0
  -28.2615  -38.0086   24.7515 H   0  0  0  0  0  0
  -28.1057  -36.2616   24.6311 H   0  0  0  0  0  0
  -27.2299  -37.1461   25.8889 H   0  0  0  0  0  0
  -20.9282  -29.8765   21.6985 H   0  0  0  0  0  0
  -26.0189  -38.2875   24.1437 H   0  0  0  0  0  0
  -30.3431  -17.0072   22.1931 H   0  0  0  0  0  0
  -29.8743  -19.3689   22.7786 H   0  0  0  0  0  0
  -28.4321  -20.1366   18.8336 H   0  0  0  0  0  0
  -28.7516  -18.5868   17.1412 H   0  0  0  0  0  0
  -27.8063  -17.2476   17.7565 H   0  0  0  0  0  0
  -30.8417  -17.2615   17.3261 H   0  0  0  0  0  0
  -29.6776  -16.4761   16.2796 H   0  0  0  0  0  0
  -30.7451  -14.9263   17.8718 H   0  0  0  0  0  0
  -28.9893  -14.9773   17.9741 H   0  0  0  0  0  0
  -26.3478  -21.2609   20.7709 H   0  0  0  0  0  0
  -26.5137  -22.5079   22.0360 H   0  0  0  0  0  0
  -26.7662  -20.7979   22.4300 H   0  0  0  0  0  0
  -27.9130  -24.2879   18.8751 H   0  0  0  0  0  0
  -26.8766  -23.8103   20.1440 H   0  0  0  0  0  0
  -29.4976  -25.0788   20.9233 H   0  0  0  0  0  0
  -27.9638  -25.2665   21.7052 H   0  0  0  0  0  0
  1 25  1  0  0  0
  1 30  2  0  0  0
  1 84  1  0  0  0
  2  3  1  0  0  0
  2 25  1  0  0  0
  2 87  1  0  0  0
  2 88  1  0  0  0
  3  4  1  0  0  0
  3 89  1  0  0  0
  3 90  1  0  0  0
  4  5  1  0  0  0
  4 91  1  0  0  0
  4 92  1  0  0  0
  5  6  1  0  0  0
  5 26  1  0  0  0
  5 93  1  0  0  0
  6 25  1  0  0  0
  6 94  1  0  0  0
  6 95  1  0  0  0
  7  8  2  0  0  0
  7 26  1  0  0  0
  7 29  1  0  0  0
  8  9  1  0  0  0
  8 22  1  0  0  0
  9 10  1  0  0  0
  9 27  2  0  0  0
 10 11  2  0  0  0
 10 15  1  0  0  0
 11 12  1  0  0  0
 11 96  1  0  0  0
 12 13  2  0  0  0
 12 97  1  0  0  0
 13 14  1  0  0  0
 13 31  1  0  0  0
 14 15  2  0  0  0
 14 98  1  0  0  0
 15 99  1  0  0  0
 16 17  2  0  0  0
 16 21  1  0  0  0
 16 31  1  0  0  0
 17 18  1  0  0  0
 17100  1  0  0  0
 18 19  2  0  0  0
 18101  1  0  0  0
 19 20  1  0  0  0
 19 24  1  0  0  0
 20 21  2  0  0  0
 20102  1  0  0  0
 21 23  1  0  0  0
 22 28  1  0  0  0
 22 32  2  0  0  0
 26 27  1  0  0  0
 28103  1  0  0  0
 28104  1  0  0  0
 29105  1  0  0  0
 29106  1  0  0  0
 33 34  1  0  0  0
 33 66  1  0  0  0
 33 70  2  0  0  0
 34 36  1  0  0  0
 34 59  1  0  0  0
 34107  1  0  0  0
 35 44  2  0  0  0
 35 45  1  0  0  0
 35 68  1  0  0  0
 36 56  1  0  0  0
 36108  1  0  0  0
 37 39  1  0  0  0
 37 47  1  0  0  0
 37 66  1  0  0  0
 37109  1  0  0  0
 38 43  2  0  0  0
 38 46  1  0  0  0
 38 47  1  0  0  0
 39 64  1  0  0  0
 39 67  2  0  0  0
 40 52  1  0  0  0
 40 53  2  0  0  0
 40 58  1  0  0  0
 41110  1  0  0  0
 41111  1  0  0  0
 41112  1  0  0  0
 41 48  1  0  0  0
 42 43  1  0  0  0
 42 66  1  0  0  0
 42113  1  0  0  0
 42114  1  0  0  0
 43 44  1  0  0  0
 44115  1  0  0  0
 45 46  2  0  0  0
 45116  1  0  0  0
 46117  1  0  0  0
 47118  1  0  0  0
 47119  1  0  0  0
 48 56  1  0  0  0
 48 65  1  0  0  0
 48120  1  0  0  0
 49 50  1  0  0  0
 49 53  1  0  0  0
 49 64  1  0  0  0
 49121  1  0  0  0
 50 51  1  0  0  0
 50122  1  0  0  0
 50123  1  0  0  0
 51 52  1  0  0  0
 51124  1  0  0  0
 51125  1  0  0  0
 52126  1  0  0  0
 52127  1  0  0  0
 53 54  1  0  0  0
 54 55  2  0  0  0
 54128  1  0  0  0
 55 57  1  0  0  0
 55129  1  0  0  0
 56 69  2  0  0  0
 57 58  2  0  0  0
 57130  1  0  0  0
 58131  1  0  0  0
 59 60  1  0  0  0
 59 61  1  0  0  0
 59 62  1  0  0  0
 60132  1  0  0  0
 60133  1  0  0  0
 60134  1  0  0  0
 61135  1  0  0  0
 61136  1  0  0  0
 61137  1  0  0  0
 62138  1  0  0  0
 62139  1  0  0  0
 62140  1  0  0  0
 63 65  1  0  0  0
 63141  1  0  0  0
 63142  1  0  0  0
 63143  1  0  0  0
 64144  1  0  0  0
 65145  1  0  0  0
 68 82  1  0  0  0
 71 72  2  0  0  0
 71 75  1  0  0  0
 71146  1  0  0  0
 72 76  1  0  0  0
 72147  1  0  0  0
 73 74  1  0  0  0
 73 76  2  0  0  0
 73148  1  0  0  0
 74 75  2  0  0  0
 74 77  1  0  0  0
 75 84  1  0  0  0
 76 86  1  0  0  0
 77 78  1  0  0  0
 77149  1  0  0  0
 77150  1  0  0  0
 78 79  1  0  0  0
 78151  1  0  0  0
 78152  1  0  0  0
 79 84  1  0  0  0
 79153  1  0  0  0
 79154  1  0  0  0
 80155  1  0  0  0
 80156  1  0  0  0
 80157  1  0  0  0
 80 86  1  0  0  0
 81 82  1  0  0  0
 81 83  1  0  0  0
 81158  1  0  0  0
 81159  1  0  0  0
 82160  1  0  0  0
 82161  1  0  0  0
 83 86  2  0  0  0
 85 86  2  0  0  0
M  ISO  4   1 100  68 101  82 101  84 100
M  END
> <chiral flag>
0

> <version>
0

> <s_m_source_file>
/data/baiqing/PycharmProjects/Reinvent-master-3.2/result/LINK_invent/BTK/process_docking_weight1_custom_product_contain_oxygen_bond_distance_aromatic_linkinvent_7_9_3/rearranged_h_0027.sdf

> <i_m_source_file_index>
16

> <r_mmod_Potential_Energy-OPLS-2005>
193.300140380859

> <r_mmod_Stretch_Energy-OPLS-2005>
85.0062637329102

> <r_mmod_Bend_Energy-OPLS-2005>
164.564819335938

> <r_mmod_Torsional_Energy-OPLS-2005>
328.431610107422

> <r_mmod_Improper_Torsional_Energy-OPLS-2005>
26.1563854217529

> <r_mmod_Van_der_Waal_Energy-OPLS-2005>
140.861389160156

> <r_mmod_Electrostatic_Energy-OPLS-2005>
-394.568054199219

> <r_mmod_Solvation_Energy-OPLS-2005>
-238.35009765625

> <b_mmod_Minimization_Converged-OPLS-2005>
0

> <r_mmod_RMS_Derivative-OPLS-2005>
3.8788423538208

$$$$
16
                    3D
 Structure written by MMmdl.
159168  0  0  1  0            999 V2000
  -30.5441  -14.9053   20.4077 C   0  0  0  0  0  0
  -30.4432  -12.5499   19.4953 C   0  0  0  0  0  0
  -29.5265  -12.5289   18.2525 C   0  0  0  0  0  0
  -28.0573  -12.3183   18.6668 C   0  0  0  0  0  0
  -27.6394  -13.2323   19.8451 C   0  0  2  0  0  0
  -28.6834  -13.2377   20.9820 C   0  0  0  0  0  0
  -25.2503  -13.8088   20.5568 C   0  0  0  0  0  0
  -24.1820  -13.0369   20.9209 C   0  0  0  0  0  0
  -24.6437  -11.6857   20.8797 C   0  0  0  0  0  0
  -23.9096  -10.4244   21.0435 C   0  0  0  0  0  0
  -24.3641   -9.4160   21.9210 C   0  0  0  0  0  0
  -23.6298   -8.2217   22.0777 C   0  0  0  0  0  0
  -22.4280   -8.0281   21.3552 C   0  0  0  0  0  0
  -21.9921   -9.0263   20.4664 C   0  0  0  0  0  0
  -22.7277  -10.2121   20.3071 C   0  0  0  0  0  0
  -21.6860   -6.0735   22.5279 C   0  0  0  0  0  0
  -21.4008   -6.5624   23.8208 C   0  0  0  0  0  0
  -21.3663   -5.6779   24.9180 C   0  0  0  0  0  0
  -21.6030   -4.3041   24.7239 C   0  0  0  0  0  0
  -21.8814   -3.8131   23.4360 C   0  0  0  0  0  0
  -21.9180   -4.6952   22.3416 C   0  0  0  0  0  0
  -22.7852  -13.5198   21.1848 C   0  0  0  0  0  0
  -22.1653   -4.2131   21.0999 F   0  0  0  0  0  0
  -21.5636   -3.4523   25.7754 F   0  0  0  0  0  0
  -29.9625  -13.6420   20.3848 N   0  0  0  0  0  0
  -26.2942  -12.9308   20.3253 N   0  0  0  0  0  0
  -25.9360  -11.6462   20.5811 N   0  0  0  0  0  0
  -22.0470  -12.8241   22.0422 N   0  0  0  0  0  0
  -25.4144  -15.1745   20.3734 N   0  0  0  0  0  0
  -31.7446  -14.9899   20.1309 O   0  0  0  0  0  0
  -21.6637   -6.8890   21.4243 O   0  0  0  0  0  0
  -22.3534  -14.5491   20.6676 O   0  0  0  0  0  0
  -24.6414  -31.8461   23.1969 C   0  0  0  0  0  0
  -25.9217  -32.4704   23.8311 C   0  0  1  0  0  0
  -27.2128  -27.1654   20.1365 C   0  0  0  0  0  0
  -25.5977  -33.8502   24.2242 N   0  0  0  0  0  0
  -23.4386  -30.4721   21.5407 C   0  0  2  0  0  0
  -24.8828  -28.9038   20.1142 C   0  0  0  0  0  0
  -22.7525  -29.4571   22.4872 C   0  0  0  0  0  0
  -18.0292  -28.1392   22.8475 C   0  0  0  0  0  0
  -24.1484  -36.7234   23.2643 C   0  0  0  0  0  0
  -25.9909  -30.7291   21.3887 C   0  0  0  0  0  0
  -26.0596  -29.3425   20.7322 C   0  0  0  0  0  0
  -27.2204  -28.4879   20.7331 C   0  0  0  0  0  0
  -26.0096  -26.8273   19.4743 C   0  0  0  0  0  0
  -24.8695  -27.6579   19.4738 C   0  0  0  0  0  0
  -23.6615  -29.8075   20.1573 C   0  0  0  0  0  0
  -25.4119  -36.3039   24.0336 C   0  0  1  0  0  0
  -20.5906  -28.3721   23.1245 C   0  0  2  0  0  0
  -20.6768  -26.9426   22.5410 C   0  0  0  0  0  0
  -19.5741  -26.6388   21.5212 C   0  0  0  0  0  0
  -18.1930  -26.7928   22.1623 C   0  0  0  0  0  0
  -19.1550  -28.8873   23.2851 C   0  0  0  0  0  0
  -18.9470  -30.1464   23.8876 C   0  0  0  0  0  0
  -17.6469  -30.6595   24.0570 C   0  0  0  0  0  0
  -25.9067  -34.9411   23.5082 C   0  0  0  0  0  0
  -16.5361  -29.9092   23.6334 C   0  0  0  0  0  0
  -16.7276  -28.6512   23.0352 C   0  0  0  0  0  0
  -26.4552  -31.6568   25.0735 C   0  0  0  0  0  0
  -25.3760  -31.3749   26.1455 C   0  0  0  0  0  0
  -27.0411  -30.2967   24.6288 C   0  0  0  0  0  0
  -27.6090  -32.4322   25.7528 C   0  0  0  0  0  0
  -27.5572  -37.1791   24.8472 C   0  0  0  0  0  0
  -21.4225  -29.3049   22.3611 N   0  0  0  0  0  0
  -26.4282  -37.3758   23.9415 N   0  0  0  0  0  0
  -24.7103  -31.0345   22.0987 N   0  0  0  0  0  0
  -23.4188  -28.8114   23.3006 O   0  0  0  0  0  0
  -28.3019  -26.2263   20.1817 O   0  0  0  0  0  0
  -26.5633  -34.8909   22.4659 O   0  0  0  0  0  0
  -23.5558  -32.1325   23.7225 O   0  0  0  0  0  0
  -27.1664  -20.0793   19.3397 C   0  0  0  0  0  0
  -26.1139  -19.3497   19.9163 C   0  0  0  0  0  0
  -27.7035  -18.1080   21.2408 C   0  0  0  0  0  0
  -28.7849  -18.7073   20.5528 C   0  0  0  0  0  0
  -28.4757  -20.0319   19.8964 C   0  0  0  0  0  0
  -26.3775  -18.4849   20.9873 C   0  0  0  0  0  0
  -29.3090  -23.9235   19.2343 C   0  0  0  0  0  0
  -28.1852  -23.7665   21.3033 C   0  0  0  0  0  0
  -29.1413  -22.3362   18.9904 C   0  0  0  0  0  0
  -28.0039  -22.1817   21.0837 C   0  0  0  0  0  0
  -28.1689  -24.6855   20.0194 C   0  0  0  0  0  0
  -29.9905  -17.6192   20.3610 C   0  0  0  0  0  0
  -28.9393  -21.4221   20.1724 N   0  0  0  0  0  0
  -29.7400  -16.0619   20.5325 N   0  0  0  0  0  0
  -25.0826  -17.8503   21.9367 Cl  0  0  0  0  0  0
  -31.4792  -12.6962   19.1856 H   0  0  0  0  0  0
  -30.4190  -11.5879   20.0121 H   0  0  0  0  0  0
  -29.8424  -11.7439   17.5656 H   0  0  0  0  0  0
  -29.6293  -13.4700   17.7085 H   0  0  0  0  0  0
  -27.9376  -11.2737   18.9609 H   0  0  0  0  0  0
  -27.3986  -12.4765   17.8098 H   0  0  0  0  0  0
  -27.6135  -14.2399   19.4297 H   0  0  0  0  0  0
  -28.7645  -12.2557   21.4533 H   0  0  0  0  0  0
  -28.3977  -13.9355   21.7696 H   0  0  0  0  0  0
  -25.2771   -9.5645   22.4820 H   0  0  0  0  0  0
  -23.9976   -7.4607   22.7517 H   0  0  0  0  0  0
  -21.0830   -8.8818   19.9002 H   0  0  0  0  0  0
  -22.3732  -10.9690   19.6214 H   0  0  0  0  0  0
  -21.1999   -7.6120   23.9721 H   0  0  0  0  0  0
  -21.1490   -6.0505   25.9084 H   0  0  0  0  0  0
  -22.0587   -2.7583   23.2876 H   0  0  0  0  0  0
  -22.4046  -11.9947   22.4903 H   0  0  0  0  0  0
  -21.1109  -13.1363   22.2577 H   0  0  0  0  0  0
  -24.6682  -15.8344   20.5741 H   0  0  0  0  0  0
  -26.2402  -15.6207   20.0004 H   0  0  0  0  0  0
  -26.7257  -32.5307   23.1023 H   0  0  0  0  0  0
  -25.0150  -33.9605   25.0409 H   0  0  0  0  0  0
  -22.7408  -31.3012   21.3952 H   0  0  0  0  0  0
  -23.3772  -35.9538   23.3298 H   0  0  0  0  0  0
  -24.3570  -36.8852   22.2054 H   0  0  0  0  0  0
  -23.7213  -37.6422   23.6663 H   0  0  0  0  0  0
  -26.1372  -31.4851   20.6155 H   0  0  0  0  0  0
  -26.8660  -30.7794   22.0249 H   0  0  0  0  0  0
  -28.1153  -28.8214   21.2400 H   0  0  0  0  0  0
  -25.9062  -25.8991   18.9404 H   0  0  0  0  0  0
  -23.9725  -27.3265   18.9686 H   0  0  0  0  0  0
  -23.7981  -30.5850   19.4052 H   0  0  0  0  0  0
  -22.7723  -29.2568   19.8457 H   0  0  0  0  0  0
  -25.1304  -36.1873   25.0828 H   0  0  0  0  0  0
  -20.9998  -28.3315   24.1371 H   0  0  0  0  0  0
  -20.5658  -26.2334   23.3623 H   0  0  0  0  0  0
  -21.6636  -26.7422   22.1216 H   0  0  0  0  0  0
  -19.6903  -25.6301   21.1239 H   0  0  0  0  0  0
  -19.6682  -27.3200   20.6746 H   0  0  0  0  0  0
  -17.4198  -26.6684   21.4033 H   0  0  0  0  0  0
  -18.0329  -26.0066   22.9019 H   0  0  0  0  0  0
  -19.7944  -30.7288   24.2242 H   0  0  0  0  0  0
  -17.5025  -31.6273   24.5179 H   0  0  0  0  0  0
  -15.5361  -30.3003   23.7663 H   0  0  0  0  0  0
  -15.8667  -28.0834   22.7079 H   0  0  0  0  0  0
  -24.5958  -30.7043   25.7823 H   0  0  0  0  0  0
  -24.8934  -32.2919   26.4835 H   0  0  0  0  0  0
  -25.8101  -30.8986   27.0258 H   0  0  0  0  0  0
  -26.3028  -29.6707   24.1248 H   0  0  0  0  0  0
  -27.3970  -29.7244   25.4870 H   0  0  0  0  0  0
  -27.8960  -30.4208   23.9635 H   0  0  0  0  0  0
  -27.2687  -33.3647   26.2052 H   0  0  0  0  0  0
  -28.3954  -32.6847   25.0398 H   0  0  0  0  0  0
  -28.0687  -31.8464   26.5494 H   0  0  0  0  0  0
  -28.2613  -38.0071   24.7513 H   0  0  0  0  0  0
  -28.1049  -36.2604   24.6312 H   0  0  0  0  0  0
  -27.2274  -37.1448   25.8872 H   0  0  0  0  0  0
  -20.9425  -29.8752   21.6786 H   0  0  0  0  0  0
  -26.0143  -38.2819   24.1451 H   0  0  0  0  0  0
  -26.8397  -20.8950   18.7126 H   0  0  0  0  0  0
  -25.0957  -19.5608   19.6232 H   0  0  0  0  0  0
  -27.8724  -17.2714   21.9014 H   0  0  0  0  0  0
  -29.4240  -24.3973   18.2582 H   0  0  0  0  0  0
  -30.2576  -24.0968   19.7430 H   0  0  0  0  0  0
  -27.3945  -24.0992   21.9735 H   0  0  0  0  0  0
  -29.1112  -23.9364   21.8573 H   0  0  0  0  0  0
  -30.0437  -21.9977   18.4759 H   0  0  0  0  0  0
  -28.3449  -22.2061   18.2605 H   0  0  0  0  0  0
  -26.9718  -22.0579   20.7540 H   0  0  0  0  0  0
  -28.0432  -21.6957   22.0588 H   0  0  0  0  0  0
  -27.2469  -24.4677   19.4863 H   0  0  0  0  0  0
  -30.7944  -17.9055   21.0406 H   0  0  0  0  0  0
  -30.3984  -17.7699   19.3607 H   0  0  0  0  0  0
  -28.7752  -15.8265   20.7104 H   0  0  0  0  0  0
  1 25  1  0  0  0
  1 30  2  0  0  0
  1 84  1  0  0  0
  2  3  1  0  0  0
  2 25  1  0  0  0
  2 86  1  0  0  0
  2 87  1  0  0  0
  3  4  1  0  0  0
  3 88  1  0  0  0
  3 89  1  0  0  0
  4  5  1  0  0  0
  4 90  1  0  0  0
  4 91  1  0  0  0
  5  6  1  0  0  0
  5 26  1  0  0  0
  5 92  1  0  0  0
  6 25  1  0  0  0
  6 93  1  0  0  0
  6 94  1  0  0  0
  7  8  2  0  0  0
  7 26  1  0  0  0
  7 29  1  0  0  0
  8  9  1  0  0  0
  8 22  1  0  0  0
  9 10  1  0  0  0
  9 27  2  0  0  0
 10 11  2  0  0  0
 10 15  1  0  0  0
 11 12  1  0  0  0
 11 95  1  0  0  0
 12 13  2  0  0  0
 12 96  1  0  0  0
 13 14  1  0  0  0
 13 31  1  0  0  0
 14 15  2  0  0  0
 14 97  1  0  0  0
 15 98  1  0  0  0
 16 17  2  0  0  0
 16 21  1  0  0  0
 16 31  1  0  0  0
 17 18  1  0  0  0
 17 99  1  0  0  0
 18 19  2  0  0  0
 18100  1  0  0  0
 19 20  1  0  0  0
 19 24  1  0  0  0
 20 21  2  0  0  0
 20101  1  0  0  0
 21 23  1  0  0  0
 22 28  1  0  0  0
 22 32  2  0  0  0
 26 27  1  0  0  0
 28102  1  0  0  0
 28103  1  0  0  0
 29104  1  0  0  0
 29105  1  0  0  0
 33 34  1  0  0  0
 33 66  1  0  0  0
 33 70  2  0  0  0
 34 36  1  0  0  0
 34 59  1  0  0  0
 34106  1  0  0  0
 35 44  2  0  0  0
 35 45  1  0  0  0
 35 68  1  0  0  0
 36 56  1  0  0  0
 36107  1  0  0  0
 37 39  1  0  0  0
 37 47  1  0  0  0
 37 66  1  0  0  0
 37108  1  0  0  0
 38 43  2  0  0  0
 38 46  1  0  0  0
 38 47  1  0  0  0
 39 64  1  0  0  0
 39 67  2  0  0  0
 40 52  1  0  0  0
 40 53  2  0  0  0
 40 58  1  0  0  0
 41109  1  0  0  0
 41110  1  0  0  0
 41111  1  0  0  0
 41 48  1  0  0  0
 42 43  1  0  0  0
 42 66  1  0  0  0
 42112  1  0  0  0
 42113  1  0  0  0
 43 44  1  0  0  0
 44114  1  0  0  0
 45 46  2  0  0  0
 45115  1  0  0  0
 46116  1  0  0  0
 47117  1  0  0  0
 47118  1  0  0  0
 48 56  1  0  0  0
 48 65  1  0  0  0
 48119  1  0  0  0
 49 50  1  0  0  0
 49 53  1  0  0  0
 49 64  1  0  0  0
 49120  1  0  0  0
 50 51  1  0  0  0
 50121  1  0  0  0
 50122  1  0  0  0
 51 52  1  0  0  0
 51123  1  0  0  0
 51124  1  0  0  0
 52125  1  0  0  0
 52126  1  0  0  0
 53 54  1  0  0  0
 54 55  2  0  0  0
 54127  1  0  0  0
 55 57  1  0  0  0
 55128  1  0  0  0
 56 69  2  0  0  0
 57 58  2  0  0  0
 57129  1  0  0  0
 58130  1  0  0  0
 59 60  1  0  0  0
 59 61  1  0  0  0
 59 62  1  0  0  0
 60131  1  0  0  0
 60132  1  0  0  0
 60133  1  0  0  0
 61134  1  0  0  0
 61135  1  0  0  0
 61136  1  0  0  0
 62137  1  0  0  0
 62138  1  0  0  0
 62139  1  0  0  0
 63 65  1  0  0  0
 63140  1  0  0  0
 63141  1  0  0  0
 63142  1  0  0  0
 64143  1  0  0  0
 65144  1  0  0  0
 68 81  1  0  0  0
 71 72  2  0  0  0
 71 75  1  0  0  0
 71145  1  0  0  0
 72 76  1  0  0  0
 72146  1  0  0  0
 73 74  1  0  0  0
 73 76  2  0  0  0
 73147  1  0  0  0
 74 75  2  0  0  0
 74 82  1  0  0  0
 75 83  1  0  0  0
 76 85  1  0  0  0
 77 79  1  0  0  0
 77 81  1  0  0  0
 77148  1  0  0  0
 77149  1  0  0  0
 78 80  1  0  0  0
 78 81  1  0  0  0
 78150  1  0  0  0
 78151  1  0  0  0
 79 83  1  0  0  0
 79152  1  0  0  0
 79153  1  0  0  0
 80 83  1  0  0  0
 80154  1  0  0  0
 80155  1  0  0  0
 81156  1  0  0  0
 82 84  1  0  0  0
 82157  1  0  0  0
 82158  1  0  0  0
 84159  1  0  0  0
M  ISO  4   1 100  68 101  81 101  84 100
M  END
> <chiral flag>
0

> <version>
0

> <s_m_source_file>
/data/baiqing/PycharmProjects/Reinvent-master-3.2/result/LINK_invent/BTK/process_docking_weight1_custom_product_contain_oxygen_bond_distance_aromatic_linkinvent_7_9_3/rearranged_h_0027.sdf

> <i_m_source_file_index>
17

> <r_mmod_Potential_Energy-OPLS-2005>
573.898498535156

> <r_mmod_Stretch_Energy-OPLS-2005>
223.619995117188

> <r_mmod_Bend_Energy-OPLS-2005>
269.880950927734

> <r_mmod_Torsional_Energy-OPLS-2005>
404.999267578125

> <r_mmod_Improper_Torsional_Energy-OPLS-2005>
22.8711681365967

> <r_mmod_Van_der_Waal_Energy-OPLS-2005>
149.663711547852

> <r_mmod_Electrostatic_Energy-OPLS-2005>
-427.601287841797

> <r_mmod_Solvation_Energy-OPLS-2005>
-229.4072265625

> <b_mmod_Minimization_Converged-OPLS-2005>
0

> <r_mmod_RMS_Derivative-OPLS-2005>
3.96772050857544

$$$$
17
                    3D
 Structure written by MMmdl.
144152  0  0  1  0            999 V2000
  -30.0432  -16.4052   20.2827 C   0  0  0  0  0  0
  -30.3328  -13.6745   19.5273 C   0  0  0  0  0  0
  -29.5635  -12.8868   18.3984 C   0  0  0  0  0  0
  -28.2146  -12.3581   18.8870 C   0  0  0  0  0  0
  -27.5749  -13.4024   19.8153 C   0  0  2  0  0  0
  -28.5306  -14.0583   20.8723 C   0  0  0  0  0  0
  -25.2194  -13.8442   20.5934 C   0  0  0  0  0  0
  -24.1673  -13.0461   20.9340 C   0  0  0  0  0  0
  -24.6506  -11.7014   20.8757 C   0  0  0  0  0  0
  -23.9221  -10.4315   21.0357 C   0  0  0  0  0  0
  -24.3718   -9.4222   21.9157 C   0  0  0  0  0  0
  -23.6352   -8.2274   22.0748 C   0  0  0  0  0  0
  -22.4329   -8.0314   21.3544 C   0  0  0  0  0  0
  -21.9997   -9.0294   20.4636 C   0  0  0  0  0  0
  -22.7368  -10.2153   20.3027 C   0  0  0  0  0  0
  -21.6873   -6.0759   22.5278 C   0  0  0  0  0  0
  -21.4030   -6.5654   23.8214 C   0  0  0  0  0  0
  -21.3664   -5.6800   24.9171 C   0  0  0  0  0  0
  -21.6043   -4.3063   24.7218 C   0  0  0  0  0  0
  -21.8817   -3.8160   23.4337 C   0  0  0  0  0  0
  -21.9198   -4.6982   22.3397 C   0  0  0  0  0  0
  -22.7657  -13.5108   21.1939 C   0  0  0  0  0  0
  -22.1663   -4.2166   21.0974 F   0  0  0  0  0  0
  -21.5625   -3.4543   25.7729 F   0  0  0  0  0  0
  -29.5625  -14.9202   20.1610 N   0  0  0  0  0  0
  -26.2780  -12.9970   20.3437 N   0  0  0  0  0  0
  -25.9499  -11.6926   20.5691 N   0  0  0  0  0  0
  -22.0349  -12.8061   22.0489 N   0  0  0  0  0  0
  -25.3629  -15.2201   20.4371 N   0  0  0  0  0  0
  -31.2837  -16.1500   20.2068 O   0  0  0  0  0  0
  -21.6670   -6.8919   21.4247 O   0  0  0  0  0  0
  -22.3302  -14.5394   20.6771 O   0  0  0  0  0  0
  -24.7337  -31.7360   23.1071 C   0  0  0  0  0  0
  -25.9660  -32.4156   23.7816 C   0  0  1  0  0  0
  -27.2533  -26.1722   20.2583 C   0  0  0  0  0  0
  -25.6016  -33.8012   24.1643 N   0  0  0  0  0  0
  -23.5836  -30.3123   21.4738 C   0  0  2  0  0  0
  -25.0458  -28.5390   20.1327 C   0  0  0  0  0  0
  -22.7987  -29.3971   22.4572 C   0  0  0  0  0  0
  -18.0369  -28.1449   22.8427 C   0  0  0  0  0  0
  -24.1497  -36.7020   23.2668 C   0  0  0  0  0  0
  -26.1811  -30.2920   21.4521 C   0  0  0  0  0  0
  -26.2407  -28.7970   20.8120 C   0  0  0  0  0  0
  -27.2991  -27.6603   20.8283 C   0  0  0  0  0  0
  -26.0228  -26.2599   19.5094 C   0  0  0  0  0  0
  -25.0077  -27.3008   19.4556 C   0  0  0  0  0  0
  -23.8658  -29.5576   20.1329 C   0  0  0  0  0  0
  -25.4167  -36.2715   24.0243 C   0  0  1  0  0  0
  -20.6027  -28.3827   23.1049 C   0  0  2  0  0  0
  -20.6806  -26.9437   22.5416 C   0  0  0  0  0  0
  -19.5793  -26.6351   21.5223 C   0  0  0  0  0  0
  -18.1975  -26.7965   22.1609 C   0  0  0  0  0  0
  -19.1648  -28.8974   23.2702 C   0  0  0  0  0  0
  -18.9546  -30.1545   23.8770 C   0  0  0  0  0  0
  -17.6530  -30.6616   24.0539 C   0  0  0  0  0  0
  -25.9178  -34.9119   23.4823 C   0  0  0  0  0  0
  -16.5416  -29.9089   23.6364 C   0  0  0  0  0  0
  -16.7346  -28.6516   23.0375 C   0  0  0  0  0  0
  -26.4675  -31.6424   25.0657 C   0  0  0  0  0  0
  -25.3605  -31.3886   26.1175 C   0  0  0  0  0  0
  -27.0695  -30.2712   24.6936 C   0  0  0  0  0  0
  -27.6020  -32.4416   25.7502 C   0  0  0  0  0  0
  -27.5547  -37.1663   24.8466 C   0  0  0  0  0  0
  -21.4589  -29.2965   22.3310 N   0  0  0  0  0  0
  -26.4248  -37.3535   23.9408 N   0  0  0  0  0  0
  -24.8631  -30.8267   22.0625 N   0  0  0  0  0  0
  -23.4182  -28.7667   23.3165 O   0  0  0  0  0  0
  -28.1685  -24.7277   20.3394 O   0  0  0  0  0  0
  -26.5899  -34.8803   22.4497 O   0  0  0  0  0  0
  -23.6246  -32.0682   23.5688 O   0  0  0  0  0  0
  -29.5306  -21.4153   19.6259 C   0  0  0  0  0  0
  -28.0287  -21.0583   20.9515 C   0  0  0  0  0  0
  -30.1095  -19.6269   20.0339 C   0  0  0  0  0  0
  -28.2031  -19.1804   20.5447 C   0  0  0  0  0  0
  -28.2937  -22.6955   20.1302 C   0  0  0  0  0  0
  -29.4651  -18.0625   20.2508 N   0  0  0  0  0  0
  -31.2536  -14.0308   19.0647 H   0  0  0  0  0  0
  -30.6845  -12.9884   20.3004 H   0  0  0  0  0  0
  -30.1743  -12.0681   18.0157 H   0  0  0  0  0  0
  -29.3965  -13.5615   17.5575 H   0  0  0  0  0  0
  -28.3830  -11.4352   19.4435 H   0  0  0  0  0  0
  -27.5608  -12.1095   18.0499 H   0  0  0  0  0  0
  -27.3367  -14.2130   19.1242 H   0  0  0  0  0  0
  -28.9599  -13.3197   21.5515 H   0  0  0  0  0  0
  -27.9554  -14.7278   21.5127 H   0  0  0  0  0  0
  -25.2851   -9.5688   22.4754 H   0  0  0  0  0  0
  -24.0040   -7.4672   22.7487 H   0  0  0  0  0  0
  -21.0922   -8.8836   19.8946 H   0  0  0  0  0  0
  -22.3827  -10.9694   19.6138 H   0  0  0  0  0  0
  -21.2030   -7.6162   23.9723 H   0  0  0  0  0  0
  -21.1485   -6.0528   25.9075 H   0  0  0  0  0  0
  -22.0589   -2.7622   23.2832 H   0  0  0  0  0  0
  -22.4027  -11.9758   22.4893 H   0  0  0  0  0  0
  -21.0938  -13.1011   22.2674 H   0  0  0  0  0  0
  -24.5850  -15.8608   20.5509 H   0  0  0  0  0  0
  -26.2102  -15.6756   20.1233 H   0  0  0  0  0  0
  -26.7805  -32.4519   23.0572 H   0  0  0  0  0  0
  -24.9979  -33.8958   24.9676 H   0  0  0  0  0  0
  -22.9400  -31.1622   21.2373 H   0  0  0  0  0  0
  -23.3791  -35.9312   23.3228 H   0  0  0  0  0  0
  -24.3546  -36.8819   22.2103 H   0  0  0  0  0  0
  -23.7229  -37.6137   23.6858 H   0  0  0  0  0  0
  -26.4373  -30.9798   20.6452 H   0  0  0  0  0  0
  -27.0140  -30.3772   22.1361 H   0  0  0  0  0  0
  -28.1860  -27.8880   21.4026 H   0  0  0  0  0  0
  -25.7725  -25.3647   18.9577 H   0  0  0  0  0  0
  -24.1237  -27.0826   18.8722 H   0  0  0  0  0  0
  -24.0823  -30.2940   19.3583 H   0  0  0  0  0  0
  -22.9605  -29.0490   19.7977 H   0  0  0  0  0  0
  -25.1403  -36.1399   25.0730 H   0  0  0  0  0  0
  -21.0088  -28.3492   24.1185 H   0  0  0  0  0  0
  -20.5618  -26.2466   23.3725 H   0  0  0  0  0  0
  -21.6664  -26.7296   22.1269 H   0  0  0  0  0  0
  -19.6940  -25.6229   21.1334 H   0  0  0  0  0  0
  -19.6756  -27.3093   20.6701 H   0  0  0  0  0  0
  -17.4249  -26.6712   21.4007 H   0  0  0  0  0  0
  -18.0341  -26.0137   22.9030 H   0  0  0  0  0  0
  -19.8023  -30.7389   24.2086 H   0  0  0  0  0  0
  -17.5080  -31.6283   24.5168 H   0  0  0  0  0  0
  -15.5412  -30.2953   23.7761 H   0  0  0  0  0  0
  -15.8746  -28.0794   22.7162 H   0  0  0  0  0  0
  -24.5847  -30.7184   25.7454 H   0  0  0  0  0  0
  -24.8741  -32.3151   26.4233 H   0  0  0  0  0  0
  -25.7661  -30.9282   27.0193 H   0  0  0  0  0  0
  -26.3502  -29.6152   24.2028 H   0  0  0  0  0  0
  -27.4013  -29.7384   25.5858 H   0  0  0  0  0  0
  -27.9518  -30.3729   24.0618 H   0  0  0  0  0  0
  -27.2492  -33.3852   26.1675 H   0  0  0  0  0  0
  -28.4027  -32.6761   25.0475 H   0  0  0  0  0  0
  -28.0472  -31.8828   26.5744 H   0  0  0  0  0  0
  -28.2499  -38.0015   24.7516 H   0  0  0  0  0  0
  -28.1106  -36.2529   24.6292 H   0  0  0  0  0  0
  -27.2259  -37.1282   25.8867 H   0  0  0  0  0  0
  -21.0021  -29.8534   21.6222 H   0  0  0  0  0  0
  -26.0026  -38.2557   24.1433 H   0  0  0  0  0  0
  -29.3838  -21.3719   18.5458 H   0  0  0  0  0  0
  -30.4649  -21.9714   19.7094 H   0  0  0  0  0  0
  -28.5459  -21.1607   21.9084 H   0  0  0  0  0  0
  -26.9818  -21.1294   21.2480 H   0  0  0  0  0  0
  -30.6904  -19.7524   20.9501 H   0  0  0  0  0  0
  -30.8822  -19.4393   19.2874 H   0  0  0  0  0  0
  -27.5373  -19.0245   19.6940 H   0  0  0  0  0  0
  -27.6727  -18.6946   21.3646 H   0  0  0  0  0  0
  -27.5538  -22.6481   19.3308 H   0  0  0  0  0  0
  1 25  1  0  0  0
  1 30  2  0  0  0
  1 76  1  0  0  0
  2  3  1  0  0  0
  2 25  1  0  0  0
  2 77  1  0  0  0
  2 78  1  0  0  0
  3  4  1  0  0  0
  3 79  1  0  0  0
  3 80  1  0  0  0
  4  5  1  0  0  0
  4 81  1  0  0  0
  4 82  1  0  0  0
  5  6  1  0  0  0
  5 26  1  0  0  0
  5 83  1  0  0  0
  6 25  1  0  0  0
  6 84  1  0  0  0
  6 85  1  0  0  0
  7  8  2  0  0  0
  7 26  1  0  0  0
  7 29  1  0  0  0
  8  9  1  0  0  0
  8 22  1  0  0  0
  9 10  1  0  0  0
  9 27  2  0  0  0
 10 11  2  0  0  0
 10 15  1  0  0  0
 11 12  1  0  0  0
 11 86  1  0  0  0
 12 13  2  0  0  0
 12 87  1  0  0  0
 13 14  1  0  0  0
 13 31  1  0  0  0
 14 15  2  0  0  0
 14 88  1  0  0  0
 15 89  1  0  0  0
 16 17  2  0  0  0
 16 21  1  0  0  0
 16 31  1  0  0  0
 17 18  1  0  0  0
 17 90  1  0  0  0
 18 19  2  0  0  0
 18 91  1  0  0  0
 19 20  1  0  0  0
 19 24  1  0  0  0
 20 21  2  0  0  0
 20 92  1  0  0  0
 21 23  1  0  0  0
 22 28  1  0  0  0
 22 32  2  0  0  0
 26 27  1  0  0  0
 28 93  1  0  0  0
 28 94  1  0  0  0
 29 95  1  0  0  0
 29 96  1  0  0  0
 33 34  1  0  0  0
 33 66  1  0  0  0
 33 70  2  0  0  0
 34 36  1  0  0  0
 34 59  1  0  0  0
 34 97  1  0  0  0
 35 44  2  0  0  0
 35 45  1  0  0  0
 35 68  1  0  0  0
 36 56  1  0  0  0
 36 98  1  0  0  0
 37 39  1  0  0  0
 37 47  1  0  0  0
 37 66  1  0  0  0
 37 99  1  0  0  0
 38 43  2  0  0  0
 38 46  1  0  0  0
 38 47  1  0  0  0
 39 64  1  0  0  0
 39 67  2  0  0  0
 40 52  1  0  0  0
 40 53  2  0  0  0
 40 58  1  0  0  0
 41100  1  0  0  0
 41101  1  0  0  0
 41102  1  0  0  0
 41 48  1  0  0  0
 42 43  1  0  0  0
 42 66  1  0  0  0
 42103  1  0  0  0
 42104  1  0  0  0
 43 44  1  0  0  0
 44105  1  0  0  0
 45 46  2  0  0  0
 45106  1  0  0  0
 46107  1  0  0  0
 47108  1  0  0  0
 47109  1  0  0  0
 48 56  1  0  0  0
 48 65  1  0  0  0
 48110  1  0  0  0
 49 50  1  0  0  0
 49 53  1  0  0  0
 49 64  1  0  0  0
 49111  1  0  0  0
 50 51  1  0  0  0
 50112  1  0  0  0
 50113  1  0  0  0
 51 52  1  0  0  0
 51114  1  0  0  0
 51115  1  0  0  0
 52116  1  0  0  0
 52117  1  0  0  0
 53 54  1  0  0  0
 54 55  2  0  0  0
 54118  1  0  0  0
 55 57  1  0  0  0
 55119  1  0  0  0
 56 69  2  0  0  0
 57 58  2  0  0  0
 57120  1  0  0  0
 58121  1  0  0  0
 59 60  1  0  0  0
 59 61  1  0  0  0
 59 62  1  0  0  0
 60122  1  0  0  0
 60123  1  0  0  0
 60124  1  0  0  0
 61125  1  0  0  0
 61126  1  0  0  0
 61127  1  0  0  0
 62128  1  0  0  0
 62129  1  0  0  0
 62130  1  0  0  0
 63 65  1  0  0  0
 63131  1  0  0  0
 63132  1  0  0  0
 63133  1  0  0  0
 64134  1  0  0  0
 65135  1  0  0  0
 68 75  1  0  0  0
 71 73  1  0  0  0
 71 75  1  0  0  0
 71136  1  0  0  0
 71137  1  0  0  0
 72 74  1  0  0  0
 72 75  1  0  0  0
 72138  1  0  0  0
 72139  1  0  0  0
 73 76  1  0  0  0
 73140  1  0  0  0
 73141  1  0  0  0
 74 76  1  0  0  0
 74142  1  0  0  0
 74143  1  0  0  0
 75144  1  0  0  0
M  ISO  4   1 100  68 101  75 101  76 100
M  END
> <chiral flag>
0

> <version>
0

> <s_m_source_file>
/data/baiqing/PycharmProjects/Reinvent-master-3.2/result/LINK_invent/BTK/process_docking_weight1_custom_product_contain_oxygen_bond_distance_aromatic_linkinvent_7_9_3/rearranged_h_0027.sdf

> <i_m_source_file_index>
18

> <r_mmod_Potential_Energy-OPLS-2005>
6036.759765625

> <r_mmod_Stretch_Energy-OPLS-2005>
2262.14306640625

> <r_mmod_Bend_Energy-OPLS-2005>
1417.26342773438

> <r_mmod_Torsional_Energy-OPLS-2005>
317.620666503906

> <r_mmod_Improper_Torsional_Energy-OPLS-2005>
7.64459848403931

> <r_mmod_Van_der_Waal_Energy-OPLS-2005>
135.864761352539

> <r_mmod_Electrostatic_Energy-OPLS-2005>
-276.497619628906

> <r_mmod_Solvation_Energy-OPLS-2005>
-220.902389526367

> <b_mmod_Minimization_Converged-OPLS-2005>
1

> <r_mmod_RMS_Derivative-OPLS-2005>
0.0281536560505629

$$$$
18
                    3D
 Structure written by MMmdl.
164173  0  0  1  0            999 V2000
  -30.5878  -14.7565   20.4878 C   0  0  0  0  0  0
  -30.4466  -12.4642   19.4740 C   0  0  0  0  0  0
  -29.5181  -12.5136   18.2379 C   0  0  0  0  0  0
  -28.0427  -12.3381   18.6480 C   0  0  0  0  0  0
  -27.6505  -13.2268   19.8572 C   0  0  2  0  0  0
  -28.6933  -13.1356   20.9928 C   0  0  0  0  0  0
  -25.2530  -13.8112   20.5576 C   0  0  0  0  0  0
  -24.1838  -13.0408   20.9212 C   0  0  0  0  0  0
  -24.6427  -11.6889   20.8775 C   0  0  0  0  0  0
  -23.9090  -10.4271   21.0436 C   0  0  0  0  0  0
  -24.3642   -9.4184   21.9203 C   0  0  0  0  0  0
  -23.6304   -8.2228   22.0762 C   0  0  0  0  0  0
  -22.4277   -8.0285   21.3558 C   0  0  0  0  0  0
  -21.9933   -9.0258   20.4653 C   0  0  0  0  0  0
  -22.7273  -10.2126   20.3068 C   0  0  0  0  0  0
  -21.6856   -6.0741   22.5280 C   0  0  0  0  0  0
  -21.4010   -6.5644   23.8212 C   0  0  0  0  0  0
  -21.3656   -5.6798   24.9180 C   0  0  0  0  0  0
  -21.6041   -4.3058   24.7228 C   0  0  0  0  0  0
  -21.8824   -3.8153   23.4351 C   0  0  0  0  0  0
  -21.9188   -4.6968   22.3408 C   0  0  0  0  0  0
  -22.7867  -13.5214   21.1875 C   0  0  0  0  0  0
  -22.1662   -4.2153   21.0986 F   0  0  0  0  0  0
  -21.5632   -3.4542   25.7744 F   0  0  0  0  0  0
  -29.9989  -13.5087   20.4265 N   0  0  0  0  0  0
  -26.2993  -12.9342   20.3280 N   0  0  0  0  0  0
  -25.9366  -11.6494   20.5792 N   0  0  0  0  0  0
  -22.0508  -12.8191   22.0414 N   0  0  0  0  0  0
  -25.4166  -15.1772   20.3710 N   0  0  0  0  0  0
  -31.7518  -14.9064   20.1041 O   0  0  0  0  0  0
  -21.6643   -6.8884   21.4242 O   0  0  0  0  0  0
  -22.3566  -14.5533   20.6737 O   0  0  0  0  0  0
  -24.6288  -31.8550   23.1966 C   0  0  0  0  0  0
  -25.9109  -32.4780   23.8300 C   0  0  1  0  0  0
  -27.2400  -27.2759   20.1257 C   0  0  0  0  0  0
  -25.5908  -33.8564   24.2232 N   0  0  0  0  0  0
  -23.4270  -30.4773   21.5374 C   0  0  2  0  0  0
  -24.8767  -28.9201   20.1144 C   0  0  0  0  0  0
  -22.7500  -29.4615   22.4888 C   0  0  0  0  0  0
  -18.0310  -28.1428   22.8492 C   0  0  0  0  0  0
  -24.1483  -36.7279   23.2638 C   0  0  0  0  0  0
  -25.9694  -30.7747   21.3698 C   0  0  0  0  0  0
  -26.0468  -29.3956   20.7188 C   0  0  0  0  0  0
  -27.2289  -28.5879   20.7101 C   0  0  0  0  0  0
  -26.0361  -26.8567   19.5130 C   0  0  0  0  0  0
  -24.8750  -27.6579   19.5018 C   0  0  0  0  0  0
  -23.6461  -29.8062   20.1555 C   0  0  0  0  0  0
  -25.4113  -36.3079   24.0328 C   0  0  1  0  0  0
  -20.5911  -28.3722   23.1268 C   0  0  2  0  0  0
  -20.6779  -26.9435   22.5404 C   0  0  0  0  0  0
  -19.5744  -26.6419   21.5210 C   0  0  0  0  0  0
  -18.1937  -26.7972   22.1630 C   0  0  0  0  0  0
  -19.1565  -28.8889   23.2879 C   0  0  0  0  0  0
  -18.9489  -30.1497   23.8900 C   0  0  0  0  0  0
  -17.6489  -30.6617   24.0598 C   0  0  0  0  0  0
  -25.9050  -34.9449   23.5081 C   0  0  0  0  0  0
  -16.5381  -29.9123   23.6359 C   0  0  0  0  0  0
  -16.7298  -28.6545   23.0361 C   0  0  0  0  0  0
  -26.4470  -31.6613   25.0687 C   0  0  0  0  0  0
  -25.3681  -31.3805   26.1412 C   0  0  0  0  0  0
  -27.0299  -30.3033   24.6152 C   0  0  0  0  0  0
  -27.6024  -32.4341   25.7469 C   0  0  0  0  0  0
  -27.5586  -37.1800   24.8467 C   0  0  0  0  0  0
  -21.4209  -29.3061   22.3646 N   0  0  0  0  0  0
  -26.4289  -37.3785   23.9431 N   0  0  0  0  0  0
  -24.6941  -31.0543   22.0918 N   0  0  0  0  0  0
  -23.4204  -28.8173   23.2995 O   0  0  0  0  0  0
  -28.3796  -26.4352   20.1683 O   0  0  0  0  0  0
  -26.5644  -34.8918   22.4670 O   0  0  0  0  0  0
  -23.5438  -32.1361   23.7275 O   0  0  0  0  0  0
  -30.8803  -19.4915   20.0358 C   0  0  0  0  0  0
  -30.8671  -18.0544   20.1178 C   0  0  0  0  0  0
  -28.8427  -19.5953   21.2512 C   0  0  0  0  0  0
  -28.7875  -18.1565   21.3168 C   0  0  0  0  0  0
  -29.8683  -20.3271   20.6040 C   0  0  0  0  0  0
  -29.8286  -17.3160   20.7643 C   0  0  0  0  0  0
  -27.6210  -17.5674   22.0750 C   0  0  0  0  0  0
  -28.2004  -23.8405   20.8658 C   0  0  0  0  0  0
  -29.6820  -24.2283   19.5722 C   0  0  0  0  0  0
  -28.3355  -24.9768   19.7980 C   0  0  2  0  0  0
  -25.2228  -17.6669   22.5922 C   0  0  0  0  0  0
  -26.0378  -18.6533   20.4717 C   0  0  0  0  0  0
  -30.0091  -21.9239   20.7162 C   0  0  0  0  0  0
  -29.7721  -15.8192   20.8537 N   0  0  0  0  0  0
  -26.3686  -17.9564   21.7234 N   0  0  0  0  0  0
  -29.0759  -22.9449   20.0441 N   0  3  1  0  0  0
  -27.8436  -16.7968   23.0146 O   0  0  0  0  0  0
  -31.4851  -12.6061   19.1689 H   0  0  0  0  0  0
  -30.4075  -11.4807   19.9460 H   0  0  0  0  0  0
  -29.8009  -11.7385   17.5235 H   0  0  0  0  0  0
  -29.6424  -13.4654   17.7197 H   0  0  0  0  0  0
  -27.8958  -11.2869   18.9012 H   0  0  0  0  0  0
  -27.3865  -12.5408   17.8001 H   0  0  0  0  0  0
  -27.6520  -14.2540   19.4919 H   0  0  0  0  0  0
  -28.7280  -12.1249   21.4028 H   0  0  0  0  0  0
  -28.4168  -13.7857   21.8245 H   0  0  0  0  0  0
  -25.2791   -9.5644   22.4779 H   0  0  0  0  0  0
  -24.0009   -7.4611   22.7479 H   0  0  0  0  0  0
  -21.0870   -8.8785   19.8954 H   0  0  0  0  0  0
  -22.3753  -10.9674   19.6173 H   0  0  0  0  0  0
  -21.2003   -7.6149   23.9717 H   0  0  0  0  0  0
  -21.1473   -6.0529   25.9079 H   0  0  0  0  0  0
  -22.0601   -2.7615   23.2853 H   0  0  0  0  0  0
  -22.4130  -11.9839   22.4775 H   0  0  0  0  0  0
  -21.1123  -13.1211   22.2637 H   0  0  0  0  0  0
  -24.6262  -15.8083   20.4281 H   0  0  0  0  0  0
  -26.2143  -15.5791   19.8981 H   0  0  0  0  0  0
  -26.7181  -32.5465   23.1053 H   0  0  0  0  0  0
  -25.0028  -33.9706   25.0356 H   0  0  0  0  0  0
  -22.7240  -31.3000   21.3898 H   0  0  0  0  0  0
  -23.3752  -35.9608   23.3298 H   0  0  0  0  0  0
  -24.3556  -36.8909   22.2050 H   0  0  0  0  0  0
  -23.7192  -37.6458   23.6661 H   0  0  0  0  0  0
  -26.1006  -31.5291   20.5928 H   0  0  0  0  0  0
  -26.8476  -30.8314   22.0007 H   0  0  0  0  0  0
  -28.1278  -28.9531   21.1874 H   0  0  0  0  0  0
  -25.9479  -25.8904   19.0431 H   0  0  0  0  0  0
  -23.9785  -27.2864   19.0262 H   0  0  0  0  0  0
  -23.7703  -30.5758   19.3927 H   0  0  0  0  0  0
  -22.7662  -29.2363   19.8536 H   0  0  0  0  0  0
  -25.1296  -36.1919   25.0821 H   0  0  0  0  0  0
  -21.0034  -28.3287   24.1378 H   0  0  0  0  0  0
  -20.5647  -26.2325   23.3604 H   0  0  0  0  0  0
  -21.6651  -26.7445   22.1217 H   0  0  0  0  0  0
  -19.6869  -25.6330   21.1239 H   0  0  0  0  0  0
  -19.6684  -27.3234   20.6736 H   0  0  0  0  0  0
  -17.4201  -26.6754   21.4034 H   0  0  0  0  0  0
  -18.0341  -26.0123   22.9030 H   0  0  0  0  0  0
  -19.7962  -30.7327   24.2248 H   0  0  0  0  0  0
  -17.5049  -31.6296   24.5217 H   0  0  0  0  0  0
  -15.5390  -30.3030   23.7666 H   0  0  0  0  0  0
  -15.8704  -28.0872   22.7049 H   0  0  0  0  0  0
  -24.5854  -30.7150   25.7769 H   0  0  0  0  0  0
  -24.8873  -32.2994   26.4783 H   0  0  0  0  0  0
  -25.7978  -30.9033   27.0219 H   0  0  0  0  0  0
  -26.2864  -29.6815   24.1153 H   0  0  0  0  0  0
  -27.3964  -29.7280   25.4658 H   0  0  0  0  0  0
  -27.8749  -30.4339   23.9382 H   0  0  0  0  0  0
  -27.2649  -33.3665   26.2008 H   0  0  0  0  0  0
  -28.3858  -32.6865   25.0310 H   0  0  0  0  0  0
  -28.0642  -31.8464   26.5418 H   0  0  0  0  0  0
  -28.2607  -38.0102   24.7563 H   0  0  0  0  0  0
  -28.1081  -36.2633   24.6246 H   0  0  0  0  0  0
  -27.2311  -37.1400   25.8871 H   0  0  0  0  0  0
  -20.9376  -29.8806   21.6885 H   0  0  0  0  0  0
  -26.0160  -38.2854   24.1462 H   0  0  0  0  0  0
  -31.7336  -19.9582   19.5609 H   0  0  0  0  0  0
  -31.6942  -17.5177   19.6726 H   0  0  0  0  0  0
  -28.0721  -20.1635   21.7544 H   0  0  0  0  0  0
  -27.1878  -23.4613   20.9981 H   0  0  0  0  0  0
  -28.6488  -24.1032   21.8288 H   0  0  0  0  0  0
  -30.4850  -24.5843   20.2218 H   0  0  0  0  0  0
  -30.0090  -24.1958   18.5323 H   0  0  0  0  0  0
  -27.7092  -24.7926   18.9252 H   0  0  0  0  0  0
  -25.2848  -16.6679   23.0272 H   0  0  0  0  0  0
  -24.2711  -17.7202   22.0636 H   0  0  0  0  0  0
  -25.1856  -18.3860   23.4112 H   0  0  0  0  0  0
  -26.7230  -18.3928   19.6636 H   0  0  0  0  0  0
  -26.0717  -19.7334   20.6131 H   0  0  0  0  0  0
  -25.0397  -18.4020   20.1137 H   0  0  0  0  0  0
  -31.0044  -22.1479   20.3301 H   0  0  0  0  0  0
  -30.0696  -22.1728   21.7763 H   0  0  0  0  0  0
  -28.9011  -15.4714   21.2252 H   0  0  0  0  0  0
  -28.5688  -22.5185   19.2857 H   0  0  0  0  0  0
  1 25  1  0  0  0
  1 30  2  0  0  0
  1 84  1  0  0  0
  2  3  1  0  0  0
  2 25  1  0  0  0
  2 88  1  0  0  0
  2 89  1  0  0  0
  3  4  1  0  0  0
  3 90  1  0  0  0
  3 91  1  0  0  0
  4  5  1  0  0  0
  4 92  1  0  0  0
  4 93  1  0  0  0
  5  6  1  0  0  0
  5 26  1  0  0  0
  5 94  1  0  0  0
  6 25  1  0  0  0
  6 95  1  0  0  0
  6 96  1  0  0  0
  7  8  2  0  0  0
  7 26  1  0  0  0
  7 29  1  0  0  0
  8  9  1  0  0  0
  8 22  1  0  0  0
  9 10  1  0  0  0
  9 27  2  0  0  0
 10 11  2  0  0  0
 10 15  1  0  0  0
 11 12  1  0  0  0
 11 97  1  0  0  0
 12 13  2  0  0  0
 12 98  1  0  0  0
 13 14  1  0  0  0
 13 31  1  0  0  0
 14 15  2  0  0  0
 14 99  1  0  0  0
 15100  1  0  0  0
 16 17  2  0  0  0
 16 21  1  0  0  0
 16 31  1  0  0  0
 17 18  1  0  0  0
 17101  1  0  0  0
 18 19  2  0  0  0
 18102  1  0  0  0
 19 20  1  0  0  0
 19 24  1  0  0  0
 20 21  2  0  0  0
 20103  1  0  0  0
 21 23  1  0  0  0
 22 28  1  0  0  0
 22 32  2  0  0  0
 26 27  1  0  0  0
 28104  1  0  0  0
 28105  1  0  0  0
 29106  1  0  0  0
 29107  1  0  0  0
 33 34  1  0  0  0
 33 66  1  0  0  0
 33 70  2  0  0  0
 34 36  1  0  0  0
 34 59  1  0  0  0
 34108  1  0  0  0
 35 44  2  0  0  0
 35 45  1  0  0  0
 35 68  1  0  0  0
 36 56  1  0  0  0
 36109  1  0  0  0
 37 39  1  0  0  0
 37 47  1  0  0  0
 37 66  1  0  0  0
 37110  1  0  0  0
 38 43  2  0  0  0
 38 46  1  0  0  0
 38 47  1  0  0  0
 39 64  1  0  0  0
 39 67  2  0  0  0
 40 52  1  0  0  0
 40 53  2  0  0  0
 40 58  1  0  0  0
 41111  1  0  0  0
 41112  1  0  0  0
 41113  1  0  0  0
 41 48  1  0  0  0
 42 43  1  0  0  0
 42 66  1  0  0  0
 42114  1  0  0  0
 42115  1  0  0  0
 43 44  1  0  0  0
 44116  1  0  0  0
 45 46  2  0  0  0
 45117  1  0  0  0
 46118  1  0  0  0
 47119  1  0  0  0
 47120  1  0  0  0
 48 56  1  0  0  0
 48 65  1  0  0  0
 48121  1  0  0  0
 49 50  1  0  0  0
 49 53  1  0  0  0
 49 64  1  0  0  0
 49122  1  0  0  0
 50 51  1  0  0  0
 50123  1  0  0  0
 50124  1  0  0  0
 51 52  1  0  0  0
 51125  1  0  0  0
 51126  1  0  0  0
 52127  1  0  0  0
 52128  1  0  0  0
 53 54  1  0  0  0
 54 55  2  0  0  0
 54129  1  0  0  0
 55 57  1  0  0  0
 55130  1  0  0  0
 56 69  2  0  0  0
 57 58  2  0  0  0
 57131  1  0  0  0
 58132  1  0  0  0
 59 60  1  0  0  0
 59 61  1  0  0  0
 59 62  1  0  0  0
 60133  1  0  0  0
 60134  1  0  0  0
 60135  1  0  0  0
 61136  1  0  0  0
 61137  1  0  0  0
 61138  1  0  0  0
 62139  1  0  0  0
 62140  1  0  0  0
 62141  1  0  0  0
 63 65  1  0  0  0
 63142  1  0  0  0
 63143  1  0  0  0
 63144  1  0  0  0
 64145  1  0  0  0
 65146  1  0  0  0
 68 80  1  0  0  0
 71 72  2  0  0  0
 71 75  1  0  0  0
 71147  1  0  0  0
 72 76  1  0  0  0
 72148  1  0  0  0
 73 74  1  0  0  0
 73 75  2  0  0  0
 73149  1  0  0  0
 74 76  2  0  0  0
 74 77  1  0  0  0
 75 83  1  0  0  0
 76 84  1  0  0  0
 77 85  1  0  0  0
 77 87  2  0  0  0
 78 80  1  0  0  0
 78 86  1  0  0  0
 78150  1  0  0  0
 78151  1  0  0  0
 79 80  1  0  0  0
 79 86  1  0  0  0
 79152  1  0  0  0
 79153  1  0  0  0
 80154  1  0  0  0
 81 85  1  0  0  0
 81155  1  0  0  0
 81156  1  0  0  0
 81157  1  0  0  0
 82 85  1  0  0  0
 82158  1  0  0  0
 82159  1  0  0  0
 82160  1  0  0  0
 83161  1  0  0  0
 83162  1  0  0  0
 83 86  1  0  0  0
 84163  1  0  0  0
 86164  1  0  0  0
M  CHG  1  86   1
M  ISO  4   1 100  68 101  80 101  84 100
M  END
> <chiral flag>
0

> <version>
0

> <s_m_source_file>
/data/baiqing/PycharmProjects/Reinvent-master-3.2/result/LINK_invent/BTK/process_docking_weight1_custom_product_contain_oxygen_bond_distance_aromatic_linkinvent_7_9_3/rearranged_h_0027.sdf

> <i_m_source_file_index>
19

> <r_mmod_Potential_Energy-OPLS-2005>
69.2194595336914

> <r_mmod_Stretch_Energy-OPLS-2005>
121.882698059082

> <r_mmod_Bend_Energy-OPLS-2005>
209.199203491211

> <r_mmod_Torsional_Energy-OPLS-2005>
254.576034545898

> <r_mmod_Improper_Torsional_Energy-OPLS-2005>
5.78769779205322

> <r_mmod_Van_der_Waal_Energy-OPLS-2005>
144.158248901367

> <r_mmod_Electrostatic_Energy-OPLS-2005>
-243.441619873047

> <r_mmod_Solvation_Energy-OPLS-2005>
-502.160522460938

> <b_mmod_Minimization_Converged-OPLS-2005>
0

> <r_mmod_RMS_Derivative-OPLS-2005>
2.76002955436707

$$$$
20
                    3D
 Structure written by MMmdl.
167177  0  0  1  0            999 V2000
  -30.5241  -14.9344   20.4385 C   0  0  0  0  0  0
  -30.4526  -12.5758   19.5017 C   0  0  0  0  0  0
  -29.5280  -12.5403   18.2604 C   0  0  0  0  0  0
  -28.0577  -12.3341   18.6709 C   0  0  0  0  0  0
  -27.6407  -13.2470   19.8547 C   0  0  2  0  0  0
  -28.6853  -13.2346   20.9922 C   0  0  0  0  0  0
  -25.2497  -13.8202   20.5706 C   0  0  0  0  0  0
  -24.1795  -13.0426   20.9196 C   0  0  0  0  0  0
  -24.6426  -11.6923   20.8745 C   0  0  0  0  0  0
  -23.9108  -10.4292   21.0416 C   0  0  0  0  0  0
  -24.3650   -9.4205   21.9196 C   0  0  0  0  0  0
  -23.6314   -8.2249   22.0767 C   0  0  0  0  0  0
  -22.4300   -8.0298   21.3547 C   0  0  0  0  0  0
  -21.9948   -9.0271   20.4641 C   0  0  0  0  0  0
  -22.7283  -10.2147   20.3058 C   0  0  0  0  0  0
  -21.6859   -6.0752   22.5286 C   0  0  0  0  0  0
  -21.4014   -6.5654   23.8218 C   0  0  0  0  0  0
  -21.3657   -5.6803   24.9179 C   0  0  0  0  0  0
  -21.6048   -4.3065   24.7223 C   0  0  0  0  0  0
  -21.8818   -3.8158   23.4341 C   0  0  0  0  0  0
  -21.9191   -4.6978   22.3401 C   0  0  0  0  0  0
  -22.7818  -13.5210   21.1849 C   0  0  0  0  0  0
  -22.1658   -4.2168   21.0978 F   0  0  0  0  0  0
  -21.5628   -3.4542   25.7730 F   0  0  0  0  0  0
  -29.9684  -13.6551   20.4088 N   0  0  0  0  0  0
  -26.2954  -12.9446   20.3330 N   0  0  0  0  0  0
  -25.9371  -11.6573   20.5773 N   0  0  0  0  0  0
  -22.0461  -12.8194   22.0397 N   0  0  0  0  0  0
  -25.4135  -15.1917   20.4134 N   0  0  0  0  0  0
  -31.7033  -15.0583   20.0897 O   0  0  0  0  0  0
  -21.6649   -6.8907   21.4256 O   0  0  0  0  0  0
  -22.3503  -14.5520   20.6711 O   0  0  0  0  0  0
  -24.6459  -31.8441   23.1904 C   0  0  0  0  0  0
  -25.9236  -32.4700   23.8284 C   0  0  1  0  0  0
  -27.2110  -27.1157   20.1559 C   0  0  0  0  0  0
  -25.5988  -33.8508   24.2194 N   0  0  0  0  0  0
  -23.4495  -30.4655   21.5363 C   0  0  2  0  0  0
  -24.8986  -28.8920   20.1155 C   0  0  0  0  0  0
  -22.7576  -29.4558   22.4864 C   0  0  0  0  0  0
  -18.0301  -28.1401   22.8480 C   0  0  0  0  0  0
  -24.1486  -36.7238   23.2637 C   0  0  0  0  0  0
  -26.0088  -30.7096   21.3965 C   0  0  0  0  0  0
  -26.0774  -29.3183   20.7410 C   0  0  0  0  0  0
  -27.2340  -28.4460   20.7477 C   0  0  0  0  0  0
  -26.0179  -26.8213   19.4604 C   0  0  0  0  0  0
  -24.8826  -27.6554   19.4607 C   0  0  0  0  0  0
  -23.6772  -29.7960   20.1568 C   0  0  0  0  0  0
  -25.4121  -36.3026   24.0311 C   0  0  1  0  0  0
  -20.5918  -28.3734   23.1226 C   0  0  2  0  0  0
  -20.6789  -26.9436   22.5394 C   0  0  0  0  0  0
  -19.5760  -26.6381   21.5209 C   0  0  0  0  0  0
  -18.1939  -26.7943   22.1614 C   0  0  0  0  0  0
  -19.1561  -28.8882   23.2842 C   0  0  0  0  0  0
  -18.9478  -30.1482   23.8860 C   0  0  0  0  0  0
  -17.6477  -30.6600   24.0556 C   0  0  0  0  0  0
  -25.9078  -34.9408   23.5049 C   0  0  0  0  0  0
  -16.5365  -29.9091   23.6348 C   0  0  0  0  0  0
  -16.7289  -28.6508   23.0374 C   0  0  0  0  0  0
  -26.4546  -31.6583   25.0737 C   0  0  0  0  0  0
  -25.3720  -31.3783   26.1426 C   0  0  0  0  0  0
  -27.0438  -30.2982   24.6339 C   0  0  0  0  0  0
  -27.6054  -32.4364   25.7534 C   0  0  0  0  0  0
  -27.5578  -37.1769   24.8456 C   0  0  0  0  0  0
  -21.4265  -29.3067   22.3608 N   0  0  0  0  0  0
  -26.4267  -37.3757   23.9427 N   0  0  0  0  0  0
  -24.7210  -31.0279   22.0954 N   0  0  0  0  0  0
  -23.4206  -28.8090   23.3011 O   0  0  0  0  0  0
  -28.2527  -26.1079   20.1890 O   0  0  0  0  0  0
  -26.5641  -34.8900   22.4615 O   0  0  0  0  0  0
  -23.5574  -32.1331   23.7110 O   0  0  0  0  0  0
  -30.3942  -18.4980   19.8447 C   0  0  0  0  0  0
  -28.3919  -19.7024   21.3173 C   0  0  0  0  0  0
  -30.1431  -19.9450   19.7410 C   0  0  0  0  0  0
  -29.0994  -20.6334   20.4832 C   0  0  0  0  0  0
  -28.6339  -18.2702   21.4124 C   0  0  0  0  0  0
  -29.6445  -17.5765   20.6588 C   0  0  0  0  0  0
  -29.0723  -23.3952   20.5563 C   0  0  0  0  0  0
  -26.0750  -16.8929   23.7549 C   0  0  0  0  0  0
  -27.3683  -16.1705   24.1492 C   0  0  0  0  0  0
  -26.9387  -23.7911   19.6609 C   0  0  0  0  0  0
  -26.4587  -17.8019   22.5755 C   0  0  0  0  0  0
  -28.4653  -17.0002   23.4899 C   0  0  0  0  0  0
  -27.1778  -22.2860   19.9777 C   0  0  0  0  0  0
  -27.9518  -24.5908   20.4936 C   0  0  2  0  0  0
  -30.9886  -20.7251   18.7315 C   0  0  0  0  0  0
  -28.5860  -22.0874   20.3292 N   0  0  0  0  0  0
  -27.8441  -17.4676   22.2616 N   0  0  0  0  0  0
  -29.6868  -16.0379   20.7312 N   0  0  0  0  0  0
  -30.2493  -23.6452   20.8301 O   0  0  0  0  0  0
  -30.2691  -21.6522   18.0954 F   0  0  0  0  0  0
  -31.4852  -19.9200   17.7884 F   0  0  0  0  0  0
  -32.3573  -21.5177   19.5504 Cl  0  0  0  0  0  0
  -31.4855  -12.7388   19.1910 H   0  0  0  0  0  0
  -30.4462  -11.6133   20.0157 H   0  0  0  0  0  0
  -29.8392  -11.7515   17.5746 H   0  0  0  0  0  0
  -29.6237  -13.4781   17.7119 H   0  0  0  0  0  0
  -27.9365  -11.2873   18.9517 H   0  0  0  0  0  0
  -27.4000  -12.4988   17.8170 H   0  0  0  0  0  0
  -27.6132  -14.2600   19.4519 H   0  0  0  0  0  0
  -28.7659  -12.2413   21.4372 H   0  0  0  0  0  0
  -28.3870  -13.9049   21.7985 H   0  0  0  0  0  0
  -25.2798   -9.5669   22.4765 H   0  0  0  0  0  0
  -24.0011   -7.4649   22.7502 H   0  0  0  0  0  0
  -21.0885   -8.8800   19.8942 H   0  0  0  0  0  0
  -22.3758  -10.9694   19.6162 H   0  0  0  0  0  0
  -21.2013   -7.6162   23.9726 H   0  0  0  0  0  0
  -21.1480   -6.0534   25.9086 H   0  0  0  0  0  0
  -22.0599   -2.7621   23.2838 H   0  0  0  0  0  0
  -22.4085  -11.9855   22.4765 H   0  0  0  0  0  0
  -21.1071  -13.1208   22.2581 H   0  0  0  0  0  0
  -24.6528  -15.8426   20.5679 H   0  0  0  0  0  0
  -26.2875  -15.6497   20.1890 H   0  0  0  0  0  0
  -26.7300  -32.5301   23.1007 H   0  0  0  0  0  0
  -25.0200  -33.9636   25.0385 H   0  0  0  0  0  0
  -22.7530  -31.2924   21.3821 H   0  0  0  0  0  0
  -23.3777  -35.9538   23.3239 H   0  0  0  0  0  0
  -24.3568  -36.8938   22.2061 H   0  0  0  0  0  0
  -23.7197  -37.6394   23.6718 H   0  0  0  0  0  0
  -26.1682  -31.4606   20.6212 H   0  0  0  0  0  0
  -26.8783  -30.7607   22.0403 H   0  0  0  0  0  0
  -28.1302  -28.7674   21.2598 H   0  0  0  0  0  0
  -25.9309  -25.9183   18.8839 H   0  0  0  0  0  0
  -23.9924  -27.3354   18.9370 H   0  0  0  0  0  0
  -23.8159  -30.5695   19.4012 H   0  0  0  0  0  0
  -22.7921  -29.2386   19.8462 H   0  0  0  0  0  0
  -25.1300  -36.1842   25.0800 H   0  0  0  0  0  0
  -21.0000  -28.3326   24.1353 H   0  0  0  0  0  0
  -20.5699  -26.2347   23.3615 H   0  0  0  0  0  0
  -21.6654  -26.7450   22.1191 H   0  0  0  0  0  0
  -19.6923  -25.6279   21.1274 H   0  0  0  0  0  0
  -19.6704  -27.3159   20.6714 H   0  0  0  0  0  0
  -17.4217  -26.6706   21.4007 H   0  0  0  0  0  0
  -18.0319  -26.0084   22.9003 H   0  0  0  0  0  0
  -19.7952  -30.7318   24.2202 H   0  0  0  0  0  0
  -17.5031  -31.6283   24.5163 H   0  0  0  0  0  0
  -15.5366  -30.2988   23.7696 H   0  0  0  0  0  0
  -15.8686  -28.0822   22.7117 H   0  0  0  0  0  0
  -24.5898  -30.7130   25.7748 H   0  0  0  0  0  0
  -24.8913  -32.2978   26.4776 H   0  0  0  0  0  0
  -25.7996  -30.9006   27.0251 H   0  0  0  0  0  0
  -26.3085  -29.6690   24.1309 H   0  0  0  0  0  0
  -27.4019  -29.7293   25.4930 H   0  0  0  0  0  0
  -27.8996  -30.4228   23.9701 H   0  0  0  0  0  0
  -27.2632  -33.3691   26.2026 H   0  0  0  0  0  0
  -28.3916  -32.6886   25.0408 H   0  0  0  0  0  0
  -28.0664  -31.8552   26.5530 H   0  0  0  0  0  0
  -28.2538  -38.0126   24.7587 H   0  0  0  0  0  0
  -28.1133  -36.2655   24.6176 H   0  0  0  0  0  0
  -27.2301  -37.1284   25.8858 H   0  0  0  0  0  0
  -20.9478  -29.8795   21.6795 H   0  0  0  0  0  0
  -26.0122  -38.2803   24.1503 H   0  0  0  0  0  0
  -31.1716  -18.0783   19.2250 H   0  0  0  0  0  0
  -27.6017  -20.1320   21.9096 H   0  0  0  0  0  0
  -25.7049  -17.4952   24.5864 H   0  0  0  0  0  0
  -25.2895  -16.1841   23.4883 H   0  0  0  0  0  0
  -27.3672  -15.1631   23.7304 H   0  0  0  0  0  0
  -27.4967  -16.0794   25.2284 H   0  0  0  0  0  0
  -25.9075  -24.0469   19.9014 H   0  0  0  0  0  0
  -27.1003  -23.9740   18.5972 H   0  0  0  0  0  0
  -26.3368  -18.8415   22.8777 H   0  0  0  0  0  0
  -25.8165  -17.6296   21.7107 H   0  0  0  0  0  0
  -29.3714  -16.4142   23.3261 H   0  0  0  0  0  0
  -28.7292  -17.8545   24.1167 H   0  0  0  0  0  0
  -26.8961  -21.6564   19.1328 H   0  0  0  0  0  0
  -26.5614  -21.9840   20.8263 H   0  0  0  0  0  0
  -27.5586  -24.6154   21.5107 H   0  0  0  0  0  0
  -28.8157  -15.7074   21.1231 H   0  0  0  0  0  0
  1 25  1  0  0  0
  1 30  2  0  0  0
  1 88  1  0  0  0
  2  3  1  0  0  0
  2 25  1  0  0  0
  2 93  1  0  0  0
  2 94  1  0  0  0
  3  4  1  0  0  0
  3 95  1  0  0  0
  3 96  1  0  0  0
  4  5  1  0  0  0
  4 97  1  0  0  0
  4 98  1  0  0  0
  5  6  1  0  0  0
  5 26  1  0  0  0
  5 99  1  0  0  0
  6 25  1  0  0  0
  6100  1  0  0  0
  6101  1  0  0  0
  7  8  2  0  0  0
  7 26  1  0  0  0
  7 29  1  0  0  0
  8  9  1  0  0  0
  8 22  1  0  0  0
  9 10  1  0  0  0
  9 27  2  0  0  0
 10 11  2  0  0  0
 10 15  1  0  0  0
 11 12  1  0  0  0
 11102  1  0  0  0
 12 13  2  0  0  0
 12103  1  0  0  0
 13 14  1  0  0  0
 13 31  1  0  0  0
 14 15  2  0  0  0
 14104  1  0  0  0
 15105  1  0  0  0
 16 17  2  0  0  0
 16 21  1  0  0  0
 16 31  1  0  0  0
 17 18  1  0  0  0
 17106  1  0  0  0
 18 19  2  0  0  0
 18107  1  0  0  0
 19 20  1  0  0  0
 19 24  1  0  0  0
 20 21  2  0  0  0
 20108  1  0  0  0
 21 23  1  0  0  0
 22 28  1  0  0  0
 22 32  2  0  0  0
 26 27  1  0  0  0
 28109  1  0  0  0
 28110  1  0  0  0
 29111  1  0  0  0
 29112  1  0  0  0
 33 34  1  0  0  0
 33 66  1  0  0  0
 33 70  2  0  0  0
 34 36  1  0  0  0
 34 59  1  0  0  0
 34113  1  0  0  0
 35 44  2  0  0  0
 35 45  1  0  0  0
 35 68  1  0  0  0
 36 56  1  0  0  0
 36114  1  0  0  0
 37 39  1  0  0  0
 37 47  1  0  0  0
 37 66  1  0  0  0
 37115  1  0  0  0
 38 43  2  0  0  0
 38 46  1  0  0  0
 38 47  1  0  0  0
 39 64  1  0  0  0
 39 67  2  0  0  0
 40 52  1  0  0  0
 40 53  2  0  0  0
 40 58  1  0  0  0
 41116  1  0  0  0
 41117  1  0  0  0
 41118  1  0  0  0
 41 48  1  0  0  0
 42 43  1  0  0  0
 42 66  1  0  0  0
 42119  1  0  0  0
 42120  1  0  0  0
 43 44  1  0  0  0
 44121  1  0  0  0
 45 46  2  0  0  0
 45122  1  0  0  0
 46123  1  0  0  0
 47124  1  0  0  0
 47125  1  0  0  0
 48 56  1  0  0  0
 48 65  1  0  0  0
 48126  1  0  0  0
 49 50  1  0  0  0
 49 53  1  0  0  0
 49 64  1  0  0  0
 49127  1  0  0  0
 50 51  1  0  0  0
 50128  1  0  0  0
 50129  1  0  0  0
 51 52  1  0  0  0
 51130  1  0  0  0
 51131  1  0  0  0
 52132  1  0  0  0
 52133  1  0  0  0
 53 54  1  0  0  0
 54 55  2  0  0  0
 54134  1  0  0  0
 55 57  1  0  0  0
 55135  1  0  0  0
 56 69  2  0  0  0
 57 58  2  0  0  0
 57136  1  0  0  0
 58137  1  0  0  0
 59 60  1  0  0  0
 59 61  1  0  0  0
 59 62  1  0  0  0
 60138  1  0  0  0
 60139  1  0  0  0
 60140  1  0  0  0
 61141  1  0  0  0
 61142  1  0  0  0
 61143  1  0  0  0
 62144  1  0  0  0
 62145  1  0  0  0
 62146  1  0  0  0
 63 65  1  0  0  0
 63147  1  0  0  0
 63148  1  0  0  0
 63149  1  0  0  0
 64150  1  0  0  0
 65151  1  0  0  0
 68 84  1  0  0  0
 71 73  2  0  0  0
 71 76  1  0  0  0
 71152  1  0  0  0
 72 74  2  0  0  0
 72 75  1  0  0  0
 72153  1  0  0  0
 73 74  1  0  0  0
 73 85  1  0  0  0
 74 86  1  0  0  0
 75 76  2  0  0  0
 75 87  1  0  0  0
 76 88  1  0  0  0
 77 84  1  0  0  0
 77 86  1  0  0  0
 77 89  2  0  0  0
 78 79  1  0  0  0
 78 81  1  0  0  0
 78154  1  0  0  0
 78155  1  0  0  0
 79 82  1  0  0  0
 79156  1  0  0  0
 79157  1  0  0  0
 80 83  1  0  0  0
 80 84  1  0  0  0
 80158  1  0  0  0
 80159  1  0  0  0
 81 87  1  0  0  0
 81160  1  0  0  0
 81161  1  0  0  0
 82 87  1  0  0  0
 82162  1  0  0  0
 82163  1  0  0  0
 83 86  1  0  0  0
 83164  1  0  0  0
 83165  1  0  0  0
 84166  1  0  0  0
 85 90  1  0  0  0
 85 91  1  0  0  0
 85 92  1  0  0  0
 88167  1  0  0  0
M  ISO  4   1 100  68 101  84 101  88 100
M  END
> <chiral flag>
0

> <version>
0

> <s_m_source_file>
/data/baiqing/PycharmProjects/Reinvent-master-3.2/result/LINK_invent/BTK/process_docking_weight1_custom_product_contain_oxygen_bond_distance_aromatic_linkinvent_7_9_3/rearranged_h_0027.sdf

> <i_m_source_file_index>
20

> <r_mmod_Potential_Energy-OPLS-2005>
644.52490234375

> <r_mmod_Stretch_Energy-OPLS-2005>
240.561737060547

> <r_mmod_Bend_Energy-OPLS-2005>
354.430908203125

> <r_mmod_Torsional_Energy-OPLS-2005>
371.479217529297

> <r_mmod_Improper_Torsional_Energy-OPLS-2005>
8.7844934463501

> <r_mmod_Van_der_Waal_Energy-OPLS-2005>
121.905372619629

> <r_mmod_Electrostatic_Energy-OPLS-2005>
-412.970153808594

> <r_mmod_Solvation_Energy-OPLS-2005>
-234.194427490234

> <b_mmod_Minimization_Converged-OPLS-2005>
0

> <r_mmod_RMS_Derivative-OPLS-2005>
1.60835492610931

$$$$
21
                    3D
 Structure written by MMmdl.
160169  0  0  1  0            999 V2000
  -30.6804  -14.5289   20.5804 C   0  0  0  0  0  0
  -30.4386  -12.3454   19.4284 C   0  0  0  0  0  0
  -29.5026  -12.5178   18.2123 C   0  0  0  0  0  0
  -28.0246  -12.3659   18.6248 C   0  0  0  0  0  0
  -27.6637  -13.2100   19.8764 C   0  0  2  0  0  0
  -28.7087  -12.9982   20.9965 C   0  0  0  0  0  0
  -25.2553  -13.8142   20.5591 C   0  0  0  0  0  0
  -24.1837  -13.0425   20.9175 C   0  0  0  0  0  0
  -24.6409  -11.6901   20.8752 C   0  0  0  0  0  0
  -23.9068  -10.4290   21.0417 C   0  0  0  0  0  0
  -24.3617   -9.4203   21.9192 C   0  0  0  0  0  0
  -23.6293   -8.2236   22.0755 C   0  0  0  0  0  0
  -22.4277   -8.0279   21.3543 C   0  0  0  0  0  0
  -21.9914   -9.0254   20.4643 C   0  0  0  0  0  0
  -22.7245  -10.2133   20.3058 C   0  0  0  0  0  0
  -21.6849   -6.0735   22.5282 C   0  0  0  0  0  0
  -21.4005   -6.5637   23.8217 C   0  0  0  0  0  0
  -21.3659   -5.6784   24.9175 C   0  0  0  0  0  0
  -21.6049   -4.3046   24.7220 C   0  0  0  0  0  0
  -21.8822   -3.8142   23.4340 C   0  0  0  0  0  0
  -21.9191   -4.6964   22.3400 C   0  0  0  0  0  0
  -22.7860  -13.5222   21.1843 C   0  0  0  0  0  0
  -22.1663   -4.2151   21.0976 F   0  0  0  0  0  0
  -21.5634   -3.4526   25.7732 F   0  0  0  0  0  0
  -30.0385  -13.3293   20.4499 N   0  0  0  0  0  0
  -26.3033  -12.9339   20.3360 N   0  0  0  0  0  0
  -25.9345  -11.6498   20.5798 N   0  0  0  0  0  0
  -22.0489  -12.8225   22.0400 N   0  0  0  0  0  0
  -25.4159  -15.1837   20.3812 N   0  0  0  0  0  0
  -31.7992  -14.7320   20.1006 O   0  0  0  0  0  0
  -21.6636   -6.8880   21.4245 O   0  0  0  0  0  0
  -22.3552  -14.5533   20.6697 O   0  0  0  0  0  0
  -24.6233  -31.8648   23.2095 C   0  0  0  0  0  0
  -25.9110  -32.4798   23.8393 C   0  0  1  0  0  0
  -27.2264  -27.3755   20.0961 C   0  0  0  0  0  0
  -25.5952  -33.8597   24.2327 N   0  0  0  0  0  0
  -23.4124  -30.4934   21.5518 C   0  0  2  0  0  0
  -24.8556  -28.9613   20.1149 C   0  0  0  0  0  0
  -22.7455  -29.4664   22.4973 C   0  0  0  0  0  0
  -18.0277  -28.1384   22.8488 C   0  0  0  0  0  0
  -24.1492  -36.7295   23.2638 C   0  0  0  0  0  0
  -25.9509  -30.8138   21.3724 C   0  0  0  0  0  0
  -26.0250  -29.4475   20.7118 C   0  0  0  0  0  0
  -27.2137  -28.6666   20.6942 C   0  0  0  0  0  0
  -26.0242  -26.9304   19.4882 C   0  0  0  0  0  0
  -24.8542  -27.7044   19.4983 C   0  0  0  0  0  0
  -23.6228  -29.8349   20.1652 C   0  0  0  0  0  0
  -25.4109  -36.3087   24.0342 C   0  0  1  0  0  0
  -20.5876  -28.3690   23.1295 C   0  0  2  0  0  0
  -20.6773  -26.9419   22.5408 C   0  0  0  0  0  0
  -19.5748  -26.6387   21.5212 C   0  0  0  0  0  0
  -18.1926  -26.7931   22.1621 C   0  0  0  0  0  0
  -19.1528  -28.8853   23.2887 C   0  0  0  0  0  0
  -18.9451  -30.1456   23.8898 C   0  0  0  0  0  0
  -17.6451  -30.6587   24.0565 C   0  0  0  0  0  0
  -25.9051  -34.9461   23.5125 C   0  0  0  0  0  0
  -16.5341  -29.9081   23.6336 C   0  0  0  0  0  0
  -16.7265  -28.6501   23.0351 C   0  0  0  0  0  0
  -26.4508  -31.6585   25.0740 C   0  0  0  0  0  0
  -25.3764  -31.3694   26.1483 C   0  0  0  0  0  0
  -27.0347  -30.3020   24.6153 C   0  0  0  0  0  0
  -27.6070  -32.4315   25.7502 C   0  0  0  0  0  0
  -27.5582  -37.1798   24.8462 C   0  0  0  0  0  0
  -21.4176  -29.3053   22.3707 N   0  0  0  0  0  0
  -26.4282  -37.3786   23.9423 N   0  0  0  0  0  0
  -24.6809  -31.0719   22.1015 N   0  0  0  0  0  0
  -23.4203  -28.8189   23.3022 O   0  0  0  0  0  0
  -28.3696  -26.5702   20.1205 O   0  0  0  0  0  0
  -26.5593  -34.8919   22.4674 O   0  0  0  0  0  0
  -23.5416  -32.1418   23.7465 O   0  0  0  0  0  0
  -31.1665  -19.1189   20.8680 C   0  0  0  0  0  0
  -31.1277  -17.7040   20.7190 C   0  0  0  0  0  0
  -29.0547  -19.0498   22.0403 C   0  0  0  0  0  0
  -30.1321  -19.8170   21.5420 C   0  0  0  0  0  0
  -29.0216  -17.6387   21.9186 C   0  0  0  0  0  0
  -30.0621  -16.9339   21.2571 C   0  0  0  0  0  0
  -30.1196  -23.7687   21.3460 C   0  0  0  0  0  0
  -29.0014  -22.6135   20.0876 C   0  0  0  0  0  0
  -29.3263  -24.1288   20.0823 C   0  0  1  0  0  0
  -27.8634  -16.8847   22.5514 C   0  0  0  0  0  0
  -30.2284  -21.3212   21.9232 C   0  0  0  0  0  0
  -28.1389  -25.1301   20.0460 C   0  0  0  0  0  0
  -29.9503  -15.4940   21.1907 N   0  0  0  0  0  0
  -30.2236  -22.3752   20.8577 N   0  3  2  0  0  0
  -31.4797  -12.4651   19.1230 H   0  0  0  0  0  0
  -30.3632  -11.3343   19.8317 H   0  0  0  0  0  0
  -29.7521  -11.7890   17.4398 H   0  0  0  0  0  0
  -29.6585  -13.5012   17.7660 H   0  0  0  0  0  0
  -27.8441  -11.3098   18.8275 H   0  0  0  0  0  0
  -27.3720  -12.6296   17.7918 H   0  0  0  0  0  0
  -27.7040  -14.2573   19.5755 H   0  0  0  0  0  0
  -28.6994  -11.9593   21.3291 H   0  0  0  0  0  0
  -28.4554  -13.5821   21.8822 H   0  0  0  0  0  0
  -25.2766   -9.5676   22.4764 H   0  0  0  0  0  0
  -24.0002   -7.4624   22.7469 H   0  0  0  0  0  0
  -21.0848   -8.8776   19.8942 H   0  0  0  0  0  0
  -22.3715  -10.9671   19.6157 H   0  0  0  0  0  0
  -21.1989   -7.6143   23.9723 H   0  0  0  0  0  0
  -21.1479   -6.0506   25.9081 H   0  0  0  0  0  0
  -22.0598   -2.7605   23.2832 H   0  0  0  0  0  0
  -22.4085  -11.9882   22.4799 H   0  0  0  0  0  0
  -21.1113  -13.1274   22.2604 H   0  0  0  0  0  0
  -24.6328  -15.8233   20.4588 H   0  0  0  0  0  0
  -26.2436  -15.6157   19.9913 H   0  0  0  0  0  0
  -26.7183  -32.5485   23.1153 H   0  0  0  0  0  0
  -25.0163  -33.9741   25.0517 H   0  0  0  0  0  0
  -22.7037  -31.3129   21.4159 H   0  0  0  0  0  0
  -23.3756  -35.9624   23.3279 H   0  0  0  0  0  0
  -24.3602  -36.8925   22.2058 H   0  0  0  0  0  0
  -23.7233  -37.6492   23.6661 H   0  0  0  0  0  0
  -26.0785  -31.5826   20.6088 H   0  0  0  0  0  0
  -26.8330  -30.8569   21.9993 H   0  0  0  0  0  0
  -28.1129  -29.0401   21.1642 H   0  0  0  0  0  0
  -25.9377  -25.9788   18.9900 H   0  0  0  0  0  0
  -23.9567  -27.3246   19.0294 H   0  0  0  0  0  0
  -23.7400  -30.6139   19.4106 H   0  0  0  0  0  0
  -22.7436  -29.2635   19.8627 H   0  0  0  0  0  0
  -25.1283  -36.1940   25.0833 H   0  0  0  0  0  0
  -20.9962  -28.3254   24.1416 H   0  0  0  0  0  0
  -20.5685  -26.2300   23.3602 H   0  0  0  0  0  0
  -21.6640  -26.7465   22.1194 H   0  0  0  0  0  0
  -19.6910  -25.6300   21.1240 H   0  0  0  0  0  0
  -19.6684  -27.3200   20.6744 H   0  0  0  0  0  0
  -17.4203  -26.6687   21.4013 H   0  0  0  0  0  0
  -18.0317  -26.0064   22.9009 H   0  0  0  0  0  0
  -19.7927  -30.7271   24.2266 H   0  0  0  0  0  0
  -17.5005  -31.6263   24.5173 H   0  0  0  0  0  0
  -15.5343  -30.2978   23.7667 H   0  0  0  0  0  0
  -15.8666  -28.0821   22.7063 H   0  0  0  0  0  0
  -24.5946  -30.7032   25.7819 H   0  0  0  0  0  0
  -24.8959  -32.2854   26.4934 H   0  0  0  0  0  0
  -25.8129  -30.8863   27.0238 H   0  0  0  0  0  0
  -26.2905  -29.6759   24.1219 H   0  0  0  0  0  0
  -27.4111  -29.7278   25.4628 H   0  0  0  0  0  0
  -27.8748  -30.4313   23.9323 H   0  0  0  0  0  0
  -27.2676  -33.3609   26.2084 H   0  0  0  0  0  0
  -28.3878  -32.6879   25.0330 H   0  0  0  0  0  0
  -28.0744  -31.8443   26.5417 H   0  0  0  0  0  0
  -28.2575  -38.0118   24.7550 H   0  0  0  0  0  0
  -28.1096  -36.2655   24.6229 H   0  0  0  0  0  0
  -27.2314  -37.1376   25.8865 H   0  0  0  0  0  0
  -20.9349  -29.8794   21.6938 H   0  0  0  0  0  0
  -26.0161  -38.2856   24.1438 H   0  0  0  0  0  0
  -32.0253  -19.6570   20.4915 H   0  0  0  0  0  0
  -31.9488  -17.2222   20.2079 H   0  0  0  0  0  0
  -28.2614  -19.5457   22.5835 H   0  0  0  0  0  0
  -29.5301  -23.8698   22.2592 H   0  0  0  0  0  0
  -31.0814  -24.2752   21.4373 H   0  0  0  0  0  0
  -29.0039  -22.1406   19.1053 H   0  0  0  0  0  0
  -28.0958  -22.3662   20.6455 H   0  0  0  0  0  0
  -30.0261  -24.3406   19.2706 H   0  0  0  0  0  0
  -27.1013  -17.5627   22.9365 H   0  0  0  0  0  0
  -28.2156  -16.2718   23.3821 H   0  0  0  0  0  0
  -27.3866  -16.2325   21.8232 H   0  0  0  0  0  0
  -31.1478  -21.4486   22.4946 H   0  0  0  0  0  0
  -29.4256  -21.5455   22.6262 H   0  0  0  0  0  0
  -27.4235  -24.8607   20.8255 H   0  0  0  0  0  0
  -27.6534  -24.9164   19.0963 H   0  0  0  0  0  0
  -29.0932  -15.1326   21.5767 H   0  0  0  0  0  0
  -31.0172  -22.2762   20.2434 H   0  0  0  0  0  0
  1 25  1  0  0  0
  1 30  2  0  0  0
  1 83  1  0  0  0
  2  3  1  0  0  0
  2 25  1  0  0  0
  2 85  1  0  0  0
  2 86  1  0  0  0
  3  4  1  0  0  0
  3 87  1  0  0  0
  3 88  1  0  0  0
  4  5  1  0  0  0
  4 89  1  0  0  0
  4 90  1  0  0  0
  5  6  1  0  0  0
  5 26  1  0  0  0
  5 91  1  0  0  0
  6 25  1  0  0  0
  6 92  1  0  0  0
  6 93  1  0  0  0
  7  8  2  0  0  0
  7 26  1  0  0  0
  7 29  1  0  0  0
  8  9  1  0  0  0
  8 22  1  0  0  0
  9 10  1  0  0  0
  9 27  2  0  0  0
 10 11  2  0  0  0
 10 15  1  0  0  0
 11 12  1  0  0  0
 11 94  1  0  0  0
 12 13  2  0  0  0
 12 95  1  0  0  0
 13 14  1  0  0  0
 13 31  1  0  0  0
 14 15  2  0  0  0
 14 96  1  0  0  0
 15 97  1  0  0  0
 16 17  2  0  0  0
 16 21  1  0  0  0
 16 31  1  0  0  0
 17 18  1  0  0  0
 17 98  1  0  0  0
 18 19  2  0  0  0
 18 99  1  0  0  0
 19 20  1  0  0  0
 19 24  1  0  0  0
 20 21  2  0  0  0
 20100  1  0  0  0
 21 23  1  0  0  0
 22 28  1  0  0  0
 22 32  2  0  0  0
 26 27  1  0  0  0
 28101  1  0  0  0
 28102  1  0  0  0
 29103  1  0  0  0
 29104  1  0  0  0
 33 34  1  0  0  0
 33 66  1  0  0  0
 33 70  2  0  0  0
 34 36  1  0  0  0
 34 59  1  0  0  0
 34105  1  0  0  0
 35 44  2  0  0  0
 35 45  1  0  0  0
 35 68  1  0  0  0
 36 56  1  0  0  0
 36106  1  0  0  0
 37 39  1  0  0  0
 37 47  1  0  0  0
 37 66  1  0  0  0
 37107  1  0  0  0
 38 43  2  0  0  0
 38 46  1  0  0  0
 38 47  1  0  0  0
 39 64  1  0  0  0
 39 67  2  0  0  0
 40 52  1  0  0  0
 40 53  2  0  0  0
 40 58  1  0  0  0
 41108  1  0  0  0
 41109  1  0  0  0
 41110  1  0  0  0
 41 48  1  0  0  0
 42 43  1  0  0  0
 42 66  1  0  0  0
 42111  1  0  0  0
 42112  1  0  0  0
 43 44  1  0  0  0
 44113  1  0  0  0
 45 46  2  0  0  0
 45114  1  0  0  0
 46115  1  0  0  0
 47116  1  0  0  0
 47117  1  0  0  0
 48 56  1  0  0  0
 48 65  1  0  0  0
 48118  1  0  0  0
 49 50  1  0  0  0
 49 53  1  0  0  0
 49 64  1  0  0  0
 49119  1  0  0  0
 50 51  1  0  0  0
 50120  1  0  0  0
 50121  1  0  0  0
 51 52  1  0  0  0
 51122  1  0  0  0
 51123  1  0  0  0
 52124  1  0  0  0
 52125  1  0  0  0
 53 54  1  0  0  0
 54 55  2  0  0  0
 54126  1  0  0  0
 55 57  1  0  0  0
 55127  1  0  0  0
 56 69  2  0  0  0
 57 58  2  0  0  0
 57128  1  0  0  0
 58129  1  0  0  0
 59 60  1  0  0  0
 59 61  1  0  0  0
 59 62  1  0  0  0
 60130  1  0  0  0
 60131  1  0  0  0
 60132  1  0  0  0
 61133  1  0  0  0
 61134  1  0  0  0
 61135  1  0  0  0
 62136  1  0  0  0
 62137  1  0  0  0
 62138  1  0  0  0
 63 65  1  0  0  0
 63139  1  0  0  0
 63140  1  0  0  0
 63141  1  0  0  0
 64142  1  0  0  0
 65143  1  0  0  0
 68 82  1  0  0  0
 71 72  2  0  0  0
 71 74  1  0  0  0
 71144  1  0  0  0
 72 76  1  0  0  0
 72145  1  0  0  0
 73 74  2  0  0  0
 73 75  1  0  0  0
 73146  1  0  0  0
 74 81  1  0  0  0
 75 76  2  0  0  0
 75 80  1  0  0  0
 76 83  1  0  0  0
 77 79  1  0  0  0
 77 84  1  0  0  0
 77147  1  0  0  0
 77148  1  0  0  0
 78 79  1  0  0  0
 78 84  1  0  0  0
 78149  1  0  0  0
 78150  1  0  0  0
 79 82  1  0  0  0
 79151  1  0  0  0
 80152  1  0  0  0
 80153  1  0  0  0
 80154  1  0  0  0
 81155  1  0  0  0
 81156  1  0  0  0
 81 84  1  0  0  0
 82157  1  0  0  0
 82158  1  0  0  0
 83159  1  0  0  0
 84160  1  0  0  0
M  CHG  1  84   1
M  ISO  4   1 100  68 101  82 101  83 100
M  END
> <chiral flag>
0

> <version>
0

> <s_m_source_file>
/data/baiqing/PycharmProjects/Reinvent-master-3.2/result/LINK_invent/BTK/process_docking_weight1_custom_product_contain_oxygen_bond_distance_aromatic_linkinvent_7_9_3/rearranged_h_0027.sdf

> <i_m_source_file_index>
21

> <r_mmod_Potential_Energy-OPLS-2005>
-174.368728637695

> <r_mmod_Stretch_Energy-OPLS-2005>
53.1885032653809

> <r_mmod_Bend_Energy-OPLS-2005>
144.992706298828

> <r_mmod_Torsional_Energy-OPLS-2005>
222.775238037109

> <r_mmod_Improper_Torsional_Energy-OPLS-2005>
3.95564961433411

> <r_mmod_Van_der_Waal_Energy-OPLS-2005>
155.196441650391

> <r_mmod_Electrostatic_Energy-OPLS-2005>
-314.486724853516

> <r_mmod_Solvation_Energy-OPLS-2005>
-462.669738769531

> <b_mmod_Minimization_Converged-OPLS-2005>
0

> <r_mmod_RMS_Derivative-OPLS-2005>
1.02172529697418

$$$$
22
                    3D
 Structure written by MMmdl.
172182  0  0  1  0            999 V2000
  -30.7207  -14.3911   20.6177 C   0  0  0  0  0  0
  -30.4210  -12.2744   19.4008 C   0  0  0  0  0  0
  -29.4893  -12.5164   18.1967 C   0  0  0  0  0  0
  -28.0105  -12.3785   18.6100 C   0  0  0  0  0  0
  -27.6674  -13.1939   19.8849 C   0  0  2  0  0  0
  -28.7067  -12.9256   20.9970 C   0  0  0  0  0  0
  -25.2618  -13.8135   20.5660 C   0  0  0  0  0  0
  -24.1850  -13.0433   20.9165 C   0  0  0  0  0  0
  -24.6386  -11.6894   20.8736 C   0  0  0  0  0  0
  -23.9047  -10.4288   21.0415 C   0  0  0  0  0  0
  -24.3608   -9.4204   21.9190 C   0  0  0  0  0  0
  -23.6285   -8.2236   22.0763 C   0  0  0  0  0  0
  -22.4266   -8.0274   21.3549 C   0  0  0  0  0  0
  -21.9896   -9.0249   20.4653 C   0  0  0  0  0  0
  -22.7222  -10.2132   20.3065 C   0  0  0  0  0  0
  -21.6855   -6.0724   22.5277 C   0  0  0  0  0  0
  -21.4011   -6.5630   23.8206 C   0  0  0  0  0  0
  -21.3665   -5.6790   24.9170 C   0  0  0  0  0  0
  -21.6048   -4.3054   24.7228 C   0  0  0  0  0  0
  -21.8821   -3.8139   23.4352 C   0  0  0  0  0  0
  -21.9199   -4.6953   22.3403 C   0  0  0  0  0  0
  -22.7875  -13.5238   21.1833 C   0  0  0  0  0  0
  -22.1668   -4.2133   21.0985 F   0  0  0  0  0  0
  -21.5642   -3.4534   25.7739 F   0  0  0  0  0  0
  -30.0456  -13.2251   20.4559 N   0  0  0  0  0  0
  -26.3049  -12.9278   20.3395 N   0  0  0  0  0  0
  -25.9310  -11.6450   20.5773 N   0  0  0  0  0  0
  -22.0515  -12.8235   22.0398 N   0  0  0  0  0  0
  -25.4380  -15.1845   20.4037 N   0  0  0  0  0  0
  -31.8093  -14.6303   20.0854 O   0  0  0  0  0  0
  -21.6646   -6.8865   21.4236 O   0  0  0  0  0  0
  -22.3554  -14.5539   20.6676 O   0  0  0  0  0  0
  -24.6097  -31.8702   23.2127 C   0  0  0  0  0  0
  -25.9003  -32.4842   23.8414 C   0  0  1  0  0  0
  -27.2503  -27.4867   20.0822 C   0  0  0  0  0  0
  -25.5868  -33.8639   24.2342 N   0  0  0  0  0  0
  -23.3976  -30.4915   21.5513 C   0  0  2  0  0  0
  -24.8486  -28.9603   20.1180 C   0  0  0  0  0  0
  -22.7391  -29.4659   22.5008 C   0  0  0  0  0  0
  -18.0268  -28.1372   22.8498 C   0  0  0  0  0  0
  -24.1482  -36.7334   23.2634 C   0  0  0  0  0  0
  -25.9199  -30.8520   21.3575 C   0  0  0  0  0  0
  -26.0035  -29.4876   20.7095 C   0  0  0  0  0  0
  -27.2078  -28.7558   20.6963 C   0  0  0  0  0  0
  -26.0793  -26.9520   19.5095 C   0  0  0  0  0  0
  -24.8775  -27.6873   19.5188 C   0  0  0  0  0  0
  -23.6059  -29.8196   20.1666 C   0  0  0  0  0  0
  -25.4095  -36.3124   24.0342 C   0  0  1  0  0  0
  -20.5855  -28.3651   23.1333 C   0  0  2  0  0  0
  -20.6759  -26.9392   22.5420 C   0  0  0  0  0  0
  -19.5740  -26.6388   21.5210 C   0  0  0  0  0  0
  -18.1917  -26.7921   22.1626 C   0  0  0  0  0  0
  -19.1515  -28.8829   23.2915 C   0  0  0  0  0  0
  -18.9444  -30.1435   23.8926 C   0  0  0  0  0  0
  -17.6448  -30.6580   24.0567 C   0  0  0  0  0  0
  -25.9022  -34.9489   23.5143 C   0  0  0  0  0  0
  -16.5340  -29.9085   23.6319 C   0  0  0  0  0  0
  -16.7259  -28.6500   23.0346 C   0  0  0  0  0  0
  -26.4461  -31.6613   25.0720 C   0  0  0  0  0  0
  -25.3756  -31.3697   26.1489 C   0  0  0  0  0  0
  -27.0285  -30.3067   24.6056 C   0  0  0  0  0  0
  -27.6050  -32.4328   25.7463 C   0  0  0  0  0  0
  -27.5593  -37.1795   24.8445 C   0  0  0  0  0  0
  -21.4124  -29.3023   22.3747 N   0  0  0  0  0  0
  -26.4277  -37.3811   23.9430 N   0  0  0  0  0  0
  -24.6606  -31.0839   22.1005 N   0  0  0  0  0  0
  -23.4176  -28.8209   23.3047 O   0  0  0  0  0  0
  -28.4035  -26.7469   20.0414 O   0  0  0  0  0  0
  -26.5588  -34.8936   22.4708 O   0  0  0  0  0  0
  -23.5299  -32.1428   23.7543 O   0  0  0  0  0  0
  -31.1980  -18.7624   22.1858 C   0  0  0  0  0  0
  -30.9518  -17.3799   22.2895 C   0  0  0  0  0  0
  -30.1267  -18.7928   20.0019 C   0  0  0  0  0  0
  -30.8021  -19.4825   21.0369 C   0  0  0  0  0  0
  -30.3083  -16.6968   21.2391 C   0  0  0  0  0  0
  -29.8695  -17.4134   20.1000 C   0  0  0  0  0  0
  -31.7531  -22.8659   19.6716 C   0  0  0  0  0  0
  -30.9102  -23.0951   22.0128 C   0  0  0  0  0  0
  -30.4337  -28.1022   19.7860 C   0  0  0  0  0  0
  -31.1785  -21.4417   19.6193 C   0  0  0  0  0  0
  -30.3590  -21.6606   21.9530 C   0  0  0  0  0  0
  -31.7701  -27.3784   19.5752 C   0  0  0  0  0  0
  -30.1600  -25.9801   18.6265 C   0  0  0  0  0  0
  -30.9156  -23.7497   20.6175 C   0  0  0  0  0  0
  -29.3812  -27.2083   19.1107 C   0  0  1  0  0  0
  -31.3949  -25.2186   20.6932 C   0  0  0  0  0  0
  -31.0813  -20.8618   20.9609 N   0  0  0  0  0  0
  -30.0847  -15.3077   21.3571 N   0  0  0  0  0  0
  -31.4279  -25.9526   19.3946 N   0  3  2  0  0  0
  -29.0027  -16.6383   18.8174 Cl  0  0  0  0  0  0
  -31.4654  -12.3729   19.0991 H   0  0  0  0  0  0
  -30.3144  -11.2518   19.7659 H   0  0  0  0  0  0
  -29.7209  -11.8147   17.3943 H   0  0  0  0  0  0
  -29.6639  -13.5140   17.7903 H   0  0  0  0  0  0
  -27.8106  -11.3202   18.7818 H   0  0  0  0  0  0
  -27.3604  -12.6793   17.7877 H   0  0  0  0  0  0
  -27.7259  -14.2478   19.6189 H   0  0  0  0  0  0
  -28.6707  -11.8780   21.2995 H   0  0  0  0  0  0
  -28.4671  -13.4876   21.9005 H   0  0  0  0  0  0
  -25.2764   -9.5668   22.4749 H   0  0  0  0  0  0
  -23.9992   -7.4624   22.7478 H   0  0  0  0  0  0
  -21.0828   -8.8764   19.8957 H   0  0  0  0  0  0
  -22.3686  -10.9667   19.6166 H   0  0  0  0  0  0
  -21.1989   -7.6139   23.9694 H   0  0  0  0  0  0
  -21.1499   -6.0534   25.9073 H   0  0  0  0  0  0
  -22.0601   -2.7604   23.2859 H   0  0  0  0  0  0
  -22.4122  -11.9886   22.4780 H   0  0  0  0  0  0
  -21.1143  -13.1274   22.2624 H   0  0  0  0  0  0
  -24.6741  -15.8448   20.5000 H   0  0  0  0  0  0
  -26.2917  -15.6119   20.0667 H   0  0  0  0  0  0
  -26.7086  -32.5584   23.1198 H   0  0  0  0  0  0
  -25.0007  -33.9810   25.0477 H   0  0  0  0  0  0
  -22.6839  -31.3059   21.4111 H   0  0  0  0  0  0
  -23.3741  -35.9666   23.3268 H   0  0  0  0  0  0
  -24.3594  -36.8972   22.2055 H   0  0  0  0  0  0
  -23.7227  -37.6531   23.6662 H   0  0  0  0  0  0
  -26.0191  -31.6175   20.5863 H   0  0  0  0  0  0
  -26.8120  -30.9134   21.9688 H   0  0  0  0  0  0
  -28.0954  -29.1664   21.1554 H   0  0  0  0  0  0
  -26.1027  -25.9747   19.0476 H   0  0  0  0  0  0
  -23.9880  -27.2712   19.0657 H   0  0  0  0  0  0
  -23.7088  -30.5925   19.4042 H   0  0  0  0  0  0
  -22.7335  -29.2325   19.8742 H   0  0  0  0  0  0
  -25.1260  -36.1987   25.0831 H   0  0  0  0  0  0
  -20.9941  -28.3210   24.1455 H   0  0  0  0  0  0
  -20.5655  -26.2258   23.3603 H   0  0  0  0  0  0
  -21.6633  -26.7439   22.1216 H   0  0  0  0  0  0
  -19.6901  -25.6306   21.1222 H   0  0  0  0  0  0
  -19.6680  -27.3219   20.6756 H   0  0  0  0  0  0
  -17.4186  -26.6669   21.4027 H   0  0  0  0  0  0
  -18.0321  -26.0058   22.9020 H   0  0  0  0  0  0
  -19.7919  -30.7241   24.2315 H   0  0  0  0  0  0
  -17.5001  -31.6261   24.5170 H   0  0  0  0  0  0
  -15.5341  -30.2997   23.7626 H   0  0  0  0  0  0
  -15.8660  -28.0827   22.7047 H   0  0  0  0  0  0
  -24.5900  -30.7079   25.7822 H   0  0  0  0  0  0
  -24.8988  -32.2852   26.5004 H   0  0  0  0  0  0
  -25.8132  -30.8809   27.0203 H   0  0  0  0  0  0
  -26.2806  -29.6820   24.1156 H   0  0  0  0  0  0
  -27.4125  -29.7306   25.4485 H   0  0  0  0  0  0
  -27.8609  -30.4406   23.9140 H   0  0  0  0  0  0
  -27.2673  -33.3600   26.2104 H   0  0  0  0  0  0
  -28.3813  -32.6938   25.0257 H   0  0  0  0  0  0
  -28.0775  -31.8423   26.5320 H   0  0  0  0  0  0
  -28.2545  -38.0156   24.7590 H   0  0  0  0  0  0
  -28.1148  -36.2697   24.6127 H   0  0  0  0  0  0
  -27.2334  -37.1267   25.8847 H   0  0  0  0  0  0
  -20.9277  -29.8747   21.6976 H   0  0  0  0  0  0
  -26.0164  -38.2871   24.1498 H   0  0  0  0  0  0
  -31.7117  -19.2646   22.9931 H   0  0  0  0  0  0
  -31.2735  -16.8469   23.1727 H   0  0  0  0  0  0
  -29.7788  -19.3042   19.1179 H   0  0  0  0  0  0
  -31.7629  -23.2765   18.6615 H   0  0  0  0  0  0
  -32.7924  -22.8344   20.0036 H   0  0  0  0  0  0
  -31.9205  -23.0828   22.4258 H   0  0  0  0  0  0
  -30.3054  -23.6846   22.7038 H   0  0  0  0  0  0
  -30.4493  -29.1081   19.3660 H   0  0  0  0  0  0
  -30.2286  -28.1954   20.8522 H   0  0  0  0  0  0
  -31.8104  -20.8148   18.9870 H   0  0  0  0  0  0
  -30.1905  -21.4730   19.1568 H   0  0  0  0  0  0
  -29.2987  -21.6815   21.6938 H   0  0  0  0  0  0
  -30.4261  -21.2107   22.9450 H   0  0  0  0  0  0
  -32.4832  -27.5553   20.3817 H   0  0  0  0  0  0
  -32.2327  -27.7367   18.6544 H   0  0  0  0  0  0
  -30.4262  -26.1353   17.5798 H   0  0  0  0  0  0
  -29.5728  -25.0649   18.6442 H   0  0  0  0  0  0
  -29.8809  -23.7356   20.2775 H   0  0  0  0  0  0
  -28.9127  -27.7082   18.2598 H   0  0  0  0  0  0
  -32.3966  -25.2451   21.1260 H   0  0  0  0  0  0
  -30.7533  -25.7570   21.3921 H   0  0  0  0  0  0
  -29.2163  -15.0174   21.7795 H   0  0  0  0  0  0
  -32.1479  -25.5233   18.8310 H   0  0  0  0  0  0
  1 25  1  0  0  0
  1 30  2  0  0  0
  1 88  1  0  0  0
  2  3  1  0  0  0
  2 25  1  0  0  0
  2 91  1  0  0  0
  2 92  1  0  0  0
  3  4  1  0  0  0
  3 93  1  0  0  0
  3 94  1  0  0  0
  4  5  1  0  0  0
  4 95  1  0  0  0
  4 96  1  0  0  0
  5  6  1  0  0  0
  5 26  1  0  0  0
  5 97  1  0  0  0
  6 25  1  0  0  0
  6 98  1  0  0  0
  6 99  1  0  0  0
  7  8  2  0  0  0
  7 26  1  0  0  0
  7 29  1  0  0  0
  8  9  1  0  0  0
  8 22  1  0  0  0
  9 10  1  0  0  0
  9 27  2  0  0  0
 10 11  2  0  0  0
 10 15  1  0  0  0
 11 12  1  0  0  0
 11100  1  0  0  0
 12 13  2  0  0  0
 12101  1  0  0  0
 13 14  1  0  0  0
 13 31  1  0  0  0
 14 15  2  0  0  0
 14102  1  0  0  0
 15103  1  0  0  0
 16 17  2  0  0  0
 16 21  1  0  0  0
 16 31  1  0  0  0
 17 18  1  0  0  0
 17104  1  0  0  0
 18 19  2  0  0  0
 18105  1  0  0  0
 19 20  1  0  0  0
 19 24  1  0  0  0
 20 21  2  0  0  0
 20106  1  0  0  0
 21 23  1  0  0  0
 22 28  1  0  0  0
 22 32  2  0  0  0
 26 27  1  0  0  0
 28107  1  0  0  0
 28108  1  0  0  0
 29109  1  0  0  0
 29110  1  0  0  0
 33 34  1  0  0  0
 33 66  1  0  0  0
 33 70  2  0  0  0
 34 36  1  0  0  0
 34 59  1  0  0  0
 34111  1  0  0  0
 35 44  2  0  0  0
 35 45  1  0  0  0
 35 68  1  0  0  0
 36 56  1  0  0  0
 36112  1  0  0  0
 37 39  1  0  0  0
 37 47  1  0  0  0
 37 66  1  0  0  0
 37113  1  0  0  0
 38 43  2  0  0  0
 38 46  1  0  0  0
 38 47  1  0  0  0
 39 64  1  0  0  0
 39 67  2  0  0  0
 40 52  1  0  0  0
 40 53  2  0  0  0
 40 58  1  0  0  0
 41114  1  0  0  0
 41115  1  0  0  0
 41116  1  0  0  0
 41 48  1  0  0  0
 42 43  1  0  0  0
 42 66  1  0  0  0
 42117  1  0  0  0
 42118  1  0  0  0
 43 44  1  0  0  0
 44119  1  0  0  0
 45 46  2  0  0  0
 45120  1  0  0  0
 46121  1  0  0  0
 47122  1  0  0  0
 47123  1  0  0  0
 48 56  1  0  0  0
 48 65  1  0  0  0
 48124  1  0  0  0
 49 50  1  0  0  0
 49 53  1  0  0  0
 49 64  1  0  0  0
 49125  1  0  0  0
 50 51  1  0  0  0
 50126  1  0  0  0
 50127  1  0  0  0
 51 52  1  0  0  0
 51128  1  0  0  0
 51129  1  0  0  0
 52130  1  0  0  0
 52131  1  0  0  0
 53 54  1  0  0  0
 54 55  2  0  0  0
 54132  1  0  0  0
 55 57  1  0  0  0
 55133  1  0  0  0
 56 69  2  0  0  0
 57 58  2  0  0  0
 57134  1  0  0  0
 58135  1  0  0  0
 59 60  1  0  0  0
 59 61  1  0  0  0
 59 62  1  0  0  0
 60136  1  0  0  0
 60137  1  0  0  0
 60138  1  0  0  0
 61139  1  0  0  0
 61140  1  0  0  0
 61141  1  0  0  0
 62142  1  0  0  0
 62143  1  0  0  0
 62144  1  0  0  0
 63 65  1  0  0  0
 63145  1  0  0  0
 63146  1  0  0  0
 63147  1  0  0  0
 64148  1  0  0  0
 65149  1  0  0  0
 68 85  1  0  0  0
 71 72  2  0  0  0
 71 74  1  0  0  0
 71150  1  0  0  0
 72 75  1  0  0  0
 72151  1  0  0  0
 73 74  2  0  0  0
 73 76  1  0  0  0
 73152  1  0  0  0
 74 87  1  0  0  0
 75 76  2  0  0  0
 75 88  1  0  0  0
 76 90  1  0  0  0
 77 80  1  0  0  0
 77 84  1  0  0  0
 77153  1  0  0  0
 77154  1  0  0  0
 78 81  1  0  0  0
 78 84  1  0  0  0
 78155  1  0  0  0
 78156  1  0  0  0
 79 82  1  0  0  0
 79 85  1  0  0  0
 79157  1  0  0  0
 79158  1  0  0  0
 80 87  1  0  0  0
 80159  1  0  0  0
 80160  1  0  0  0
 81 87  1  0  0  0
 81161  1  0  0  0
 81162  1  0  0  0
 82 89  1  0  0  0
 82163  1  0  0  0
 82164  1  0  0  0
 83 85  1  0  0  0
 83 89  1  0  0  0
 83165  1  0  0  0
 83166  1  0  0  0
 84 86  1  0  0  0
 84167  1  0  0  0
 85168  1  0  0  0
 86169  1  0  0  0
 86170  1  0  0  0
 86 89  1  0  0  0
 88171  1  0  0  0
 89172  1  0  0  0
M  CHG  1  89   1
M  ISO  4   1 100  68 101  85 101  88 100
M  END
> <chiral flag>
0

> <version>
0

> <s_m_source_file>
/data/baiqing/PycharmProjects/Reinvent-master-3.2/result/LINK_invent/BTK/process_docking_weight1_custom_product_contain_oxygen_bond_distance_aromatic_linkinvent_7_9_3/rearranged_h_0027.sdf

> <i_m_source_file_index>
22

> <r_mmod_Potential_Energy-OPLS-2005>
-75.7467880249023

> <r_mmod_Stretch_Energy-OPLS-2005>
33.5101852416992

> <r_mmod_Bend_Energy-OPLS-2005>
119.461647033691

> <r_mmod_Torsional_Energy-OPLS-2005>
374.485107421875

> <r_mmod_Improper_Torsional_Energy-OPLS-2005>
6.94430303573608

> <r_mmod_Van_der_Waal_Energy-OPLS-2005>
158.082992553711

> <r_mmod_Electrostatic_Energy-OPLS-2005>
-336.958740234375

> <r_mmod_Solvation_Energy-OPLS-2005>
-437.993682861328

> <b_mmod_Minimization_Converged-OPLS-2005>
0

> <r_mmod_RMS_Derivative-OPLS-2005>
1.07052743434906

$$$$
23
                    3D
 Structure written by MMmdl.
166175  0  0  1  0            999 V2000
  -30.6036  -14.6669   20.5043 C   0  0  0  0  0  0
  -30.4432  -12.4097   19.4590 C   0  0  0  0  0  0
  -29.5114  -12.5172   18.2301 C   0  0  0  0  0  0
  -28.0347  -12.3485   18.6392 C   0  0  0  0  0  0
  -27.6548  -13.2178   19.8673 C   0  0  2  0  0  0
  -28.6987  -13.0701   20.9980 C   0  0  0  0  0  0
  -25.2559  -13.8164   20.5667 C   0  0  0  0  0  0
  -24.1829  -13.0435   20.9185 C   0  0  0  0  0  0
  -24.6399  -11.6906   20.8748 C   0  0  0  0  0  0
  -23.9063  -10.4292   21.0411 C   0  0  0  0  0  0
  -24.3616   -9.4205   21.9186 C   0  0  0  0  0  0
  -23.6291   -8.2240   22.0752 C   0  0  0  0  0  0
  -22.4274   -8.0277   21.3540 C   0  0  0  0  0  0
  -21.9905   -9.0258   20.4647 C   0  0  0  0  0  0
  -22.7235  -10.2138   20.3061 C   0  0  0  0  0  0
  -21.6851   -6.0737   22.5279 C   0  0  0  0  0  0
  -21.4017   -6.5645   23.8213 C   0  0  0  0  0  0
  -21.3659   -5.6801   24.9176 C   0  0  0  0  0  0
  -21.6041   -4.3064   24.7224 C   0  0  0  0  0  0
  -21.8820   -3.8148   23.4350 C   0  0  0  0  0  0
  -21.9192   -4.6966   22.3407 C   0  0  0  0  0  0
  -22.7852  -13.5236   21.1845 C   0  0  0  0  0  0
  -22.1660   -4.2150   21.0984 F   0  0  0  0  0  0
  -21.5622   -3.4546   25.7737 F   0  0  0  0  0  0
  -30.0147  -13.4271   20.4411 N   0  0  0  0  0  0
  -26.2997  -12.9350   20.3328 N   0  0  0  0  0  0
  -25.9335  -11.6505   20.5771 N   0  0  0  0  0  0
  -22.0496  -12.8233   22.0408 N   0  0  0  0  0  0
  -25.4257  -15.1879   20.4039 N   0  0  0  0  0  0
  -31.7492  -14.8514   20.0799 O   0  0  0  0  0  0
  -21.6637   -6.8876   21.4235 O   0  0  0  0  0  0
  -22.3540  -14.5541   20.6696 O   0  0  0  0  0  0
  -24.6266  -31.8578   23.2013 C   0  0  0  0  0  0
  -25.9109  -32.4767   23.8344 C   0  0  1  0  0  0
  -27.2274  -27.3077   20.1175 C   0  0  0  0  0  0
  -25.5919  -33.8568   24.2270 N   0  0  0  0  0  0
  -23.4212  -30.4804   21.5440 C   0  0  2  0  0  0
  -24.8678  -28.9296   20.1139 C   0  0  0  0  0  0
  -22.7478  -29.4612   22.4935 C   0  0  0  0  0  0
  -18.0288  -28.1382   22.8489 C   0  0  0  0  0  0
  -24.1489  -36.7294   23.2639 C   0  0  0  0  0  0
  -25.9628  -30.7851   21.3732 C   0  0  0  0  0  0
  -26.0371  -29.4108   20.7155 C   0  0  0  0  0  0
  -27.2201  -28.6126   20.7041 C   0  0  0  0  0  0
  -26.0319  -26.8758   19.4999 C   0  0  0  0  0  0
  -24.8675  -27.6680   19.4985 C   0  0  0  0  0  0
  -23.6368  -29.8121   20.1604 C   0  0  0  0  0  0
  -25.4114  -36.3076   24.0326 C   0  0  1  0  0  0
  -20.5888  -28.3685   23.1284 C   0  0  2  0  0  0
  -20.6773  -26.9407   22.5413 C   0  0  0  0  0  0
  -19.5753  -26.6381   21.5211 C   0  0  0  0  0  0
  -18.1934  -26.7926   22.1624 C   0  0  0  0  0  0
  -19.1540  -28.8850   23.2884 C   0  0  0  0  0  0
  -18.9462  -30.1452   23.8901 C   0  0  0  0  0  0
  -17.6463  -30.6585   24.0563 C   0  0  0  0  0  0
  -25.9049  -34.9444   23.5099 C   0  0  0  0  0  0
  -16.5354  -29.9083   23.6330 C   0  0  0  0  0  0
  -16.7276  -28.6499   23.0354 C   0  0  0  0  0  0
  -26.4494  -31.6585   25.0721 C   0  0  0  0  0  0
  -25.3737  -31.3744   26.1464 C   0  0  0  0  0  0
  -27.0324  -30.2999   24.6184 C   0  0  0  0  0  0
  -27.6061  -32.4320   25.7480 C   0  0  0  0  0  0
  -27.5581  -37.1798   24.8463 C   0  0  0  0  0  0
  -21.4190  -29.3037   22.3678 N   0  0  0  0  0  0
  -26.4292  -37.3771   23.9406 N   0  0  0  0  0  0
  -24.6891  -31.0580   22.0964 N   0  0  0  0  0  0
  -23.4198  -28.8155   23.3019 O   0  0  0  0  0  0
  -28.3582  -26.4749   20.1479 O   0  0  0  0  0  0
  -26.5622  -34.8912   22.4669 O   0  0  0  0  0  0
  -23.5429  -32.1379   23.7335 O   0  0  0  0  0  0
  -30.3378  -19.2941   19.6374 C   0  0  0  0  0  0
  -30.5492  -17.8923   19.8565 C   0  0  0  0  0  0
  -28.5536  -19.2901   21.2364 C   0  0  0  0  0  0
  -29.3164  -20.0355   20.3012 C   0  0  0  0  0  0
  -28.7630  -17.8941   21.4690 C   0  0  0  0  0  0
  -29.7481  -17.1414   20.7618 C   0  0  0  0  0  0
  -29.3835  -23.9323   22.8626 C   0  0  0  0  0  0
  -30.1126  -24.6988   21.7499 C   0  0  0  0  0  0
  -28.9750  -22.5914   22.2316 C   0  0  0  0  0  0
  -29.5221  -24.1423   20.4391 C   0  0  2  0  0  0
  -27.8880  -17.1999   22.4996 C   0  0  0  0  0  0
  -30.5127  -24.3360   19.2734 C   0  0  0  0  0  0
  -28.9509  -21.5360   19.9218 C   0  0  0  0  0  0
  -28.1934  -24.9927   20.1357 C   0  0  0  0  0  0
  -29.8040  -15.6837   20.9646 N   0  0  0  0  0  0
  -29.4275  -22.6562   20.8271 N   0  3  2  0  0  0
  -31.4833  -12.5443   19.1571 H   0  0  0  0  0  0
  -30.3866  -11.4127   19.8994 H   0  0  0  0  0  0
  -29.7806  -11.7673   17.4851 H   0  0  0  0  0  0
  -29.6484  -13.4878   17.7497 H   0  0  0  0  0  0
  -27.8767  -11.2943   18.8709 H   0  0  0  0  0  0
  -27.3796  -12.5756   17.7972 H   0  0  0  0  0  0
  -27.6730  -14.2544   19.5297 H   0  0  0  0  0  0
  -28.7151  -12.0456   21.3728 H   0  0  0  0  0  0
  -28.4339  -13.6907   21.8553 H   0  0  0  0  0  0
  -25.2761   -9.5685   22.4759 H   0  0  0  0  0  0
  -23.9999   -7.4637   22.7481 H   0  0  0  0  0  0
  -21.0829   -8.8792   19.8961 H   0  0  0  0  0  0
  -22.3694  -10.9688   19.6178 H   0  0  0  0  0  0
  -21.2016   -7.6156   23.9720 H   0  0  0  0  0  0
  -21.1474   -6.0529   25.9081 H   0  0  0  0  0  0
  -22.0597   -2.7609   23.2854 H   0  0  0  0  0  0
  -22.4104  -11.9895   22.4804 H   0  0  0  0  0  0
  -21.1119  -13.1274   22.2617 H   0  0  0  0  0  0
  -24.6581  -15.8414   20.5144 H   0  0  0  0  0  0
  -26.2712  -15.6256   20.0622 H   0  0  0  0  0  0
  -26.7177  -32.5434   23.1092 H   0  0  0  0  0  0
  -25.0059  -33.9710   25.0410 H   0  0  0  0  0  0
  -22.7157  -31.3011   21.3987 H   0  0  0  0  0  0
  -23.3740  -35.9639   23.3304 H   0  0  0  0  0  0
  -24.3577  -36.8912   22.2053 H   0  0  0  0  0  0
  -23.7254  -37.6501   23.6662 H   0  0  0  0  0  0
  -26.0961  -31.5485   20.6054 H   0  0  0  0  0  0
  -26.8419  -30.8332   22.0041 H   0  0  0  0  0  0
  -28.1194  -28.9791   21.1790 H   0  0  0  0  0  0
  -25.9719  -25.9141   19.0129 H   0  0  0  0  0  0
  -23.9697  -27.2938   19.0252 H   0  0  0  0  0  0
  -23.7589  -30.5870   19.4030 H   0  0  0  0  0  0
  -22.7560  -29.2431   19.8572 H   0  0  0  0  0  0
  -25.1295  -36.1928   25.0819 H   0  0  0  0  0  0
  -20.9981  -28.3256   24.1406 H   0  0  0  0  0  0
  -20.5664  -26.2294   23.3612 H   0  0  0  0  0  0
  -21.6644  -26.7431   22.1212 H   0  0  0  0  0  0
  -19.6913  -25.6291   21.1239 H   0  0  0  0  0  0
  -19.6694  -27.3192   20.6741 H   0  0  0  0  0  0
  -17.4203  -26.6676   21.4025 H   0  0  0  0  0  0
  -18.0335  -26.0066   22.9018 H   0  0  0  0  0  0
  -19.7938  -30.7266   24.2273 H   0  0  0  0  0  0
  -17.5016  -31.6265   24.5162 H   0  0  0  0  0  0
  -15.5354  -30.2985   23.7648 H   0  0  0  0  0  0
  -15.8677  -28.0815   22.7072 H   0  0  0  0  0  0
  -24.5894  -30.7105   25.7811 H   0  0  0  0  0  0
  -24.8957  -32.2923   26.4895 H   0  0  0  0  0  0
  -25.8069  -30.8922   27.0236 H   0  0  0  0  0  0
  -26.2889  -29.6755   24.1216 H   0  0  0  0  0  0
  -27.4012  -29.7256   25.4692 H   0  0  0  0  0  0
  -27.8769  -30.4270   23.9409 H   0  0  0  0  0  0
  -27.2674  -33.3619   26.2062 H   0  0  0  0  0  0
  -28.3861  -32.6882   25.0299 H   0  0  0  0  0  0
  -28.0739  -31.8446   26.5391 H   0  0  0  0  0  0
  -28.2603  -38.0090   24.7491 H   0  0  0  0  0  0
  -28.1069  -36.2617   24.6303 H   0  0  0  0  0  0
  -27.2299  -37.1465   25.8867 H   0  0  0  0  0  0
  -20.9366  -29.8766   21.6894 H   0  0  0  0  0  0
  -26.0171  -38.2845   24.1403 H   0  0  0  0  0  0
  -30.9530  -19.7929   18.9011 H   0  0  0  0  0  0
  -31.3189  -17.3927   19.2855 H   0  0  0  0  0  0
  -27.7589  -19.7936   21.7701 H   0  0  0  0  0  0
  -28.4952  -24.4780   23.1840 H   0  0  0  0  0  0
  -30.0159  -23.7984   23.7412 H   0  0  0  0  0  0
  -31.1795  -24.4751   21.8085 H   0  0  0  0  0  0
  -30.0201  -25.7803   21.8589 H   0  0  0  0  0  0
  -27.8933  -22.4573   22.2802 H   0  0  0  0  0  0
  -29.4397  -21.7485   22.7444 H   0  0  0  0  0  0
  -27.2164  -17.9003   22.9961 H   0  0  0  0  0  0
  -28.5063  -16.7351   23.2685 H   0  0  0  0  0  0
  -27.2772  -16.4273   22.0347 H   0  0  0  0  0  0
  -30.7286  -25.3938   19.1172 H   0  0  0  0  0  0
  -30.1086  -23.9512   18.3364 H   0  0  0  0  0  0
  -31.4648  -23.8359   19.4532 H   0  0  0  0  0  0
  -27.8676  -21.6117   19.8232 H   0  0  0  0  0  0
  -29.3454  -21.7198   18.9228 H   0  0  0  0  0  0
  -27.4260  -24.7326   20.8657 H   0  0  0  0  0  0
  -27.8057  -24.6826   19.1653 H   0  0  0  0  0  0
  -28.9847  -15.3183   21.4232 H   0  0  0  0  0  0
  -30.4023  -22.4114   20.9139 H   0  0  0  0  0  0
  1 25  1  0  0  0
  1 30  2  0  0  0
  1 85  1  0  0  0
  2  3  1  0  0  0
  2 25  1  0  0  0
  2 87  1  0  0  0
  2 88  1  0  0  0
  3  4  1  0  0  0
  3 89  1  0  0  0
  3 90  1  0  0  0
  4  5  1  0  0  0
  4 91  1  0  0  0
  4 92  1  0  0  0
  5  6  1  0  0  0
  5 26  1  0  0  0
  5 93  1  0  0  0
  6 25  1  0  0  0
  6 94  1  0  0  0
  6 95  1  0  0  0
  7  8  2  0  0  0
  7 26  1  0  0  0
  7 29  1  0  0  0
  8  9  1  0  0  0
  8 22  1  0  0  0
  9 10  1  0  0  0
  9 27  2  0  0  0
 10 11  2  0  0  0
 10 15  1  0  0  0
 11 12  1  0  0  0
 11 96  1  0  0  0
 12 13  2  0  0  0
 12 97  1  0  0  0
 13 14  1  0  0  0
 13 31  1  0  0  0
 14 15  2  0  0  0
 14 98  1  0  0  0
 15 99  1  0  0  0
 16 17  2  0  0  0
 16 21  1  0  0  0
 16 31  1  0  0  0
 17 18  1  0  0  0
 17100  1  0  0  0
 18 19  2  0  0  0
 18101  1  0  0  0
 19 20  1  0  0  0
 19 24  1  0  0  0
 20 21  2  0  0  0
 20102  1  0  0  0
 21 23  1  0  0  0
 22 28  1  0  0  0
 22 32  2  0  0  0
 26 27  1  0  0  0
 28103  1  0  0  0
 28104  1  0  0  0
 29105  1  0  0  0
 29106  1  0  0  0
 33 34  1  0  0  0
 33 66  1  0  0  0
 33 70  2  0  0  0
 34 36  1  0  0  0
 34 59  1  0  0  0
 34107  1  0  0  0
 35 44  2  0  0  0
 35 45  1  0  0  0
 35 68  1  0  0  0
 36 56  1  0  0  0
 36108  1  0  0  0
 37 39  1  0  0  0
 37 47  1  0  0  0
 37 66  1  0  0  0
 37109  1  0  0  0
 38 43  2  0  0  0
 38 46  1  0  0  0
 38 47  1  0  0  0
 39 64  1  0  0  0
 39 67  2  0  0  0
 40 52  1  0  0  0
 40 53  2  0  0  0
 40 58  1  0  0  0
 41110  1  0  0  0
 41111  1  0  0  0
 41112  1  0  0  0
 41 48  1  0  0  0
 42 43  1  0  0  0
 42 66  1  0  0  0
 42113  1  0  0  0
 42114  1  0  0  0
 43 44  1  0  0  0
 44115  1  0  0  0
 45 46  2  0  0  0
 45116  1  0  0  0
 46117  1  0  0  0
 47118  1  0  0  0
 47119  1  0  0  0
 48 56  1  0  0  0
 48 65  1  0  0  0
 48120  1  0  0  0
 49 50  1  0  0  0
 49 53  1  0  0  0
 49 64  1  0  0  0
 49121  1  0  0  0
 50 51  1  0  0  0
 50122  1  0  0  0
 50123  1  0  0  0
 51 52  1  0  0  0
 51124  1  0  0  0
 51125  1  0  0  0
 52126  1  0  0  0
 52127  1  0  0  0
 53 54  1  0  0  0
 54 55  2  0  0  0
 54128  1  0  0  0
 55 57  1  0  0  0
 55129  1  0  0  0
 56 69  2  0  0  0
 57 58  2  0  0  0
 57130  1  0  0  0
 58131  1  0  0  0
 59 60  1  0  0  0
 59 61  1  0  0  0
 59 62  1  0  0  0
 60132  1  0  0  0
 60133  1  0  0  0
 60134  1  0  0  0
 61135  1  0  0  0
 61136  1  0  0  0
 61137  1  0  0  0
 62138  1  0  0  0
 62139  1  0  0  0
 62140  1  0  0  0
 63 65  1  0  0  0
 63141  1  0  0  0
 63142  1  0  0  0
 63143  1  0  0  0
 64144  1  0  0  0
 65145  1  0  0  0
 68 84  1  0  0  0
 71 72  2  0  0  0
 71 74  1  0  0  0
 71146  1  0  0  0
 72 76  1  0  0  0
 72147  1  0  0  0
 73 74  2  0  0  0
 73 75  1  0  0  0
 73148  1  0  0  0
 74 83  1  0  0  0
 75 76  2  0  0  0
 75 81  1  0  0  0
 76 85  1  0  0  0
 77 78  1  0  0  0
 77 79  1  0  0  0
 77149  1  0  0  0
 77150  1  0  0  0
 78 80  1  0  0  0
 78151  1  0  0  0
 78152  1  0  0  0
 79 86  1  0  0  0
 79153  1  0  0  0
 79154  1  0  0  0
 80 82  1  0  0  0
 80 84  1  0  0  0
 80 86  1  0  0  0
 81155  1  0  0  0
 81156  1  0  0  0
 81157  1  0  0  0
 82158  1  0  0  0
 82159  1  0  0  0
 82160  1  0  0  0
 83161  1  0  0  0
 83162  1  0  0  0
 83 86  1  0  0  0
 84163  1  0  0  0
 84164  1  0  0  0
 85165  1  0  0  0
 86166  1  0  0  0
M  CHG  1  86   1
M  ISO  4   1 100  68 101  84 101  85 100
M  END
> <chiral flag>
0

> <version>
0

> <s_m_source_file>
/data/baiqing/PycharmProjects/Reinvent-master-3.2/result/LINK_invent/BTK/process_docking_weight1_custom_product_contain_oxygen_bond_distance_aromatic_linkinvent_7_9_3/rearranged_h_0027.sdf

> <i_m_source_file_index>
23

> <r_mmod_Potential_Energy-OPLS-2005>
101.778747558594

> <r_mmod_Stretch_Energy-OPLS-2005>
92.6437225341797

> <r_mmod_Bend_Energy-OPLS-2005>
198.976913452148

> <r_mmod_Torsional_Energy-OPLS-2005>
281.099914550781

> <r_mmod_Improper_Torsional_Energy-OPLS-2005>
3.78785514831543

> <r_mmod_Van_der_Waal_Energy-OPLS-2005>
130.675064086914

> <r_mmod_Electrostatic_Energy-OPLS-2005>
-243.698791503906

> <r_mmod_Solvation_Energy-OPLS-2005>
-415.247314453125

> <b_mmod_Minimization_Converged-OPLS-2005>
0

> <r_mmod_RMS_Derivative-OPLS-2005>
0.878616869449615

$$$$
24
                    3D
 Structure written by MMmdl.
153162  0  0  1  0            999 V2000
  -30.4747  -15.0245   20.4035 C   0  0  0  0  0  0
  -30.4531  -12.6367   19.4983 C   0  0  0  0  0  0
  -29.5287  -12.5401   18.2597 C   0  0  0  0  0  0
  -28.0636  -12.3098   18.6794 C   0  0  0  0  0  0
  -27.6288  -13.2463   19.8357 C   0  0  2  0  0  0
  -28.6721  -13.2860   20.9723 C   0  0  0  0  0  0
  -25.2460  -13.8199   20.5702 C   0  0  0  0  0  0
  -24.1781  -13.0428   20.9235 C   0  0  0  0  0  0
  -24.6396  -11.6914   20.8757 C   0  0  0  0  0  0
  -23.9078  -10.4286   21.0411 C   0  0  0  0  0  0
  -24.3626   -9.4201   21.9187 C   0  0  0  0  0  0
  -23.6296   -8.2239   22.0755 C   0  0  0  0  0  0
  -22.4278   -8.0280   21.3545 C   0  0  0  0  0  0
  -21.9918   -9.0255   20.4647 C   0  0  0  0  0  0
  -22.7251  -10.2131   20.3057 C   0  0  0  0  0  0
  -21.6854   -6.0735   22.5279 C   0  0  0  0  0  0
  -21.4014   -6.5639   23.8212 C   0  0  0  0  0  0
  -21.3659   -5.6792   24.9175 C   0  0  0  0  0  0
  -21.6045   -4.3055   24.7225 C   0  0  0  0  0  0
  -21.8819   -3.8146   23.4346 C   0  0  0  0  0  0
  -21.9192   -4.6963   22.3402 C   0  0  0  0  0  0
  -22.7801  -13.5202   21.1889 C   0  0  0  0  0  0
  -22.1662   -4.2149   21.0980 F   0  0  0  0  0  0
  -21.5628   -3.4538   25.7738 F   0  0  0  0  0  0
  -29.9380  -13.7317   20.3724 N   0  0  0  0  0  0
  -26.2882  -12.9426   20.3226 N   0  0  0  0  0  0
  -25.9327  -11.6560   20.5729 N   0  0  0  0  0  0
  -22.0450  -12.8191   22.0443 N   0  0  0  0  0  0
  -25.4100  -15.1929   20.4101 N   0  0  0  0  0  0
  -31.6837  -15.1300   20.1608 O   0  0  0  0  0  0
  -21.6640   -6.8879   21.4241 O   0  0  0  0  0  0
  -22.3486  -14.5506   20.6730 O   0  0  0  0  0  0
  -24.6478  -31.8384   23.1817 C   0  0  0  0  0  0
  -25.9226  -32.4666   23.8232 C   0  0  1  0  0  0
  -27.2246  -27.0887   20.1682 C   0  0  0  0  0  0
  -25.5952  -33.8473   24.2150 N   0  0  0  0  0  0
  -23.4543  -30.4533   21.5285 C   0  0  2  0  0  0
  -24.9054  -28.8626   20.1160 C   0  0  0  0  0  0
  -22.7588  -29.4516   22.4846 C   0  0  0  0  0  0
  -18.0308  -28.1398   22.8475 C   0  0  0  0  0  0
  -24.1492  -36.7243   23.2645 C   0  0  0  0  0  0
  -26.0121  -30.6983   21.3849 C   0  0  0  0  0  0
  -26.0846  -29.3023   20.7313 C   0  0  0  0  0  0
  -27.2458  -28.4347   20.7306 C   0  0  0  0  0  0
  -26.0165  -26.7504   19.5250 C   0  0  0  0  0  0
  -24.8865  -27.6020   19.4958 C   0  0  0  0  0  0
  -23.6843  -29.7722   20.1521 C   0  0  0  0  0  0
  -25.4127  -36.3014   24.0311 C   0  0  1  0  0  0
  -20.5922  -28.3728   23.1228 C   0  0  2  0  0  0
  -20.6790  -26.9426   22.5406 C   0  0  0  0  0  0
  -19.5765  -26.6380   21.5214 C   0  0  0  0  0  0
  -18.1946  -26.7936   22.1624 C   0  0  0  0  0  0
  -19.1565  -28.8882   23.2842 C   0  0  0  0  0  0
  -18.9480  -30.1477   23.8870 C   0  0  0  0  0  0
  -17.6476  -30.6594   24.0558 C   0  0  0  0  0  0
  -25.9080  -34.9392   23.5045 C   0  0  0  0  0  0
  -16.5367  -29.9085   23.6338 C   0  0  0  0  0  0
  -16.7292  -28.6504   23.0358 C   0  0  0  0  0  0
  -26.4532  -31.6555   25.0697 C   0  0  0  0  0  0
  -25.3703  -31.3756   26.1383 C   0  0  0  0  0  0
  -27.0410  -30.2947   24.6310 C   0  0  0  0  0  0
  -27.6048  -32.4335   25.7492 C   0  0  0  0  0  0
  -27.5574  -37.1779   24.8466 C   0  0  0  0  0  0
  -21.4275  -29.3044   22.3595 N   0  0  0  0  0  0
  -26.4285  -37.3733   23.9407 N   0  0  0  0  0  0
  -24.7250  -31.0195   22.0869 N   0  0  0  0  0  0
  -23.4207  -28.8079   23.3027 O   0  0  0  0  0  0
  -28.2906  -26.1046   20.1920 O   0  0  0  0  0  0
  -26.5676  -34.8902   22.4631 O   0  0  0  0  0  0
  -23.5586  -32.1278   23.7012 O   0  0  0  0  0  0
  -28.1364  -19.8290   19.8965 C   0  0  0  0  0  0
  -28.3572  -18.3854   19.9183 C   0  0  0  0  0  0
  -30.4648  -18.7158   20.8267 C   0  0  0  0  0  0
  -30.2198  -20.1748   20.8246 C   0  0  0  0  0  0
  -29.0174  -20.8692   20.3691 C   0  0  0  0  0  0
  -29.5343  -17.7040   20.3895 C   0  0  0  0  0  0
  -27.9393  -23.3104   19.4714 C   0  0  0  0  0  0
  -29.2830  -23.5983   21.0178 C   0  0  0  0  0  0
  -28.1001  -24.5600   20.4843 C   0  0  0  0  0  0
  -31.3349  -21.0417   21.3792 C   0  0  0  0  0  0
  -28.6216  -22.3837   20.4412 N   0  0  0  0  0  0
  -29.5840  -16.1471   20.4896 N   0  0  0  0  0  0
  -31.4794  -12.8275   19.1809 H   0  0  0  0  0  0
  -30.4786  -11.6900   20.0403 H   0  0  0  0  0  0
  -29.8607  -11.7374   17.6001 H   0  0  0  0  0  0
  -29.6005  -13.4618   17.6800 H   0  0  0  0  0  0
  -27.9722  -11.2703   18.9966 H   0  0  0  0  0  0
  -27.3987  -12.4264   17.8227 H   0  0  0  0  0  0
  -27.5847  -14.2436   19.3979 H   0  0  0  0  0  0
  -28.7792  -12.3080   21.4439 H   0  0  0  0  0  0
  -28.3590  -13.9742   21.7592 H   0  0  0  0  0  0
  -25.2769   -9.5676   22.4765 H   0  0  0  0  0  0
  -24.0003   -7.4629   22.7475 H   0  0  0  0  0  0
  -21.0849   -8.8777   19.8952 H   0  0  0  0  0  0
  -22.3710  -10.9672   19.6168 H   0  0  0  0  0  0
  -21.2007   -7.6148   23.9715 H   0  0  0  0  0  0
  -21.1482   -6.0522   25.9077 H   0  0  0  0  0  0
  -22.0598   -2.7609   23.2847 H   0  0  0  0  0  0
  -22.4074  -11.9856   22.4835 H   0  0  0  0  0  0
  -21.1064  -13.1208   22.2646 H   0  0  0  0  0  0
  -24.6323  -15.8357   20.5136 H   0  0  0  0  0  0
  -26.2338  -15.6320   20.0235 H   0  0  0  0  0  0
  -26.7292  -32.5258   23.0958 H   0  0  0  0  0  0
  -25.0064  -33.9575   25.0275 H   0  0  0  0  0  0
  -22.7596  -31.2800   21.3667 H   0  0  0  0  0  0
  -23.3759  -35.9569   23.3292 H   0  0  0  0  0  0
  -24.3572  -36.8895   22.2062 H   0  0  0  0  0  0
  -23.7243  -37.6431   23.6698 H   0  0  0  0  0  0
  -26.1703  -31.4480   20.6085 H   0  0  0  0  0  0
  -26.8811  -30.7535   22.0291 H   0  0  0  0  0  0
  -28.1489  -28.7726   21.2192 H   0  0  0  0  0  0
  -25.9323  -25.7822   19.0521 H   0  0  0  0  0  0
  -23.9860  -27.2591   19.0049 H   0  0  0  0  0  0
  -23.8260  -30.5415   19.3921 H   0  0  0  0  0  0
  -22.7980  -29.2159   19.8418 H   0  0  0  0  0  0
  -25.1319  -36.1832   25.0803 H   0  0  0  0  0  0
  -21.0012  -28.3322   24.1350 H   0  0  0  0  0  0
  -20.5679  -26.2342   23.3630 H   0  0  0  0  0  0
  -21.6655  -26.7425   22.1207 H   0  0  0  0  0  0
  -19.6925  -25.6284   21.1262 H   0  0  0  0  0  0
  -19.6702  -27.3175   20.6731 H   0  0  0  0  0  0
  -17.4215  -26.6679   21.4027 H   0  0  0  0  0  0
  -18.0344  -26.0084   22.9027 H   0  0  0  0  0  0
  -19.7956  -30.7301   24.2226 H   0  0  0  0  0  0
  -17.5028  -31.6270   24.5165 H   0  0  0  0  0  0
  -15.5366  -30.2977   23.7677 H   0  0  0  0  0  0
  -15.8692  -28.0813   22.7089 H   0  0  0  0  0  0
  -24.5895  -30.7091   25.7699 H   0  0  0  0  0  0
  -24.8877  -32.2940   26.4733 H   0  0  0  0  0  0
  -25.7974  -30.8977   27.0208 H   0  0  0  0  0  0
  -26.3040  -29.6654   24.1309 H   0  0  0  0  0  0
  -27.4002  -29.7266   25.4901 H   0  0  0  0  0  0
  -27.8952  -30.4176   23.9649 H   0  0  0  0  0  0
  -27.2629  -33.3659   26.1997 H   0  0  0  0  0  0
  -28.3899  -32.6859   25.0352 H   0  0  0  0  0  0
  -28.0673  -31.8510   26.5471 H   0  0  0  0  0  0
  -28.2582  -38.0083   24.7509 H   0  0  0  0  0  0
  -28.1078  -36.2610   24.6299 H   0  0  0  0  0  0
  -27.2289  -37.1431   25.8869 H   0  0  0  0  0  0
  -20.9499  -29.8741   21.6750 H   0  0  0  0  0  0
  -26.0147  -38.2799   24.1409 H   0  0  0  0  0  0
  -27.1749  -20.1518   19.5236 H   0  0  0  0  0  0
  -27.5420  -17.7743   19.5586 H   0  0  0  0  0  0
  -31.4037  -18.3628   21.2292 H   0  0  0  0  0  0
  -28.5066  -23.4264   18.5464 H   0  0  0  0  0  0
  -26.9009  -23.0463   19.2673 H   0  0  0  0  0  0
  -29.3688  -23.5782   22.1049 H   0  0  0  0  0  0
  -30.2470  -23.8051   20.5499 H   0  0  0  0  0  0
  -27.2824  -24.5057   21.2054 H   0  0  0  0  0  0
  -32.2157  -20.4571   21.6447 H   0  0  0  0  0  0
  -30.9985  -21.5647   22.2744 H   0  0  0  0  0  0
  -31.6401  -21.7830   20.6408 H   0  0  0  0  0  0
  -28.6523  -15.7710   20.5679 H   0  0  0  0  0  0
  1 25  1  0  0  0
  1 30  2  0  0  0
  1 82  1  0  0  0
  2  3  1  0  0  0
  2 25  1  0  0  0
  2 83  1  0  0  0
  2 84  1  0  0  0
  3  4  1  0  0  0
  3 85  1  0  0  0
  3 86  1  0  0  0
  4  5  1  0  0  0
  4 87  1  0  0  0
  4 88  1  0  0  0
  5  6  1  0  0  0
  5 26  1  0  0  0
  5 89  1  0  0  0
  6 25  1  0  0  0
  6 90  1  0  0  0
  6 91  1  0  0  0
  7  8  2  0  0  0
  7 26  1  0  0  0
  7 29  1  0  0  0
  8  9  1  0  0  0
  8 22  1  0  0  0
  9 10  1  0  0  0
  9 27  2  0  0  0
 10 11  2  0  0  0
 10 15  1  0  0  0
 11 12  1  0  0  0
 11 92  1  0  0  0
 12 13  2  0  0  0
 12 93  1  0  0  0
 13 14  1  0  0  0
 13 31  1  0  0  0
 14 15  2  0  0  0
 14 94  1  0  0  0
 15 95  1  0  0  0
 16 17  2  0  0  0
 16 21  1  0  0  0
 16 31  1  0  0  0
 17 18  1  0  0  0
 17 96  1  0  0  0
 18 19  2  0  0  0
 18 97  1  0  0  0
 19 20  1  0  0  0
 19 24  1  0  0  0
 20 21  2  0  0  0
 20 98  1  0  0  0
 21 23  1  0  0  0
 22 28  1  0  0  0
 22 32  2  0  0  0
 26 27  1  0  0  0
 28 99  1  0  0  0
 28100  1  0  0  0
 29101  1  0  0  0
 29102  1  0  0  0
 33 34  1  0  0  0
 33 66  1  0  0  0
 33 70  2  0  0  0
 34 36  1  0  0  0
 34 59  1  0  0  0
 34103  1  0  0  0
 35 44  2  0  0  0
 35 45  1  0  0  0
 35 68  1  0  0  0
 36 56  1  0  0  0
 36104  1  0  0  0
 37 39  1  0  0  0
 37 47  1  0  0  0
 37 66  1  0  0  0
 37105  1  0  0  0
 38 43  2  0  0  0
 38 46  1  0  0  0
 38 47  1  0  0  0
 39 64  1  0  0  0
 39 67  2  0  0  0
 40 52  1  0  0  0
 40 53  2  0  0  0
 40 58  1  0  0  0
 41106  1  0  0  0
 41107  1  0  0  0
 41108  1  0  0  0
 41 48  1  0  0  0
 42 43  1  0  0  0
 42 66  1  0  0  0
 42109  1  0  0  0
 42110  1  0  0  0
 43 44  1  0  0  0
 44111  1  0  0  0
 45 46  2  0  0  0
 45112  1  0  0  0
 46113  1  0  0  0
 47114  1  0  0  0
 47115  1  0  0  0
 48 56  1  0  0  0
 48 65  1  0  0  0
 48116  1  0  0  0
 49 50  1  0  0  0
 49 53  1  0  0  0
 49 64  1  0  0  0
 49117  1  0  0  0
 50 51  1  0  0  0
 50118  1  0  0  0
 50119  1  0  0  0
 51 52  1  0  0  0
 51120  1  0  0  0
 51121  1  0  0  0
 52122  1  0  0  0
 52123  1  0  0  0
 53 54  1  0  0  0
 54 55  2  0  0  0
 54124  1  0  0  0
 55 57  1  0  0  0
 55125  1  0  0  0
 56 69  2  0  0  0
 57 58  2  0  0  0
 57126  1  0  0  0
 58127  1  0  0  0
 59 60  1  0  0  0
 59 61  1  0  0  0
 59 62  1  0  0  0
 60128  1  0  0  0
 60129  1  0  0  0
 60130  1  0  0  0
 61131  1  0  0  0
 61132  1  0  0  0
 61133  1  0  0  0
 62134  1  0  0  0
 62135  1  0  0  0
 62136  1  0  0  0
 63 65  1  0  0  0
 63137  1  0  0  0
 63138  1  0  0  0
 63139  1  0  0  0
 64140  1  0  0  0
 65141  1  0  0  0
 68 79  1  0  0  0
 71 72  2  0  0  0
 71 75  1  0  0  0
 71142  1  0  0  0
 72 76  1  0  0  0
 72143  1  0  0  0
 73 74  1  0  0  0
 73 76  2  0  0  0
 73144  1  0  0  0
 74 75  2  0  0  0
 74 80  1  0  0  0
 75 81  1  0  0  0
 76 82  1  0  0  0
 77 79  1  0  0  0
 77 81  1  0  0  0
 77145  1  0  0  0
 77146  1  0  0  0
 78 79  1  0  0  0
 78 81  1  0  0  0
 78147  1  0  0  0
 78148  1  0  0  0
 79149  1  0  0  0
 80150  1  0  0  0
 80151  1  0  0  0
 80152  1  0  0  0
 82153  1  0  0  0
M  ISO  4   1 100  68 101  79 101  82 100
M  END
> <chiral flag>
0

> <version>
0

> <s_m_source_file>
/data/baiqing/PycharmProjects/Reinvent-master-3.2/result/LINK_invent/BTK/process_docking_weight1_custom_product_contain_oxygen_bond_distance_aromatic_linkinvent_7_9_3/rearranged_h_0027.sdf

> <i_m_source_file_index>
24

> <r_mmod_Potential_Energy-OPLS-2005>
670.516723632812

> <r_mmod_Stretch_Energy-OPLS-2005>
269.807098388672

> <r_mmod_Bend_Energy-OPLS-2005>
389.568115234375

> <r_mmod_Torsional_Energy-OPLS-2005>
250.299118041992

> <r_mmod_Improper_Torsional_Energy-OPLS-2005>
9.17728900909424

> <r_mmod_Van_der_Waal_Energy-OPLS-2005>
125.529792785645

> <r_mmod_Electrostatic_Energy-OPLS-2005>
-384.400421142578

> <r_mmod_Solvation_Energy-OPLS-2005>
-231.696319580078

> <b_mmod_Minimization_Converged-OPLS-2005>
0

> <r_mmod_RMS_Derivative-OPLS-2005>
0.0717288330197334

$$$$
25
                    3D
 Structure written by MMmdl.
173182  0  0  1  0            999 V2000
  -30.7375  -14.4000   20.6425 C   0  0  0  0  0  0
  -30.4181  -12.2895   19.4095 C   0  0  0  0  0  0
  -29.4865  -12.4940   18.2005 C   0  0  0  0  0  0
  -28.0117  -12.3432   18.6190 C   0  0  0  0  0  0
  -27.6571  -13.1963   19.8642 C   0  0  2  0  0  0
  -28.6962  -12.9759   20.9880 C   0  0  0  0  0  0
  -25.2564  -13.8150   20.5630 C   0  0  0  0  0  0
  -24.1834  -13.0439   20.9160 C   0  0  0  0  0  0
  -24.6376  -11.6894   20.8735 C   0  0  0  0  0  0
  -23.9050  -10.4288   21.0417 C   0  0  0  0  0  0
  -24.3602   -9.4194   21.9189 C   0  0  0  0  0  0
  -23.6279   -8.2231   22.0754 C   0  0  0  0  0  0
  -22.4257   -8.0285   21.3559 C   0  0  0  0  0  0
  -21.9906   -9.0257   20.4656 C   0  0  0  0  0  0
  -22.7226  -10.2139   20.3065 C   0  0  0  0  0  0
  -21.6842   -6.0737   22.5274 C   0  0  0  0  0  0
  -21.4030   -6.5651   23.8208 C   0  0  0  0  0  0
  -21.3664   -5.6806   24.9176 C   0  0  0  0  0  0
  -21.6018   -4.3064   24.7230 C   0  0  0  0  0  0
  -21.8811   -3.8162   23.4347 C   0  0  0  0  0  0
  -21.9187   -4.6970   22.3403 C   0  0  0  0  0  0
  -22.7854  -13.5240   21.1832 C   0  0  0  0  0  0
  -22.1642   -4.2163   21.0979 F   0  0  0  0  0  0
  -21.5646   -3.4552   25.7748 F   0  0  0  0  0  0
  -30.0305  -13.2640   20.4365 N   0  0  0  0  0  0
  -26.2975  -12.9300   20.3270 N   0  0  0  0  0  0
  -25.9288  -11.6471   20.5751 N   0  0  0  0  0  0
  -22.0482  -12.8253   22.0380 N   0  0  0  0  0  0
  -25.4272  -15.1866   20.4077 N   0  0  0  0  0  0
  -31.8048  -14.6390   20.0652 O   0  0  0  0  0  0
  -21.6621   -6.8885   21.4245 O   0  0  0  0  0  0
  -22.3512  -14.5519   20.6643 O   0  0  0  0  0  0
  -24.6151  -31.8672   23.2144 C   0  0  0  0  0  0
  -25.9035  -32.4811   23.8428 C   0  0  1  0  0  0
  -27.2513  -27.4659   20.0742 C   0  0  0  0  0  0
  -25.5902  -33.8611   24.2341 N   0  0  0  0  0  0
  -23.4000  -30.4932   21.5565 C   0  0  2  0  0  0
  -24.8438  -28.9557   20.1236 C   0  0  0  0  0  0
  -22.7394  -29.4661   22.5037 C   0  0  0  0  0  0
  -18.0277  -28.1388   22.8541 C   0  0  0  0  0  0
  -24.1473  -36.7290   23.2646 C   0  0  0  0  0  0
  -25.9280  -30.8393   21.3617 C   0  0  0  0  0  0
  -26.0032  -29.4765   20.7098 C   0  0  0  0  0  0
  -27.2038  -28.7390   20.6816 C   0  0  0  0  0  0
  -26.0639  -26.9388   19.5109 C   0  0  0  0  0  0
  -24.8663  -27.6829   19.5294 C   0  0  0  0  0  0
  -23.6073  -29.8249   20.1712 C   0  0  0  0  0  0
  -25.4094  -36.3101   24.0349 C   0  0  1  0  0  0
  -20.5867  -28.3648   23.1367 C   0  0  2  0  0  0
  -20.6779  -26.9396   22.5441 C   0  0  0  0  0  0
  -19.5738  -26.6411   21.5249 C   0  0  0  0  0  0
  -18.1920  -26.7957   22.1659 C   0  0  0  0  0  0
  -19.1529  -28.8842   23.2964 C   0  0  0  0  0  0
  -18.9447  -30.1479   23.8939 C   0  0  0  0  0  0
  -17.6437  -30.6609   24.0578 C   0  0  0  0  0  0
  -25.9033  -34.9470   23.5143 C   0  0  0  0  0  0
  -16.5334  -29.9106   23.6331 C   0  0  0  0  0  0
  -16.7263  -28.6530   23.0345 C   0  0  0  0  0  0
  -26.4481  -31.6594   25.0741 C   0  0  0  0  0  0
  -25.3747  -31.3706   26.1484 C   0  0  0  0  0  0
  -27.0303  -30.3049   24.6093 C   0  0  0  0  0  0
  -27.6071  -32.4318   25.7473 C   0  0  0  0  0  0
  -27.5576  -37.1809   24.8488 C   0  0  0  0  0  0
  -21.4125  -29.3007   22.3749 N   0  0  0  0  0  0
  -26.4288  -37.3787   23.9424 N   0  0  0  0  0  0
  -24.6663  -31.0803   22.1032 N   0  0  0  0  0  0
  -23.4179  -28.8202   23.3069 O   0  0  0  0  0  0
  -28.4773  -26.8344   20.0491 O   0  0  0  0  0  0
  -26.5599  -34.8928   22.4704 O   0  0  0  0  0  0
  -23.5344  -32.1404   23.7538 O   0  0  0  0  0  0
  -28.9610  -18.1187   19.5199 C   0  0  0  0  0  0
  -27.7912  -18.8133   19.1780 C   0  0  0  0  0  0
  -29.9119  -18.6956   20.3848 C   0  0  0  0  0  0
  -29.6931  -20.0102   20.8839 C   0  0  0  0  0  0
  -27.5482  -20.1073   19.6828 C   0  0  0  0  0  0
  -28.5185  -20.7237   20.5135 C   0  0  0  0  0  0
  -25.5264  -20.3466   17.1728 C   0  0  0  0  0  0
  -24.4489  -19.9538   18.1718 C   0  0  0  0  0  0
  -26.4053  -21.2987   17.9748 C   0  0  0  0  0  0
  -25.1236  -20.0795   19.5452 C   0  0  0  0  0  0
  -30.7013  -20.6160   21.8488 C   0  0  0  0  0  0
  -31.1705  -17.8839   20.7147 C   0  0  0  0  0  0
  -28.4335  -24.4652   20.5645 C   0  0  0  0  0  0
  -28.7767  -23.0538   20.0606 C   0  0  0  0  0  0
  -28.6341  -25.5366   19.4805 C   0  0  0  0  0  0
  -26.3737  -20.8135   19.3499 N   0  0  0  0  0  0
  -28.2626  -22.0289   20.9640 N   0  0  0  0  0  0
  -30.1846  -15.3304   21.5132 N   0  0  0  0  0  0
  -32.2775  -16.3225   22.6353 O   0  0  0  0  0  0
  -29.9995  -17.3282   23.1044 O   0  0  0  0  0  0
  -30.9469  -16.7317   22.1486 S   0  0  0  0  0  0
  -31.4638  -12.3855   19.1124 H   0  0  0  0  0  0
  -30.3289  -11.2801   19.8112 H   0  0  0  0  0  0
  -29.7300  -11.7742   17.4185 H   0  0  0  0  0  0
  -29.6493  -13.4856   17.7723 H   0  0  0  0  0  0
  -27.8363  -11.2872   18.8305 H   0  0  0  0  0  0
  -27.3585  -12.6029   17.7850 H   0  0  0  0  0  0
  -27.7004  -14.2397   19.5503 H   0  0  0  0  0  0
  -28.6653  -11.9409   21.3321 H   0  0  0  0  0  0
  -28.4445  -13.5755   21.8616 H   0  0  0  0  0  0
  -25.2761   -9.5671   22.4739 H   0  0  0  0  0  0
  -23.9985   -7.4642   22.7486 H   0  0  0  0  0  0
  -21.0828   -8.8774   19.8977 H   0  0  0  0  0  0
  -22.3679  -10.9677   19.6164 H   0  0  0  0  0  0
  -21.2022   -7.6162   23.9718 H   0  0  0  0  0  0
  -21.1490   -6.0541   25.9073 H   0  0  0  0  0  0
  -22.0581   -2.7619   23.2842 H   0  0  0  0  0  0
  -22.4118  -11.9944   22.4841 H   0  0  0  0  0  0
  -21.1096  -13.1312   22.2559 H   0  0  0  0  0  0
  -24.6698  -15.8420   20.5637 H   0  0  0  0  0  0
  -26.2764  -15.6337   20.0893 H   0  0  0  0  0  0
  -26.7087  -32.5537   23.1179 H   0  0  0  0  0  0
  -25.0052  -33.9780   25.0485 H   0  0  0  0  0  0
  -22.6907  -31.3132   21.4212 H   0  0  0  0  0  0
  -23.3735  -35.9629   23.3345 H   0  0  0  0  0  0
  -24.3562  -36.8856   22.2060 H   0  0  0  0  0  0
  -23.7245  -37.6519   23.6619 H   0  0  0  0  0  0
  -26.0386  -31.6038   20.5913 H   0  0  0  0  0  0
  -26.8199  -30.8942   21.9767 H   0  0  0  0  0  0
  -28.1066  -29.1504   21.1109 H   0  0  0  0  0  0
  -26.0365  -25.9674   19.0435 H   0  0  0  0  0  0
  -23.9723  -27.2682   19.0846 H   0  0  0  0  0  0
  -23.7207  -30.6044   19.4176 H   0  0  0  0  0  0
  -22.7296  -29.2511   19.8693 H   0  0  0  0  0  0
  -25.1262  -36.1976   25.0846 H   0  0  0  0  0  0
  -20.9999  -28.3218   24.1470 H   0  0  0  0  0  0
  -20.5724  -26.2236   23.3603 H   0  0  0  0  0  0
  -21.6639  -26.7465   22.1191 H   0  0  0  0  0  0
  -19.6880  -25.6331   21.1262 H   0  0  0  0  0  0
  -19.6703  -27.3239   20.6796 H   0  0  0  0  0  0
  -17.4194  -26.6752   21.4055 H   0  0  0  0  0  0
  -18.0302  -26.0082   22.9032 H   0  0  0  0  0  0
  -19.7901  -30.7334   24.2306 H   0  0  0  0  0  0
  -17.4958  -31.6287   24.5163 H   0  0  0  0  0  0
  -15.5327  -30.2991   23.7660 H   0  0  0  0  0  0
  -15.8670  -28.0875   22.6987 H   0  0  0  0  0  0
  -24.5884  -30.7105   25.7808 H   0  0  0  0  0  0
  -24.8964  -32.2857   26.4984 H   0  0  0  0  0  0
  -25.8078  -30.8817   27.0207 H   0  0  0  0  0  0
  -26.2835  -29.6841   24.1116 H   0  0  0  0  0  0
  -27.4081  -29.7287   25.4550 H   0  0  0  0  0  0
  -27.8670  -30.4411   23.9234 H   0  0  0  0  0  0
  -27.2706  -33.3595   26.2108 H   0  0  0  0  0  0
  -28.3823  -32.6913   25.0253 H   0  0  0  0  0  0
  -28.0783  -31.8394   26.5321 H   0  0  0  0  0  0
  -28.2626  -38.0069   24.7462 H   0  0  0  0  0  0
  -28.1043  -36.2611   24.6376 H   0  0  0  0  0  0
  -27.2299  -37.1516   25.8894 H   0  0  0  0  0  0
  -20.9268  -29.8664   21.6929 H   0  0  0  0  0  0
  -26.0184  -38.2876   24.1403 H   0  0  0  0  0  0
  -29.1188  -17.1330   19.1060 H   0  0  0  0  0  0
  -27.0829  -18.3368   18.5179 H   0  0  0  0  0  0
  -25.1271  -20.7959   16.2628 H   0  0  0  0  0  0
  -26.0954  -19.4650   16.8782 H   0  0  0  0  0  0
  -24.0577  -18.9529   17.9865 H   0  0  0  0  0  0
  -23.6183  -20.6548   18.0959 H   0  0  0  0  0  0
  -25.9991  -22.3104   17.9466 H   0  0  0  0  0  0
  -27.4211  -21.3418   17.5737 H   0  0  0  0  0  0
  -25.2925  -19.0977   19.9850 H   0  0  0  0  0  0
  -24.4799  -20.6167   20.2412 H   0  0  0  0  0  0
  -30.8483  -19.9245   22.6787 H   0  0  0  0  0  0
  -30.3773  -21.5632   22.2751 H   0  0  0  0  0  0
  -31.6597  -20.7857   21.3607 H   0  0  0  0  0  0
  -32.0080  -18.5245   20.9778 H   0  0  0  0  0  0
  -31.5253  -17.3139   19.8566 H   0  0  0  0  0  0
  -29.0489  -24.6930   21.4362 H   0  0  0  0  0  0
  -27.3968  -24.5116   20.9023 H   0  0  0  0  0  0
  -29.8584  -22.9594   19.9263 H   0  0  0  0  0  0
  -28.3326  -22.9085   19.0741 H   0  0  0  0  0  0
  -27.9978  -25.3594   18.6133 H   0  0  0  0  0  0
  -29.6530  -25.4833   19.0942 H   0  0  0  0  0  0
  -27.2480  -22.1148   20.9572 H   0  0  0  0  0  0
  -29.2405  -15.2111   21.8716 H   0  0  0  0  0  0
  1 25  1  0  0  0
  1 30  2  0  0  0
  1 88  1  0  0  0
  2  3  1  0  0  0
  2 25  1  0  0  0
  2 92  1  0  0  0
  2 93  1  0  0  0
  3  4  1  0  0  0
  3 94  1  0  0  0
  3 95  1  0  0  0
  4  5  1  0  0  0
  4 96  1  0  0  0
  4 97  1  0  0  0
  5  6  1  0  0  0
  5 26  1  0  0  0
  5 98  1  0  0  0
  6 25  1  0  0  0
  6 99  1  0  0  0
  6100  1  0  0  0
  7  8  2  0  0  0
  7 26  1  0  0  0
  7 29  1  0  0  0
  8  9  1  0  0  0
  8 22  1  0  0  0
  9 10  1  0  0  0
  9 27  2  0  0  0
 10 11  2  0  0  0
 10 15  1  0  0  0
 11 12  1  0  0  0
 11101  1  0  0  0
 12 13  2  0  0  0
 12102  1  0  0  0
 13 14  1  0  0  0
 13 31  1  0  0  0
 14 15  2  0  0  0
 14103  1  0  0  0
 15104  1  0  0  0
 16 17  2  0  0  0
 16 21  1  0  0  0
 16 31  1  0  0  0
 17 18  1  0  0  0
 17105  1  0  0  0
 18 19  2  0  0  0
 18106  1  0  0  0
 19 20  1  0  0  0
 19 24  1  0  0  0
 20 21  2  0  0  0
 20107  1  0  0  0
 21 23  1  0  0  0
 22 28  1  0  0  0
 22 32  2  0  0  0
 26 27  1  0  0  0
 28108  1  0  0  0
 28109  1  0  0  0
 29110  1  0  0  0
 29111  1  0  0  0
 33 34  1  0  0  0
 33 66  1  0  0  0
 33 70  2  0  0  0
 34 36  1  0  0  0
 34 59  1  0  0  0
 34112  1  0  0  0
 35 44  2  0  0  0
 35 45  1  0  0  0
 35 68  1  0  0  0
 36 56  1  0  0  0
 36113  1  0  0  0
 37 39  1  0  0  0
 37 47  1  0  0  0
 37 66  1  0  0  0
 37114  1  0  0  0
 38 43  2  0  0  0
 38 46  1  0  0  0
 38 47  1  0  0  0
 39 64  1  0  0  0
 39 67  2  0  0  0
 40 52  1  0  0  0
 40 53  2  0  0  0
 40 58  1  0  0  0
 41115  1  0  0  0
 41116  1  0  0  0
 41117  1  0  0  0
 41 48  1  0  0  0
 42 43  1  0  0  0
 42 66  1  0  0  0
 42118  1  0  0  0
 42119  1  0  0  0
 43 44  1  0  0  0
 44120  1  0  0  0
 45 46  2  0  0  0
 45121  1  0  0  0
 46122  1  0  0  0
 47123  1  0  0  0
 47124  1  0  0  0
 48 56  1  0  0  0
 48 65  1  0  0  0
 48125  1  0  0  0
 49 50  1  0  0  0
 49 53  1  0  0  0
 49 64  1  0  0  0
 49126  1  0  0  0
 50 51  1  0  0  0
 50127  1  0  0  0
 50128  1  0  0  0
 51 52  1  0  0  0
 51129  1  0  0  0
 51130  1  0  0  0
 52131  1  0  0  0
 52132  1  0  0  0
 53 54  1  0  0  0
 54 55  2  0  0  0
 54133  1  0  0  0
 55 57  1  0  0  0
 55134  1  0  0  0
 56 69  2  0  0  0
 57 58  2  0  0  0
 57135  1  0  0  0
 58136  1  0  0  0
 59 60  1  0  0  0
 59 61  1  0  0  0
 59 62  1  0  0  0
 60137  1  0  0  0
 60138  1  0  0  0
 60139  1  0  0  0
 61140  1  0  0  0
 61141  1  0  0  0
 61142  1  0  0  0
 62143  1  0  0  0
 62144  1  0  0  0
 62145  1  0  0  0
 63 65  1  0  0  0
 63146  1  0  0  0
 63147  1  0  0  0
 63148  1  0  0  0
 64149  1  0  0  0
 65150  1  0  0  0
 68 85  1  0  0  0
 71 72  2  0  0  0
 71 73  1  0  0  0
 71151  1  0  0  0
 72 75  1  0  0  0
 72152  1  0  0  0
 73 74  2  0  0  0
 73 82  1  0  0  0
 74 76  1  0  0  0
 74 81  1  0  0  0
 75 76  2  0  0  0
 75 86  1  0  0  0
 76 87  1  0  0  0
 77 78  1  0  0  0
 77 79  1  0  0  0
 77153  1  0  0  0
 77154  1  0  0  0
 78 80  1  0  0  0
 78155  1  0  0  0
 78156  1  0  0  0
 79 86  1  0  0  0
 79157  1  0  0  0
 79158  1  0  0  0
 80 86  1  0  0  0
 80159  1  0  0  0
 80160  1  0  0  0
 81161  1  0  0  0
 81162  1  0  0  0
 81163  1  0  0  0
 82164  1  0  0  0
 82165  1  0  0  0
 82 91  1  0  0  0
 83 84  1  0  0  0
 83 85  1  0  0  0
 83166  1  0  0  0
 83167  1  0  0  0
 84 87  1  0  0  0
 84168  1  0  0  0
 84169  1  0  0  0
 85170  1  0  0  0
 85171  1  0  0  0
 87172  1  0  0  0
 88 91  1  0  0  0
 88173  1  0  0  0
 89 91  2  0  0  0
 90 91  2  0  0  0
M  ISO  4   1 100  68 101  85 101  88 100
M  END
> <chiral flag>
0

> <version>
0

> <s_m_source_file>
/data/baiqing/PycharmProjects/Reinvent-master-3.2/result/LINK_invent/BTK/process_docking_weight1_custom_product_contain_oxygen_bond_distance_aromatic_linkinvent_7_9_3/rearranged_h_0027.sdf

> <i_m_source_file_index>
25

> <r_mmod_Potential_Energy-OPLS-2005>
-213.10090637207

> <r_mmod_Stretch_Energy-OPLS-2005>
34.847900390625

> <r_mmod_Bend_Energy-OPLS-2005>
133.159912109375

> <r_mmod_Torsional_Energy-OPLS-2005>
254.031829833984

> <r_mmod_Improper_Torsional_Energy-OPLS-2005>
14.2569160461426

> <r_mmod_Van_der_Waal_Energy-OPLS-2005>
149.136596679688

> <r_mmod_Electrostatic_Energy-OPLS-2005>
-549.504272460938

> <r_mmod_Solvation_Energy-OPLS-2005>
-258.874694824219

> <b_mmod_Minimization_Converged-OPLS-2005>
0

> <r_mmod_RMS_Derivative-OPLS-2005>
5.26513910293579

$$$$
26
                    3D
 Structure written by MMmdl.
169178  0  0  1  0            999 V2000
  -30.6505  -14.5516   20.5564 C   0  0  0  0  0  0
  -30.4322  -12.3592   19.4210 C   0  0  0  0  0  0
  -29.4952  -12.5022   18.2033 C   0  0  0  0  0  0
  -28.0178  -12.3531   18.6207 C   0  0  0  0  0  0
  -27.6528  -13.2082   19.8633 C   0  0  2  0  0  0
  -28.6958  -13.0173   20.9841 C   0  0  0  0  0  0
  -25.2556  -13.8149   20.5668 C   0  0  0  0  0  0
  -24.1819  -13.0419   20.9192 C   0  0  0  0  0  0
  -24.6373  -11.6889   20.8722 C   0  0  0  0  0  0
  -23.9043  -10.4275   21.0396 C   0  0  0  0  0  0
  -24.3604   -9.4198   21.9175 C   0  0  0  0  0  0
  -23.6282   -8.2229   22.0749 C   0  0  0  0  0  0
  -22.4266   -8.0263   21.3535 C   0  0  0  0  0  0
  -21.9895   -9.0238   20.4640 C   0  0  0  0  0  0
  -22.7215  -10.2118   20.3049 C   0  0  0  0  0  0
  -21.6852   -6.0724   22.5270 C   0  0  0  0  0  0
  -21.4011   -6.5633   23.8199 C   0  0  0  0  0  0
  -21.3664   -5.6793   24.9166 C   0  0  0  0  0  0
  -21.6045   -4.3054   24.7225 C   0  0  0  0  0  0
  -21.8823   -3.8139   23.4345 C   0  0  0  0  0  0
  -21.9192   -4.6950   22.3396 C   0  0  0  0  0  0
  -22.7844  -13.5216   21.1867 C   0  0  0  0  0  0
  -22.1663   -4.2133   21.0976 F   0  0  0  0  0  0
  -21.5637   -3.4541   25.7743 F   0  0  0  0  0  0
  -30.0134  -13.3541   20.4214 N   0  0  0  0  0  0
  -26.2972  -12.9318   20.3301 N   0  0  0  0  0  0
  -25.9293  -11.6475   20.5732 N   0  0  0  0  0  0
  -22.0510  -12.8192   22.0433 N   0  0  0  0  0  0
  -25.4262  -15.1870   20.4091 N   0  0  0  0  0  0
  -31.8085  -14.7335   20.1696 O   0  0  0  0  0  0
  -21.6637   -6.8859   21.4228 O   0  0  0  0  0  0
  -22.3517  -14.5518   20.6722 O   0  0  0  0  0  0
  -24.6193  -31.8661   23.2053 C   0  0  0  0  0  0
  -25.9086  -32.4795   23.8351 C   0  0  1  0  0  0
  -27.2243  -27.3847   20.1049 C   0  0  0  0  0  0
  -25.5940  -33.8591   24.2283 N   0  0  0  0  0  0
  -23.4061  -30.4885   21.5494 C   0  0  2  0  0  0
  -24.8515  -28.9432   20.1193 C   0  0  0  0  0  0
  -22.7417  -29.4668   22.5002 C   0  0  0  0  0  0
  -18.0280  -28.1373   22.8505 C   0  0  0  0  0  0
  -24.1489  -36.7306   23.2634 C   0  0  0  0  0  0
  -25.9409  -30.8106   21.3694 C   0  0  0  0  0  0
  -26.0152  -29.4402   20.7203 C   0  0  0  0  0  0
  -27.2069  -28.6683   20.7096 C   0  0  0  0  0  0
  -26.0435  -26.9141   19.4961 C   0  0  0  0  0  0
  -24.8627  -27.6809   19.5025 C   0  0  0  0  0  0
  -23.6143  -29.8146   20.1669 C   0  0  0  0  0  0
  -25.4112  -36.3081   24.0316 C   0  0  1  0  0  0
  -20.5869  -28.3685   23.1317 C   0  0  2  0  0  0
  -20.6787  -26.9425   22.5412 C   0  0  0  0  0  0
  -19.5763  -26.6392   21.5218 C   0  0  0  0  0  0
  -18.1933  -26.7929   22.1620 C   0  0  0  0  0  0
  -19.1525  -28.8847   23.2906 C   0  0  0  0  0  0
  -18.9448  -30.1451   23.8921 C   0  0  0  0  0  0
  -17.6452  -30.6592   24.0563 C   0  0  0  0  0  0
  -25.9051  -34.9457   23.5093 C   0  0  0  0  0  0
  -16.5341  -29.9088   23.6322 C   0  0  0  0  0  0
  -16.7269  -28.6490   23.0367 C   0  0  0  0  0  0
  -26.4496  -31.6603   25.0710 C   0  0  0  0  0  0
  -25.3738  -31.3750   26.1447 C   0  0  0  0  0  0
  -27.0361  -30.3034   24.6158 C   0  0  0  0  0  0
  -27.6046  -32.4365   25.7485 C   0  0  0  0  0  0
  -27.5584  -37.1787   24.8450 C   0  0  0  0  0  0
  -21.4145  -29.3054   22.3723 N   0  0  0  0  0  0
  -26.4288  -37.3779   23.9406 N   0  0  0  0  0  0
  -24.6732  -31.0719   22.0980 N   0  0  0  0  0  0
  -23.4168  -28.8211   23.3059 O   0  0  0  0  0  0
  -28.3792  -26.6226   20.0333 O   0  0  0  0  0  0
  -26.5609  -34.8925   22.4649 O   0  0  0  0  0  0
  -23.5380  -32.1452   23.7426 O   0  0  0  0  0  0
  -30.8564  -18.2033   19.3574 C   0  0  0  0  0  0
  -30.7949  -19.3518   18.5433 C   0  0  0  0  0  0
  -29.2645  -19.2316   20.8822 C   0  0  0  0  0  0
  -30.0986  -18.1253   20.5411 C   0  0  0  0  0  0
  -29.1840  -20.4015   20.0646 C   0  0  0  0  0  0
  -29.9662  -20.4471   18.8840 C   0  0  0  0  0  0
  -28.2603  -24.0686   20.1617 C   0  0  0  0  0  0
  -30.9096  -23.2002   16.6890 C   0  0  0  0  0  0
  -30.1928  -22.2213   15.7599 C   0  0  0  0  0  0
  -31.0907  -22.3884   17.9668 C   0  0  0  0  0  0
  -29.3666  -21.3372   16.7021 C   0  0  0  0  0  0
  -29.6302  -22.9222   21.8824 C   0  0  0  0  0  0
  -30.2896  -16.9144   21.4826 C   0  0  0  0  0  0
  -28.1881  -21.5488   20.3980 C   0  0  0  0  0  0
  -28.4760  -25.4458   20.8843 C   0  0  0  0  0  0
  -29.8910  -21.5679   18.0446 N   0  0  0  0  0  0
  -29.8818  -15.5683   21.0175 N   0  0  0  0  0  0
  -28.7121  -22.9071   20.7399 N   0  0  0  0  0  0
  -27.6110  -24.0551   19.1121 O   0  0  0  0  0  0
  -31.4707  -12.4928   19.1133 H   0  0  0  0  0  0
  -30.3695  -11.3541   19.8398 H   0  0  0  0  0  0
  -29.7429  -11.7543   17.4495 H   0  0  0  0  0  0
  -29.6469  -13.4731   17.7300 H   0  0  0  0  0  0
  -27.8433  -11.2985   18.8368 H   0  0  0  0  0  0
  -27.3617  -12.6016   17.7859 H   0  0  0  0  0  0
  -27.6844  -14.2508   19.5462 H   0  0  0  0  0  0
  -28.6954  -11.9833   21.3322 H   0  0  0  0  0  0
  -28.4481  -13.6207   21.8584 H   0  0  0  0  0  0
  -25.2751   -9.5679   22.4744 H   0  0  0  0  0  0
  -23.9996   -7.4625   22.7465 H   0  0  0  0  0  0
  -21.0828   -8.8743   19.8949 H   0  0  0  0  0  0
  -22.3661  -10.9657   19.6159 H   0  0  0  0  0  0
  -21.1998   -7.6142   23.9690 H   0  0  0  0  0  0
  -21.1491   -6.0532   25.9067 H   0  0  0  0  0  0
  -22.0601   -2.7601   23.2853 H   0  0  0  0  0  0
  -22.4162  -11.9861   22.4810 H   0  0  0  0  0  0
  -21.1120  -13.1181   22.2661 H   0  0  0  0  0  0
  -24.6569  -15.8395   20.5177 H   0  0  0  0  0  0
  -26.2702  -15.6271   20.0653 H   0  0  0  0  0  0
  -26.7148  -32.5500   23.1105 H   0  0  0  0  0  0
  -25.0121  -33.9728   25.0445 H   0  0  0  0  0  0
  -22.6972  -31.3066   21.4061 H   0  0  0  0  0  0
  -23.3737  -35.9650   23.3285 H   0  0  0  0  0  0
  -24.3583  -36.8953   22.2054 H   0  0  0  0  0  0
  -23.7254  -37.6504   23.6677 H   0  0  0  0  0  0
  -26.0656  -31.5730   20.5985 H   0  0  0  0  0  0
  -26.8233  -30.8611   21.9953 H   0  0  0  0  0  0
  -28.1074  -29.0508   21.1696 H   0  0  0  0  0  0
  -26.0321  -25.9584   18.9938 H   0  0  0  0  0  0
  -23.9732  -27.2959   19.0230 H   0  0  0  0  0  0
  -23.7152  -30.5851   19.4015 H   0  0  0  0  0  0
  -22.7364  -29.2321   19.8806 H   0  0  0  0  0  0
  -25.1284  -36.1928   25.0805 H   0  0  0  0  0  0
  -20.9950  -28.3273   24.1443 H   0  0  0  0  0  0
  -20.5750  -26.2289   23.3598 H   0  0  0  0  0  0
  -21.6651  -26.7518   22.1165 H   0  0  0  0  0  0
  -19.6938  -25.6303   21.1256 H   0  0  0  0  0  0
  -19.6703  -27.3197   20.6742 H   0  0  0  0  0  0
  -17.4208  -26.6707   21.4009 H   0  0  0  0  0  0
  -18.0310  -26.0049   22.8992 H   0  0  0  0  0  0
  -19.7924  -30.7252   24.2317 H   0  0  0  0  0  0
  -17.5007  -31.6282   24.5153 H   0  0  0  0  0  0
  -15.5344  -30.2995   23.7648 H   0  0  0  0  0  0
  -15.8664  -28.0812   22.7095 H   0  0  0  0  0  0
  -24.5871  -30.7153   25.7767 H   0  0  0  0  0  0
  -24.8974  -32.2935   26.4899 H   0  0  0  0  0  0
  -25.8052  -30.8892   27.0210 H   0  0  0  0  0  0
  -26.2936  -29.6749   24.1231 H   0  0  0  0  0  0
  -27.4125  -29.7332   25.4661 H   0  0  0  0  0  0
  -27.8771  -30.4317   23.9332 H   0  0  0  0  0  0
  -27.2627  -33.3655   26.2069 H   0  0  0  0  0  0
  -28.3856  -32.6973   25.0324 H   0  0  0  0  0  0
  -28.0732  -31.8510   26.5409 H   0  0  0  0  0  0
  -28.2563  -38.0123   24.7552 H   0  0  0  0  0  0
  -28.1122  -36.2657   24.6205 H   0  0  0  0  0  0
  -27.2310  -37.1354   25.8853 H   0  0  0  0  0  0
  -20.9308  -29.8765   21.6934 H   0  0  0  0  0  0
  -26.0169  -38.2851   24.1417 H   0  0  0  0  0  0
  -31.5130  -17.3890   19.0843 H   0  0  0  0  0  0
  -31.3949  -19.3847   17.6447 H   0  0  0  0  0  0
  -28.6807  -19.1847   21.7915 H   0  0  0  0  0  0
  -30.2691  -24.0617   16.8857 H   0  0  0  0  0  0
  -31.8514  -23.5682   16.2804 H   0  0  0  0  0  0
  -30.9262  -21.6099   15.2314 H   0  0  0  0  0  0
  -29.5778  -22.7251   15.0122 H   0  0  0  0  0  0
  -31.1859  -23.0366   18.8394 H   0  0  0  0  0  0
  -31.9890  -21.7702   17.9103 H   0  0  0  0  0  0
  -29.4054  -20.2884   16.3990 H   0  0  0  0  0  0
  -28.3170  -21.6370   16.6854 H   0  0  0  0  0  0
  -30.5503  -23.4534   21.6348 H   0  0  0  0  0  0
  -29.9184  -21.9168   22.1887 H   0  0  0  0  0  0
  -29.1702  -23.3981   22.7485 H   0  0  0  0  0  0
  -29.7425  -17.1150   22.4044 H   0  0  0  0  0  0
  -31.3395  -16.8870   21.7781 H   0  0  0  0  0  0
  -27.5614  -21.2288   21.2307 H   0  0  0  0  0  0
  -27.5012  -21.6099   19.5531 H   0  0  0  0  0  0
  -29.4747  -25.4780   21.3169 H   0  0  0  0  0  0
  -27.7792  -25.5127   21.7206 H   0  0  0  0  0  0
  -28.9246  -15.3202   21.2149 H   0  0  0  0  0  0
  1 25  1  0  0  0
  1 30  2  0  0  0
  1 87  1  0  0  0
  2  3  1  0  0  0
  2 25  1  0  0  0
  2 90  1  0  0  0
  2 91  1  0  0  0
  3  4  1  0  0  0
  3 92  1  0  0  0
  3 93  1  0  0  0
  4  5  1  0  0  0
  4 94  1  0  0  0
  4 95  1  0  0  0
  5  6  1  0  0  0
  5 26  1  0  0  0
  5 96  1  0  0  0
  6 25  1  0  0  0
  6 97  1  0  0  0
  6 98  1  0  0  0
  7  8  2  0  0  0
  7 26  1  0  0  0
  7 29  1  0  0  0
  8  9  1  0  0  0
  8 22  1  0  0  0
  9 10  1  0  0  0
  9 27  2  0  0  0
 10 11  2  0  0  0
 10 15  1  0  0  0
 11 12  1  0  0  0
 11 99  1  0  0  0
 12 13  2  0  0  0
 12100  1  0  0  0
 13 14  1  0  0  0
 13 31  1  0  0  0
 14 15  2  0  0  0
 14101  1  0  0  0
 15102  1  0  0  0
 16 17  2  0  0  0
 16 21  1  0  0  0
 16 31  1  0  0  0
 17 18  1  0  0  0
 17103  1  0  0  0
 18 19  2  0  0  0
 18104  1  0  0  0
 19 20  1  0  0  0
 19 24  1  0  0  0
 20 21  2  0  0  0
 20105  1  0  0  0
 21 23  1  0  0  0
 22 28  1  0  0  0
 22 32  2  0  0  0
 26 27  1  0  0  0
 28106  1  0  0  0
 28107  1  0  0  0
 29108  1  0  0  0
 29109  1  0  0  0
 33 34  1  0  0  0
 33 66  1  0  0  0
 33 70  2  0  0  0
 34 36  1  0  0  0
 34 59  1  0  0  0
 34110  1  0  0  0
 35 44  2  0  0  0
 35 45  1  0  0  0
 35 68  1  0  0  0
 36 56  1  0  0  0
 36111  1  0  0  0
 37 39  1  0  0  0
 37 47  1  0  0  0
 37 66  1  0  0  0
 37112  1  0  0  0
 38 43  2  0  0  0
 38 46  1  0  0  0
 38 47  1  0  0  0
 39 64  1  0  0  0
 39 67  2  0  0  0
 40 52  1  0  0  0
 40 53  2  0  0  0
 40 58  1  0  0  0
 41113  1  0  0  0
 41114  1  0  0  0
 41115  1  0  0  0
 41 48  1  0  0  0
 42 43  1  0  0  0
 42 66  1  0  0  0
 42116  1  0  0  0
 42117  1  0  0  0
 43 44  1  0  0  0
 44118  1  0  0  0
 45 46  2  0  0  0
 45119  1  0  0  0
 46120  1  0  0  0
 47121  1  0  0  0
 47122  1  0  0  0
 48 56  1  0  0  0
 48 65  1  0  0  0
 48123  1  0  0  0
 49 50  1  0  0  0
 49 53  1  0  0  0
 49 64  1  0  0  0
 49124  1  0  0  0
 50 51  1  0  0  0
 50125  1  0  0  0
 50126  1  0  0  0
 51 52  1  0  0  0
 51127  1  0  0  0
 51128  1  0  0  0
 52129  1  0  0  0
 52130  1  0  0  0
 53 54  1  0  0  0
 54 55  2  0  0  0
 54131  1  0  0  0
 55 57  1  0  0  0
 55132  1  0  0  0
 56 69  2  0  0  0
 57 58  2  0  0  0
 57133  1  0  0  0
 58134  1  0  0  0
 59 60  1  0  0  0
 59 61  1  0  0  0
 59 62  1  0  0  0
 60135  1  0  0  0
 60136  1  0  0  0
 60137  1  0  0  0
 61138  1  0  0  0
 61139  1  0  0  0
 61140  1  0  0  0
 62141  1  0  0  0
 62142  1  0  0  0
 62143  1  0  0  0
 63 65  1  0  0  0
 63144  1  0  0  0
 63145  1  0  0  0
 63146  1  0  0  0
 64147  1  0  0  0
 65148  1  0  0  0
 68 85  1  0  0  0
 71 72  2  0  0  0
 71 74  1  0  0  0
 71149  1  0  0  0
 72 76  1  0  0  0
 72150  1  0  0  0
 73 74  2  0  0  0
 73 75  1  0  0  0
 73151  1  0  0  0
 74 83  1  0  0  0
 75 76  2  0  0  0
 75 84  1  0  0  0
 76 86  1  0  0  0
 77 85  1  0  0  0
 77 88  1  0  0  0
 77 89  2  0  0  0
 78 79  1  0  0  0
 78 80  1  0  0  0
 78152  1  0  0  0
 78153  1  0  0  0
 79 81  1  0  0  0
 79154  1  0  0  0
 79155  1  0  0  0
 80 86  1  0  0  0
 80156  1  0  0  0
 80157  1  0  0  0
 81 86  1  0  0  0
 81158  1  0  0  0
 81159  1  0  0  0
 82 88  1  0  0  0
 82160  1  0  0  0
 82161  1  0  0  0
 82162  1  0  0  0
 83 87  1  0  0  0
 83163  1  0  0  0
 83164  1  0  0  0
 84 88  1  0  0  0
 84165  1  0  0  0
 84166  1  0  0  0
 85167  1  0  0  0
 85168  1  0  0  0
 87169  1  0  0  0
M  ISO  4   1 100  68 101  85 101  87 100
M  END
> <chiral flag>
0

> <version>
0

> <s_m_source_file>
/data/baiqing/PycharmProjects/Reinvent-master-3.2/result/LINK_invent/BTK/process_docking_weight1_custom_product_contain_oxygen_bond_distance_aromatic_linkinvent_7_9_3/rearranged_h_0027.sdf

> <i_m_source_file_index>
26

> <r_mmod_Potential_Energy-OPLS-2005>
55.0706596374512

> <r_mmod_Stretch_Energy-OPLS-2005>
55.2725028991699

> <r_mmod_Bend_Energy-OPLS-2005>
139.746185302734

> <r_mmod_Torsional_Energy-OPLS-2005>
329.156005859375

> <r_mmod_Improper_Torsional_Energy-OPLS-2005>
9.40538311004639

> <r_mmod_Van_der_Waal_Energy-OPLS-2005>
138.071136474609

> <r_mmod_Electrostatic_Energy-OPLS-2005>
-400.4404296875

> <r_mmod_Solvation_Energy-OPLS-2005>
-239.865081787109

> <b_mmod_Minimization_Converged-OPLS-2005>
0

> <r_mmod_RMS_Derivative-OPLS-2005>
1.8319091796875

$$$$
27
                    3D
 Structure written by MMmdl.
155164  0  0  1  0            999 V2000
  -30.6879  -14.6197   20.5024 C   0  0  0  0  0  0
  -30.4192  -12.3870   19.4527 C   0  0  0  0  0  0
  -29.4945  -12.4861   18.2224 C   0  0  0  0  0  0
  -28.0216  -12.3318   18.6425 C   0  0  0  0  0  0
  -27.6463  -13.2255   19.8554 C   0  0  2  0  0  0
  -28.6945  -13.1242   20.9859 C   0  0  0  0  0  0
  -25.2539  -13.8199   20.5725 C   0  0  0  0  0  0
  -24.1817  -13.0437   20.9199 C   0  0  0  0  0  0
  -24.6396  -11.6911   20.8747 C   0  0  0  0  0  0
  -23.9073  -10.4288   21.0415 C   0  0  0  0  0  0
  -24.3615   -9.4208   21.9197 C   0  0  0  0  0  0
  -23.6295   -8.2243   22.0758 C   0  0  0  0  0  0
  -22.4288   -8.0277   21.3536 C   0  0  0  0  0  0
  -21.9918   -9.0251   20.4646 C   0  0  0  0  0  0
  -22.7243  -10.2134   20.3066 C   0  0  0  0  0  0
  -21.6853   -6.0744   22.5283 C   0  0  0  0  0  0
  -21.4015   -6.5647   23.8212 C   0  0  0  0  0  0
  -21.3652   -5.6800   24.9170 C   0  0  0  0  0  0
  -21.6035   -4.3066   24.7222 C   0  0  0  0  0  0
  -21.8818   -3.8154   23.4346 C   0  0  0  0  0  0
  -21.9193   -4.6973   22.3408 C   0  0  0  0  0  0
  -22.7837  -13.5222   21.1849 C   0  0  0  0  0  0
  -22.1657   -4.2160   21.0989 F   0  0  0  0  0  0
  -21.5623   -3.4552   25.7732 F   0  0  0  0  0  0
  -30.0054  -13.4379   20.4038 N   0  0  0  0  0  0
  -26.2968  -12.9402   20.3335 N   0  0  0  0  0  0
  -25.9333  -11.6541   20.5787 N   0  0  0  0  0  0
  -22.0487  -12.8203   22.0410 N   0  0  0  0  0  0
  -25.4250  -15.1924   20.4156 N   0  0  0  0  0  0
  -31.8652  -14.6955   20.1464 O   0  0  0  0  0  0
  -21.6638   -6.8882   21.4241 O   0  0  0  0  0  0
  -22.3515  -14.5536   20.6705 O   0  0  0  0  0  0
  -24.6287  -31.8615   23.2050 C   0  0  0  0  0  0
  -25.9133  -32.4782   23.8379 C   0  0  1  0  0  0
  -27.2081  -27.3086   20.1091 C   0  0  0  0  0  0
  -25.5937  -33.8586   24.2301 N   0  0  0  0  0  0
  -23.4203  -30.4898   21.5482 C   0  0  2  0  0  0
  -24.8641  -28.9536   20.1106 C   0  0  0  0  0  0
  -22.7480  -29.4640   22.4932 C   0  0  0  0  0  0
  -18.0283  -28.1374   22.8489 C   0  0  0  0  0  0
  -24.1486  -36.7277   23.2631 C   0  0  0  0  0  0
  -25.9670  -30.7853   21.3836 C   0  0  0  0  0  0
  -26.0361  -29.4165   20.7201 C   0  0  0  0  0  0
  -27.2119  -28.6060   20.7127 C   0  0  0  0  0  0
  -26.0083  -26.9132   19.4696 C   0  0  0  0  0  0
  -24.8531  -27.7059   19.4782 C   0  0  0  0  0  0
  -23.6353  -29.8344   20.1613 C   0  0  0  0  0  0
  -25.4101  -36.3077   24.0337 C   0  0  1  0  0  0
  -20.5885  -28.3685   23.1263 C   0  0  2  0  0  0
  -20.6774  -26.9410   22.5399 C   0  0  0  0  0  0
  -19.5754  -26.6375   21.5200 C   0  0  0  0  0  0
  -18.1927  -26.7919   22.1613 C   0  0  0  0  0  0
  -19.1540  -28.8847   23.2875 C   0  0  0  0  0  0
  -18.9464  -30.1444   23.8896 C   0  0  0  0  0  0
  -17.6469  -30.6590   24.0572 C   0  0  0  0  0  0
  -25.9047  -34.9455   23.5113 C   0  0  0  0  0  0
  -16.5361  -29.9089   23.6338 C   0  0  0  0  0  0
  -16.7270  -28.6502   23.0369 C   0  0  0  0  0  0
  -26.4496  -31.6589   25.0758 C   0  0  0  0  0  0
  -25.3719  -31.3744   26.1487 C   0  0  0  0  0  0
  -27.0333  -30.3001   24.6230 C   0  0  0  0  0  0
  -27.6078  -32.4315   25.7488 C   0  0  0  0  0  0
  -27.5591  -37.1767   24.8454 C   0  0  0  0  0  0
  -21.4200  -29.3057   22.3678 N   0  0  0  0  0  0
  -26.4263  -37.3793   23.9452 N   0  0  0  0  0  0
  -24.6909  -31.0620   22.1014 N   0  0  0  0  0  0
  -23.4205  -28.8158   23.3001 O   0  0  0  0  0  0
  -28.3086  -26.4327   20.1722 O   0  0  0  0  0  0
  -26.5623  -34.8930   22.4684 O   0  0  0  0  0  0
  -23.5444  -32.1399   23.7363 O   0  0  0  0  0  0
  -29.8443  -19.4978   21.7191 C   0  0  0  0  0  0
  -29.4714  -20.8366   21.3878 C   0  0  0  0  0  0
  -29.3315  -20.1869   19.0824 C   0  0  0  0  0  0
  -29.9814  -18.4699   20.7446 C   0  0  0  0  0  0
  -29.2090  -21.2377   20.0498 C   0  0  0  0  0  0
  -29.7061  -18.8521   19.4100 C   0  0  0  0  0  0
  -28.4051  -23.0792   18.5031 C   0  0  0  0  0  0
  -28.2027  -24.5904   18.4648 C   0  0  0  0  0  0
  -28.9368  -23.8348   20.6019 C   0  0  0  0  0  0
  -28.0764  -24.9798   19.9361 C   0  0  1  0  0  0
  -30.6350  -17.0907   21.1211 C   0  0  0  0  0  0
  -28.8594  -22.6372   19.7013 N   0  0  0  0  0  0
  -30.0031  -15.7519   20.8520 N   0  0  0  0  0  0
  -28.1346  -22.3977   17.5104 O   0  0  0  0  0  0
  -29.8545  -17.9470   18.4141 F   0  0  0  0  0  0
  -31.4627  -12.4824   19.1488 H   0  0  0  0  0  0
  -30.3373  -11.4044   19.9201 H   0  0  0  0  0  0
  -29.7555  -11.7156   17.4953 H   0  0  0  0  0  0
  -29.6374  -13.4448   17.7216 H   0  0  0  0  0  0
  -27.8672  -11.2828   18.8995 H   0  0  0  0  0  0
  -27.3621  -12.5385   17.7981 H   0  0  0  0  0  0
  -27.6534  -14.2525   19.4898 H   0  0  0  0  0  0
  -28.7065  -12.1239   21.4190 H   0  0  0  0  0  0
  -28.4500  -13.8050   21.8017 H   0  0  0  0  0  0
  -25.2763   -9.5679   22.4763 H   0  0  0  0  0  0
  -24.0000   -7.4635   22.7483 H   0  0  0  0  0  0
  -21.0849   -8.8760   19.8954 H   0  0  0  0  0  0
  -22.3708  -10.9661   19.6164 H   0  0  0  0  0  0
  -21.2010   -7.6148   23.9712 H   0  0  0  0  0  0
  -21.1472   -6.0537   25.9068 H   0  0  0  0  0  0
  -22.0608   -2.7616   23.2848 H   0  0  0  0  0  0
  -22.4119  -11.9859   22.4781 H   0  0  0  0  0  0
  -21.1098  -13.1209   22.2623 H   0  0  0  0  0  0
  -24.6600  -15.8487   20.5268 H   0  0  0  0  0  0
  -26.2790  -15.6312   20.0931 H   0  0  0  0  0  0
  -26.7204  -32.5436   23.1122 H   0  0  0  0  0  0
  -25.0145  -33.9743   25.0486 H   0  0  0  0  0  0
  -22.7154  -31.3114   21.4056 H   0  0  0  0  0  0
  -23.3787  -35.9569   23.3231 H   0  0  0  0  0  0
  -24.3589  -36.8951   22.2057 H   0  0  0  0  0  0
  -23.7176  -37.6432   23.6695 H   0  0  0  0  0  0
  -26.1111  -31.5490   20.6185 H   0  0  0  0  0  0
  -26.8455  -30.8228   22.0163 H   0  0  0  0  0  0
  -28.1075  -28.9519   21.2092 H   0  0  0  0  0  0
  -25.9082  -25.9685   18.9631 H   0  0  0  0  0  0
  -23.9553  -27.3434   18.9970 H   0  0  0  0  0  0
  -23.7586  -30.6148   19.4095 H   0  0  0  0  0  0
  -22.7545  -29.2667   19.8543 H   0  0  0  0  0  0
  -25.1252  -36.1914   25.0817 H   0  0  0  0  0  0
  -20.9950  -28.3248   24.1392 H   0  0  0  0  0  0
  -20.5655  -26.2306   23.3604 H   0  0  0  0  0  0
  -21.6647  -26.7430   22.1190 H   0  0  0  0  0  0
  -19.6932  -25.6287   21.1230 H   0  0  0  0  0  0
  -19.6680  -27.3188   20.6738 H   0  0  0  0  0  0
  -17.4186  -26.6690   21.4020 H   0  0  0  0  0  0
  -18.0331  -26.0038   22.8979 H   0  0  0  0  0  0
  -19.7935  -30.7278   24.2262 H   0  0  0  0  0  0
  -17.5021  -31.6269   24.5178 H   0  0  0  0  0  0
  -15.5366  -30.3018   23.7658 H   0  0  0  0  0  0
  -15.8654  -28.0831   22.7101 H   0  0  0  0  0  0
  -24.5941  -30.7011   25.7853 H   0  0  0  0  0  0
  -24.8856  -32.2915   26.4839 H   0  0  0  0  0  0
  -25.8051  -30.9011   27.0310 H   0  0  0  0  0  0
  -26.2918  -29.6749   24.1249 H   0  0  0  0  0  0
  -27.4007  -29.7253   25.4739 H   0  0  0  0  0  0
  -27.8799  -30.4258   23.9479 H   0  0  0  0  0  0
  -27.2738  -33.3674   26.1980 H   0  0  0  0  0  0
  -28.3931  -32.6764   25.0320 H   0  0  0  0  0  0
  -28.0706  -31.8484   26.5459 H   0  0  0  0  0  0
  -28.2528  -38.0151   24.7624 H   0  0  0  0  0  0
  -28.1175  -36.2689   24.6099 H   0  0  0  0  0  0
  -27.2356  -37.1170   25.8867 H   0  0  0  0  0  0
  -20.9379  -29.8816   21.6911 H   0  0  0  0  0  0
  -26.0138  -38.2850   24.1533 H   0  0  0  0  0  0
  -30.0759  -19.2720   22.7502 H   0  0  0  0  0  0
  -29.4135  -21.5641   22.1859 H   0  0  0  0  0  0
  -29.1840  -20.3731   18.0316 H   0  0  0  0  0  0
  -27.3388  -24.8551   17.8587 H   0  0  0  0  0  0
  -29.0839  -25.0458   18.0152 H   0  0  0  0  0  0
  -28.5650  -23.6064   21.6000 H   0  0  0  0  0  0
  -29.9797  -24.1393   20.6954 H   0  0  0  0  0  0
  -27.0687  -24.7387   20.2754 H   0  0  0  0  0  0
  -30.8617  -17.1086   22.1884 H   0  0  0  0  0  0
  -31.6130  -17.1189   20.6372 H   0  0  0  0  0  0
  -29.0236  -15.6499   21.0720 H   0  0  0  0  0  0
  1 25  1  0  0  0
  1 30  2  0  0  0
  1 83  1  0  0  0
  2  3  1  0  0  0
  2 25  1  0  0  0
  2 86  1  0  0  0
  2 87  1  0  0  0
  3  4  1  0  0  0
  3 88  1  0  0  0
  3 89  1  0  0  0
  4  5  1  0  0  0
  4 90  1  0  0  0
  4 91  1  0  0  0
  5  6  1  0  0  0
  5 26  1  0  0  0
  5 92  1  0  0  0
  6 25  1  0  0  0
  6 93  1  0  0  0
  6 94  1  0  0  0
  7  8  2  0  0  0
  7 26  1  0  0  0
  7 29  1  0  0  0
  8  9  1  0  0  0
  8 22  1  0  0  0
  9 10  1  0  0  0
  9 27  2  0  0  0
 10 11  2  0  0  0
 10 15  1  0  0  0
 11 12  1  0  0  0
 11 95  1  0  0  0
 12 13  2  0  0  0
 12 96  1  0  0  0
 13 14  1  0  0  0
 13 31  1  0  0  0
 14 15  2  0  0  0
 14 97  1  0  0  0
 15 98  1  0  0  0
 16 17  2  0  0  0
 16 21  1  0  0  0
 16 31  1  0  0  0
 17 18  1  0  0  0
 17 99  1  0  0  0
 18 19  2  0  0  0
 18100  1  0  0  0
 19 20  1  0  0  0
 19 24  1  0  0  0
 20 21  2  0  0  0
 20101  1  0  0  0
 21 23  1  0  0  0
 22 28  1  0  0  0
 22 32  2  0  0  0
 26 27  1  0  0  0
 28102  1  0  0  0
 28103  1  0  0  0
 29104  1  0  0  0
 29105  1  0  0  0
 33 34  1  0  0  0
 33 66  1  0  0  0
 33 70  2  0  0  0
 34 36  1  0  0  0
 34 59  1  0  0  0
 34106  1  0  0  0
 35 44  2  0  0  0
 35 45  1  0  0  0
 35 68  1  0  0  0
 36 56  1  0  0  0
 36107  1  0  0  0
 37 39  1  0  0  0
 37 47  1  0  0  0
 37 66  1  0  0  0
 37108  1  0  0  0
 38 43  2  0  0  0
 38 46  1  0  0  0
 38 47  1  0  0  0
 39 64  1  0  0  0
 39 67  2  0  0  0
 40 52  1  0  0  0
 40 53  2  0  0  0
 40 58  1  0  0  0
 41109  1  0  0  0
 41110  1  0  0  0
 41111  1  0  0  0
 41 48  1  0  0  0
 42 43  1  0  0  0
 42 66  1  0  0  0
 42112  1  0  0  0
 42113  1  0  0  0
 43 44  1  0  0  0
 44114  1  0  0  0
 45 46  2  0  0  0
 45115  1  0  0  0
 46116  1  0  0  0
 47117  1  0  0  0
 47118  1  0  0  0
 48 56  1  0  0  0
 48 65  1  0  0  0
 48119  1  0  0  0
 49 50  1  0  0  0
 49 53  1  0  0  0
 49 64  1  0  0  0
 49120  1  0  0  0
 50 51  1  0  0  0
 50121  1  0  0  0
 50122  1  0  0  0
 51 52  1  0  0  0
 51123  1  0  0  0
 51124  1  0  0  0
 52125  1  0  0  0
 52126  1  0  0  0
 53 54  1  0  0  0
 54 55  2  0  0  0
 54127  1  0  0  0
 55 57  1  0  0  0
 55128  1  0  0  0
 56 69  2  0  0  0
 57 58  2  0  0  0
 57129  1  0  0  0
 58130  1  0  0  0
 59 60  1  0  0  0
 59 61  1  0  0  0
 59 62  1  0  0  0
 60131  1  0  0  0
 60132  1  0  0  0
 60133  1  0  0  0
 61134  1  0  0  0
 61135  1  0  0  0
 61136  1  0  0  0
 62137  1  0  0  0
 62138  1  0  0  0
 62139  1  0  0  0
 63 65  1  0  0  0
 63140  1  0  0  0
 63141  1  0  0  0
 63142  1  0  0  0
 64143  1  0  0  0
 65144  1  0  0  0
 68 80  1  0  0  0
 71 72  2  0  0  0
 71 74  1  0  0  0
 71145  1  0  0  0
 72 75  1  0  0  0
 72146  1  0  0  0
 73 75  2  0  0  0
 73 76  1  0  0  0
 73147  1  0  0  0
 74 76  2  0  0  0
 74 81  1  0  0  0
 75 82  1  0  0  0
 76 85  1  0  0  0
 77 78  1  0  0  0
 77 82  1  0  0  0
 77 84  2  0  0  0
 78 80  1  0  0  0
 78148  1  0  0  0
 78149  1  0  0  0
 79 80  1  0  0  0
 79 82  1  0  0  0
 79150  1  0  0  0
 79151  1  0  0  0
 80152  1  0  0  0
 81 83  1  0  0  0
 81153  1  0  0  0
 81154  1  0  0  0
 83155  1  0  0  0
M  ISO  4   1 100  68 101  80 101  83 100
M  END
> <chiral flag>
0

> <version>
0

> <s_m_source_file>
/data/baiqing/PycharmProjects/Reinvent-master-3.2/result/LINK_invent/BTK/process_docking_weight1_custom_product_contain_oxygen_bond_distance_aromatic_linkinvent_7_9_3/rearranged_h_0027.sdf

> <i_m_source_file_index>
27

> <r_mmod_Potential_Energy-OPLS-2005>
108.334007263184

> <r_mmod_Stretch_Energy-OPLS-2005>
82.4756622314453

> <r_mmod_Bend_Energy-OPLS-2005>
178.771774291992

> <r_mmod_Torsional_Energy-OPLS-2005>
240.456970214844

> <r_mmod_Improper_Torsional_Energy-OPLS-2005>
4.7041654586792

> <r_mmod_Van_der_Waal_Energy-OPLS-2005>
157.123474121094

> <r_mmod_Electrostatic_Energy-OPLS-2005>
-386.172119140625

> <r_mmod_Solvation_Energy-OPLS-2005>
-222.087478637695

> <b_mmod_Minimization_Converged-OPLS-2005>
0

> <r_mmod_RMS_Derivative-OPLS-2005>
2.5194456577301

$$$$
28
                    3D
 Structure written by MMmdl.
166175  0  0  1  0            999 V2000
  -30.7011  -14.5607   20.3856 C   0  0  0  0  0  0
  -30.4276  -12.3121   19.4365 C   0  0  0  0  0  0
  -29.4913  -12.3791   18.2099 C   0  0  0  0  0  0
  -28.0096  -12.3114   18.6287 C   0  0  0  0  0  0
  -27.6520  -13.2177   19.8400 C   0  0  2  0  0  0
  -28.7098  -13.1236   20.9625 C   0  0  0  0  0  0
  -25.2599  -13.8198   20.5716 C   0  0  0  0  0  0
  -24.1856  -13.0466   20.9211 C   0  0  0  0  0  0
  -24.6422  -11.6932   20.8770 C   0  0  0  0  0  0
  -23.9076  -10.4310   21.0422 C   0  0  0  0  0  0
  -24.3627   -9.4214   21.9192 C   0  0  0  0  0  0
  -23.6309   -8.2243   22.0749 C   0  0  0  0  0  0
  -22.4290   -8.0287   21.3534 C   0  0  0  0  0  0
  -21.9924   -9.0267   20.4647 C   0  0  0  0  0  0
  -22.7250  -10.2152   20.3060 C   0  0  0  0  0  0
  -21.6865   -6.0744   22.5281 C   0  0  0  0  0  0
  -21.4018   -6.5640   23.8217 C   0  0  0  0  0  0
  -21.3659   -5.6788   24.9175 C   0  0  0  0  0  0
  -21.6049   -4.3055   24.7221 C   0  0  0  0  0  0
  -21.8816   -3.8149   23.4343 C   0  0  0  0  0  0
  -21.9195   -4.6970   22.3403 C   0  0  0  0  0  0
  -22.7869  -13.5261   21.1842 C   0  0  0  0  0  0
  -22.1667   -4.2154   21.0983 F   0  0  0  0  0  0
  -21.5627   -3.4536   25.7734 F   0  0  0  0  0  0
  -30.0225  -13.3816   20.3592 N   0  0  0  0  0  0
  -26.3027  -12.9392   20.3313 N   0  0  0  0  0  0
  -25.9351  -11.6548   20.5810 N   0  0  0  0  0  0
  -22.0487  -12.8262   22.0394 N   0  0  0  0  0  0
  -25.4309  -15.1928   20.4147 N   0  0  0  0  0  0
  -31.9323  -14.6049   20.3333 O   0  0  0  0  0  0
  -21.6641   -6.8889   21.4243 O   0  0  0  0  0  0
  -22.3553  -14.5557   20.6685 O   0  0  0  0  0  0
  -24.6208  -31.8671   23.2086 C   0  0  0  0  0  0
  -25.9078  -32.4815   23.8388 C   0  0  1  0  0  0
  -27.2224  -27.3793   20.1057 C   0  0  0  0  0  0
  -25.5938  -33.8613   24.2320 N   0  0  0  0  0  0
  -23.4084  -30.4954   21.5497 C   0  0  2  0  0  0
  -24.8515  -28.9590   20.1141 C   0  0  0  0  0  0
  -22.7434  -29.4676   22.4952 C   0  0  0  0  0  0
  -18.0294  -28.1409   22.8484 C   0  0  0  0  0  0
  -24.1487  -36.7303   23.2639 C   0  0  0  0  0  0
  -25.9438  -30.8172   21.3679 C   0  0  0  0  0  0
  -26.0150  -29.4462   20.7176 C   0  0  0  0  0  0
  -27.2001  -28.6645   20.7105 C   0  0  0  0  0  0
  -26.0332  -26.9360   19.4731 C   0  0  0  0  0  0
  -24.8584  -27.7055   19.4887 C   0  0  0  0  0  0
  -23.6182  -29.8346   20.1629 C   0  0  0  0  0  0
  -25.4113  -36.3104   24.0341 C   0  0  1  0  0  0
  -20.5887  -28.3715   23.1298 C   0  0  2  0  0  0
  -20.6791  -26.9445   22.5411 C   0  0  0  0  0  0
  -19.5761  -26.6413   21.5221 C   0  0  0  0  0  0
  -18.1944  -26.7950   22.1629 C   0  0  0  0  0  0
  -19.1540  -28.8872   23.2897 C   0  0  0  0  0  0
  -18.9456  -30.1478   23.8922 C   0  0  0  0  0  0
  -17.6454  -30.6608   24.0581 C   0  0  0  0  0  0
  -25.9043  -34.9467   23.5119 C   0  0  0  0  0  0
  -16.5347  -29.9114   23.6342 C   0  0  0  0  0  0
  -16.7281  -28.6534   23.0351 C   0  0  0  0  0  0
  -26.4503  -31.6588   25.0711 C   0  0  0  0  0  0
  -25.3752  -31.3701   26.1445 C   0  0  0  0  0  0
  -27.0322  -30.3022   24.6091 C   0  0  0  0  0  0
  -27.6076  -32.4301   25.7480 C   0  0  0  0  0  0
  -27.5586  -37.1827   24.8476 C   0  0  0  0  0  0
  -21.4157  -29.3071   22.3683 N   0  0  0  0  0  0
  -26.4297  -37.3793   23.9412 N   0  0  0  0  0  0
  -24.6759  -31.0747   22.1000 N   0  0  0  0  0  0
  -23.4194  -28.8224   23.3012 O   0  0  0  0  0  0
  -28.3883  -26.6165   20.1457 O   0  0  0  0  0  0
  -26.5592  -34.8936   22.4670 O   0  0  0  0  0  0
  -23.5389  -32.1438   23.7474 O   0  0  0  0  0  0
  -28.4504  -19.0004   20.0226 C   0  0  0  0  0  0
  -28.9278  -17.7719   19.5228 C   0  0  0  0  0  0
  -29.1549  -18.3409   22.2414 C   0  0  0  0  0  0
  -28.5405  -19.2986   21.3949 C   0  0  0  0  0  0
  -29.5422  -16.7936   20.3555 C   0  0  0  0  0  0
  -29.6438  -17.1050   21.7406 C   0  0  0  0  0  0
  -28.7877  -23.8713   23.5618 C   0  0  0  0  0  0
  -28.3244  -24.8079   22.4416 C   0  0  0  0  0  0
  -28.1932  -22.4672   23.3793 C   0  0  0  0  0  0
  -28.2586  -22.7696   20.9109 C   0  0  0  0  0  0
  -28.7778  -24.2487   21.0852 C   0  0  1  0  0  0
  -30.3947  -15.6887   18.3109 C   0  0  0  0  0  0
  -27.7971  -20.5229   21.9613 C   0  0  0  0  0  0
  -28.3545  -25.1782   19.8976 C   0  0  0  0  0  0
  -30.0424  -15.5716   19.7456 N   0  0  0  0  0  0
  -28.5218  -21.8367   22.0662 N   0  3  2  0  0  0
  -30.2001  -16.2276   22.6093 F   0  0  0  0  0  0
  -31.4695  -12.4069   19.1231 H   0  0  0  0  0  0
  -30.3443  -11.3420   19.9297 H   0  0  0  0  0  0
  -29.7161  -11.5494   17.5376 H   0  0  0  0  0  0
  -29.6628  -13.2738   17.6199 H   0  0  0  0  0  0
  -27.8033  -11.2709   18.8771 H   0  0  0  0  0  0
  -27.3675  -12.5469   17.7784 H   0  0  0  0  0  0
  -27.6533  -14.2411   19.4636 H   0  0  0  0  0  0
  -28.6975  -12.1384   21.4326 H   0  0  0  0  0  0
  -28.4990  -13.8508   21.7474 H   0  0  0  0  0  0
  -25.2776   -9.5701   22.4757 H   0  0  0  0  0  0
  -24.0026   -7.4642   22.7472 H   0  0  0  0  0  0
  -21.0846   -8.8798   19.8965 H   0  0  0  0  0  0
  -22.3719  -10.9689   19.6162 H   0  0  0  0  0  0
  -21.2000   -7.6146   23.9728 H   0  0  0  0  0  0
  -21.1490   -6.0511   25.9085 H   0  0  0  0  0  0
  -22.0593   -2.7611   23.2837 H   0  0  0  0  0  0
  -22.4095  -11.9946   22.4831 H   0  0  0  0  0  0
  -21.1089  -13.1281   22.2531 H   0  0  0  0  0  0
  -24.6642  -15.8453   20.5282 H   0  0  0  0  0  0
  -26.2877  -15.6373   20.1097 H   0  0  0  0  0  0
  -26.7147  -32.5526   23.1148 H   0  0  0  0  0  0
  -25.0087  -33.9758   25.0472 H   0  0  0  0  0  0
  -22.6992  -31.3153   21.4143 H   0  0  0  0  0  0
  -23.3742  -35.9648   23.3320 H   0  0  0  0  0  0
  -24.3567  -36.8893   22.2049 H   0  0  0  0  0  0
  -23.7256  -37.6528   23.6625 H   0  0  0  0  0  0
  -26.0573  -31.5790   20.5959 H   0  0  0  0  0  0
  -26.8308  -30.8723   21.9863 H   0  0  0  0  0  0
  -28.0938  -29.0389   21.1886 H   0  0  0  0  0  0
  -25.9606  -26.0067   18.9350 H   0  0  0  0  0  0
  -23.9680  -27.3282   19.0051 H   0  0  0  0  0  0
  -23.7382  -30.6137   19.4095 H   0  0  0  0  0  0
  -22.7370  -29.2657   19.8580 H   0  0  0  0  0  0
  -25.1300  -36.1965   25.0841 H   0  0  0  0  0  0
  -20.9999  -28.3294   24.1411 H   0  0  0  0  0  0
  -20.5726  -26.2324   23.3602 H   0  0  0  0  0  0
  -21.6662  -26.7506   22.1194 H   0  0  0  0  0  0
  -19.6911  -25.6324   21.1252 H   0  0  0  0  0  0
  -19.6699  -27.3225   20.6747 H   0  0  0  0  0  0
  -17.4219  -26.6717   21.4023 H   0  0  0  0  0  0
  -18.0341  -26.0092   22.9019 H   0  0  0  0  0  0
  -19.7927  -30.7307   24.2286 H   0  0  0  0  0  0
  -17.5010  -31.6284   24.5188 H   0  0  0  0  0  0
  -15.5356  -30.3030   23.7648 H   0  0  0  0  0  0
  -15.8680  -28.0879   22.7036 H   0  0  0  0  0  0
  -24.5936  -30.7040   25.7779 H   0  0  0  0  0  0
  -24.8925  -32.2847   26.4888 H   0  0  0  0  0  0
  -25.8097  -30.8872   27.0200 H   0  0  0  0  0  0
  -26.2849  -29.6786   24.1158 H   0  0  0  0  0  0
  -27.4091  -29.7280   25.4568 H   0  0  0  0  0  0
  -27.8704  -30.4342   23.9238 H   0  0  0  0  0  0
  -27.2703  -33.3594   26.2088 H   0  0  0  0  0  0
  -28.3877  -32.6870   25.0295 H   0  0  0  0  0  0
  -28.0744  -31.8382   26.5368 H   0  0  0  0  0  0
  -28.2643  -38.0093   24.7503 H   0  0  0  0  0  0
  -28.1042  -36.2626   24.6320 H   0  0  0  0  0  0
  -27.2288  -37.1513   25.8878 H   0  0  0  0  0  0
  -20.9301  -29.8758   21.6881 H   0  0  0  0  0  0
  -26.0176  -38.2875   24.1391 H   0  0  0  0  0  0
  -27.9596  -19.6879   19.3460 H   0  0  0  0  0  0
  -28.7901  -17.6033   18.4655 H   0  0  0  0  0  0
  -29.2220  -18.5257   23.3047 H   0  0  0  0  0  0
  -28.4774  -24.2728   24.5276 H   0  0  0  0  0  0
  -29.8768  -23.8219   23.5937 H   0  0  0  0  0  0
  -28.7514  -25.7991   22.6004 H   0  0  0  0  0  0
  -27.2405  -24.9286   22.4687 H   0  0  0  0  0  0
  -27.1087  -22.5329   23.4796 H   0  0  0  0  0  0
  -28.5394  -21.8262   24.1923 H   0  0  0  0  0  0
  -28.6864  -22.3353   20.0056 H   0  0  0  0  0  0
  -27.1809  -22.8097   20.7454 H   0  0  0  0  0  0
  -29.8689  -24.2257   21.1011 H   0  0  0  0  0  0
  -29.5036  -15.6115   17.6870 H   0  0  0  0  0  0
  -31.0939  -14.9273   17.9568 H   0  0  0  0  0  0
  -30.8843  -16.6396   18.0984 H   0  0  0  0  0  0
  -27.4481  -20.2105   22.9474 H   0  0  0  0  0  0
  -26.8716  -20.6593   21.3995 H   0  0  0  0  0  0
  -27.4002  -24.8056   19.5479 H   0  0  0  0  0  0
  -29.0327  -24.9895   19.0638 H   0  0  0  0  0  0
  -29.5085  -21.6262   22.0818 H   0  0  0  0  0  0
  1 25  1  0  0  0
  1 30  2  0  0  0
  1 85  1  0  0  0
  2  3  1  0  0  0
  2 25  1  0  0  0
  2 88  1  0  0  0
  2 89  1  0  0  0
  3  4  1  0  0  0
  3 90  1  0  0  0
  3 91  1  0  0  0
  4  5  1  0  0  0
  4 92  1  0  0  0
  4 93  1  0  0  0
  5  6  1  0  0  0
  5 26  1  0  0  0
  5 94  1  0  0  0
  6 25  1  0  0  0
  6 95  1  0  0  0
  6 96  1  0  0  0
  7  8  2  0  0  0
  7 26  1  0  0  0
  7 29  1  0  0  0
  8  9  1  0  0  0
  8 22  1  0  0  0
  9 10  1  0  0  0
  9 27  2  0  0  0
 10 11  2  0  0  0
 10 15  1  0  0  0
 11 12  1  0  0  0
 11 97  1  0  0  0
 12 13  2  0  0  0
 12 98  1  0  0  0
 13 14  1  0  0  0
 13 31  1  0  0  0
 14 15  2  0  0  0
 14 99  1  0  0  0
 15100  1  0  0  0
 16 17  2  0  0  0
 16 21  1  0  0  0
 16 31  1  0  0  0
 17 18  1  0  0  0
 17101  1  0  0  0
 18 19  2  0  0  0
 18102  1  0  0  0
 19 20  1  0  0  0
 19 24  1  0  0  0
 20 21  2  0  0  0
 20103  1  0  0  0
 21 23  1  0  0  0
 22 28  1  0  0  0
 22 32  2  0  0  0
 26 27  1  0  0  0
 28104  1  0  0  0
 28105  1  0  0  0
 29106  1  0  0  0
 29107  1  0  0  0
 33 34  1  0  0  0
 33 66  1  0  0  0
 33 70  2  0  0  0
 34 36  1  0  0  0
 34 59  1  0  0  0
 34108  1  0  0  0
 35 44  2  0  0  0
 35 45  1  0  0  0
 35 68  1  0  0  0
 36 56  1  0  0  0
 36109  1  0  0  0
 37 39  1  0  0  0
 37 47  1  0  0  0
 37 66  1  0  0  0
 37110  1  0  0  0
 38 43  2  0  0  0
 38 46  1  0  0  0
 38 47  1  0  0  0
 39 64  1  0  0  0
 39 67  2  0  0  0
 40 52  1  0  0  0
 40 53  2  0  0  0
 40 58  1  0  0  0
 41111  1  0  0  0
 41112  1  0  0  0
 41113  1  0  0  0
 41 48  1  0  0  0
 42 43  1  0  0  0
 42 66  1  0  0  0
 42114  1  0  0  0
 42115  1  0  0  0
 43 44  1  0  0  0
 44116  1  0  0  0
 45 46  2  0  0  0
 45117  1  0  0  0
 46118  1  0  0  0
 47119  1  0  0  0
 47120  1  0  0  0
 48 56  1  0  0  0
 48 65  1  0  0  0
 48121  1  0  0  0
 49 50  1  0  0  0
 49 53  1  0  0  0
 49 64  1  0  0  0
 49122  1  0  0  0
 50 51  1  0  0  0
 50123  1  0  0  0
 50124  1  0  0  0
 51 52  1  0  0  0
 51125  1  0  0  0
 51126  1  0  0  0
 52127  1  0  0  0
 52128  1  0  0  0
 53 54  1  0  0  0
 54 55  2  0  0  0
 54129  1  0  0  0
 55 57  1  0  0  0
 55130  1  0  0  0
 56 69  2  0  0  0
 57 58  2  0  0  0
 57131  1  0  0  0
 58132  1  0  0  0
 59 60  1  0  0  0
 59 61  1  0  0  0
 59 62  1  0  0  0
 60133  1  0  0  0
 60134  1  0  0  0
 60135  1  0  0  0
 61136  1  0  0  0
 61137  1  0  0  0
 61138  1  0  0  0
 62139  1  0  0  0
 62140  1  0  0  0
 62141  1  0  0  0
 63 65  1  0  0  0
 63142  1  0  0  0
 63143  1  0  0  0
 63144  1  0  0  0
 64145  1  0  0  0
 65146  1  0  0  0
 68 84  1  0  0  0
 71 72  2  0  0  0
 71 74  1  0  0  0
 71147  1  0  0  0
 72 75  1  0  0  0
 72148  1  0  0  0
 73 74  2  0  0  0
 73 76  1  0  0  0
 73149  1  0  0  0
 74 83  1  0  0  0
 75 76  2  0  0  0
 75 85  1  0  0  0
 76 87  1  0  0  0
 77 78  1  0  0  0
 77 79  1  0  0  0
 77150  1  0  0  0
 77151  1  0  0  0
 78 81  1  0  0  0
 78152  1  0  0  0
 78153  1  0  0  0
 79 86  1  0  0  0
 79154  1  0  0  0
 79155  1  0  0  0
 80 81  1  0  0  0
 80 86  1  0  0  0
 80156  1  0  0  0
 80157  1  0  0  0
 81 84  1  0  0  0
 81158  1  0  0  0
 82 85  1  0  0  0
 82159  1  0  0  0
 82160  1  0  0  0
 82161  1  0  0  0
 83162  1  0  0  0
 83163  1  0  0  0
 83 86  1  0  0  0
 84164  1  0  0  0
 84165  1  0  0  0
 86166  1  0  0  0
M  CHG  1  86   1
M  ISO  4   1 100  68 101  84 101  85 100
M  END
> <chiral flag>
0

> <version>
0

> <s_m_source_file>
/data/baiqing/PycharmProjects/Reinvent-master-3.2/result/LINK_invent/BTK/process_docking_weight1_custom_product_contain_oxygen_bond_distance_aromatic_linkinvent_7_9_3/rearranged_h_0027.sdf

> <i_m_source_file_index>
28

> <r_mmod_Potential_Energy-OPLS-2005>
116.465713500977

> <r_mmod_Stretch_Energy-OPLS-2005>
57.0319709777832

> <r_mmod_Bend_Energy-OPLS-2005>
134.903915405273

> <r_mmod_Torsional_Energy-OPLS-2005>
330.393157958984

> <r_mmod_Improper_Torsional_Energy-OPLS-2005>
29.8356800079346

> <r_mmod_Van_der_Waal_Energy-OPLS-2005>
168.142379760742

> <r_mmod_Electrostatic_Energy-OPLS-2005>
-207.178329467773

> <r_mmod_Solvation_Energy-OPLS-2005>
-443.790405273438

> <b_mmod_Minimization_Converged-OPLS-2005>
0

> <r_mmod_RMS_Derivative-OPLS-2005>
2.5138463973999

$$$$
29
                    3D
 Structure written by MMmdl.
153162  0  0  1  0            999 V2000
  -30.4824  -15.0427   20.3962 C   0  0  0  0  0  0
  -30.4502  -12.6435   19.5101 C   0  0  0  0  0  0
  -29.5307  -12.5401   18.2700 C   0  0  0  0  0  0
  -28.0687  -12.3033   18.6933 C   0  0  0  0  0  0
  -27.6291  -13.2461   19.8405 C   0  0  2  0  0  0
  -28.6713  -13.3119   20.9762 C   0  0  0  0  0  0
  -25.2472  -13.8178   20.5771 C   0  0  0  0  0  0
  -24.1798  -13.0409   20.9281 C   0  0  0  0  0  0
  -24.6409  -11.6894   20.8793 C   0  0  0  0  0  0
  -23.9092  -10.4265   21.0431 C   0  0  0  0  0  0
  -24.3645   -9.4171   21.9206 C   0  0  0  0  0  0
  -23.6296   -8.2219   22.0761 C   0  0  0  0  0  0
  -22.4280   -8.0292   21.3544 C   0  0  0  0  0  0
  -21.9907   -9.0265   20.4646 C   0  0  0  0  0  0
  -22.7260  -10.2131   20.3063 C   0  0  0  0  0  0
  -21.6857   -6.0737   22.5268 C   0  0  0  0  0  0
  -21.4039   -6.5644   23.8212 C   0  0  0  0  0  0
  -21.3664   -5.6799   24.9173 C   0  0  0  0  0  0
  -21.6038   -4.3065   24.7225 C   0  0  0  0  0  0
  -21.8815   -3.8140   23.4347 C   0  0  0  0  0  0
  -21.9178   -4.6953   22.3394 C   0  0  0  0  0  0
  -22.7820  -13.5193   21.1898 C   0  0  0  0  0  0
  -22.1656   -4.2139   21.0968 F   0  0  0  0  0  0
  -21.5592   -3.4544   25.7732 F   0  0  0  0  0  0
  -29.9359  -13.7503   20.3707 N   0  0  0  0  0  0
  -26.2895  -12.9414   20.3269 N   0  0  0  0  0  0
  -25.9349  -11.6547   20.5772 N   0  0  0  0  0  0
  -22.0484  -12.8170   22.0464 N   0  0  0  0  0  0
  -25.4097  -15.1895   20.4179 N   0  0  0  0  0  0
  -31.6902  -15.1315   20.1570 O   0  0  0  0  0  0
  -21.6629   -6.8889   21.4246 O   0  0  0  0  0  0
  -22.3515  -14.5512   20.6749 O   0  0  0  0  0  0
  -24.6437  -31.8398   23.1819 C   0  0  0  0  0  0
  -25.9188  -32.4675   23.8237 C   0  0  1  0  0  0
  -27.2388  -27.1024   20.1788 C   0  0  0  0  0  0
  -25.5928  -33.8478   24.2161 N   0  0  0  0  0  0
  -23.4540  -30.4536   21.5260 C   0  0  2  0  0  0
  -24.9115  -28.8676   20.1139 C   0  0  0  0  0  0
  -22.7589  -29.4495   22.4800 C   0  0  0  0  0  0
  -18.0319  -28.1401   22.8468 C   0  0  0  0  0  0
  -24.1490  -36.7265   23.2640 C   0  0  0  0  0  0
  -26.0099  -30.7056   21.3834 C   0  0  0  0  0  0
  -26.0877  -29.3097   20.7321 C   0  0  0  0  0  0
  -27.2510  -28.4466   20.7408 C   0  0  0  0  0  0
  -26.0326  -26.7601   19.5287 C   0  0  0  0  0  0
  -24.8980  -27.6066   19.4930 C   0  0  0  0  0  0
  -23.6903  -29.7772   20.1478 C   0  0  0  0  0  0
  -25.4115  -36.3019   24.0318 C   0  0  1  0  0  0
  -20.5937  -28.3726   23.1227 C   0  0  2  0  0  0
  -20.6799  -26.9421   22.5409 C   0  0  0  0  0  0
  -19.5775  -26.6381   21.5207 C   0  0  0  0  0  0
  -18.1963  -26.7936   22.1630 C   0  0  0  0  0  0
  -19.1578  -28.8877   23.2851 C   0  0  0  0  0  0
  -18.9494  -30.1462   23.8897 C   0  0  0  0  0  0
  -17.6485  -30.6574   24.0578 C   0  0  0  0  0  0
  -25.9080  -34.9397   23.5062 C   0  0  0  0  0  0
  -16.5378  -29.9086   23.6314 C   0  0  0  0  0  0
  -16.7300  -28.6509   23.0328 C   0  0  0  0  0  0
  -26.4497  -31.6542   25.0682 C   0  0  0  0  0  0
  -25.3690  -31.3759   26.1393 C   0  0  0  0  0  0
  -27.0357  -30.2936   24.6262 C   0  0  0  0  0  0
  -27.6033  -32.4311   25.7476 C   0  0  0  0  0  0
  -27.5587  -37.1760   24.8442 C   0  0  0  0  0  0
  -21.4273  -29.3035   22.3571 N   0  0  0  0  0  0
  -26.4261  -37.3751   23.9440 N   0  0  0  0  0  0
  -24.7228  -31.0211   22.0869 N   0  0  0  0  0  0
  -23.4203  -28.8062   23.2987 O   0  0  0  0  0  0
  -28.3099  -26.1255   20.2284 O   0  0  0  0  0  0
  -26.5680  -34.8904   22.4647 O   0  0  0  0  0  0
  -23.5551  -32.1279   23.7024 O   0  0  0  0  0  0
  -30.1858  -20.1855   20.9497 C   0  0  0  0  0  0
  -30.4274  -18.7304   20.9472 C   0  0  0  0  0  0
  -28.2796  -19.8932   19.7055 C   0  0  0  0  0  0
  -28.4734  -18.4421   19.7014 C   0  0  0  0  0  0
  -29.0743  -20.9076   20.3492 C   0  0  0  0  0  0
  -29.5697  -17.7373   20.3455 C   0  0  0  0  0  0
  -28.2456  -23.3875   19.3457 C   0  0  0  0  0  0
  -29.1311  -23.5951   21.2084 C   0  0  0  0  0  0
  -28.1019  -24.5708   20.4304 C   0  0  0  0  0  0
  -27.4021  -17.6607   18.9490 C   0  0  0  0  0  0
  -28.6674  -22.4144   20.4070 N   0  0  0  0  0  0
  -29.6024  -16.1777   20.4819 N   0  0  0  0  0  0
  -31.4792  -12.8258   19.1981 H   0  0  0  0  0  0
  -30.4637  -11.7026   20.0657 H   0  0  0  0  0  0
  -29.8631  -11.7340   17.6147 H   0  0  0  0  0  0
  -29.5983  -13.4633   17.6897 H   0  0  0  0  0  0
  -27.9877  -11.2671   19.0253 H   0  0  0  0  0  0
  -27.4026  -12.4025   17.8362 H   0  0  0  0  0  0
  -27.5764  -14.2355   19.3898 H   0  0  0  0  0  0
  -28.7815  -12.3458   21.4697 H   0  0  0  0  0  0
  -28.3565  -14.0169   21.7474 H   0  0  0  0  0  0
  -25.2825   -9.5612   22.4769 H   0  0  0  0  0  0
  -23.9982   -7.4598   22.7491 H   0  0  0  0  0  0
  -21.0830   -8.8824   19.8971 H   0  0  0  0  0  0
  -22.3767  -10.9683   19.6169 H   0  0  0  0  0  0
  -21.2081   -7.6156   23.9714 H   0  0  0  0  0  0
  -21.1493   -6.0534   25.9076 H   0  0  0  0  0  0
  -22.0587   -2.7594   23.2851 H   0  0  0  0  0  0
  -22.4145  -11.9816   22.4781 H   0  0  0  0  0  0
  -21.1118  -13.1178   22.2748 H   0  0  0  0  0  0
  -24.6205  -15.8221   20.5042 H   0  0  0  0  0  0
  -26.2025  -15.6074   19.9558 H   0  0  0  0  0  0
  -26.7269  -32.5299   23.0992 H   0  0  0  0  0  0
  -24.9986  -33.9579   25.0248 H   0  0  0  0  0  0
  -22.7584  -31.2794   21.3618 H   0  0  0  0  0  0
  -23.3744  -35.9601   23.3250 H   0  0  0  0  0  0
  -24.3590  -36.8934   22.2062 H   0  0  0  0  0  0
  -23.7231  -37.6448   23.6706 H   0  0  0  0  0  0
  -26.1609  -31.4513   20.6028 H   0  0  0  0  0  0
  -26.8831  -30.7719   22.0197 H   0  0  0  0  0  0
  -28.1487  -28.7823   21.2423 H   0  0  0  0  0  0
  -25.9547  -25.7907   19.0587 H   0  0  0  0  0  0
  -24.0020  -27.2583   18.9949 H   0  0  0  0  0  0
  -23.8453  -30.5514   19.3954 H   0  0  0  0  0  0
  -22.8058  -29.2278   19.8215 H   0  0  0  0  0  0
  -25.1286  -36.1840   25.0804 H   0  0  0  0  0  0
  -21.0048  -28.3339   24.1342 H   0  0  0  0  0  0
  -20.5661  -26.2348   23.3639 H   0  0  0  0  0  0
  -21.6669  -26.7397   22.1223 H   0  0  0  0  0  0
  -19.6937  -25.6284   21.1240 H   0  0  0  0  0  0
  -19.6709  -27.3195   20.6739 H   0  0  0  0  0  0
  -17.4222  -26.6649   21.4056 H   0  0  0  0  0  0
  -18.0381  -26.0092   22.9038 H   0  0  0  0  0  0
  -19.7973  -30.7271   24.2294 H   0  0  0  0  0  0
  -17.5038  -31.6247   24.5203 H   0  0  0  0  0  0
  -15.5376  -30.2992   23.7631 H   0  0  0  0  0  0
  -15.8705  -28.0821   22.7043 H   0  0  0  0  0  0
  -24.5842  -30.7134   25.7719 H   0  0  0  0  0  0
  -24.8915  -32.2956   26.4789 H   0  0  0  0  0  0
  -25.7961  -30.8936   27.0195 H   0  0  0  0  0  0
  -26.2950  -29.6663   24.1287 H   0  0  0  0  0  0
  -27.3986  -29.7236   25.4823 H   0  0  0  0  0  0
  -27.8856  -30.4170   23.9553 H   0  0  0  0  0  0
  -27.2611  -33.3613   26.2039 H   0  0  0  0  0  0
  -28.3855  -32.6869   25.0312 H   0  0  0  0  0  0
  -28.0699  -31.8448   26.5408 H   0  0  0  0  0  0
  -28.2520  -38.0140   24.7583 H   0  0  0  0  0  0
  -28.1161  -36.2669   24.6123 H   0  0  0  0  0  0
  -27.2341  -37.1240   25.8849 H   0  0  0  0  0  0
  -20.9497  -29.8754   21.6748 H   0  0  0  0  0  0
  -26.0116  -38.2797   24.1518 H   0  0  0  0  0  0
  -30.9143  -20.7822   21.4844 H   0  0  0  0  0  0
  -31.2980  -18.3788   21.4806 H   0  0  0  0  0  0
  -27.3993  -20.2568   19.1971 H   0  0  0  0  0  0
  -29.0417  -23.5663   18.6190 H   0  0  0  0  0  0
  -27.3076  -23.1260   18.8549 H   0  0  0  0  0  0
  -28.9228  -23.5104   22.2775 H   0  0  0  0  0  0
  -30.1810  -23.8414   21.0344 H   0  0  0  0  0  0
  -27.1320  -24.4598   20.9187 H   0  0  0  0  0  0
  -27.3204  -18.0371   17.9267 H   0  0  0  0  0  0
  -26.4206  -17.7852   19.4116 H   0  0  0  0  0  0
  -27.6153  -16.5956   18.8859 H   0  0  0  0  0  0
  -28.6680  -15.8176   20.5790 H   0  0  0  0  0  0
  1 25  1  0  0  0
  1 30  2  0  0  0
  1 82  1  0  0  0
  2  3  1  0  0  0
  2 25  1  0  0  0
  2 83  1  0  0  0
  2 84  1  0  0  0
  3  4  1  0  0  0
  3 85  1  0  0  0
  3 86  1  0  0  0
  4  5  1  0  0  0
  4 87  1  0  0  0
  4 88  1  0  0  0
  5  6  1  0  0  0
  5 26  1  0  0  0
  5 89  1  0  0  0
  6 25  1  0  0  0
  6 90  1  0  0  0
  6 91  1  0  0  0
  7  8  2  0  0  0
  7 26  1  0  0  0
  7 29  1  0  0  0
  8  9  1  0  0  0
  8 22  1  0  0  0
  9 10  1  0  0  0
  9 27  2  0  0  0
 10 11  2  0  0  0
 10 15  1  0  0  0
 11 12  1  0  0  0
 11 92  1  0  0  0
 12 13  2  0  0  0
 12 93  1  0  0  0
 13 14  1  0  0  0
 13 31  1  0  0  0
 14 15  2  0  0  0
 14 94  1  0  0  0
 15 95  1  0  0  0
 16 17  2  0  0  0
 16 21  1  0  0  0
 16 31  1  0  0  0
 17 18  1  0  0  0
 17 96  1  0  0  0
 18 19  2  0  0  0
 18 97  1  0  0  0
 19 20  1  0  0  0
 19 24  1  0  0  0
 20 21  2  0  0  0
 20 98  1  0  0  0
 21 23  1  0  0  0
 22 28  1  0  0  0
 22 32  2  0  0  0
 26 27  1  0  0  0
 28 99  1  0  0  0
 28100  1  0  0  0
 29101  1  0  0  0
 29102  1  0  0  0
 33 34  1  0  0  0
 33 66  1  0  0  0
 33 70  2  0  0  0
 34 36  1  0  0  0
 34 59  1  0  0  0
 34103  1  0  0  0
 35 44  2  0  0  0
 35 45  1  0  0  0
 35 68  1  0  0  0
 36 56  1  0  0  0
 36104  1  0  0  0
 37 39  1  0  0  0
 37 47  1  0  0  0
 37 66  1  0  0  0
 37105  1  0  0  0
 38 43  2  0  0  0
 38 46  1  0  0  0
 38 47  1  0  0  0
 39 64  1  0  0  0
 39 67  2  0  0  0
 40 52  1  0  0  0
 40 53  2  0  0  0
 40 58  1  0  0  0
 41106  1  0  0  0
 41107  1  0  0  0
 41108  1  0  0  0
 41 48  1  0  0  0
 42 43  1  0  0  0
 42 66  1  0  0  0
 42109  1  0  0  0
 42110  1  0  0  0
 43 44  1  0  0  0
 44111  1  0  0  0
 45 46  2  0  0  0
 45112  1  0  0  0
 46113  1  0  0  0
 47114  1  0  0  0
 47115  1  0  0  0
 48 56  1  0  0  0
 48 65  1  0  0  0
 48116  1  0  0  0
 49 50  1  0  0  0
 49 53  1  0  0  0
 49 64  1  0  0  0
 49117  1  0  0  0
 50 51  1  0  0  0
 50118  1  0  0  0
 50119  1  0  0  0
 51 52  1  0  0  0
 51120  1  0  0  0
 51121  1  0  0  0
 52122  1  0  0  0
 52123  1  0  0  0
 53 54  1  0  0  0
 54 55  2  0  0  0
 54124  1  0  0  0
 55 57  1  0  0  0
 55125  1  0  0  0
 56 69  2  0  0  0
 57 58  2  0  0  0
 57126  1  0  0  0
 58127  1  0  0  0
 59 60  1  0  0  0
 59 61  1  0  0  0
 59 62  1  0  0  0
 60128  1  0  0  0
 60129  1  0  0  0
 60130  1  0  0  0
 61131  1  0  0  0
 61132  1  0  0  0
 61133  1  0  0  0
 62134  1  0  0  0
 62135  1  0  0  0
 62136  1  0  0  0
 63 65  1  0  0  0
 63137  1  0  0  0
 63138  1  0  0  0
 63139  1  0  0  0
 64140  1  0  0  0
 65141  1  0  0  0
 68 79  1  0  0  0
 71 72  2  0  0  0
 71 75  1  0  0  0
 71142  1  0  0  0
 72 76  1  0  0  0
 72143  1  0  0  0
 73 74  1  0  0  0
 73 75  2  0  0  0
 73144  1  0  0  0
 74 76  2  0  0  0
 74 80  1  0  0  0
 75 81  1  0  0  0
 76 82  1  0  0  0
 77 79  1  0  0  0
 77 81  1  0  0  0
 77145  1  0  0  0
 77146  1  0  0  0
 78 79  1  0  0  0
 78 81  1  0  0  0
 78147  1  0  0  0
 78148  1  0  0  0
 79149  1  0  0  0
 80150  1  0  0  0
 80151  1  0  0  0
 80152  1  0  0  0
 82153  1  0  0  0
M  ISO  4   1 100  68 101  79 101  82 100
M  END
> <chiral flag>
0

> <version>
0

> <s_m_source_file>
/data/baiqing/PycharmProjects/Reinvent-master-3.2/result/LINK_invent/BTK/process_docking_weight1_custom_product_contain_oxygen_bond_distance_aromatic_linkinvent_7_9_3/rearranged_h_0027.sdf

> <i_m_source_file_index>
29

> <r_mmod_Potential_Energy-OPLS-2005>
676.542114257812

> <r_mmod_Stretch_Energy-OPLS-2005>
270.0087890625

> <r_mmod_Bend_Energy-OPLS-2005>
383.233367919922

> <r_mmod_Torsional_Energy-OPLS-2005>
259.050323486328

> <r_mmod_Improper_Torsional_Energy-OPLS-2005>
9.69584465026855

> <r_mmod_Van_der_Waal_Energy-OPLS-2005>
124.79891204834

> <r_mmod_Electrostatic_Energy-OPLS-2005>
-384.531799316406

> <r_mmod_Solvation_Energy-OPLS-2005>
-230.882186889648

> <b_mmod_Minimization_Converged-OPLS-2005>
0

> <r_mmod_RMS_Derivative-OPLS-2005>
4.67647695541382

$$$$
30
                    3D
 Structure written by MMmdl.
158166  0  0  1  0            999 V2000
  -30.6474  -14.5849   20.5156 C   0  0  0  0  0  0
  -30.4230  -12.3727   19.4076 C   0  0  0  0  0  0
  -29.4828  -12.5052   18.1909 C   0  0  0  0  0  0
  -28.0074  -12.3455   18.6124 C   0  0  0  0  0  0
  -27.6422  -13.2124   19.8458 C   0  0  2  0  0  0
  -28.6943  -13.0597   20.9652 C   0  0  0  0  0  0
  -25.2504  -13.8167   20.5658 C   0  0  0  0  0  0
  -24.1798  -13.0431   20.9199 C   0  0  0  0  0  0
  -24.6377  -11.6895   20.8739 C   0  0  0  0  0  0
  -23.9062  -10.4278   21.0403 C   0  0  0  0  0  0
  -24.3620   -9.4191   21.9169 C   0  0  0  0  0  0
  -23.6304   -8.2222   22.0741 C   0  0  0  0  0  0
  -22.4283   -8.0259   21.3542 C   0  0  0  0  0  0
  -21.9917   -9.0228   20.4641 C   0  0  0  0  0  0
  -22.7237  -10.2112   20.3052 C   0  0  0  0  0  0
  -21.6847   -6.0731   22.5276 C   0  0  0  0  0  0
  -21.4000   -6.5631   23.8205 C   0  0  0  0  0  0
  -21.3657   -5.6782   24.9168 C   0  0  0  0  0  0
  -21.6061   -4.3049   24.7225 C   0  0  0  0  0  0
  -21.8822   -3.8138   23.4340 C   0  0  0  0  0  0
  -21.9195   -4.6958   22.3396 C   0  0  0  0  0  0
  -22.7806  -13.5184   21.1868 C   0  0  0  0  0  0
  -22.1656   -4.2138   21.0976 F   0  0  0  0  0  0
  -21.5652   -3.4536   25.7741 F   0  0  0  0  0  0
  -30.0011  -13.3911   20.3822 N   0  0  0  0  0  0
  -26.2919  -12.9349   20.3247 N   0  0  0  0  0  0
  -25.9298  -11.6498   20.5731 N   0  0  0  0  0  0
  -22.0488  -12.8158   22.0447 N   0  0  0  0  0  0
  -25.4185  -15.1889   20.4015 N   0  0  0  0  0  0
  -31.8333  -14.7263   20.2067 O   0  0  0  0  0  0
  -21.6638   -6.8868   21.4240 O   0  0  0  0  0  0
  -22.3461  -14.5477   20.6705 O   0  0  0  0  0  0
  -24.6225  -31.8629   23.2044 C   0  0  0  0  0  0
  -25.9106  -32.4790   23.8328 C   0  0  1  0  0  0
  -27.2156  -27.3468   20.0869 C   0  0  0  0  0  0
  -25.5950  -33.8595   24.2270 N   0  0  0  0  0  0
  -23.4096  -30.4876   21.5512 C   0  0  2  0  0  0
  -24.8484  -28.9452   20.1161 C   0  0  0  0  0  0
  -22.7431  -29.4634   22.4991 C   0  0  0  0  0  0
  -18.0272  -28.1364   22.8509 C   0  0  0  0  0  0
  -24.1512  -36.7280   23.2638 C   0  0  0  0  0  0
  -25.9509  -30.7976   21.3738 C   0  0  0  0  0  0
  -26.0194  -29.4297   20.7105 C   0  0  0  0  0  0
  -27.2019  -28.6390   20.6902 C   0  0  0  0  0  0
  -26.0051  -26.8932   19.5086 C   0  0  0  0  0  0
  -24.8386  -27.6776   19.5189 C   0  0  0  0  0  0
  -23.6176  -29.8238   20.1658 C   0  0  0  0  0  0
  -25.4143  -36.3097   24.0330 C   0  0  1  0  0  0
  -20.5869  -28.3631   23.1272 C   0  0  2  0  0  0
  -20.6780  -26.9361   22.5359 C   0  0  0  0  0  0
  -19.5693  -26.6235   21.5269 C   0  0  0  0  0  0
  -18.1888  -26.7872   22.1715 C   0  0  0  0  0  0
  -19.1535  -28.8804   23.2892 C   0  0  0  0  0  0
  -18.9491  -30.1385   23.8964 C   0  0  0  0  0  0
  -17.6503  -30.6533   24.0654 C   0  0  0  0  0  0
  -25.9069  -34.9465   23.5093 C   0  0  0  0  0  0
  -16.5375  -29.9089   23.6385 C   0  0  0  0  0  0
  -16.7274  -28.6513   23.0384 C   0  0  0  0  0  0
  -26.4478  -31.6618   25.0711 C   0  0  0  0  0  0
  -25.3663  -31.3782   26.1405 C   0  0  0  0  0  0
  -27.0364  -30.3069   24.6167 C   0  0  0  0  0  0
  -27.6061  -32.4346   25.7477 C   0  0  0  0  0  0
  -27.5591  -37.1810   24.8471 C   0  0  0  0  0  0
  -21.4150  -29.3022   22.3707 N   0  0  0  0  0  0
  -26.4325  -37.3790   23.9384 N   0  0  0  0  0  0
  -24.6787  -31.0669   22.0982 N   0  0  0  0  0  0
  -23.4195  -28.8185   23.3041 O   0  0  0  0  0  0
  -28.3775  -26.5678   20.1092 O   0  0  0  0  0  0
  -26.5630  -34.8944   22.4658 O   0  0  0  0  0  0
  -23.5413  -32.1431   23.7401 O   0  0  0  0  0  0
  -30.3229  -18.5368   23.8751 C   0  0  0  0  0  0
  -30.5160  -17.1660   24.0755 C   0  0  0  0  0  0
  -29.9967  -19.0147   22.5958 C   0  0  0  0  0  0
  -30.3908  -16.2817   22.9933 C   0  0  0  0  0  0
  -29.8298  -18.1505   21.4819 C   0  0  0  0  0  0
  -30.0656  -16.7298   21.6864 C   0  0  0  0  0  0
  -29.5097  -18.8595   20.1758 C   0  0  0  0  0  0
  -28.5938  -20.1362   20.1803 C   0  0  0  0  0  0
  -28.7358  -23.9799   20.2630 C   0  0  0  0  0  0
  -28.6707  -22.6171   19.4639 C   0  0  0  0  0  0
  -28.4780  -25.2805   19.4064 C   0  0  0  0  0  0
  -29.8483  -15.6703   20.7318 N   0  0  0  0  0  0
  -29.3634  -21.4249   20.0785 N   0  3  0  0  0  0
  -29.9503  -18.4657   19.0906 O   0  0  0  0  0  0
  -31.4601  -12.5014   19.0932 H   0  0  0  0  0  0
  -30.3576  -11.3749   19.8427 H   0  0  0  0  0  0
  -29.7363  -11.7670   17.4302 H   0  0  0  0  0  0
  -29.6209  -13.4807   17.7222 H   0  0  0  0  0  0
  -27.8347  -11.2918   18.8334 H   0  0  0  0  0  0
  -27.3483  -12.5889   17.7772 H   0  0  0  0  0  0
  -27.6586  -14.2471   19.5025 H   0  0  0  0  0  0
  -28.7053  -12.0394   21.3501 H   0  0  0  0  0  0
  -28.4582  -13.7018   21.8141 H   0  0  0  0  0  0
  -25.2787   -9.5653   22.4716 H   0  0  0  0  0  0
  -24.0022   -7.4610   22.7443 H   0  0  0  0  0  0
  -21.0857   -8.8733   19.8932 H   0  0  0  0  0  0
  -22.3705  -10.9636   19.6135 H   0  0  0  0  0  0
  -21.1963   -7.6131   23.9704 H   0  0  0  0  0  0
  -21.1483   -6.0511   25.9073 H   0  0  0  0  0  0
  -22.0613   -2.7602   23.2841 H   0  0  0  0  0  0
  -22.4153  -11.9835   22.4822 H   0  0  0  0  0  0
  -21.1076  -13.1081   22.2660 H   0  0  0  0  0  0
  -24.6417  -15.8341   20.4987 H   0  0  0  0  0  0
  -26.2525  -15.6290   20.0374 H   0  0  0  0  0  0
  -26.7164  -32.5466   23.1062 H   0  0  0  0  0  0
  -25.0178  -33.9752   25.0472 H   0  0  0  0  0  0
  -22.6980  -31.3051   21.4143 H   0  0  0  0  0  0
  -23.3795  -35.9594   23.3335 H   0  0  0  0  0  0
  -24.3597  -36.8859   22.2042 H   0  0  0  0  0  0
  -23.7250  -37.6485   23.6634 H   0  0  0  0  0  0
  -26.0878  -31.5659   20.6106 H   0  0  0  0  0  0
  -26.8296  -30.8348   22.0064 H   0  0  0  0  0  0
  -28.1075  -29.0107   21.1478 H   0  0  0  0  0  0
  -25.8973  -25.9195   19.0636 H   0  0  0  0  0  0
  -23.9291  -27.2908   19.0805 H   0  0  0  0  0  0
  -23.7239  -30.5961   19.4037 H   0  0  0  0  0  0
  -22.7371  -29.2461   19.8766 H   0  0  0  0  0  0
  -25.1326  -36.1951   25.0825 H   0  0  0  0  0  0
  -20.9953  -28.3166   24.1394 H   0  0  0  0  0  0
  -20.5788  -26.2239   23.3563 H   0  0  0  0  0  0
  -21.6621  -26.7458   22.1087 H   0  0  0  0  0  0
  -19.6813  -25.6072   21.1494 H   0  0  0  0  0  0
  -19.6603  -27.2900   20.6674 H   0  0  0  0  0  0
  -17.4105  -26.6506   21.4192 H   0  0  0  0  0  0
  -18.0326  -26.0094   22.9219 H   0  0  0  0  0  0
  -19.7991  -30.7100   24.2463 H   0  0  0  0  0  0
  -17.5060  -31.6168   24.5354 H   0  0  0  0  0  0
  -15.5380  -30.2966   23.7738 H   0  0  0  0  0  0
  -15.8634  -28.0882   22.7113 H   0  0  0  0  0  0
  -24.5818  -30.7175   25.7677 H   0  0  0  0  0  0
  -24.8859  -32.2969   26.4786 H   0  0  0  0  0  0
  -25.7897  -30.8935   27.0208 H   0  0  0  0  0  0
  -26.2965  -29.6801   24.1165 H   0  0  0  0  0  0
  -27.4081  -29.7347   25.4673 H   0  0  0  0  0  0
  -27.8815  -30.4422   23.9416 H   0  0  0  0  0  0
  -27.2689  -33.3659   26.2059 H   0  0  0  0  0  0
  -28.3847  -32.6881   25.0267 H   0  0  0  0  0  0
  -28.0742  -31.8445   26.5363 H   0  0  0  0  0  0
  -28.2640  -38.0078   24.7505 H   0  0  0  0  0  0
  -28.1058  -36.2608   24.6336 H   0  0  0  0  0  0
  -27.2295  -37.1507   25.8874 H   0  0  0  0  0  0
  -20.9351  -29.8730   21.6898 H   0  0  0  0  0  0
  -26.0213  -38.2885   24.1336 H   0  0  0  0  0  0
  -30.4193  -19.2208   24.7081 H   0  0  0  0  0  0
  -30.7517  -16.7891   25.0617 H   0  0  0  0  0  0
  -29.8803  -20.0822   22.4979 H   0  0  0  0  0  0
  -30.5184  -15.2263   23.1962 H   0  0  0  0  0  0
  -27.9519  -20.1479   21.0608 H   0  0  0  0  0  0
  -27.9362  -20.0514   19.3156 H   0  0  0  0  0  0
  -29.7142  -24.0758   20.7351 H   0  0  0  0  0  0
  -28.0112  -23.9326   21.0762 H   0  0  0  0  0  0
  -29.1362  -22.7655   18.4880 H   0  0  0  0  0  0
  -27.6281  -22.3812   19.2451 H   0  0  0  0  0  0
  -27.6712  -25.0879   18.7063 H   0  0  0  0  0  0
  -29.3404  -25.3938   18.7494 H   0  0  0  0  0  0
  -28.8741  -15.4737   20.5618 H   0  0  0  0  0  0
  -30.1593  -21.2195   19.4951 H   0  0  0  0  0  0
  -29.7176  -21.6704   20.9864 H   0  0  0  0  0  0
  1 25  1  0  0  0
  1 30  2  0  0  0
  1 82  1  0  0  0
  2  3  1  0  0  0
  2 25  1  0  0  0
  2 85  1  0  0  0
  2 86  1  0  0  0
  3  4  1  0  0  0
  3 87  1  0  0  0
  3 88  1  0  0  0
  4  5  1  0  0  0
  4 89  1  0  0  0
  4 90  1  0  0  0
  5  6  1  0  0  0
  5 26  1  0  0  0
  5 91  1  0  0  0
  6 25  1  0  0  0
  6 92  1  0  0  0
  6 93  1  0  0  0
  7  8  2  0  0  0
  7 26  1  0  0  0
  7 29  1  0  0  0
  8  9  1  0  0  0
  8 22  1  0  0  0
  9 10  1  0  0  0
  9 27  2  0  0  0
 10 11  2  0  0  0
 10 15  1  0  0  0
 11 12  1  0  0  0
 11 94  1  0  0  0
 12 13  2  0  0  0
 12 95  1  0  0  0
 13 14  1  0  0  0
 13 31  1  0  0  0
 14 15  2  0  0  0
 14 96  1  0  0  0
 15 97  1  0  0  0
 16 17  2  0  0  0
 16 21  1  0  0  0
 16 31  1  0  0  0
 17 18  1  0  0  0
 17 98  1  0  0  0
 18 19  2  0  0  0
 18 99  1  0  0  0
 19 20  1  0  0  0
 19 24  1  0  0  0
 20 21  2  0  0  0
 20100  1  0  0  0
 21 23  1  0  0  0
 22 28  1  0  0  0
 22 32  2  0  0  0
 26 27  1  0  0  0
 28101  1  0  0  0
 28102  1  0  0  0
 29103  1  0  0  0
 29104  1  0  0  0
 33 34  1  0  0  0
 33 66  1  0  0  0
 33 70  2  0  0  0
 34 36  1  0  0  0
 34 59  1  0  0  0
 34105  1  0  0  0
 35 44  2  0  0  0
 35 45  1  0  0  0
 35 68  1  0  0  0
 36 56  1  0  0  0
 36106  1  0  0  0
 37 39  1  0  0  0
 37 47  1  0  0  0
 37 66  1  0  0  0
 37107  1  0  0  0
 38 43  2  0  0  0
 38 46  1  0  0  0
 38 47  1  0  0  0
 39 64  1  0  0  0
 39 67  2  0  0  0
 40 52  1  0  0  0
 40 53  2  0  0  0
 40 58  1  0  0  0
 41108  1  0  0  0
 41109  1  0  0  0
 41110  1  0  0  0
 41 48  1  0  0  0
 42 43  1  0  0  0
 42 66  1  0  0  0
 42111  1  0  0  0
 42112  1  0  0  0
 43 44  1  0  0  0
 44113  1  0  0  0
 45 46  2  0  0  0
 45114  1  0  0  0
 46115  1  0  0  0
 47116  1  0  0  0
 47117  1  0  0  0
 48 56  1  0  0  0
 48 65  1  0  0  0
 48118  1  0  0  0
 49 50  1  0  0  0
 49 53  1  0  0  0
 49 64  1  0  0  0
 49119  1  0  0  0
 50 51  1  0  0  0
 50120  1  0  0  0
 50121  1  0  0  0
 51 52  1  0  0  0
 51122  1  0  0  0
 51123  1  0  0  0
 52124  1  0  0  0
 52125  1  0  0  0
 53 54  1  0  0  0
 54 55  2  0  0  0
 54126  1  0  0  0
 55 57  1  0  0  0
 55127  1  0  0  0
 56 69  2  0  0  0
 57 58  2  0  0  0
 57128  1  0  0  0
 58129  1  0  0  0
 59 60  1  0  0  0
 59 61  1  0  0  0
 59 62  1  0  0  0
 60130  1  0  0  0
 60131  1  0  0  0
 60132  1  0  0  0
 61133  1  0  0  0
 61134  1  0  0  0
 61135  1  0  0  0
 62136  1  0  0  0
 62137  1  0  0  0
 62138  1  0  0  0
 63 65  1  0  0  0
 63139  1  0  0  0
 63140  1  0  0  0
 63141  1  0  0  0
 64142  1  0  0  0
 65143  1  0  0  0
 68 81  1  0  0  0
 71 72  2  0  0  0
 71 73  1  0  0  0
 71144  1  0  0  0
 72 74  1  0  0  0
 72145  1  0  0  0
 73 75  2  0  0  0
 73146  1  0  0  0
 74 76  2  0  0  0
 74147  1  0  0  0
 75 76  1  0  0  0
 75 77  1  0  0  0
 76 82  1  0  0  0
 77 78  1  0  0  0
 77 84  2  0  0  0
 78 83  1  0  0  0
 78148  1  0  0  0
 78149  1  0  0  0
 79 80  1  0  0  0
 79 81  1  0  0  0
 79150  1  0  0  0
 79151  1  0  0  0
 80 83  1  0  0  0
 80152  1  0  0  0
 80153  1  0  0  0
 81154  1  0  0  0
 81155  1  0  0  0
 82156  1  0  0  0
 83157  1  0  0  0
 83158  1  0  0  0
M  CHG  1  83   1
M  ISO  4   1 100  68 101  81 101  82 100
M  END
> <chiral flag>
0

> <version>
0

> <s_m_source_file>
/data/baiqing/PycharmProjects/Reinvent-master-3.2/result/LINK_invent/BTK/process_docking_weight1_custom_product_contain_oxygen_bond_distance_aromatic_linkinvent_7_9_3/rearranged_h_0027.sdf

> <i_m_source_file_index>
30

> <r_mmod_Potential_Energy-OPLS-2005>
-102.50212097168

> <r_mmod_Stretch_Energy-OPLS-2005>
66.6361465454102

> <r_mmod_Bend_Energy-OPLS-2005>
140.212249755859

> <r_mmod_Torsional_Energy-OPLS-2005>
291.144561767578

> <r_mmod_Improper_Torsional_Energy-OPLS-2005>
9.65196323394775

> <r_mmod_Van_der_Waal_Energy-OPLS-2005>
146.126800537109

> <r_mmod_Electrostatic_Energy-OPLS-2005>
-272.968414306641

> <r_mmod_Solvation_Energy-OPLS-2005>
-519.8671875

> <b_mmod_Minimization_Converged-OPLS-2005>
0

> <r_mmod_RMS_Derivative-OPLS-2005>
3.30960083007812

$$$$
31
                    3D
 Structure written by MMmdl.
160169  0  0  1  0            999 V2000
  -30.6335  -14.6240   20.5372 C   0  0  0  0  0  0
  -30.4430  -12.3889   19.4516 C   0  0  0  0  0  0
  -29.5100  -12.5088   18.2254 C   0  0  0  0  0  0
  -28.0333  -12.3472   18.6367 C   0  0  0  0  0  0
  -27.6585  -13.2115   19.8690 C   0  0  2  0  0  0
  -28.7033  -13.0516   20.9975 C   0  0  0  0  0  0
  -25.2593  -13.8175   20.5673 C   0  0  0  0  0  0
  -24.1841  -13.0451   20.9176 C   0  0  0  0  0  0
  -24.6398  -11.6915   20.8740 C   0  0  0  0  0  0
  -23.9060  -10.4296   21.0401 C   0  0  0  0  0  0
  -24.3608   -9.4215   21.9179 C   0  0  0  0  0  0
  -23.6281   -8.2251   22.0756 C   0  0  0  0  0  0
  -22.4267   -8.0287   21.3539 C   0  0  0  0  0  0
  -21.9891   -9.0267   20.4648 C   0  0  0  0  0  0
  -22.7223  -10.2143   20.3055 C   0  0  0  0  0  0
  -21.6858   -6.0726   22.5269 C   0  0  0  0  0  0
  -21.4022   -6.5632   23.8206 C   0  0  0  0  0  0
  -21.3658   -5.6785   24.9165 C   0  0  0  0  0  0
  -21.6043   -4.3045   24.7216 C   0  0  0  0  0  0
  -21.8822   -3.8139   23.4344 C   0  0  0  0  0  0
  -21.9197   -4.6953   22.3394 C   0  0  0  0  0  0
  -22.7863  -13.5250   21.1836 C   0  0  0  0  0  0
  -22.1662   -4.2135   21.0970 F   0  0  0  0  0  0
  -21.5624   -3.4534   25.7737 F   0  0  0  0  0  0
  -30.0215  -13.4002   20.4423 N   0  0  0  0  0  0
  -26.3015  -12.9339   20.3335 N   0  0  0  0  0  0
  -25.9332  -11.6506   20.5771 N   0  0  0  0  0  0
  -22.0487  -12.8268   22.0394 N   0  0  0  0  0  0
  -25.4350  -15.1899   20.4094 N   0  0  0  0  0  0
  -31.7778  -14.8034   20.1086 O   0  0  0  0  0  0
  -21.6642   -6.8877   21.4236 O   0  0  0  0  0  0
  -22.3551  -14.5546   20.6664 O   0  0  0  0  0  0
  -24.6266  -31.8605   23.2021 C   0  0  0  0  0  0
  -25.9111  -32.4777   23.8352 C   0  0  1  0  0  0
  -27.2295  -27.3185   20.1170 C   0  0  0  0  0  0
  -25.5933  -33.8579   24.2282 N   0  0  0  0  0  0
  -23.4203  -30.4839   21.5452 C   0  0  2  0  0  0
  -24.8672  -28.9415   20.1124 C   0  0  0  0  0  0
  -22.7479  -29.4626   22.4933 C   0  0  0  0  0  0
  -18.0290  -28.1385   22.8483 C   0  0  0  0  0  0
  -24.1490  -36.7294   23.2635 C   0  0  0  0  0  0
  -25.9623  -30.7923   21.3735 C   0  0  0  0  0  0
  -26.0368  -29.4202   20.7144 C   0  0  0  0  0  0
  -27.2198  -28.6216   20.7055 C   0  0  0  0  0  0
  -26.0282  -26.8940   19.4975 C   0  0  0  0  0  0
  -24.8651  -27.6828   19.4958 C   0  0  0  0  0  0
  -23.6354  -29.8201   20.1603 C   0  0  0  0  0  0
  -25.4110  -36.3078   24.0329 C   0  0  1  0  0  0
  -20.5890  -28.3692   23.1277 C   0  0  2  0  0  0
  -20.6778  -26.9414   22.5402 C   0  0  0  0  0  0
  -19.5749  -26.6381   21.5206 C   0  0  0  0  0  0
  -18.1934  -26.7927   22.1625 C   0  0  0  0  0  0
  -19.1544  -28.8855   23.2874 C   0  0  0  0  0  0
  -18.9466  -30.1457   23.8891 C   0  0  0  0  0  0
  -17.6467  -30.6583   24.0563 C   0  0  0  0  0  0
  -25.9049  -34.9448   23.5104 C   0  0  0  0  0  0
  -16.5357  -29.9083   23.6328 C   0  0  0  0  0  0
  -16.7278  -28.6502   23.0348 C   0  0  0  0  0  0
  -26.4498  -31.6587   25.0721 C   0  0  0  0  0  0
  -25.3742  -31.3744   26.1462 C   0  0  0  0  0  0
  -27.0336  -30.3005   24.6177 C   0  0  0  0  0  0
  -27.6058  -32.4327   25.7485 C   0  0  0  0  0  0
  -27.5578  -37.1795   24.8459 C   0  0  0  0  0  0
  -21.4191  -29.3047   22.3676 N   0  0  0  0  0  0
  -26.4287  -37.3770   23.9408 N   0  0  0  0  0  0
  -24.6883  -31.0618   22.0972 N   0  0  0  0  0  0
  -23.4198  -28.8159   23.3009 O   0  0  0  0  0  0
  -28.3604  -26.4810   20.1747 O   0  0  0  0  0  0
  -26.5613  -34.8917   22.4666 O   0  0  0  0  0  0
  -23.5430  -32.1404   23.7352 O   0  0  0  0  0  0
  -28.8499  -19.2757   21.5559 C   0  0  0  0  0  0
  -30.9171  -19.2930   20.3279 C   0  0  0  0  0  0
  -28.8720  -17.8501   21.5506 C   0  0  0  0  0  0
  -30.9431  -17.8634   20.3276 C   0  0  0  0  0  0
  -29.8777  -20.0421   20.9524 C   0  0  0  0  0  0
  -29.9197  -17.0993   20.9521 C   0  0  0  0  0  0
  -28.0223  -23.2178   18.1884 C   0  0  0  0  0  0
  -28.3315  -24.7043   18.4466 C   0  0  0  0  0  0
  -28.9999  -22.2849   18.9328 C   0  0  0  0  0  0
  -29.2116  -24.0331   20.7016 C   0  0  0  0  0  0
  -28.2143  -25.0188   19.9509 C   0  0  1  0  0  0
  -29.9705  -21.6086   21.1253 C   0  0  0  0  0  0
  -29.8494  -15.6384   21.0166 N   0  0  0  0  0  0
  -29.0209  -22.5433   20.3958 N   0  3  2  0  0  0
  -31.4835  -12.5167   19.1480 H   0  0  0  0  0  0
  -30.3810  -11.3895   19.8856 H   0  0  0  0  0  0
  -29.7717  -11.7578   17.4786 H   0  0  0  0  0  0
  -29.6544  -13.4799   17.7480 H   0  0  0  0  0  0
  -27.8695  -11.2926   18.8655 H   0  0  0  0  0  0
  -27.3792  -12.5807   17.7960 H   0  0  0  0  0  0
  -27.6837  -14.2483   19.5356 H   0  0  0  0  0  0
  -28.7154  -12.0238   21.3638 H   0  0  0  0  0  0
  -28.4441  -13.6654   21.8610 H   0  0  0  0  0  0
  -25.2760   -9.5688   22.4747 H   0  0  0  0  0  0
  -23.9986   -7.4651   22.7485 H   0  0  0  0  0  0
  -21.0808   -8.8801   19.8963 H   0  0  0  0  0  0
  -22.3690  -10.9687   19.6162 H   0  0  0  0  0  0
  -21.2022   -7.6142   23.9703 H   0  0  0  0  0  0
  -21.1468   -6.0513   25.9064 H   0  0  0  0  0  0
  -22.0603   -2.7598   23.2853 H   0  0  0  0  0  0
  -22.4086  -11.9938   22.4815 H   0  0  0  0  0  0
  -21.1106  -13.1326   22.2577 H   0  0  0  0  0  0
  -24.6744  -15.8520   20.5174 H   0  0  0  0  0  0
  -26.2858  -15.6207   20.0711 H   0  0  0  0  0  0
  -26.7184  -32.5453   23.1107 H   0  0  0  0  0  0
  -25.0087  -33.9725   25.0433 H   0  0  0  0  0  0
  -22.7127  -31.3027   21.4015 H   0  0  0  0  0  0
  -23.3730  -35.9652   23.3330 H   0  0  0  0  0  0
  -24.3574  -36.8878   22.2042 H   0  0  0  0  0  0
  -23.7277  -37.6522   23.6637 H   0  0  0  0  0  0
  -26.0951  -31.5569   20.6067 H   0  0  0  0  0  0
  -26.8418  -30.8402   22.0043 H   0  0  0  0  0  0
  -28.1167  -28.9872   21.1862 H   0  0  0  0  0  0
  -25.9416  -25.9333   19.0160 H   0  0  0  0  0  0
  -23.9677  -27.3067   19.0234 H   0  0  0  0  0  0
  -23.7553  -30.5965   19.4041 H   0  0  0  0  0  0
  -22.7567  -29.2489   19.8561 H   0  0  0  0  0  0
  -25.1291  -36.1928   25.0821 H   0  0  0  0  0  0
  -20.9977  -28.3270   24.1400 H   0  0  0  0  0  0
  -20.5678  -26.2304   23.3602 H   0  0  0  0  0  0
  -21.6652  -26.7443   22.1200 H   0  0  0  0  0  0
  -19.6912  -25.6291   21.1233 H   0  0  0  0  0  0
  -19.6676  -27.3188   20.6735 H   0  0  0  0  0  0
  -17.4198  -26.6666   21.4033 H   0  0  0  0  0  0
  -18.0336  -26.0068   22.9020 H   0  0  0  0  0  0
  -19.7944  -30.7277   24.2247 H   0  0  0  0  0  0
  -17.5023  -31.6260   24.5170 H   0  0  0  0  0  0
  -15.5360  -30.2987   23.7650 H   0  0  0  0  0  0
  -15.8677  -28.0817   22.7068 H   0  0  0  0  0  0
  -24.5907  -30.7091   25.7815 H   0  0  0  0  0  0
  -24.8954  -32.2926   26.4880 H   0  0  0  0  0  0
  -25.8080  -30.8936   27.0240 H   0  0  0  0  0  0
  -26.2909  -29.6752   24.1208 H   0  0  0  0  0  0
  -27.4039  -29.7260   25.4678 H   0  0  0  0  0  0
  -27.8777  -30.4280   23.9395 H   0  0  0  0  0  0
  -27.2656  -33.3612   26.2085 H   0  0  0  0  0  0
  -28.3854  -32.6917   25.0307 H   0  0  0  0  0  0
  -28.0749  -31.8451   26.5387 H   0  0  0  0  0  0
  -28.2598  -38.0089   24.7508 H   0  0  0  0  0  0
  -28.1074  -36.2627   24.6278 H   0  0  0  0  0  0
  -27.2305  -37.1438   25.8864 H   0  0  0  0  0  0
  -20.9364  -29.8792   21.6910 H   0  0  0  0  0  0
  -26.0170  -38.2845   24.1408 H   0  0  0  0  0  0
  -28.0440  -19.7788   22.0711 H   0  0  0  0  0  0
  -31.7463  -19.8181   19.8746 H   0  0  0  0  0  0
  -28.0619  -17.3301   22.0445 H   0  0  0  0  0  0
  -31.7768  -17.3644   19.8542 H   0  0  0  0  0  0
  -28.0716  -23.0119   17.1187 H   0  0  0  0  0  0
  -26.9972  -22.9966   18.4906 H   0  0  0  0  0  0
  -27.6642  -25.3249   17.8517 H   0  0  0  0  0  0
  -29.3384  -24.9393   18.0997 H   0  0  0  0  0  0
  -30.0060  -22.4071   18.5294 H   0  0  0  0  0  0
  -28.7139  -21.2476   18.7485 H   0  0  0  0  0  0
  -29.1149  -24.1863   21.7768 H   0  0  0  0  0  0
  -30.2358  -24.3101   20.4482 H   0  0  0  0  0  0
  -27.2243  -24.7261   20.3023 H   0  0  0  0  0  0
  -30.9872  -21.9063   20.8658 H   0  0  0  0  0  0
  -29.8835  -21.8127   22.1933 H   0  0  0  0  0  0
  -28.9873  -15.2877   21.4030 H   0  0  0  0  0  0
  -28.1027  -22.2992   20.7371 H   0  0  0  0  0  0
  1 25  1  0  0  0
  1 30  2  0  0  0
  1 83  1  0  0  0
  2  3  1  0  0  0
  2 25  1  0  0  0
  2 85  1  0  0  0
  2 86  1  0  0  0
  3  4  1  0  0  0
  3 87  1  0  0  0
  3 88  1  0  0  0
  4  5  1  0  0  0
  4 89  1  0  0  0
  4 90  1  0  0  0
  5  6  1  0  0  0
  5 26  1  0  0  0
  5 91  1  0  0  0
  6 25  1  0  0  0
  6 92  1  0  0  0
  6 93  1  0  0  0
  7  8  2  0  0  0
  7 26  1  0  0  0
  7 29  1  0  0  0
  8  9  1  0  0  0
  8 22  1  0  0  0
  9 10  1  0  0  0
  9 27  2  0  0  0
 10 11  2  0  0  0
 10 15  1  0  0  0
 11 12  1  0  0  0
 11 94  1  0  0  0
 12 13  2  0  0  0
 12 95  1  0  0  0
 13 14  1  0  0  0
 13 31  1  0  0  0
 14 15  2  0  0  0
 14 96  1  0  0  0
 15 97  1  0  0  0
 16 17  2  0  0  0
 16 21  1  0  0  0
 16 31  1  0  0  0
 17 18  1  0  0  0
 17 98  1  0  0  0
 18 19  2  0  0  0
 18 99  1  0  0  0
 19 20  1  0  0  0
 19 24  1  0  0  0
 20 21  2  0  0  0
 20100  1  0  0  0
 21 23  1  0  0  0
 22 28  1  0  0  0
 22 32  2  0  0  0
 26 27  1  0  0  0
 28101  1  0  0  0
 28102  1  0  0  0
 29103  1  0  0  0
 29104  1  0  0  0
 33 34  1  0  0  0
 33 66  1  0  0  0
 33 70  2  0  0  0
 34 36  1  0  0  0
 34 59  1  0  0  0
 34105  1  0  0  0
 35 44  2  0  0  0
 35 45  1  0  0  0
 35 68  1  0  0  0
 36 56  1  0  0  0
 36106  1  0  0  0
 37 39  1  0  0  0
 37 47  1  0  0  0
 37 66  1  0  0  0
 37107  1  0  0  0
 38 43  2  0  0  0
 38 46  1  0  0  0
 38 47  1  0  0  0
 39 64  1  0  0  0
 39 67  2  0  0  0
 40 52  1  0  0  0
 40 53  2  0  0  0
 40 58  1  0  0  0
 41108  1  0  0  0
 41109  1  0  0  0
 41110  1  0  0  0
 41 48  1  0  0  0
 42 43  1  0  0  0
 42 66  1  0  0  0
 42111  1  0  0  0
 42112  1  0  0  0
 43 44  1  0  0  0
 44113  1  0  0  0
 45 46  2  0  0  0
 45114  1  0  0  0
 46115  1  0  0  0
 47116  1  0  0  0
 47117  1  0  0  0
 48 56  1  0  0  0
 48 65  1  0  0  0
 48118  1  0  0  0
 49 50  1  0  0  0
 49 53  1  0  0  0
 49 64  1  0  0  0
 49119  1  0  0  0
 50 51  1  0  0  0
 50120  1  0  0  0
 50121  1  0  0  0
 51 52  1  0  0  0
 51122  1  0  0  0
 51123  1  0  0  0
 52124  1  0  0  0
 52125  1  0  0  0
 53 54  1  0  0  0
 54 55  2  0  0  0
 54126  1  0  0  0
 55 57  1  0  0  0
 55127  1  0  0  0
 56 69  2  0  0  0
 57 58  2  0  0  0
 57128  1  0  0  0
 58129  1  0  0  0
 59 60  1  0  0  0
 59 61  1  0  0  0
 59 62  1  0  0  0
 60130  1  0  0  0
 60131  1  0  0  0
 60132  1  0  0  0
 61133  1  0  0  0
 61134  1  0  0  0
 61135  1  0  0  0
 62136  1  0  0  0
 62137  1  0  0  0
 62138  1  0  0  0
 63 65  1  0  0  0
 63139  1  0  0  0
 63140  1  0  0  0
 63141  1  0  0  0
 64142  1  0  0  0
 65143  1  0  0  0
 68 81  1  0  0  0
 71 73  2  0  0  0
 71 75  1  0  0  0
 71144  1  0  0  0
 72 74  1  0  0  0
 72 75  2  0  0  0
 72145  1  0  0  0
 73 76  1  0  0  0
 73146  1  0  0  0
 74 76  2  0  0  0
 74147  1  0  0  0
 75 82  1  0  0  0
 76 83  1  0  0  0
 77 78  1  0  0  0
 77 79  1  0  0  0
 77148  1  0  0  0
 77149  1  0  0  0
 78 81  1  0  0  0
 78150  1  0  0  0
 78151  1  0  0  0
 79 84  1  0  0  0
 79152  1  0  0  0
 79153  1  0  0  0
 80 81  1  0  0  0
 80 84  1  0  0  0
 80154  1  0  0  0
 80155  1  0  0  0
 81156  1  0  0  0
 82157  1  0  0  0
 82158  1  0  0  0
 82 84  1  0  0  0
 83159  1  0  0  0
 84160  1  0  0  0
M  CHG  1  84   1
M  ISO  4   1 100  68 101  81 101  83 100
M  END
> <chiral flag>
0

> <version>
0

> <s_m_source_file>
/data/baiqing/PycharmProjects/Reinvent-master-3.2/result/LINK_invent/BTK/process_docking_weight1_custom_product_contain_oxygen_bond_distance_aromatic_linkinvent_7_9_3/rearranged_h_0027.sdf

> <i_m_source_file_index>
31

> <r_mmod_Potential_Energy-OPLS-2005>
-31.0182437896729

> <r_mmod_Stretch_Energy-OPLS-2005>
81.6082458496094

> <r_mmod_Bend_Energy-OPLS-2005>
143.121612548828

> <r_mmod_Torsional_Energy-OPLS-2005>
225.925491333008

> <r_mmod_Improper_Torsional_Energy-OPLS-2005>
3.87973499298096

> <r_mmod_Van_der_Waal_Energy-OPLS-2005>
147.657928466797

> <r_mmod_Electrostatic_Energy-OPLS-2005>
-244.766708374023

> <r_mmod_Solvation_Energy-OPLS-2005>
-433.123168945312

> <b_mmod_Minimization_Converged-OPLS-2005>
0

> <r_mmod_RMS_Derivative-OPLS-2005>
1.76394355297089

$$$$
32
                    3D
 Structure written by MMmdl.
160169  0  0  1  0            999 V2000
  -30.5880  -14.7136   20.4893 C   0  0  0  0  0  0
  -30.4461  -12.4374   19.4650 C   0  0  0  0  0  0
  -29.5141  -12.5161   18.2337 C   0  0  0  0  0  0
  -28.0383  -12.3411   18.6452 C   0  0  0  0  0  0
  -27.6520  -13.2213   19.8632 C   0  0  2  0  0  0
  -28.6967  -13.0998   20.9955 C   0  0  0  0  0  0
  -25.2557  -13.8178   20.5695 C   0  0  0  0  0  0
  -24.1827  -13.0440   20.9198 C   0  0  0  0  0  0
  -24.6400  -11.6912   20.8742 C   0  0  0  0  0  0
  -23.9069  -10.4294   21.0405 C   0  0  0  0  0  0
  -24.3618   -9.4208   21.9182 C   0  0  0  0  0  0
  -23.6292   -8.2245   22.0754 C   0  0  0  0  0  0
  -22.4273   -8.0283   21.3545 C   0  0  0  0  0  0
  -21.9908   -9.0259   20.4648 C   0  0  0  0  0  0
  -22.7240  -10.2136   20.3056 C   0  0  0  0  0  0
  -21.6853   -6.0735   22.5278 C   0  0  0  0  0  0
  -21.4015   -6.5639   23.8212 C   0  0  0  0  0  0
  -21.3659   -5.6792   24.9174 C   0  0  0  0  0  0
  -21.6044   -4.3055   24.7225 C   0  0  0  0  0  0
  -21.8819   -3.8147   23.4346 C   0  0  0  0  0  0
  -21.9193   -4.6963   22.3402 C   0  0  0  0  0  0
  -22.7849  -13.5232   21.1857 C   0  0  0  0  0  0
  -22.1661   -4.2148   21.0979 F   0  0  0  0  0  0
  -21.5627   -3.4539   25.7738 F   0  0  0  0  0  0
  -30.0058  -13.4674   20.4319 N   0  0  0  0  0  0
  -26.2986  -12.9364   20.3321 N   0  0  0  0  0  0
  -25.9331  -11.6516   20.5758 N   0  0  0  0  0  0
  -22.0488  -12.8226   22.0414 N   0  0  0  0  0  0
  -25.4268  -15.1899   20.4105 N   0  0  0  0  0  0
  -31.7447  -14.8847   20.0909 O   0  0  0  0  0  0
  -21.6640   -6.8879   21.4240 O   0  0  0  0  0  0
  -22.3535  -14.5539   20.6705 O   0  0  0  0  0  0
  -24.6307  -31.8562   23.2003 C   0  0  0  0  0  0
  -25.9137  -32.4760   23.8342 C   0  0  1  0  0  0
  -27.2193  -27.2672   20.1273 C   0  0  0  0  0  0
  -25.5936  -33.8563   24.2265 N   0  0  0  0  0  0
  -23.4270  -30.4799   21.5435 C   0  0  2  0  0  0
  -24.8744  -28.9304   20.1102 C   0  0  0  0  0  0
  -22.7499  -29.4605   22.4916 C   0  0  0  0  0  0
  -18.0292  -28.1387   22.8485 C   0  0  0  0  0  0
  -24.1489  -36.7285   23.2639 C   0  0  0  0  0  0
  -25.9731  -30.7693   21.3819 C   0  0  0  0  0  0
  -26.0450  -29.3926   20.7244 C   0  0  0  0  0  0
  -27.2190  -28.5728   20.7246 C   0  0  0  0  0  0
  -26.0317  -26.8868   19.4599 C   0  0  0  0  0  0
  -24.8730  -27.6850   19.4669 C   0  0  0  0  0  0
  -23.6451  -29.8163   20.1588 C   0  0  0  0  0  0
  -25.4115  -36.3073   24.0326 C   0  0  1  0  0  0
  -20.5895  -28.3697   23.1269 C   0  0  2  0  0  0
  -20.6779  -26.9414   22.5408 C   0  0  0  0  0  0
  -19.5754  -26.6384   21.5211 C   0  0  0  0  0  0
  -18.1935  -26.7931   22.1624 C   0  0  0  0  0  0
  -19.1546  -28.8860   23.2873 C   0  0  0  0  0  0
  -18.9466  -30.1461   23.8891 C   0  0  0  0  0  0
  -17.6464  -30.6588   24.0562 C   0  0  0  0  0  0
  -25.9056  -34.9442   23.5098 C   0  0  0  0  0  0
  -16.5356  -29.9085   23.6330 C   0  0  0  0  0  0
  -16.7279  -28.6502   23.0352 C   0  0  0  0  0  0
  -26.4505  -31.6584   25.0730 C   0  0  0  0  0  0
  -25.3727  -31.3739   26.1450 C   0  0  0  0  0  0
  -27.0354  -30.2999   24.6222 C   0  0  0  0  0  0
  -27.6058  -32.4328   25.7503 C   0  0  0  0  0  0
  -27.5578  -37.1800   24.8467 C   0  0  0  0  0  0
  -21.4207  -29.3045   22.3659 N   0  0  0  0  0  0
  -26.4292  -37.3769   23.9406 N   0  0  0  0  0  0
  -24.6958  -31.0530   22.0981 N   0  0  0  0  0  0
  -23.4203  -28.8139   23.3007 O   0  0  0  0  0  0
  -28.3174  -26.3754   20.1853 O   0  0  0  0  0  0
  -26.5624  -34.8914   22.4665 O   0  0  0  0  0  0
  -23.5457  -32.1385   23.7297 O   0  0  0  0  0  0
  -30.4584  -19.4032   19.7481 C   0  0  0  0  0  0
  -30.5232  -17.9735   19.8223 C   0  0  0  0  0  0
  -29.6966  -20.2152   20.6432 C   0  0  0  0  0  0
  -28.9635  -19.4723   21.6269 C   0  0  0  0  0  0
  -29.0093  -18.0242   21.6881 C   0  0  0  0  0  0
  -29.8084  -17.2322   20.7994 C   0  0  0  0  0  0
  -28.6500  -23.9963   21.3368 C   0  0  0  0  0  0
  -28.9647  -23.9105   19.3577 C   0  0  0  0  0  0
  -28.0754  -24.8848   20.1947 C   0  0  2  0  0  0
  -28.1392  -20.2266   22.6662 C   0  0  0  0  0  0
  -28.1933  -17.2720   22.7415 C   0  0  0  0  0  0
  -29.8929  -21.8126   20.6412 C   0  0  0  0  0  0
  -29.7692  -15.7516   20.8882 N   0  0  0  0  0  0
  -28.7789  -22.8429   20.3895 N   0  3  1  0  0  0
  -31.4845  -12.5788   19.1606 H   0  0  0  0  0  0
  -30.4015  -11.4470   19.9206 H   0  0  0  0  0  0
  -29.7903  -11.7558   17.5018 H   0  0  0  0  0  0
  -29.6434  -13.4791   17.7373 H   0  0  0  0  0  0
  -27.8872  -11.2889   18.8892 H   0  0  0  0  0  0
  -27.3820  -12.5539   17.8005 H   0  0  0  0  0  0
  -27.6624  -14.2528   19.5101 H   0  0  0  0  0  0
  -28.7254  -12.0806   21.3835 H   0  0  0  0  0  0
  -28.4284  -13.7315   21.8435 H   0  0  0  0  0  0
  -25.2762   -9.5683   22.4757 H   0  0  0  0  0  0
  -24.0000   -7.4635   22.7473 H   0  0  0  0  0  0
  -21.0838   -8.8779   19.8955 H   0  0  0  0  0  0
  -22.3698  -10.9675   19.6166 H   0  0  0  0  0  0
  -21.2009   -7.6147   23.9715 H   0  0  0  0  0  0
  -21.1479   -6.0522   25.9076 H   0  0  0  0  0  0
  -22.0599   -2.7609   23.2848 H   0  0  0  0  0  0
  -22.4099  -11.9886   22.4802 H   0  0  0  0  0  0
  -21.1107  -13.1254   22.2616 H   0  0  0  0  0  0
  -24.6562  -15.8413   20.5117 H   0  0  0  0  0  0
  -26.2687  -15.6266   20.0576 H   0  0  0  0  0  0
  -26.7201  -32.5413   23.1082 H   0  0  0  0  0  0
  -25.0084  -33.9701   25.0411 H   0  0  0  0  0  0
  -22.7230  -31.3021   21.3988 H   0  0  0  0  0  0
  -23.3750  -35.9620   23.3306 H   0  0  0  0  0  0
  -24.3577  -36.8903   22.2052 H   0  0  0  0  0  0
  -23.7244  -37.6489   23.6660 H   0  0  0  0  0  0
  -26.1131  -31.5298   20.6125 H   0  0  0  0  0  0
  -26.8503  -30.8172   22.0153 H   0  0  0  0  0  0
  -28.1128  -28.9203   21.2235 H   0  0  0  0  0  0
  -25.9682  -25.9571   18.9158 H   0  0  0  0  0  0
  -23.9824  -27.3336   18.9639 H   0  0  0  0  0  0
  -23.7695  -30.5938   19.4043 H   0  0  0  0  0  0
  -22.7635  -29.2500   19.8530 H   0  0  0  0  0  0
  -25.1296  -36.1923   25.0819 H   0  0  0  0  0  0
  -20.9989  -28.3277   24.1389 H   0  0  0  0  0  0
  -20.5675  -26.2308   23.3614 H   0  0  0  0  0  0
  -21.6647  -26.7436   22.1203 H   0  0  0  0  0  0
  -19.6913  -25.6293   21.1245 H   0  0  0  0  0  0
  -19.6690  -27.3191   20.6739 H   0  0  0  0  0  0
  -17.4202  -26.6677   21.4029 H   0  0  0  0  0  0
  -18.0335  -26.0075   22.9022 H   0  0  0  0  0  0
  -19.7941  -30.7280   24.2257 H   0  0  0  0  0  0
  -17.5018  -31.6267   24.5166 H   0  0  0  0  0  0
  -15.5356  -30.2983   23.7658 H   0  0  0  0  0  0
  -15.8679  -28.0819   22.7069 H   0  0  0  0  0  0
  -24.5907  -30.7079   25.7783 H   0  0  0  0  0  0
  -24.8912  -32.2910   26.4854 H   0  0  0  0  0  0
  -25.8043  -30.8935   27.0239 H   0  0  0  0  0  0
  -26.2941  -29.6743   24.1235 H   0  0  0  0  0  0
  -27.4018  -29.7266   25.4748 H   0  0  0  0  0  0
  -27.8828  -30.4269   23.9481 H   0  0  0  0  0  0
  -27.2664  -33.3631   26.2069 H   0  0  0  0  0  0
  -28.3874  -32.6883   25.0336 H   0  0  0  0  0  0
  -28.0720  -31.8462   26.5429 H   0  0  0  0  0  0
  -28.2601  -38.0091   24.7502 H   0  0  0  0  0  0
  -28.1068  -36.2621   24.6308 H   0  0  0  0  0  0
  -27.2295  -37.1469   25.8870 H   0  0  0  0  0  0
  -20.9391  -29.8775   21.6871 H   0  0  0  0  0  0
  -26.0173  -38.2846   24.1399 H   0  0  0  0  0  0
  -31.0623  -19.8884   18.9935 H   0  0  0  0  0  0
  -31.1357  -17.4467   19.1036 H   0  0  0  0  0  0
  -27.9546  -23.8138   22.1562 H   0  0  0  0  0  0
  -29.6107  -24.3543   21.7145 H   0  0  0  0  0  0
  -29.9997  -24.2473   19.2654 H   0  0  0  0  0  0
  -28.5521  -23.6487   18.3834 H   0  0  0  0  0  0
  -27.0239  -24.6215   20.0875 H   0  0  0  0  0  0
  -28.1143  -21.3013   22.5150 H   0  0  0  0  0  0
  -28.5460  -20.0609   23.6645 H   0  0  0  0  0  0
  -27.1036  -19.8844   22.6549 H   0  0  0  0  0  0
  -27.8609  -17.8852   23.5755 H   0  0  0  0  0  0
  -28.7794  -16.4687   23.1886 H   0  0  0  0  0  0
  -27.3080  -16.8305   22.2831 H   0  0  0  0  0  0
  -30.6882  -22.0328   19.9293 H   0  0  0  0  0  0
  -30.3368  -22.0516   21.6077 H   0  0  0  0  0  0
  -28.9190  -15.4013   21.3007 H   0  0  0  0  0  0
  -27.8899  -22.3861   20.2589 H   0  0  0  0  0  0
  1 25  1  0  0  0
  1 30  2  0  0  0
  1 83  1  0  0  0
  2  3  1  0  0  0
  2 25  1  0  0  0
  2 85  1  0  0  0
  2 86  1  0  0  0
  3  4  1  0  0  0
  3 87  1  0  0  0
  3 88  1  0  0  0
  4  5  1  0  0  0
  4 89  1  0  0  0
  4 90  1  0  0  0
  5  6  1  0  0  0
  5 26  1  0  0  0
  5 91  1  0  0  0
  6 25  1  0  0  0
  6 92  1  0  0  0
  6 93  1  0  0  0
  7  8  2  0  0  0
  7 26  1  0  0  0
  7 29  1  0  0  0
  8  9  1  0  0  0
  8 22  1  0  0  0
  9 10  1  0  0  0
  9 27  2  0  0  0
 10 11  2  0  0  0
 10 15  1  0  0  0
 11 12  1  0  0  0
 11 94  1  0  0  0
 12 13  2  0  0  0
 12 95  1  0  0  0
 13 14  1  0  0  0
 13 31  1  0  0  0
 14 15  2  0  0  0
 14 96  1  0  0  0
 15 97  1  0  0  0
 16 17  2  0  0  0
 16 21  1  0  0  0
 16 31  1  0  0  0
 17 18  1  0  0  0
 17 98  1  0  0  0
 18 19  2  0  0  0
 18 99  1  0  0  0
 19 20  1  0  0  0
 19 24  1  0  0  0
 20 21  2  0  0  0
 20100  1  0  0  0
 21 23  1  0  0  0
 22 28  1  0  0  0
 22 32  2  0  0  0
 26 27  1  0  0  0
 28101  1  0  0  0
 28102  1  0  0  0
 29103  1  0  0  0
 29104  1  0  0  0
 33 34  1  0  0  0
 33 66  1  0  0  0
 33 70  2  0  0  0
 34 36  1  0  0  0
 34 59  1  0  0  0
 34105  1  0  0  0
 35 44  2  0  0  0
 35 45  1  0  0  0
 35 68  1  0  0  0
 36 56  1  0  0  0
 36106  1  0  0  0
 37 39  1  0  0  0
 37 47  1  0  0  0
 37 66  1  0  0  0
 37107  1  0  0  0
 38 43  2  0  0  0
 38 46  1  0  0  0
 38 47  1  0  0  0
 39 64  1  0  0  0
 39 67  2  0  0  0
 40 52  1  0  0  0
 40 53  2  0  0  0
 40 58  1  0  0  0
 41108  1  0  0  0
 41109  1  0  0  0
 41110  1  0  0  0
 41 48  1  0  0  0
 42 43  1  0  0  0
 42 66  1  0  0  0
 42111  1  0  0  0
 42112  1  0  0  0
 43 44  1  0  0  0
 44113  1  0  0  0
 45 46  2  0  0  0
 45114  1  0  0  0
 46115  1  0  0  0
 47116  1  0  0  0
 47117  1  0  0  0
 48 56  1  0  0  0
 48 65  1  0  0  0
 48118  1  0  0  0
 49 50  1  0  0  0
 49 53  1  0  0  0
 49 64  1  0  0  0
 49119  1  0  0  0
 50 51  1  0  0  0
 50120  1  0  0  0
 50121  1  0  0  0
 51 52  1  0  0  0
 51122  1  0  0  0
 51123  1  0  0  0
 52124  1  0  0  0
 52125  1  0  0  0
 53 54  1  0  0  0
 54 55  2  0  0  0
 54126  1  0  0  0
 55 57  1  0  0  0
 55127  1  0  0  0
 56 69  2  0  0  0
 57 58  2  0  0  0
 57128  1  0  0  0
 58129  1  0  0  0
 59 60  1  0  0  0
 59 61  1  0  0  0
 59 62  1  0  0  0
 60130  1  0  0  0
 60131  1  0  0  0
 60132  1  0  0  0
 61133  1  0  0  0
 61134  1  0  0  0
 61135  1  0  0  0
 62136  1  0  0  0
 62137  1  0  0  0
 62138  1  0  0  0
 63 65  1  0  0  0
 63139  1  0  0  0
 63140  1  0  0  0
 63141  1  0  0  0
 64142  1  0  0  0
 65143  1  0  0  0
 68 79  1  0  0  0
 71 72  2  0  0  0
 71 73  1  0  0  0
 71144  1  0  0  0
 72 76  1  0  0  0
 72145  1  0  0  0
 73 74  2  0  0  0
 73 82  1  0  0  0
 74 75  1  0  0  0
 74 80  1  0  0  0
 75 76  2  0  0  0
 75 81  1  0  0  0
 76 83  1  0  0  0
 77 79  1  0  0  0
 77 84  1  0  0  0
 77146  1  0  0  0
 77147  1  0  0  0
 78 79  1  0  0  0
 78 84  1  0  0  0
 78148  1  0  0  0
 78149  1  0  0  0
 79150  1  0  0  0
 80151  1  0  0  0
 80152  1  0  0  0
 80153  1  0  0  0
 81154  1  0  0  0
 81155  1  0  0  0
 81156  1  0  0  0
 82157  1  0  0  0
 82158  1  0  0  0
 82 84  1  0  0  0
 83159  1  0  0  0
 84160  1  0  0  0
M  CHG  1  84   1
M  ISO  4   1 100  68 101  79 101  83 100
M  END
> <chiral flag>
0

> <version>
0

> <s_m_source_file>
/data/baiqing/PycharmProjects/Reinvent-master-3.2/result/LINK_invent/BTK/process_docking_weight1_custom_product_contain_oxygen_bond_distance_aromatic_linkinvent_7_9_3/rearranged_h_0027.sdf

> <i_m_source_file_index>
32

> <r_mmod_Potential_Energy-OPLS-2005>
-34.4198265075684

> <r_mmod_Stretch_Energy-OPLS-2005>
113.463043212891

> <r_mmod_Bend_Energy-OPLS-2005>
195.503936767578

> <r_mmod_Torsional_Energy-OPLS-2005>
237.091735839844

> <r_mmod_Improper_Torsional_Energy-OPLS-2005>
4.56192922592163

> <r_mmod_Van_der_Waal_Energy-OPLS-2005>
150.494094848633

> <r_mmod_Electrostatic_Energy-OPLS-2005>
-340.432769775391

> <r_mmod_Solvation_Energy-OPLS-2005>
-470.812835693359

> <b_mmod_Minimization_Converged-OPLS-2005>
0

> <r_mmod_RMS_Derivative-OPLS-2005>
0.247817024588585

$$$$
33
                    3D
 Structure written by MMmdl.
155164  0  0  1  0            999 V2000
  -30.5248  -14.8641   20.5365 C   0  0  0  0  0  0
  -30.4483  -12.5658   19.4722 C   0  0  0  0  0  0
  -29.5248  -12.5712   18.2331 C   0  0  0  0  0  0
  -28.0494  -12.3640   18.6425 C   0  0  0  0  0  0
  -27.6382  -13.2435   19.8505 C   0  0  2  0  0  0
  -28.6763  -13.1608   20.9861 C   0  0  0  0  0  0
  -25.2511  -13.8241   20.5664 C   0  0  0  0  0  0
  -24.1828  -13.0467   20.9202 C   0  0  0  0  0  0
  -24.6406  -11.6951   20.8684 C   0  0  0  0  0  0
  -23.9090  -10.4317   21.0383 C   0  0  0  0  0  0
  -24.3655   -9.4246   21.9157 C   0  0  0  0  0  0
  -23.6360   -8.2261   22.0733 C   0  0  0  0  0  0
  -22.4320   -8.0277   21.3533 C   0  0  0  0  0  0
  -21.9950   -9.0260   20.4619 C   0  0  0  0  0  0
  -22.7282  -10.2141   20.3043 C   0  0  0  0  0  0
  -21.6907   -6.0731   22.5262 C   0  0  0  0  0  0
  -21.4027   -6.5638   23.8194 C   0  0  0  0  0  0
  -21.3658   -5.6789   24.9149 C   0  0  0  0  0  0
  -21.6036   -4.3051   24.7204 C   0  0  0  0  0  0
  -21.8853   -3.8147   23.4351 C   0  0  0  0  0  0
  -21.9223   -4.6957   22.3395 C   0  0  0  0  0  0
  -22.7824  -13.5219   21.1816 C   0  0  0  0  0  0
  -22.1686   -4.2152   21.0984 F   0  0  0  0  0  0
  -21.5635   -3.4519   25.7717 F   0  0  0  0  0  0
  -29.9552  -13.6052   20.4133 N   0  0  0  0  0  0
  -26.2924  -12.9437   20.3207 N   0  0  0  0  0  0
  -25.9322  -11.6570   20.5649 N   0  0  0  0  0  0
  -22.0535  -12.8153   22.0343 N   0  0  0  0  0  0
  -25.4275  -15.1944   20.4053 N   0  0  0  0  0  0
  -31.7277  -14.9897   20.2681 O   0  0  0  0  0  0
  -21.6706   -6.8872   21.4227 O   0  0  0  0  0  0
  -22.3509  -14.5529   20.6665 O   0  0  0  0  0  0
  -24.6347  -31.8407   23.1954 C   0  0  0  0  0  0
  -25.9110  -32.4722   23.8330 C   0  0  1  0  0  0
  -27.2307  -27.1958   20.1320 C   0  0  0  0  0  0
  -25.5833  -33.8556   24.2226 N   0  0  0  0  0  0
  -23.4423  -30.4597   21.5329 C   0  0  2  0  0  0
  -24.8953  -28.8952   20.1029 C   0  0  0  0  0  0
  -22.7547  -29.4482   22.4824 C   0  0  0  0  0  0
  -18.0336  -28.1386   22.8443 C   0  0  0  0  0  0
  -24.1465  -36.7312   23.2670 C   0  0  0  0  0  0
  -25.9910  -30.7326   21.3866 C   0  0  0  0  0  0
  -26.0641  -29.3510   20.7265 C   0  0  0  0  0  0
  -27.2296  -28.5100   20.7292 C   0  0  0  0  0  0
  -26.0375  -26.8194   19.4766 C   0  0  0  0  0  0
  -24.8912  -27.6432   19.4626 C   0  0  0  0  0  0
  -23.6677  -29.7897   20.1497 C   0  0  0  0  0  0
  -25.4094  -36.3101   24.0349 C   0  0  1  0  0  0
  -20.5930  -28.3655   23.1217 C   0  0  2  0  0  0
  -20.6779  -26.9349   22.5392 C   0  0  0  0  0  0
  -19.5827  -26.6389   21.5109 C   0  0  0  0  0  0
  -18.1978  -26.7998   22.1464 C   0  0  0  0  0  0
  -19.1585  -28.8813   23.2858 C   0  0  0  0  0  0
  -18.9489  -30.1403   23.8887 C   0  0  0  0  0  0
  -17.6506  -30.6516   24.0625 C   0  0  0  0  0  0
  -25.9012  -34.9452   23.5086 C   0  0  0  0  0  0
  -16.5408  -29.9044   23.6353 C   0  0  0  0  0  0
  -16.7328  -28.6495   23.0321 C   0  0  0  0  0  0
  -26.4468  -31.6614   25.0763 C   0  0  0  0  0  0
  -25.3746  -31.3718   26.1525 C   0  0  0  0  0  0
  -27.0321  -30.3022   24.6314 C   0  0  0  0  0  0
  -27.5953  -32.4436   25.7579 C   0  0  0  0  0  0
  -27.5575  -37.1823   24.8462 C   0  0  0  0  0  0
  -21.4238  -29.2991   22.3562 N   0  0  0  0  0  0
  -26.4295  -37.3771   23.9372 N   0  0  0  0  0  0
  -24.7078  -31.0321   22.0938 N   0  0  0  0  0  0
  -23.4158  -28.8046   23.3006 O   0  0  0  0  0  0
  -28.3186  -26.2782   20.2420 O   0  0  0  0  0  0
  -26.5663  -34.8908   22.4699 O   0  0  0  0  0  0
  -23.5451  -32.1286   23.7144 O   0  0  0  0  0  0
  -30.0661  -19.0880   22.8968 C   0  0  0  0  0  0
  -30.1492  -17.7612   22.3986 C   0  0  0  0  0  0
  -29.3207  -18.5957   20.2901 C   0  0  0  0  0  0
  -29.6475  -20.1916   22.1113 C   0  0  0  0  0  0
  -29.2643  -19.9942   20.7573 C   0  0  0  0  0  0
  -29.7821  -17.4350   21.0694 C   0  0  0  0  0  0
  -27.5902  -23.6431   20.2211 C   0  0  0  0  0  0
  -29.5939  -23.9283   19.8634 C   0  0  0  0  0  0
  -28.3764  -24.8888   19.6040 C   0  0  2  0  0  0
  -29.5814  -21.5635   22.7759 C   0  0  0  0  0  0
  -28.7506  -21.2181   19.8208 C   0  0  0  0  0  0
  -28.6767  -22.7502   20.1000 N   0  0  0  0  0  0
  -29.6612  -15.9726   20.6705 N   0  0  0  0  0  0
  -26.4430  -23.4103   20.5273 O   0  0  0  0  0  0
  -31.4814  -12.7611   19.1711 H   0  0  0  0  0  0
  -30.4416  -11.5852   19.9456 H   0  0  0  0  0  0
  -29.8327  -11.7950   17.5291 H   0  0  0  0  0  0
  -29.6301  -13.5220   17.7084 H   0  0  0  0  0  0
  -27.9153  -11.3115   18.9011 H   0  0  0  0  0  0
  -27.3957  -12.5612   17.7922 H   0  0  0  0  0  0
  -27.6301  -14.2723   19.4891 H   0  0  0  0  0  0
  -28.7501  -12.1386   21.3615 H   0  0  0  0  0  0
  -28.3789  -13.7742   21.8401 H   0  0  0  0  0  0
  -25.2787   -9.5803   22.4714 H   0  0  0  0  0  0
  -24.0060   -7.4702   22.7488 H   0  0  0  0  0  0
  -21.0855   -8.8850   19.8941 H   0  0  0  0  0  0
  -22.3736  -10.9700   19.6168 H   0  0  0  0  0  0
  -21.2013   -7.6153   23.9673 H   0  0  0  0  0  0
  -21.1437   -6.0526   25.9053 H   0  0  0  0  0  0
  -22.0629   -2.7610   23.2852 H   0  0  0  0  0  0
  -22.4234  -11.9780   22.4644 H   0  0  0  0  0  0
  -21.1149  -13.1106   22.2609 H   0  0  0  0  0  0
  -24.6838  -15.8630   20.5751 H   0  0  0  0  0  0
  -26.2540  -15.6214   20.0038 H   0  0  0  0  0  0
  -26.7183  -32.5367   23.1073 H   0  0  0  0  0  0
  -24.9851  -33.9669   25.0304 H   0  0  0  0  0  0
  -22.7398  -31.2797   21.3778 H   0  0  0  0  0  0
  -23.3731  -35.9649   23.3369 H   0  0  0  0  0  0
  -24.3475  -36.8910   22.2062 H   0  0  0  0  0  0
  -23.7247  -37.6520   23.6698 H   0  0  0  0  0  0
  -26.1352  -31.4912   20.6154 H   0  0  0  0  0  0
  -26.8648  -30.7764   22.0243 H   0  0  0  0  0  0
  -28.1300  -28.8395   21.2278 H   0  0  0  0  0  0
  -25.9510  -25.8576   18.9925 H   0  0  0  0  0  0
  -23.9937  -27.2956   18.9644 H   0  0  0  0  0  0
  -23.7992  -30.5620   19.3901 H   0  0  0  0  0  0
  -22.7891  -29.2176   19.8468 H   0  0  0  0  0  0
  -25.1293  -36.1966   25.0860 H   0  0  0  0  0  0
  -21.0039  -28.3216   24.1350 H   0  0  0  0  0  0
  -21.6682  -26.7235   22.1289 H   0  0  0  0  0  0
  -20.5476  -26.2282   23.3609 H   0  0  0  0  0  0
  -19.6927  -25.6313   21.1074 H   0  0  0  0  0  0
  -19.6781  -27.3225   20.6657 H   0  0  0  0  0  0
  -17.4303  -26.6950   21.3789 H   0  0  0  0  0  0
  -18.0152  -26.0047   22.8677 H   0  0  0  0  0  0
  -19.7939  -30.7257   24.2237 H   0  0  0  0  0  0
  -17.4998  -31.6157   24.5281 H   0  0  0  0  0  0
  -15.5390  -30.2923   23.7668 H   0  0  0  0  0  0
  -15.8752  -28.0862   22.6979 H   0  0  0  0  0  0
  -24.5869  -30.7118   25.7866 H   0  0  0  0  0  0
  -24.9046  -32.2877   26.5122 H   0  0  0  0  0  0
  -25.8145  -30.8784   27.0211 H   0  0  0  0  0  0
  -26.2880  -29.6751   24.1381 H   0  0  0  0  0  0
  -27.3951  -29.7299   25.4851 H   0  0  0  0  0  0
  -27.8799  -30.4208   23.9568 H   0  0  0  0  0  0
  -27.2424  -33.3660   26.2201 H   0  0  0  0  0  0
  -28.3761  -32.7141   25.0480 H   0  0  0  0  0  0
  -28.0657  -31.8611   26.5494 H   0  0  0  0  0  0
  -28.2632  -38.0080   24.7416 H   0  0  0  0  0  0
  -28.1026  -36.2591   24.6430 H   0  0  0  0  0  0
  -27.2240  -37.1650   25.8854 H   0  0  0  0  0  0
  -20.9389  -29.8778   21.6840 H   0  0  0  0  0  0
  -26.0197  -38.2856   24.1362 H   0  0  0  0  0  0
  -30.3145  -19.2574   23.9422 H   0  0  0  0  0  0
  -30.4291  -16.9854   23.1025 H   0  0  0  0  0  0
  -28.9730  -18.4126   19.2857 H   0  0  0  0  0  0
  -30.1780  -24.2045   20.7453 H   0  0  0  0  0  0
  -30.2447  -23.8172   18.9930 H   0  0  0  0  0  0
  -28.2197  -24.9831   18.5266 H   0  0  0  0  0  0
  -29.7868  -21.5136   23.8468 H   0  0  0  0  0  0
  -28.5906  -22.0034   22.6670 H   0  0  0  0  0  0
  -30.3131  -22.2427   22.3366 H   0  0  0  0  0  0
  -27.7450  -20.9270   19.5117 H   0  0  0  0  0  0
  -29.3317  -21.1291   18.8978 H   0  0  0  0  0  0
  -28.6996  -15.6770   20.6014 H   0  0  0  0  0  0
  1 25  1  0  0  0
  1 30  2  0  0  0
  1 83  1  0  0  0
  2  3  1  0  0  0
  2 25  1  0  0  0
  2 85  1  0  0  0
  2 86  1  0  0  0
  3  4  1  0  0  0
  3 87  1  0  0  0
  3 88  1  0  0  0
  4  5  1  0  0  0
  4 89  1  0  0  0
  4 90  1  0  0  0
  5  6  1  0  0  0
  5 26  1  0  0  0
  5 91  1  0  0  0
  6 25  1  0  0  0
  6 92  1  0  0  0
  6 93  1  0  0  0
  7  8  2  0  0  0
  7 26  1  0  0  0
  7 29  1  0  0  0
  8  9  1  0  0  0
  8 22  1  0  0  0
  9 10  1  0  0  0
  9 27  2  0  0  0
 10 11  2  0  0  0
 10 15  1  0  0  0
 11 12  1  0  0  0
 11 94  1  0  0  0
 12 13  2  0  0  0
 12 95  1  0  0  0
 13 14  1  0  0  0
 13 31  1  0  0  0
 14 15  2  0  0  0
 14 96  1  0  0  0
 15 97  1  0  0  0
 16 17  2  0  0  0
 16 21  1  0  0  0
 16 31  1  0  0  0
 17 18  1  0  0  0
 17 98  1  0  0  0
 18 19  2  0  0  0
 18 99  1  0  0  0
 19 20  1  0  0  0
 19 24  1  0  0  0
 20 21  2  0  0  0
 20100  1  0  0  0
 21 23  1  0  0  0
 22 28  1  0  0  0
 22 32  2  0  0  0
 26 27  1  0  0  0
 28101  1  0  0  0
 28102  1  0  0  0
 29103  1  0  0  0
 29104  1  0  0  0
 33 34  1  0  0  0
 33 66  1  0  0  0
 33 70  2  0  0  0
 34 36  1  0  0  0
 34 59  1  0  0  0
 34105  1  0  0  0
 35 44  2  0  0  0
 35 45  1  0  0  0
 35 68  1  0  0  0
 36 56  1  0  0  0
 36106  1  0  0  0
 37 39  1  0  0  0
 37 47  1  0  0  0
 37 66  1  0  0  0
 37107  1  0  0  0
 38 43  2  0  0  0
 38 46  1  0  0  0
 38 47  1  0  0  0
 39 64  1  0  0  0
 39 67  2  0  0  0
 40 52  1  0  0  0
 40 53  2  0  0  0
 40 58  1  0  0  0
 41108  1  0  0  0
 41109  1  0  0  0
 41110  1  0  0  0
 41 48  1  0  0  0
 42 43  1  0  0  0
 42 66  1  0  0  0
 42111  1  0  0  0
 42112  1  0  0  0
 43 44  1  0  0  0
 44113  1  0  0  0
 45 46  2  0  0  0
 45114  1  0  0  0
 46115  1  0  0  0
 47116  1  0  0  0
 47117  1  0  0  0
 48 56  1  0  0  0
 48 65  1  0  0  0
 48118  1  0  0  0
 49 50  1  0  0  0
 49 53  1  0  0  0
 49 64  1  0  0  0
 49119  1  0  0  0
 50 51  1  0  0  0
 50120  1  0  0  0
 50121  1  0  0  0
 51 52  1  0  0  0
 51122  1  0  0  0
 51123  1  0  0  0
 52124  1  0  0  0
 52125  1  0  0  0
 53 54  1  0  0  0
 54 55  2  0  0  0
 54126  1  0  0  0
 55 57  1  0  0  0
 55127  1  0  0  0
 56 69  2  0  0  0
 57 58  2  0  0  0
 57128  1  0  0  0
 58129  1  0  0  0
 59 60  1  0  0  0
 59 61  1  0  0  0
 59 62  1  0  0  0
 60130  1  0  0  0
 60131  1  0  0  0
 60132  1  0  0  0
 61133  1  0  0  0
 61134  1  0  0  0
 61135  1  0  0  0
 62136  1  0  0  0
 62137  1  0  0  0
 62138  1  0  0  0
 63 65  1  0  0  0
 63139  1  0  0  0
 63140  1  0  0  0
 63141  1  0  0  0
 64142  1  0  0  0
 65143  1  0  0  0
 68 79  1  0  0  0
 71 72  2  0  0  0
 71 74  1  0  0  0
 71144  1  0  0  0
 72 76  1  0  0  0
 72145  1  0  0  0
 73 75  1  0  0  0
 73 76  2  0  0  0
 73146  1  0  0  0
 74 75  2  0  0  0
 74 80  1  0  0  0
 75 81  1  0  0  0
 76 83  1  0  0  0
 77 79  1  0  0  0
 77 82  1  0  0  0
 77 84  2  0  0  0
 78 79  1  0  0  0
 78 82  1  0  0  0
 78147  1  0  0  0
 78148  1  0  0  0
 79149  1  0  0  0
 80150  1  0  0  0
 80151  1  0  0  0
 80152  1  0  0  0
 81 82  1  0  0  0
 81153  1  0  0  0
 81154  1  0  0  0
 83155  1  0  0  0
M  ISO  4   1 100  68 101  79 101  83 100
M  END
> <chiral flag>
0

> <version>
0

> <s_m_source_file>
/data/baiqing/PycharmProjects/Reinvent-master-3.2/result/LINK_invent/BTK/process_docking_weight1_custom_product_contain_oxygen_bond_distance_aromatic_linkinvent_7_9_3/rearranged_h_0027.sdf

> <i_m_source_file_index>
33

> <r_mmod_Potential_Energy-OPLS-2005>
338.577606201172

> <r_mmod_Stretch_Energy-OPLS-2005>
175.375335693359

> <r_mmod_Bend_Energy-OPLS-2005>
232.055419921875

> <r_mmod_Torsional_Energy-OPLS-2005>
252.568328857422

> <r_mmod_Improper_Torsional_Energy-OPLS-2005>
11.8668251037598

> <r_mmod_Van_der_Waal_Energy-OPLS-2005>
123.353904724121

> <r_mmod_Electrostatic_Energy-OPLS-2005>
-362.653411865234

> <r_mmod_Solvation_Energy-OPLS-2005>
-236.134231567383

> <b_mmod_Minimization_Converged-OPLS-2005>
0

> <r_mmod_RMS_Derivative-OPLS-2005>
9.32641410827637

$$$$
34
                    3D
 Structure written by MMmdl.
163172  0  0  1  0            999 V2000
  -30.6243  -14.6674   20.4349 C   0  0  0  0  0  0
  -30.4456  -12.3969   19.4411 C   0  0  0  0  0  0
  -29.5109  -12.5052   18.2150 C   0  0  0  0  0  0
  -28.0362  -12.3386   18.6382 C   0  0  0  0  0  0
  -27.6588  -13.2165   19.8630 C   0  0  2  0  0  0
  -28.7163  -13.0966   20.9871 C   0  0  0  0  0  0
  -25.2628  -13.8163   20.5751 C   0  0  0  0  0  0
  -24.1866  -13.0418   20.9163 C   0  0  0  0  0  0
  -24.6442  -11.6894   20.8713 C   0  0  0  0  0  0
  -23.9104  -10.4275   21.0393 C   0  0  0  0  0  0
  -24.3632   -9.4199   21.9188 C   0  0  0  0  0  0
  -23.6289   -8.2249   22.0762 C   0  0  0  0  0  0
  -22.4288   -8.0288   21.3544 C   0  0  0  0  0  0
  -21.9931   -9.0264   20.4659 C   0  0  0  0  0  0
  -22.7261  -10.2137   20.3061 C   0  0  0  0  0  0
  -21.6866   -6.0747   22.5279 C   0  0  0  0  0  0
  -21.4019   -6.5644   23.8211 C   0  0  0  0  0  0
  -21.3651   -5.6787   24.9159 C   0  0  0  0  0  0
  -21.6042   -4.3058   24.7215 C   0  0  0  0  0  0
  -21.8813   -3.8160   23.4336 C   0  0  0  0  0  0
  -21.9187   -4.6977   22.3396 C   0  0  0  0  0  0
  -22.7886  -13.5239   21.1793 C   0  0  0  0  0  0
  -22.1654   -4.2164   21.0971 F   0  0  0  0  0  0
  -21.5622   -3.4539   25.7730 F   0  0  0  0  0  0
  -30.0239  -13.4335   20.4041 N   0  0  0  0  0  0
  -26.3057  -12.9350   20.3389 N   0  0  0  0  0  0
  -25.9392  -11.6499   20.5794 N   0  0  0  0  0  0
  -22.0514  -12.8233   22.0343 N   0  0  0  0  0  0
  -25.4275  -15.1891   20.4286 N   0  0  0  0  0  0
  -31.8006  -14.8141   20.1019 O   0  0  0  0  0  0
  -21.6637   -6.8893   21.4246 O   0  0  0  0  0  0
  -22.3569  -14.5542   20.6655 O   0  0  0  0  0  0
  -24.6280  -31.8565   23.1940 C   0  0  0  0  0  0
  -25.9132  -32.4748   23.8254 C   0  0  1  0  0  0
  -27.2496  -27.3153   20.1014 C   0  0  0  0  0  0
  -25.5929  -33.8542   24.2209 N   0  0  0  0  0  0
  -23.4257  -30.4763   21.5404 C   0  0  2  0  0  0
  -24.8770  -28.9235   20.1128 C   0  0  0  0  0  0
  -22.7463  -29.4632   22.4920 C   0  0  0  0  0  0
  -18.0290  -28.1386   22.8451 C   0  0  0  0  0  0
  -24.1527  -36.7272   23.2630 C   0  0  0  0  0  0
  -25.9658  -30.7823   21.3703 C   0  0  0  0  0  0
  -26.0457  -29.4086   20.7137 C   0  0  0  0  0  0
  -27.2371  -28.6193   20.6913 C   0  0  0  0  0  0
  -26.0618  -26.8928   19.4638 C   0  0  0  0  0  0
  -24.8892  -27.6725   19.4733 C   0  0  0  0  0  0
  -23.6426  -29.8025   20.1600 C   0  0  0  0  0  0
  -25.4140  -36.3073   24.0327 C   0  0  1  0  0  0
  -20.5872  -28.3734   23.1242 C   0  0  2  0  0  0
  -20.6804  -26.9463   22.5388 C   0  0  0  0  0  0
  -19.5792  -26.6414   21.5183 C   0  0  0  0  0  0
  -18.1952  -26.7930   22.1574 C   0  0  0  0  0  0
  -19.1528  -28.8880   23.2845 C   0  0  0  0  0  0
  -18.9466  -30.1465   23.8884 C   0  0  0  0  0  0
  -17.6476  -30.6598   24.0591 C   0  0  0  0  0  0
  -25.9078  -34.9447   23.5091 C   0  0  0  0  0  0
  -16.5382  -29.9093   23.6342 C   0  0  0  0  0  0
  -16.7278  -28.6521   23.0325 C   0  0  0  0  0  0
  -26.4522  -31.6527   25.0605 C   0  0  0  0  0  0
  -25.3688  -31.3641   26.1267 C   0  0  0  0  0  0
  -27.0379  -30.2953   24.6050 C   0  0  0  0  0  0
  -27.6129  -32.4254   25.7298 C   0  0  0  0  0  0
  -27.5624  -37.1752   24.8441 C   0  0  0  0  0  0
  -21.4178  -29.3086   22.3648 N   0  0  0  0  0  0
  -26.4302  -37.3792   23.9454 N   0  0  0  0  0  0
  -24.6918  -31.0532   22.0934 N   0  0  0  0  0  0
  -23.4137  -28.8163   23.3035 O   0  0  0  0  0  0
  -28.3651  -26.4587   20.1037 O   0  0  0  0  0  0
  -26.5656  -34.8956   22.4660 O   0  0  0  0  0  0
  -23.5446  -32.1391   23.7244 O   0  0  0  0  0  0
  -28.7654  -19.4002   20.8159 C   0  0  0  0  0  0
  -31.0323  -17.9164   20.0950 C   0  0  0  0  0  0
  -29.9306  -20.1495   20.4741 C   0  0  0  0  0  0
  -29.8907  -17.1855   20.5119 C   0  0  0  0  0  0
  -28.7473  -17.9693   20.8166 C   0  0  0  0  0  0
  -31.0454  -19.3467   20.0591 C   0  0  0  0  0  0
  -29.1434  -22.6459   20.8450 C   0  0  0  0  0  0
  -29.0745  -23.8625   20.1706 C   0  0  0  0  0  0
  -28.5704  -22.4738   22.2417 C   0  0  0  0  0  0
  -29.7135  -21.7898   23.0100 C   0  0  0  0  0  0
  -30.8118  -21.6560   21.9466 C   0  0  0  0  0  0
  -29.4383  -24.0084   17.6066 C   0  0  0  0  0  0
  -30.0294  -24.1687   19.0171 C   0  0  0  0  0  0
  -28.1454  -25.0769   20.6101 C   0  0  0  0  0  0
  -30.0922  -21.5855   20.6763 N   0  0  0  0  0  0
  -29.7759  -15.7260   20.6428 N   0  0  0  0  0  0
  -27.6036  -17.3168   21.1386 F   0  0  0  0  0  0
  -32.5014  -20.1119   19.5233 Cl  0  0  0  0  0  0
  -31.4877  -12.5096   19.1394 H   0  0  0  0  0  0
  -30.3713  -11.4048   19.8916 H   0  0  0  0  0  0
  -29.7728  -11.7493   17.4732 H   0  0  0  0  0  0
  -29.6466  -13.4712   17.7264 H   0  0  0  0  0  0
  -27.8843  -11.2855   18.8774 H   0  0  0  0  0  0
  -27.3742  -12.5571   17.7997 H   0  0  0  0  0  0
  -27.6651  -14.2470   19.5105 H   0  0  0  0  0  0
  -28.7406  -12.0849   21.3970 H   0  0  0  0  0  0
  -28.4797  -13.7508   21.8279 H   0  0  0  0  0  0
  -25.2794   -9.5672   22.4744 H   0  0  0  0  0  0
  -24.0001   -7.4655   22.7508 H   0  0  0  0  0  0
  -21.0853   -8.8794   19.8973 H   0  0  0  0  0  0
  -22.3738  -10.9671   19.6163 H   0  0  0  0  0  0
  -21.2025   -7.6157   23.9724 H   0  0  0  0  0  0
  -21.1470   -6.0515   25.9058 H   0  0  0  0  0  0
  -22.0603   -2.7629   23.2831 H   0  0  0  0  0  0
  -22.4104  -11.9901   22.4741 H   0  0  0  0  0  0
  -21.1140  -13.1302   22.2546 H   0  0  0  0  0  0
  -24.6658  -15.8335   20.6127 H   0  0  0  0  0  0
  -26.3001  -15.6686   20.2413 H   0  0  0  0  0  0
  -26.7159  -32.5460   23.0953 H   0  0  0  0  0  0
  -25.0102  -33.9681   25.0372 H   0  0  0  0  0  0
  -22.7275  -31.3008   21.3876 H   0  0  0  0  0  0
  -23.3850  -35.9536   23.3198 H   0  0  0  0  0  0
  -24.3653  -36.8976   22.2070 H   0  0  0  0  0  0
  -23.7219  -37.6419   23.6706 H   0  0  0  0  0  0
  -26.0928  -31.5452   20.6014 H   0  0  0  0  0  0
  -26.8485  -30.8322   21.9952 H   0  0  0  0  0  0
  -28.1433  -28.9951   21.1459 H   0  0  0  0  0  0
  -26.0395  -25.9473   18.9411 H   0  0  0  0  0  0
  -24.0046  -27.3040   18.9727 H   0  0  0  0  0  0
  -23.7643  -30.5802   19.4057 H   0  0  0  0  0  0
  -22.7638  -29.2315   19.8551 H   0  0  0  0  0  0
  -25.1306  -36.1900   25.0804 H   0  0  0  0  0  0
  -20.9955  -28.3364   24.1364 H   0  0  0  0  0  0
  -20.5699  -26.2379   23.3597 H   0  0  0  0  0  0
  -21.6681  -26.7508   22.1186 H   0  0  0  0  0  0
  -19.7006  -25.6315   21.1238 H   0  0  0  0  0  0
  -19.6740  -27.3215   20.6687 H   0  0  0  0  0  0
  -17.4235  -26.6671   21.3971 H   0  0  0  0  0  0
  -18.0379  -26.0022   22.8918 H   0  0  0  0  0  0
  -19.7955  -30.7275   24.2238 H   0  0  0  0  0  0
  -17.5049  -31.6257   24.5218 H   0  0  0  0  0  0
  -15.5383  -30.3016   23.7683 H   0  0  0  0  0  0
  -15.8659  -28.0889   22.6998 H   0  0  0  0  0  0
  -24.5950  -30.6923   25.7513 H   0  0  0  0  0  0
  -24.8755  -32.2778   26.4588 H   0  0  0  0  0  0
  -25.7903  -30.8853   27.0105 H   0  0  0  0  0  0
  -26.2940  -29.6618   24.1202 H   0  0  0  0  0  0
  -27.4258  -29.7263   25.4508 H   0  0  0  0  0  0
  -27.8697  -30.4247   23.9119 H   0  0  0  0  0  0
  -27.2838  -33.3627   26.1784 H   0  0  0  0  0  0
  -28.3890  -32.6691   25.0022 H   0  0  0  0  0  0
  -28.0823  -31.8409   26.5220 H   0  0  0  0  0  0
  -28.2534  -38.0165   24.7705 H   0  0  0  0  0  0
  -28.1246  -36.2728   24.5995 H   0  0  0  0  0  0
  -27.2370  -37.1034   25.8836 H   0  0  0  0  0  0
  -20.9390  -29.8815   21.6823 H   0  0  0  0  0  0
  -26.0179  -38.2837   24.1574 H   0  0  0  0  0  0
  -27.8703  -19.9083   21.1355 H   0  0  0  0  0  0
  -31.9266  -17.3878   19.8007 H   0  0  0  0  0  0
  -27.6544  -21.8859   22.2137 H   0  0  0  0  0  0
  -28.3351  -23.4108   22.7404 H   0  0  0  0  0  0
  -29.4119  -20.8088   23.3825 H   0  0  0  0  0  0
  -30.0603  -22.3789   23.8611 H   0  0  0  0  0  0
  -31.4769  -20.8170   22.1555 H   0  0  0  0  0  0
  -31.4428  -22.5485   21.9392 H   0  0  0  0  0  0
  -30.0829  -24.4873   16.8661 H   0  0  0  0  0  0
  -28.4465  -24.4485   17.5007 H   0  0  0  0  0  0
  -29.3840  -22.9553   17.3312 H   0  0  0  0  0  0
  -30.8973  -23.5128   19.0979 H   0  0  0  0  0  0
  -30.4184  -25.1796   19.1510 H   0  0  0  0  0  0
  -28.2190  -25.1947   21.6892 H   0  0  0  0  0  0
  -27.1272  -24.7410   20.4322 H   0  0  0  0  0  0
  -28.8427  -15.4299   20.8858 H   0  0  0  0  0  0
  1 25  1  0  0  0
  1 30  2  0  0  0
  1 86  1  0  0  0
  2  3  1  0  0  0
  2 25  1  0  0  0
  2 89  1  0  0  0
  2 90  1  0  0  0
  3  4  1  0  0  0
  3 91  1  0  0  0
  3 92  1  0  0  0
  4  5  1  0  0  0
  4 93  1  0  0  0
  4 94  1  0  0  0
  5  6  1  0  0  0
  5 26  1  0  0  0
  5 95  1  0  0  0
  6 25  1  0  0  0
  6 96  1  0  0  0
  6 97  1  0  0  0
  7  8  2  0  0  0
  7 26  1  0  0  0
  7 29  1  0  0  0
  8  9  1  0  0  0
  8 22  1  0  0  0
  9 10  1  0  0  0
  9 27  2  0  0  0
 10 11  2  0  0  0
 10 15  1  0  0  0
 11 12  1  0  0  0
 11 98  1  0  0  0
 12 13  2  0  0  0
 12 99  1  0  0  0
 13 14  1  0  0  0
 13 31  1  0  0  0
 14 15  2  0  0  0
 14100  1  0  0  0
 15101  1  0  0  0
 16 17  2  0  0  0
 16 21  1  0  0  0
 16 31  1  0  0  0
 17 18  1  0  0  0
 17102  1  0  0  0
 18 19  2  0  0  0
 18103  1  0  0  0
 19 20  1  0  0  0
 19 24  1  0  0  0
 20 21  2  0  0  0
 20104  1  0  0  0
 21 23  1  0  0  0
 22 28  1  0  0  0
 22 32  2  0  0  0
 26 27  1  0  0  0
 28105  1  0  0  0
 28106  1  0  0  0
 29107  1  0  0  0
 29108  1  0  0  0
 33 34  1  0  0  0
 33 66  1  0  0  0
 33 70  2  0  0  0
 34 36  1  0  0  0
 34 59  1  0  0  0
 34109  1  0  0  0
 35 44  2  0  0  0
 35 45  1  0  0  0
 35 68  1  0  0  0
 36 56  1  0  0  0
 36110  1  0  0  0
 37 39  1  0  0  0
 37 47  1  0  0  0
 37 66  1  0  0  0
 37111  1  0  0  0
 38 43  2  0  0  0
 38 46  1  0  0  0
 38 47  1  0  0  0
 39 64  1  0  0  0
 39 67  2  0  0  0
 40 52  1  0  0  0
 40 53  2  0  0  0
 40 58  1  0  0  0
 41112  1  0  0  0
 41113  1  0  0  0
 41114  1  0  0  0
 41 48  1  0  0  0
 42 43  1  0  0  0
 42 66  1  0  0  0
 42115  1  0  0  0
 42116  1  0  0  0
 43 44  1  0  0  0
 44117  1  0  0  0
 45 46  2  0  0  0
 45118  1  0  0  0
 46119  1  0  0  0
 47120  1  0  0  0
 47121  1  0  0  0
 48 56  1  0  0  0
 48 65  1  0  0  0
 48122  1  0  0  0
 49 50  1  0  0  0
 49 53  1  0  0  0
 49 64  1  0  0  0
 49123  1  0  0  0
 50 51  1  0  0  0
 50124  1  0  0  0
 50125  1  0  0  0
 51 52  1  0  0  0
 51126  1  0  0  0
 51127  1  0  0  0
 52128  1  0  0  0
 52129  1  0  0  0
 53 54  1  0  0  0
 54 55  2  0  0  0
 54130  1  0  0  0
 55 57  1  0  0  0
 55131  1  0  0  0
 56 69  2  0  0  0
 57 58  2  0  0  0
 57132  1  0  0  0
 58133  1  0  0  0
 59 60  1  0  0  0
 59 61  1  0  0  0
 59 62  1  0  0  0
 60134  1  0  0  0
 60135  1  0  0  0
 60136  1  0  0  0
 61137  1  0  0  0
 61138  1  0  0  0
 61139  1  0  0  0
 62140  1  0  0  0
 62141  1  0  0  0
 62142  1  0  0  0
 63 65  1  0  0  0
 63143  1  0  0  0
 63144  1  0  0  0
 63145  1  0  0  0
 64146  1  0  0  0
 65147  1  0  0  0
 68 84  1  0  0  0
 71 73  2  0  0  0
 71 75  1  0  0  0
 71148  1  0  0  0
 72 74  1  0  0  0
 72 76  2  0  0  0
 72149  1  0  0  0
 73 76  1  0  0  0
 73 85  1  0  0  0
 74 75  2  0  0  0
 74 86  1  0  0  0
 75 87  1  0  0  0
 76 88  1  0  0  0
 77 78  2  0  0  0
 77 79  1  0  0  0
 77 85  1  0  0  0
 78 83  1  0  0  0
 78 84  1  0  0  0
 79 80  1  0  0  0
 79150  1  0  0  0
 79151  1  0  0  0
 80 81  1  0  0  0
 80152  1  0  0  0
 80153  1  0  0  0
 81 85  1  0  0  0
 81154  1  0  0  0
 81155  1  0  0  0
 82 83  1  0  0  0
 82156  1  0  0  0
 82157  1  0  0  0
 82158  1  0  0  0
 83159  1  0  0  0
 83160  1  0  0  0
 84161  1  0  0  0
 84162  1  0  0  0
 86163  1  0  0  0
M  ISO  4   1 100  68 101  84 101  86 100
M  END
> <chiral flag>
0

> <version>
0

> <s_m_source_file>
/data/baiqing/PycharmProjects/Reinvent-master-3.2/result/LINK_invent/BTK/process_docking_weight1_custom_product_contain_oxygen_bond_distance_aromatic_linkinvent_7_9_3/rearranged_h_0027.sdf

> <i_m_source_file_index>
34

> <r_mmod_Potential_Energy-OPLS-2005>
243.352066040039

> <r_mmod_Stretch_Energy-OPLS-2005>
95.2231826782227

> <r_mmod_Bend_Energy-OPLS-2005>
212.1591796875

> <r_mmod_Torsional_Energy-OPLS-2005>
312.127716064453

> <r_mmod_Improper_Torsional_Energy-OPLS-2005>
13.6000232696533

> <r_mmod_Van_der_Waal_Energy-OPLS-2005>
146.166641235352

> <r_mmod_Electrostatic_Energy-OPLS-2005>
-393.482604980469

> <r_mmod_Solvation_Energy-OPLS-2005>
-197.485992431641

> <b_mmod_Minimization_Converged-OPLS-2005>
0

> <r_mmod_RMS_Derivative-OPLS-2005>
4.81170654296875

$$$$
35
                    3D
 Structure written by MMmdl.
155164  0  0  1  0            999 V2000
  -30.6566  -14.6601   20.4927 C   0  0  0  0  0  0
  -30.4241  -12.4099   19.4548 C   0  0  0  0  0  0
  -29.5005  -12.5007   18.2222 C   0  0  0  0  0  0
  -28.0256  -12.3389   18.6383 C   0  0  0  0  0  0
  -27.6437  -13.2278   19.8527 C   0  0  2  0  0  0
  -28.6900  -13.1319   20.9839 C   0  0  0  0  0  0
  -25.2517  -13.8194   20.5694 C   0  0  0  0  0  0
  -24.1804  -13.0442   20.9206 C   0  0  0  0  0  0
  -24.6391  -11.6918   20.8749 C   0  0  0  0  0  0
  -23.9069  -10.4294   21.0407 C   0  0  0  0  0  0
  -24.3620   -9.4207   21.9184 C   0  0  0  0  0  0
  -23.6294   -8.2243   22.0753 C   0  0  0  0  0  0
  -22.4276   -8.0281   21.3544 C   0  0  0  0  0  0
  -21.9913   -9.0255   20.4647 C   0  0  0  0  0  0
  -22.7242  -10.2134   20.3056 C   0  0  0  0  0  0
  -21.6854   -6.0735   22.5278 C   0  0  0  0  0  0
  -21.4015   -6.5640   23.8212 C   0  0  0  0  0  0
  -21.3660   -5.6792   24.9175 C   0  0  0  0  0  0
  -21.6044   -4.3055   24.7225 C   0  0  0  0  0  0
  -21.8819   -3.8146   23.4347 C   0  0  0  0  0  0
  -21.9194   -4.6963   22.3402 C   0  0  0  0  0  0
  -22.7826  -13.5223   21.1867 C   0  0  0  0  0  0
  -22.1662   -4.2148   21.0980 F   0  0  0  0  0  0
  -21.5629   -3.4538   25.7739 F   0  0  0  0  0  0
  -29.9960  -13.4618   20.4005 N   0  0  0  0  0  0
  -26.2945  -12.9397   20.3296 N   0  0  0  0  0  0
  -25.9320  -11.6541   20.5759 N   0  0  0  0  0  0
  -22.0475  -12.8209   22.0424 N   0  0  0  0  0  0
  -25.4204  -15.1918   20.4104 N   0  0  0  0  0  0
  -31.8426  -14.7447   20.1657 O   0  0  0  0  0  0
  -21.6641   -6.8877   21.4240 O   0  0  0  0  0  0
  -22.3507  -14.5528   20.6715 O   0  0  0  0  0  0
  -24.6276  -31.8587   23.2012 C   0  0  0  0  0  0
  -25.9119  -32.4772   23.8344 C   0  0  1  0  0  0
  -27.2226  -27.3041   20.1053 C   0  0  0  0  0  0
  -25.5933  -33.8574   24.2269 N   0  0  0  0  0  0
  -23.4208  -30.4832   21.5445 C   0  0  2  0  0  0
  -24.8641  -28.9354   20.1110 C   0  0  0  0  0  0
  -22.7477  -29.4624   22.4930 C   0  0  0  0  0  0
  -18.0288  -28.1385   22.8488 C   0  0  0  0  0  0
  -24.1491  -36.7289   23.2642 C   0  0  0  0  0  0
  -25.9634  -30.7841   21.3734 C   0  0  0  0  0  0
  -26.0345  -29.4105   20.7137 C   0  0  0  0  0  0
  -27.2129  -28.6055   20.7024 C   0  0  0  0  0  0
  -26.0165  -26.8749   19.5030 C   0  0  0  0  0  0
  -24.8573  -27.6731   19.5005 C   0  0  0  0  0  0
  -23.6348  -29.8190   20.1596 C   0  0  0  0  0  0
  -25.4119  -36.3080   24.0326 C   0  0  1  0  0  0
  -20.5889  -28.3692   23.1280 C   0  0  2  0  0  0
  -20.6775  -26.9414   22.5411 C   0  0  0  0  0  0
  -19.5753  -26.6384   21.5213 C   0  0  0  0  0  0
  -18.1932  -26.7928   22.1626 C   0  0  0  0  0  0
  -19.1540  -28.8855   23.2880 C   0  0  0  0  0  0
  -18.9465  -30.1458   23.8895 C   0  0  0  0  0  0
  -17.6465  -30.6589   24.0567 C   0  0  0  0  0  0
  -25.9055  -34.9450   23.5097 C   0  0  0  0  0  0
  -16.5356  -29.9088   23.6331 C   0  0  0  0  0  0
  -16.7275  -28.6505   23.0351 C   0  0  0  0  0  0
  -26.4495  -31.6588   25.0723 C   0  0  0  0  0  0
  -25.3724  -31.3735   26.1449 C   0  0  0  0  0  0
  -27.0336  -30.3010   24.6186 C   0  0  0  0  0  0
  -27.6052  -32.4324   25.7497 C   0  0  0  0  0  0
  -27.5572  -37.1813   24.8473 C   0  0  0  0  0  0
  -21.4190  -29.3045   22.3673 N   0  0  0  0  0  0
  -26.4298  -37.3771   23.9395 N   0  0  0  0  0  0
  -24.6897  -31.0591   22.0964 N   0  0  0  0  0  0
  -23.4199  -28.8161   23.3009 O   0  0  0  0  0  0
  -28.3615  -26.4787   20.1596 O   0  0  0  0  0  0
  -26.5622  -34.8920   22.4664 O   0  0  0  0  0  0
  -23.5437  -32.1390   23.7335 O   0  0  0  0  0  0
  -30.3114  -19.1674   19.4701 C   0  0  0  0  0  0
  -30.0411  -20.5387   19.1875 C   0  0  0  0  0  0
  -28.8425  -20.7468   21.2489 C   0  0  0  0  0  0
  -29.8981  -18.5436   20.6731 C   0  0  0  0  0  0
  -29.3291  -21.3974   20.0778 C   0  0  0  0  0  0
  -29.1226  -19.3702   21.5446 C   0  0  0  0  0  0
  -28.3741  -23.8310   20.2907 C   0  0  0  0  0  0
  -29.8065  -24.9787   18.8043 C   0  0  0  0  0  0
  -29.9723  -23.4506   18.6920 C   0  0  0  0  0  0
  -28.4445  -25.1686   19.4580 C   0  0  2  0  0  0
  -30.5209  -17.1521   21.1041 C   0  0  0  0  0  0
  -29.1804  -22.8438   19.7683 N   0  0  0  0  0  0
  -29.9368  -15.7945   20.7888 N   0  0  0  0  0  0
  -27.6444  -23.7136   21.2808 O   0  0  0  0  0  0
  -28.5515  -18.7330   23.0456 Cl  0  0  0  0  0  0
  -31.4666  -12.5193   19.1511 H   0  0  0  0  0  0
  -30.3508  -11.4265   19.9219 H   0  0  0  0  0  0
  -29.7687  -11.7367   17.4914 H   0  0  0  0  0  0
  -29.6399  -13.4623   17.7256 H   0  0  0  0  0  0
  -27.8687  -11.2885   18.8862 H   0  0  0  0  0  0
  -27.3692  -12.5519   17.7937 H   0  0  0  0  0  0
  -27.6482  -14.2555   19.4888 H   0  0  0  0  0  0
  -28.7087  -12.1285   21.4118 H   0  0  0  0  0  0
  -28.4387  -13.8075   21.8031 H   0  0  0  0  0  0
  -25.2764   -9.5685   22.4759 H   0  0  0  0  0  0
  -24.0005   -7.4633   22.7470 H   0  0  0  0  0  0
  -21.0845   -8.8773   19.8951 H   0  0  0  0  0  0
  -22.3700  -10.9673   19.6166 H   0  0  0  0  0  0
  -21.2008   -7.6148   23.9715 H   0  0  0  0  0  0
  -21.1482   -6.0523   25.9078 H   0  0  0  0  0  0
  -22.0598   -2.7608   23.2847 H   0  0  0  0  0  0
  -22.4099  -11.9872   22.4808 H   0  0  0  0  0  0
  -21.1091  -13.1226   22.2632 H   0  0  0  0  0  0
  -24.6522  -15.8444   20.5222 H   0  0  0  0  0  0
  -26.2670  -15.6334   20.0753 H   0  0  0  0  0  0
  -26.7183  -32.5428   23.1086 H   0  0  0  0  0  0
  -25.0090  -33.9720   25.0421 H   0  0  0  0  0  0
  -22.7155  -31.3047   21.4015 H   0  0  0  0  0  0
  -23.3742  -35.9637   23.3344 H   0  0  0  0  0  0
  -24.3567  -36.8868   22.2047 H   0  0  0  0  0  0
  -23.7265  -37.6513   23.6637 H   0  0  0  0  0  0
  -26.0979  -31.5477   20.6061 H   0  0  0  0  0  0
  -26.8429  -30.8303   22.0042 H   0  0  0  0  0  0
  -28.1127  -28.9687   21.1790 H   0  0  0  0  0  0
  -25.9122  -25.9012   19.0537 H   0  0  0  0  0  0
  -23.9540  -27.2968   19.0401 H   0  0  0  0  0  0
  -23.7580  -30.5961   19.4042 H   0  0  0  0  0  0
  -22.7531  -29.2520   19.8551 H   0  0  0  0  0  0
  -25.1305  -36.1935   25.0821 H   0  0  0  0  0  0
  -20.9986  -28.3266   24.1398 H   0  0  0  0  0  0
  -20.5674  -26.2304   23.3612 H   0  0  0  0  0  0
  -21.6644  -26.7439   22.1207 H   0  0  0  0  0  0
  -19.6918  -25.6293   21.1244 H   0  0  0  0  0  0
  -19.6691  -27.3194   20.6744 H   0  0  0  0  0  0
  -17.4203  -26.6679   21.4027 H   0  0  0  0  0  0
  -18.0333  -26.0065   22.9018 H   0  0  0  0  0  0
  -19.7943  -30.7275   24.2261 H   0  0  0  0  0  0
  -17.5022  -31.6269   24.5170 H   0  0  0  0  0  0
  -15.5358  -30.2993   23.7654 H   0  0  0  0  0  0
  -15.8674  -28.0828   22.7062 H   0  0  0  0  0  0
  -24.5909  -30.7068   25.7784 H   0  0  0  0  0  0
  -24.8905  -32.2905   26.4854 H   0  0  0  0  0  0
  -25.8050  -30.8936   27.0237 H   0  0  0  0  0  0
  -26.2913  -29.6766   24.1200 H   0  0  0  0  0  0
  -27.4016  -29.7262   25.4696 H   0  0  0  0  0  0
  -27.8790  -30.4292   23.9422 H   0  0  0  0  0  0
  -27.2661  -33.3628   26.2066 H   0  0  0  0  0  0
  -28.3870  -32.6877   25.0330 H   0  0  0  0  0  0
  -28.0710  -31.8454   26.5422 H   0  0  0  0  0  0
  -28.2629  -38.0071   24.7459 H   0  0  0  0  0  0
  -28.1027  -36.2598   24.6378 H   0  0  0  0  0  0
  -27.2280  -37.1560   25.8877 H   0  0  0  0  0  0
  -20.9365  -29.8775   21.6891 H   0  0  0  0  0  0
  -26.0181  -38.2855   24.1360 H   0  0  0  0  0  0
  -30.9190  -18.6073   18.7727 H   0  0  0  0  0  0
  -30.4380  -20.9302   18.2617 H   0  0  0  0  0  0
  -28.2826  -21.3161   21.9761 H   0  0  0  0  0  0
  -29.8768  -25.4733   17.8352 H   0  0  0  0  0  0
  -30.5870  -25.3927   19.4446 H   0  0  0  0  0  0
  -31.0246  -23.1717   18.7594 H   0  0  0  0  0  0
  -29.5902  -23.1004   17.7318 H   0  0  0  0  0  0
  -27.7237  -25.0837   18.6489 H   0  0  0  0  0  0
  -30.6527  -17.1765   22.1860 H   0  0  0  0  0  0
  -31.5441  -17.1742   20.7261 H   0  0  0  0  0  0
  -28.9516  -15.6726   20.9651 H   0  0  0  0  0  0
  1 25  1  0  0  0
  1 30  2  0  0  0
  1 83  1  0  0  0
  2  3  1  0  0  0
  2 25  1  0  0  0
  2 86  1  0  0  0
  2 87  1  0  0  0
  3  4  1  0  0  0
  3 88  1  0  0  0
  3 89  1  0  0  0
  4  5  1  0  0  0
  4 90  1  0  0  0
  4 91  1  0  0  0
  5  6  1  0  0  0
  5 26  1  0  0  0
  5 92  1  0  0  0
  6 25  1  0  0  0
  6 93  1  0  0  0
  6 94  1  0  0  0
  7  8  2  0  0  0
  7 26  1  0  0  0
  7 29  1  0  0  0
  8  9  1  0  0  0
  8 22  1  0  0  0
  9 10  1  0  0  0
  9 27  2  0  0  0
 10 11  2  0  0  0
 10 15  1  0  0  0
 11 12  1  0  0  0
 11 95  1  0  0  0
 12 13  2  0  0  0
 12 96  1  0  0  0
 13 14  1  0  0  0
 13 31  1  0  0  0
 14 15  2  0  0  0
 14 97  1  0  0  0
 15 98  1  0  0  0
 16 17  2  0  0  0
 16 21  1  0  0  0
 16 31  1  0  0  0
 17 18  1  0  0  0
 17 99  1  0  0  0
 18 19  2  0  0  0
 18100  1  0  0  0
 19 20  1  0  0  0
 19 24  1  0  0  0
 20 21  2  0  0  0
 20101  1  0  0  0
 21 23  1  0  0  0
 22 28  1  0  0  0
 22 32  2  0  0  0
 26 27  1  0  0  0
 28102  1  0  0  0
 28103  1  0  0  0
 29104  1  0  0  0
 29105  1  0  0  0
 33 34  1  0  0  0
 33 66  1  0  0  0
 33 70  2  0  0  0
 34 36  1  0  0  0
 34 59  1  0  0  0
 34106  1  0  0  0
 35 44  2  0  0  0
 35 45  1  0  0  0
 35 68  1  0  0  0
 36 56  1  0  0  0
 36107  1  0  0  0
 37 39  1  0  0  0
 37 47  1  0  0  0
 37 66  1  0  0  0
 37108  1  0  0  0
 38 43  2  0  0  0
 38 46  1  0  0  0
 38 47  1  0  0  0
 39 64  1  0  0  0
 39 67  2  0  0  0
 40 52  1  0  0  0
 40 53  2  0  0  0
 40 58  1  0  0  0
 41109  1  0  0  0
 41110  1  0  0  0
 41111  1  0  0  0
 41 48  1  0  0  0
 42 43  1  0  0  0
 42 66  1  0  0  0
 42112  1  0  0  0
 42113  1  0  0  0
 43 44  1  0  0  0
 44114  1  0  0  0
 45 46  2  0  0  0
 45115  1  0  0  0
 46116  1  0  0  0
 47117  1  0  0  0
 47118  1  0  0  0
 48 56  1  0  0  0
 48 65  1  0  0  0
 48119  1  0  0  0
 49 50  1  0  0  0
 49 53  1  0  0  0
 49 64  1  0  0  0
 49120  1  0  0  0
 50 51  1  0  0  0
 50121  1  0  0  0
 50122  1  0  0  0
 51 52  1  0  0  0
 51123  1  0  0  0
 51124  1  0  0  0
 52125  1  0  0  0
 52126  1  0  0  0
 53 54  1  0  0  0
 54 55  2  0  0  0
 54127  1  0  0  0
 55 57  1  0  0  0
 55128  1  0  0  0
 56 69  2  0  0  0
 57 58  2  0  0  0
 57129  1  0  0  0
 58130  1  0  0  0
 59 60  1  0  0  0
 59 61  1  0  0  0
 59 62  1  0  0  0
 60131  1  0  0  0
 60132  1  0  0  0
 60133  1  0  0  0
 61134  1  0  0  0
 61135  1  0  0  0
 61136  1  0  0  0
 62137  1  0  0  0
 62138  1  0  0  0
 62139  1  0  0  0
 63 65  1  0  0  0
 63140  1  0  0  0
 63141  1  0  0  0
 63142  1  0  0  0
 64143  1  0  0  0
 65144  1  0  0  0
 68 80  1  0  0  0
 71 72  2  0  0  0
 71 74  1  0  0  0
 71145  1  0  0  0
 72 75  1  0  0  0
 72146  1  0  0  0
 73 75  2  0  0  0
 73 76  1  0  0  0
 73147  1  0  0  0
 74 76  2  0  0  0
 74 81  1  0  0  0
 75 82  1  0  0  0
 76 85  1  0  0  0
 77 80  1  0  0  0
 77 82  1  0  0  0
 77 84  2  0  0  0
 78 79  1  0  0  0
 78 80  1  0  0  0
 78148  1  0  0  0
 78149  1  0  0  0
 79 82  1  0  0  0
 79150  1  0  0  0
 79151  1  0  0  0
 80152  1  0  0  0
 81 83  1  0  0  0
 81153  1  0  0  0
 81154  1  0  0  0
 83155  1  0  0  0
M  ISO  4   1 100  68 101  80 101  83 100
M  END
> <chiral flag>
0

> <version>
0

> <s_m_source_file>
/data/baiqing/PycharmProjects/Reinvent-master-3.2/result/LINK_invent/BTK/process_docking_weight1_custom_product_contain_oxygen_bond_distance_aromatic_linkinvent_7_9_3/rearranged_h_0027.sdf

> <i_m_source_file_index>
35

> <r_mmod_Potential_Energy-OPLS-2005>
173.616333007812

> <r_mmod_Stretch_Energy-OPLS-2005>
90.3903045654297

> <r_mmod_Bend_Energy-OPLS-2005>
194.294784545898

> <r_mmod_Torsional_Energy-OPLS-2005>
251.099151611328

> <r_mmod_Improper_Torsional_Energy-OPLS-2005>
5.7485499382019

> <r_mmod_Van_der_Waal_Energy-OPLS-2005>
143.000442504883

> <r_mmod_Electrostatic_Energy-OPLS-2005>
-342.281982421875

> <r_mmod_Solvation_Energy-OPLS-2005>
-224.131164550781

> <b_mmod_Minimization_Converged-OPLS-2005>
0

> <r_mmod_RMS_Derivative-OPLS-2005>
0.311135679483414

$$$$
36
                    3D
 Structure written by MMmdl.
157166  0  0  1  0            999 V2000
  -30.5922  -14.7295   20.4995 C   0  0  0  0  0  0
  -30.4454  -12.4489   19.4702 C   0  0  0  0  0  0
  -29.5144  -12.5143   18.2365 C   0  0  0  0  0  0
  -28.0391  -12.3397   18.6484 C   0  0  0  0  0  0
  -27.6506  -13.2263   19.8608 C   0  0  2  0  0  0
  -28.6940  -13.1158   20.9948 C   0  0  0  0  0  0
  -25.2531  -13.8187   20.5662 C   0  0  0  0  0  0
  -24.1817  -13.0442   20.9194 C   0  0  0  0  0  0
  -24.6407  -11.6918   20.8746 C   0  0  0  0  0  0
  -23.9081  -10.4291   21.0409 C   0  0  0  0  0  0
  -24.3631   -9.4200   21.9182 C   0  0  0  0  0  0
  -23.6305   -8.2236   22.0748 C   0  0  0  0  0  0
  -22.4282   -8.0281   21.3546 C   0  0  0  0  0  0
  -21.9925   -9.0250   20.4645 C   0  0  0  0  0  0
  -22.7254  -10.2130   20.3055 C   0  0  0  0  0  0
  -21.6852   -6.0743   22.5275 C   0  0  0  0  0  0
  -21.4006   -6.5644   23.8207 C   0  0  0  0  0  0
  -21.3662   -5.6798   24.9170 C   0  0  0  0  0  0
  -21.6042   -4.3059   24.7216 C   0  0  0  0  0  0
  -21.8822   -3.8154   23.4336 C   0  0  0  0  0  0
  -21.9191   -4.6972   22.3396 C   0  0  0  0  0  0
  -22.7836  -13.5211   21.1870 C   0  0  0  0  0  0
  -22.1669   -4.2162   21.0974 F   0  0  0  0  0  0
  -21.5630   -3.4540   25.7728 F   0  0  0  0  0  0
  -30.0038  -13.4846   20.4326 N   0  0  0  0  0  0
  -26.2977  -12.9392   20.3306 N   0  0  0  0  0  0
  -25.9339  -11.6538   20.5762 N   0  0  0  0  0  0
  -22.0501  -12.8180   22.0433 N   0  0  0  0  0  0
  -25.4198  -15.1901   20.4010 N   0  0  0  0  0  0
  -31.7478  -14.8964   20.0969 O   0  0  0  0  0  0
  -21.6642   -6.8883   21.4239 O   0  0  0  0  0  0
  -22.3501  -14.5510   20.6721 O   0  0  0  0  0  0
  -24.6307  -31.8562   23.1969 C   0  0  0  0  0  0
  -25.9129  -32.4773   23.8313 C   0  0  1  0  0  0
  -27.2319  -27.2663   20.1272 C   0  0  0  0  0  0
  -25.5919  -33.8564   24.2247 N   0  0  0  0  0  0
  -23.4290  -30.4784   21.5395 C   0  0  2  0  0  0
  -24.8758  -28.9208   20.1164 C   0  0  0  0  0  0
  -22.7504  -29.4625   22.4905 C   0  0  0  0  0  0
  -18.0303  -28.1427   22.8499 C   0  0  0  0  0  0
  -24.1478  -36.7284   23.2641 C   0  0  0  0  0  0
  -25.9719  -30.7724   21.3714 C   0  0  0  0  0  0
  -26.0484  -29.3918   20.7207 C   0  0  0  0  0  0
  -27.2263  -28.5791   20.7115 C   0  0  0  0  0  0
  -26.0272  -26.8569   19.5086 C   0  0  0  0  0  0
  -24.8704  -27.6604   19.5016 C   0  0  0  0  0  0
  -23.6478  -29.8088   20.1576 C   0  0  0  0  0  0
  -25.4107  -36.3076   24.0330 C   0  0  1  0  0  0
  -20.5908  -28.3732   23.1274 C   0  0  2  0  0  0
  -20.6781  -26.9452   22.5402 C   0  0  0  0  0  0
  -19.5742  -26.6430   21.5211 C   0  0  0  0  0  0
  -18.1931  -26.7979   22.1635 C   0  0  0  0  0  0
  -19.1559  -28.8898   23.2890 C   0  0  0  0  0  0
  -18.9484  -30.1499   23.8906 C   0  0  0  0  0  0
  -17.6483  -30.6623   24.0597 C   0  0  0  0  0  0
  -25.9046  -34.9445   23.5093 C   0  0  0  0  0  0
  -16.5374  -29.9130   23.6350 C   0  0  0  0  0  0
  -16.7291  -28.6553   23.0358 C   0  0  0  0  0  0
  -26.4490  -31.6596   25.0694 C   0  0  0  0  0  0
  -25.3708  -31.3758   26.1416 C   0  0  0  0  0  0
  -27.0329  -30.3020   24.6158 C   0  0  0  0  0  0
  -27.6061  -32.4312   25.7464 C   0  0  0  0  0  0
  -27.5576  -37.1802   24.8473 C   0  0  0  0  0  0
  -21.4211  -29.3078   22.3657 N   0  0  0  0  0  0
  -26.4281  -37.3780   23.9424 N   0  0  0  0  0  0
  -24.6966  -31.0541   22.0926 N   0  0  0  0  0  0
  -23.4199  -28.8175   23.3012 O   0  0  0  0  0  0
  -28.3597  -26.4096   20.1713 O   0  0  0  0  0  0
  -26.5633  -34.8920   22.4671 O   0  0  0  0  0  0
  -23.5458  -32.1376   23.7265 O   0  0  0  0  0  0
  -30.5829  -19.4914   19.9870 C   0  0  0  0  0  0
  -30.6593  -18.0525   20.0200 C   0  0  0  0  0  0
  -28.8083  -19.4502   21.5805 C   0  0  0  0  0  0
  -29.6569  -20.2516   20.7689 C   0  0  0  0  0  0
  -28.8801  -18.0156   21.6255 C   0  0  0  0  0  0
  -29.8119  -17.2571   20.8461 C   0  0  0  0  0  0
  -28.0591  -23.8613   20.9638 C   0  0  0  0  0  0
  -29.5729  -24.1067   19.6725 C   0  0  0  0  0  0
  -28.2674  -24.9392   19.8510 C   0  0  2  0  0  0
  -27.9461  -17.2915   22.5811 C   0  0  0  0  0  0
  -29.7488  -21.8462   20.9468 C   0  0  0  0  0  0
  -29.7833  -15.7712   20.9166 N   0  0  0  0  0  0
  -28.8931  -22.8799   20.1961 N   0  3  1  0  0  0
  -31.4845  -12.5892   19.1671 H   0  0  0  0  0  0
  -30.4028  -11.4612   19.9326 H   0  0  0  0  0  0
  -29.7925  -11.7465   17.5132 H   0  0  0  0  0  0
  -29.6401  -13.4711   17.7278 H   0  0  0  0  0  0
  -27.8923  -11.2883   18.9007 H   0  0  0  0  0  0
  -27.3819  -12.5442   17.8022 H   0  0  0  0  0  0
  -27.6581  -14.2558   19.5022 H   0  0  0  0  0  0
  -28.7245  -12.0995   21.3897 H   0  0  0  0  0  0
  -28.4208  -13.7531   21.8370 H   0  0  0  0  0  0
  -25.2782   -9.5660   22.4754 H   0  0  0  0  0  0
  -24.0018   -7.4615   22.7456 H   0  0  0  0  0  0
  -21.0861   -8.8753   19.8947 H   0  0  0  0  0  0
  -22.3711  -10.9663   19.6157 H   0  0  0  0  0  0
  -21.1994   -7.6150   23.9706 H   0  0  0  0  0  0
  -21.1490   -6.0531   25.9071 H   0  0  0  0  0  0
  -22.0602   -2.7620   23.2823 H   0  0  0  0  0  0
  -22.4148  -11.9855   22.4822 H   0  0  0  0  0  0
  -21.1108  -13.1174   22.2653 H   0  0  0  0  0  0
  -24.6411  -15.8355   20.4768 H   0  0  0  0  0  0
  -26.2543  -15.6218   20.0249 H   0  0  0  0  0  0
  -26.7202  -32.5454   23.1070 H   0  0  0  0  0  0
  -25.0049  -33.9706   25.0378 H   0  0  0  0  0  0
  -22.7278  -31.3018   21.3918 H   0  0  0  0  0  0
  -23.3740  -35.9617   23.3306 H   0  0  0  0  0  0
  -24.3565  -36.8900   22.2054 H   0  0  0  0  0  0
  -23.7207  -37.6475   23.6659 H   0  0  0  0  0  0
  -26.1019  -31.5267   20.5945 H   0  0  0  0  0  0
  -26.8515  -30.8312   22.0005 H   0  0  0  0  0  0
  -28.1270  -28.9409   21.1894 H   0  0  0  0  0  0
  -25.9332  -25.8955   19.0301 H   0  0  0  0  0  0
  -23.9717  -27.2929   19.0260 H   0  0  0  0  0  0
  -23.7762  -30.5802   19.3976 H   0  0  0  0  0  0
  -22.7665  -29.2427   19.8524 H   0  0  0  0  0  0
  -25.1285  -36.1927   25.0822 H   0  0  0  0  0  0
  -21.0023  -28.3302   24.1390 H   0  0  0  0  0  0
  -20.5673  -26.2344   23.3602 H   0  0  0  0  0  0
  -21.6650  -26.7479   22.1195 H   0  0  0  0  0  0
  -19.6880  -25.6345   21.1235 H   0  0  0  0  0  0
  -19.6669  -27.3249   20.6744 H   0  0  0  0  0  0
  -17.4195  -26.6759   21.4035 H   0  0  0  0  0  0
  -18.0336  -26.0125   22.9035 H   0  0  0  0  0  0
  -19.7956  -30.7328   24.2267 H   0  0  0  0  0  0
  -17.5040  -31.6297   24.5218 H   0  0  0  0  0  0
  -15.5379  -30.3037   23.7666 H   0  0  0  0  0  0
  -15.8696  -28.0878   22.7050 H   0  0  0  0  0  0
  -24.5909  -30.7076   25.7754 H   0  0  0  0  0  0
  -24.8864  -32.2924   26.4789 H   0  0  0  0  0  0
  -25.8015  -30.8987   27.0223 H   0  0  0  0  0  0
  -26.2896  -29.6781   24.1183 H   0  0  0  0  0  0
  -27.4026  -29.7282   25.4662 H   0  0  0  0  0  0
  -27.8764  -30.4317   23.9374 H   0  0  0  0  0  0
  -27.2713  -33.3639   26.2013 H   0  0  0  0  0  0
  -28.3888  -32.6818   25.0294 H   0  0  0  0  0  0
  -28.0697  -31.8433   26.5400 H   0  0  0  0  0  0
  -28.2609  -38.0088   24.7528 H   0  0  0  0  0  0
  -28.1055  -36.2622   24.6292 H   0  0  0  0  0  0
  -27.2305  -37.1446   25.8879 H   0  0  0  0  0  0
  -20.9391  -29.8837   21.6895 H   0  0  0  0  0  0
  -26.0160  -38.2850   24.1438 H   0  0  0  0  0  0
  -31.2985  -20.0190   19.3709 H   0  0  0  0  0  0
  -31.3980  -17.5614   19.4023 H   0  0  0  0  0  0
  -28.1125  -19.9531   22.2376 H   0  0  0  0  0  0
  -27.0259  -23.5481   21.1063 H   0  0  0  0  0  0
  -28.5134  -24.1475   21.9162 H   0  0  0  0  0  0
  -30.3900  -24.4506   20.3106 H   0  0  0  0  0  0
  -29.9083  -24.0081   18.6404 H   0  0  0  0  0  0
  -27.6462  -24.7473   18.9763 H   0  0  0  0  0  0
  -27.4757  -17.9810   23.2827 H   0  0  0  0  0  0
  -28.4940  -16.5577   23.1729 H   0  0  0  0  0  0
  -27.1570  -16.7774   22.0336 H   0  0  0  0  0  0
  -30.7880  -22.1007   20.7402 H   0  0  0  0  0  0
  -29.6346  -22.0487   22.0118 H   0  0  0  0  0  0
  -28.9286  -15.4147   21.3137 H   0  0  0  0  0  0
  -28.3556  -22.4400   19.4656 H   0  0  0  0  0  0
  1 25  1  0  0  0
  1 30  2  0  0  0
  1 82  1  0  0  0
  2  3  1  0  0  0
  2 25  1  0  0  0
  2 84  1  0  0  0
  2 85  1  0  0  0
  3  4  1  0  0  0
  3 86  1  0  0  0
  3 87  1  0  0  0
  4  5  1  0  0  0
  4 88  1  0  0  0
  4 89  1  0  0  0
  5  6  1  0  0  0
  5 26  1  0  0  0
  5 90  1  0  0  0
  6 25  1  0  0  0
  6 91  1  0  0  0
  6 92  1  0  0  0
  7  8  2  0  0  0
  7 26  1  0  0  0
  7 29  1  0  0  0
  8  9  1  0  0  0
  8 22  1  0  0  0
  9 10  1  0  0  0
  9 27  2  0  0  0
 10 11  2  0  0  0
 10 15  1  0  0  0
 11 12  1  0  0  0
 11 93  1  0  0  0
 12 13  2  0  0  0
 12 94  1  0  0  0
 13 14  1  0  0  0
 13 31  1  0  0  0
 14 15  2  0  0  0
 14 95  1  0  0  0
 15 96  1  0  0  0
 16 17  2  0  0  0
 16 21  1  0  0  0
 16 31  1  0  0  0
 17 18  1  0  0  0
 17 97  1  0  0  0
 18 19  2  0  0  0
 18 98  1  0  0  0
 19 20  1  0  0  0
 19 24  1  0  0  0
 20 21  2  0  0  0
 20 99  1  0  0  0
 21 23  1  0  0  0
 22 28  1  0  0  0
 22 32  2  0  0  0
 26 27  1  0  0  0
 28100  1  0  0  0
 28101  1  0  0  0
 29102  1  0  0  0
 29103  1  0  0  0
 33 34  1  0  0  0
 33 66  1  0  0  0
 33 70  2  0  0  0
 34 36  1  0  0  0
 34 59  1  0  0  0
 34104  1  0  0  0
 35 44  2  0  0  0
 35 45  1  0  0  0
 35 68  1  0  0  0
 36 56  1  0  0  0
 36105  1  0  0  0
 37 39  1  0  0  0
 37 47  1  0  0  0
 37 66  1  0  0  0
 37106  1  0  0  0
 38 43  2  0  0  0
 38 46  1  0  0  0
 38 47  1  0  0  0
 39 64  1  0  0  0
 39 67  2  0  0  0
 40 52  1  0  0  0
 40 53  2  0  0  0
 40 58  1  0  0  0
 41107  1  0  0  0
 41108  1  0  0  0
 41109  1  0  0  0
 41 48  1  0  0  0
 42 43  1  0  0  0
 42 66  1  0  0  0
 42110  1  0  0  0
 42111  1  0  0  0
 43 44  1  0  0  0
 44112  1  0  0  0
 45 46  2  0  0  0
 45113  1  0  0  0
 46114  1  0  0  0
 47115  1  0  0  0
 47116  1  0  0  0
 48 56  1  0  0  0
 48 65  1  0  0  0
 48117  1  0  0  0
 49 50  1  0  0  0
 49 53  1  0  0  0
 49 64  1  0  0  0
 49118  1  0  0  0
 50 51  1  0  0  0
 50119  1  0  0  0
 50120  1  0  0  0
 51 52  1  0  0  0
 51121  1  0  0  0
 51122  1  0  0  0
 52123  1  0  0  0
 52124  1  0  0  0
 53 54  1  0  0  0
 54 55  2  0  0  0
 54125  1  0  0  0
 55 57  1  0  0  0
 55126  1  0  0  0
 56 69  2  0  0  0
 57 58  2  0  0  0
 57127  1  0  0  0
 58128  1  0  0  0
 59 60  1  0  0  0
 59 61  1  0  0  0
 59 62  1  0  0  0
 60129  1  0  0  0
 60130  1  0  0  0
 60131  1  0  0  0
 61132  1  0  0  0
 61133  1  0  0  0
 61134  1  0  0  0
 62135  1  0  0  0
 62136  1  0  0  0
 62137  1  0  0  0
 63 65  1  0  0  0
 63138  1  0  0  0
 63139  1  0  0  0
 63140  1  0  0  0
 64141  1  0  0  0
 65142  1  0  0  0
 68 79  1  0  0  0
 71 72  2  0  0  0
 71 74  1  0  0  0
 71143  1  0  0  0
 72 76  1  0  0  0
 72144  1  0  0  0
 73 74  2  0  0  0
 73 75  1  0  0  0
 73145  1  0  0  0
 74 81  1  0  0  0
 75 76  2  0  0  0
 75 80  1  0  0  0
 76 82  1  0  0  0
 77 79  1  0  0  0
 77 83  1  0  0  0
 77146  1  0  0  0
 77147  1  0  0  0
 78 79  1  0  0  0
 78 83  1  0  0  0
 78148  1  0  0  0
 78149  1  0  0  0
 79150  1  0  0  0
 80151  1  0  0  0
 80152  1  0  0  0
 80153  1  0  0  0
 81154  1  0  0  0
 81155  1  0  0  0
 81 83  1  0  0  0
 82156  1  0  0  0
 83157  1  0  0  0
M  CHG  1  83   1
M  ISO  4   1 100  68 101  79 101  82 100
M  END
> <chiral flag>
0

> <version>
0

> <s_m_source_file>
/data/baiqing/PycharmProjects/Reinvent-master-3.2/result/LINK_invent/BTK/process_docking_weight1_custom_product_contain_oxygen_bond_distance_aromatic_linkinvent_7_9_3/rearranged_h_0027.sdf

> <i_m_source_file_index>
36

> <r_mmod_Potential_Energy-OPLS-2005>
-54.9262771606445

> <r_mmod_Stretch_Energy-OPLS-2005>
112.318687438965

> <r_mmod_Bend_Energy-OPLS-2005>
203.115997314453

> <r_mmod_Torsional_Energy-OPLS-2005>
221.573120117188

> <r_mmod_Improper_Torsional_Energy-OPLS-2005>
4.96574735641479

> <r_mmod_Van_der_Waal_Energy-OPLS-2005>
140.230453491211

> <r_mmod_Electrostatic_Energy-OPLS-2005>
-336.615417480469

> <r_mmod_Solvation_Energy-OPLS-2005>
-476.375915527344

> <b_mmod_Minimization_Converged-OPLS-2005>
0

> <r_mmod_RMS_Derivative-OPLS-2005>
1.97369909286499

$$$$
37
                    3D
 Structure written by MMmdl.
150158  0  0  1  0            999 V2000
  -30.4124  -15.3263   20.3386 C   0  0  0  0  0  0
  -30.4380  -12.8445   19.5402 C   0  0  0  0  0  0
  -29.5418  -12.5870   18.3000 C   0  0  0  0  0  0
  -28.0920  -12.3020   18.7252 C   0  0  0  0  0  0
  -27.6117  -13.2816   19.8239 C   0  0  2  0  0  0
  -28.6411  -13.4799   20.9595 C   0  0  0  0  0  0
  -25.2386  -13.8262   20.5749 C   0  0  0  0  0  0
  -24.1741  -13.0448   20.9256 C   0  0  0  0  0  0
  -24.6404  -11.6945   20.8767 C   0  0  0  0  0  0
  -23.9103  -10.4299   21.0395 C   0  0  0  0  0  0
  -24.3645   -9.4213   21.9169 C   0  0  0  0  0  0
  -23.6312   -8.2249   22.0746 C   0  0  0  0  0  0
  -22.4297   -8.0289   21.3538 C   0  0  0  0  0  0
  -21.9934   -9.0266   20.4638 C   0  0  0  0  0  0
  -22.7266  -10.2140   20.3040 C   0  0  0  0  0  0
  -21.6859   -6.0741   22.5274 C   0  0  0  0  0  0
  -21.4020   -6.5639   23.8208 C   0  0  0  0  0  0
  -21.3669   -5.6791   24.9170 C   0  0  0  0  0  0
  -21.6046   -4.3055   24.7219 C   0  0  0  0  0  0
  -21.8821   -3.8145   23.4338 C   0  0  0  0  0  0
  -21.9198   -4.6964   22.3397 C   0  0  0  0  0  0
  -22.7759  -13.5196   21.1906 C   0  0  0  0  0  0
  -22.1659   -4.2142   21.0975 F   0  0  0  0  0  0
  -21.5633   -3.4539   25.7731 F   0  0  0  0  0  0
  -29.8707  -14.0015   20.3371 N   0  0  0  0  0  0
  -26.2822  -12.9545   20.3226 N   0  0  0  0  0  0
  -25.9338  -11.6643   20.5711 N   0  0  0  0  0  0
  -22.0407  -12.8186   22.0460 N   0  0  0  0  0  0
  -25.4013  -15.1993   20.4188 N   0  0  0  0  0  0
  -31.6226  -15.3262   20.0695 O   0  0  0  0  0  0
  -21.6649   -6.8893   21.4238 O   0  0  0  0  0  0
  -22.3442  -14.5489   20.6731 O   0  0  0  0  0  0
  -24.6673  -31.8188   23.1676 C   0  0  0  0  0  0
  -25.9330  -32.4567   23.8160 C   0  0  1  0  0  0
  -27.2218  -26.8807   20.1859 C   0  0  0  0  0  0
  -25.5976  -33.8382   24.2059 N   0  0  0  0  0  0
  -23.4855  -30.4275   21.5168 C   0  0  2  0  0  0
  -24.9408  -28.8060   20.1100 C   0  0  0  0  0  0
  -22.7695  -29.4406   22.4767 C   0  0  0  0  0  0
  -18.0324  -28.1409   22.8467 C   0  0  0  0  0  0
  -24.1494  -36.7194   23.2651 C   0  0  0  0  0  0
  -26.0576  -30.6072   21.4069 C   0  0  0  0  0  0
  -26.1243  -29.1929   20.7508 C   0  0  0  0  0  0
  -27.2545  -28.2502   20.7677 C   0  0  0  0  0  0
  -26.0147  -26.6644   19.4825 C   0  0  0  0  0  0
  -24.9147  -27.5643   19.4538 C   0  0  0  0  0  0
  -23.7284  -29.7394   20.1444 C   0  0  0  0  0  0
  -25.4139  -36.2962   24.0298 C   0  0  1  0  0  0
  -20.5954  -28.3759   23.1182 C   0  0  2  0  0  0
  -20.6798  -26.9435   22.5400 C   0  0  0  0  0  0
  -19.5768  -26.6372   21.5218 C   0  0  0  0  0  0
  -18.1955  -26.7941   22.1631 C   0  0  0  0  0  0
  -19.1591  -28.8902   23.2808 C   0  0  0  0  0  0
  -18.9497  -30.1497   23.8843 C   0  0  0  0  0  0
  -17.6490  -30.6596   24.0552 C   0  0  0  0  0  0
  -25.9110  -34.9340   23.5013 C   0  0  0  0  0  0
  -16.5376  -29.9084   23.6342 C   0  0  0  0  0  0
  -16.7305  -28.6503   23.0363 C   0  0  0  0  0  0
  -26.4558  -31.6532   25.0710 C   0  0  0  0  0  0
  -25.3666  -31.3802   26.1356 C   0  0  0  0  0  0
  -27.0463  -30.2892   24.6487 C   0  0  0  0  0  0
  -27.6051  -32.4343   25.7506 C   0  0  0  0  0  0
  -27.5564  -37.1768   24.8474 C   0  0  0  0  0  0
  -21.4355  -29.3040   22.3522 N   0  0  0  0  0  0
  -26.4292  -37.3694   23.9397 N   0  0  0  0  0  0
  -24.7586  -30.9801   22.0832 N   0  0  0  0  0  0
  -23.4219  -28.7986   23.3034 O   0  0  0  0  0  0
  -28.2004  -25.7422   20.3068 O   0  0  0  0  0  0
  -26.5727  -34.8881   22.4616 O   0  0  0  0  0  0
  -23.5728  -32.1182   23.6735 O   0  0  0  0  0  0
  -28.8916  -21.1778   19.9122 C   0  0  0  0  0  0
  -29.1510  -21.2727   22.5913 C   0  0  0  0  0  0
  -29.2764  -19.8167   20.5721 C   0  0  0  0  0  0
  -28.6329  -22.5864   20.5311 C   0  0  0  0  0  0
  -29.3820  -20.0087   21.9711 C   0  0  0  0  0  0
  -28.7995  -22.4869   21.9339 C   0  0  0  0  0  0
  -29.7855  -18.8405   22.8551 C   0  0  0  0  0  0
  -29.7204  -18.2192   19.9414 C   0  0  0  0  0  0
  -28.0284  -24.1295   19.8939 C   0  0  0  0  0  0
  -29.6378  -16.6037   20.4447 N   0  0  0  0  0  0
  -28.5366  -23.8757   22.9266 Cl  0  0  0  0  0  0
  -31.4550  -13.0509   19.2041 H   0  0  0  0  0  0
  -30.5163  -11.9487   20.1585 H   0  0  0  0  0  0
  -29.9349  -11.7538   17.7152 H   0  0  0  0  0  0
  -29.5657  -13.4598   17.6462 H   0  0  0  0  0  0
  -28.0546  -11.2810   19.1075 H   0  0  0  0  0  0
  -27.4265  -12.3295   17.8614 H   0  0  0  0  0  0
  -27.5200  -14.2432   19.3163 H   0  0  0  0  0  0
  -28.8187  -12.5520   21.5046 H   0  0  0  0  0  0
  -28.2671  -14.2014   21.6876 H   0  0  0  0  0  0
  -25.2781   -9.5695   22.4762 H   0  0  0  0  0  0
  -24.0021   -7.4647   22.7476 H   0  0  0  0  0  0
  -21.0855   -8.8790   19.8962 H   0  0  0  0  0  0
  -22.3710  -10.9684   19.6166 H   0  0  0  0  0  0
  -21.2006   -7.6148   23.9715 H   0  0  0  0  0  0
  -21.1488   -6.0513   25.9075 H   0  0  0  0  0  0
  -22.0592   -2.7609   23.2833 H   0  0  0  0  0  0
  -22.4040  -11.9869   22.4880 H   0  0  0  0  0  0
  -21.1008  -13.1195   22.2634 H   0  0  0  0  0  0
  -24.6331  -15.8505   20.5391 H   0  0  0  0  0  0
  -26.2389  -15.6395   20.0626 H   0  0  0  0  0  0
  -26.7408  -32.5085   23.0877 H   0  0  0  0  0  0
  -25.0044  -33.9454   25.0155 H   0  0  0  0  0  0
  -22.8017  -31.2608   21.3427 H   0  0  0  0  0  0
  -23.3759  -35.9527   23.3332 H   0  0  0  0  0  0
  -24.3553  -36.8818   22.2060 H   0  0  0  0  0  0
  -23.7262  -37.6393   23.6692 H   0  0  0  0  0  0
  -26.2485  -31.3447   20.6261 H   0  0  0  0  0  0
  -26.9138  -30.6637   22.0670 H   0  0  0  0  0  0
  -28.1434  -28.5407   21.3108 H   0  0  0  0  0  0
  -25.8764  -25.7182   18.9799 H   0  0  0  0  0  0
  -24.0175  -27.2628   18.9307 H   0  0  0  0  0  0
  -23.8877  -30.5068   19.3863 H   0  0  0  0  0  0
  -22.8371  -29.1967   19.8257 H   0  0  0  0  0  0
  -25.1350  -36.1764   25.0793 H   0  0  0  0  0  0
  -21.0045  -28.3364   24.1304 H   0  0  0  0  0  0
  -20.5682  -26.2377   23.3648 H   0  0  0  0  0  0
  -21.6661  -26.7404   22.1205 H   0  0  0  0  0  0
  -19.6931  -25.6271   21.1279 H   0  0  0  0  0  0
  -19.6702  -27.3154   20.6727 H   0  0  0  0  0  0
  -17.4221  -26.6674   21.4038 H   0  0  0  0  0  0
  -18.0354  -26.0094   22.9042 H   0  0  0  0  0  0
  -19.7973  -30.7324   24.2192 H   0  0  0  0  0  0
  -17.5039  -31.6273   24.5163 H   0  0  0  0  0  0
  -15.5379  -30.2969   23.7695 H   0  0  0  0  0  0
  -15.8705  -28.0805   22.7113 H   0  0  0  0  0  0
  -24.5831  -30.7185   25.7643 H   0  0  0  0  0  0
  -24.8873  -32.3013   26.4683 H   0  0  0  0  0  0
  -25.7862  -30.9001   27.0208 H   0  0  0  0  0  0
  -26.3143  -29.6548   24.1475 H   0  0  0  0  0  0
  -27.3958  -29.7283   25.5167 H   0  0  0  0  0  0
  -27.9103  -30.4067   23.9943 H   0  0  0  0  0  0
  -27.2623  -33.3676   26.1989 H   0  0  0  0  0  0
  -28.3902  -32.6857   25.0360 H   0  0  0  0  0  0
  -28.0685  -31.8536   26.5495 H   0  0  0  0  0  0
  -28.2609  -38.0035   24.7469 H   0  0  0  0  0  0
  -28.1035  -36.2563   24.6381 H   0  0  0  0  0  0
  -27.2270  -37.1503   25.8875 H   0  0  0  0  0  0
  -20.9630  -29.8715   21.6622 H   0  0  0  0  0  0
  -26.0143  -38.2766   24.1351 H   0  0  0  0  0  0
  -28.7791  -21.1383   18.8380 H   0  0  0  0  0  0
  -29.2466  -21.3245   23.6659 H   0  0  0  0  0  0
  -29.8846  -19.1323   23.8997 H   0  0  0  0  0  0
  -30.7458  -18.4327   22.5359 H   0  0  0  0  0  0
  -29.0387  -18.0479   22.8060 H   0  0  0  0  0  0
  -30.7719  -18.3422   19.6808 H   0  0  0  0  0  0
  -29.2256  -18.1950   18.9700 H   0  0  0  0  0  0
  -26.9511  -23.9710   19.9258 H   0  0  0  0  0  0
  -28.2678  -24.0964   18.8308 H   0  0  0  0  0  0
  -28.7003  -16.3890   20.7503 H   0  0  0  0  0  0
  1 25  1  0  0  0
  1 30  2  0  0  0
  1 80  1  0  0  0
  2  3  1  0  0  0
  2 25  1  0  0  0
  2 82  1  0  0  0
  2 83  1  0  0  0
  3  4  1  0  0  0
  3 84  1  0  0  0
  3 85  1  0  0  0
  4  5  1  0  0  0
  4 86  1  0  0  0
  4 87  1  0  0  0
  5  6  1  0  0  0
  5 26  1  0  0  0
  5 88  1  0  0  0
  6 25  1  0  0  0
  6 89  1  0  0  0
  6 90  1  0  0  0
  7  8  2  0  0  0
  7 26  1  0  0  0
  7 29  1  0  0  0
  8  9  1  0  0  0
  8 22  1  0  0  0
  9 10  1  0  0  0
  9 27  2  0  0  0
 10 11  2  0  0  0
 10 15  1  0  0  0
 11 12  1  0  0  0
 11 91  1  0  0  0
 12 13  2  0  0  0
 12 92  1  0  0  0
 13 14  1  0  0  0
 13 31  1  0  0  0
 14 15  2  0  0  0
 14 93  1  0  0  0
 15 94  1  0  0  0
 16 17  2  0  0  0
 16 21  1  0  0  0
 16 31  1  0  0  0
 17 18  1  0  0  0
 17 95  1  0  0  0
 18 19  2  0  0  0
 18 96  1  0  0  0
 19 20  1  0  0  0
 19 24  1  0  0  0
 20 21  2  0  0  0
 20 97  1  0  0  0
 21 23  1  0  0  0
 22 28  1  0  0  0
 22 32  2  0  0  0
 26 27  1  0  0  0
 28 98  1  0  0  0
 28 99  1  0  0  0
 29100  1  0  0  0
 29101  1  0  0  0
 33 34  1  0  0  0
 33 66  1  0  0  0
 33 70  2  0  0  0
 34 36  1  0  0  0
 34 59  1  0  0  0
 34102  1  0  0  0
 35 44  2  0  0  0
 35 45  1  0  0  0
 35 68  1  0  0  0
 36 56  1  0  0  0
 36103  1  0  0  0
 37 39  1  0  0  0
 37 47  1  0  0  0
 37 66  1  0  0  0
 37104  1  0  0  0
 38 43  2  0  0  0
 38 46  1  0  0  0
 38 47  1  0  0  0
 39 64  1  0  0  0
 39 67  2  0  0  0
 40 52  1  0  0  0
 40 53  2  0  0  0
 40 58  1  0  0  0
 41105  1  0  0  0
 41106  1  0  0  0
 41107  1  0  0  0
 41 48  1  0  0  0
 42 43  1  0  0  0
 42 66  1  0  0  0
 42108  1  0  0  0
 42109  1  0  0  0
 43 44  1  0  0  0
 44110  1  0  0  0
 45 46  2  0  0  0
 45111  1  0  0  0
 46112  1  0  0  0
 47113  1  0  0  0
 47114  1  0  0  0
 48 56  1  0  0  0
 48 65  1  0  0  0
 48115  1  0  0  0
 49 50  1  0  0  0
 49 53  1  0  0  0
 49 64  1  0  0  0
 49116  1  0  0  0
 50 51  1  0  0  0
 50117  1  0  0  0
 50118  1  0  0  0
 51 52  1  0  0  0
 51119  1  0  0  0
 51120  1  0  0  0
 52121  1  0  0  0
 52122  1  0  0  0
 53 54  1  0  0  0
 54 55  2  0  0  0
 54123  1  0  0  0
 55 57  1  0  0  0
 55124  1  0  0  0
 56 69  2  0  0  0
 57 58  2  0  0  0
 57125  1  0  0  0
 58126  1  0  0  0
 59 60  1  0  0  0
 59 61  1  0  0  0
 59 62  1  0  0  0
 60127  1  0  0  0
 60128  1  0  0  0
 60129  1  0  0  0
 61130  1  0  0  0
 61131  1  0  0  0
 61132  1  0  0  0
 62133  1  0  0  0
 62134  1  0  0  0
 62135  1  0  0  0
 63 65  1  0  0  0
 63136  1  0  0  0
 63137  1  0  0  0
 63138  1  0  0  0
 64139  1  0  0  0
 65140  1  0  0  0
 68 79  1  0  0  0
 71 73  2  0  0  0
 71 74  1  0  0  0
 71141  1  0  0  0
 72 75  2  0  0  0
 72 76  1  0  0  0
 72142  1  0  0  0
 73 75  1  0  0  0
 73 78  1  0  0  0
 74 76  2  0  0  0
 74 79  1  0  0  0
 75 77  1  0  0  0
 76 81  1  0  0  0
 77143  1  0  0  0
 77144  1  0  0  0
 77145  1  0  0  0
 78 80  1  0  0  0
 78146  1  0  0  0
 78147  1  0  0  0
 79148  1  0  0  0
 79149  1  0  0  0
 80150  1  0  0  0
M  ISO  4   1 100  68 101  79 101  80 100
M  END
> <chiral flag>
0

> <version>
0

> <s_m_source_file>
/data/baiqing/PycharmProjects/Reinvent-master-3.2/result/LINK_invent/BTK/process_docking_weight1_custom_product_contain_oxygen_bond_distance_aromatic_linkinvent_7_9_3/rearranged_h_0027.sdf

> <i_m_source_file_index>
37

> <r_mmod_Potential_Energy-OPLS-2005>
1386.39343261719

> <r_mmod_Stretch_Energy-OPLS-2005>
649.751831054688

> <r_mmod_Bend_Energy-OPLS-2005>
439.531890869141

> <r_mmod_Torsional_Energy-OPLS-2005>
217.541030883789

> <r_mmod_Improper_Torsional_Energy-OPLS-2005>
5.85400104522705

> <r_mmod_Van_der_Waal_Energy-OPLS-2005>
125.185150146484

> <r_mmod_Electrostatic_Energy-OPLS-2005>
-368.559204101562

> <r_mmod_Solvation_Energy-OPLS-2005>
-214.90559387207

> <b_mmod_Minimization_Converged-OPLS-2005>
0

> <r_mmod_RMS_Derivative-OPLS-2005>
1.76404285430908

$$$$
38
                    3D
 Structure written by MMmdl.
150159  0  0  1  0            999 V2000
  -30.4777  -15.0243   20.4017 C   0  0  0  0  0  0
  -30.4529  -12.6361   19.4968 C   0  0  0  0  0  0
  -29.5277  -12.5388   18.2595 C   0  0  0  0  0  0
  -28.0620  -12.3127   18.6795 C   0  0  0  0  0  0
  -27.6287  -13.2475   19.8370 C   0  0  2  0  0  0
  -28.6735  -13.2873   20.9721 C   0  0  0  0  0  0
  -25.2461  -13.8211   20.5722 C   0  0  0  0  0  0
  -24.1779  -13.0434   20.9244 C   0  0  0  0  0  0
  -24.6394  -11.6919   20.8766 C   0  0  0  0  0  0
  -23.9071  -10.4293   21.0415 C   0  0  0  0  0  0
  -24.3621   -9.4205   21.9192 C   0  0  0  0  0  0
  -23.6293   -8.2242   22.0758 C   0  0  0  0  0  0
  -22.4275   -8.0286   21.3545 C   0  0  0  0  0  0
  -21.9908   -9.0265   20.4649 C   0  0  0  0  0  0
  -22.7242  -10.2141   20.3063 C   0  0  0  0  0  0
  -21.6856   -6.0735   22.5274 C   0  0  0  0  0  0
  -21.4019   -6.5639   23.8208 C   0  0  0  0  0  0
  -21.3659   -5.6792   24.9170 C   0  0  0  0  0  0
  -21.6046   -4.3056   24.7221 C   0  0  0  0  0  0
  -21.8819   -3.8143   23.4343 C   0  0  0  0  0  0
  -21.9193   -4.6961   22.3397 C   0  0  0  0  0  0
  -22.7800  -13.5210   21.1889 C   0  0  0  0  0  0
  -22.1663   -4.2147   21.0974 F   0  0  0  0  0  0
  -21.5623   -3.4538   25.7732 F   0  0  0  0  0  0
  -29.9382  -13.7322   20.3698 N   0  0  0  0  0  0
  -26.2881  -12.9438   20.3241 N   0  0  0  0  0  0
  -25.9328  -11.6571   20.5751 N   0  0  0  0  0  0
  -22.0440  -12.8210   22.0445 N   0  0  0  0  0  0
  -25.4115  -15.1943   20.4142 N   0  0  0  0  0  0
  -31.6876  -15.1261   20.1683 O   0  0  0  0  0  0
  -21.6643   -6.8883   21.4239 O   0  0  0  0  0  0
  -22.3491  -14.5513   20.6725 O   0  0  0  0  0  0
  -24.6467  -31.8381   23.1816 C   0  0  0  0  0  0
  -25.9215  -32.4660   23.8233 C   0  0  1  0  0  0
  -27.2242  -27.0874   20.1712 C   0  0  0  0  0  0
  -25.5941  -33.8468   24.2153 N   0  0  0  0  0  0
  -23.4540  -30.4530   21.5281 C   0  0  2  0  0  0
  -24.9059  -28.8632   20.1150 C   0  0  0  0  0  0
  -22.7585  -29.4507   22.4834 C   0  0  0  0  0  0
  -18.0306  -28.1394   22.8476 C   0  0  0  0  0  0
  -24.1489  -36.7248   23.2645 C   0  0  0  0  0  0
  -26.0120  -30.6977   21.3855 C   0  0  0  0  0  0
  -26.0845  -29.3015   20.7318 C   0  0  0  0  0  0
  -27.2453  -28.4333   20.7333 C   0  0  0  0  0  0
  -26.0165  -26.7498   19.5266 C   0  0  0  0  0  0
  -24.8869  -27.6024   19.4947 C   0  0  0  0  0  0
  -23.6850  -29.7734   20.1510 C   0  0  0  0  0  0
  -25.4121  -36.3011   24.0313 C   0  0  1  0  0  0
  -20.5920  -28.3719   23.1230 C   0  0  2  0  0  0
  -20.6784  -26.9416   22.5408 C   0  0  0  0  0  0
  -19.5757  -26.6373   21.5218 C   0  0  0  0  0  0
  -18.1942  -26.7932   22.1629 C   0  0  0  0  0  0
  -19.1564  -28.8875   23.2845 C   0  0  0  0  0  0
  -18.9482  -30.1471   23.8872 C   0  0  0  0  0  0
  -17.6477  -30.6589   24.0558 C   0  0  0  0  0  0
  -25.9080  -34.9388   23.5052 C   0  0  0  0  0  0
  -16.5368  -29.9083   23.6331 C   0  0  0  0  0  0
  -16.7292  -28.6501   23.0355 C   0  0  0  0  0  0
  -26.4523  -31.6547   25.0696 C   0  0  0  0  0  0
  -25.3699  -31.3756   26.1387 C   0  0  0  0  0  0
  -27.0398  -30.2938   24.6310 C   0  0  0  0  0  0
  -27.6035  -32.4331   25.7494 C   0  0  0  0  0  0
  -27.5575  -37.1770   24.8459 C   0  0  0  0  0  0
  -21.4270  -29.3037   22.3595 N   0  0  0  0  0  0
  -26.4276  -37.3733   23.9416 N   0  0  0  0  0  0
  -24.7246  -31.0190   22.0868 N   0  0  0  0  0  0
  -23.4204  -28.8064   23.3011 O   0  0  0  0  0  0
  -28.2908  -26.1034   20.1975 O   0  0  0  0  0  0
  -26.5685  -34.8900   22.4644 O   0  0  0  0  0  0
  -23.5574  -32.1272   23.7012 O   0  0  0  0  0  0
  -28.1502  -19.8282   19.8341 C   0  0  0  0  0  0
  -30.1768  -20.1729   20.8597 C   0  0  0  0  0  0
  -28.3829  -18.3853   19.8531 C   0  0  0  0  0  0
  -30.4443  -18.7214   20.8661 C   0  0  0  0  0  0
  -29.0000  -20.8698   20.3592 C   0  0  0  0  0  0
  -29.5411  -17.7068   20.3762 C   0  0  0  0  0  0
  -27.9296  -23.3136   19.4739 C   0  0  0  0  0  0
  -29.2841  -23.5870   21.0142 C   0  0  0  0  0  0
  -28.1015  -24.5580   20.4897 C   0  0  0  0  0  0
  -28.6067  -22.3810   20.4409 N   0  0  0  0  0  0
  -29.5882  -16.1493   20.4753 N   0  0  0  0  0  0
  -31.4783  -12.8280   19.1776 H   0  0  0  0  0  0
  -30.4793  -11.6904   20.0406 H   0  0  0  0  0  0
  -29.8560  -11.7333   17.6013 H   0  0  0  0  0  0
  -29.6020  -13.4599   17.6786 H   0  0  0  0  0  0
  -27.9669  -11.2730   18.9949 H   0  0  0  0  0  0
  -27.3979  -12.4346   17.8232 H   0  0  0  0  0  0
  -27.5841  -14.2448   19.3998 H   0  0  0  0  0  0
  -28.7807  -12.3096   21.4441 H   0  0  0  0  0  0
  -28.3629  -13.9773   21.7584 H   0  0  0  0  0  0
  -25.2764   -9.5680   22.4773 H   0  0  0  0  0  0
  -23.9999   -7.4633   22.7480 H   0  0  0  0  0  0
  -21.0837   -8.8796   19.8957 H   0  0  0  0  0  0
  -22.3706  -10.9691   19.6180 H   0  0  0  0  0  0
  -21.2017   -7.6146   23.9711 H   0  0  0  0  0  0
  -21.1480   -6.0520   25.9073 H   0  0  0  0  0  0
  -22.0594   -2.7602   23.2845 H   0  0  0  0  0  0
  -22.4059  -11.9880   22.4846 H   0  0  0  0  0  0
  -21.1058  -13.1250   22.2649 H   0  0  0  0  0  0
  -24.6379  -15.8410   20.5279 H   0  0  0  0  0  0
  -26.2374  -15.6329   20.0319 H   0  0  0  0  0  0
  -26.7284  -32.5255   23.0963 H   0  0  0  0  0  0
  -25.0026  -33.9569   25.0258 H   0  0  0  0  0  0
  -22.7589  -31.2795   21.3664 H   0  0  0  0  0  0
  -23.3747  -35.9583   23.3288 H   0  0  0  0  0  0
  -24.3573  -36.8896   22.2061 H   0  0  0  0  0  0
  -23.7248  -37.6440   23.6699 H   0  0  0  0  0  0
  -26.1702  -31.4468   20.6088 H   0  0  0  0  0  0
  -26.8811  -30.7540   22.0293 H   0  0  0  0  0  0
  -28.1478  -28.7691   21.2249 H   0  0  0  0  0  0
  -25.9312  -25.7807   19.0559 H   0  0  0  0  0  0
  -23.9873  -27.2597   19.0023 H   0  0  0  0  0  0
  -23.8298  -30.5448   19.3938 H   0  0  0  0  0  0
  -22.7985  -29.2198   19.8361 H   0  0  0  0  0  0
  -25.1308  -36.1829   25.0802 H   0  0  0  0  0  0
  -21.0017  -28.3316   24.1350 H   0  0  0  0  0  0
  -20.5664  -26.2336   23.3633 H   0  0  0  0  0  0
  -21.6650  -26.7401   22.1213 H   0  0  0  0  0  0
  -19.6912  -25.6278   21.1260 H   0  0  0  0  0  0
  -19.6696  -27.3169   20.6738 H   0  0  0  0  0  0
  -17.4207  -26.6669   21.4039 H   0  0  0  0  0  0
  -18.0343  -26.0085   22.9036 H   0  0  0  0  0  0
  -19.7959  -30.7294   24.2233 H   0  0  0  0  0  0
  -17.5030  -31.6269   24.5162 H   0  0  0  0  0  0
  -15.5367  -30.2977   23.7671 H   0  0  0  0  0  0
  -15.8694  -28.0812   22.7085 H   0  0  0  0  0  0
  -24.5875  -30.7108   25.7712 H   0  0  0  0  0  0
  -24.8896  -32.2944   26.4758 H   0  0  0  0  0  0
  -25.7969  -30.8963   27.0204 H   0  0  0  0  0  0
  -26.3022  -29.6648   24.1309 H   0  0  0  0  0  0
  -27.3985  -29.7256   25.4902 H   0  0  0  0  0  0
  -27.8939  -30.4166   23.9649 H   0  0  0  0  0  0
  -27.2602  -33.3639   26.2025 H   0  0  0  0  0  0
  -28.3872  -32.6880   25.0348 H   0  0  0  0  0  0
  -28.0678  -31.8493   26.5452 H   0  0  0  0  0  0
  -28.2560  -38.0098   24.7530 H   0  0  0  0  0  0
  -28.1103  -36.2626   24.6248 H   0  0  0  0  0  0
  -27.2303  -37.1368   25.8863 H   0  0  0  0  0  0
  -20.9488  -29.8763   21.6779 H   0  0  0  0  0  0
  -26.0135  -38.2793   24.1439 H   0  0  0  0  0  0
  -27.2051  -20.1472   19.4190 H   0  0  0  0  0  0
  -30.9398  -20.7927   21.3092 H   0  0  0  0  0  0
  -27.5892  -17.7727   19.4495 H   0  0  0  0  0  0
  -31.3685  -18.3903   21.3183 H   0  0  0  0  0  0
  -28.4984  -23.4284   18.5491 H   0  0  0  0  0  0
  -26.8897  -23.0560   19.2691 H   0  0  0  0  0  0
  -29.3799  -23.5631   22.1005 H   0  0  0  0  0  0
  -30.2468  -23.7805   20.5375 H   0  0  0  0  0  0
  -27.2881  -24.5024   21.2163 H   0  0  0  0  0  0
  -28.6554  -15.7739   20.5319 H   0  0  0  0  0  0
  1 25  1  0  0  0
  1 30  2  0  0  0
  1 81  1  0  0  0
  2  3  1  0  0  0
  2 25  1  0  0  0
  2 82  1  0  0  0
  2 83  1  0  0  0
  3  4  1  0  0  0
  3 84  1  0  0  0
  3 85  1  0  0  0
  4  5  1  0  0  0
  4 86  1  0  0  0
  4 87  1  0  0  0
  5  6  1  0  0  0
  5 26  1  0  0  0
  5 88  1  0  0  0
  6 25  1  0  0  0
  6 89  1  0  0  0
  6 90  1  0  0  0
  7  8  2  0  0  0
  7 26  1  0  0  0
  7 29  1  0  0  0
  8  9  1  0  0  0
  8 22  1  0  0  0
  9 10  1  0  0  0
  9 27  2  0  0  0
 10 11  2  0  0  0
 10 15  1  0  0  0
 11 12  1  0  0  0
 11 91  1  0  0  0
 12 13  2  0  0  0
 12 92  1  0  0  0
 13 14  1  0  0  0
 13 31  1  0  0  0
 14 15  2  0  0  0
 14 93  1  0  0  0
 15 94  1  0  0  0
 16 17  2  0  0  0
 16 21  1  0  0  0
 16 31  1  0  0  0
 17 18  1  0  0  0
 17 95  1  0  0  0
 18 19  2  0  0  0
 18 96  1  0  0  0
 19 20  1  0  0  0
 19 24  1  0  0  0
 20 21  2  0  0  0
 20 97  1  0  0  0
 21 23  1  0  0  0
 22 28  1  0  0  0
 22 32  2  0  0  0
 26 27  1  0  0  0
 28 98  1  0  0  0
 28 99  1  0  0  0
 29100  1  0  0  0
 29101  1  0  0  0
 33 34  1  0  0  0
 33 66  1  0  0  0
 33 70  2  0  0  0
 34 36  1  0  0  0
 34 59  1  0  0  0
 34102  1  0  0  0
 35 44  2  0  0  0
 35 45  1  0  0  0
 35 68  1  0  0  0
 36 56  1  0  0  0
 36103  1  0  0  0
 37 39  1  0  0  0
 37 47  1  0  0  0
 37 66  1  0  0  0
 37104  1  0  0  0
 38 43  2  0  0  0
 38 46  1  0  0  0
 38 47  1  0  0  0
 39 64  1  0  0  0
 39 67  2  0  0  0
 40 52  1  0  0  0
 40 53  2  0  0  0
 40 58  1  0  0  0
 41105  1  0  0  0
 41106  1  0  0  0
 41107  1  0  0  0
 41 48  1  0  0  0
 42 43  1  0  0  0
 42 66  1  0  0  0
 42108  1  0  0  0
 42109  1  0  0  0
 43 44  1  0  0  0
 44110  1  0  0  0
 45 46  2  0  0  0
 45111  1  0  0  0
 46112  1  0  0  0
 47113  1  0  0  0
 47114  1  0  0  0
 48 56  1  0  0  0
 48 65  1  0  0  0
 48115  1  0  0  0
 49 50  1  0  0  0
 49 53  1  0  0  0
 49 64  1  0  0  0
 49116  1  0  0  0
 50 51  1  0  0  0
 50117  1  0  0  0
 50118  1  0  0  0
 51 52  1  0  0  0
 51119  1  0  0  0
 51120  1  0  0  0
 52121  1  0  0  0
 52122  1  0  0  0
 53 54  1  0  0  0
 54 55  2  0  0  0
 54123  1  0  0  0
 55 57  1  0  0  0
 55124  1  0  0  0
 56 69  2  0  0  0
 57 58  2  0  0  0
 57125  1  0  0  0
 58126  1  0  0  0
 59 60  1  0  0  0
 59 61  1  0  0  0
 59 62  1  0  0  0
 60127  1  0  0  0
 60128  1  0  0  0
 60129  1  0  0  0
 61130  1  0  0  0
 61131  1  0  0  0
 61132  1  0  0  0
 62133  1  0  0  0
 62134  1  0  0  0
 62135  1  0  0  0
 63 65  1  0  0  0
 63136  1  0  0  0
 63137  1  0  0  0
 63138  1  0  0  0
 64139  1  0  0  0
 65140  1  0  0  0
 68 79  1  0  0  0
 71 73  2  0  0  0
 71 75  1  0  0  0
 71141  1  0  0  0
 72 74  1  0  0  0
 72 75  2  0  0  0
 72142  1  0  0  0
 73 76  1  0  0  0
 73143  1  0  0  0
 74 76  2  0  0  0
 74144  1  0  0  0
 75 80  1  0  0  0
 76 81  1  0  0  0
 77 79  1  0  0  0
 77 80  1  0  0  0
 77145  1  0  0  0
 77146  1  0  0  0
 78 79  1  0  0  0
 78 80  1  0  0  0
 78147  1  0  0  0
 78148  1  0  0  0
 79149  1  0  0  0
 81150  1  0  0  0
M  ISO  4   1 100  68 101  79 101  81 100
M  END
> <chiral flag>
0

> <version>
0

> <s_m_source_file>
/data/baiqing/PycharmProjects/Reinvent-master-3.2/result/LINK_invent/BTK/process_docking_weight1_custom_product_contain_oxygen_bond_distance_aromatic_linkinvent_7_9_3/rearranged_h_0027.sdf

> <i_m_source_file_index>
38

> <r_mmod_Potential_Energy-OPLS-2005>
678.307983398438

> <r_mmod_Stretch_Energy-OPLS-2005>
267.599060058594

> <r_mmod_Bend_Energy-OPLS-2005>
388.073883056641

> <r_mmod_Torsional_Energy-OPLS-2005>
250.730224609375

> <r_mmod_Improper_Torsional_Energy-OPLS-2005>
9.47768306732178

> <r_mmod_Van_der_Waal_Energy-OPLS-2005>
125.283355712891

> <r_mmod_Electrostatic_Energy-OPLS-2005>
-370.955444335938

> <r_mmod_Solvation_Energy-OPLS-2005>
-234.44108581543

> <b_mmod_Minimization_Converged-OPLS-2005>
0

> <r_mmod_RMS_Derivative-OPLS-2005>
1.28277492523193

$$$$
39
                    3D
 Structure written by MMmdl.
162171  0  0  1  0            999 V2000
  -30.7218  -14.5783   20.4898 C   0  0  0  0  0  0
  -30.3965  -12.3582   19.4470 C   0  0  0  0  0  0
  -29.4888  -12.4777   18.2081 C   0  0  0  0  0  0
  -28.0085  -12.3521   18.6131 C   0  0  0  0  0  0
  -27.6348  -13.2344   19.8379 C   0  0  2  0  0  0
  -28.6811  -13.1370   20.9671 C   0  0  0  0  0  0
  -25.2467  -13.8211   20.5669 C   0  0  0  0  0  0
  -24.1780  -13.0436   20.9216 C   0  0  0  0  0  0
  -24.6379  -11.6909   20.8729 C   0  0  0  0  0  0
  -23.9043  -10.4291   21.0375 C   0  0  0  0  0  0
  -24.3616   -9.4205   21.9152 C   0  0  0  0  0  0
  -23.6307   -8.2229   22.0726 C   0  0  0  0  0  0
  -22.4278   -8.0268   21.3553 C   0  0  0  0  0  0
  -21.9900   -9.0197   20.4621 C   0  0  0  0  0  0
  -22.7206  -10.2100   20.3014 C   0  0  0  0  0  0
  -21.6840   -6.0728   22.5292 C   0  0  0  0  0  0
  -21.4009   -6.5623   23.8226 C   0  0  0  0  0  0
  -21.3663   -5.6779   24.9185 C   0  0  0  0  0  0
  -21.6048   -4.3039   24.7240 C   0  0  0  0  0  0
  -21.8820   -3.8133   23.4343 C   0  0  0  0  0  0
  -21.9199   -4.6959   22.3410 C   0  0  0  0  0  0
  -22.7794  -13.5187   21.1900 C   0  0  0  0  0  0
  -22.1662   -4.2156   21.0981 F   0  0  0  0  0  0
  -21.5641   -3.4509   25.7735 F   0  0  0  0  0  0
  -29.9962  -13.4246   20.3856 N   0  0  0  0  0  0
  -26.2884  -12.9416   20.3184 N   0  0  0  0  0  0
  -25.9308  -11.6555   20.5675 N   0  0  0  0  0  0
  -22.0443  -12.8185   22.0457 N   0  0  0  0  0  0
  -25.4178  -15.1937   20.4165 N   0  0  0  0  0  0
  -31.9119  -14.5982   20.1778 O   0  0  0  0  0  0
  -21.6648   -6.8859   21.4247 O   0  0  0  0  0  0
  -22.3443  -14.5456   20.6701 O   0  0  0  0  0  0
  -24.6247  -31.8607   23.2062 C   0  0  0  0  0  0
  -25.9099  -32.4780   23.8383 C   0  0  1  0  0  0
  -27.2194  -27.3306   20.1178 C   0  0  0  0  0  0
  -25.5918  -33.8585   24.2292 N   0  0  0  0  0  0
  -23.4170  -30.4875   21.5495 C   0  0  2  0  0  0
  -24.8613  -28.9501   20.1094 C   0  0  0  0  0  0
  -22.7455  -29.4638   22.4957 C   0  0  0  0  0  0
  -18.0286  -28.1380   22.8488 C   0  0  0  0  0  0
  -24.1491  -36.7304   23.2633 C   0  0  0  0  0  0
  -25.9576  -30.7966   21.3755 C   0  0  0  0  0  0
  -26.0319  -29.4269   20.7144 C   0  0  0  0  0  0
  -27.2154  -28.6305   20.7059 C   0  0  0  0  0  0
  -26.0200  -26.9026   19.4965 C   0  0  0  0  0  0
  -24.8578  -27.6914   19.4936 C   0  0  0  0  0  0
  -23.6293  -29.8294   20.1621 C   0  0  0  0  0  0
  -25.4111  -36.3090   24.0327 C   0  0  1  0  0  0
  -20.5887  -28.3694   23.1290 C   0  0  2  0  0  0
  -20.6799  -26.9428   22.5413 C   0  0  0  0  0  0
  -19.5769  -26.6385   21.5216 C   0  0  0  0  0  0
  -18.1939  -26.7929   22.1617 C   0  0  0  0  0  0
  -19.1540  -28.8852   23.2883 C   0  0  0  0  0  0
  -18.9462  -30.1454   23.8907 C   0  0  0  0  0  0
  -17.6463  -30.6592   24.0554 C   0  0  0  0  0  0
  -25.9051  -34.9458   23.5107 C   0  0  0  0  0  0
  -16.5355  -29.9089   23.6327 C   0  0  0  0  0  0
  -16.7271  -28.6497   23.0361 C   0  0  0  0  0  0
  -26.4472  -31.6583   25.0746 C   0  0  0  0  0  0
  -25.3695  -31.3728   26.1464 C   0  0  0  0  0  0
  -27.0287  -30.2999   24.6192 C   0  0  0  0  0  0
  -27.6056  -32.4281   25.7513 C   0  0  0  0  0  0
  -27.5574  -37.1809   24.8454 C   0  0  0  0  0  0
  -21.4179  -29.3035   22.3675 N   0  0  0  0  0  0
  -26.4284  -37.3785   23.9405 N   0  0  0  0  0  0
  -24.6856  -31.0630   22.1016 N   0  0  0  0  0  0
  -23.4176  -28.8177   23.3026 O   0  0  0  0  0  0
  -28.3320  -26.4764   20.1747 O   0  0  0  0  0  0
  -26.5624  -34.8922   22.4676 O   0  0  0  0  0  0
  -23.5411  -32.1424   23.7373 O   0  0  0  0  0  0
  -28.8927  -18.7793   21.0198 C   0  0  0  0  0  0
  -28.4384  -20.1291   21.0604 C   0  0  0  0  0  0
  -30.2276  -18.4844   20.6863 C   0  0  0  0  0  0
  -30.6031  -20.9519   20.3846 C   0  0  0  0  0  0
  -29.2589  -21.2678   20.7766 C   0  0  0  0  0  0
  -31.0577  -19.5924   20.3714 C   0  0  0  0  0  0
  -29.1369  -23.5781   23.0735 C   0  0  0  0  0  0
  -29.8838  -24.3537   21.9805 C   0  0  0  0  0  0
  -28.1169  -22.7226   22.3186 C   0  0  0  0  0  0
  -29.1773  -23.9631   20.6731 C   0  0  2  0  0  0
  -31.6290  -22.0062   19.9836 C   0  0  0  0  0  0
  -30.8653  -17.0539   20.6919 C   0  0  0  0  0  0
  -28.0348  -25.0352   20.3285 C   0  0  0  0  0  0
  -28.6587  -22.5800   20.9658 N   0  0  0  0  0  0
  -30.0873  -15.7682   20.7282 N   0  0  0  0  0  0
  -32.3529  -19.3385   20.0576 F   0  0  0  0  0  0
  -31.4442  -12.4228   19.1515 H   0  0  0  0  0  0
  -30.2815  -11.3777   19.9110 H   0  0  0  0  0  0
  -29.7461  -11.7019   17.4833 H   0  0  0  0  0  0
  -29.6540  -13.4318   17.7060 H   0  0  0  0  0  0
  -27.8244  -11.3003   18.8343 H   0  0  0  0  0  0
  -27.3635  -12.5937   17.7671 H   0  0  0  0  0  0
  -27.6357  -14.2675   19.4884 H   0  0  0  0  0  0
  -28.6777  -12.1320   21.3903 H   0  0  0  0  0  0
  -28.4453  -13.8226   21.7816 H   0  0  0  0  0  0
  -25.2746   -9.5705   22.4716 H   0  0  0  0  0  0
  -24.0050   -7.4598   22.7409 H   0  0  0  0  0  0
  -21.0846   -8.8632   19.8914 H   0  0  0  0  0  0
  -22.3608  -10.9597   19.6116 H   0  0  0  0  0  0
  -21.1987   -7.6132   23.9738 H   0  0  0  0  0  0
  -21.1499   -6.0505   25.9098 H   0  0  0  0  0  0
  -22.0622   -2.7610   23.2829 H   0  0  0  0  0  0
  -22.4061  -11.9882   22.4890 H   0  0  0  0  0  0
  -21.1011  -13.1128   22.2572 H   0  0  0  0  0  0
  -24.6520  -15.8488   20.5350 H   0  0  0  0  0  0
  -26.2730  -15.6340   20.1045 H   0  0  0  0  0  0
  -26.7168  -32.5441   23.1136 H   0  0  0  0  0  0
  -25.0020  -33.9754   25.0406 H   0  0  0  0  0  0
  -22.7106  -31.3084   21.4101 H   0  0  0  0  0  0
  -23.3752  -35.9638   23.3290 H   0  0  0  0  0  0
  -24.3587  -36.8931   22.2049 H   0  0  0  0  0  0
  -23.7255  -37.6511   23.6657 H   0  0  0  0  0  0
  -26.0813  -31.5625   20.6093 H   0  0  0  0  0  0
  -26.8403  -30.8427   22.0017 H   0  0  0  0  0  0
  -28.1127  -28.9883   21.1926 H   0  0  0  0  0  0
  -25.9393  -25.9412   19.0156 H   0  0  0  0  0  0
  -23.9603  -27.3192   19.0166 H   0  0  0  0  0  0
  -23.7489  -30.6109   19.4112 H   0  0  0  0  0  0
  -22.7475  -29.2645   19.8537 H   0  0  0  0  0  0
  -25.1296  -36.1943   25.0822 H   0  0  0  0  0  0
  -20.9955  -28.3267   24.1416 H   0  0  0  0  0  0
  -20.5735  -26.2296   23.3606 H   0  0  0  0  0  0
  -21.6666  -26.7492   22.1178 H   0  0  0  0  0  0
  -19.6958  -25.6286   21.1262 H   0  0  0  0  0  0
  -19.6721  -27.3191   20.6739 H   0  0  0  0  0  0
  -17.4221  -26.6666   21.4011 H   0  0  0  0  0  0
  -18.0347  -26.0070   22.9008 H   0  0  0  0  0  0
  -19.7939  -30.7260   24.2285 H   0  0  0  0  0  0
  -17.5029  -31.6283   24.5124 H   0  0  0  0  0  0
  -15.5369  -30.2997   23.7658 H   0  0  0  0  0  0
  -15.8661  -28.0818   22.7098 H   0  0  0  0  0  0
  -24.5890  -30.7050   25.7798 H   0  0  0  0  0  0
  -24.8848  -32.2885   26.4860 H   0  0  0  0  0  0
  -25.8006  -30.8936   27.0262 H   0  0  0  0  0  0
  -26.2865  -29.6787   24.1162 H   0  0  0  0  0  0
  -27.3913  -29.7215   25.4700 H   0  0  0  0  0  0
  -27.8767  -30.4272   23.9459 H   0  0  0  0  0  0
  -27.2713  -33.3585   26.2110 H   0  0  0  0  0  0
  -28.3872  -32.6816   25.0341 H   0  0  0  0  0  0
  -28.0712  -31.8373   26.5414 H   0  0  0  0  0  0
  -28.2584  -38.0114   24.7503 H   0  0  0  0  0  0
  -28.1077  -36.2643   24.6268 H   0  0  0  0  0  0
  -27.2290  -37.1439   25.8857 H   0  0  0  0  0  0
  -20.9362  -29.8708   21.6851 H   0  0  0  0  0  0
  -26.0161  -38.2850   24.1440 H   0  0  0  0  0  0
  -28.2145  -17.9756   21.2722 H   0  0  0  0  0  0
  -27.4073  -20.2915   21.3430 H   0  0  0  0  0  0
  -28.6578  -24.2320   23.8033 H   0  0  0  0  0  0
  -29.8333  -22.9295   23.6086 H   0  0  0  0  0  0
  -30.9249  -24.0426   21.9753 H   0  0  0  0  0  0
  -29.8993  -25.4300   22.1460 H   0  0  0  0  0  0
  -27.1467  -23.2211   22.2830 H   0  0  0  0  0  0
  -27.9457  -21.7918   22.8618 H   0  0  0  0  0  0
  -29.8689  -23.9747   19.8380 H   0  0  0  0  0  0
  -31.9397  -22.6030   20.8371 H   0  0  0  0  0  0
  -31.2545  -22.6467   19.1903 H   0  0  0  0  0  0
  -32.5410  -21.5660   19.5782 H   0  0  0  0  0  0
  -31.5692  -17.0207   21.5244 H   0  0  0  0  0  0
  -31.4942  -17.0248   19.7983 H   0  0  0  0  0  0
  -27.2755  -24.9963   21.1105 H   0  0  0  0  0  0
  -27.5533  -24.6745   19.4205 H   0  0  0  0  0  0
  -29.0875  -15.7888   20.8518 H   0  0  0  0  0  0
  1 25  1  0  0  0
  1 30  2  0  0  0
  1 85  1  0  0  0
  2  3  1  0  0  0
  2 25  1  0  0  0
  2 87  1  0  0  0
  2 88  1  0  0  0
  3  4  1  0  0  0
  3 89  1  0  0  0
  3 90  1  0  0  0
  4  5  1  0  0  0
  4 91  1  0  0  0
  4 92  1  0  0  0
  5  6  1  0  0  0
  5 26  1  0  0  0
  5 93  1  0  0  0
  6 25  1  0  0  0
  6 94  1  0  0  0
  6 95  1  0  0  0
  7  8  2  0  0  0
  7 26  1  0  0  0
  7 29  1  0  0  0
  8  9  1  0  0  0
  8 22  1  0  0  0
  9 10  1  0  0  0
  9 27  2  0  0  0
 10 11  2  0  0  0
 10 15  1  0  0  0
 11 12  1  0  0  0
 11 96  1  0  0  0
 12 13  2  0  0  0
 12 97  1  0  0  0
 13 14  1  0  0  0
 13 31  1  0  0  0
 14 15  2  0  0  0
 14 98  1  0  0  0
 15 99  1  0  0  0
 16 17  2  0  0  0
 16 21  1  0  0  0
 16 31  1  0  0  0
 17 18  1  0  0  0
 17100  1  0  0  0
 18 19  2  0  0  0
 18101  1  0  0  0
 19 20  1  0  0  0
 19 24  1  0  0  0
 20 21  2  0  0  0
 20102  1  0  0  0
 21 23  1  0  0  0
 22 28  1  0  0  0
 22 32  2  0  0  0
 26 27  1  0  0  0
 28103  1  0  0  0
 28104  1  0  0  0
 29105  1  0  0  0
 29106  1  0  0  0
 33 34  1  0  0  0
 33 66  1  0  0  0
 33 70  2  0  0  0
 34 36  1  0  0  0
 34 59  1  0  0  0
 34107  1  0  0  0
 35 44  2  0  0  0
 35 45  1  0  0  0
 35 68  1  0  0  0
 36 56  1  0  0  0
 36108  1  0  0  0
 37 39  1  0  0  0
 37 47  1  0  0  0
 37 66  1  0  0  0
 37109  1  0  0  0
 38 43  2  0  0  0
 38 46  1  0  0  0
 38 47  1  0  0  0
 39 64  1  0  0  0
 39 67  2  0  0  0
 40 52  1  0  0  0
 40 53  2  0  0  0
 40 58  1  0  0  0
 41110  1  0  0  0
 41111  1  0  0  0
 41112  1  0  0  0
 41 48  1  0  0  0
 42 43  1  0  0  0
 42 66  1  0  0  0
 42113  1  0  0  0
 42114  1  0  0  0
 43 44  1  0  0  0
 44115  1  0  0  0
 45 46  2  0  0  0
 45116  1  0  0  0
 46117  1  0  0  0
 47118  1  0  0  0
 47119  1  0  0  0
 48 56  1  0  0  0
 48 65  1  0  0  0
 48120  1  0  0  0
 49 50  1  0  0  0
 49 53  1  0  0  0
 49 64  1  0  0  0
 49121  1  0  0  0
 50 51  1  0  0  0
 50122  1  0  0  0
 50123  1  0  0  0
 51 52  1  0  0  0
 51124  1  0  0  0
 51125  1  0  0  0
 52126  1  0  0  0
 52127  1  0  0  0
 53 54  1  0  0  0
 54 55  2  0  0  0
 54128  1  0  0  0
 55 57  1  0  0  0
 55129  1  0  0  0
 56 69  2  0  0  0
 57 58  2  0  0  0
 57130  1  0  0  0
 58131  1  0  0  0
 59 60  1  0  0  0
 59 61  1  0  0  0
 59 62  1  0  0  0
 60132  1  0  0  0
 60133  1  0  0  0
 60134  1  0  0  0
 61135  1  0  0  0
 61136  1  0  0  0
 61137  1  0  0  0
 62138  1  0  0  0
 62139  1  0  0  0
 62140  1  0  0  0
 63 65  1  0  0  0
 63141  1  0  0  0
 63142  1  0  0  0
 63143  1  0  0  0
 64144  1  0  0  0
 65145  1  0  0  0
 68 83  1  0  0  0
 71 72  2  0  0  0
 71 73  1  0  0  0
 71146  1  0  0  0
 72 75  1  0  0  0
 72147  1  0  0  0
 73 76  2  0  0  0
 73 82  1  0  0  0
 74 75  2  0  0  0
 74 76  1  0  0  0
 74 81  1  0  0  0
 75 84  1  0  0  0
 76 86  1  0  0  0
 77 78  1  0  0  0
 77 79  1  0  0  0
 77148  1  0  0  0
 77149  1  0  0  0
 78 80  1  0  0  0
 78150  1  0  0  0
 78151  1  0  0  0
 79 84  1  0  0  0
 79152  1  0  0  0
 79153  1  0  0  0
 80 83  1  0  0  0
 80 84  1  0  0  0
 80154  1  0  0  0
 81155  1  0  0  0
 81156  1  0  0  0
 81157  1  0  0  0
 82 85  1  0  0  0
 82158  1  0  0  0
 82159  1  0  0  0
 83160  1  0  0  0
 83161  1  0  0  0
 85162  1  0  0  0
M  ISO  4   1 100  68 101  83 101  85 100
M  END
> <chiral flag>
0

> <version>
0

> <s_m_source_file>
/data/baiqing/PycharmProjects/Reinvent-master-3.2/result/LINK_invent/BTK/process_docking_weight1_custom_product_contain_oxygen_bond_distance_aromatic_linkinvent_7_9_3/rearranged_h_0027.sdf

> <i_m_source_file_index>
39

> <r_mmod_Potential_Energy-OPLS-2005>
169.540878295898

> <r_mmod_Stretch_Energy-OPLS-2005>
82.0892639160156

> <r_mmod_Bend_Energy-OPLS-2005>
209.12516784668

> <r_mmod_Torsional_Energy-OPLS-2005>
273.466033935547

> <r_mmod_Improper_Torsional_Energy-OPLS-2005>
9.54419994354248

> <r_mmod_Van_der_Waal_Energy-OPLS-2005>
167.82844543457

> <r_mmod_Electrostatic_Energy-OPLS-2005>
-401.787994384766

> <r_mmod_Solvation_Energy-OPLS-2005>
-218.059509277344

> <b_mmod_Minimization_Converged-OPLS-2005>
0

> <r_mmod_RMS_Derivative-OPLS-2005>
4.71591997146606

$$$$
40
                    3D
 Structure written by MMmdl.
159168  0  0  1  0            999 V2000
  -30.6263  -14.7370   20.4356 C   0  0  0  0  0  0
  -30.4078  -12.4440   19.4521 C   0  0  0  0  0  0
  -29.4919  -12.4848   18.2081 C   0  0  0  0  0  0
  -28.0131  -12.3122   18.6139 C   0  0  0  0  0  0
  -27.6236  -13.2148   19.8157 C   0  0  2  0  0  0
  -28.6598  -13.1061   20.9438 C   0  0  0  0  0  0
  -25.2457  -13.8141   20.5630 C   0  0  0  0  0  0
  -24.1770  -13.0448   20.9175 C   0  0  0  0  0  0
  -24.6327  -11.6890   20.8716 C   0  0  0  0  0  0
  -23.9026  -10.4287   21.0429 C   0  0  0  0  0  0
  -24.3589   -9.4213   21.9208 C   0  0  0  0  0  0
  -23.6274   -8.2249   22.0767 C   0  0  0  0  0  0
  -22.4262   -8.0278   21.3553 C   0  0  0  0  0  0
  -21.9901   -9.0251   20.4652 C   0  0  0  0  0  0
  -22.7216  -10.2130   20.3063 C   0  0  0  0  0  0
  -21.6849   -6.0739   22.5294 C   0  0  0  0  0  0
  -21.4013   -6.5642   23.8225 C   0  0  0  0  0  0
  -21.3647   -5.6793   24.9191 C   0  0  0  0  0  0
  -21.6033   -4.3059   24.7238 C   0  0  0  0  0  0
  -21.8816   -3.8155   23.4354 C   0  0  0  0  0  0
  -21.9189   -4.6971   22.3411 C   0  0  0  0  0  0
  -22.7787  -13.5218   21.1904 C   0  0  0  0  0  0
  -22.1656   -4.2154   21.0988 F   0  0  0  0  0  0
  -21.5622   -3.4541   25.7746 F   0  0  0  0  0  0
  -29.9576  -13.5213   20.3746 N   0  0  0  0  0  0
  -26.2802  -12.9319   20.3037 N   0  0  0  0  0  0
  -25.9205  -11.6478   20.5573 N   0  0  0  0  0  0
  -22.0432  -12.8210   22.0428 N   0  0  0  0  0  0
  -25.4228  -15.1891   20.4153 N   0  0  0  0  0  0
  -31.8186  -14.7501   20.1078 O   0  0  0  0  0  0
  -21.6629   -6.8882   21.4250 O   0  0  0  0  0  0
  -22.3490  -14.5571   20.6773 O   0  0  0  0  0  0
  -24.6273  -31.8575   23.1963 C   0  0  0  0  0  0
  -25.9112  -32.4750   23.8288 C   0  0  1  0  0  0
  -27.2129  -27.2880   20.0933 C   0  0  0  0  0  0
  -25.5965  -33.8554   24.2237 N   0  0  0  0  0  0
  -23.4195  -30.4755   21.5452 C   0  0  2  0  0  0
  -24.8579  -28.9069   20.1304 C   0  0  0  0  0  0
  -22.7480  -29.4596   22.4980 C   0  0  0  0  0  0
  -18.0306  -28.1302   22.8471 C   0  0  0  0  0  0
  -24.1516  -36.7240   23.2640 C   0  0  0  0  0  0
  -25.9625  -30.7717   21.3670 C   0  0  0  0  0  0
  -26.0332  -29.3892   20.7216 C   0  0  0  0  0  0
  -27.2169  -28.5918   20.6884 C   0  0  0  0  0  0
  -26.0119  -26.8457   19.5093 C   0  0  0  0  0  0
  -24.8464  -27.6374   19.5261 C   0  0  0  0  0  0
  -23.6309  -29.7951   20.1692 C   0  0  0  0  0  0
  -25.4141  -36.3048   24.0323 C   0  0  1  0  0  0
  -20.5905  -28.3605   23.1276 C   0  0  2  0  0  0
  -20.6792  -26.9329   22.5363 C   0  0  0  0  0  0
  -19.5779  -26.6321   21.5158 C   0  0  0  0  0  0
  -18.1950  -26.7855   22.1565 C   0  0  0  0  0  0
  -19.1563  -28.8775   23.2863 C   0  0  0  0  0  0
  -18.9502  -30.1401   23.8842 C   0  0  0  0  0  0
  -17.6498  -30.6516   24.0548 C   0  0  0  0  0  0
  -25.9065  -34.9438   23.5054 C   0  0  0  0  0  0
  -16.5382  -29.8993   23.6351 C   0  0  0  0  0  0
  -16.7294  -28.6425   23.0335 C   0  0  0  0  0  0
  -26.4479  -31.6571   25.0678 C   0  0  0  0  0  0
  -25.3693  -31.3691   26.1388 C   0  0  0  0  0  0
  -27.0329  -30.3039   24.6041 C   0  0  0  0  0  0
  -27.6074  -32.4266   25.7411 C   0  0  0  0  0  0
  -27.5570  -37.1790   24.8480 C   0  0  0  0  0  0
  -21.4193  -29.3001   22.3737 N   0  0  0  0  0  0
  -26.4309  -37.3756   23.9392 N   0  0  0  0  0  0
  -24.6899  -31.0517   22.0919 N   0  0  0  0  0  0
  -23.4232  -28.8114   23.3042 O   0  0  0  0  0  0
  -28.3681  -26.5178   19.9233 O   0  0  0  0  0  0
  -26.5605  -34.8930   22.4608 O   0  0  0  0  0  0
  -23.5428  -32.1388   23.7255 O   0  0  0  0  0  0
  -28.6652  -19.1603   20.2290 C   0  0  0  0  0  0
  -28.2736  -20.5456   20.2830 C   0  0  0  0  0  0
  -30.3294  -21.1807   19.3423 C   0  0  0  0  0  0
  -29.9470  -18.7290   19.7763 C   0  0  0  0  0  0
  -30.7306  -19.8055   19.2372 C   0  0  0  0  0  0
  -29.1151  -21.6458   19.9235 C   0  0  0  0  0  0
  -27.6105  -23.8571   20.3412 C   0  0  0  0  0  0
  -29.5087  -24.2307   19.5518 C   0  0  0  0  0  0
  -28.5511  -25.1293   20.4225 C   0  0  0  0  0  0
  -32.0491  -19.5322   18.5196 C   0  0  0  0  0  0
  -28.9585  -16.2256   21.5619 C   0  0  0  0  0  0
  -30.5421  -17.2272   19.8229 C   0  0  0  0  0  0
  -28.8724  -23.0837   20.2151 N   0  0  0  0  0  0
  -29.9439  -15.9682   20.4941 N   0  0  0  0  0  0
  -31.4501  -12.5436   19.1471 H   0  0  0  0  0  0
  -30.3467  -11.4640   19.9297 H   0  0  0  0  0  0
  -29.7731  -11.7002   17.5027 H   0  0  0  0  0  0
  -29.6206  -13.4294   17.6807 H   0  0  0  0  0  0
  -27.8631  -11.2623   18.8718 H   0  0  0  0  0  0
  -27.3593  -12.5004   17.7603 H   0  0  0  0  0  0
  -27.6308  -14.2392   19.4440 H   0  0  0  0  0  0
  -28.7042  -12.0698   21.2846 H   0  0  0  0  0  0
  -28.3243  -13.6616   21.8134 H   0  0  0  0  0  0
  -25.2742   -9.5699   22.4777 H   0  0  0  0  0  0
  -23.9995   -7.4639   22.7482 H   0  0  0  0  0  0
  -21.0835   -8.8759   19.8938 H   0  0  0  0  0  0
  -22.3695  -10.9666   19.6155 H   0  0  0  0  0  0
  -21.2005   -7.6147   23.9736 H   0  0  0  0  0  0
  -21.1462   -6.0522   25.9090 H   0  0  0  0  0  0
  -22.0596   -2.7613   23.2862 H   0  0  0  0  0  0
  -22.4009  -11.9837   22.4790 H   0  0  0  0  0  0
  -21.1046  -13.1239   22.2617 H   0  0  0  0  0  0
  -24.6720  -15.8505   20.5795 H   0  0  0  0  0  0
  -26.2828  -15.6330   20.1231 H   0  0  0  0  0  0
  -26.7174  -32.5410   23.1021 H   0  0  0  0  0  0
  -25.0357  -33.9733   25.0537 H   0  0  0  0  0  0
  -22.7140  -31.2960   21.3928 H   0  0  0  0  0  0
  -23.3805  -35.9547   23.3323 H   0  0  0  0  0  0
  -24.3609  -36.8801   22.2050 H   0  0  0  0  0  0
  -23.7265  -37.6448   23.6642 H   0  0  0  0  0  0
  -26.0842  -31.5169   20.5828 H   0  0  0  0  0  0
  -26.8507  -30.8310   21.9854 H   0  0  0  0  0  0
  -28.1390  -28.9681   21.1076 H   0  0  0  0  0  0
  -25.9797  -25.8924   19.0037 H   0  0  0  0  0  0
  -23.9408  -27.2647   19.0668 H   0  0  0  0  0  0
  -23.7502  -30.5628   19.4024 H   0  0  0  0  0  0
  -22.7487  -29.2210   19.8799 H   0  0  0  0  0  0
  -25.1323  -36.1875   25.0814 H   0  0  0  0  0  0
  -20.9995  -28.3106   24.1397 H   0  0  0  0  0  0
  -20.5641  -26.2187   23.3534 H   0  0  0  0  0  0
  -21.6663  -26.7264   22.1196 H   0  0  0  0  0  0
  -19.6931  -25.6233   21.1198 H   0  0  0  0  0  0
  -19.6748  -27.3156   20.6713 H   0  0  0  0  0  0
  -17.4219  -26.6628   21.3964 H   0  0  0  0  0  0
  -18.0337  -25.9941   22.8910 H   0  0  0  0  0  0
  -19.7986  -30.7265   24.2115 H   0  0  0  0  0  0
  -17.5046  -31.6214   24.5118 H   0  0  0  0  0  0
  -15.5391  -30.2872   23.7685 H   0  0  0  0  0  0
  -15.8700  -28.0758   22.6988 H   0  0  0  0  0  0
  -24.5979  -30.6880   25.7760 H   0  0  0  0  0  0
  -24.8745  -32.2827   26.4705 H   0  0  0  0  0  0
  -25.8020  -30.9025   27.0238 H   0  0  0  0  0  0
  -26.2886  -29.6797   24.1101 H   0  0  0  0  0  0
  -27.4175  -29.7258   25.4444 H   0  0  0  0  0  0
  -27.8653  -30.4419   23.9144 H   0  0  0  0  0  0
  -27.2803  -33.3672   26.1844 H   0  0  0  0  0  0
  -28.3965  -32.6593   25.0253 H   0  0  0  0  0  0
  -28.0632  -31.8433   26.5426 H   0  0  0  0  0  0
  -28.2588  -38.0081   24.7502 H   0  0  0  0  0  0
  -28.1045  -36.2600   24.6333 H   0  0  0  0  0  0
  -27.2279  -37.1468   25.8883 H   0  0  0  0  0  0
  -20.9346  -29.8759   21.6989 H   0  0  0  0  0  0
  -26.0161  -38.2808   24.1407 H   0  0  0  0  0  0
  -27.9520  -18.4286   20.5772 H   0  0  0  0  0  0
  -27.2899  -20.7662   20.6756 H   0  0  0  0  0  0
  -31.0219  -21.9310   18.9891 H   0  0  0  0  0  0
  -26.9835  -23.8125   19.4497 H   0  0  0  0  0  0
  -27.0305  -23.6748   21.2518 H   0  0  0  0  0  0
  -30.5790  -24.3718   19.7282 H   0  0  0  0  0  0
  -29.2763  -24.2677   18.4814 H   0  0  0  0  0  0
  -28.9482  -25.2428   21.4357 H   0  0  0  0  0  0
  -32.3573  -20.3937   17.9225 H   0  0  0  0  0  0
  -31.9643  -18.7027   17.8164 H   0  0  0  0  0  0
  -32.8558  -19.3163   19.2205 H   0  0  0  0  0  0
  -27.9439  -16.1749   21.1634 H   0  0  0  0  0  0
  -29.0715  -17.1975   22.0531 H   0  0  0  0  0  0
  -29.0456  -15.5029   22.3723 H   0  0  0  0  0  0
  -31.5305  -17.3513   20.2766 H   0  0  0  0  0  0
  -30.7930  -16.9631   18.7893 H   0  0  0  0  0  0
  1 25  1  0  0  0
  1 30  2  0  0  0
  1 84  1  0  0  0
  2  3  1  0  0  0
  2 25  1  0  0  0
  2 85  1  0  0  0
  2 86  1  0  0  0
  3  4  1  0  0  0
  3 87  1  0  0  0
  3 88  1  0  0  0
  4  5  1  0  0  0
  4 89  1  0  0  0
  4 90  1  0  0  0
  5  6  1  0  0  0
  5 26  1  0  0  0
  5 91  1  0  0  0
  6 25  1  0  0  0
  6 92  1  0  0  0
  6 93  1  0  0  0
  7  8  2  0  0  0
  7 26  1  0  0  0
  7 29  1  0  0  0
  8  9  1  0  0  0
  8 22  1  0  0  0
  9 10  1  0  0  0
  9 27  2  0  0  0
 10 11  2  0  0  0
 10 15  1  0  0  0
 11 12  1  0  0  0
 11 94  1  0  0  0
 12 13  2  0  0  0
 12 95  1  0  0  0
 13 14  1  0  0  0
 13 31  1  0  0  0
 14 15  2  0  0  0
 14 96  1  0  0  0
 15 97  1  0  0  0
 16 17  2  0  0  0
 16 21  1  0  0  0
 16 31  1  0  0  0
 17 18  1  0  0  0
 17 98  1  0  0  0
 18 19  2  0  0  0
 18 99  1  0  0  0
 19 20  1  0  0  0
 19 24  1  0  0  0
 20 21  2  0  0  0
 20100  1  0  0  0
 21 23  1  0  0  0
 22 28  1  0  0  0
 22 32  2  0  0  0
 26 27  1  0  0  0
 28101  1  0  0  0
 28102  1  0  0  0
 29103  1  0  0  0
 29104  1  0  0  0
 33 34  1  0  0  0
 33 66  1  0  0  0
 33 70  2  0  0  0
 34 36  1  0  0  0
 34 59  1  0  0  0
 34105  1  0  0  0
 35 44  2  0  0  0
 35 45  1  0  0  0
 35 68  1  0  0  0
 36 56  1  0  0  0
 36106  1  0  0  0
 37 39  1  0  0  0
 37 47  1  0  0  0
 37 66  1  0  0  0
 37107  1  0  0  0
 38 43  2  0  0  0
 38 46  1  0  0  0
 38 47  1  0  0  0
 39 64  1  0  0  0
 39 67  2  0  0  0
 40 52  1  0  0  0
 40 53  2  0  0  0
 40 58  1  0  0  0
 41108  1  0  0  0
 41109  1  0  0  0
 41110  1  0  0  0
 41 48  1  0  0  0
 42 43  1  0  0  0
 42 66  1  0  0  0
 42111  1  0  0  0
 42112  1  0  0  0
 43 44  1  0  0  0
 44113  1  0  0  0
 45 46  2  0  0  0
 45114  1  0  0  0
 46115  1  0  0  0
 47116  1  0  0  0
 47117  1  0  0  0
 48 56  1  0  0  0
 48 65  1  0  0  0
 48118  1  0  0  0
 49 50  1  0  0  0
 49 53  1  0  0  0
 49 64  1  0  0  0
 49119  1  0  0  0
 50 51  1  0  0  0
 50120  1  0  0  0
 50121  1  0  0  0
 51 52  1  0  0  0
 51122  1  0  0  0
 51123  1  0  0  0
 52124  1  0  0  0
 52125  1  0  0  0
 53 54  1  0  0  0
 54 55  2  0  0  0
 54126  1  0  0  0
 55 57  1  0  0  0
 55127  1  0  0  0
 56 69  2  0  0  0
 57 58  2  0  0  0
 57128  1  0  0  0
 58129  1  0  0  0
 59 60  1  0  0  0
 59 61  1  0  0  0
 59 62  1  0  0  0
 60130  1  0  0  0
 60131  1  0  0  0
 60132  1  0  0  0
 61133  1  0  0  0
 61134  1  0  0  0
 61135  1  0  0  0
 62136  1  0  0  0
 62137  1  0  0  0
 62138  1  0  0  0
 63 65  1  0  0  0
 63139  1  0  0  0
 63140  1  0  0  0
 63141  1  0  0  0
 64142  1  0  0  0
 65143  1  0  0  0
 68 79  1  0  0  0
 71 72  2  0  0  0
 71 74  1  0  0  0
 71144  1  0  0  0
 72 76  1  0  0  0
 72145  1  0  0  0
 73 75  1  0  0  0
 73 76  2  0  0  0
 73146  1  0  0  0
 74 75  2  0  0  0
 74 82  1  0  0  0
 75 80  1  0  0  0
 76 83  1  0  0  0
 77 79  1  0  0  0
 77 83  1  0  0  0
 77147  1  0  0  0
 77148  1  0  0  0
 78 79  1  0  0  0
 78 83  1  0  0  0
 78149  1  0  0  0
 78150  1  0  0  0
 79151  1  0  0  0
 80152  1  0  0  0
 80153  1  0  0  0
 80154  1  0  0  0
 81 84  1  0  0  0
 81155  1  0  0  0
 81156  1  0  0  0
 81157  1  0  0  0
 82 84  1  0  0  0
 82158  1  0  0  0
 82159  1  0  0  0
M  ISO  4   1 100  68 101  79 101  84 100
M  END
> <chiral flag>
0

> <version>
0

> <s_m_source_file>
/data/baiqing/PycharmProjects/Reinvent-master-3.2/result/LINK_invent/BTK/process_docking_weight1_custom_product_contain_oxygen_bond_distance_aromatic_linkinvent_7_9_3/rearranged_h_0027.sdf

> <i_m_source_file_index>
40

> <r_mmod_Potential_Energy-OPLS-2005>
406.965545654297

> <r_mmod_Stretch_Energy-OPLS-2005>
122.92903137207

> <r_mmod_Bend_Energy-OPLS-2005>
299.312713623047

> <r_mmod_Torsional_Energy-OPLS-2005>
288.402923583984

> <r_mmod_Improper_Torsional_Energy-OPLS-2005>
16.709753036499

> <r_mmod_Van_der_Waal_Energy-OPLS-2005>
145.942306518555

> <r_mmod_Electrostatic_Energy-OPLS-2005>
-316.050018310547

> <r_mmod_Solvation_Energy-OPLS-2005>
-219.305358886719

> <b_mmod_Minimization_Converged-OPLS-2005>
0

> <r_mmod_RMS_Derivative-OPLS-2005>
9.12843036651611

$$$$
41
                    3D
 Structure written by MMmdl.
173183  0  0  1  0            999 V2000
  -30.7530  -14.4536   20.5724 C   0  0  0  0  0  0
  -30.4087  -12.2965   19.4357 C   0  0  0  0  0  0
  -29.4938  -12.5050   18.2124 C   0  0  0  0  0  0
  -28.0163  -12.3697   18.6227 C   0  0  0  0  0  0
  -27.6613  -13.2173   19.8750 C   0  0  2  0  0  0
  -28.7020  -13.0251   21.0034 C   0  0  0  0  0  0
  -25.2561  -13.8150   20.5663 C   0  0  0  0  0  0
  -24.1816  -13.0428   20.9143 C   0  0  0  0  0  0
  -24.6397  -11.6907   20.8708 C   0  0  0  0  0  0
  -23.9064  -10.4286   21.0379 C   0  0  0  0  0  0
  -24.3611   -9.4206   21.9165 C   0  0  0  0  0  0
  -23.6286   -8.2244   22.0747 C   0  0  0  0  0  0
  -22.4262   -8.0286   21.3548 C   0  0  0  0  0  0
  -21.9898   -9.0250   20.4642 C   0  0  0  0  0  0
  -22.7229  -10.2123   20.3039 C   0  0  0  0  0  0
  -21.6848   -6.0733   22.5279 C   0  0  0  0  0  0
  -21.4021   -6.5637   23.8212 C   0  0  0  0  0  0
  -21.3655   -5.6788   24.9170 C   0  0  0  0  0  0
  -21.6035   -4.3051   24.7216 C   0  0  0  0  0  0
  -21.8815   -3.8148   23.4338 C   0  0  0  0  0  0
  -21.9195   -4.6967   22.3396 C   0  0  0  0  0  0
  -22.7838  -13.5230   21.1827 C   0  0  0  0  0  0
  -22.1664   -4.2159   21.0972 F   0  0  0  0  0  0
  -21.5627   -3.4529   25.7726 F   0  0  0  0  0  0
  -30.0381  -13.2998   20.4500 N   0  0  0  0  0  0
  -26.3030  -12.9364   20.3379 N   0  0  0  0  0  0
  -25.9338  -11.6510   20.5763 N   0  0  0  0  0  0
  -22.0475  -12.8233   22.0392 N   0  0  0  0  0  0
  -25.4263  -15.1840   20.4060 N   0  0  0  0  0  0
  -31.8679  -14.5706   20.0638 O   0  0  0  0  0  0
  -21.6640   -6.8875   21.4241 O   0  0  0  0  0  0
  -22.3523  -14.5547   20.6701 O   0  0  0  0  0  0
  -24.6136  -31.8686   23.2100 C   0  0  0  0  0  0
  -25.9034  -32.4826   23.8388 C   0  0  1  0  0  0
  -27.2311  -27.4370   20.0871 C   0  0  0  0  0  0
  -25.5889  -33.8621   24.2327 N   0  0  0  0  0  0
  -23.4001  -30.4940   21.5505 C   0  0  2  0  0  0
  -24.8442  -28.9618   20.1109 C   0  0  0  0  0  0
  -22.7400  -29.4673   22.4989 C   0  0  0  0  0  0
  -18.0269  -28.1386   22.8487 C   0  0  0  0  0  0
  -24.1487  -36.7321   23.2640 C   0  0  0  0  0  0
  -25.9283  -30.8346   21.3614 C   0  0  0  0  0  0
  -26.0038  -29.4682   20.7106 C   0  0  0  0  0  0
  -27.1971  -28.7118   20.6980 C   0  0  0  0  0  0
  -26.0533  -26.9500   19.4735 C   0  0  0  0  0  0
  -24.8645  -27.7028   19.4891 C   0  0  0  0  0  0
  -23.6057  -29.8269   20.1641 C   0  0  0  0  0  0
  -25.4105  -36.3113   24.0339 C   0  0  1  0  0  0
  -20.5861  -28.3670   23.1318 C   0  0  2  0  0  0
  -20.6764  -26.9407   22.5420 C   0  0  0  0  0  0
  -19.5746  -26.6393   21.5211 C   0  0  0  0  0  0
  -18.1920  -26.7932   22.1619 C   0  0  0  0  0  0
  -19.1519  -28.8845   23.2903 C   0  0  0  0  0  0
  -18.9451  -30.1449   23.8920 C   0  0  0  0  0  0
  -17.6456  -30.6592   24.0571 C   0  0  0  0  0  0
  -25.9030  -34.9477   23.5132 C   0  0  0  0  0  0
  -16.5347  -29.9100   23.6324 C   0  0  0  0  0  0
  -16.7260  -28.6517   23.0342 C   0  0  0  0  0  0
  -26.4474  -31.6591   25.0706 C   0  0  0  0  0  0
  -25.3748  -31.3686   26.1461 C   0  0  0  0  0  0
  -27.0297  -30.3036   24.6052 C   0  0  0  0  0  0
  -27.6058  -32.4303   25.7462 C   0  0  0  0  0  0
  -27.5580  -37.1815   24.8465 C   0  0  0  0  0  0
  -21.4131  -29.3038   22.3727 N   0  0  0  0  0  0
  -26.4291  -37.3794   23.9410 N   0  0  0  0  0  0
  -24.6661  -31.0798   22.0994 N   0  0  0  0  0  0
  -23.4180  -28.8208   23.3020 O   0  0  0  0  0  0
  -28.4120  -26.7206   20.1121 O   0  0  0  0  0  0
  -26.5604  -34.8930   22.4700 O   0  0  0  0  0  0
  -23.5333  -32.1433   23.7508 O   0  0  0  0  0  0
  -31.9261  -18.7293   20.3874 C   0  0  0  0  0  0
  -31.7227  -17.3769   20.7101 C   0  0  0  0  0  0
  -29.5962  -19.1927   20.8711 C   0  0  0  0  0  0
  -30.8567  -19.6418   20.4180 C   0  0  0  0  0  0
  -29.3707  -17.8236   21.2007 C   0  0  0  0  0  0
  -30.4343  -16.8885   21.0406 C   0  0  0  0  0  0
  -29.8784  -23.2047   19.7431 C   0  0  0  0  0  0
  -27.0309  -17.5120   23.8308 C   0  0  0  0  0  0
  -26.6523  -18.7128   22.9718 C   0  0  0  0  0  0
  -29.5999  -23.2580   22.5888 C   0  0  0  0  0  0
  -29.6311  -24.6387   21.9283 C   0  0  0  0  0  0
  -28.1830  -16.8576   23.0641 C   0  0  0  0  0  0
  -26.9338  -18.2002   21.5642 C   0  0  0  0  0  0
  -30.6517  -22.3546   21.9399 C   0  0  0  0  0  0
  -29.6211  -24.6050   20.3766 C   0  0  2  0  0  0
  -31.0967  -21.0534   19.8656 C   0  0  0  0  0  0
  -28.3695  -25.3182   19.8035 C   0  0  0  0  0  0
  -28.1241  -17.3589   21.6860 N   0  0  0  0  0  0
  -30.4205  -22.2065   20.4974 N   0  0  0  0  0  0
  -30.1459  -15.4866   21.1918 N   0  0  0  0  0  0
  -29.6477  -23.0587   18.5382 O   0  0  0  0  0  0
  -31.4582  -12.3547   19.1391 H   0  0  0  0  0  0
  -30.2796  -11.2913   19.8412 H   0  0  0  0  0  0
  -29.7319  -11.7793   17.4339 H   0  0  0  0  0  0
  -29.6718  -13.4889   17.7758 H   0  0  0  0  0  0
  -27.8261  -11.3138   18.8236 H   0  0  0  0  0  0
  -27.3689  -12.6419   17.7882 H   0  0  0  0  0  0
  -27.6998  -14.2627   19.5671 H   0  0  0  0  0  0
  -28.6688  -12.0025   21.3805 H   0  0  0  0  0  0
  -28.4648  -13.6586   21.8584 H   0  0  0  0  0  0
  -25.2747   -9.5696   22.4743 H   0  0  0  0  0  0
  -23.9996   -7.4634   22.7469 H   0  0  0  0  0  0
  -21.0831   -8.8752   19.8950 H   0  0  0  0  0  0
  -22.3670  -10.9655   19.6150 H   0  0  0  0  0  0
  -21.2021   -7.6146   23.9722 H   0  0  0  0  0  0
  -21.1482   -6.0515   25.9074 H   0  0  0  0  0  0
  -22.0605   -2.7616   23.2826 H   0  0  0  0  0  0
  -22.4078  -11.9891   22.4784 H   0  0  0  0  0  0
  -21.1098  -13.1281   22.2603 H   0  0  0  0  0  0
  -24.6690  -15.8417   20.5462 H   0  0  0  0  0  0
  -26.3141  -15.6318   20.2137 H   0  0  0  0  0  0
  -26.7105  -32.5542   23.1153 H   0  0  0  0  0  0
  -25.0025  -33.9778   25.0462 H   0  0  0  0  0  0
  -22.6873  -31.3102   21.4133 H   0  0  0  0  0  0
  -23.3735  -35.9668   23.3321 H   0  0  0  0  0  0
  -24.3578  -36.8918   22.2048 H   0  0  0  0  0  0
  -23.7254  -37.6540   23.6643 H   0  0  0  0  0  0
  -26.0357  -31.5978   20.5892 H   0  0  0  0  0  0
  -26.8190  -30.8927   21.9750 H   0  0  0  0  0  0
  -28.0916  -29.0982   21.1667 H   0  0  0  0  0  0
  -26.0320  -25.9957   18.9678 H   0  0  0  0  0  0
  -23.9756  -27.3122   19.0126 H   0  0  0  0  0  0
  -23.7090  -30.6011   19.4029 H   0  0  0  0  0  0
  -22.7295  -29.2440   19.8723 H   0  0  0  0  0  0
  -25.1281  -36.1983   25.0830 H   0  0  0  0  0  0
  -20.9952  -28.3246   24.1438 H   0  0  0  0  0  0
  -20.5661  -26.2282   23.3610 H   0  0  0  0  0  0
  -21.6636  -26.7454   22.1221 H   0  0  0  0  0  0
  -19.6908  -25.6308   21.1233 H   0  0  0  0  0  0
  -19.6685  -27.3211   20.6748 H   0  0  0  0  0  0
  -17.4189  -26.6681   21.4019 H   0  0  0  0  0  0
  -18.0320  -26.0076   22.9015 H   0  0  0  0  0  0
  -19.7926  -30.7255   24.2300 H   0  0  0  0  0  0
  -17.5014  -31.6269   24.5175 H   0  0  0  0  0  0
  -15.5350  -30.3015   23.7636 H   0  0  0  0  0  0
  -15.8658  -28.0851   22.7043 H   0  0  0  0  0  0
  -24.5921  -30.7034   25.7800 H   0  0  0  0  0  0
  -24.8937  -32.2833   26.4928 H   0  0  0  0  0  0
  -25.8108  -30.8842   27.0205 H   0  0  0  0  0  0
  -26.2818  -29.6798   24.1139 H   0  0  0  0  0  0
  -27.4121  -29.7272   25.4485 H   0  0  0  0  0  0
  -27.8632  -30.4371   23.9153 H   0  0  0  0  0  0
  -27.2687  -33.3593   26.2074 H   0  0  0  0  0  0
  -28.3844  -32.6878   25.0268 H   0  0  0  0  0  0
  -28.0752  -31.8401   26.5343 H   0  0  0  0  0  0
  -28.2613  -38.0098   24.7497 H   0  0  0  0  0  0
  -28.1061  -36.2630   24.6305 H   0  0  0  0  0  0
  -27.2302  -37.1488   25.8871 H   0  0  0  0  0  0
  -20.9287  -29.8764   21.6956 H   0  0  0  0  0  0
  -26.0186  -38.2878   24.1398 H   0  0  0  0  0  0
  -32.9103  -19.0496   20.0744 H   0  0  0  0  0  0
  -32.5810  -16.7266   20.6526 H   0  0  0  0  0  0
  -28.8088  -19.9266   20.9395 H   0  0  0  0  0  0
  -26.1928  -16.8159   23.8913 H   0  0  0  0  0  0
  -27.3087  -17.7867   24.8485 H   0  0  0  0  0  0
  -27.2997  -19.5599   23.2039 H   0  0  0  0  0  0
  -25.6166  -19.0250   23.1091 H   0  0  0  0  0  0
  -28.6103  -22.8096   22.4835 H   0  0  0  0  0  0
  -29.7880  -23.3494   23.6592 H   0  0  0  0  0  0
  -30.5301  -25.1626   22.2562 H   0  0  0  0  0  0
  -28.7996  -25.2344   22.3083 H   0  0  0  0  0  0
  -28.0913  -15.7707   23.0902 H   0  0  0  0  0  0
  -29.1340  -17.1132   23.5367 H   0  0  0  0  0  0
  -26.9970  -19.0020   20.8297 H   0  0  0  0  0  0
  -26.1039  -17.5740   21.2407 H   0  0  0  0  0  0
  -30.6452  -21.3847   22.4374 H   0  0  0  0  0  0
  -31.6475  -22.7747   22.0908 H   0  0  0  0  0  0
  -30.4754  -25.1965   20.0434 H   0  0  0  0  0  0
  -30.8601  -20.9865   18.8027 H   0  0  0  0  0  0
  -32.1664  -21.2634   19.8972 H   0  0  0  0  0  0
  -27.4832  -24.8428   20.2278 H   0  0  0  0  0  0
  -28.3117  -25.2141   18.7188 H   0  0  0  0  0  0
  -29.2198  -15.3005   21.5454 H   0  0  0  0  0  0
  1 25  1  0  0  0
  1 30  2  0  0  0
  1 90  1  0  0  0
  2  3  1  0  0  0
  2 25  1  0  0  0
  2 92  1  0  0  0
  2 93  1  0  0  0
  3  4  1  0  0  0
  3 94  1  0  0  0
  3 95  1  0  0  0
  4  5  1  0  0  0
  4 96  1  0  0  0
  4 97  1  0  0  0
  5  6  1  0  0  0
  5 26  1  0  0  0
  5 98  1  0  0  0
  6 25  1  0  0  0
  6 99  1  0  0  0
  6100  1  0  0  0
  7  8  2  0  0  0
  7 26  1  0  0  0
  7 29  1  0  0  0
  8  9  1  0  0  0
  8 22  1  0  0  0
  9 10  1  0  0  0
  9 27  2  0  0  0
 10 11  2  0  0  0
 10 15  1  0  0  0
 11 12  1  0  0  0
 11101  1  0  0  0
 12 13  2  0  0  0
 12102  1  0  0  0
 13 14  1  0  0  0
 13 31  1  0  0  0
 14 15  2  0  0  0
 14103  1  0  0  0
 15104  1  0  0  0
 16 17  2  0  0  0
 16 21  1  0  0  0
 16 31  1  0  0  0
 17 18  1  0  0  0
 17105  1  0  0  0
 18 19  2  0  0  0
 18106  1  0  0  0
 19 20  1  0  0  0
 19 24  1  0  0  0
 20 21  2  0  0  0
 20107  1  0  0  0
 21 23  1  0  0  0
 22 28  1  0  0  0
 22 32  2  0  0  0
 26 27  1  0  0  0
 28108  1  0  0  0
 28109  1  0  0  0
 29110  1  0  0  0
 29111  1  0  0  0
 33 34  1  0  0  0
 33 66  1  0  0  0
 33 70  2  0  0  0
 34 36  1  0  0  0
 34 59  1  0  0  0
 34112  1  0  0  0
 35 44  2  0  0  0
 35 45  1  0  0  0
 35 68  1  0  0  0
 36 56  1  0  0  0
 36113  1  0  0  0
 37 39  1  0  0  0
 37 47  1  0  0  0
 37 66  1  0  0  0
 37114  1  0  0  0
 38 43  2  0  0  0
 38 46  1  0  0  0
 38 47  1  0  0  0
 39 64  1  0  0  0
 39 67  2  0  0  0
 40 52  1  0  0  0
 40 53  2  0  0  0
 40 58  1  0  0  0
 41115  1  0  0  0
 41116  1  0  0  0
 41117  1  0  0  0
 41 48  1  0  0  0
 42 43  1  0  0  0
 42 66  1  0  0  0
 42118  1  0  0  0
 42119  1  0  0  0
 43 44  1  0  0  0
 44120  1  0  0  0
 45 46  2  0  0  0
 45121  1  0  0  0
 46122  1  0  0  0
 47123  1  0  0  0
 47124  1  0  0  0
 48 56  1  0  0  0
 48 65  1  0  0  0
 48125  1  0  0  0
 49 50  1  0  0  0
 49 53  1  0  0  0
 49 64  1  0  0  0
 49126  1  0  0  0
 50 51  1  0  0  0
 50127  1  0  0  0
 50128  1  0  0  0
 51 52  1  0  0  0
 51129  1  0  0  0
 51130  1  0  0  0
 52131  1  0  0  0
 52132  1  0  0  0
 53 54  1  0  0  0
 54 55  2  0  0  0
 54133  1  0  0  0
 55 57  1  0  0  0
 55134  1  0  0  0
 56 69  2  0  0  0
 57 58  2  0  0  0
 57135  1  0  0  0
 58136  1  0  0  0
 59 60  1  0  0  0
 59 61  1  0  0  0
 59 62  1  0  0  0
 60137  1  0  0  0
 60138  1  0  0  0
 60139  1  0  0  0
 61140  1  0  0  0
 61141  1  0  0  0
 61142  1  0  0  0
 62143  1  0  0  0
 62144  1  0  0  0
 62145  1  0  0  0
 63 65  1  0  0  0
 63146  1  0  0  0
 63147  1  0  0  0
 63148  1  0  0  0
 64149  1  0  0  0
 65150  1  0  0  0
 68 87  1  0  0  0
 71 72  2  0  0  0
 71 74  1  0  0  0
 71151  1  0  0  0
 72 76  1  0  0  0
 72152  1  0  0  0
 73 74  2  0  0  0
 73 75  1  0  0  0
 73153  1  0  0  0
 74 86  1  0  0  0
 75 76  2  0  0  0
 75 88  1  0  0  0
 76 90  1  0  0  0
 77 85  1  0  0  0
 77 89  1  0  0  0
 77 91  2  0  0  0
 78 79  1  0  0  0
 78 82  1  0  0  0
 78154  1  0  0  0
 78155  1  0  0  0
 79 83  1  0  0  0
 79156  1  0  0  0
 79157  1  0  0  0
 80 81  1  0  0  0
 80 84  1  0  0  0
 80158  1  0  0  0
 80159  1  0  0  0
 81 85  1  0  0  0
 81160  1  0  0  0
 81161  1  0  0  0
 82 88  1  0  0  0
 82162  1  0  0  0
 82163  1  0  0  0
 83 88  1  0  0  0
 83164  1  0  0  0
 83165  1  0  0  0
 84 89  1  0  0  0
 84166  1  0  0  0
 84167  1  0  0  0
 85 87  1  0  0  0
 85168  1  0  0  0
 86 89  1  0  0  0
 86169  1  0  0  0
 86170  1  0  0  0
 87171  1  0  0  0
 87172  1  0  0  0
 90173  1  0  0  0
M  ISO  4   1 100  68 101  87 101  90 100
M  END
> <chiral flag>
0

> <version>
0

> <s_m_source_file>
/data/baiqing/PycharmProjects/Reinvent-master-3.2/result/LINK_invent/BTK/process_docking_weight1_custom_product_contain_oxygen_bond_distance_aromatic_linkinvent_7_9_3/rearranged_h_0027.sdf

> <i_m_source_file_index>
41

> <r_mmod_Potential_Energy-OPLS-2005>
51.157600402832

> <r_mmod_Stretch_Energy-OPLS-2005>
46.201057434082

> <r_mmod_Bend_Energy-OPLS-2005>
145.963577270508

> <r_mmod_Torsional_Energy-OPLS-2005>
314.114318847656

> <r_mmod_Improper_Torsional_Energy-OPLS-2005>
9.69690895080566

> <r_mmod_Van_der_Waal_Energy-OPLS-2005>
180.695663452148

> <r_mmod_Electrostatic_Energy-OPLS-2005>
-443.401519775391

> <r_mmod_Solvation_Energy-OPLS-2005>
-215.863250732422

> <b_mmod_Minimization_Converged-OPLS-2005>
0

> <r_mmod_RMS_Derivative-OPLS-2005>
1.82715451717377

$$$$
42
                    3D
 Structure written by MMmdl.
153162  0  0  1  0            999 V2000
  -30.6508  -14.6923   20.4619 C   0  0  0  0  0  0
  -30.4213  -12.4231   19.4692 C   0  0  0  0  0  0
  -29.5033  -12.4971   18.2310 C   0  0  0  0  0  0
  -28.0289  -12.3327   18.6456 C   0  0  0  0  0  0
  -27.6409  -13.2319   19.8504 C   0  0  2  0  0  0
  -28.6859  -13.1625   20.9853 C   0  0  0  0  0  0
  -25.2505  -13.8203   20.5699 C   0  0  0  0  0  0
  -24.1797  -13.0444   20.9208 C   0  0  0  0  0  0
  -24.6389  -11.6922   20.8751 C   0  0  0  0  0  0
  -23.9069  -10.4297   21.0409 C   0  0  0  0  0  0
  -24.3620   -9.4212   21.9184 C   0  0  0  0  0  0
  -23.6296   -8.2247   22.0755 C   0  0  0  0  0  0
  -22.4278   -8.0283   21.3544 C   0  0  0  0  0  0
  -21.9914   -9.0257   20.4646 C   0  0  0  0  0  0
  -22.7243  -10.2136   20.3057 C   0  0  0  0  0  0
  -21.6854   -6.0737   22.5279 C   0  0  0  0  0  0
  -21.4015   -6.5641   23.8212 C   0  0  0  0  0  0
  -21.3659   -5.6793   24.9174 C   0  0  0  0  0  0
  -21.6044   -4.3056   24.7225 C   0  0  0  0  0  0
  -21.8819   -3.8148   23.4346 C   0  0  0  0  0  0
  -21.9192   -4.6964   22.3402 C   0  0  0  0  0  0
  -22.7819  -13.5224   21.1865 C   0  0  0  0  0  0
  -22.1661   -4.2150   21.0979 F   0  0  0  0  0  0
  -21.5627   -3.4540   25.7737 F   0  0  0  0  0  0
  -29.9903  -13.4898   20.4000 N   0  0  0  0  0  0
  -26.2931  -12.9413   20.3290 N   0  0  0  0  0  0
  -25.9319  -11.6555   20.5763 N   0  0  0  0  0  0
  -22.0467  -12.8210   22.0420 N   0  0  0  0  0  0
  -25.4190  -15.1928   20.4114 N   0  0  0  0  0  0
  -31.8418  -14.7546   20.1492 O   0  0  0  0  0  0
  -21.6641   -6.8879   21.4240 O   0  0  0  0  0  0
  -22.3500  -14.5529   20.6713 O   0  0  0  0  0  0
  -24.6289  -31.8571   23.2001 C   0  0  0  0  0  0
  -25.9125  -32.4766   23.8338 C   0  0  1  0  0  0
  -27.2166  -27.2900   20.1276 C   0  0  0  0  0  0
  -25.5930  -33.8568   24.2262 N   0  0  0  0  0  0
  -23.4241  -30.4805   21.5429 C   0  0  2  0  0  0
  -24.8712  -28.9324   20.1080 C   0  0  0  0  0  0
  -22.7488  -29.4613   22.4918 C   0  0  0  0  0  0
  -18.0287  -28.1387   22.8483 C   0  0  0  0  0  0
  -24.1489  -36.7286   23.2639 C   0  0  0  0  0  0
  -25.9678  -30.7803   21.3748 C   0  0  0  0  0  0
  -26.0423  -29.4061   20.7147 C   0  0  0  0  0  0
  -27.2211  -28.5977   20.7111 C   0  0  0  0  0  0
  -26.0283  -26.8793   19.4861 C   0  0  0  0  0  0
  -24.8681  -27.6765   19.4814 C   0  0  0  0  0  0
  -23.6404  -29.8154   20.1582 C   0  0  0  0  0  0
  -25.4116  -36.3075   24.0325 C   0  0  1  0  0  0
  -20.5890  -28.3695   23.1272 C   0  0  2  0  0  0
  -20.6778  -26.9414   22.5407 C   0  0  0  0  0  0
  -19.5754  -26.6385   21.5212 C   0  0  0  0  0  0
  -18.1930  -26.7929   22.1624 C   0  0  0  0  0  0
  -19.1541  -28.8857   23.2873 C   0  0  0  0  0  0
  -18.9465  -30.1457   23.8894 C   0  0  0  0  0  0
  -17.6465  -30.6589   24.0562 C   0  0  0  0  0  0
  -25.9056  -34.9445   23.5095 C   0  0  0  0  0  0
  -16.5355  -29.9086   23.6334 C   0  0  0  0  0  0
  -16.7274  -28.6503   23.0356 C   0  0  0  0  0  0
  -26.4501  -31.6586   25.0719 C   0  0  0  0  0  0
  -25.3727  -31.3734   26.1441 C   0  0  0  0  0  0
  -27.0347  -30.3004   24.6196 C   0  0  0  0  0  0
  -27.6056  -32.4325   25.7492 C   0  0  0  0  0  0
  -27.5577  -37.1797   24.8465 C   0  0  0  0  0  0
  -21.4197  -29.3045   22.3661 N   0  0  0  0  0  0
  -26.4292  -37.3773   23.9407 N   0  0  0  0  0  0
  -24.6927  -31.0560   22.0963 N   0  0  0  0  0  0
  -23.4198  -28.8154   23.3008 O   0  0  0  0  0  0
  -28.3000  -26.3938   20.1937 O   0  0  0  0  0  0
  -26.5627  -34.8915   22.4663 O   0  0  0  0  0  0
  -23.5445  -32.1379   23.7316 O   0  0  0  0  0  0
  -29.0109  -20.7477   19.3833 C   0  0  0  0  0  0
  -29.7759  -18.6437   20.5136 C   0  0  0  0  0  0
  -28.8576  -21.5207   20.5717 C   0  0  0  0  0  0
  -29.4477  -19.3833   19.3392 C   0  0  0  0  0  0
  -29.5936  -19.3728   21.7226 C   0  0  0  0  0  0
  -29.1519  -20.7441   21.7448 C   0  0  0  0  0  0
  -28.1124  -23.8013   19.4384 C   0  0  0  0  0  0
  -28.9505  -24.0547   21.3072 C   0  0  0  0  0  0
  -27.9722  -24.9619   20.4884 C   0  0  0  0  0  0
  -30.5428  -17.2441   20.4656 C   0  0  0  0  0  0
  -28.3342  -22.9141   20.5986 N   0  0  0  0  0  0
  -29.9374  -15.8611   20.6467 N   0  0  0  0  0  0
  -29.6060  -18.6448   17.7844 Cl  0  0  0  0  0  0
  -29.9530  -18.5780   23.2212 Cl  0  0  0  0  0  0
  -28.9407  -21.4923   23.2940 Cl  0  0  0  0  0  0
  -31.4649  -12.5259   19.1674 H   0  0  0  0  0  0
  -30.3454  -11.4465   19.9500 H   0  0  0  0  0  0
  -29.7770  -11.7255   17.5102 H   0  0  0  0  0  0
  -29.6396  -13.4537   17.7240 H   0  0  0  0  0  0
  -27.8776  -11.2840   18.9043 H   0  0  0  0  0  0
  -27.3726  -12.5329   17.7979 H   0  0  0  0  0  0
  -27.6381  -14.2543   19.4724 H   0  0  0  0  0  0
  -28.7090  -12.1685   21.4346 H   0  0  0  0  0  0
  -28.4325  -13.8570   21.7878 H   0  0  0  0  0  0
  -25.2765   -9.5686   22.4761 H   0  0  0  0  0  0
  -24.0003   -7.4637   22.7476 H   0  0  0  0  0  0
  -21.0847   -8.8777   19.8951 H   0  0  0  0  0  0
  -22.3703  -10.9674   19.6168 H   0  0  0  0  0  0
  -21.2010   -7.6149   23.9715 H   0  0  0  0  0  0
  -21.1480   -6.0524   25.9075 H   0  0  0  0  0  0
  -22.0598   -2.7610   23.2846 H   0  0  0  0  0  0
  -22.4090  -11.9873   22.4807 H   0  0  0  0  0  0
  -21.1083  -13.1230   22.2630 H   0  0  0  0  0  0
  -24.6504  -15.8452   20.5225 H   0  0  0  0  0  0
  -26.2639  -15.6332   20.0712 H   0  0  0  0  0  0
  -26.7191  -32.5426   23.1080 H   0  0  0  0  0  0
  -25.0076  -33.9708   25.0406 H   0  0  0  0  0  0
  -22.7197  -31.3023   21.3987 H   0  0  0  0  0  0
  -23.3753  -35.9616   23.3300 H   0  0  0  0  0  0
  -24.3579  -36.8913   22.2054 H   0  0  0  0  0  0
  -23.7240  -37.6484   23.6667 H   0  0  0  0  0  0
  -26.1029  -31.5441   20.6078 H   0  0  0  0  0  0
  -26.8465  -30.8282   22.0066 H   0  0  0  0  0  0
  -28.1169  -28.9521   21.2017 H   0  0  0  0  0  0
  -25.9795  -25.9151   19.0009 H   0  0  0  0  0  0
  -23.9723  -27.3102   18.9990 H   0  0  0  0  0  0
  -23.7607  -30.5924   19.4024 H   0  0  0  0  0  0
  -22.7596  -29.2464   19.8554 H   0  0  0  0  0  0
  -25.1298  -36.1923   25.0818 H   0  0  0  0  0  0
  -20.9983  -28.3278   24.1393 H   0  0  0  0  0  0
  -20.5683  -26.2306   23.3613 H   0  0  0  0  0  0
  -21.6645  -26.7446   22.1197 H   0  0  0  0  0  0
  -19.6917  -25.6295   21.1243 H   0  0  0  0  0  0
  -19.6691  -27.3197   20.6742 H   0  0  0  0  0  0
  -17.4201  -26.6676   21.4025 H   0  0  0  0  0  0
  -18.0329  -26.0075   22.9023 H   0  0  0  0  0  0
  -19.7943  -30.7269   24.2267 H   0  0  0  0  0  0
  -17.5023  -31.6272   24.5159 H   0  0  0  0  0  0
  -15.5355  -30.2988   23.7663 H   0  0  0  0  0  0
  -15.8674  -28.0820   22.7078 H   0  0  0  0  0  0
  -24.5909  -30.7075   25.7768 H   0  0  0  0  0  0
  -24.8909  -32.2903   26.4846 H   0  0  0  0  0  0
  -25.8044  -30.8926   27.0229 H   0  0  0  0  0  0
  -26.2926  -29.6747   24.1225 H   0  0  0  0  0  0
  -27.4037  -29.7271   25.4711 H   0  0  0  0  0  0
  -27.8799  -30.4277   23.9429 H   0  0  0  0  0  0
  -27.2675  -33.3645   26.2033 H   0  0  0  0  0  0
  -28.3888  -32.6852   25.0332 H   0  0  0  0  0  0
  -28.0699  -31.8470   26.5440 H   0  0  0  0  0  0
  -28.2593  -38.0096   24.7514 H   0  0  0  0  0  0
  -28.1076  -36.2626   24.6291 H   0  0  0  0  0  0
  -27.2294  -37.1444   25.8868 H   0  0  0  0  0  0
  -20.9380  -29.8767   21.6869 H   0  0  0  0  0  0
  -26.0171  -38.2845   24.1414 H   0  0  0  0  0  0
  -28.7830  -21.2217   18.4403 H   0  0  0  0  0  0
  -28.9861  -23.8919   18.7894 H   0  0  0  0  0  0
  -27.2012  -23.5907   18.8774 H   0  0  0  0  0  0
  -28.7726  -24.0839   22.3824 H   0  0  0  0  0  0
  -30.0045  -24.1979   21.0594 H   0  0  0  0  0  0
  -26.9932  -24.9156   20.9746 H   0  0  0  0  0  0
  -31.3450  -17.3148   21.2013 H   0  0  0  0  0  0
  -31.0837  -17.2204   19.5193 H   0  0  0  0  0  0
  -28.9523  -15.7926   20.8492 H   0  0  0  0  0  0
  1 25  1  0  0  0
  1 30  2  0  0  0
  1 82  1  0  0  0
  2  3  1  0  0  0
  2 25  1  0  0  0
  2 86  1  0  0  0
  2 87  1  0  0  0
  3  4  1  0  0  0
  3 88  1  0  0  0
  3 89  1  0  0  0
  4  5  1  0  0  0
  4 90  1  0  0  0
  4 91  1  0  0  0
  5  6  1  0  0  0
  5 26  1  0  0  0
  5 92  1  0  0  0
  6 25  1  0  0  0
  6 93  1  0  0  0
  6 94  1  0  0  0
  7  8  2  0  0  0
  7 26  1  0  0  0
  7 29  1  0  0  0
  8  9  1  0  0  0
  8 22  1  0  0  0
  9 10  1  0  0  0
  9 27  2  0  0  0
 10 11  2  0  0  0
 10 15  1  0  0  0
 11 12  1  0  0  0
 11 95  1  0  0  0
 12 13  2  0  0  0
 12 96  1  0  0  0
 13 14  1  0  0  0
 13 31  1  0  0  0
 14 15  2  0  0  0
 14 97  1  0  0  0
 15 98  1  0  0  0
 16 17  2  0  0  0
 16 21  1  0  0  0
 16 31  1  0  0  0
 17 18  1  0  0  0
 17 99  1  0  0  0
 18 19  2  0  0  0
 18100  1  0  0  0
 19 20  1  0  0  0
 19 24  1  0  0  0
 20 21  2  0  0  0
 20101  1  0  0  0
 21 23  1  0  0  0
 22 28  1  0  0  0
 22 32  2  0  0  0
 26 27  1  0  0  0
 28102  1  0  0  0
 28103  1  0  0  0
 29104  1  0  0  0
 29105  1  0  0  0
 33 34  1  0  0  0
 33 66  1  0  0  0
 33 70  2  0  0  0
 34 36  1  0  0  0
 34 59  1  0  0  0
 34106  1  0  0  0
 35 44  2  0  0  0
 35 45  1  0  0  0
 35 68  1  0  0  0
 36 56  1  0  0  0
 36107  1  0  0  0
 37 39  1  0  0  0
 37 47  1  0  0  0
 37 66  1  0  0  0
 37108  1  0  0  0
 38 43  2  0  0  0
 38 46  1  0  0  0
 38 47  1  0  0  0
 39 64  1  0  0  0
 39 67  2  0  0  0
 40 52  1  0  0  0
 40 53  2  0  0  0
 40 58  1  0  0  0
 41109  1  0  0  0
 41110  1  0  0  0
 41111  1  0  0  0
 41 48  1  0  0  0
 42 43  1  0  0  0
 42 66  1  0  0  0
 42112  1  0  0  0
 42113  1  0  0  0
 43 44  1  0  0  0
 44114  1  0  0  0
 45 46  2  0  0  0
 45115  1  0  0  0
 46116  1  0  0  0
 47117  1  0  0  0
 47118  1  0  0  0
 48 56  1  0  0  0
 48 65  1  0  0  0
 48119  1  0  0  0
 49 50  1  0  0  0
 49 53  1  0  0  0
 49 64  1  0  0  0
 49120  1  0  0  0
 50 51  1  0  0  0
 50121  1  0  0  0
 50122  1  0  0  0
 51 52  1  0  0  0
 51123  1  0  0  0
 51124  1  0  0  0
 52125  1  0  0  0
 52126  1  0  0  0
 53 54  1  0  0  0
 54 55  2  0  0  0
 54127  1  0  0  0
 55 57  1  0  0  0
 55128  1  0  0  0
 56 69  2  0  0  0
 57 58  2  0  0  0
 57129  1  0  0  0
 58130  1  0  0  0
 59 60  1  0  0  0
 59 61  1  0  0  0
 59 62  1  0  0  0
 60131  1  0  0  0
 60132  1  0  0  0
 60133  1  0  0  0
 61134  1  0  0  0
 61135  1  0  0  0
 61136  1  0  0  0
 62137  1  0  0  0
 62138  1  0  0  0
 62139  1  0  0  0
 63 65  1  0  0  0
 63140  1  0  0  0
 63141  1  0  0  0
 63142  1  0  0  0
 64143  1  0  0  0
 65144  1  0  0  0
 68 79  1  0  0  0
 71 73  2  0  0  0
 71 74  1  0  0  0
 71145  1  0  0  0
 72 74  2  0  0  0
 72 75  1  0  0  0
 72 80  1  0  0  0
 73 76  1  0  0  0
 73 81  1  0  0  0
 74 83  1  0  0  0
 75 76  2  0  0  0
 75 84  1  0  0  0
 76 85  1  0  0  0
 77 79  1  0  0  0
 77 81  1  0  0  0
 77146  1  0  0  0
 77147  1  0  0  0
 78 79  1  0  0  0
 78 81  1  0  0  0
 78148  1  0  0  0
 78149  1  0  0  0
 79150  1  0  0  0
 80 82  1  0  0  0
 80151  1  0  0  0
 80152  1  0  0  0
 82153  1  0  0  0
M  ISO  4   1 100  68 101  79 101  82 100
M  END
> <chiral flag>
0

> <version>
0

> <s_m_source_file>
/data/baiqing/PycharmProjects/Reinvent-master-3.2/result/LINK_invent/BTK/process_docking_weight1_custom_product_contain_oxygen_bond_distance_aromatic_linkinvent_7_9_3/rearranged_h_0027.sdf

> <i_m_source_file_index>
42

> <r_mmod_Potential_Energy-OPLS-2005>
249.7412109375

> <r_mmod_Stretch_Energy-OPLS-2005>
99.8462219238281

> <r_mmod_Bend_Energy-OPLS-2005>
222.762725830078

> <r_mmod_Torsional_Energy-OPLS-2005>
245.735977172852

> <r_mmod_Improper_Torsional_Energy-OPLS-2005>
13.2491588592529

> <r_mmod_Van_der_Waal_Energy-OPLS-2005>
147.807632446289

> <r_mmod_Electrostatic_Energy-OPLS-2005>
-326.044860839844

> <r_mmod_Solvation_Energy-OPLS-2005>
-224.210845947266

> <b_mmod_Minimization_Converged-OPLS-2005>
0

> <r_mmod_RMS_Derivative-OPLS-2005>
0.457510739564896

$$$$
43
                    3D
 Structure written by MMmdl.
150159  0  0  1  0            999 V2000
  -30.4581  -15.1795   20.3409 C   0  0  0  0  0  0
  -30.4484  -12.7500   19.4646 C   0  0  0  0  0  0
  -29.5203  -12.5257   18.2470 C   0  0  0  0  0  0
  -28.0720  -12.2683   18.7058 C   0  0  0  0  0  0
  -27.6101  -13.2603   19.8020 C   0  0  2  0  0  0
  -28.6595  -13.4274   20.9139 C   0  0  0  0  0  0
  -25.2461  -13.8260   20.5763 C   0  0  0  0  0  0
  -24.1801  -13.0476   20.9273 C   0  0  0  0  0  0
  -24.6426  -11.6950   20.8800 C   0  0  0  0  0  0
  -23.9160  -10.4321   21.0476 C   0  0  0  0  0  0
  -24.3696   -9.4219   21.9259 C   0  0  0  0  0  0
  -23.6322   -8.2267   22.0786 C   0  0  0  0  0  0
  -22.4308   -8.0358   21.3573 C   0  0  0  0  0  0
  -21.9987   -9.0347   20.4695 C   0  0  0  0  0  0
  -22.7340  -10.2196   20.3111 C   0  0  0  0  0  0
  -21.6858   -6.0805   22.5299 C   0  0  0  0  0  0
  -21.4014   -6.5689   23.8247 C   0  0  0  0  0  0
  -21.3630   -5.6828   24.9205 C   0  0  0  0  0  0
  -21.6019   -4.3088   24.7238 C   0  0  0  0  0  0
  -21.8809   -3.8201   23.4350 C   0  0  0  0  0  0
  -21.9182   -4.7029   22.3421 C   0  0  0  0  0  0
  -22.7818  -13.5230   21.1938 C   0  0  0  0  0  0
  -22.1658   -4.2216   21.0998 F   0  0  0  0  0  0
  -21.5594   -3.4568   25.7746 F   0  0  0  0  0  0
  -29.8875  -13.8935   20.2527 N   0  0  0  0  0  0
  -26.2855  -12.9474   20.3183 N   0  0  0  0  0  0
  -25.9354  -11.6605   20.5741 N   0  0  0  0  0  0
  -22.0429  -12.8218   22.0463 N   0  0  0  0  0  0
  -25.4136  -15.2007   20.4184 N   0  0  0  0  0  0
  -31.6945  -15.1931   20.3132 O   0  0  0  0  0  0
  -21.6628   -6.8975   21.4276 O   0  0  0  0  0  0
  -22.3484  -14.5539   20.6796 O   0  0  0  0  0  0
  -24.6610  -31.8296   23.1733 C   0  0  0  0  0  0
  -25.9319  -32.4636   23.8206 C   0  0  1  0  0  0
  -27.2218  -26.9923   20.1675 C   0  0  0  0  0  0
  -25.5970  -33.8444   24.2115 N   0  0  0  0  0  0
  -23.4737  -30.4414   21.5192 C   0  0  2  0  0  0
  -24.9239  -28.8360   20.1126 C   0  0  0  0  0  0
  -22.7644  -29.4476   22.4770 C   0  0  0  0  0  0
  -18.0291  -28.1419   22.8527 C   0  0  0  0  0  0
  -24.1479  -36.7225   23.2641 C   0  0  0  0  0  0
  -26.0396  -30.6579   21.3892 C   0  0  0  0  0  0
  -26.1092  -29.2518   20.7350 C   0  0  0  0  0  0
  -27.2597  -28.3532   20.7299 C   0  0  0  0  0  0
  -26.0081  -26.7024   19.5147 C   0  0  0  0  0  0
  -24.8944  -27.5781   19.4859 C   0  0  0  0  0  0
  -23.7100  -29.7574   20.1464 C   0  0  0  0  0  0
  -25.4129  -36.3012   24.0310 C   0  0  1  0  0  0
  -20.5932  -28.3797   23.1196 C   0  0  2  0  0  0
  -20.6800  -26.9494   22.5422 C   0  0  0  0  0  0
  -19.5754  -26.6406   21.5286 C   0  0  0  0  0  0
  -18.1945  -26.7940   22.1695 C   0  0  0  0  0  0
  -19.1546  -28.8930   23.2870 C   0  0  0  0  0  0
  -18.9419  -30.1514   23.8893 C   0  0  0  0  0  0
  -17.6394  -30.6611   24.0566 C   0  0  0  0  0  0
  -25.9109  -34.9380   23.5038 C   0  0  0  0  0  0
  -16.5305  -29.9076   23.6318 C   0  0  0  0  0  0
  -16.7260  -28.6492   23.0364 C   0  0  0  0  0  0
  -26.4559  -31.6575   25.0711 C   0  0  0  0  0  0
  -25.3686  -31.3787   26.1366 C   0  0  0  0  0  0
  -27.0444  -30.2960   24.6396 C   0  0  0  0  0  0
  -27.6075  -32.4345   25.7510 C   0  0  0  0  0  0
  -27.5581  -37.1761   24.8464 C   0  0  0  0  0  0
  -21.4312  -29.3081   22.3528 N   0  0  0  0  0  0
  -26.4290  -37.3741   23.9414 N   0  0  0  0  0  0
  -24.7464  -31.0010   22.0823 N   0  0  0  0  0  0
  -23.4206  -28.8060   23.3015 O   0  0  0  0  0  0
  -28.2530  -25.9397   20.1874 O   0  0  0  0  0  0
  -26.5706  -34.8914   22.4621 O   0  0  0  0  0  0
  -23.5686  -32.1237   23.6857 O   0  0  0  0  0  0
  -27.9068  -19.0016   22.1661 C   0  0  0  0  0  0
  -28.0615  -20.2913   21.5988 C   0  0  0  0  0  0
  -28.5328  -17.8356   21.6707 C   0  0  0  0  0  0
  -29.4701  -19.2714   19.9661 C   0  0  0  0  0  0
  -28.8635  -20.5909   20.4705 C   0  0  0  0  0  0
  -29.3640  -17.8479   20.5326 C   0  0  0  0  0  0
  -29.0720  -23.3014   21.0903 C   0  0  0  0  0  0
  -27.9726  -23.0603   19.3571 C   0  0  0  0  0  0
  -28.0361  -24.3336   20.3833 C   0  0  0  0  0  0
  -28.9385  -22.1465   20.1086 N   0  0  0  0  0  0
  -29.7095  -16.3912   19.9910 N   0  0  0  0  0  0
  -31.4610  -12.9620   19.1179 H   0  0  0  0  0  0
  -30.5198  -11.8487   20.0799 H   0  0  0  0  0  0
  -29.8773  -11.6849   17.6517 H   0  0  0  0  0  0
  -29.5488  -13.3995   17.5924 H   0  0  0  0  0  0
  -28.0436  -11.2565   19.1079 H   0  0  0  0  0  0
  -27.3870  -12.2779   17.8562 H   0  0  0  0  0  0
  -27.5262  -14.2223   19.2962 H   0  0  0  0  0  0
  -28.8163  -12.5022   21.4678 H   0  0  0  0  0  0
  -28.3223  -14.1720   21.6358 H   0  0  0  0  0  0
  -25.2856   -9.5636   22.4831 H   0  0  0  0  0  0
  -24.0014   -7.4631   22.7482 H   0  0  0  0  0  0
  -21.0924   -8.8930   19.8981 H   0  0  0  0  0  0
  -22.3888  -10.9763   19.6195 H   0  0  0  0  0  0
  -21.2026   -7.6202   23.9777 H   0  0  0  0  0  0
  -21.1431   -6.0559   25.9103 H   0  0  0  0  0  0
  -22.0594   -2.7666   23.2838 H   0  0  0  0  0  0
  -22.3961  -11.9835   22.4838 H   0  0  0  0  0  0
  -21.1044  -13.1273   22.2667 H   0  0  0  0  0  0
  -24.6504  -15.8607   20.5301 H   0  0  0  0  0  0
  -26.2814  -15.6427   20.1402 H   0  0  0  0  0  0
  -26.7394  -32.5196   23.0939 H   0  0  0  0  0  0
  -25.0038  -33.9529   25.0217 H   0  0  0  0  0  0
  -22.7857  -31.2727   21.3500 H   0  0  0  0  0  0
  -23.3783  -35.9507   23.3256 H   0  0  0  0  0  0
  -24.3567  -36.8923   22.2065 H   0  0  0  0  0  0
  -23.7192  -37.6384   23.6727 H   0  0  0  0  0  0
  -26.2130  -31.4017   20.6114 H   0  0  0  0  0  0
  -26.9017  -30.7142   22.0429 H   0  0  0  0  0  0
  -28.1690  -28.6751   21.2198 H   0  0  0  0  0  0
  -25.8951  -25.7417   19.0317 H   0  0  0  0  0  0
  -23.9929  -27.2556   18.9838 H   0  0  0  0  0  0
  -23.8645  -30.5232   19.3853 H   0  0  0  0  0  0
  -22.8206  -29.2097   19.8349 H   0  0  0  0  0  0
  -25.1316  -36.1810   25.0805 H   0  0  0  0  0  0
  -21.0017  -28.3411   24.1312 H   0  0  0  0  0  0
  -20.5659  -26.2448   23.3689 H   0  0  0  0  0  0
  -21.6658  -26.7487   22.1232 H   0  0  0  0  0  0
  -19.6931  -25.6294   21.1357 H   0  0  0  0  0  0
  -19.6636  -27.3176   20.6799 H   0  0  0  0  0  0
  -17.4238  -26.6758   21.4074 H   0  0  0  0  0  0
  -18.0273  -26.0114   22.9144 H   0  0  0  0  0  0
  -19.7869  -30.7377   24.2255 H   0  0  0  0  0  0
  -17.4920  -31.6282   24.5165 H   0  0  0  0  0  0
  -15.5319  -30.2955   23.7621 H   0  0  0  0  0  0
  -15.8696  -28.0802   22.7039 H   0  0  0  0  0  0
  -24.5886  -30.7131   25.7645 H   0  0  0  0  0  0
  -24.8847  -32.2969   26.4716 H   0  0  0  0  0  0
  -25.7904  -30.8993   27.0219 H   0  0  0  0  0  0
  -26.3087  -29.6649   24.1393 H   0  0  0  0  0  0
  -27.4002  -29.7315   25.5037 H   0  0  0  0  0  0
  -27.9027  -30.4180   23.9780 H   0  0  0  0  0  0
  -27.2696  -33.3692   26.2017 H   0  0  0  0  0  0
  -28.3937  -32.6850   25.0362 H   0  0  0  0  0  0
  -28.0719  -31.8526   26.5503 H   0  0  0  0  0  0
  -28.2572  -38.0085   24.7564 H   0  0  0  0  0  0
  -28.1110  -36.2622   24.6228 H   0  0  0  0  0  0
  -27.2302  -37.1321   25.8868 H   0  0  0  0  0  0
  -20.9598  -29.8751   21.6607 H   0  0  0  0  0  0
  -26.0144  -38.2794   24.1457 H   0  0  0  0  0  0
  -27.2462  -18.8977   23.0179 H   0  0  0  0  0  0
  -27.5114  -21.0955   22.0707 H   0  0  0  0  0  0
  -28.2966  -16.8941   22.1509 H   0  0  0  0  0  0
  -30.0666  -19.3632   19.0714 H   0  0  0  0  0  0
  -28.7618  -23.0378   22.1024 H   0  0  0  0  0  0
  -30.0931  -23.6810   21.1047 H   0  0  0  0  0  0
  -28.3492  -23.3016   18.3615 H   0  0  0  0  0  0
  -26.9678  -22.6421   19.2821 H   0  0  0  0  0  0
  -27.1163  -24.2816   20.9655 H   0  0  0  0  0  0
  -28.9697  -16.0810   19.3788 H   0  0  0  0  0  0
  1 25  1  0  0  0
  1 30  2  0  0  0
  1 81  1  0  0  0
  2  3  1  0  0  0
  2 25  1  0  0  0
  2 82  1  0  0  0
  2 83  1  0  0  0
  3  4  1  0  0  0
  3 84  1  0  0  0
  3 85  1  0  0  0
  4  5  1  0  0  0
  4 86  1  0  0  0
  4 87  1  0  0  0
  5  6  1  0  0  0
  5 26  1  0  0  0
  5 88  1  0  0  0
  6 25  1  0  0  0
  6 89  1  0  0  0
  6 90  1  0  0  0
  7  8  2  0  0  0
  7 26  1  0  0  0
  7 29  1  0  0  0
  8  9  1  0  0  0
  8 22  1  0  0  0
  9 10  1  0  0  0
  9 27  2  0  0  0
 10 11  2  0  0  0
 10 15  1  0  0  0
 11 12  1  0  0  0
 11 91  1  0  0  0
 12 13  2  0  0  0
 12 92  1  0  0  0
 13 14  1  0  0  0
 13 31  1  0  0  0
 14 15  2  0  0  0
 14 93  1  0  0  0
 15 94  1  0  0  0
 16 17  2  0  0  0
 16 21  1  0  0  0
 16 31  1  0  0  0
 17 18  1  0  0  0
 17 95  1  0  0  0
 18 19  2  0  0  0
 18 96  1  0  0  0
 19 20  1  0  0  0
 19 24  1  0  0  0
 20 21  2  0  0  0
 20 97  1  0  0  0
 21 23  1  0  0  0
 22 28  1  0  0  0
 22 32  2  0  0  0
 26 27  1  0  0  0
 28 98  1  0  0  0
 28 99  1  0  0  0
 29100  1  0  0  0
 29101  1  0  0  0
 33 34  1  0  0  0
 33 66  1  0  0  0
 33 70  2  0  0  0
 34 36  1  0  0  0
 34 59  1  0  0  0
 34102  1  0  0  0
 35 44  2  0  0  0
 35 45  1  0  0  0
 35 68  1  0  0  0
 36 56  1  0  0  0
 36103  1  0  0  0
 37 39  1  0  0  0
 37 47  1  0  0  0
 37 66  1  0  0  0
 37104  1  0  0  0
 38 43  2  0  0  0
 38 46  1  0  0  0
 38 47  1  0  0  0
 39 64  1  0  0  0
 39 67  2  0  0  0
 40 52  1  0  0  0
 40 53  2  0  0  0
 40 58  1  0  0  0
 41105  1  0  0  0
 41106  1  0  0  0
 41107  1  0  0  0
 41 48  1  0  0  0
 42 43  1  0  0  0
 42 66  1  0  0  0
 42108  1  0  0  0
 42109  1  0  0  0
 43 44  1  0  0  0
 44110  1  0  0  0
 45 46  2  0  0  0
 45111  1  0  0  0
 46112  1  0  0  0
 47113  1  0  0  0
 47114  1  0  0  0
 48 56  1  0  0  0
 48 65  1  0  0  0
 48115  1  0  0  0
 49 50  1  0  0  0
 49 53  1  0  0  0
 49 64  1  0  0  0
 49116  1  0  0  0
 50 51  1  0  0  0
 50117  1  0  0  0
 50118  1  0  0  0
 51 52  1  0  0  0
 51119  1  0  0  0
 51120  1  0  0  0
 52121  1  0  0  0
 52122  1  0  0  0
 53 54  1  0  0  0
 54 55  2  0  0  0
 54123  1  0  0  0
 55 57  1  0  0  0
 55124  1  0  0  0
 56 69  2  0  0  0
 57 58  2  0  0  0
 57125  1  0  0  0
 58126  1  0  0  0
 59 60  1  0  0  0
 59 61  1  0  0  0
 59 62  1  0  0  0
 60127  1  0  0  0
 60128  1  0  0  0
 60129  1  0  0  0
 61130  1  0  0  0
 61131  1  0  0  0
 61132  1  0  0  0
 62133  1  0  0  0
 62134  1  0  0  0
 62135  1  0  0  0
 63 65  1  0  0  0
 63136  1  0  0  0
 63137  1  0  0  0
 63138  1  0  0  0
 64139  1  0  0  0
 65140  1  0  0  0
 68 79  1  0  0  0
 71 72  2  0  0  0
 71 73  1  0  0  0
 71141  1  0  0  0
 72 75  1  0  0  0
 72142  1  0  0  0
 73 76  2  0  0  0
 73143  1  0  0  0
 74 75  2  0  0  0
 74 76  1  0  0  0
 74144  1  0  0  0
 75 80  1  0  0  0
 76 81  1  0  0  0
 77 79  1  0  0  0
 77 80  1  0  0  0
 77145  1  0  0  0
 77146  1  0  0  0
 78 79  1  0  0  0
 78 80  1  0  0  0
 78147  1  0  0  0
 78148  1  0  0  0
 79149  1  0  0  0
 81150  1  0  0  0
M  ISO  4   1 100  68 101  79 101  81 100
M  END
> <chiral flag>
0

> <version>
0

> <s_m_source_file>
/data/baiqing/PycharmProjects/Reinvent-master-3.2/result/LINK_invent/BTK/process_docking_weight1_custom_product_contain_oxygen_bond_distance_aromatic_linkinvent_7_9_3/rearranged_h_0027.sdf

> <i_m_source_file_index>
43

> <r_mmod_Potential_Energy-OPLS-2005>
1134.57568359375

> <r_mmod_Stretch_Energy-OPLS-2005>
417.851989746094

> <r_mmod_Bend_Energy-OPLS-2005>
437.372344970703

> <r_mmod_Torsional_Energy-OPLS-2005>
334.858032226562

> <r_mmod_Improper_Torsional_Energy-OPLS-2005>
24.673246383667

> <r_mmod_Van_der_Waal_Energy-OPLS-2005>
118.285682678223

> <r_mmod_Electrostatic_Energy-OPLS-2005>
-338.505859375

> <r_mmod_Solvation_Energy-OPLS-2005>
-240.858215332031

> <b_mmod_Minimization_Converged-OPLS-2005>
0

> <r_mmod_RMS_Derivative-OPLS-2005>
5.19765138626099

$$$$
44
                    3D
 Structure written by MMmdl.
150159  0  0  1  0            999 V2000
  -30.4718  -15.1641   20.3856 C   0  0  0  0  0  0
  -30.4398  -12.7381   19.5140 C   0  0  0  0  0  0
  -29.5294  -12.5590   18.2747 C   0  0  0  0  0  0
  -28.0722  -12.3049   18.6998 C   0  0  0  0  0  0
  -27.6160  -13.2671   19.8256 C   0  0  2  0  0  0
  -28.6543  -13.3959   20.9597 C   0  0  0  0  0  0
  -25.2404  -13.8238   20.5727 C   0  0  0  0  0  0
  -24.1751  -13.0435   20.9253 C   0  0  0  0  0  0
  -24.6397  -11.6932   20.8764 C   0  0  0  0  0  0
  -23.9089  -10.4293   21.0408 C   0  0  0  0  0  0
  -24.3634   -9.4207   21.9186 C   0  0  0  0  0  0
  -23.6301   -8.2244   22.0755 C   0  0  0  0  0  0
  -22.4285   -8.0285   21.3543 C   0  0  0  0  0  0
  -21.9928   -9.0258   20.4643 C   0  0  0  0  0  0
  -22.7263  -10.2131   20.3054 C   0  0  0  0  0  0
  -21.6855   -6.0737   22.5277 C   0  0  0  0  0  0
  -21.4015   -6.5640   23.8210 C   0  0  0  0  0  0
  -21.3660   -5.6793   24.9174 C   0  0  0  0  0  0
  -21.6042   -4.3055   24.7222 C   0  0  0  0  0  0
  -21.8822   -3.8149   23.4344 C   0  0  0  0  0  0
  -21.9193   -4.6965   22.3402 C   0  0  0  0  0  0
  -22.7771  -13.5193   21.1902 C   0  0  0  0  0  0
  -22.1663   -4.2152   21.0978 F   0  0  0  0  0  0
  -21.5628   -3.4540   25.7735 F   0  0  0  0  0  0
  -29.8992  -13.8718   20.3392 N   0  0  0  0  0  0
  -26.2830  -12.9498   20.3219 N   0  0  0  0  0  0
  -25.9332  -11.6610   20.5729 N   0  0  0  0  0  0
  -22.0429  -12.8168   22.0450 N   0  0  0  0  0  0
  -25.4033  -15.1970   20.4145 N   0  0  0  0  0  0
  -31.6917  -15.1763   20.1719 O   0  0  0  0  0  0
  -21.6644   -6.8884   21.4240 O   0  0  0  0  0  0
  -22.3449  -14.5493   20.6744 O   0  0  0  0  0  0
  -24.6566  -31.8292   23.1751 C   0  0  0  0  0  0
  -25.9271  -32.4620   23.8190 C   0  0  1  0  0  0
  -27.2203  -26.9927   20.1796 C   0  0  0  0  0  0
  -25.5964  -33.8431   24.2094 N   0  0  0  0  0  0
  -23.4683  -30.4432   21.5226 C   0  0  2  0  0  0
  -24.9212  -28.8392   20.1134 C   0  0  0  0  0  0
  -22.7632  -29.4478   22.4801 C   0  0  0  0  0  0
  -18.0314  -28.1418   22.8461 C   0  0  0  0  0  0
  -24.1490  -36.7223   23.2643 C   0  0  0  0  0  0
  -26.0328  -30.6592   21.3929 C   0  0  0  0  0  0
  -26.1030  -29.2541   20.7396 C   0  0  0  0  0  0
  -27.2503  -28.3508   20.7477 C   0  0  0  0  0  0
  -26.0119  -26.7139   19.5049 C   0  0  0  0  0  0
  -24.8969  -27.5879   19.4767 C   0  0  0  0  0  0
  -23.7045  -29.7601   20.1478 C   0  0  0  0  0  0
  -25.4127  -36.2985   24.0303 C   0  0  1  0  0  0
  -20.5934  -28.3753   23.1204 C   0  0  2  0  0  0
  -20.6793  -26.9443   22.5404 C   0  0  0  0  0  0
  -19.5766  -26.6385   21.5216 C   0  0  0  0  0  0
  -18.1947  -26.7948   22.1623 C   0  0  0  0  0  0
  -19.1575  -28.8904   23.2818 C   0  0  0  0  0  0
  -18.9494  -30.1492   23.8858 C   0  0  0  0  0  0
  -17.6490  -30.6606   24.0560 C   0  0  0  0  0  0
  -25.9093  -34.9368   23.5018 C   0  0  0  0  0  0
  -16.5377  -29.9098   23.6348 C   0  0  0  0  0  0
  -16.7299  -28.6521   23.0357 C   0  0  0  0  0  0
  -26.4543  -31.6545   25.0694 C   0  0  0  0  0  0
  -25.3686  -31.3799   26.1364 C   0  0  0  0  0  0
  -27.0415  -30.2918   24.6372 C   0  0  0  0  0  0
  -27.6057  -32.4329   25.7492 C   0  0  0  0  0  0
  -27.5567  -37.1760   24.8456 C   0  0  0  0  0  0
  -21.4307  -29.3054   22.3560 N   0  0  0  0  0  0
  -26.4269  -37.3720   23.9419 N   0  0  0  0  0  0
  -24.7403  -31.0016   22.0850 N   0  0  0  0  0  0
  -23.4209  -28.8043   23.3018 O   0  0  0  0  0  0
  -28.2500  -25.9365   20.2437 O   0  0  0  0  0  0
  -26.5691  -34.8897   22.4608 O   0  0  0  0  0  0
  -23.5652  -32.1230   23.6888 O   0  0  0  0  0  0
  -30.7611  -20.8305   20.4669 C   0  0  0  0  0  0
  -31.3104  -18.3932   20.5244 C   0  0  0  0  0  0
  -29.3570  -20.6869   20.3638 C   0  0  0  0  0  0
  -29.9665  -17.9761   20.4314 C   0  0  0  0  0  0
  -29.0285  -19.1835   20.3552 C   0  0  0  0  0  0
  -31.6864  -19.7580   20.5446 C   0  0  0  0  0  0
  -28.7000  -23.1860   19.2976 C   0  0  0  0  0  0
  -28.6426  -23.2278   21.2606 C   0  0  0  0  0  0
  -28.0143  -24.3256   20.2377 C   0  0  0  0  0  0
  -28.5163  -22.0474   20.3000 N   0  0  0  0  0  0
  -29.6889  -16.4039   20.4509 N   0  0  0  0  0  0
  -27.7122  -18.8767   20.2674 F   0  0  0  0  0  0
  -33.3651  -20.1386   20.6783 Cl  0  0  0  0  0  0
  -31.4627  -12.9299   19.1867 H   0  0  0  0  0  0
  -30.4860  -11.8189   20.1002 H   0  0  0  0  0  0
  -29.8889  -11.7376   17.6534 H   0  0  0  0  0  0
  -29.5779  -13.4559   17.6556 H   0  0  0  0  0  0
  -28.0076  -11.2745   19.0511 H   0  0  0  0  0  0
  -27.4050  -12.3774   17.8398 H   0  0  0  0  0  0
  -27.5456  -14.2451   19.3488 H   0  0  0  0  0  0
  -28.7977  -12.4479   21.4808 H   0  0  0  0  0  0
  -28.3142  -14.1144   21.7071 H   0  0  0  0  0  0
  -25.2775   -9.5680   22.4766 H   0  0  0  0  0  0
  -24.0006   -7.4637   22.7476 H   0  0  0  0  0  0
  -21.0863   -8.8782   19.8946 H   0  0  0  0  0  0
  -22.3727  -10.9672   19.6165 H   0  0  0  0  0  0
  -21.2009   -7.6148   23.9715 H   0  0  0  0  0  0
  -21.1479   -6.0522   25.9074 H   0  0  0  0  0  0
  -22.0599   -2.7610   23.2843 H   0  0  0  0  0  0
  -22.4066  -11.9828   22.4824 H   0  0  0  0  0  0
  -21.1041  -13.1172   22.2661 H   0  0  0  0  0  0
  -24.6288  -15.8433   20.5224 H   0  0  0  0  0  0
  -26.2348  -15.6397   20.0468 H   0  0  0  0  0  0
  -26.7335  -32.5179   23.0907 H   0  0  0  0  0  0
  -25.0084  -33.9524   25.0224 H   0  0  0  0  0  0
  -22.7796  -31.2739   21.3543 H   0  0  0  0  0  0
  -23.3760  -35.9543   23.3272 H   0  0  0  0  0  0
  -24.3573  -36.8899   22.2064 H   0  0  0  0  0  0
  -23.7241  -37.6403   23.6715 H   0  0  0  0  0  0
  -26.1985  -31.4043   20.6134 H   0  0  0  0  0  0
  -26.8985  -30.7182   22.0408 H   0  0  0  0  0  0
  -28.1474  -28.6664   21.2609 H   0  0  0  0  0  0
  -25.8997  -25.7607   19.0091 H   0  0  0  0  0  0
  -23.9983  -27.2653   18.9686 H   0  0  0  0  0  0
  -23.8568  -30.5288   19.3895 H   0  0  0  0  0  0
  -22.8154  -29.2119   19.8307 H   0  0  0  0  0  0
  -25.1321  -36.1779   25.0792 H   0  0  0  0  0  0
  -21.0018  -28.3352   24.1327 H   0  0  0  0  0  0
  -20.5683  -26.2371   23.3638 H   0  0  0  0  0  0
  -21.6656  -26.7431   22.1205 H   0  0  0  0  0  0
  -19.6932  -25.6285   21.1272 H   0  0  0  0  0  0
  -19.6707  -27.3172   20.6730 H   0  0  0  0  0  0
  -17.4215  -26.6689   21.4028 H   0  0  0  0  0  0
  -18.0339  -26.0114   22.9043 H   0  0  0  0  0  0
  -19.7974  -30.7312   24.2207 H   0  0  0  0  0  0
  -17.5051  -31.6284   24.5163 H   0  0  0  0  0  0
  -15.5377  -30.2989   23.7702 H   0  0  0  0  0  0
  -15.8699  -28.0832   22.7090 H   0  0  0  0  0  0
  -24.5884  -30.7124   25.7683 H   0  0  0  0  0  0
  -24.8860  -32.3005   26.4652 H   0  0  0  0  0  0
  -25.7929  -30.9064   27.0227 H   0  0  0  0  0  0
  -26.3059  -29.6618   24.1361 H   0  0  0  0  0  0
  -27.3949  -29.7254   25.4998 H   0  0  0  0  0  0
  -27.8998  -30.4104   23.9761 H   0  0  0  0  0  0
  -27.2665  -33.3709   26.1897 H   0  0  0  0  0  0
  -28.3969  -32.6743   25.0382 H   0  0  0  0  0  0
  -28.0598  -31.8548   26.5551 H   0  0  0  0  0  0
  -28.2539  -38.0097   24.7537 H   0  0  0  0  0  0
  -28.1107  -36.2627   24.6237 H   0  0  0  0  0  0
  -27.2292  -37.1347   25.8858 H   0  0  0  0  0  0
  -20.9548  -29.8773   21.6722 H   0  0  0  0  0  0
  -26.0115  -38.2769   24.1461 H   0  0  0  0  0  0
  -31.1709  -21.8287   20.4941 H   0  0  0  0  0  0
  -32.0961  -17.6569   20.5951 H   0  0  0  0  0  0
  -29.7520  -23.3909   19.0838 H   0  0  0  0  0  0
  -28.1597  -23.0213   18.3647 H   0  0  0  0  0  0
  -28.0529  -23.1026   22.1698 H   0  0  0  0  0  0
  -29.6815  -23.4442   21.5219 H   0  0  0  0  0  0
  -26.9354  -24.1700   20.2277 H   0  0  0  0  0  0
  -28.7038  -16.1978   20.5169 H   0  0  0  0  0  0
  1 25  1  0  0  0
  1 30  2  0  0  0
  1 81  1  0  0  0
  2  3  1  0  0  0
  2 25  1  0  0  0
  2 84  1  0  0  0
  2 85  1  0  0  0
  3  4  1  0  0  0
  3 86  1  0  0  0
  3 87  1  0  0  0
  4  5  1  0  0  0
  4 88  1  0  0  0
  4 89  1  0  0  0
  5  6  1  0  0  0
  5 26  1  0  0  0
  5 90  1  0  0  0
  6 25  1  0  0  0
  6 91  1  0  0  0
  6 92  1  0  0  0
  7  8  2  0  0  0
  7 26  1  0  0  0
  7 29  1  0  0  0
  8  9  1  0  0  0
  8 22  1  0  0  0
  9 10  1  0  0  0
  9 27  2  0  0  0
 10 11  2  0  0  0
 10 15  1  0  0  0
 11 12  1  0  0  0
 11 93  1  0  0  0
 12 13  2  0  0  0
 12 94  1  0  0  0
 13 14  1  0  0  0
 13 31  1  0  0  0
 14 15  2  0  0  0
 14 95  1  0  0  0
 15 96  1  0  0  0
 16 17  2  0  0  0
 16 21  1  0  0  0
 16 31  1  0  0  0
 17 18  1  0  0  0
 17 97  1  0  0  0
 18 19  2  0  0  0
 18 98  1  0  0  0
 19 20  1  0  0  0
 19 24  1  0  0  0
 20 21  2  0  0  0
 20 99  1  0  0  0
 21 23  1  0  0  0
 22 28  1  0  0  0
 22 32  2  0  0  0
 26 27  1  0  0  0
 28100  1  0  0  0
 28101  1  0  0  0
 29102  1  0  0  0
 29103  1  0  0  0
 33 34  1  0  0  0
 33 66  1  0  0  0
 33 70  2  0  0  0
 34 36  1  0  0  0
 34 59  1  0  0  0
 34104  1  0  0  0
 35 44  2  0  0  0
 35 45  1  0  0  0
 35 68  1  0  0  0
 36 56  1  0  0  0
 36105  1  0  0  0
 37 39  1  0  0  0
 37 47  1  0  0  0
 37 66  1  0  0  0
 37106  1  0  0  0
 38 43  2  0  0  0
 38 46  1  0  0  0
 38 47  1  0  0  0
 39 64  1  0  0  0
 39 67  2  0  0  0
 40 52  1  0  0  0
 40 53  2  0  0  0
 40 58  1  0  0  0
 41107  1  0  0  0
 41108  1  0  0  0
 41109  1  0  0  0
 41 48  1  0  0  0
 42 43  1  0  0  0
 42 66  1  0  0  0
 42110  1  0  0  0
 42111  1  0  0  0
 43 44  1  0  0  0
 44112  1  0  0  0
 45 46  2  0  0  0
 45113  1  0  0  0
 46114  1  0  0  0
 47115  1  0  0  0
 47116  1  0  0  0
 48 56  1  0  0  0
 48 65  1  0  0  0
 48117  1  0  0  0
 49 50  1  0  0  0
 49 53  1  0  0  0
 49 64  1  0  0  0
 49118  1  0  0  0
 50 51  1  0  0  0
 50119  1  0  0  0
 50120  1  0  0  0
 51 52  1  0  0  0
 51121  1  0  0  0
 51122  1  0  0  0
 52123  1  0  0  0
 52124  1  0  0  0
 53 54  1  0  0  0
 54 55  2  0  0  0
 54125  1  0  0  0
 55 57  1  0  0  0
 55126  1  0  0  0
 56 69  2  0  0  0
 57 58  2  0  0  0
 57127  1  0  0  0
 58128  1  0  0  0
 59 60  1  0  0  0
 59 61  1  0  0  0
 59 62  1  0  0  0
 60129  1  0  0  0
 60130  1  0  0  0
 60131  1  0  0  0
 61132  1  0  0  0
 61133  1  0  0  0
 61134  1  0  0  0
 62135  1  0  0  0
 62136  1  0  0  0
 62137  1  0  0  0
 63 65  1  0  0  0
 63138  1  0  0  0
 63139  1  0  0  0
 63140  1  0  0  0
 64141  1  0  0  0
 65142  1  0  0  0
 68 79  1  0  0  0
 71 73  2  0  0  0
 71 76  1  0  0  0
 71143  1  0  0  0
 72 74  1  0  0  0
 72 76  2  0  0  0
 72144  1  0  0  0
 73 75  1  0  0  0
 73 80  1  0  0  0
 74 75  2  0  0  0
 74 81  1  0  0  0
 75 82  1  0  0  0
 76 83  1  0  0  0
 77 79  1  0  0  0
 77 80  1  0  0  0
 77145  1  0  0  0
 77146  1  0  0  0
 78 79  1  0  0  0
 78 80  1  0  0  0
 78147  1  0  0  0
 78148  1  0  0  0
 79149  1  0  0  0
 81150  1  0  0  0
M  ISO  4   1 100  68 101  79 101  81 100
M  END
> <chiral flag>
0

> <version>
0

> <s_m_source_file>
/data/baiqing/PycharmProjects/Reinvent-master-3.2/result/LINK_invent/BTK/process_docking_weight1_custom_product_contain_oxygen_bond_distance_aromatic_linkinvent_7_9_3/rearranged_h_0027.sdf

> <i_m_source_file_index>
44

> <r_mmod_Potential_Energy-OPLS-2005>
1000.58129882812

> <r_mmod_Stretch_Energy-OPLS-2005>
420.338073730469

> <r_mmod_Bend_Energy-OPLS-2005>
385.979034423828

> <r_mmod_Torsional_Energy-OPLS-2005>
251.867797851562

> <r_mmod_Improper_Torsional_Energy-OPLS-2005>
12.2889375686646

> <r_mmod_Van_der_Waal_Energy-OPLS-2005>
127.006141662598

> <r_mmod_Electrostatic_Energy-OPLS-2005>
-328.429168701172

> <r_mmod_Solvation_Energy-OPLS-2005>
-227.024597167969

> <b_mmod_Minimization_Converged-OPLS-2005>
0

> <r_mmod_RMS_Derivative-OPLS-2005>
0.936866462230682

$$$$
45
                    3D
 Structure written by MMmdl.
163173  0  0  1  0            999 V2000
  -30.5268  -15.0249   20.2880 C   0  0  0  0  0  0
  -30.4714  -12.6091   19.4902 C   0  0  0  0  0  0
  -29.5429  -12.3080   18.2854 C   0  0  0  0  0  0
  -28.0578  -12.2277   18.6974 C   0  0  0  0  0  0
  -27.6279  -13.2289   19.8048 C   0  0  2  0  0  0
  -28.6811  -13.3512   20.9214 C   0  0  0  0  0  0
  -25.2550  -13.8187   20.5722 C   0  0  0  0  0  0
  -24.1828  -13.0448   20.9239 C   0  0  0  0  0  0
  -24.6405  -11.6915   20.8788 C   0  0  0  0  0  0
  -23.9075  -10.4289   21.0425 C   0  0  0  0  0  0
  -24.3623   -9.4206   21.9200 C   0  0  0  0  0  0
  -23.6294   -8.2244   22.0752 C   0  0  0  0  0  0
  -22.4277   -8.0293   21.3542 C   0  0  0  0  0  0
  -21.9920   -9.0268   20.4649 C   0  0  0  0  0  0
  -22.7254  -10.2141   20.3070 C   0  0  0  0  0  0
  -21.6842   -6.0748   22.5273 C   0  0  0  0  0  0
  -21.4028   -6.5650   23.8214 C   0  0  0  0  0  0
  -21.3646   -5.6791   24.9170 C   0  0  0  0  0  0
  -21.6029   -4.3052   24.7216 C   0  0  0  0  0  0
  -21.8816   -3.8161   23.4332 C   0  0  0  0  0  0
  -21.9197   -4.6979   22.3394 C   0  0  0  0  0  0
  -22.7849  -13.5240   21.1868 C   0  0  0  0  0  0
  -22.1665   -4.2171   21.0966 F   0  0  0  0  0  0
  -21.5614   -3.4535   25.7720 F   0  0  0  0  0  0
  -29.9298  -13.7586   20.2666 N   0  0  0  0  0  0
  -26.2924  -12.9373   20.3188 N   0  0  0  0  0  0
  -25.9330  -11.6536   20.5787 N   0  0  0  0  0  0
  -22.0465  -12.8236   22.0409 N   0  0  0  0  0  0
  -25.4326  -15.1903   20.4179 N   0  0  0  0  0  0
  -31.7630  -15.0358   20.3146 O   0  0  0  0  0  0
  -21.6640   -6.8894   21.4234 O   0  0  0  0  0  0
  -22.3532  -14.5539   20.6692 O   0  0  0  0  0  0
  -24.6411  -31.8449   23.1885 C   0  0  0  0  0  0
  -25.9194  -32.4700   23.8273 C   0  0  1  0  0  0
  -27.2325  -27.1602   20.1598 C   0  0  0  0  0  0
  -25.5957  -33.8505   24.2211 N   0  0  0  0  0  0
  -23.4450  -30.4625   21.5312 C   0  0  2  0  0  0
  -24.8976  -28.8843   20.1134 C   0  0  0  0  0  0
  -22.7559  -29.4542   22.4845 C   0  0  0  0  0  0
  -18.0298  -28.1390   22.8456 C   0  0  0  0  0  0
  -24.1479  -36.7249   23.2647 C   0  0  0  0  0  0
  -25.9969  -30.7279   21.3804 C   0  0  0  0  0  0
  -26.0716  -29.3372   20.7299 C   0  0  0  0  0  0
  -27.2411  -28.4923   20.7327 C   0  0  0  0  0  0
  -26.0359  -26.7972   19.5079 C   0  0  0  0  0  0
  -24.8927  -27.6289   19.4822 C   0  0  0  0  0  0
  -23.6723  -29.7860   20.1514 C   0  0  0  0  0  0
  -25.4107  -36.3031   24.0327 C   0  0  1  0  0  0
  -20.5912  -28.3707   23.1225 C   0  0  2  0  0  0
  -20.6777  -26.9410   22.5391 C   0  0  0  0  0  0
  -19.5753  -26.6375   21.5191 C   0  0  0  0  0  0
  -18.1936  -26.7926   22.1607 C   0  0  0  0  0  0
  -19.1557  -28.8862   23.2836 C   0  0  0  0  0  0
  -18.9479  -30.1455   23.8866 C   0  0  0  0  0  0
  -17.6479  -30.6586   24.0547 C   0  0  0  0  0  0
  -25.9057  -34.9407   23.5073 C   0  0  0  0  0  0
  -16.5366  -29.9080   23.6336 C   0  0  0  0  0  0
  -16.7285  -28.6502   23.0349 C   0  0  0  0  0  0
  -26.4531  -31.6556   25.0705 C   0  0  0  0  0  0
  -25.3746  -31.3715   26.1427 C   0  0  0  0  0  0
  -27.0380  -30.2957   24.6251 C   0  0  0  0  0  0
  -27.6065  -32.4305   25.7489 C   0  0  0  0  0  0
  -27.5560  -37.1778   24.8464 C   0  0  0  0  0  0
  -21.4249  -29.3034   22.3600 N   0  0  0  0  0  0
  -26.4268  -37.3748   23.9419 N   0  0  0  0  0  0
  -24.7136  -31.0329   22.0891 N   0  0  0  0  0  0
  -23.4202  -28.8102   23.3008 O   0  0  0  0  0  0
  -28.3190  -26.2210   20.1703 O   0  0  0  0  0  0
  -26.5626  -34.8912   22.4639 O   0  0  0  0  0  0
  -23.5540  -32.1308   23.7126 O   0  0  0  0  0  0
  -29.7931  -19.8422   21.4055 C   0  0  0  0  0  0
  -30.0100  -18.4058   21.2149 C   0  0  0  0  0  0
  -28.8696  -20.0302   19.2682 C   0  0  0  0  0  0
  -29.0439  -18.6017   19.0805 C   0  0  0  0  0  0
  -29.2170  -20.7556   20.4400 C   0  0  0  0  0  0
  -29.6574  -17.6742   20.0269 C   0  0  0  0  0  0
  -28.4983  -18.1039   17.7582 C   0  0  0  0  0  0
  -28.3689  -16.5937   17.7110 C   0  0  0  0  0  0
  -28.9116  -24.3764   21.8299 C   0  0  0  0  0  0
  -28.9831  -22.8183   21.9756 C   0  0  0  0  0  0
  -28.6522  -23.3901   19.7109 C   0  0  0  0  0  0
  -28.1490  -24.7216   20.5344 C   0  0  2  0  0  0
  -29.6256  -15.9068   18.2504 C   0  0  1  0  0  0
  -30.8835  -16.2416   17.4080 C   0  0  0  0  0  0
  -29.8333  -16.1547   19.7032 N   0  0  0  0  0  0
  -28.9871  -22.2167   20.6394 N   0  0  0  0  0  0
  -31.4783  -12.8154   19.1226 H   0  0  0  0  0  0
  -30.5597  -11.7371   20.1391 H   0  0  0  0  0  0
  -29.8346  -11.3397   17.8729 H   0  0  0  0  0  0
  -29.6998  -12.9840   17.4488 H   0  0  0  0  0  0
  -27.9165  -11.2122   19.0702 H   0  0  0  0  0  0
  -27.4072  -12.3128   17.8270 H   0  0  0  0  0  0
  -27.5605  -14.1968   19.3121 H   0  0  0  0  0  0
  -28.8008  -12.4152   21.4681 H   0  0  0  0  0  0
  -28.3780  -14.1096   21.6447 H   0  0  0  0  0  0
  -25.2753   -9.5688   22.4799 H   0  0  0  0  0  0
  -24.0005   -7.4622   22.7458 H   0  0  0  0  0  0
  -21.0862   -8.8798   19.8939 H   0  0  0  0  0  0
  -22.3719  -10.9700   19.6200 H   0  0  0  0  0  0
  -21.2048   -7.6158   23.9732 H   0  0  0  0  0  0
  -21.1458   -6.0514   25.9069 H   0  0  0  0  0  0
  -22.0614   -2.7634   23.2813 H   0  0  0  0  0  0
  -22.4070  -11.9923   22.4848 H   0  0  0  0  0  0
  -21.1076  -13.1280   22.2560 H   0  0  0  0  0  0
  -24.6826  -15.8561   20.5649 H   0  0  0  0  0  0
  -26.2966  -15.6259   20.1205 H   0  0  0  0  0  0
  -26.7269  -32.5318   23.1009 H   0  0  0  0  0  0
  -25.0151  -33.9612   25.0398 H   0  0  0  0  0  0
  -22.7472  -31.2879   21.3751 H   0  0  0  0  0  0
  -23.3749  -35.9568   23.3276 H   0  0  0  0  0  0
  -24.3578  -36.8913   22.2068 H   0  0  0  0  0  0
  -23.7231  -37.6442   23.6693 H   0  0  0  0  0  0
  -26.1430  -31.4783   20.6019 H   0  0  0  0  0  0
  -26.8710  -30.7847   22.0172 H   0  0  0  0  0  0
  -28.1393  -28.8384   21.2252 H   0  0  0  0  0  0
  -25.9762  -25.8372   19.0138 H   0  0  0  0  0  0
  -24.0018  -27.2841   18.9751 H   0  0  0  0  0  0
  -23.8104  -30.5588   19.3948 H   0  0  0  0  0  0
  -22.7879  -29.2293   19.8371 H   0  0  0  0  0  0
  -25.1295  -36.1851   25.0821 H   0  0  0  0  0  0
  -21.0002  -28.3293   24.1346 H   0  0  0  0  0  0
  -20.5650  -26.2318   23.3609 H   0  0  0  0  0  0
  -21.6652  -26.7406   22.1209 H   0  0  0  0  0  0
  -19.6918  -25.6280   21.1235 H   0  0  0  0  0  0
  -19.6707  -27.3171   20.6709 H   0  0  0  0  0  0
  -17.4206  -26.6646   21.4012 H   0  0  0  0  0  0
  -18.0359  -26.0089   22.9029 H   0  0  0  0  0  0
  -19.7959  -30.7258   24.2242 H   0  0  0  0  0  0
  -17.5043  -31.6265   24.5149 H   0  0  0  0  0  0
  -15.5365  -30.2963   23.7695 H   0  0  0  0  0  0
  -15.8683  -28.0810   22.7084 H   0  0  0  0  0  0
  -24.5944  -30.7033   25.7775 H   0  0  0  0  0  0
  -24.8920  -32.2881   26.4827 H   0  0  0  0  0  0
  -25.8090  -30.8935   27.0218 H   0  0  0  0  0  0
  -26.2979  -29.6679   24.1284 H   0  0  0  0  0  0
  -27.4034  -29.7261   25.4803 H   0  0  0  0  0  0
  -27.8874  -30.4198   23.9530 H   0  0  0  0  0  0
  -27.2681  -33.3633   26.2005 H   0  0  0  0  0  0
  -28.3921  -32.6807   25.0348 H   0  0  0  0  0  0
  -28.0680  -31.8466   26.5462 H   0  0  0  0  0  0
  -28.2560  -38.0091   24.7524 H   0  0  0  0  0  0
  -28.1074  -36.2620   24.6264 H   0  0  0  0  0  0
  -27.2283  -37.1403   25.8871 H   0  0  0  0  0  0
  -20.9463  -29.8744   21.6768 H   0  0  0  0  0  0
  -26.0121  -38.2810   24.1445 H   0  0  0  0  0  0
  -30.1029  -20.2510   22.3559 H   0  0  0  0  0  0
  -30.4647  -17.8620   22.0294 H   0  0  0  0  0  0
  -28.4109  -20.5921   18.4671 H   0  0  0  0  0  0
  -29.1506  -18.4540   16.9560 H   0  0  0  0  0  0
  -27.5213  -18.5525   17.5755 H   0  0  0  0  0  0
  -28.1585  -16.2715   16.6902 H   0  0  0  0  0  0
  -27.5067  -16.2913   18.3058 H   0  0  0  0  0  0
  -29.9266  -24.7685   21.7497 H   0  0  0  0  0  0
  -28.4671  -24.8475   22.7071 H   0  0  0  0  0  0
  -28.1076  -22.4554   22.5178 H   0  0  0  0  0  0
  -29.8620  -22.5267   22.5509 H   0  0  0  0  0  0
  -29.5615  -23.6403   19.1637 H   0  0  0  0  0  0
  -27.9126  -23.0960   18.9659 H   0  0  0  0  0  0
  -27.0915  -24.5641   20.7466 H   0  0  0  0  0  0
  -29.3996  -14.8717   18.0689 H   0  0  0  0  0  0
  -31.2164  -17.2698   17.5551 H   0  0  0  0  0  0
  -30.6941  -16.1081   16.3420 H   0  0  0  0  0  0
  -31.7276  -15.5967   17.6557 H   0  0  0  0  0  0
  1 25  1  0  0  0
  1 30  2  0  0  0
  1 85  1  0  0  0
  2  3  1  0  0  0
  2 25  1  0  0  0
  2 87  1  0  0  0
  2 88  1  0  0  0
  3  4  1  0  0  0
  3 89  1  0  0  0
  3 90  1  0  0  0
  4  5  1  0  0  0
  4 91  1  0  0  0
  4 92  1  0  0  0
  5  6  1  0  0  0
  5 26  1  0  0  0
  5 93  1  0  0  0
  6 25  1  0  0  0
  6 94  1  0  0  0
  6 95  1  0  0  0
  7  8  2  0  0  0
  7 26  1  0  0  0
  7 29  1  0  0  0
  8  9  1  0  0  0
  8 22  1  0  0  0
  9 10  1  0  0  0
  9 27  2  0  0  0
 10 11  2  0  0  0
 10 15  1  0  0  0
 11 12  1  0  0  0
 11 96  1  0  0  0
 12 13  2  0  0  0
 12 97  1  0  0  0
 13 14  1  0  0  0
 13 31  1  0  0  0
 14 15  2  0  0  0
 14 98  1  0  0  0
 15 99  1  0  0  0
 16 17  2  0  0  0
 16 21  1  0  0  0
 16 31  1  0  0  0
 17 18  1  0  0  0
 17100  1  0  0  0
 18 19  2  0  0  0
 18101  1  0  0  0
 19 20  1  0  0  0
 19 24  1  0  0  0
 20 21  2  0  0  0
 20102  1  0  0  0
 21 23  1  0  0  0
 22 28  1  0  0  0
 22 32  2  0  0  0
 26 27  1  0  0  0
 28103  1  0  0  0
 28104  1  0  0  0
 29105  1  0  0  0
 29106  1  0  0  0
 33 34  1  0  0  0
 33 66  1  0  0  0
 33 70  2  0  0  0
 34 36  1  0  0  0
 34 59  1  0  0  0
 34107  1  0  0  0
 35 44  2  0  0  0
 35 45  1  0  0  0
 35 68  1  0  0  0
 36 56  1  0  0  0
 36108  1  0  0  0
 37 39  1  0  0  0
 37 47  1  0  0  0
 37 66  1  0  0  0
 37109  1  0  0  0
 38 43  2  0  0  0
 38 46  1  0  0  0
 38 47  1  0  0  0
 39 64  1  0  0  0
 39 67  2  0  0  0
 40 52  1  0  0  0
 40 53  2  0  0  0
 40 58  1  0  0  0
 41110  1  0  0  0
 41111  1  0  0  0
 41112  1  0  0  0
 41 48  1  0  0  0
 42 43  1  0  0  0
 42 66  1  0  0  0
 42113  1  0  0  0
 42114  1  0  0  0
 43 44  1  0  0  0
 44115  1  0  0  0
 45 46  2  0  0  0
 45116  1  0  0  0
 46117  1  0  0  0
 47118  1  0  0  0
 47119  1  0  0  0
 48 56  1  0  0  0
 48 65  1  0  0  0
 48120  1  0  0  0
 49 50  1  0  0  0
 49 53  1  0  0  0
 49 64  1  0  0  0
 49121  1  0  0  0
 50 51  1  0  0  0
 50122  1  0  0  0
 50123  1  0  0  0
 51 52  1  0  0  0
 51124  1  0  0  0
 51125  1  0  0  0
 52126  1  0  0  0
 52127  1  0  0  0
 53 54  1  0  0  0
 54 55  2  0  0  0
 54128  1  0  0  0
 55 57  1  0  0  0
 55129  1  0  0  0
 56 69  2  0  0  0
 57 58  2  0  0  0
 57130  1  0  0  0
 58131  1  0  0  0
 59 60  1  0  0  0
 59 61  1  0  0  0
 59 62  1  0  0  0
 60132  1  0  0  0
 60133  1  0  0  0
 60134  1  0  0  0
 61135  1  0  0  0
 61136  1  0  0  0
 61137  1  0  0  0
 62138  1  0  0  0
 62139  1  0  0  0
 62140  1  0  0  0
 63 65  1  0  0  0
 63141  1  0  0  0
 63142  1  0  0  0
 63143  1  0  0  0
 64144  1  0  0  0
 65145  1  0  0  0
 68 82  1  0  0  0
 71 72  2  0  0  0
 71 75  1  0  0  0
 71146  1  0  0  0
 72 76  1  0  0  0
 72147  1  0  0  0
 73 74  1  0  0  0
 73 75  2  0  0  0
 73148  1  0  0  0
 74 76  2  0  0  0
 74 77  1  0  0  0
 75 86  1  0  0  0
 76 85  1  0  0  0
 77 78  1  0  0  0
 77149  1  0  0  0
 77150  1  0  0  0
 78 83  1  0  0  0
 78151  1  0  0  0
 78152  1  0  0  0
 79 80  1  0  0  0
 79 82  1  0  0  0
 79153  1  0  0  0
 79154  1  0  0  0
 80 86  1  0  0  0
 80155  1  0  0  0
 80156  1  0  0  0
 81 82  1  0  0  0
 81 86  1  0  0  0
 81157  1  0  0  0
 81158  1  0  0  0
 82159  1  0  0  0
 83 84  1  0  0  0
 83 85  1  0  0  0
 83160  1  0  0  0
 84161  1  0  0  0
 84162  1  0  0  0
 84163  1  0  0  0
M  ISO  4   1 100  68 101  82 101  85 100
M  END
> <chiral flag>
0

> <version>
0

> <s_m_source_file>
/data/baiqing/PycharmProjects/Reinvent-master-3.2/result/LINK_invent/BTK/process_docking_weight1_custom_product_contain_oxygen_bond_distance_aromatic_linkinvent_7_9_3/rearranged_h_0027.sdf

> <i_m_source_file_index>
45

> <r_mmod_Potential_Energy-OPLS-2005>
830.328125

> <r_mmod_Stretch_Energy-OPLS-2005>
233.228469848633

> <r_mmod_Bend_Energy-OPLS-2005>
325.919555664062

> <r_mmod_Torsional_Energy-OPLS-2005>
371.290100097656

> <r_mmod_Improper_Torsional_Energy-OPLS-2005>
22.165096282959

> <r_mmod_Van_der_Waal_Energy-OPLS-2005>
139.616744995117

> <r_mmod_Electrostatic_Energy-OPLS-2005>
-280.563140869141

> <r_mmod_Solvation_Energy-OPLS-2005>
-211.793441772461

> <b_mmod_Minimization_Converged-OPLS-2005>
0

> <r_mmod_RMS_Derivative-OPLS-2005>
2.41554307937622

$$$$
46
                    3D
 Structure written by MMmdl.
159168  0  0  1  0            999 V2000
  -30.6558  -14.5173   20.5724 C   0  0  0  0  0  0
  -30.4360  -12.3317   19.4289 C   0  0  0  0  0  0
  -29.5045  -12.5248   18.2117 C   0  0  0  0  0  0
  -28.0231  -12.3771   18.6163 C   0  0  0  0  0  0
  -27.6650  -13.2053   19.8791 C   0  0  2  0  0  0
  -28.7040  -12.9740   20.9995 C   0  0  0  0  0  0
  -25.2594  -13.8153   20.5609 C   0  0  0  0  0  0
  -24.1843  -13.0443   20.9156 C   0  0  0  0  0  0
  -24.6391  -11.6907   20.8726 C   0  0  0  0  0  0
  -23.9053  -10.4297   21.0401 C   0  0  0  0  0  0
  -24.3608   -9.4212   21.9181 C   0  0  0  0  0  0
  -23.6286   -8.2241   22.0748 C   0  0  0  0  0  0
  -22.4272   -8.0281   21.3541 C   0  0  0  0  0  0
  -21.9902   -9.0253   20.4643 C   0  0  0  0  0  0
  -22.7223  -10.2133   20.3051 C   0  0  0  0  0  0
  -21.6850   -6.0743   22.5282 C   0  0  0  0  0  0
  -21.4002   -6.5647   23.8212 C   0  0  0  0  0  0
  -21.3658   -5.6796   24.9173 C   0  0  0  0  0  0
  -21.6044   -4.3056   24.7217 C   0  0  0  0  0  0
  -21.8821   -3.8150   23.4338 C   0  0  0  0  0  0
  -21.9186   -4.6968   22.3402 C   0  0  0  0  0  0
  -22.7874  -13.5248   21.1830 C   0  0  0  0  0  0
  -22.1662   -4.2145   21.0990 F   0  0  0  0  0  0
  -21.5626   -3.4532   25.7723 F   0  0  0  0  0  0
  -30.0359  -13.3060   20.4588 N   0  0  0  0  0  0
  -26.3035  -12.9313   20.3350 N   0  0  0  0  0  0
  -25.9319  -11.6477   20.5759 N   0  0  0  0  0  0
  -22.0510  -12.8238   22.0381 N   0  0  0  0  0  0
  -25.4332  -15.1856   20.3923 N   0  0  0  0  0  0
  -31.7721  -14.7376   20.0914 O   0  0  0  0  0  0
  -21.6632   -6.8885   21.4246 O   0  0  0  0  0  0
  -22.3569  -14.5571   20.6706 O   0  0  0  0  0  0
  -24.6209  -31.8643   23.2070 C   0  0  0  0  0  0
  -25.9085  -32.4795   23.8398 C   0  0  1  0  0  0
  -27.2357  -27.3871   20.0921 C   0  0  0  0  0  0
  -25.5941  -33.8595   24.2337 N   0  0  0  0  0  0
  -23.4111  -30.4885   21.5471 C   0  0  2  0  0  0
  -24.8561  -28.9497   20.1137 C   0  0  0  0  0  0
  -22.7455  -29.4632   22.4951 C   0  0  0  0  0  0
  -18.0278  -28.1374   22.8469 C   0  0  0  0  0  0
  -24.1481  -36.7296   23.2633 C   0  0  0  0  0  0
  -25.9454  -30.8168   21.3641 C   0  0  0  0  0  0
  -26.0197  -29.4473   20.7108 C   0  0  0  0  0  0
  -27.2078  -28.6724   20.6982 C   0  0  0  0  0  0
  -26.0385  -26.9123   19.5031 C   0  0  0  0  0  0
  -24.8621  -27.6839   19.5091 C   0  0  0  0  0  0
  -23.6231  -29.8239   20.1609 C   0  0  0  0  0  0
  -25.4093  -36.3091   24.0339 C   0  0  1  0  0  0
  -20.5873  -28.3656   23.1308 C   0  0  2  0  0  0
  -20.6762  -26.9388   22.5414 C   0  0  0  0  0  0
  -19.5750  -26.6375   21.5206 C   0  0  0  0  0  0
  -18.1923  -26.7924   22.1594 C   0  0  0  0  0  0
  -19.1527  -28.8831   23.2882 C   0  0  0  0  0  0
  -18.9449  -30.1430   23.8900 C   0  0  0  0  0  0
  -17.6456  -30.6579   24.0546 C   0  0  0  0  0  0
  -25.9038  -34.9458   23.5130 C   0  0  0  0  0  0
  -16.5345  -29.9074   23.6321 C   0  0  0  0  0  0
  -16.7270  -28.6494   23.0330 C   0  0  0  0  0  0
  -26.4501  -31.6568   25.0732 C   0  0  0  0  0  0
  -25.3801  -31.3710   26.1536 C   0  0  0  0  0  0
  -27.0238  -30.2970   24.6105 C   0  0  0  0  0  0
  -27.6146  -32.4217   25.7463 C   0  0  0  0  0  0
  -27.5592  -37.1783   24.8446 C   0  0  0  0  0  0
  -21.4169  -29.3017   22.3717 N   0  0  0  0  0  0
  -26.4261  -37.3799   23.9451 N   0  0  0  0  0  0
  -24.6781  -31.0713   22.0979 N   0  0  0  0  0  0
  -23.4210  -28.8179   23.3007 O   0  0  0  0  0  0
  -28.4082  -26.6379   20.1447 O   0  0  0  0  0  0
  -26.5568  -34.8916   22.4673 O   0  0  0  0  0  0
  -23.5381  -32.1423   23.7415 O   0  0  0  0  0  0
  -30.6651  -19.0904   20.2184 C   0  0  0  0  0  0
  -30.8457  -17.6931   20.3972 C   0  0  0  0  0  0
  -28.6314  -17.5508   21.3390 C   0  0  0  0  0  0
  -29.4600  -19.7620   20.5758 C   0  0  0  0  0  0
  -29.8238  -16.8942   20.9617 C   0  0  0  0  0  0
  -28.4396  -18.9415   21.1392 C   0  0  0  0  0  0
  -28.1071  -23.3637   20.8088 C   0  0  0  0  0  0
  -29.7577  -23.2087   18.9595 C   0  0  0  0  0  0
  -28.6679  -22.0227   21.3795 C   0  0  0  0  0  0
  -30.2887  -21.8806   19.5469 C   0  0  0  0  0  0
  -29.1566  -24.1761   20.0081 C   0  0  0  0  0  0
  -28.6158  -25.4726   19.3054 C   0  0  0  0  0  0
  -29.2780  -21.1696   20.3399 N   0  0  0  0  0  0
  -29.9098  -15.4709   21.1805 N   0  0  0  0  0  0
  -27.2316  -19.4596   21.4690 F   0  0  0  0  0  0
  -31.4790  -12.4501   19.1287 H   0  0  0  0  0  0
  -30.3520  -11.3158   19.8177 H   0  0  0  0  0  0
  -29.7501  -11.8076   17.4282 H   0  0  0  0  0  0
  -29.6673  -13.5142   17.7802 H   0  0  0  0  0  0
  -27.8330  -11.3205   18.8012 H   0  0  0  0  0  0
  -27.3755  -12.6597   17.7847 H   0  0  0  0  0  0
  -27.7124  -14.2568   19.5936 H   0  0  0  0  0  0
  -28.6864  -11.9302   21.3166 H   0  0  0  0  0  0
  -28.4490  -13.5484   21.8911 H   0  0  0  0  0  0
  -25.2756   -9.5672   22.4756 H   0  0  0  0  0  0
  -23.9996   -7.4627   22.7460 H   0  0  0  0  0  0
  -21.0832   -8.8767   19.8959 H   0  0  0  0  0  0
  -22.3690  -10.9666   19.6150 H   0  0  0  0  0  0
  -21.1999   -7.6152   23.9716 H   0  0  0  0  0  0
  -21.1479   -6.0524   25.9079 H   0  0  0  0  0  0
  -22.0600   -2.7614   23.2834 H   0  0  0  0  0  0
  -22.4110  -11.9864   22.4714 H   0  0  0  0  0  0
  -21.1154  -13.1299   22.2650 H   0  0  0  0  0  0
  -24.6528  -15.8317   20.4355 H   0  0  0  0  0  0
  -26.2700  -15.6026   20.0058 H   0  0  0  0  0  0
  -26.7148  -32.5506   23.1156 H   0  0  0  0  0  0
  -25.0142  -33.9749   25.0518 H   0  0  0  0  0  0
  -22.7029  -31.3073   21.4047 H   0  0  0  0  0  0
  -23.3776  -35.9591   23.3193 H   0  0  0  0  0  0
  -24.3637  -36.9007   22.2076 H   0  0  0  0  0  0
  -23.7159  -37.6445   23.6699 H   0  0  0  0  0  0
  -26.0606  -31.5789   20.5907 H   0  0  0  0  0  0
  -26.8336  -30.8725   21.9825 H   0  0  0  0  0  0
  -28.1055  -29.0527   21.1655 H   0  0  0  0  0  0
  -25.9561  -25.9343   19.0577 H   0  0  0  0  0  0
  -23.9619  -27.2900   19.0567 H   0  0  0  0  0  0
  -23.7481  -30.6009   19.4052 H   0  0  0  0  0  0
  -22.7440  -29.2528   19.8564 H   0  0  0  0  0  0
  -25.1242  -36.1944   25.0829 H   0  0  0  0  0  0
  -20.9947  -28.3203   24.1430 H   0  0  0  0  0  0
  -20.5626  -26.2265   23.3596 H   0  0  0  0  0  0
  -21.6641  -26.7415   22.1241 H   0  0  0  0  0  0
  -19.6912  -25.6288   21.1217 H   0  0  0  0  0  0
  -19.6700  -27.3193   20.6741 H   0  0  0  0  0  0
  -17.4205  -26.6666   21.3985 H   0  0  0  0  0  0
  -18.0307  -26.0071   22.8991 H   0  0  0  0  0  0
  -19.7934  -30.7219   24.2284 H   0  0  0  0  0  0
  -17.5022  -31.6268   24.5127 H   0  0  0  0  0  0
  -15.5342  -30.2959   23.7666 H   0  0  0  0  0  0
  -15.8673  -28.0822   22.7015 H   0  0  0  0  0  0
  -24.5904  -30.7126   25.7913 H   0  0  0  0  0  0
  -24.9092  -32.2873   26.5093 H   0  0  0  0  0  0
  -25.8205  -30.8813   27.0235 H   0  0  0  0  0  0
  -26.2723  -29.6773   24.1198 H   0  0  0  0  0  0
  -27.3991  -29.7180   25.4552 H   0  0  0  0  0  0
  -27.8599  -30.4209   23.9220 H   0  0  0  0  0  0
  -27.2897  -33.3583   26.1999 H   0  0  0  0  0  0
  -28.4006  -32.6633   25.0296 H   0  0  0  0  0  0
  -28.0747  -31.8317   26.5404 H   0  0  0  0  0  0
  -28.2536  -38.0149   24.7591 H   0  0  0  0  0  0
  -28.1145  -36.2687   24.6114 H   0  0  0  0  0  0
  -27.2363  -37.1248   25.8856 H   0  0  0  0  0  0
  -20.9329  -29.8762   21.6967 H   0  0  0  0  0  0
  -26.0133  -38.2860   24.1519 H   0  0  0  0  0  0
  -31.4950  -19.6314   19.7925 H   0  0  0  0  0  0
  -31.7843  -17.2548   20.0927 H   0  0  0  0  0  0
  -27.8196  -16.9842   21.7721 H   0  0  0  0  0  0
  -27.7234  -23.9767   21.6262 H   0  0  0  0  0  0
  -27.2484  -23.1501   20.1693 H   0  0  0  0  0  0
  -29.0067  -22.9819   18.1996 H   0  0  0  0  0  0
  -30.5734  -23.7067   18.4315 H   0  0  0  0  0  0
  -27.8680  -21.5204   21.9188 H   0  0  0  0  0  0
  -29.4317  -22.2389   22.1285 H   0  0  0  0  0  0
  -31.1679  -22.0697   20.1665 H   0  0  0  0  0  0
  -30.6113  -21.2627   18.7087 H   0  0  0  0  0  0
  -29.9564  -24.4689   20.6898 H   0  0  0  0  0  0
  -27.7865  -25.2078   18.6564 H   0  0  0  0  0  0
  -29.3857  -25.8016   18.6066 H   0  0  0  0  0  0
  -29.1088  -15.0724   21.6456 H   0  0  0  0  0  0
  1 25  1  0  0  0
  1 30  2  0  0  0
  1 84  1  0  0  0
  2  3  1  0  0  0
  2 25  1  0  0  0
  2 86  1  0  0  0
  2 87  1  0  0  0
  3  4  1  0  0  0
  3 88  1  0  0  0
  3 89  1  0  0  0
  4  5  1  0  0  0
  4 90  1  0  0  0
  4 91  1  0  0  0
  5  6  1  0  0  0
  5 26  1  0  0  0
  5 92  1  0  0  0
  6 25  1  0  0  0
  6 93  1  0  0  0
  6 94  1  0  0  0
  7  8  2  0  0  0
  7 26  1  0  0  0
  7 29  1  0  0  0
  8  9  1  0  0  0
  8 22  1  0  0  0
  9 10  1  0  0  0
  9 27  2  0  0  0
 10 11  2  0  0  0
 10 15  1  0  0  0
 11 12  1  0  0  0
 11 95  1  0  0  0
 12 13  2  0  0  0
 12 96  1  0  0  0
 13 14  1  0  0  0
 13 31  1  0  0  0
 14 15  2  0  0  0
 14 97  1  0  0  0
 15 98  1  0  0  0
 16 17  2  0  0  0
 16 21  1  0  0  0
 16 31  1  0  0  0
 17 18  1  0  0  0
 17 99  1  0  0  0
 18 19  2  0  0  0
 18100  1  0  0  0
 19 20  1  0  0  0
 19 24  1  0  0  0
 20 21  2  0  0  0
 20101  1  0  0  0
 21 23  1  0  0  0
 22 28  1  0  0  0
 22 32  2  0  0  0
 26 27  1  0  0  0
 28102  1  0  0  0
 28103  1  0  0  0
 29104  1  0  0  0
 29105  1  0  0  0
 33 34  1  0  0  0
 33 66  1  0  0  0
 33 70  2  0  0  0
 34 36  1  0  0  0
 34 59  1  0  0  0
 34106  1  0  0  0
 35 44  2  0  0  0
 35 45  1  0  0  0
 35 68  1  0  0  0
 36 56  1  0  0  0
 36107  1  0  0  0
 37 39  1  0  0  0
 37 47  1  0  0  0
 37 66  1  0  0  0
 37108  1  0  0  0
 38 43  2  0  0  0
 38 46  1  0  0  0
 38 47  1  0  0  0
 39 64  1  0  0  0
 39 67  2  0  0  0
 40 52  1  0  0  0
 40 53  2  0  0  0
 40 58  1  0  0  0
 41109  1  0  0  0
 41110  1  0  0  0
 41111  1  0  0  0
 41 48  1  0  0  0
 42 43  1  0  0  0
 42 66  1  0  0  0
 42112  1  0  0  0
 42113  1  0  0  0
 43 44  1  0  0  0
 44114  1  0  0  0
 45 46  2  0  0  0
 45115  1  0  0  0
 46116  1  0  0  0
 47117  1  0  0  0
 47118  1  0  0  0
 48 56  1  0  0  0
 48 65  1  0  0  0
 48119  1  0  0  0
 49 50  1  0  0  0
 49 53  1  0  0  0
 49 64  1  0  0  0
 49120  1  0  0  0
 50 51  1  0  0  0
 50121  1  0  0  0
 50122  1  0  0  0
 51 52  1  0  0  0
 51123  1  0  0  0
 51124  1  0  0  0
 52125  1  0  0  0
 52126  1  0  0  0
 53 54  1  0  0  0
 54 55  2  0  0  0
 54127  1  0  0  0
 55 57  1  0  0  0
 55128  1  0  0  0
 56 69  2  0  0  0
 57 58  2  0  0  0
 57129  1  0  0  0
 58130  1  0  0  0
 59 60  1  0  0  0
 59 61  1  0  0  0
 59 62  1  0  0  0
 60131  1  0  0  0
 60132  1  0  0  0
 60133  1  0  0  0
 61134  1  0  0  0
 61135  1  0  0  0
 61136  1  0  0  0
 62137  1  0  0  0
 62138  1  0  0  0
 62139  1  0  0  0
 63 65  1  0  0  0
 63140  1  0  0  0
 63141  1  0  0  0
 63142  1  0  0  0
 64143  1  0  0  0
 65144  1  0  0  0
 68 82  1  0  0  0
 71 72  2  0  0  0
 71 74  1  0  0  0
 71145  1  0  0  0
 72 75  1  0  0  0
 72146  1  0  0  0
 73 75  2  0  0  0
 73 76  1  0  0  0
 73147  1  0  0  0
 74 76  2  0  0  0
 74 83  1  0  0  0
 75 84  1  0  0  0
 76 85  1  0  0  0
 77 79  1  0  0  0
 77 81  1  0  0  0
 77148  1  0  0  0
 77149  1  0  0  0
 78 80  1  0  0  0
 78 81  1  0  0  0
 78150  1  0  0  0
 78151  1  0  0  0
 79 83  1  0  0  0
 79152  1  0  0  0
 79153  1  0  0  0
 80 83  1  0  0  0
 80154  1  0  0  0
 80155  1  0  0  0
 81 82  1  0  0  0
 81156  1  0  0  0
 82157  1  0  0  0
 82158  1  0  0  0
 84159  1  0  0  0
M  ISO  4   1 100  68 101  82 101  84 100
M  END
> <chiral flag>
0

> <version>
0

> <s_m_source_file>
/data/baiqing/PycharmProjects/Reinvent-master-3.2/result/LINK_invent/BTK/process_docking_weight1_custom_product_contain_oxygen_bond_distance_aromatic_linkinvent_7_9_3/rearranged_h_0027.sdf

> <i_m_source_file_index>
46

> <r_mmod_Potential_Energy-OPLS-2005>
53.8237152099609

> <r_mmod_Stretch_Energy-OPLS-2005>
54.1148681640625

> <r_mmod_Bend_Energy-OPLS-2005>
137.875045776367

> <r_mmod_Torsional_Energy-OPLS-2005>
238.099853515625

> <r_mmod_Improper_Torsional_Energy-OPLS-2005>
6.99694108963013

> <r_mmod_Van_der_Waal_Energy-OPLS-2005>
163.571670532227

> <r_mmod_Electrostatic_Energy-OPLS-2005>
-350.710113525391

> <r_mmod_Solvation_Energy-OPLS-2005>
-216.051727294922

> <b_mmod_Minimization_Converged-OPLS-2005>
0

> <r_mmod_RMS_Derivative-OPLS-2005>
2.22231531143188

$$$$
47
                    3D
 Structure written by MMmdl.
153161  0  0  1  0            999 V2000
  -30.3977  -15.3035   20.4490 C   0  0  0  0  0  0
  -30.4483  -12.8463   19.5357 C   0  0  0  0  0  0
  -29.5469  -12.6046   18.2935 C   0  0  0  0  0  0
  -28.0918  -12.3102   18.7032 C   0  0  0  0  0  0
  -27.6134  -13.2663   19.8200 C   0  0  2  0  0  0
  -28.6383  -13.3866   20.9601 C   0  0  0  0  0  0
  -25.2409  -13.8216   20.5707 C   0  0  0  0  0  0
  -24.1742  -13.0422   20.9220 C   0  0  0  0  0  0
  -24.6385  -11.6917   20.8721 C   0  0  0  0  0  0
  -23.9075  -10.4286   21.0386 C   0  0  0  0  0  0
  -24.3627   -9.4208   21.9173 C   0  0  0  0  0  0
  -23.6289   -8.2246   22.0753 C   0  0  0  0  0  0
  -22.4269   -8.0282   21.3543 C   0  0  0  0  0  0
  -21.9909   -9.0256   20.4646 C   0  0  0  0  0  0
  -22.7241  -10.2131   20.3043 C   0  0  0  0  0  0
  -21.6854   -6.0732   22.5284 C   0  0  0  0  0  0
  -21.4014   -6.5633   23.8217 C   0  0  0  0  0  0
  -21.3660   -5.6787   24.9178 C   0  0  0  0  0  0
  -21.6041   -4.3052   24.7224 C   0  0  0  0  0  0
  -21.8817   -3.8145   23.4345 C   0  0  0  0  0  0
  -21.9188   -4.6961   22.3403 C   0  0  0  0  0  0
  -22.7767  -13.5194   21.1896 C   0  0  0  0  0  0
  -22.1656   -4.2146   21.0978 F   0  0  0  0  0  0
  -21.5632   -3.4536   25.7736 F   0  0  0  0  0  0
  -29.8710  -13.9667   20.3778 N   0  0  0  0  0  0
  -26.2800  -12.9464   20.3122 N   0  0  0  0  0  0
  -25.9308  -11.6587   20.5641 N   0  0  0  0  0  0
  -22.0424  -12.8182   22.0461 N   0  0  0  0  0  0
  -25.4093  -15.1955   20.4224 N   0  0  0  0  0  0
  -31.5801  -15.3546   20.0718 O   0  0  0  0  0  0
  -21.6636   -6.8878   21.4245 O   0  0  0  0  0  0
  -22.3453  -14.5498   20.6745 O   0  0  0  0  0  0
  -24.6657  -31.8216   23.1671 C   0  0  0  0  0  0
  -25.9323  -32.4575   23.8158 C   0  0  1  0  0  0
  -27.2203  -26.9020   20.1885 C   0  0  0  0  0  0
  -25.5986  -33.8392   24.2069 N   0  0  0  0  0  0
  -23.4818  -30.4312   21.5176 C   0  0  2  0  0  0
  -24.9355  -28.8105   20.1167 C   0  0  0  0  0  0
  -22.7675  -29.4434   22.4768 C   0  0  0  0  0  0
  -18.0327  -28.1411   22.8466 C   0  0  0  0  0  0
  -24.1495  -36.7203   23.2649 C   0  0  0  0  0  0
  -26.0524  -30.6187   21.4014 C   0  0  0  0  0  0
  -26.1215  -29.2044   20.7498 C   0  0  0  0  0  0
  -27.2593  -28.2727   20.7578 C   0  0  0  0  0  0
  -26.0033  -26.6674   19.5100 C   0  0  0  0  0  0
  -24.9025  -27.5620   19.4776 C   0  0  0  0  0  0
  -23.7241  -29.7428   20.1464 C   0  0  0  0  0  0
  -25.4135  -36.2962   24.0302 C   0  0  1  0  0  0
  -20.5956  -28.3758   23.1175 C   0  0  2  0  0  0
  -20.6795  -26.9434   22.5394 C   0  0  0  0  0  0
  -19.5770  -26.6380   21.5206 C   0  0  0  0  0  0
  -18.1959  -26.7945   22.1622 C   0  0  0  0  0  0
  -19.1590  -28.8905   23.2810 C   0  0  0  0  0  0
  -18.9498  -30.1496   23.8847 C   0  0  0  0  0  0
  -17.6488  -30.6600   24.0553 C   0  0  0  0  0  0
  -25.9096  -34.9342   23.5003 C   0  0  0  0  0  0
  -16.5381  -29.9086   23.6339 C   0  0  0  0  0  0
  -16.7305  -28.6505   23.0362 C   0  0  0  0  0  0
  -26.4562  -31.6525   25.0693 C   0  0  0  0  0  0
  -25.3679  -31.3789   26.1343 C   0  0  0  0  0  0
  -27.0459  -30.2888   24.6438 C   0  0  0  0  0  0
  -27.6052  -32.4335   25.7496 C   0  0  0  0  0  0
  -27.5567  -37.1761   24.8468 C   0  0  0  0  0  0
  -21.4341  -29.3049   22.3519 N   0  0  0  0  0  0
  -26.4281  -37.3694   23.9400 N   0  0  0  0  0  0
  -24.7550  -30.9856   22.0820 N   0  0  0  0  0  0
  -23.4214  -28.8000   23.3010 O   0  0  0  0  0  0
  -28.2225  -25.7864   20.2237 O   0  0  0  0  0  0
  -26.5708  -34.8875   22.4603 O   0  0  0  0  0  0
  -23.5718  -32.1199   23.6744 O   0  0  0  0  0  0
  -28.9075  -22.7360   20.0788 C   0  0  0  0  0  0
  -30.1487  -18.5601   22.2421 C   0  0  0  0  0  0
  -29.2097  -16.2987   22.2435 C   0  0  0  0  0  0
  -29.8563  -17.3699   23.1329 C   0  0  2  0  0  0
  -29.4426  -18.2335   20.9341 C   0  0  1  0  0  0
  -27.9103  -24.1569   20.3353 C   0  0  0  0  0  0
  -29.4339  -19.7662   19.9936 C   0  0  0  0  0  0
  -29.6111  -16.5271   20.8325 N   0  0  0  0  0  0
  -30.0580  -23.0424   19.4695 N   0  0  0  0  0  0
  -28.7282  -21.2706   20.3594 N   0  3  0  0  0  0
  -29.0125  -17.7069   24.1084 F   0  0  0  0  0  0
  -31.4607  -13.0780   19.2020 H   0  0  0  0  0  0
  -30.5496  -11.9312   20.1219 H   0  0  0  0  0  0
  -29.9414  -11.7855   17.6905 H   0  0  0  0  0  0
  -29.5725  -13.4914   17.6579 H   0  0  0  0  0  0
  -28.0489  -11.2804   19.0607 H   0  0  0  0  0  0
  -27.4294  -12.3643   17.8385 H   0  0  0  0  0  0
  -27.5425  -14.2475   19.3494 H   0  0  0  0  0  0
  -28.8239  -12.4181   21.4270 H   0  0  0  0  0  0
  -28.2033  -14.0009   21.7417 H   0  0  0  0  0  0
  -25.2777   -9.5677   22.4740 H   0  0  0  0  0  0
  -23.9996   -7.4634   22.7472 H   0  0  0  0  0  0
  -21.0837   -8.8763   19.8956 H   0  0  0  0  0  0
  -22.3692  -10.9657   19.6144 H   0  0  0  0  0  0
  -21.2010   -7.6144   23.9717 H   0  0  0  0  0  0
  -21.1485   -6.0519   25.9078 H   0  0  0  0  0  0
  -22.0596   -2.7602   23.2845 H   0  0  0  0  0  0
  -22.4056  -11.9852   22.4851 H   0  0  0  0  0  0
  -21.1037  -13.1202   22.2673 H   0  0  0  0  0  0
  -24.6478  -15.8519   20.5538 H   0  0  0  0  0  0
  -26.2643  -15.6380   20.1117 H   0  0  0  0  0  0
  -26.7391  -32.5105   23.0875 H   0  0  0  0  0  0
  -25.0084  -33.9459   25.0187 H   0  0  0  0  0  0
  -22.7975  -31.2630   21.3420 H   0  0  0  0  0  0
  -23.3758  -35.9527   23.3286 H   0  0  0  0  0  0
  -24.3569  -36.8871   22.2064 H   0  0  0  0  0  0
  -23.7243  -37.6384   23.6718 H   0  0  0  0  0  0
  -26.2318  -31.3533   20.6160 H   0  0  0  0  0  0
  -26.9133  -30.6828   22.0546 H   0  0  0  0  0  0
  -28.1577  -28.5750   21.2766 H   0  0  0  0  0  0
  -25.8676  -25.7209   19.0083 H   0  0  0  0  0  0
  -24.0028  -27.2514   18.9648 H   0  0  0  0  0  0
  -23.8824  -30.5074   19.3849 H   0  0  0  0  0  0
  -22.8335  -29.1978   19.8287 H   0  0  0  0  0  0
  -25.1326  -36.1759   25.0791 H   0  0  0  0  0  0
  -21.0048  -28.3368   24.1296 H   0  0  0  0  0  0
  -20.5666  -26.2375   23.3639 H   0  0  0  0  0  0
  -21.6659  -26.7392   22.1211 H   0  0  0  0  0  0
  -19.6924  -25.6276   21.1275 H   0  0  0  0  0  0
  -19.6718  -27.3151   20.6710 H   0  0  0  0  0  0
  -17.4221  -26.6682   21.4035 H   0  0  0  0  0  0
  -18.0361  -26.0107   22.9038 H   0  0  0  0  0  0
  -19.7975  -30.7328   24.2199 H   0  0  0  0  0  0
  -17.5039  -31.6274   24.5168 H   0  0  0  0  0  0
  -15.5381  -30.2971   23.7691 H   0  0  0  0  0  0
  -15.8709  -28.0804   22.7107 H   0  0  0  0  0  0
  -24.5888  -30.7106   25.7657 H   0  0  0  0  0  0
  -24.8834  -32.2990   26.4622 H   0  0  0  0  0  0
  -25.7904  -30.9064   27.0218 H   0  0  0  0  0  0
  -26.3131  -29.6562   24.1418 H   0  0  0  0  0  0
  -27.3954  -29.7260   25.5105 H   0  0  0  0  0  0
  -27.9084  -30.4067   23.9876 H   0  0  0  0  0  0
  -27.2632  -33.3693   26.1928 H   0  0  0  0  0  0
  -28.3940  -32.6804   25.0376 H   0  0  0  0  0  0
  -28.0632  -31.8556   26.5534 H   0  0  0  0  0  0
  -28.2569  -38.0068   24.7496 H   0  0  0  0  0  0
  -28.1083  -36.2594   24.6325 H   0  0  0  0  0  0
  -27.2284  -37.1426   25.8872 H   0  0  0  0  0  0
  -20.9598  -29.8757   21.6662 H   0  0  0  0  0  0
  -26.0133  -38.2752   24.1407 H   0  0  0  0  0  0
  -31.2221  -18.6558   22.0702 H   0  0  0  0  0  0
  -29.7972  -19.4948   22.6825 H   0  0  0  0  0  0
  -28.1206  -16.3466   22.3058 H   0  0  0  0  0  0
  -29.4981  -15.3454   22.6897 H   0  0  0  0  0  0
  -30.7730  -17.0078   23.6032 H   0  0  0  0  0  0
  -28.3734  -18.2640   21.1602 H   0  0  0  0  0  0
  -27.0548  -23.9901   19.6823 H   0  0  0  0  0  0
  -27.4984  -24.0330   21.3370 H   0  0  0  0  0  0
  -28.9860  -19.5081   19.0342 H   0  0  0  0  0  0
  -30.4727  -19.9824   19.7449 H   0  0  0  0  0  0
  -30.7625  -22.3537   19.2649 H   0  0  0  0  0  0
  -30.2466  -24.0033   19.2232 H   0  0  0  0  0  0
  -27.8397  -21.1184   20.8177 H   0  0  0  0  0  0
  1 25  1  0  0  0
  1 30  2  0  0  0
  1 78  1  0  0  0
  2  3  1  0  0  0
  2 25  1  0  0  0
  2 82  1  0  0  0
  2 83  1  0  0  0
  3  4  1  0  0  0
  3 84  1  0  0  0
  3 85  1  0  0  0
  4  5  1  0  0  0
  4 86  1  0  0  0
  4 87  1  0  0  0
  5  6  1  0  0  0
  5 26  1  0  0  0
  5 88  1  0  0  0
  6 25  1  0  0  0
  6 89  1  0  0  0
  6 90  1  0  0  0
  7  8  2  0  0  0
  7 26  1  0  0  0
  7 29  1  0  0  0
  8  9  1  0  0  0
  8 22  1  0  0  0
  9 10  1  0  0  0
  9 27  2  0  0  0
 10 11  2  0  0  0
 10 15  1  0  0  0
 11 12  1  0  0  0
 11 91  1  0  0  0
 12 13  2  0  0  0
 12 92  1  0  0  0
 13 14  1  0  0  0
 13 31  1  0  0  0
 14 15  2  0  0  0
 14 93  1  0  0  0
 15 94  1  0  0  0
 16 17  2  0  0  0
 16 21  1  0  0  0
 16 31  1  0  0  0
 17 18  1  0  0  0
 17 95  1  0  0  0
 18 19  2  0  0  0
 18 96  1  0  0  0
 19 20  1  0  0  0
 19 24  1  0  0  0
 20 21  2  0  0  0
 20 97  1  0  0  0
 21 23  1  0  0  0
 22 28  1  0  0  0
 22 32  2  0  0  0
 26 27  1  0  0  0
 28 98  1  0  0  0
 28 99  1  0  0  0
 29100  1  0  0  0
 29101  1  0  0  0
 33 34  1  0  0  0
 33 66  1  0  0  0
 33 70  2  0  0  0
 34 36  1  0  0  0
 34 59  1  0  0  0
 34102  1  0  0  0
 35 44  2  0  0  0
 35 45  1  0  0  0
 35 68  1  0  0  0
 36 56  1  0  0  0
 36103  1  0  0  0
 37 39  1  0  0  0
 37 47  1  0  0  0
 37 66  1  0  0  0
 37104  1  0  0  0
 38 43  2  0  0  0
 38 46  1  0  0  0
 38 47  1  0  0  0
 39 64  1  0  0  0
 39 67  2  0  0  0
 40 52  1  0  0  0
 40 53  2  0  0  0
 40 58  1  0  0  0
 41105  1  0  0  0
 41106  1  0  0  0
 41107  1  0  0  0
 41 48  1  0  0  0
 42 43  1  0  0  0
 42 66  1  0  0  0
 42108  1  0  0  0
 42109  1  0  0  0
 43 44  1  0  0  0
 44110  1  0  0  0
 45 46  2  0  0  0
 45111  1  0  0  0
 46112  1  0  0  0
 47113  1  0  0  0
 47114  1  0  0  0
 48 56  1  0  0  0
 48 65  1  0  0  0
 48115  1  0  0  0
 49 50  1  0  0  0
 49 53  1  0  0  0
 49 64  1  0  0  0
 49116  1  0  0  0
 50 51  1  0  0  0
 50117  1  0  0  0
 50118  1  0  0  0
 51 52  1  0  0  0
 51119  1  0  0  0
 51120  1  0  0  0
 52121  1  0  0  0
 52122  1  0  0  0
 53 54  1  0  0  0
 54 55  2  0  0  0
 54123  1  0  0  0
 55 57  1  0  0  0
 55124  1  0  0  0
 56 69  2  0  0  0
 57 58  2  0  0  0
 57125  1  0  0  0
 58126  1  0  0  0
 59 60  1  0  0  0
 59 61  1  0  0  0
 59 62  1  0  0  0
 60127  1  0  0  0
 60128  1  0  0  0
 60129  1  0  0  0
 61130  1  0  0  0
 61131  1  0  0  0
 61132  1  0  0  0
 62133  1  0  0  0
 62134  1  0  0  0
 62135  1  0  0  0
 63 65  1  0  0  0
 63136  1  0  0  0
 63137  1  0  0  0
 63138  1  0  0  0
 64139  1  0  0  0
 65140  1  0  0  0
 68 76  1  0  0  0
 71 76  1  0  0  0
 71 79  1  0  0  0
 71 80  2  0  0  0
 72 74  1  0  0  0
 72 75  1  0  0  0
 72141  1  0  0  0
 72142  1  0  0  0
 73 74  1  0  0  0
 73 78  1  0  0  0
 73143  1  0  0  0
 73144  1  0  0  0
 74 81  1  0  0  0
 74145  1  0  0  0
 75 77  1  0  0  0
 75 78  1  0  0  0
 75146  1  0  0  0
 76147  1  0  0  0
 76148  1  0  0  0
 77 80  1  0  0  0
 77149  1  0  0  0
 77150  1  0  0  0
 79151  1  0  0  0
 79152  1  0  0  0
 80153  1  0  0  0
M  CHG  1  80   1
M  ISO  4   1 100  68 101  76 101  78 100
M  END
> <chiral flag>
0

> <version>
0

> <s_m_source_file>
/data/baiqing/PycharmProjects/Reinvent-master-3.2/result/LINK_invent/BTK/process_docking_weight1_custom_product_contain_oxygen_bond_distance_aromatic_linkinvent_7_9_3/rearranged_h_0027.sdf

> <i_m_source_file_index>
47

> <r_mmod_Potential_Energy-OPLS-2005>
1481.72802734375

> <r_mmod_Stretch_Energy-OPLS-2005>
674.430480957031

> <r_mmod_Bend_Energy-OPLS-2005>
586.207458496094

> <r_mmod_Torsional_Energy-OPLS-2005>
326.471527099609

> <r_mmod_Improper_Torsional_Energy-OPLS-2005>
7.14366006851196

> <r_mmod_Van_der_Waal_Energy-OPLS-2005>
123.487335205078

> <r_mmod_Electrostatic_Energy-OPLS-2005>
-266.638916015625

> <r_mmod_Solvation_Energy-OPLS-2005>
-460.529357910156

> <b_mmod_Minimization_Converged-OPLS-2005>
0

> <r_mmod_RMS_Derivative-OPLS-2005>
1.53600883483887

$$$$
48
                    3D
 Structure written by MMmdl.
165174  0  0  1  0            999 V2000
  -30.7404  -14.5234   20.5771 C   0  0  0  0  0  0
  -30.4130  -12.3511   19.4328 C   0  0  0  0  0  0
  -29.4872  -12.4966   18.2099 C   0  0  0  0  0  0
  -28.0159  -12.3184   18.6285 C   0  0  0  0  0  0
  -27.6432  -13.1897   19.8525 C   0  0  2  0  0  0
  -28.6919  -13.0674   20.9853 C   0  0  0  0  0  0
  -25.2561  -13.8111   20.5694 C   0  0  0  0  0  0
  -24.1811  -13.0413   20.9222 C   0  0  0  0  0  0
  -24.6343  -11.6872   20.8785 C   0  0  0  0  0  0
  -23.9011  -10.4276   21.0442 C   0  0  0  0  0  0
  -24.3585   -9.4198   21.9207 C   0  0  0  0  0  0
  -23.6271   -8.2226   22.0759 C   0  0  0  0  0  0
  -22.4256   -8.0266   21.3545 C   0  0  0  0  0  0
  -21.9885   -9.0236   20.4650 C   0  0  0  0  0  0
  -22.7197  -10.2119   20.3073 C   0  0  0  0  0  0
  -21.6842   -6.0725   22.5281 C   0  0  0  0  0  0
  -21.3999   -6.5636   23.8217 C   0  0  0  0  0  0
  -21.3656   -5.6783   24.9176 C   0  0  0  0  0  0
  -21.6048   -4.3046   24.7227 C   0  0  0  0  0  0
  -21.8823   -3.8139   23.4347 C   0  0  0  0  0  0
  -21.9191   -4.6955   22.3404 C   0  0  0  0  0  0
  -22.7841  -13.5233   21.1866 C   0  0  0  0  0  0
  -22.1662   -4.2143   21.0980 F   0  0  0  0  0  0
  -21.5637   -3.4528   25.7740 F   0  0  0  0  0  0
  -30.0187  -13.3708   20.4251 N   0  0  0  0  0  0
  -26.2929  -12.9213   20.3295 N   0  0  0  0  0  0
  -25.9257  -11.6409   20.5782 N   0  0  0  0  0  0
  -22.0460  -12.8247   22.0419 N   0  0  0  0  0  0
  -25.4291  -15.1830   20.4091 N   0  0  0  0  0  0
  -31.8711  -14.6370   20.0938 O   0  0  0  0  0  0
  -21.6623   -6.8866   21.4241 O   0  0  0  0  0  0
  -22.3552  -14.5541   20.6691 O   0  0  0  0  0  0
  -24.6153  -31.8672   23.2096 C   0  0  0  0  0  0
  -25.9048  -32.4817   23.8385 C   0  0  1  0  0  0
  -27.2335  -27.4139   20.0866 C   0  0  0  0  0  0
  -25.5907  -33.8615   24.2320 N   0  0  0  0  0  0
  -23.4036  -30.4904   21.5511 C   0  0  2  0  0  0
  -24.8489  -28.9545   20.1112 C   0  0  0  0  0  0
  -22.7409  -29.4657   22.4998 C   0  0  0  0  0  0
  -18.0266  -28.1381   22.8501 C   0  0  0  0  0  0
  -24.1474  -36.7298   23.2629 C   0  0  0  0  0  0
  -25.9341  -30.8219   21.3686 C   0  0  0  0  0  0
  -26.0082  -29.4539   20.7164 C   0  0  0  0  0  0
  -27.1964  -28.6850   20.7128 C   0  0  0  0  0  0
  -26.0530  -26.9387   19.4693 C   0  0  0  0  0  0
  -24.8666  -27.6960   19.4873 C   0  0  0  0  0  0
  -23.6115  -29.8223   20.1652 C   0  0  0  0  0  0
  -25.4094  -36.3103   24.0340 C   0  0  1  0  0  0
  -20.5856  -28.3664   23.1326 C   0  0  2  0  0  0
  -20.6756  -26.9402   22.5423 C   0  0  0  0  0  0
  -19.5735  -26.6393   21.5216 C   0  0  0  0  0  0
  -18.1913  -26.7935   22.1624 C   0  0  0  0  0  0
  -19.1517  -28.8840   23.2910 C   0  0  0  0  0  0
  -18.9443  -30.1446   23.8918 C   0  0  0  0  0  0
  -17.6446  -30.6587   24.0567 C   0  0  0  0  0  0
  -25.9040  -34.9474   23.5126 C   0  0  0  0  0  0
  -16.5337  -29.9086   23.6334 C   0  0  0  0  0  0
  -16.7254  -28.6501   23.0359 C   0  0  0  0  0  0
  -26.4475  -31.6598   25.0721 C   0  0  0  0  0  0
  -25.3744  -31.3716   26.1478 C   0  0  0  0  0  0
  -27.0292  -30.3025   24.6120 C   0  0  0  0  0  0
  -27.6062  -32.4310   25.7473 C   0  0  0  0  0  0
  -27.5592  -37.1772   24.8439 C   0  0  0  0  0  0
  -21.4136  -29.3026   22.3730 N   0  0  0  0  0  0
  -26.4265  -37.3806   23.9448 N   0  0  0  0  0  0
  -24.6692  -31.0751   22.1009 N   0  0  0  0  0  0
  -23.4177  -28.8212   23.3052 O   0  0  0  0  0  0
  -28.4050  -26.6741   20.1236 O   0  0  0  0  0  0
  -26.5611  -34.8935   22.4690 O   0  0  0  0  0  0
  -23.5346  -32.1442   23.7484 O   0  0  0  0  0  0
  -28.9511  -18.8448   21.5032 C   0  0  0  0  0  0
  -28.8880  -20.2122   21.1320 C   0  0  0  0  0  0
  -29.4236  -19.5934   18.8568 C   0  0  0  0  0  0
  -29.2259  -17.8287   20.5532 C   0  0  0  0  0  0
  -29.5116  -18.2287   19.2218 C   0  0  0  0  0  0
  -29.0758  -20.6020   19.7852 C   0  0  0  0  0  0
  -27.7181  -23.5474   18.0428 C   0  0  0  0  0  0
  -27.8045  -22.0537   18.3196 C   0  0  0  0  0  0
  -28.9583  -23.1609   20.0906 C   0  0  0  0  0  0
  -28.0556  -24.2206   19.3818 C   0  0  1  0  0  0
  -29.8609  -17.2134   18.1448 C   0  0  0  0  0  0
  -31.1277  -16.2524   22.2458 C   0  0  0  0  0  0
  -29.0494  -16.3395   20.9346 C   0  0  0  0  0  0
  -28.6406  -25.6522   19.1370 C   0  0  0  0  0  0
  -28.8683  -21.9198   19.3025 N   0  0  0  0  0  0
  -30.2301  -15.5367   21.3351 N   0  0  0  0  0  0
  -31.4552  -12.4410   19.1226 H   0  0  0  0  0  0
  -30.3234  -11.3537   19.8660 H   0  0  0  0  0  0
  -29.7493  -11.7615   17.4479 H   0  0  0  0  0  0
  -29.6274  -13.4766   17.7511 H   0  0  0  0  0  0
  -27.8601  -11.2637   18.8596 H   0  0  0  0  0  0
  -27.3541  -12.5445   17.7913 H   0  0  0  0  0  0
  -27.6334  -14.1996   19.4639 H   0  0  0  0  0  0
  -28.6923  -12.0572   21.3965 H   0  0  0  0  0  0
  -28.4368  -13.7205   21.8202 H   0  0  0  0  0  0
  -25.2736   -9.5672   22.4769 H   0  0  0  0  0  0
  -23.9987   -7.4610   22.7466 H   0  0  0  0  0  0
  -21.0819   -8.8734   19.8951 H   0  0  0  0  0  0
  -22.3656  -10.9653   19.6173 H   0  0  0  0  0  0
  -21.1979   -7.6144   23.9712 H   0  0  0  0  0  0
  -21.1478   -6.0516   25.9078 H   0  0  0  0  0  0
  -22.0608   -2.7600   23.2840 H   0  0  0  0  0  0
  -22.4043  -11.9899   22.4811 H   0  0  0  0  0  0
  -21.1082  -13.1293   22.2597 H   0  0  0  0  0  0
  -24.6606  -15.8348   20.5247 H   0  0  0  0  0  0
  -26.2700  -15.6237   20.0605 H   0  0  0  0  0  0
  -26.7116  -32.5524   23.1141 H   0  0  0  0  0  0
  -25.0050  -33.9763   25.0460 H   0  0  0  0  0  0
  -22.6930  -31.3081   21.4136 H   0  0  0  0  0  0
  -23.3773  -35.9585   23.3216 H   0  0  0  0  0  0
  -24.3595  -36.8983   22.2058 H   0  0  0  0  0  0
  -23.7166  -37.6455   23.6689 H   0  0  0  0  0  0
  -26.0528  -31.5873   20.5998 H   0  0  0  0  0  0
  -26.8198  -30.8723   21.9899 H   0  0  0  0  0  0
  -28.0882  -29.0650   21.1915 H   0  0  0  0  0  0
  -26.0211  -25.9800   18.9755 H   0  0  0  0  0  0
  -23.9759  -27.3070   19.0135 H   0  0  0  0  0  0
  -23.7152  -30.5965   19.4042 H   0  0  0  0  0  0
  -22.7360  -29.2396   19.8735 H   0  0  0  0  0  0
  -25.1264  -36.1945   25.0829 H   0  0  0  0  0  0
  -20.9947  -28.3234   24.1447 H   0  0  0  0  0  0
  -20.5657  -26.2270   23.3608 H   0  0  0  0  0  0
  -21.6625  -26.7451   22.1209 H   0  0  0  0  0  0
  -19.6883  -25.6310   21.1226 H   0  0  0  0  0  0
  -19.6678  -27.3215   20.6762 H   0  0  0  0  0  0
  -17.4187  -26.6703   21.4019 H   0  0  0  0  0  0
  -18.0303  -26.0066   22.9005 H   0  0  0  0  0  0
  -19.7921  -30.7258   24.2291 H   0  0  0  0  0  0
  -17.5003  -31.6271   24.5161 H   0  0  0  0  0  0
  -15.5336  -30.2991   23.7657 H   0  0  0  0  0  0
  -15.8655  -28.0823   22.7069 H   0  0  0  0  0  0
  -24.5897  -30.7085   25.7819 H   0  0  0  0  0  0
  -24.8956  -32.2870   26.4964 H   0  0  0  0  0  0
  -25.8090  -30.8858   27.0221 H   0  0  0  0  0  0
  -26.2827  -29.6790   24.1189 H   0  0  0  0  0  0
  -27.4044  -29.7273   25.4595 H   0  0  0  0  0  0
  -27.8678  -30.4306   23.9271 H   0  0  0  0  0  0
  -27.2700  -33.3620   26.2044 H   0  0  0  0  0  0
  -28.3871  -32.6847   25.0293 H   0  0  0  0  0  0
  -28.0729  -31.8436   26.5387 H   0  0  0  0  0  0
  -28.2524  -38.0158   24.7651 H   0  0  0  0  0  0
  -28.1181  -36.2712   24.6052 H   0  0  0  0  0  0
  -27.2352  -37.1142   25.8842 H   0  0  0  0  0  0
  -20.9300  -29.8733   21.6938 H   0  0  0  0  0  0
  -26.0151  -38.2855   24.1570 H   0  0  0  0  0  0
  -28.7302  -18.5728   22.5259 H   0  0  0  0  0  0
  -28.6301  -20.9425   21.8847 H   0  0  0  0  0  0
  -29.5980  -19.8691   17.8262 H   0  0  0  0  0  0
  -26.7439  -23.8465   17.6534 H   0  0  0  0  0  0
  -28.4638  -23.8069   17.2888 H   0  0  0  0  0  0
  -28.0073  -21.5013   17.4008 H   0  0  0  0  0  0
  -26.8652  -21.6827   18.7342 H   0  0  0  0  0  0
  -28.6469  -23.0174   21.1254 H   0  0  0  0  0  0
  -29.9977  -23.4907   20.1072 H   0  0  0  0  0  0
  -27.1294  -24.2952   19.9528 H   0  0  0  0  0  0
  -30.2004  -17.7065   17.2334 H   0  0  0  0  0  0
  -28.9962  -16.6021   17.8864 H   0  0  0  0  0  0
  -30.6691  -16.5611   18.4728 H   0  0  0  0  0  0
  -30.5627  -16.7702   23.0214 H   0  0  0  0  0  0
  -31.7217  -16.9908   21.7049 H   0  0  0  0  0  0
  -31.8152  -15.5702   22.7489 H   0  0  0  0  0  0
  -28.5721  -15.8863   20.0769 H   0  0  0  0  0  0
  -28.3111  -16.2687   21.7340 H   0  0  0  0  0  0
  -28.2881  -26.0349   18.1774 H   0  0  0  0  0  0
  -29.7198  -25.5699   19.0094 H   0  0  0  0  0  0
  1 25  1  0  0  0
  1 30  2  0  0  0
  1 86  1  0  0  0
  2  3  1  0  0  0
  2 25  1  0  0  0
  2 87  1  0  0  0
  2 88  1  0  0  0
  3  4  1  0  0  0
  3 89  1  0  0  0
  3 90  1  0  0  0
  4  5  1  0  0  0
  4 91  1  0  0  0
  4 92  1  0  0  0
  5  6  1  0  0  0
  5 26  1  0  0  0
  5 93  1  0  0  0
  6 25  1  0  0  0
  6 94  1  0  0  0
  6 95  1  0  0  0
  7  8  2  0  0  0
  7 26  1  0  0  0
  7 29  1  0  0  0
  8  9  1  0  0  0
  8 22  1  0  0  0
  9 10  1  0  0  0
  9 27  2  0  0  0
 10 11  2  0  0  0
 10 15  1  0  0  0
 11 12  1  0  0  0
 11 96  1  0  0  0
 12 13  2  0  0  0
 12 97  1  0  0  0
 13 14  1  0  0  0
 13 31  1  0  0  0
 14 15  2  0  0  0
 14 98  1  0  0  0
 15 99  1  0  0  0
 16 17  2  0  0  0
 16 21  1  0  0  0
 16 31  1  0  0  0
 17 18  1  0  0  0
 17100  1  0  0  0
 18 19  2  0  0  0
 18101  1  0  0  0
 19 20  1  0  0  0
 19 24  1  0  0  0
 20 21  2  0  0  0
 20102  1  0  0  0
 21 23  1  0  0  0
 22 28  1  0  0  0
 22 32  2  0  0  0
 26 27  1  0  0  0
 28103  1  0  0  0
 28104  1  0  0  0
 29105  1  0  0  0
 29106  1  0  0  0
 33 34  1  0  0  0
 33 66  1  0  0  0
 33 70  2  0  0  0
 34 36  1  0  0  0
 34 59  1  0  0  0
 34107  1  0  0  0
 35 44  2  0  0  0
 35 45  1  0  0  0
 35 68  1  0  0  0
 36 56  1  0  0  0
 36108  1  0  0  0
 37 39  1  0  0  0
 37 47  1  0  0  0
 37 66  1  0  0  0
 37109  1  0  0  0
 38 43  2  0  0  0
 38 46  1  0  0  0
 38 47  1  0  0  0
 39 64  1  0  0  0
 39 67  2  0  0  0
 40 52  1  0  0  0
 40 53  2  0  0  0
 40 58  1  0  0  0
 41110  1  0  0  0
 41111  1  0  0  0
 41112  1  0  0  0
 41 48  1  0  0  0
 42 43  1  0  0  0
 42 66  1  0  0  0
 42113  1  0  0  0
 42114  1  0  0  0
 43 44  1  0  0  0
 44115  1  0  0  0
 45 46  2  0  0  0
 45116  1  0  0  0
 46117  1  0  0  0
 47118  1  0  0  0
 47119  1  0  0  0
 48 56  1  0  0  0
 48 65  1  0  0  0
 48120  1  0  0  0
 49 50  1  0  0  0
 49 53  1  0  0  0
 49 64  1  0  0  0
 49121  1  0  0  0
 50 51  1  0  0  0
 50122  1  0  0  0
 50123  1  0  0  0
 51 52  1  0  0  0
 51124  1  0  0  0
 51125  1  0  0  0
 52126  1  0  0  0
 52127  1  0  0  0
 53 54  1  0  0  0
 54 55  2  0  0  0
 54128  1  0  0  0
 55 57  1  0  0  0
 55129  1  0  0  0
 56 69  2  0  0  0
 57 58  2  0  0  0
 57130  1  0  0  0
 58131  1  0  0  0
 59 60  1  0  0  0
 59 61  1  0  0  0
 59 62  1  0  0  0
 60132  1  0  0  0
 60133  1  0  0  0
 60134  1  0  0  0
 61135  1  0  0  0
 61136  1  0  0  0
 61137  1  0  0  0
 62138  1  0  0  0
 62139  1  0  0  0
 62140  1  0  0  0
 63 65  1  0  0  0
 63141  1  0  0  0
 63142  1  0  0  0
 63143  1  0  0  0
 64144  1  0  0  0
 65145  1  0  0  0
 68 84  1  0  0  0
 71 72  2  0  0  0
 71 74  1  0  0  0
 71146  1  0  0  0
 72 76  1  0  0  0
 72147  1  0  0  0
 73 75  1  0  0  0
 73 76  2  0  0  0
 73148  1  0  0  0
 74 75  2  0  0  0
 74 83  1  0  0  0
 75 81  1  0  0  0
 76 85  1  0  0  0
 77 78  1  0  0  0
 77 80  1  0  0  0
 77149  1  0  0  0
 77150  1  0  0  0
 78 85  1  0  0  0
 78151  1  0  0  0
 78152  1  0  0  0
 79 80  1  0  0  0
 79 85  1  0  0  0
 79153  1  0  0  0
 79154  1  0  0  0
 80 84  1  0  0  0
 80155  1  0  0  0
 81156  1  0  0  0
 81157  1  0  0  0
 81158  1  0  0  0
 82 86  1  0  0  0
 82159  1  0  0  0
 82160  1  0  0  0
 82161  1  0  0  0
 83 86  1  0  0  0
 83162  1  0  0  0
 83163  1  0  0  0
 84164  1  0  0  0
 84165  1  0  0  0
M  ISO  4   1 100  68 101  84 101  86 100
M  END
> <chiral flag>
0

> <version>
0

> <s_m_source_file>
/data/baiqing/PycharmProjects/Reinvent-master-3.2/result/LINK_invent/BTK/process_docking_weight1_custom_product_contain_oxygen_bond_distance_aromatic_linkinvent_7_9_3/rearranged_h_0027.sdf

> <i_m_source_file_index>
48

> <r_mmod_Potential_Energy-OPLS-2005>
194.791015625

> <r_mmod_Stretch_Energy-OPLS-2005>
47.0153427124023

> <r_mmod_Bend_Energy-OPLS-2005>
158.640258789062

> <r_mmod_Torsional_Energy-OPLS-2005>
339.883941650391

> <r_mmod_Improper_Torsional_Energy-OPLS-2005>
7.5991997718811

> <r_mmod_Van_der_Waal_Energy-OPLS-2005>
148.364471435547

> <r_mmod_Electrostatic_Energy-OPLS-2005>
-312.157775878906

> <r_mmod_Solvation_Energy-OPLS-2005>
-215.714859008789

> <b_mmod_Minimization_Converged-OPLS-2005>
0

> <r_mmod_RMS_Derivative-OPLS-2005>
1.41474759578705

$$$$
49
                    3D
 Structure written by MMmdl.
157166  0  0  1  0            999 V2000
  -30.5889  -14.7258   20.4747 C   0  0  0  0  0  0
  -30.4457  -12.4418   19.4687 C   0  0  0  0  0  0
  -29.5136  -12.5053   18.2369 C   0  0  0  0  0  0
  -28.0373  -12.3329   18.6484 C   0  0  0  0  0  0
  -27.6497  -13.2210   19.8598 C   0  0  2  0  0  0
  -28.6939  -13.1150   20.9925 C   0  0  0  0  0  0
  -25.2553  -13.8176   20.5684 C   0  0  0  0  0  0
  -24.1828  -13.0446   20.9193 C   0  0  0  0  0  0
  -24.6407  -11.6922   20.8749 C   0  0  0  0  0  0
  -23.9073  -10.4308   21.0417 C   0  0  0  0  0  0
  -24.3620   -9.4214   21.9181 C   0  0  0  0  0  0
  -23.6293   -8.2257   22.0746 C   0  0  0  0  0  0
  -22.4268   -8.0307   21.3547 C   0  0  0  0  0  0
  -21.9907   -9.0284   20.4648 C   0  0  0  0  0  0
  -22.7246  -10.2159   20.3063 C   0  0  0  0  0  0
  -21.6856   -6.0745   22.5282 C   0  0  0  0  0  0
  -21.4024   -6.5651   23.8214 C   0  0  0  0  0  0
  -21.3656   -5.6795   24.9176 C   0  0  0  0  0  0
  -21.6026   -4.3056   24.7228 C   0  0  0  0  0  0
  -21.8823   -3.8159   23.4345 C   0  0  0  0  0  0
  -21.9193   -4.6972   22.3404 C   0  0  0  0  0  0
  -22.7856  -13.5254   21.1856 C   0  0  0  0  0  0
  -22.1667   -4.2164   21.0977 F   0  0  0  0  0  0
  -21.5611   -3.4544   25.7737 F   0  0  0  0  0  0
  -30.0029  -13.4797   20.4273 N   0  0  0  0  0  0
  -26.2977  -12.9364   20.3312 N   0  0  0  0  0  0
  -25.9323  -11.6512   20.5753 N   0  0  0  0  0  0
  -22.0474  -12.8272   22.0406 N   0  0  0  0  0  0
  -25.4260  -15.1891   20.4103 N   0  0  0  0  0  0
  -31.7493  -14.8849   20.0880 O   0  0  0  0  0  0
  -21.6635   -6.8900   21.4246 O   0  0  0  0  0  0
  -22.3558  -14.5568   20.6707 O   0  0  0  0  0  0
  -24.6330  -31.8554   23.1993 C   0  0  0  0  0  0
  -25.9164  -32.4751   23.8327 C   0  0  1  0  0  0
  -27.2192  -27.2523   20.1146 C   0  0  0  0  0  0
  -25.5959  -33.8544   24.2259 N   0  0  0  0  0  0
  -23.4285  -30.4808   21.5438 C   0  0  2  0  0  0
  -24.8732  -28.9286   20.1129 C   0  0  0  0  0  0
  -22.7498  -29.4607   22.4896 C   0  0  0  0  0  0
  -18.0299  -28.1387   22.8478 C   0  0  0  0  0  0
  -24.1493  -36.7271   23.2622 C   0  0  0  0  0  0
  -25.9768  -30.7631   21.3838 C   0  0  0  0  0  0
  -26.0478  -29.3857   20.7241 C   0  0  0  0  0  0
  -27.2196  -28.5597   20.7151 C   0  0  0  0  0  0
  -26.0111  -26.8671   19.4832 C   0  0  0  0  0  0
  -24.8611  -27.6759   19.4872 C   0  0  0  0  0  0
  -23.6476  -29.8193   20.1592 C   0  0  0  0  0  0
  -25.4114  -36.3057   24.0320 C   0  0  1  0  0  0
  -20.5896  -28.3704   23.1254 C   0  0  2  0  0  0
  -20.6785  -26.9414   22.5401 C   0  0  0  0  0  0
  -19.5768  -26.6384   21.5195 C   0  0  0  0  0  0
  -18.1946  -26.7931   22.1608 C   0  0  0  0  0  0
  -19.1549  -28.8860   23.2864 C   0  0  0  0  0  0
  -18.9471  -30.1461   23.8896 C   0  0  0  0  0  0
  -17.6470  -30.6586   24.0564 C   0  0  0  0  0  0
  -25.9069  -34.9430   23.5092 C   0  0  0  0  0  0
  -16.5364  -29.9088   23.6318 C   0  0  0  0  0  0
  -16.7284  -28.6495   23.0350 C   0  0  0  0  0  0
  -26.4529  -31.6565   25.0709 C   0  0  0  0  0  0
  -25.3754  -31.3772   26.1439 C   0  0  0  0  0  0
  -27.0350  -30.2962   24.6208 C   0  0  0  0  0  0
  -27.6101  -32.4294   25.7478 C   0  0  0  0  0  0
  -27.5588  -37.1776   24.8449 C   0  0  0  0  0  0
  -21.4199  -29.3053   22.3644 N   0  0  0  0  0  0
  -26.4284  -37.3759   23.9415 N   0  0  0  0  0  0
  -24.6990  -31.0507   22.0990 N   0  0  0  0  0  0
  -23.4196  -28.8130   23.2977 O   0  0  0  0  0  0
  -28.3381  -26.3798   20.1449 O   0  0  0  0  0  0
  -26.5614  -34.8910   22.4649 O   0  0  0  0  0  0
  -23.5483  -32.1382   23.7273 O   0  0  0  0  0  0
  -30.5966  -19.4227   19.7165 C   0  0  0  0  0  0
  -30.6460  -17.9891   19.7944 C   0  0  0  0  0  0
  -29.7494  -20.2370   20.5353 C   0  0  0  0  0  0
  -28.9163  -19.4927   21.4299 C   0  0  0  0  0  0
  -29.8335  -17.2524   20.6963 C   0  0  0  0  0  0
  -28.9518  -18.0525   21.4820 C   0  0  0  0  0  0
  -28.2428  -23.8185   20.9797 C   0  0  0  0  0  0
  -29.4746  -24.0938   19.4153 C   0  0  0  0  0  0
  -28.2159  -24.9013   19.8473 C   0  0  2  0  0  0
  -27.9829  -20.2209   22.3882 C   0  0  0  0  0  0
  -29.9369  -21.8313   20.5897 C   0  0  0  0  0  0
  -29.7759  -15.7794   20.8431 N   0  0  0  0  0  0
  -28.9250  -22.8581   20.0546 N   0  3  1  0  0  0
  -28.1194  -17.4082   22.3364 F   0  0  0  0  0  0
  -31.4826  -12.5838   19.1603 H   0  0  0  0  0  0
  -30.4070  -11.4569   19.9354 H   0  0  0  0  0  0
  -29.7901  -11.7346   17.5148 H   0  0  0  0  0  0
  -29.6427  -13.4624   17.7291 H   0  0  0  0  0  0
  -27.8872  -11.2824   18.8990 H   0  0  0  0  0  0
  -27.3840  -12.5406   17.8007 H   0  0  0  0  0  0
  -27.6568  -14.2484   19.4952 H   0  0  0  0  0  0
  -28.7235  -12.1010   21.3938 H   0  0  0  0  0  0
  -28.4235  -13.7590   21.8309 H   0  0  0  0  0  0
  -25.2762   -9.5695   22.4767 H   0  0  0  0  0  0
  -24.0003   -7.4641   22.7469 H   0  0  0  0  0  0
  -21.0825   -8.8822   19.8957 H   0  0  0  0  0  0
  -22.3700  -10.9711   19.6196 H   0  0  0  0  0  0
  -21.2030   -7.6156   23.9733 H   0  0  0  0  0  0
  -21.1456   -6.0516   25.9075 H   0  0  0  0  0  0
  -22.0595   -2.7620   23.2843 H   0  0  0  0  0  0
  -22.4060  -11.9944   22.4828 H   0  0  0  0  0  0
  -21.1097  -13.1337   22.2591 H   0  0  0  0  0  0
  -24.6614  -15.8446   20.5300 H   0  0  0  0  0  0
  -26.2772  -15.6327   20.0903 H   0  0  0  0  0  0
  -26.7211  -32.5405   23.1045 H   0  0  0  0  0  0
  -25.0144  -33.9688   25.0434 H   0  0  0  0  0  0
  -22.7256  -31.3035   21.3978 H   0  0  0  0  0  0
  -23.3744  -35.9617   23.3310 H   0  0  0  0  0  0
  -24.3578  -36.8855   22.2027 H   0  0  0  0  0  0
  -23.7260  -37.6494   23.6620 H   0  0  0  0  0  0
  -26.1173  -31.5238   20.6154 H   0  0  0  0  0  0
  -26.8540  -30.8096   22.0166 H   0  0  0  0  0  0
  -28.1190  -28.9057   21.2048 H   0  0  0  0  0  0
  -25.8981  -25.9270   18.9717 H   0  0  0  0  0  0
  -23.9602  -27.3209   19.0040 H   0  0  0  0  0  0
  -23.7803  -30.5977   19.4071 H   0  0  0  0  0  0
  -22.7646  -29.2576   19.8482 H   0  0  0  0  0  0
  -25.1283  -36.1902   25.0806 H   0  0  0  0  0  0
  -20.9995  -28.3296   24.1372 H   0  0  0  0  0  0
  -20.5655  -26.2310   23.3606 H   0  0  0  0  0  0
  -21.6660  -26.7427   22.1214 H   0  0  0  0  0  0
  -19.6931  -25.6289   21.1233 H   0  0  0  0  0  0
  -19.6711  -27.3185   20.6717 H   0  0  0  0  0  0
  -17.4204  -26.6655   21.4026 H   0  0  0  0  0  0
  -18.0372  -26.0083   22.9015 H   0  0  0  0  0  0
  -19.7954  -30.7271   24.2265 H   0  0  0  0  0  0
  -17.5031  -31.6273   24.5160 H   0  0  0  0  0  0
  -15.5364  -30.2994   23.7648 H   0  0  0  0  0  0
  -15.8680  -28.0817   22.7076 H   0  0  0  0  0  0
  -24.5922  -30.7109   25.7799 H   0  0  0  0  0  0
  -24.8964  -32.2972   26.4798 H   0  0  0  0  0  0
  -25.8073  -30.9007   27.0244 H   0  0  0  0  0  0
  -26.2927  -29.6721   24.1211 H   0  0  0  0  0  0
  -27.3982  -29.7214   25.4735 H   0  0  0  0  0  0
  -27.8836  -30.4196   23.9477 H   0  0  0  0  0  0
  -27.2711  -33.3568   26.2095 H   0  0  0  0  0  0
  -28.3900  -32.6876   25.0308 H   0  0  0  0  0  0
  -28.0778  -31.8386   26.5359 H   0  0  0  0  0  0
  -28.2586  -38.0098   24.7528 H   0  0  0  0  0  0
  -28.1112  -36.2627   24.6227 H   0  0  0  0  0  0
  -27.2321  -37.1377   25.8858 H   0  0  0  0  0  0
  -20.9370  -29.8808   21.6889 H   0  0  0  0  0  0
  -26.0168  -38.2825   24.1460 H   0  0  0  0  0  0
  -31.2765  -19.9051   19.0286 H   0  0  0  0  0  0
  -31.3285  -17.4574   19.1472 H   0  0  0  0  0  0
  -27.2597  -23.4815   21.3103 H   0  0  0  0  0  0
  -28.8606  -24.1049   21.8347 H   0  0  0  0  0  0
  -30.3973  -24.4451   19.8833 H   0  0  0  0  0  0
  -29.6010  -23.9978   18.3356 H   0  0  0  0  0  0
  -27.4498  -24.6728   19.1099 H   0  0  0  0  0  0
  -26.9912  -20.3198   21.9467 H   0  0  0  0  0  0
  -28.3494  -21.2117   22.6493 H   0  0  0  0  0  0
  -27.8897  -19.6671   23.3219 H   0  0  0  0  0  0
  -30.8577  -22.0213   20.0377 H   0  0  0  0  0  0
  -30.1976  -22.1010   21.6128 H   0  0  0  0  0  0
  -28.9212  -15.4673   21.2774 H   0  0  0  0  0  0
  -28.2611  -22.4175   19.4356 H   0  0  0  0  0  0
  1 25  1  0  0  0
  1 30  2  0  0  0
  1 82  1  0  0  0
  2  3  1  0  0  0
  2 25  1  0  0  0
  2 85  1  0  0  0
  2 86  1  0  0  0
  3  4  1  0  0  0
  3 87  1  0  0  0
  3 88  1  0  0  0
  4  5  1  0  0  0
  4 89  1  0  0  0
  4 90  1  0  0  0
  5  6  1  0  0  0
  5 26  1  0  0  0
  5 91  1  0  0  0
  6 25  1  0  0  0
  6 92  1  0  0  0
  6 93  1  0  0  0
  7  8  2  0  0  0
  7 26  1  0  0  0
  7 29  1  0  0  0
  8  9  1  0  0  0
  8 22  1  0  0  0
  9 10  1  0  0  0
  9 27  2  0  0  0
 10 11  2  0  0  0
 10 15  1  0  0  0
 11 12  1  0  0  0
 11 94  1  0  0  0
 12 13  2  0  0  0
 12 95  1  0  0  0
 13 14  1  0  0  0
 13 31  1  0  0  0
 14 15  2  0  0  0
 14 96  1  0  0  0
 15 97  1  0  0  0
 16 17  2  0  0  0
 16 21  1  0  0  0
 16 31  1  0  0  0
 17 18  1  0  0  0
 17 98  1  0  0  0
 18 19  2  0  0  0
 18 99  1  0  0  0
 19 20  1  0  0  0
 19 24  1  0  0  0
 20 21  2  0  0  0
 20100  1  0  0  0
 21 23  1  0  0  0
 22 28  1  0  0  0
 22 32  2  0  0  0
 26 27  1  0  0  0
 28101  1  0  0  0
 28102  1  0  0  0
 29103  1  0  0  0
 29104  1  0  0  0
 33 34  1  0  0  0
 33 66  1  0  0  0
 33 70  2  0  0  0
 34 36  1  0  0  0
 34 59  1  0  0  0
 34105  1  0  0  0
 35 44  2  0  0  0
 35 45  1  0  0  0
 35 68  1  0  0  0
 36 56  1  0  0  0
 36106  1  0  0  0
 37 39  1  0  0  0
 37 47  1  0  0  0
 37 66  1  0  0  0
 37107  1  0  0  0
 38 43  2  0  0  0
 38 46  1  0  0  0
 38 47  1  0  0  0
 39 64  1  0  0  0
 39 67  2  0  0  0
 40 52  1  0  0  0
 40 53  2  0  0  0
 40 58  1  0  0  0
 41108  1  0  0  0
 41109  1  0  0  0
 41110  1  0  0  0
 41 48  1  0  0  0
 42 43  1  0  0  0
 42 66  1  0  0  0
 42111  1  0  0  0
 42112  1  0  0  0
 43 44  1  0  0  0
 44113  1  0  0  0
 45 46  2  0  0  0
 45114  1  0  0  0
 46115  1  0  0  0
 47116  1  0  0  0
 47117  1  0  0  0
 48 56  1  0  0  0
 48 65  1  0  0  0
 48118  1  0  0  0
 49 50  1  0  0  0
 49 53  1  0  0  0
 49 64  1  0  0  0
 49119  1  0  0  0
 50 51  1  0  0  0
 50120  1  0  0  0
 50121  1  0  0  0
 51 52  1  0  0  0
 51122  1  0  0  0
 51123  1  0  0  0
 52124  1  0  0  0
 52125  1  0  0  0
 53 54  1  0  0  0
 54 55  2  0  0  0
 54126  1  0  0  0
 55 57  1  0  0  0
 55127  1  0  0  0
 56 69  2  0  0  0
 57 58  2  0  0  0
 57128  1  0  0  0
 58129  1  0  0  0
 59 60  1  0  0  0
 59 61  1  0  0  0
 59 62  1  0  0  0
 60130  1  0  0  0
 60131  1  0  0  0
 60132  1  0  0  0
 61133  1  0  0  0
 61134  1  0  0  0
 61135  1  0  0  0
 62136  1  0  0  0
 62137  1  0  0  0
 62138  1  0  0  0
 63 65  1  0  0  0
 63139  1  0  0  0
 63140  1  0  0  0
 63141  1  0  0  0
 64142  1  0  0  0
 65143  1  0  0  0
 68 79  1  0  0  0
 71 72  2  0  0  0
 71 73  1  0  0  0
 71144  1  0  0  0
 72 75  1  0  0  0
 72145  1  0  0  0
 73 74  2  0  0  0
 73 81  1  0  0  0
 74 76  1  0  0  0
 74 80  1  0  0  0
 75 76  2  0  0  0
 75 82  1  0  0  0
 76 84  1  0  0  0
 77 79  1  0  0  0
 77 83  1  0  0  0
 77146  1  0  0  0
 77147  1  0  0  0
 78 79  1  0  0  0
 78 83  1  0  0  0
 78148  1  0  0  0
 78149  1  0  0  0
 79150  1  0  0  0
 80151  1  0  0  0
 80152  1  0  0  0
 80153  1  0  0  0
 81154  1  0  0  0
 81155  1  0  0  0
 81 83  1  0  0  0
 82156  1  0  0  0
 83157  1  0  0  0
M  CHG  1  83   1
M  ISO  4   1 100  68 101  79 101  82 100
M  END
> <chiral flag>
0

> <version>
0

> <s_m_source_file>
/data/baiqing/PycharmProjects/Reinvent-master-3.2/result/LINK_invent/BTK/process_docking_weight1_custom_product_contain_oxygen_bond_distance_aromatic_linkinvent_7_9_3/rearranged_h_0027.sdf

> <i_m_source_file_index>
49

> <r_mmod_Potential_Energy-OPLS-2005>
-50.6030693054199

> <r_mmod_Stretch_Energy-OPLS-2005>
112.136833190918

> <r_mmod_Bend_Energy-OPLS-2005>
201.007476806641

> <r_mmod_Torsional_Energy-OPLS-2005>
224.497589111328

> <r_mmod_Improper_Torsional_Energy-OPLS-2005>
4.41736459732056

> <r_mmod_Van_der_Waal_Energy-OPLS-2005>
143.307708740234

> <r_mmod_Electrostatic_Energy-OPLS-2005>
-336.325927734375

> <r_mmod_Solvation_Energy-OPLS-2005>
-478.787719726562

> <b_mmod_Minimization_Converged-OPLS-2005>
0

> <r_mmod_RMS_Derivative-OPLS-2005>
3.63812637329102

$$$$
50
                    3D
 Structure written by MMmdl.
167176  0  0  1  0            999 V2000
  -30.6567  -14.5032   20.3810 C   0  0  0  0  0  0
  -30.4362  -12.2420   19.4677 C   0  0  0  0  0  0
  -29.5194  -12.3088   18.2293 C   0  0  0  0  0  0
  -28.0158  -12.3181   18.6137 C   0  0  0  0  0  0
  -27.6556  -13.1874   19.8577 C   0  0  2  0  0  0
  -28.7066  -13.0294   20.9781 C   0  0  0  0  0  0
  -25.2603  -13.8136   20.5754 C   0  0  0  0  0  0
  -24.1818  -13.0452   20.9189 C   0  0  0  0  0  0
  -24.6322  -11.6908   20.8718 C   0  0  0  0  0  0
  -23.8966  -10.4340   21.0379 C   0  0  0  0  0  0
  -24.3565   -9.4283   21.9160 C   0  0  0  0  0  0
  -23.6298   -8.2288   22.0691 C   0  0  0  0  0  0
  -22.4273   -8.0309   21.3516 C   0  0  0  0  0  0
  -21.9865   -9.0253   20.4609 C   0  0  0  0  0  0
  -22.7126  -10.2173   20.3019 C   0  0  0  0  0  0
  -21.6879   -6.0793   22.5298 C   0  0  0  0  0  0
  -21.4050   -6.5688   23.8241 C   0  0  0  0  0  0
  -21.3613   -5.6799   24.9172 C   0  0  0  0  0  0
  -21.6027   -4.3066   24.7189 C   0  0  0  0  0  0
  -21.8830   -3.8193   23.4307 C   0  0  0  0  0  0
  -21.9182   -4.7026   22.3385 C   0  0  0  0  0  0
  -22.7852  -13.5269   21.1836 C   0  0  0  0  0  0
  -22.1555   -4.2210   21.0941 F   0  0  0  0  0  0
  -21.5627   -3.4515   25.7679 F   0  0  0  0  0  0
  -30.0311  -13.3005   20.3959 N   0  0  0  0  0  0
  -26.3002  -12.9250   20.3362 N   0  0  0  0  0  0
  -25.9243  -11.6445   20.5807 N   0  0  0  0  0  0
  -22.0477  -12.8277   22.0399 N   0  0  0  0  0  0
  -25.4331  -15.1892   20.4328 N   0  0  0  0  0  0
  -31.8606  -14.6469   20.1498 O   0  0  0  0  0  0
  -21.6624   -6.8916   21.4262 O   0  0  0  0  0  0
  -22.3555  -14.5585   20.6694 O   0  0  0  0  0  0
  -24.6103  -31.8689   23.2094 C   0  0  0  0  0  0
  -25.9011  -32.4829   23.8397 C   0  0  1  0  0  0
  -27.2715  -27.4676   20.1032 C   0  0  0  0  0  0
  -25.5903  -33.8632   24.2339 N   0  0  0  0  0  0
  -23.4002  -30.4850   21.5473 C   0  0  2  0  0  0
  -24.8555  -28.9423   20.1229 C   0  0  0  0  0  0
  -22.7383  -29.4660   22.5015 C   0  0  0  0  0  0
  -18.0260  -28.1378   22.8500 C   0  0  0  0  0  0
  -24.1487  -36.7287   23.2642 C   0  0  0  0  0  0
  -25.9231  -30.8416   21.3609 C   0  0  0  0  0  0
  -26.0062  -29.4754   20.7131 C   0  0  0  0  0  0
  -27.2113  -28.7452   20.6969 C   0  0  0  0  0  0
  -26.1025  -26.9306   19.5160 C   0  0  0  0  0  0
  -24.8969  -27.6670   19.5233 C   0  0  0  0  0  0
  -23.6109  -29.8012   20.1671 C   0  0  0  0  0  0
  -25.4113  -36.3119   24.0351 C   0  0  1  0  0  0
  -20.5844  -28.3659   23.1335 C   0  0  2  0  0  0
  -20.6757  -26.9409   22.5417 C   0  0  0  0  0  0
  -19.5736  -26.6387   21.5217 C   0  0  0  0  0  0
  -18.1906  -26.7931   22.1615 C   0  0  0  0  0  0
  -19.1506  -28.8835   23.2909 C   0  0  0  0  0  0
  -18.9441  -30.1446   23.8901 C   0  0  0  0  0  0
  -17.6453  -30.6597   24.0549 C   0  0  0  0  0  0
  -25.9038  -34.9483   23.5140 C   0  0  0  0  0  0
  -16.5337  -29.9092   23.6341 C   0  0  0  0  0  0
  -16.7249  -28.6503   23.0361 C   0  0  0  0  0  0
  -26.4460  -31.6607   25.0715 C   0  0  0  0  0  0
  -25.3731  -31.3691   26.1463 C   0  0  0  0  0  0
  -27.0307  -30.3066   24.6086 C   0  0  0  0  0  0
  -27.6053  -32.4318   25.7463 C   0  0  0  0  0  0
  -27.5585  -37.1800   24.8469 C   0  0  0  0  0  0
  -21.4112  -29.3028   22.3746 N   0  0  0  0  0  0
  -26.4292  -37.3806   23.9423 N   0  0  0  0  0  0
  -24.6616  -31.0803   22.0982 N   0  0  0  0  0  0
  -23.4165  -28.8225   23.3070 O   0  0  0  0  0  0
  -28.4964  -26.8393   20.0955 O   0  0  0  0  0  0
  -26.5585  -34.8932   22.4690 O   0  0  0  0  0  0
  -23.5300  -32.1431   23.7506 O   0  0  0  0  0  0
  -30.2814  -19.2196   18.2415 C   0  0  0  0  0  0
  -29.5770  -18.1686   17.6442 C   0  0  0  0  0  0
  -30.7354  -17.8150   20.1806 C   0  0  0  0  0  0
  -30.8449  -19.0675   19.5266 C   0  0  0  0  0  0
  -29.4124  -16.9499   18.3212 C   0  0  0  0  0  0
  -30.0135  -16.7482   19.5955 C   0  0  0  0  0  0
  -29.9210  -25.0024   20.7466 C   0  0  0  0  0  0
  -31.8698  -21.4367   19.3277 C   0  0  0  0  0  0
  -30.5347  -20.7453   21.3679 C   0  0  0  0  0  0
  -32.4573  -22.6157   20.1193 C   0  0  0  0  0  0
  -31.1336  -21.9274   22.1484 C   0  0  0  0  0  0
  -31.4796  -20.2528   20.2514 C   0  0  1  0  0  0
  -31.5011  -23.1053   21.2254 C   0  0  2  0  0  0
  -28.5649  -15.9074   17.6273 C   0  0  0  0  0  0
  -28.5863  -25.4140   20.0885 C   0  0  0  0  0  0
  -29.8068  -15.5453   20.3342 N   0  0  0  0  0  0
  -30.2925  -23.7157   20.6504 N   0  0  0  0  0  0
  -30.6095  -25.8407   21.3386 O   0  0  0  0  0  0
  -31.4846  -12.3258   19.1719 H   0  0  0  0  0  0
  -30.3392  -11.2758   19.9639 H   0  0  0  0  0  0
  -29.7123  -11.4358   17.6029 H   0  0  0  0  0  0
  -29.8090  -13.1368   17.5927 H   0  0  0  0  0  0
  -27.7407  -11.2808   18.8109 H   0  0  0  0  0  0
  -27.4140  -12.6217   17.7586 H   0  0  0  0  0  0
  -27.6608  -14.2225   19.5352 H   0  0  0  0  0  0
  -28.6795  -12.0179   21.3867 H   0  0  0  0  0  0
  -28.4901  -13.6968   21.8142 H   0  0  0  0  0  0
  -25.2693   -9.5836   22.4742 H   0  0  0  0  0  0
  -24.0098   -7.4666   22.7335 H   0  0  0  0  0  0
  -21.0811   -8.8702   19.8892 H   0  0  0  0  0  0
  -22.3505  -10.9705   19.6142 H   0  0  0  0  0  0
  -21.2084   -7.6198   23.9777 H   0  0  0  0  0  0
  -21.1342   -6.0480   25.9071 H   0  0  0  0  0  0
  -22.0645   -2.7672   23.2749 H   0  0  0  0  0  0
  -22.4115  -12.0000   22.4868 H   0  0  0  0  0  0
  -21.1093  -13.1287   22.2590 H   0  0  0  0  0  0
  -24.6805  -15.8477   20.5961 H   0  0  0  0  0  0
  -26.3008  -15.6470   20.1929 H   0  0  0  0  0  0
  -26.7085  -32.5564   23.1170 H   0  0  0  0  0  0
  -25.0125  -33.9803   25.0534 H   0  0  0  0  0  0
  -22.6882  -31.2995   21.4001 H   0  0  0  0  0  0
  -23.3782  -35.9586   23.3304 H   0  0  0  0  0  0
  -24.3573  -36.8890   22.2054 H   0  0  0  0  0  0
  -23.7195  -37.6479   23.6637 H   0  0  0  0  0  0
  -26.0337  -31.6092   20.5939 H   0  0  0  0  0  0
  -26.8096  -30.8952   21.9806 H   0  0  0  0  0  0
  -28.1040  -29.1613   21.1433 H   0  0  0  0  0  0
  -26.1249  -25.9617   19.0371 H   0  0  0  0  0  0
  -24.0119  -27.2480   19.0639 H   0  0  0  0  0  0
  -23.7101  -30.5660   19.3962 H   0  0  0  0  0  0
  -22.7410  -29.2072   19.8828 H   0  0  0  0  0  0
  -25.1288  -36.1985   25.0843 H   0  0  0  0  0  0
  -20.9932  -28.3221   24.1456 H   0  0  0  0  0  0
  -20.5689  -26.2270   23.3595 H   0  0  0  0  0  0
  -21.6626  -26.7480   22.1189 H   0  0  0  0  0  0
  -19.6900  -25.6300   21.1238 H   0  0  0  0  0  0
  -19.6688  -27.3201   20.6751 H   0  0  0  0  0  0
  -17.4199  -26.6710   21.3990 H   0  0  0  0  0  0
  -18.0283  -26.0057   22.8988 H   0  0  0  0  0  0
  -19.7924  -30.7249   24.2277 H   0  0  0  0  0  0
  -17.5017  -31.6291   24.5128 H   0  0  0  0  0  0
  -15.5338  -30.2990   23.7677 H   0  0  0  0  0  0
  -15.8646  -28.0827   22.7077 H   0  0  0  0  0  0
  -24.5912  -30.7038   25.7779 H   0  0  0  0  0  0
  -24.8902  -32.2833   26.4930 H   0  0  0  0  0  0
  -25.8084  -30.8841   27.0210 H   0  0  0  0  0  0
  -26.2854  -29.6809   24.1169 H   0  0  0  0  0  0
  -27.4124  -29.7325   25.4536 H   0  0  0  0  0  0
  -27.8659  -30.4403   23.9208 H   0  0  0  0  0  0
  -27.2716  -33.3640   26.2031 H   0  0  0  0  0  0
  -28.3861  -32.6837   25.0274 H   0  0  0  0  0  0
  -28.0723  -31.8440   26.5376 H   0  0  0  0  0  0
  -28.2602  -38.0102   24.7559 H   0  0  0  0  0  0
  -28.1082  -36.2639   24.6248 H   0  0  0  0  0  0
  -27.2307  -37.1390   25.8872 H   0  0  0  0  0  0
  -20.9278  -29.8730   21.6942 H   0  0  0  0  0  0
  -26.0189  -38.2889   24.1423 H   0  0  0  0  0  0
  -30.3348  -20.1471   17.6940 H   0  0  0  0  0  0
  -29.1327  -18.3228   16.6702 H   0  0  0  0  0  0
  -31.1622  -17.6891   21.1665 H   0  0  0  0  0  0
  -32.5831  -21.1053   18.5714 H   0  0  0  0  0  0
  -31.0022  -21.8106   18.7851 H   0  0  0  0  0  0
  -29.5749  -21.0312   20.9366 H   0  0  0  0  0  0
  -30.3122  -19.9339   22.0619 H   0  0  0  0  0  0
  -32.7030  -23.4333   19.4420 H   0  0  0  0  0  0
  -33.4024  -22.3052   20.5680 H   0  0  0  0  0  0
  -32.0327  -21.5874   22.6660 H   0  0  0  0  0  0
  -30.4454  -22.2512   22.9296 H   0  0  0  0  0  0
  -32.3970  -19.8823   20.7126 H   0  0  0  0  0  0
  -32.0368  -23.8412   21.8287 H   0  0  0  0  0  0
  -28.6118  -16.0137   16.5425 H   0  0  0  0  0  0
  -27.5231  -15.9811   17.9376 H   0  0  0  0  0  0
  -28.9291  -14.9240   17.8573 H   0  0  0  0  0  0
  -27.7678  -24.9550   20.6448 H   0  0  0  0  0  0
  -28.5567  -25.0483   19.0612 H   0  0  0  0  0  0
  -28.8454  -15.2697   20.4548 H   0  0  0  0  0  0
  -29.6785  -23.0987   20.1368 H   0  0  0  0  0  0
  1 25  1  0  0  0
  1 30  2  0  0  0
  1 86  1  0  0  0
  2  3  1  0  0  0
  2 25  1  0  0  0
  2 89  1  0  0  0
  2 90  1  0  0  0
  3  4  1  0  0  0
  3 91  1  0  0  0
  3 92  1  0  0  0
  4  5  1  0  0  0
  4 93  1  0  0  0
  4 94  1  0  0  0
  5  6  1  0  0  0
  5 26  1  0  0  0
  5 95  1  0  0  0
  6 25  1  0  0  0
  6 96  1  0  0  0
  6 97  1  0  0  0
  7  8  2  0  0  0
  7 26  1  0  0  0
  7 29  1  0  0  0
  8  9  1  0  0  0
  8 22  1  0  0  0
  9 10  1  0  0  0
  9 27  2  0  0  0
 10 11  2  0  0  0
 10 15  1  0  0  0
 11 12  1  0  0  0
 11 98  1  0  0  0
 12 13  2  0  0  0
 12 99  1  0  0  0
 13 14  1  0  0  0
 13 31  1  0  0  0
 14 15  2  0  0  0
 14100  1  0  0  0
 15101  1  0  0  0
 16 17  2  0  0  0
 16 21  1  0  0  0
 16 31  1  0  0  0
 17 18  1  0  0  0
 17102  1  0  0  0
 18 19  2  0  0  0
 18103  1  0  0  0
 19 20  1  0  0  0
 19 24  1  0  0  0
 20 21  2  0  0  0
 20104  1  0  0  0
 21 23  1  0  0  0
 22 28  1  0  0  0
 22 32  2  0  0  0
 26 27  1  0  0  0
 28105  1  0  0  0
 28106  1  0  0  0
 29107  1  0  0  0
 29108  1  0  0  0
 33 34  1  0  0  0
 33 66  1  0  0  0
 33 70  2  0  0  0
 34 36  1  0  0  0
 34 59  1  0  0  0
 34109  1  0  0  0
 35 44  2  0  0  0
 35 45  1  0  0  0
 35 68  1  0  0  0
 36 56  1  0  0  0
 36110  1  0  0  0
 37 39  1  0  0  0
 37 47  1  0  0  0
 37 66  1  0  0  0
 37111  1  0  0  0
 38 43  2  0  0  0
 38 46  1  0  0  0
 38 47  1  0  0  0
 39 64  1  0  0  0
 39 67  2  0  0  0
 40 52  1  0  0  0
 40 53  2  0  0  0
 40 58  1  0  0  0
 41112  1  0  0  0
 41113  1  0  0  0
 41114  1  0  0  0
 41 48  1  0  0  0
 42 43  1  0  0  0
 42 66  1  0  0  0
 42115  1  0  0  0
 42116  1  0  0  0
 43 44  1  0  0  0
 44117  1  0  0  0
 45 46  2  0  0  0
 45118  1  0  0  0
 46119  1  0  0  0
 47120  1  0  0  0
 47121  1  0  0  0
 48 56  1  0  0  0
 48 65  1  0  0  0
 48122  1  0  0  0
 49 50  1  0  0  0
 49 53  1  0  0  0
 49 64  1  0  0  0
 49123  1  0  0  0
 50 51  1  0  0  0
 50124  1  0  0  0
 50125  1  0  0  0
 51 52  1  0  0  0
 51126  1  0  0  0
 51127  1  0  0  0
 52128  1  0  0  0
 52129  1  0  0  0
 53 54  1  0  0  0
 54 55  2  0  0  0
 54130  1  0  0  0
 55 57  1  0  0  0
 55131  1  0  0  0
 56 69  2  0  0  0
 57 58  2  0  0  0
 57132  1  0  0  0
 58133  1  0  0  0
 59 60  1  0  0  0
 59 61  1  0  0  0
 59 62  1  0  0  0
 60134  1  0  0  0
 60135  1  0  0  0
 60136  1  0  0  0
 61137  1  0  0  0
 61138  1  0  0  0
 61139  1  0  0  0
 62140  1  0  0  0
 62141  1  0  0  0
 62142  1  0  0  0
 63 65  1  0  0  0
 63143  1  0  0  0
 63144  1  0  0  0
 63145  1  0  0  0
 64146  1  0  0  0
 65147  1  0  0  0
 68 85  1  0  0  0
 71 72  2  0  0  0
 71 74  1  0  0  0
 71148  1  0  0  0
 72 75  1  0  0  0
 72149  1  0  0  0
 73 74  2  0  0  0
 73 76  1  0  0  0
 73150  1  0  0  0
 74 82  1  0  0  0
 75 76  2  0  0  0
 75 84  1  0  0  0
 76 86  1  0  0  0
 77 85  1  0  0  0
 77 87  1  0  0  0
 77 88  2  0  0  0
 78 80  1  0  0  0
 78 82  1  0  0  0
 78151  1  0  0  0
 78152  1  0  0  0
 79 81  1  0  0  0
 79 82  1  0  0  0
 79153  1  0  0  0
 79154  1  0  0  0
 80 83  1  0  0  0
 80155  1  0  0  0
 80156  1  0  0  0
 81 83  1  0  0  0
 81157  1  0  0  0
 81158  1  0  0  0
 82159  1  0  0  0
 83 87  1  0  0  0
 83160  1  0  0  0
 84161  1  0  0  0
 84162  1  0  0  0
 84163  1  0  0  0
 85164  1  0  0  0
 85165  1  0  0  0
 86166  1  0  0  0
 87167  1  0  0  0
M  ISO  4   1 100  68 101  85 101  86 100
M  END
> <chiral flag>
0

> <version>
0

> <s_m_source_file>
/data/baiqing/PycharmProjects/Reinvent-master-3.2/result/LINK_invent/BTK/process_docking_weight1_custom_product_contain_oxygen_bond_distance_aromatic_linkinvent_7_9_3/rearranged_h_0027.sdf

> <i_m_source_file_index>
50

> <r_mmod_Potential_Energy-OPLS-2005>
-47.494384765625

> <r_mmod_Stretch_Energy-OPLS-2005>
36.8342971801758

> <r_mmod_Bend_Energy-OPLS-2005>
105.506332397461

> <r_mmod_Torsional_Energy-OPLS-2005>
267.407379150391

> <r_mmod_Improper_Torsional_Energy-OPLS-2005>
9.85461521148682

> <r_mmod_Van_der_Waal_Energy-OPLS-2005>
159.703399658203

> <r_mmod_Electrostatic_Energy-OPLS-2005>
-417.052581787109

> <r_mmod_Solvation_Energy-OPLS-2005>
-240.138137817383

> <b_mmod_Minimization_Converged-OPLS-2005>
0

> <r_mmod_RMS_Derivative-OPLS-2005>
3.23761391639709

$$$$
51
                    3D
 Structure written by MMmdl.
159167  0  0  1  0            999 V2000
  -30.6860  -14.5238   20.6189 C   0  0  0  0  0  0
  -30.4456  -12.3559   19.4304 C   0  0  0  0  0  0
  -29.5142  -12.5220   18.2109 C   0  0  0  0  0  0
  -28.0337  -12.3576   18.6191 C   0  0  0  0  0  0
  -27.6626  -13.2066   19.8651 C   0  0  2  0  0  0
  -28.7032  -13.0100   20.9907 C   0  0  0  0  0  0
  -25.2613  -13.8138   20.5687 C   0  0  0  0  0  0
  -24.1860  -13.0413   20.9163 C   0  0  0  0  0  0
  -24.6407  -11.6876   20.8655 C   0  0  0  0  0  0
  -23.9082  -10.4261   21.0330 C   0  0  0  0  0  0
  -24.3622   -9.4217   21.9138 C   0  0  0  0  0  0
  -23.6304   -8.2252   22.0742 C   0  0  0  0  0  0
  -22.4299   -8.0269   21.3550 C   0  0  0  0  0  0
  -21.9919   -9.0232   20.4653 C   0  0  0  0  0  0
  -22.7225  -10.2104   20.3011 C   0  0  0  0  0  0
  -21.6874   -6.0736   22.5277 C   0  0  0  0  0  0
  -21.4019   -6.5635   23.8208 C   0  0  0  0  0  0
  -21.3665   -5.6788   24.9178 C   0  0  0  0  0  0
  -21.6048   -4.3058   24.7226 C   0  0  0  0  0  0
  -21.8841   -3.8148   23.4345 C   0  0  0  0  0  0
  -21.9209   -4.6963   22.3402 C   0  0  0  0  0  0
  -22.7892  -13.5227   21.1856 C   0  0  0  0  0  0
  -22.1684   -4.2147   21.0984 F   0  0  0  0  0  0
  -21.5615   -3.4558   25.7747 F   0  0  0  0  0  0
  -30.0333  -13.3370   20.4467 N   0  0  0  0  0  0
  -26.3041  -12.9313   20.3300 N   0  0  0  0  0  0
  -25.9331  -11.6465   20.5665 N   0  0  0  0  0  0
  -22.0550  -12.8189   22.0405 N   0  0  0  0  0  0
  -25.4331  -15.1874   20.4175 N   0  0  0  0  0  0
  -31.8221  -14.7307   20.1823 O   0  0  0  0  0  0
  -21.6661   -6.8874   21.4237 O   0  0  0  0  0  0
  -22.3570  -14.5548   20.6752 O   0  0  0  0  0  0
  -24.6229  -31.8572   23.2143 C   0  0  0  0  0  0
  -25.9129  -32.4751   23.8405 C   0  0  1  0  0  0
  -27.2363  -27.3941   20.0996 C   0  0  0  0  0  0
  -25.5966  -33.8545   24.2360 N   0  0  0  0  0  0
  -23.4070  -30.4912   21.5479 C   0  0  2  0  0  0
  -24.8579  -28.9578   20.1085 C   0  0  0  0  0  0
  -22.7388  -29.4689   22.4949 C   0  0  0  0  0  0
  -18.0278  -28.1394   22.8466 C   0  0  0  0  0  0
  -24.1486  -36.7342   23.2641 C   0  0  0  0  0  0
  -25.9420  -30.8154   21.3719 C   0  0  0  0  0  0
  -26.0183  -29.4468   20.7217 C   0  0  0  0  0  0
  -27.2043  -28.6694   20.7230 C   0  0  0  0  0  0
  -26.0557  -26.9508   19.4519 C   0  0  0  0  0  0
  -24.8759  -27.7112   19.4677 C   0  0  0  0  0  0
  -23.6170  -29.8216   20.1644 C   0  0  0  0  0  0
  -25.4092  -36.3056   24.0333 C   0  0  1  0  0  0
  -20.5858  -28.3699   23.1299 C   0  0  2  0  0  0
  -20.6769  -26.9433   22.5389 C   0  0  0  0  0  0
  -19.5790  -26.6398   21.5160 C   0  0  0  0  0  0
  -18.1956  -26.7950   22.1562 C   0  0  0  0  0  0
  -19.1512  -28.8868   23.2891 C   0  0  0  0  0  0
  -18.9441  -30.1459   23.8943 C   0  0  0  0  0  0
  -17.6434  -30.6599   24.0577 C   0  0  0  0  0  0
  -25.8999  -34.9419   23.5119 C   0  0  0  0  0  0
  -16.5332  -29.9079   23.6354 C   0  0  0  0  0  0
  -16.7258  -28.6493   23.0377 C   0  0  0  0  0  0
  -26.4534  -31.6555   25.0754 C   0  0  0  0  0  0
  -25.3809  -31.3604   26.1514 C   0  0  0  0  0  0
  -27.0421  -30.3008   24.6199 C   0  0  0  0  0  0
  -27.6129  -32.4258   25.7515 C   0  0  0  0  0  0
  -27.5573  -37.1803   24.8458 C   0  0  0  0  0  0
  -21.4116  -29.3083   22.3710 N   0  0  0  0  0  0
  -26.4274  -37.3749   23.9390 N   0  0  0  0  0  0
  -24.6757  -31.0672   22.1035 N   0  0  0  0  0  0
  -23.4116  -28.8207   23.3001 O   0  0  0  0  0  0
  -28.3904  -26.6139   20.1515 O   0  0  0  0  0  0
  -26.5515  -34.8880   22.4643 O   0  0  0  0  0  0
  -23.5428  -32.1310   23.7558 O   0  0  0  0  0  0
  -30.9586  -18.4102   23.2850 C   0  0  0  0  0  0
  -30.8503  -17.0904   22.7991 C   0  0  0  0  0  0
  -29.8355  -17.9549   20.7657 C   0  0  0  0  0  0
  -29.9034  -19.2978   21.2561 C   0  0  0  0  0  0
  -30.4725  -19.5148   22.5474 C   0  0  0  0  0  0
  -30.2737  -16.8460   21.5360 C   0  0  0  0  0  0
  -29.2806  -20.3826   20.4439 C   0  0  0  0  0  0
  -30.5331  -20.8856   23.2218 C   0  0  0  0  0  0
  -29.3326  -24.2212   20.3015 C   0  0  0  0  0  0
  -29.1628  -22.8115   19.6561 C   0  0  0  0  0  0
  -28.2938  -25.2287   19.7321 C   0  0  0  0  0  0
  -28.1997  -20.0914   19.7215 N   0  0  0  0  0  0
  -29.9262  -15.5091   21.1520 N   0  0  0  0  0  0
  -29.7326  -21.6618   20.4218 N   0  3  0  0  0  0
  -31.4872  -12.4847   19.1281 H   0  0  0  0  0  0
  -30.3696  -11.3466   19.8340 H   0  0  0  0  0  0
  -29.7724  -11.7890   17.4463 H   0  0  0  0  0  0
  -29.6759  -13.5029   17.7588 H   0  0  0  0  0  0
  -27.8625  -11.3010   18.8292 H   0  0  0  0  0  0
  -27.3858  -12.6061   17.7793 H   0  0  0  0  0  0
  -27.6958  -14.2503   19.5505 H   0  0  0  0  0  0
  -28.6900  -11.9784   21.3465 H   0  0  0  0  0  0
  -28.4398  -13.6171   21.8567 H   0  0  0  0  0  0
  -25.2765   -9.5732   22.4720 H   0  0  0  0  0  0
  -24.0048   -7.4660   22.7455 H   0  0  0  0  0  0
  -21.0863   -8.8724   19.8961 H   0  0  0  0  0  0
  -22.3661  -10.9638   19.6124 H   0  0  0  0  0  0
  -21.2004   -7.6134   23.9723 H   0  0  0  0  0  0
  -21.1466   -6.0511   25.9086 H   0  0  0  0  0  0
  -22.0614   -2.7608   23.2857 H   0  0  0  0  0  0
  -22.4187  -11.9827   22.4717 H   0  0  0  0  0  0
  -21.1150  -13.1190   22.2591 H   0  0  0  0  0  0
  -24.6628  -15.8371   20.5358 H   0  0  0  0  0  0
  -26.2835  -15.6402   20.1067 H   0  0  0  0  0  0
  -26.7198  -32.5430   23.1173 H   0  0  0  0  0  0
  -25.0189  -33.9649   25.0561 H   0  0  0  0  0  0
  -22.7035  -31.3154   21.4084 H   0  0  0  0  0  0
  -23.3689  -35.9738   23.3267 H   0  0  0  0  0  0
  -24.3631  -36.8979   22.2066 H   0  0  0  0  0  0
  -23.7277  -37.6557   23.6666 H   0  0  0  0  0  0
  -26.0518  -31.5817   20.6018 H   0  0  0  0  0  0
  -26.8297  -30.8695   21.9918 H   0  0  0  0  0  0
  -28.0914  -29.0307   21.2224 H   0  0  0  0  0  0
  -26.0110  -26.0137   18.9189 H   0  0  0  0  0  0
  -23.9934  -27.3348   18.9685 H   0  0  0  0  0  0
  -23.7177  -30.5909   19.3996 H   0  0  0  0  0  0
  -22.7410  -29.2384   19.8734 H   0  0  0  0  0  0
  -25.1259  -36.1910   25.0817 H   0  0  0  0  0  0
  -20.9965  -28.3263   24.1408 H   0  0  0  0  0  0
  -20.5662  -26.2282   23.3542 H   0  0  0  0  0  0
  -21.6645  -26.7480   22.1208 H   0  0  0  0  0  0
  -19.6965  -25.6293   21.1224 H   0  0  0  0  0  0
  -19.6792  -27.3175   20.6665 H   0  0  0  0  0  0
  -17.4204  -26.6687   21.3966 H   0  0  0  0  0  0
  -18.0431  -26.0072   22.8955 H   0  0  0  0  0  0
  -19.7902  -30.7263   24.2342 H   0  0  0  0  0  0
  -17.4979  -31.6283   24.5153 H   0  0  0  0  0  0
  -15.5335  -30.2977   23.7695 H   0  0  0  0  0  0
  -15.8641  -28.0797   22.7136 H   0  0  0  0  0  0
  -24.6074  -30.6838   25.7860 H   0  0  0  0  0  0
  -24.8937  -32.2718   26.4967 H   0  0  0  0  0  0
  -25.8223  -30.8800   27.0260 H   0  0  0  0  0  0
  -26.2994  -29.6648   24.1375 H   0  0  0  0  0  0
  -27.4283  -29.7363   25.4699 H   0  0  0  0  0  0
  -27.8771  -30.4314   23.9324 H   0  0  0  0  0  0
  -27.2813  -33.3570   26.2105 H   0  0  0  0  0  0
  -28.3964  -32.6737   25.0350 H   0  0  0  0  0  0
  -28.0776  -31.8325   26.5408 H   0  0  0  0  0  0
  -28.2543  -38.0139   24.7482 H   0  0  0  0  0  0
  -28.1077  -36.2644   24.6263 H   0  0  0  0  0  0
  -27.2286  -37.1459   25.8860 H   0  0  0  0  0  0
  -20.9251  -29.8816   21.6963 H   0  0  0  0  0  0
  -26.0145  -38.2805   24.1400 H   0  0  0  0  0  0
  -31.3780  -18.5660   24.2703 H   0  0  0  0  0  0
  -31.1610  -16.2727   23.4355 H   0  0  0  0  0  0
  -29.3766  -17.7584   19.8085 H   0  0  0  0  0  0
  -30.7252  -20.7953   24.2921 H   0  0  0  0  0  0
  -29.5911  -21.4277   23.1281 H   0  0  0  0  0  0
  -31.3352  -21.4932   22.8018 H   0  0  0  0  0  0
  -30.3398  -24.5857   20.0964 H   0  0  0  0  0  0
  -29.2259  -24.1550   21.3860 H   0  0  0  0  0  0
  -29.5780  -22.8157   18.6469 H   0  0  0  0  0  0
  -28.0954  -22.6338   19.5343 H   0  0  0  0  0  0
  -27.3293  -24.8153   20.0235 H   0  0  0  0  0  0
  -28.3432  -25.2076   18.6444 H   0  0  0  0  0  0
  -27.8202  -19.1580   19.7714 H   0  0  0  0  0  0
  -27.7086  -20.7725   19.1682 H   0  0  0  0  0  0
  -28.9731  -15.2403   21.3439 H   0  0  0  0  0  0
  -30.6115  -21.8147   20.8983 H   0  0  0  0  0  0
  1 25  1  0  0  0
  1 30  2  0  0  0
  1 83  1  0  0  0
  2  3  1  0  0  0
  2 25  1  0  0  0
  2 85  1  0  0  0
  2 86  1  0  0  0
  3  4  1  0  0  0
  3 87  1  0  0  0
  3 88  1  0  0  0
  4  5  1  0  0  0
  4 89  1  0  0  0
  4 90  1  0  0  0
  5  6  1  0  0  0
  5 26  1  0  0  0
  5 91  1  0  0  0
  6 25  1  0  0  0
  6 92  1  0  0  0
  6 93  1  0  0  0
  7  8  2  0  0  0
  7 26  1  0  0  0
  7 29  1  0  0  0
  8  9  1  0  0  0
  8 22  1  0  0  0
  9 10  1  0  0  0
  9 27  2  0  0  0
 10 11  2  0  0  0
 10 15  1  0  0  0
 11 12  1  0  0  0
 11 94  1  0  0  0
 12 13  2  0  0  0
 12 95  1  0  0  0
 13 14  1  0  0  0
 13 31  1  0  0  0
 14 15  2  0  0  0
 14 96  1  0  0  0
 15 97  1  0  0  0
 16 17  2  0  0  0
 16 21  1  0  0  0
 16 31  1  0  0  0
 17 18  1  0  0  0
 17 98  1  0  0  0
 18 19  2  0  0  0
 18 99  1  0  0  0
 19 20  1  0  0  0
 19 24  1  0  0  0
 20 21  2  0  0  0
 20100  1  0  0  0
 21 23  1  0  0  0
 22 28  1  0  0  0
 22 32  2  0  0  0
 26 27  1  0  0  0
 28101  1  0  0  0
 28102  1  0  0  0
 29103  1  0  0  0
 29104  1  0  0  0
 33 34  1  0  0  0
 33 66  1  0  0  0
 33 70  2  0  0  0
 34 36  1  0  0  0
 34 59  1  0  0  0
 34105  1  0  0  0
 35 44  2  0  0  0
 35 45  1  0  0  0
 35 68  1  0  0  0
 36 56  1  0  0  0
 36106  1  0  0  0
 37 39  1  0  0  0
 37 47  1  0  0  0
 37 66  1  0  0  0
 37107  1  0  0  0
 38 43  2  0  0  0
 38 46  1  0  0  0
 38 47  1  0  0  0
 39 64  1  0  0  0
 39 67  2  0  0  0
 40 52  1  0  0  0
 40 53  2  0  0  0
 40 58  1  0  0  0
 41108  1  0  0  0
 41109  1  0  0  0
 41110  1  0  0  0
 41 48  1  0  0  0
 42 43  1  0  0  0
 42 66  1  0  0  0
 42111  1  0  0  0
 42112  1  0  0  0
 43 44  1  0  0  0
 44113  1  0  0  0
 45 46  2  0  0  0
 45114  1  0  0  0
 46115  1  0  0  0
 47116  1  0  0  0
 47117  1  0  0  0
 48 56  1  0  0  0
 48 65  1  0  0  0
 48118  1  0  0  0
 49 50  1  0  0  0
 49 53  1  0  0  0
 49 64  1  0  0  0
 49119  1  0  0  0
 50 51  1  0  0  0
 50120  1  0  0  0
 50121  1  0  0  0
 51 52  1  0  0  0
 51122  1  0  0  0
 51123  1  0  0  0
 52124  1  0  0  0
 52125  1  0  0  0
 53 54  1  0  0  0
 54 55  2  0  0  0
 54126  1  0  0  0
 55 57  1  0  0  0
 55127  1  0  0  0
 56 69  2  0  0  0
 57 58  2  0  0  0
 57128  1  0  0  0
 58129  1  0  0  0
 59 60  1  0  0  0
 59 61  1  0  0  0
 59 62  1  0  0  0
 60130  1  0  0  0
 60131  1  0  0  0
 60132  1  0  0  0
 61133  1  0  0  0
 61134  1  0  0  0
 61135  1  0  0  0
 62136  1  0  0  0
 62137  1  0  0  0
 62138  1  0  0  0
 63 65  1  0  0  0
 63139  1  0  0  0
 63140  1  0  0  0
 63141  1  0  0  0
 64142  1  0  0  0
 65143  1  0  0  0
 68 81  1  0  0  0
 71 72  2  0  0  0
 71 75  1  0  0  0
 71144  1  0  0  0
 72 76  1  0  0  0
 72145  1  0  0  0
 73 74  1  0  0  0
 73 76  2  0  0  0
 73146  1  0  0  0
 74 75  2  0  0  0
 74 77  1  0  0  0
 75 78  1  0  0  0
 76 83  1  0  0  0
 77 82  1  0  0  0
 77 84  2  0  0  0
 78147  1  0  0  0
 78148  1  0  0  0
 78149  1  0  0  0
 79 80  1  0  0  0
 79 81  1  0  0  0
 79150  1  0  0  0
 79151  1  0  0  0
 80 84  1  0  0  0
 80152  1  0  0  0
 80153  1  0  0  0
 81154  1  0  0  0
 81155  1  0  0  0
 82156  1  0  0  0
 82157  1  0  0  0
 83158  1  0  0  0
 84159  1  0  0  0
M  CHG  1  84   1
M  ISO  4   1 100  68 101  81 101  83 100
M  END
> <chiral flag>
0

> <version>
0

> <s_m_source_file>
/data/baiqing/PycharmProjects/Reinvent-master-3.2/result/LINK_invent/BTK/process_docking_weight1_custom_product_contain_oxygen_bond_distance_aromatic_linkinvent_7_9_3/rearranged_h_0027.sdf

> <i_m_source_file_index>
51

> <r_mmod_Potential_Energy-OPLS-2005>
-199.314025878906

> <r_mmod_Stretch_Energy-OPLS-2005>
48.8166313171387

> <r_mmod_Bend_Energy-OPLS-2005>
110.469284057617

> <r_mmod_Torsional_Energy-OPLS-2005>
233.003997802734

> <r_mmod_Improper_Torsional_Energy-OPLS-2005>
5.40645599365234

> <r_mmod_Van_der_Waal_Energy-OPLS-2005>
164.308883666992

> <r_mmod_Electrostatic_Energy-OPLS-2005>
-358.347869873047

> <r_mmod_Solvation_Energy-OPLS-2005>
-425.434387207031

> <b_mmod_Minimization_Converged-OPLS-2005>
0

> <r_mmod_RMS_Derivative-OPLS-2005>
4.35342788696289

$$$$
52
                    3D
 Structure written by MMmdl.
176186  0  0  1  0            999 V2000
  -30.6474  -14.5567   20.5543 C   0  0  0  0  0  0
  -30.4370  -12.3491   19.4299 C   0  0  0  0  0  0
  -29.5006  -12.5049   18.2102 C   0  0  0  0  0  0
  -28.0227  -12.3512   18.6203 C   0  0  0  0  0  0
  -27.6594  -13.2009   19.8666 C   0  0  2  0  0  0
  -28.7036  -12.9992   20.9890 C   0  0  0  0  0  0
  -25.2528  -13.8059   20.5512 C   0  0  0  0  0  0
  -24.1830  -13.0379   20.9175 C   0  0  0  0  0  0
  -24.6400  -11.6859   20.8756 C   0  0  0  0  0  0
  -23.9066  -10.4258   21.0422 C   0  0  0  0  0  0
  -24.3616   -9.4178   21.9194 C   0  0  0  0  0  0
  -23.6286   -8.2217   22.0765 C   0  0  0  0  0  0
  -22.4265   -8.0265   21.3563 C   0  0  0  0  0  0
  -21.9907   -9.0233   20.4651 C   0  0  0  0  0  0
  -22.7245  -10.2111   20.3057 C   0  0  0  0  0  0
  -21.6850   -6.0738   22.5278 C   0  0  0  0  0  0
  -21.4011   -6.5645   23.8214 C   0  0  0  0  0  0
  -21.3646   -5.6794   24.9175 C   0  0  0  0  0  0
  -21.6043   -4.3062   24.7229 C   0  0  0  0  0  0
  -21.8815   -3.8150   23.4351 C   0  0  0  0  0  0
  -21.9196   -4.6965   22.3404 C   0  0  0  0  0  0
  -22.7861  -13.5198   21.1823 C   0  0  0  0  0  0
  -22.1664   -4.2151   21.0983 F   0  0  0  0  0  0
  -21.5622   -3.4537   25.7745 F   0  0  0  0  0  0
  -30.0273  -13.3416   20.4395 N   0  0  0  0  0  0
  -26.3001  -12.9247   20.3293 N   0  0  0  0  0  0
  -25.9332  -11.6429   20.5791 N   0  0  0  0  0  0
  -22.0511  -12.8223   22.0386 N   0  0  0  0  0  0
  -25.4115  -15.1717   20.3599 N   0  0  0  0  0  0
  -31.7855  -14.7555   20.1198 O   0  0  0  0  0  0
  -21.6632   -6.8874   21.4245 O   0  0  0  0  0  0
  -22.3557  -14.5516   20.6676 O   0  0  0  0  0  0
  -24.6170  -31.8644   23.2060 C   0  0  0  0  0  0
  -25.9046  -32.4800   23.8372 C   0  0  1  0  0  0
  -27.2314  -27.3989   20.1247 C   0  0  0  0  0  0
  -25.5858  -33.8604   24.2294 N   0  0  0  0  0  0
  -23.4109  -30.4902   21.5436 C   0  0  2  0  0  0
  -24.8613  -28.9566   20.1103 C   0  0  0  0  0  0
  -22.7455  -29.4663   22.4933 C   0  0  0  0  0  0
  -18.0313  -28.1421   22.8520 C   0  0  0  0  0  0
  -24.1477  -36.7266   23.2657 C   0  0  0  0  0  0
  -25.9435  -30.8271   21.3623 C   0  0  0  0  0  0
  -26.0241  -29.4609   20.7078 C   0  0  0  0  0  0
  -27.2196  -28.6966   20.7006 C   0  0  0  0  0  0
  -26.0617  -26.9337   19.4947 C   0  0  0  0  0  0
  -24.8779  -27.6945   19.4919 C   0  0  0  0  0  0
  -23.6236  -29.8246   20.1593 C   0  0  0  0  0  0
  -25.4105  -36.3088   24.0359 C   0  0  1  0  0  0
  -20.5908  -28.3680   23.1303 C   0  0  2  0  0  0
  -20.6812  -26.9396   22.5427 C   0  0  0  0  0  0
  -19.5775  -26.6396   21.5238 C   0  0  0  0  0  0
  -18.1940  -26.7986   22.1630 C   0  0  0  0  0  0
  -19.1575  -28.8875   23.2920 C   0  0  0  0  0  0
  -18.9500  -30.1484   23.8912 C   0  0  0  0  0  0
  -17.6497  -30.6618   24.0585 C   0  0  0  0  0  0
  -25.9038  -34.9459   23.5133 C   0  0  0  0  0  0
  -16.5381  -29.9120   23.6339 C   0  0  0  0  0  0
  -16.7305  -28.6549   23.0351 C   0  0  0  0  0  0
  -26.4481  -31.6590   25.0696 C   0  0  0  0  0  0
  -25.3720  -31.3737   26.1428 C   0  0  0  0  0  0
  -27.0315  -30.3027   24.6059 C   0  0  0  0  0  0
  -27.6048  -32.4306   25.7448 C   0  0  0  0  0  0
  -27.5574  -37.1787   24.8493 C   0  0  0  0  0  0
  -21.4180  -29.3032   22.3671 N   0  0  0  0  0  0
  -26.4286  -37.3765   23.9441 N   0  0  0  0  0  0
  -24.6750  -31.0754   22.0958 N   0  0  0  0  0  0
  -23.4211  -28.8224   23.2997 O   0  0  0  0  0  0
  -28.3288  -26.5467   20.1116 O   0  0  0  0  0  0
  -26.5602  -34.8937   22.4689 O   0  0  0  0  0  0
  -23.5347  -32.1379   23.7425 O   0  0  0  0  0  0
  -31.0804  -19.1843   20.8302 C   0  0  0  0  0  0
  -31.0649  -17.7636   20.7062 C   0  0  0  0  0  0
  -28.8146  -17.7224   21.5878 C   0  0  0  0  0  0
  -29.9517  -19.9181   21.2956 C   0  0  0  0  0  0
  -29.9377  -16.9939   21.0996 C   0  0  0  0  0  0
  -28.8153  -19.1407   21.6404 C   0  0  0  0  0  0
  -29.6227  -23.6835   20.4628 C   0  0  0  0  0  0
  -31.4468  -22.0889   23.3308 C   0  0  0  0  0  0
  -26.8998  -25.0799   22.5092 C   0  0  0  0  0  0
  -31.3529  -23.1649   22.2613 C   0  0  0  0  0  0
  -27.9330  -26.1951   22.5708 C   0  0  0  0  0  0
  -30.1427  -21.3454   23.1398 C   0  0  0  0  0  0
  -27.7134  -23.8922   22.0021 C   0  0  0  0  0  0
  -30.5595  -22.5334   21.0734 C   0  0  2  0  0  0
  -28.8287  -25.9555   21.3209 C   0  0  2  0  0  0
  -27.5777  -17.0201   22.1261 C   0  0  0  0  0  0
  -31.6241  -22.1726   20.0025 C   0  0  0  0  0  0
  -30.2422  -26.5373   21.5221 C   0  0  0  0  0  0
  -29.9332  -21.3034   21.6885 N   0  0  0  0  0  0
  -28.8351  -24.4638   21.2619 N   0  0  0  0  0  0
  -29.8589  -15.5434   21.0615 N   0  0  0  0  0  0
  -29.7269  -23.9615   19.2644 O   0  0  0  0  0  0
  -27.7132  -19.7763   22.1155 F   0  0  0  0  0  0
  -31.4777  -12.4724   19.1260 H   0  0  0  0  0  0
  -30.3630  -11.3406   19.8392 H   0  0  0  0  0  0
  -29.7528  -11.7700   17.4444 H   0  0  0  0  0  0
  -29.6509  -13.4837   17.7523 H   0  0  0  0  0  0
  -27.8453  -11.2954   18.8286 H   0  0  0  0  0  0
  -27.3698  -12.6052   17.7847 H   0  0  0  0  0  0
  -27.6958  -14.2442   19.5542 H   0  0  0  0  0  0
  -28.6984  -11.9602   21.3214 H   0  0  0  0  0  0
  -28.4481  -13.5836   21.8730 H   0  0  0  0  0  0
  -25.2764   -9.5654   22.4772 H   0  0  0  0  0  0
  -23.9991   -7.4611   22.7492 H   0  0  0  0  0  0
  -21.0845   -8.8756   19.8958 H   0  0  0  0  0  0
  -22.3709  -10.9651   19.6160 H   0  0  0  0  0  0
  -21.1998   -7.6154   23.9721 H   0  0  0  0  0  0
  -21.1469   -6.0527   25.9082 H   0  0  0  0  0  0
  -22.0608   -2.7609   23.2848 H   0  0  0  0  0  0
  -22.4132  -11.9869   22.4746 H   0  0  0  0  0  0
  -21.1128  -13.1259   22.2612 H   0  0  0  0  0  0
  -24.6115  -15.7941   20.3878 H   0  0  0  0  0  0
  -26.2134  -15.5803   19.8959 H   0  0  0  0  0  0
  -26.7108  -32.5509   23.1131 H   0  0  0  0  0  0
  -25.0057  -33.9762   25.0473 H   0  0  0  0  0  0
  -22.6996  -31.3073   21.4008 H   0  0  0  0  0  0
  -23.3760  -35.9571   23.3331 H   0  0  0  0  0  0
  -24.3595  -36.8840   22.2073 H   0  0  0  0  0  0
  -23.7205  -37.6468   23.6646 H   0  0  0  0  0  0
  -26.0614  -31.5926   20.5952 H   0  0  0  0  0  0
  -26.8309  -30.8761   21.9819 H   0  0  0  0  0  0
  -28.1168  -29.0830   21.1640 H   0  0  0  0  0  0
  -26.0659  -25.9577   19.0326 H   0  0  0  0  0  0
  -23.9850  -27.3022   19.0213 H   0  0  0  0  0  0
  -23.7296  -30.5973   19.3974 H   0  0  0  0  0  0
  -22.7496  -29.2451   19.8593 H   0  0  0  0  0  0
  -25.1272  -36.1950   25.0849 H   0  0  0  0  0  0
  -21.0037  -28.3264   24.1416 H   0  0  0  0  0  0
  -20.5727  -26.2271   23.3619 H   0  0  0  0  0  0
  -21.6675  -26.7462   22.1181 H   0  0  0  0  0  0
  -19.6903  -25.6306   21.1246 H   0  0  0  0  0  0
  -19.6734  -27.3253   20.6798 H   0  0  0  0  0  0
  -17.4219  -26.6784   21.4005 H   0  0  0  0  0  0
  -18.0288  -26.0147   22.9028 H   0  0  0  0  0  0
  -19.7973  -30.7315   24.2256 H   0  0  0  0  0  0
  -17.5063  -31.6306   24.5181 H   0  0  0  0  0  0
  -15.5385  -30.3026   23.7702 H   0  0  0  0  0  0
  -15.8709  -28.0886   22.7031 H   0  0  0  0  0  0
  -24.5939  -30.7009   25.7803 H   0  0  0  0  0  0
  -24.8863  -32.2903   26.4769 H   0  0  0  0  0  0
  -25.8044  -30.9022   27.0259 H   0  0  0  0  0  0
  -26.2863  -29.6791   24.1101 H   0  0  0  0  0  0
  -27.4123  -29.7249   25.4497 H   0  0  0  0  0  0
  -27.8663  -30.4370   23.9188 H   0  0  0  0  0  0
  -27.2675  -33.3641   26.1975 H   0  0  0  0  0  0
  -28.3875  -32.6809   25.0271 H   0  0  0  0  0  0
  -28.0666  -31.8447   26.5412 H   0  0  0  0  0  0
  -28.2595  -38.0077   24.7514 H   0  0  0  0  0  0
  -28.1051  -36.2603   24.6321 H   0  0  0  0  0  0
  -27.2301  -37.1437   25.8899 H   0  0  0  0  0  0
  -20.9342  -29.8679   21.6835 H   0  0  0  0  0  0
  -26.0175  -38.2829   24.1458 H   0  0  0  0  0  0
  -32.0147  -19.6729   20.6165 H   0  0  0  0  0  0
  -31.9595  -17.2721   20.3543 H   0  0  0  0  0  0
  -31.5598  -22.4904   24.3378 H   0  0  0  0  0  0
  -32.2892  -21.4252   23.1319 H   0  0  0  0  0  0
  -26.1060  -25.3294   21.8047 H   0  0  0  0  0  0
  -26.4354  -24.8868   23.4790 H   0  0  0  0  0  0
  -32.3371  -23.5455   21.9866 H   0  0  0  0  0  0
  -30.8309  -24.0020   22.7178 H   0  0  0  0  0  0
  -28.5448  -26.0347   23.4600 H   0  0  0  0  0  0
  -27.5181  -27.1936   22.6756 H   0  0  0  0  0  0
  -29.3232  -21.8564   23.6418 H   0  0  0  0  0  0
  -30.2132  -20.3671   23.6235 H   0  0  0  0  0  0
  -27.1150  -23.2252   21.3773 H   0  0  0  0  0  0
  -28.0803  -23.3297   22.8528 H   0  0  0  0  0  0
  -26.7581  -17.1404   21.4214 H   0  0  0  0  0  0
  -27.2707  -17.4845   23.0649 H   0  0  0  0  0  0
  -27.7176  -15.9594   22.3356 H   0  0  0  0  0  0
  -32.0291  -23.0604   19.5151 H   0  0  0  0  0  0
  -31.2273  -21.5297   19.2172 H   0  0  0  0  0  0
  -32.4977  -21.6937   20.4428 H   0  0  0  0  0  0
  -30.6855  -26.1910   22.4536 H   0  0  0  0  0  0
  -30.1865  -27.6268   21.5633 H   0  0  0  0  0  0
  -30.8936  -26.2641   20.6913 H   0  0  0  0  0  0
  -28.9779  -15.1753   21.3817 H   0  0  0  0  0  0
  1 25  1  0  0  0
  1 30  2  0  0  0
  1 91  1  0  0  0
  2  3  1  0  0  0
  2 25  1  0  0  0
  2 94  1  0  0  0
  2 95  1  0  0  0
  3  4  1  0  0  0
  3 96  1  0  0  0
  3 97  1  0  0  0
  4  5  1  0  0  0
  4 98  1  0  0  0
  4 99  1  0  0  0
  5  6  1  0  0  0
  5 26  1  0  0  0
  5100  1  0  0  0
  6 25  1  0  0  0
  6101  1  0  0  0
  6102  1  0  0  0
  7  8  2  0  0  0
  7 26  1  0  0  0
  7 29  1  0  0  0
  8  9  1  0  0  0
  8 22  1  0  0  0
  9 10  1  0  0  0
  9 27  2  0  0  0
 10 11  2  0  0  0
 10 15  1  0  0  0
 11 12  1  0  0  0
 11103  1  0  0  0
 12 13  2  0  0  0
 12104  1  0  0  0
 13 14  1  0  0  0
 13 31  1  0  0  0
 14 15  2  0  0  0
 14105  1  0  0  0
 15106  1  0  0  0
 16 17  2  0  0  0
 16 21  1  0  0  0
 16 31  1  0  0  0
 17 18  1  0  0  0
 17107  1  0  0  0
 18 19  2  0  0  0
 18108  1  0  0  0
 19 20  1  0  0  0
 19 24  1  0  0  0
 20 21  2  0  0  0
 20109  1  0  0  0
 21 23  1  0  0  0
 22 28  1  0  0  0
 22 32  2  0  0  0
 26 27  1  0  0  0
 28110  1  0  0  0
 28111  1  0  0  0
 29112  1  0  0  0
 29113  1  0  0  0
 33 34  1  0  0  0
 33 66  1  0  0  0
 33 70  2  0  0  0
 34 36  1  0  0  0
 34 59  1  0  0  0
 34114  1  0  0  0
 35 44  2  0  0  0
 35 45  1  0  0  0
 35 68  1  0  0  0
 36 56  1  0  0  0
 36115  1  0  0  0
 37 39  1  0  0  0
 37 47  1  0  0  0
 37 66  1  0  0  0
 37116  1  0  0  0
 38 43  2  0  0  0
 38 46  1  0  0  0
 38 47  1  0  0  0
 39 64  1  0  0  0
 39 67  2  0  0  0
 40 52  1  0  0  0
 40 53  2  0  0  0
 40 58  1  0  0  0
 41117  1  0  0  0
 41118  1  0  0  0
 41119  1  0  0  0
 41 48  1  0  0  0
 42 43  1  0  0  0
 42 66  1  0  0  0
 42120  1  0  0  0
 42121  1  0  0  0
 43 44  1  0  0  0
 44122  1  0  0  0
 45 46  2  0  0  0
 45123  1  0  0  0
 46124  1  0  0  0
 47125  1  0  0  0
 47126  1  0  0  0
 48 56  1  0  0  0
 48 65  1  0  0  0
 48127  1  0  0  0
 49 50  1  0  0  0
 49 53  1  0  0  0
 49 64  1  0  0  0
 49128  1  0  0  0
 50 51  1  0  0  0
 50129  1  0  0  0
 50130  1  0  0  0
 51 52  1  0  0  0
 51131  1  0  0  0
 51132  1  0  0  0
 52133  1  0  0  0
 52134  1  0  0  0
 53 54  1  0  0  0
 54 55  2  0  0  0
 54135  1  0  0  0
 55 57  1  0  0  0
 55136  1  0  0  0
 56 69  2  0  0  0
 57 58  2  0  0  0
 57137  1  0  0  0
 58138  1  0  0  0
 59 60  1  0  0  0
 59 61  1  0  0  0
 59 62  1  0  0  0
 60139  1  0  0  0
 60140  1  0  0  0
 60141  1  0  0  0
 61142  1  0  0  0
 61143  1  0  0  0
 61144  1  0  0  0
 62145  1  0  0  0
 62146  1  0  0  0
 62147  1  0  0  0
 63 65  1  0  0  0
 63148  1  0  0  0
 63149  1  0  0  0
 63150  1  0  0  0
 64151  1  0  0  0
 65152  1  0  0  0
 68 85  1  0  0  0
 71 72  2  0  0  0
 71 74  1  0  0  0
 71153  1  0  0  0
 72 75  1  0  0  0
 72154  1  0  0  0
 73 75  2  0  0  0
 73 76  1  0  0  0
 73 86  1  0  0  0
 74 76  2  0  0  0
 74 89  1  0  0  0
 75 91  1  0  0  0
 76 93  1  0  0  0
 77 90  1  0  0  0
 77 92  2  0  0  0
 77 84  1  0  0  0
 78 80  1  0  0  0
 78 82  1  0  0  0
 78155  1  0  0  0
 78156  1  0  0  0
 79 81  1  0  0  0
 79 83  1  0  0  0
 79157  1  0  0  0
 79158  1  0  0  0
 80 84  1  0  0  0
 80159  1  0  0  0
 80160  1  0  0  0
 81 85  1  0  0  0
 81161  1  0  0  0
 81162  1  0  0  0
 82 89  1  0  0  0
 82163  1  0  0  0
 82164  1  0  0  0
 83 90  1  0  0  0
 83165  1  0  0  0
 83166  1  0  0  0
 84 87  1  0  0  0
 84 89  1  0  0  0
 85 88  1  0  0  0
 85 90  1  0  0  0
 86167  1  0  0  0
 86168  1  0  0  0
 86169  1  0  0  0
 87170  1  0  0  0
 87171  1  0  0  0
 87172  1  0  0  0
 88173  1  0  0  0
 88174  1  0  0  0
 88175  1  0  0  0
 91176  1  0  0  0
M  ISO  4   1 100  68 101  85 101  91 100
M  END
> <chiral flag>
0

> <version>
0

> <s_m_source_file>
/data/baiqing/PycharmProjects/Reinvent-master-3.2/result/LINK_invent/BTK/process_docking_weight1_custom_product_contain_oxygen_bond_distance_aromatic_linkinvent_7_9_3/rearranged_h_0027.sdf

> <i_m_source_file_index>
52

> <r_mmod_Potential_Energy-OPLS-2005>
418.00341796875

> <r_mmod_Stretch_Energy-OPLS-2005>
79.0643844604492

> <r_mmod_Bend_Energy-OPLS-2005>
237.672927856445

> <r_mmod_Torsional_Energy-OPLS-2005>
456.272674560547

> <r_mmod_Improper_Torsional_Energy-OPLS-2005>
12.2318840026855

> <r_mmod_Van_der_Waal_Energy-OPLS-2005>
160.004013061523

> <r_mmod_Electrostatic_Energy-OPLS-2005>
-334.169494628906

> <r_mmod_Solvation_Energy-OPLS-2005>
-218.305786132812

> <b_mmod_Minimization_Converged-OPLS-2005>
0

> <r_mmod_RMS_Derivative-OPLS-2005>
3.90601396560669

$$$$
53
                    3D
 Structure written by MMmdl.
150158  0  0  1  0            999 V2000
  -30.4204  -15.1809   20.3748 C   0  0  0  0  0  0
  -30.4500  -12.7441   19.5206 C   0  0  0  0  0  0
  -29.5353  -12.5585   18.2825 C   0  0  0  0  0  0
  -28.0825  -12.2845   18.7131 C   0  0  0  0  0  0
  -27.6187  -13.2560   19.8267 C   0  0  2  0  0  0
  -28.6532  -13.3776   20.9656 C   0  0  0  0  0  0
  -25.2428  -13.8214   20.5700 C   0  0  0  0  0  0
  -24.1762  -13.0436   20.9230 C   0  0  0  0  0  0
  -24.6385  -11.6922   20.8755 C   0  0  0  0  0  0
  -23.9074  -10.4290   21.0410 C   0  0  0  0  0  0
  -24.3615   -9.4206   21.9194 C   0  0  0  0  0  0
  -23.6282   -8.2245   22.0769 C   0  0  0  0  0  0
  -22.4269   -8.0273   21.3549 C   0  0  0  0  0  0
  -21.9900   -9.0252   20.4655 C   0  0  0  0  0  0
  -22.7241  -10.2129   20.3063 C   0  0  0  0  0  0
  -21.6845   -6.0723   22.5279 C   0  0  0  0  0  0
  -21.4016   -6.5634   23.8209 C   0  0  0  0  0  0
  -21.3663   -5.6792   24.9175 C   0  0  0  0  0  0
  -21.6039   -4.3051   24.7229 C   0  0  0  0  0  0
  -21.8821   -3.8137   23.4351 C   0  0  0  0  0  0
  -21.9192   -4.6951   22.3405 C   0  0  0  0  0  0
  -22.7784  -13.5205   21.1869 C   0  0  0  0  0  0
  -22.1655   -4.2137   21.0983 F   0  0  0  0  0  0
  -21.5628   -3.4538   25.7744 F   0  0  0  0  0  0
  -29.8998  -13.8655   20.3561 N   0  0  0  0  0  0
  -26.2836  -12.9450   20.3188 N   0  0  0  0  0  0
  -25.9314  -11.6577   20.5715 N   0  0  0  0  0  0
  -22.0423  -12.8210   22.0427 N   0  0  0  0  0  0
  -25.4092  -15.1940   20.4102 N   0  0  0  0  0  0
  -31.6310  -15.2522   20.1185 O   0  0  0  0  0  0
  -21.6636   -6.8867   21.4239 O   0  0  0  0  0  0
  -22.3479  -14.5517   20.6707 O   0  0  0  0  0  0
  -24.6604  -31.8271   23.1705 C   0  0  0  0  0  0
  -25.9308  -32.4600   23.8163 C   0  0  1  0  0  0
  -27.2240  -26.9795   20.1720 C   0  0  0  0  0  0
  -25.5994  -33.8412   24.2079 N   0  0  0  0  0  0
  -23.4722  -30.4389   21.5189 C   0  0  2  0  0  0
  -24.9247  -28.8325   20.1082 C   0  0  0  0  0  0
  -22.7651  -29.4453   22.4775 C   0  0  0  0  0  0
  -18.0322  -28.1395   22.8435 C   0  0  0  0  0  0
  -24.1510  -36.7219   23.2643 C   0  0  0  0  0  0
  -26.0368  -30.6503   21.3917 C   0  0  0  0  0  0
  -26.1073  -29.2449   20.7349 C   0  0  0  0  0  0
  -27.2532  -28.3383   20.7423 C   0  0  0  0  0  0
  -26.0140  -26.7041   19.4984 C   0  0  0  0  0  0
  -24.8994  -27.5806   19.4713 C   0  0  0  0  0  0
  -23.7099  -29.7570   20.1437 C   0  0  0  0  0  0
  -25.4135  -36.2964   24.0305 C   0  0  1  0  0  0
  -20.5943  -28.3736   23.1170 C   0  0  2  0  0  0
  -20.6805  -26.9422   22.5381 C   0  0  0  0  0  0
  -19.5790  -26.6371   21.5179 C   0  0  0  0  0  0
  -18.1965  -26.7919   22.1588 C   0  0  0  0  0  0
  -19.1589  -28.8880   23.2790 C   0  0  0  0  0  0
  -18.9504  -30.1463   23.8835 C   0  0  0  0  0  0
  -17.6505  -30.6581   24.0542 C   0  0  0  0  0  0
  -25.9099  -34.9354   23.5007 C   0  0  0  0  0  0
  -16.5389  -29.9078   23.6328 C   0  0  0  0  0  0
  -16.7312  -28.6497   23.0341 C   0  0  0  0  0  0
  -26.4576  -31.6519   25.0668 C   0  0  0  0  0  0
  -25.3724  -31.3754   26.1344 C   0  0  0  0  0  0
  -27.0460  -30.2888   24.6361 C   0  0  0  0  0  0
  -27.6078  -32.4315   25.7470 C   0  0  0  0  0  0
  -27.5573  -37.1757   24.8464 C   0  0  0  0  0  0
  -21.4324  -29.3042   22.3540 N   0  0  0  0  0  0
  -26.4281  -37.3703   23.9420 N   0  0  0  0  0  0
  -24.7437  -30.9994   22.0804 N   0  0  0  0  0  0
  -23.4218  -28.8016   23.2998 O   0  0  0  0  0  0
  -28.2461  -25.9126   20.2545 O   0  0  0  0  0  0
  -26.5699  -34.8886   22.4598 O   0  0  0  0  0  0
  -23.5687  -32.1225   23.6833 O   0  0  0  0  0  0
  -30.2460  -20.4138   19.9061 C   0  0  0  0  0  0
  -30.4408  -18.9415   19.9437 C   0  0  0  0  0  0
  -28.3275  -18.7415   20.8378 C   0  0  0  0  0  0
  -29.0887  -21.1998   20.3337 C   0  0  0  0  0  0
  -28.1303  -20.2170   20.8139 C   0  0  0  0  0  0
  -29.4936  -17.9573   20.4300 C   0  0  0  0  0  0
  -26.8256  -20.7605   21.3670 C   0  0  0  0  0  0
  -29.0842  -22.9350   20.4691 C   0  0  0  0  0  0
  -28.0330  -24.3050   20.0698 C   0  0  0  0  0  0
  -29.5538  -16.3549   20.5178 N   0  0  0  0  0  0
  -31.4702  -12.9529   19.1942 H   0  0  0  0  0  0
  -30.5093  -11.8223   20.1022 H   0  0  0  0  0  0
  -29.9029  -11.7444   17.6555 H   0  0  0  0  0  0
  -29.5676  -13.4595   17.6690 H   0  0  0  0  0  0
  -28.0389  -11.2591   19.0836 H   0  0  0  0  0  0
  -27.4117  -12.3257   17.8549 H   0  0  0  0  0  0
  -27.5511  -14.2315   19.3439 H   0  0  0  0  0  0
  -28.7982  -12.4238   21.4746 H   0  0  0  0  0  0
  -28.3066  -14.0815   21.7234 H   0  0  0  0  0  0
  -25.2755   -9.5676   22.4773 H   0  0  0  0  0  0
  -23.9975   -7.4644   22.7502 H   0  0  0  0  0  0
  -21.0826   -8.8780   19.8967 H   0  0  0  0  0  0
  -22.3700  -10.9666   19.6169 H   0  0  0  0  0  0
  -21.2015   -7.6143   23.9703 H   0  0  0  0  0  0
  -21.1478   -6.0527   25.9075 H   0  0  0  0  0  0
  -22.0596   -2.7597   23.2861 H   0  0  0  0  0  0
  -22.4014  -11.9874   22.4829 H   0  0  0  0  0  0
  -21.1051  -13.1263   22.2629 H   0  0  0  0  0  0
  -24.6322  -15.8387   20.5051 H   0  0  0  0  0  0
  -26.2389  -15.6294   20.0305 H   0  0  0  0  0  0
  -26.7375  -32.5153   23.0876 H   0  0  0  0  0  0
  -25.0113  -33.9481   25.0212 H   0  0  0  0  0  0
  -22.7830  -31.2685   21.3501 H   0  0  0  0  0  0
  -23.3771  -35.9547   23.3272 H   0  0  0  0  0  0
  -24.3592  -36.8901   22.2066 H   0  0  0  0  0  0
  -23.7276  -37.6401   23.6720 H   0  0  0  0  0  0
  -26.2120  -31.3951   20.6137 H   0  0  0  0  0  0
  -26.8992  -30.7047   22.0439 H   0  0  0  0  0  0
  -28.1517  -28.6533   21.2546 H   0  0  0  0  0  0
  -25.8992  -25.7458   19.0117 H   0  0  0  0  0  0
  -23.9998  -27.2563   18.9663 H   0  0  0  0  0  0
  -23.8652  -30.5277   19.3873 H   0  0  0  0  0  0
  -22.8205  -29.2110   19.8236 H   0  0  0  0  0  0
  -25.1331  -36.1757   25.0792 H   0  0  0  0  0  0
  -21.0016  -28.3351   24.1298 H   0  0  0  0  0  0
  -20.5672  -26.2360   23.3621 H   0  0  0  0  0  0
  -21.6674  -26.7401   22.1202 H   0  0  0  0  0  0
  -19.6962  -25.6268   21.1249 H   0  0  0  0  0  0
  -19.6743  -27.3147   20.6673 H   0  0  0  0  0  0
  -17.4235  -26.6637   21.4000 H   0  0  0  0  0  0
  -18.0377  -26.0073   22.9003 H   0  0  0  0  0  0
  -19.7996  -30.7261   24.2213 H   0  0  0  0  0  0
  -17.5074  -31.6265   24.5149 H   0  0  0  0  0  0
  -15.5389  -30.2965   23.7689 H   0  0  0  0  0  0
  -15.8703  -28.0803   22.7076 H   0  0  0  0  0  0
  -24.5929  -30.7072   25.7667 H   0  0  0  0  0  0
  -24.8887  -32.2942   26.4651 H   0  0  0  0  0  0
  -25.7979  -30.9013   27.0193 H   0  0  0  0  0  0
  -26.3090  -29.6565   24.1389 H   0  0  0  0  0  0
  -27.4039  -29.7254   25.4986 H   0  0  0  0  0  0
  -27.9025  -30.4082   23.9720 H   0  0  0  0  0  0
  -27.2667  -33.3689   26.1876 H   0  0  0  0  0  0
  -28.3973  -32.6752   25.0348 H   0  0  0  0  0  0
  -28.0640  -31.8544   26.5523 H   0  0  0  0  0  0
  -28.2547  -38.0088   24.7504 H   0  0  0  0  0  0
  -28.1108  -36.2611   24.6288 H   0  0  0  0  0  0
  -27.2289  -37.1389   25.8862 H   0  0  0  0  0  0
  -20.9575  -29.8773   21.6708 H   0  0  0  0  0  0
  -26.0130  -38.2762   24.1423 H   0  0  0  0  0  0
  -31.0918  -20.9790   19.5421 H   0  0  0  0  0  0
  -31.3863  -18.5671   19.5773 H   0  0  0  0  0  0
  -27.5003  -18.1633   21.2252 H   0  0  0  0  0  0
  -26.2041  -19.9743   21.7964 H   0  0  0  0  0  0
  -26.2528  -21.2511   20.5788 H   0  0  0  0  0  0
  -27.0199  -21.4935   22.1511 H   0  0  0  0  0  0
  -30.0294  -23.2018   19.9960 H   0  0  0  0  0  0
  -29.2862  -23.0776   21.5304 H   0  0  0  0  0  0
  -27.0850  -24.0956   20.5664 H   0  0  0  0  0  0
  -27.8139  -24.1916   19.0074 H   0  0  0  0  0  0
  -28.6409  -15.9938   20.7489 H   0  0  0  0  0  0
  1 25  1  0  0  0
  1 30  2  0  0  0
  1 80  1  0  0  0
  2  3  1  0  0  0
  2 25  1  0  0  0
  2 81  1  0  0  0
  2 82  1  0  0  0
  3  4  1  0  0  0
  3 83  1  0  0  0
  3 84  1  0  0  0
  4  5  1  0  0  0
  4 85  1  0  0  0
  4 86  1  0  0  0
  5  6  1  0  0  0
  5 26  1  0  0  0
  5 87  1  0  0  0
  6 25  1  0  0  0
  6 88  1  0  0  0
  6 89  1  0  0  0
  7  8  2  0  0  0
  7 26  1  0  0  0
  7 29  1  0  0  0
  8  9  1  0  0  0
  8 22  1  0  0  0
  9 10  1  0  0  0
  9 27  2  0  0  0
 10 11  2  0  0  0
 10 15  1  0  0  0
 11 12  1  0  0  0
 11 90  1  0  0  0
 12 13  2  0  0  0
 12 91  1  0  0  0
 13 14  1  0  0  0
 13 31  1  0  0  0
 14 15  2  0  0  0
 14 92  1  0  0  0
 15 93  1  0  0  0
 16 17  2  0  0  0
 16 21  1  0  0  0
 16 31  1  0  0  0
 17 18  1  0  0  0
 17 94  1  0  0  0
 18 19  2  0  0  0
 18 95  1  0  0  0
 19 20  1  0  0  0
 19 24  1  0  0  0
 20 21  2  0  0  0
 20 96  1  0  0  0
 21 23  1  0  0  0
 22 28  1  0  0  0
 22 32  2  0  0  0
 26 27  1  0  0  0
 28 97  1  0  0  0
 28 98  1  0  0  0
 29 99  1  0  0  0
 29100  1  0  0  0
 33 34  1  0  0  0
 33 66  1  0  0  0
 33 70  2  0  0  0
 34 36  1  0  0  0
 34 59  1  0  0  0
 34101  1  0  0  0
 35 44  2  0  0  0
 35 45  1  0  0  0
 35 68  1  0  0  0
 36 56  1  0  0  0
 36102  1  0  0  0
 37 39  1  0  0  0
 37 47  1  0  0  0
 37 66  1  0  0  0
 37103  1  0  0  0
 38 43  2  0  0  0
 38 46  1  0  0  0
 38 47  1  0  0  0
 39 64  1  0  0  0
 39 67  2  0  0  0
 40 52  1  0  0  0
 40 53  2  0  0  0
 40 58  1  0  0  0
 41104  1  0  0  0
 41105  1  0  0  0
 41106  1  0  0  0
 41 48  1  0  0  0
 42 43  1  0  0  0
 42 66  1  0  0  0
 42107  1  0  0  0
 42108  1  0  0  0
 43 44  1  0  0  0
 44109  1  0  0  0
 45 46  2  0  0  0
 45110  1  0  0  0
 46111  1  0  0  0
 47112  1  0  0  0
 47113  1  0  0  0
 48 56  1  0  0  0
 48 65  1  0  0  0
 48114  1  0  0  0
 49 50  1  0  0  0
 49 53  1  0  0  0
 49 64  1  0  0  0
 49115  1  0  0  0
 50 51  1  0  0  0
 50116  1  0  0  0
 50117  1  0  0  0
 51 52  1  0  0  0
 51118  1  0  0  0
 51119  1  0  0  0
 52120  1  0  0  0
 52121  1  0  0  0
 53 54  1  0  0  0
 54 55  2  0  0  0
 54122  1  0  0  0
 55 57  1  0  0  0
 55123  1  0  0  0
 56 69  2  0  0  0
 57 58  2  0  0  0
 57124  1  0  0  0
 58125  1  0  0  0
 59 60  1  0  0  0
 59 61  1  0  0  0
 59 62  1  0  0  0
 60126  1  0  0  0
 60127  1  0  0  0
 60128  1  0  0  0
 61129  1  0  0  0
 61130  1  0  0  0
 61131  1  0  0  0
 62132  1  0  0  0
 62133  1  0  0  0
 62134  1  0  0  0
 63 65  1  0  0  0
 63135  1  0  0  0
 63136  1  0  0  0
 63137  1  0  0  0
 64138  1  0  0  0
 65139  1  0  0  0
 68 79  1  0  0  0
 71 72  2  0  0  0
 71 74  1  0  0  0
 71140  1  0  0  0
 72 76  1  0  0  0
 72141  1  0  0  0
 73 75  1  0  0  0
 73 76  2  0  0  0
 73142  1  0  0  0
 74 75  2  0  0  0
 74 78  1  0  0  0
 75 77  1  0  0  0
 76 80  1  0  0  0
 77143  1  0  0  0
 77144  1  0  0  0
 77145  1  0  0  0
 78 79  1  0  0  0
 78146  1  0  0  0
 78147  1  0  0  0
 79148  1  0  0  0
 79149  1  0  0  0
 80150  1  0  0  0
M  ISO  4   1 100  68 101  79 101  80 100
M  END
> <chiral flag>
0

> <version>
0

> <s_m_source_file>
/data/baiqing/PycharmProjects/Reinvent-master-3.2/result/LINK_invent/BTK/process_docking_weight1_custom_product_contain_oxygen_bond_distance_aromatic_linkinvent_7_9_3/rearranged_h_0027.sdf

> <i_m_source_file_index>
53

> <r_mmod_Potential_Energy-OPLS-2005>
1016.50677490234

> <r_mmod_Stretch_Energy-OPLS-2005>
451.268981933594

> <r_mmod_Bend_Energy-OPLS-2005>
408.523010253906

> <r_mmod_Torsional_Energy-OPLS-2005>
213.23371887207

> <r_mmod_Improper_Torsional_Energy-OPLS-2005>
5.16562223434448

> <r_mmod_Van_der_Waal_Energy-OPLS-2005>
124.813041687012

> <r_mmod_Electrostatic_Energy-OPLS-2005>
-359.148742675781

> <r_mmod_Solvation_Energy-OPLS-2005>
-209.681030273438

> <b_mmod_Minimization_Converged-OPLS-2005>
0

> <r_mmod_RMS_Derivative-OPLS-2005>
1.93947839736938

$$$$
54
                    3D
 Structure written by MMmdl.
162171  0  0  1  0            999 V2000
  -30.6142  -14.7982   20.5254 C   0  0  0  0  0  0
  -30.4268  -12.5157   19.4726 C   0  0  0  0  0  0
  -29.5056  -12.5492   18.2360 C   0  0  0  0  0  0
  -28.0355  -12.3544   18.6475 C   0  0  0  0  0  0
  -27.6380  -13.2362   19.8576 C   0  0  2  0  0  0
  -28.6825  -13.1803   20.9943 C   0  0  0  0  0  0
  -25.2517  -13.8174   20.5778 C   0  0  0  0  0  0
  -24.1806  -13.0421   20.9223 C   0  0  0  0  0  0
  -24.6391  -11.6904   20.8749 C   0  0  0  0  0  0
  -23.9040  -10.4292   21.0403 C   0  0  0  0  0  0
  -24.3582   -9.4210   21.9190 C   0  0  0  0  0  0
  -23.6267   -8.2236   22.0731 C   0  0  0  0  0  0
  -22.4248   -8.0277   21.3536 C   0  0  0  0  0  0
  -21.9914   -9.0237   20.4608 C   0  0  0  0  0  0
  -22.7221  -10.2136   20.3033 C   0  0  0  0  0  0
  -21.6852   -6.0742   22.5300 C   0  0  0  0  0  0
  -21.4019   -6.5636   23.8238 C   0  0  0  0  0  0
  -21.3664   -5.6787   24.9202 C   0  0  0  0  0  0
  -21.6038   -4.3045   24.7252 C   0  0  0  0  0  0
  -21.8797   -3.8146   23.4366 C   0  0  0  0  0  0
  -21.9188   -4.6972   22.3424 C   0  0  0  0  0  0
  -22.7846  -13.5217   21.1891 C   0  0  0  0  0  0
  -22.1666   -4.2159   21.0998 F   0  0  0  0  0  0
  -21.5626   -3.4510   25.7748 F   0  0  0  0  0  0
  -29.9724  -13.5756   20.4153 N   0  0  0  0  0  0
  -26.2905  -12.9373   20.3293 N   0  0  0  0  0  0
  -25.9304  -11.6513   20.5721 N   0  0  0  0  0  0
  -22.0457  -12.8229   22.0431 N   0  0  0  0  0  0
  -25.4238  -15.1908   20.4346 N   0  0  0  0  0  0
  -31.7804  -14.8897   20.1266 O   0  0  0  0  0  0
  -21.6620   -6.8876   21.4253 O   0  0  0  0  0  0
  -22.3507  -14.5484   20.6682 O   0  0  0  0  0  0
  -24.6304  -31.8556   23.1981 C   0  0  0  0  0  0
  -25.9142  -32.4752   23.8319 C   0  0  1  0  0  0
  -27.2173  -27.2453   20.1699 C   0  0  0  0  0  0
  -25.5939  -33.8558   24.2267 N   0  0  0  0  0  0
  -23.4263  -30.4773   21.5397 C   0  0  2  0  0  0
  -24.8740  -28.9127   20.1249 C   0  0  0  0  0  0
  -22.7499  -29.4609   22.4905 C   0  0  0  0  0  0
  -18.0302  -28.1378   22.8438 C   0  0  0  0  0  0
  -24.1473  -36.7272   23.2654 C   0  0  0  0  0  0
  -25.9716  -30.7686   21.3723 C   0  0  0  0  0  0
  -26.0459  -29.3861   20.7253 C   0  0  0  0  0  0
  -27.2246  -28.5696   20.7314 C   0  0  0  0  0  0
  -26.0247  -26.8316   19.5432 C   0  0  0  0  0  0
  -24.8683  -27.6435   19.5209 C   0  0  0  0  0  0
  -23.6454  -29.8022   20.1597 C   0  0  0  0  0  0
  -25.4108  -36.3075   24.0341 C   0  0  1  0  0  0
  -20.5903  -28.3667   23.1214 C   0  0  2  0  0  0
  -20.6717  -26.9418   22.5267 C   0  0  0  0  0  0
  -19.5781  -26.6737   21.4898 C   0  0  0  0  0  0
  -18.1943  -26.8008   22.1373 C   0  0  0  0  0  0
  -19.1565  -28.8836   23.2830 C   0  0  0  0  0  0
  -18.9513  -30.1427   23.8879 C   0  0  0  0  0  0
  -17.6505  -30.6498   24.0649 C   0  0  0  0  0  0
  -25.9055  -34.9436   23.5113 C   0  0  0  0  0  0
  -16.5390  -29.8994   23.6470 C   0  0  0  0  0  0
  -16.7282  -28.6442   23.0418 C   0  0  0  0  0  0
  -26.4498  -31.6605   25.0719 C   0  0  0  0  0  0
  -25.3720  -31.3760   26.1434 C   0  0  0  0  0  0
  -27.0392  -30.3055   24.6224 C   0  0  0  0  0  0
  -27.6042  -32.4364   25.7528 C   0  0  0  0  0  0
  -27.5554  -37.1790   24.8466 C   0  0  0  0  0  0
  -21.4200  -29.3021   22.3647 N   0  0  0  0  0  0
  -26.4270  -37.3779   23.9417 N   0  0  0  0  0  0
  -24.6961  -31.0539   22.0935 N   0  0  0  0  0  0
  -23.4189  -28.8184   23.3039 O   0  0  0  0  0  0
  -28.3195  -26.3594   20.1820 O   0  0  0  0  0  0
  -26.5611  -34.8915   22.4664 O   0  0  0  0  0  0
  -23.5461  -32.1368   23.7310 O   0  0  0  0  0  0
  -27.7951  -17.9800   18.7332 C   0  0  0  0  0  0
  -28.6058  -16.9550   19.2683 C   0  0  0  0  0  0
  -27.8032  -19.2870   19.2652 C   0  0  0  0  0  0
  -29.4031  -18.5349   20.9511 C   0  0  0  0  0  0
  -28.6491  -19.6421   20.3439 C   0  0  0  0  0  0
  -29.3853  -17.1557   20.4264 C   0  0  0  0  0  0
  -26.8248  -20.3330   18.7425 C   0  0  0  0  0  0
  -26.1677  -21.1356   19.8905 C   0  0  0  0  0  0
  -27.0396  -21.2181   21.1589 C   0  0  0  0  0  0
  -30.1725  -18.8424   22.2251 C   0  0  0  0  0  0
  -28.6673  -23.6302   19.9237 C   0  0  0  0  0  0
  -29.2671  -22.2612   20.6154 C   0  0  0  0  0  0
  -28.1803  -24.9559   20.7331 C   0  0  0  0  0  0
  -28.4501  -21.0031   20.8531 N   0  0  0  0  0  0
  -29.9954  -15.9343   21.0611 N   0  0  0  0  0  0
  -31.4631  -12.6454   19.1572 H   0  0  0  0  0  0
  -30.3892  -11.5368   19.9528 H   0  0  0  0  0  0
  -29.8022  -11.7807   17.5220 H   0  0  0  0  0  0
  -29.6228  -13.5038   17.7181 H   0  0  0  0  0  0
  -27.9067  -11.3005   18.9060 H   0  0  0  0  0  0
  -27.3721  -12.5481   17.8019 H   0  0  0  0  0  0
  -27.6182  -14.2556   19.4809 H   0  0  0  0  0  0
  -28.7317  -12.1718   21.4145 H   0  0  0  0  0  0
  -28.3990  -13.8444   21.8104 H   0  0  0  0  0  0
  -25.2704   -9.5668   22.4817 H   0  0  0  0  0  0
  -23.9951   -7.4610   22.7450 H   0  0  0  0  0  0
  -21.0859   -8.8734   19.8893 H   0  0  0  0  0  0
  -22.3652  -10.9676   19.6148 H   0  0  0  0  0  0
  -21.1993   -7.6135   23.9757 H   0  0  0  0  0  0
  -21.1520   -6.0516   25.9115 H   0  0  0  0  0  0
  -22.0563   -2.7598   23.2868 H   0  0  0  0  0  0
  -22.4039  -11.9869   22.4811 H   0  0  0  0  0  0
  -21.1044  -13.1292   22.2524 H   0  0  0  0  0  0
  -24.6704  -15.8478   20.5965 H   0  0  0  0  0  0
  -26.2959  -15.6443   20.1931 H   0  0  0  0  0  0
  -26.7218  -32.5407   23.1061 H   0  0  0  0  0  0
  -25.0069  -33.9696   25.0413 H   0  0  0  0  0  0
  -22.7235  -31.2997   21.3884 H   0  0  0  0  0  0
  -23.3737  -35.9590   23.3319 H   0  0  0  0  0  0
  -24.3550  -36.8899   22.2056 H   0  0  0  0  0  0
  -23.7198  -37.6473   23.6671 H   0  0  0  0  0  0
  -26.1037  -31.5196   20.5921 H   0  0  0  0  0  0
  -26.8525  -30.8304   22.0006 H   0  0  0  0  0  0
  -28.1264  -28.9372   21.1995 H   0  0  0  0  0  0
  -25.9789  -25.8545   19.0844 H   0  0  0  0  0  0
  -23.9658  -27.2726   19.0589 H   0  0  0  0  0  0
  -23.7746  -30.5715   19.3992 H   0  0  0  0  0  0
  -22.7637  -29.2355   19.8572 H   0  0  0  0  0  0
  -25.1280  -36.1923   25.0830 H   0  0  0  0  0  0
  -20.9997  -28.3239   24.1334 H   0  0  0  0  0  0
  -20.5443  -26.2217   23.3357 H   0  0  0  0  0  0
  -21.6622  -26.7412   22.1155 H   0  0  0  0  0  0
  -19.7038  -25.6905   21.0390 H   0  0  0  0  0  0
  -19.6675  -27.3999   20.6807 H   0  0  0  0  0  0
  -17.4201  -26.6953   21.3763 H   0  0  0  0  0  0
  -18.0351  -26.0047   22.8619 H   0  0  0  0  0  0
  -19.8009  -30.7248   24.2291 H   0  0  0  0  0  0
  -17.5061  -31.6115   24.5363 H   0  0  0  0  0  0
  -15.5368  -30.2827   23.7957 H   0  0  0  0  0  0
  -15.8641  -28.0754   22.7204 H   0  0  0  0  0  0
  -24.5835  -30.7199   25.7722 H   0  0  0  0  0  0
  -24.8959  -32.2939   26.4903 H   0  0  0  0  0  0
  -25.7987  -30.8848   27.0194 H   0  0  0  0  0  0
  -26.3011  -29.6780   24.1218 H   0  0  0  0  0  0
  -27.4085  -29.7331   25.4747 H   0  0  0  0  0  0
  -27.8857  -30.4384   23.9489 H   0  0  0  0  0  0
  -27.2631  -33.3659   26.2120 H   0  0  0  0  0  0
  -28.3857  -32.6977   25.0372 H   0  0  0  0  0  0
  -28.0722  -31.8492   26.5449 H   0  0  0  0  0  0
  -28.2595  -38.0074   24.7507 H   0  0  0  0  0  0
  -28.1042  -36.2599   24.6316 H   0  0  0  0  0  0
  -27.2262  -37.1457   25.8874 H   0  0  0  0  0  0
  -20.9387  -29.8783   21.6892 H   0  0  0  0  0  0
  -26.0147  -38.2858   24.1436 H   0  0  0  0  0  0
  -27.1333  -17.7315   17.9159 H   0  0  0  0  0  0
  -28.5724  -15.9853   18.8006 H   0  0  0  0  0  0
  -26.0571  -19.8923   18.1030 H   0  0  0  0  0  0
  -27.4050  -21.0217   18.1268 H   0  0  0  0  0  0
  -25.2232  -20.6721   20.1914 H   0  0  0  0  0  0
  -25.9063  -22.1317   19.5372 H   0  0  0  0  0  0
  -26.7292  -20.4457   21.8655 H   0  0  0  0  0  0
  -26.8866  -22.1720   21.6681 H   0  0  0  0  0  0
  -30.5351  -19.8690   22.2174 H   0  0  0  0  0  0
  -31.0480  -18.2064   22.3420 H   0  0  0  0  0  0
  -29.5365  -18.7272   23.1050 H   0  0  0  0  0  0
  -27.9247  -23.3748   19.1693 H   0  0  0  0  0  0
  -29.5084  -23.9977   19.3304 H   0  0  0  0  0  0
  -30.1030  -21.9460   19.9876 H   0  0  0  0  0  0
  -29.7316  -22.5344   21.5634 H   0  0  0  0  0  0
  -28.7645  -24.9758   21.6533 H   0  0  0  0  0  0
  -27.1573  -24.7920   21.0767 H   0  0  0  0  0  0
  -30.4680  -16.1806   21.9183 H   0  0  0  0  0  0
  1 25  1  0  0  0
  1 30  2  0  0  0
  1 85  1  0  0  0
  2  3  1  0  0  0
  2 25  1  0  0  0
  2 86  1  0  0  0
  2 87  1  0  0  0
  3  4  1  0  0  0
  3 88  1  0  0  0
  3 89  1  0  0  0
  4  5  1  0  0  0
  4 90  1  0  0  0
  4 91  1  0  0  0
  5  6  1  0  0  0
  5 26  1  0  0  0
  5 92  1  0  0  0
  6 25  1  0  0  0
  6 93  1  0  0  0
  6 94  1  0  0  0
  7  8  2  0  0  0
  7 26  1  0  0  0
  7 29  1  0  0  0
  8  9  1  0  0  0
  8 22  1  0  0  0
  9 10  1  0  0  0
  9 27  2  0  0  0
 10 11  2  0  0  0
 10 15  1  0  0  0
 11 12  1  0  0  0
 11 95  1  0  0  0
 12 13  2  0  0  0
 12 96  1  0  0  0
 13 14  1  0  0  0
 13 31  1  0  0  0
 14 15  2  0  0  0
 14 97  1  0  0  0
 15 98  1  0  0  0
 16 17  2  0  0  0
 16 21  1  0  0  0
 16 31  1  0  0  0
 17 18  1  0  0  0
 17 99  1  0  0  0
 18 19  2  0  0  0
 18100  1  0  0  0
 19 20  1  0  0  0
 19 24  1  0  0  0
 20 21  2  0  0  0
 20101  1  0  0  0
 21 23  1  0  0  0
 22 28  1  0  0  0
 22 32  2  0  0  0
 26 27  1  0  0  0
 28102  1  0  0  0
 28103  1  0  0  0
 29104  1  0  0  0
 29105  1  0  0  0
 33 34  1  0  0  0
 33 66  1  0  0  0
 33 70  2  0  0  0
 34 36  1  0  0  0
 34 59  1  0  0  0
 34106  1  0  0  0
 35 44  2  0  0  0
 35 45  1  0  0  0
 35 68  1  0  0  0
 36 56  1  0  0  0
 36107  1  0  0  0
 37 39  1  0  0  0
 37 47  1  0  0  0
 37 66  1  0  0  0
 37108  1  0  0  0
 38 43  2  0  0  0
 38 46  1  0  0  0
 38 47  1  0  0  0
 39 64  1  0  0  0
 39 67  2  0  0  0
 40 52  1  0  0  0
 40 53  2  0  0  0
 40 58  1  0  0  0
 41109  1  0  0  0
 41110  1  0  0  0
 41111  1  0  0  0
 41 48  1  0  0  0
 42 43  1  0  0  0
 42 66  1  0  0  0
 42112  1  0  0  0
 42113  1  0  0  0
 43 44  1  0  0  0
 44114  1  0  0  0
 45 46  2  0  0  0
 45115  1  0  0  0
 46116  1  0  0  0
 47117  1  0  0  0
 47118  1  0  0  0
 48 56  1  0  0  0
 48 65  1  0  0  0
 48119  1  0  0  0
 49 50  1  0  0  0
 49 53  1  0  0  0
 49 64  1  0  0  0
 49120  1  0  0  0
 50 51  1  0  0  0
 50121  1  0  0  0
 50122  1  0  0  0
 51 52  1  0  0  0
 51123  1  0  0  0
 51124  1  0  0  0
 52125  1  0  0  0
 52126  1  0  0  0
 53 54  1  0  0  0
 54 55  2  0  0  0
 54127  1  0  0  0
 55 57  1  0  0  0
 55128  1  0  0  0
 56 69  2  0  0  0
 57 58  2  0  0  0
 57129  1  0  0  0
 58130  1  0  0  0
 59 60  1  0  0  0
 59 61  1  0  0  0
 59 62  1  0  0  0
 60131  1  0  0  0
 60132  1  0  0  0
 60133  1  0  0  0
 61134  1  0  0  0
 61135  1  0  0  0
 61136  1  0  0  0
 62137  1  0  0  0
 62138  1  0  0  0
 62139  1  0  0  0
 63 65  1  0  0  0
 63140  1  0  0  0
 63141  1  0  0  0
 63142  1  0  0  0
 64143  1  0  0  0
 65144  1  0  0  0
 68 83  1  0  0  0
 71 72  2  0  0  0
 71 73  1  0  0  0
 71145  1  0  0  0
 72 76  1  0  0  0
 72146  1  0  0  0
 73 75  2  0  0  0
 73 77  1  0  0  0
 74 75  1  0  0  0
 74 76  2  0  0  0
 74 80  1  0  0  0
 75 84  1  0  0  0
 76 85  1  0  0  0
 77 78  1  0  0  0
 77147  1  0  0  0
 77148  1  0  0  0
 78 79  1  0  0  0
 78149  1  0  0  0
 78150  1  0  0  0
 79 84  1  0  0  0
 79151  1  0  0  0
 79152  1  0  0  0
 80153  1  0  0  0
 80154  1  0  0  0
 80155  1  0  0  0
 81 82  1  0  0  0
 81 83  1  0  0  0
 81156  1  0  0  0
 81157  1  0  0  0
 82 84  1  0  0  0
 82158  1  0  0  0
 82159  1  0  0  0
 83160  1  0  0  0
 83161  1  0  0  0
 85162  1  0  0  0
M  ISO  4   1 100  68 101  83 101  85 100
M  END
> <chiral flag>
0

> <version>
0

> <s_m_source_file>
/data/baiqing/PycharmProjects/Reinvent-master-3.2/result/LINK_invent/BTK/process_docking_weight1_custom_product_contain_oxygen_bond_distance_aromatic_linkinvent_7_9_3/rearranged_h_0027.sdf

> <i_m_source_file_index>
54

> <r_mmod_Potential_Energy-OPLS-2005>
358.784545898438

> <r_mmod_Stretch_Energy-OPLS-2005>
153.511367797852

> <r_mmod_Bend_Energy-OPLS-2005>
229.32698059082

> <r_mmod_Torsional_Energy-OPLS-2005>
350.044189453125

> <r_mmod_Improper_Torsional_Energy-OPLS-2005>
8.23512077331543

> <r_mmod_Van_der_Waal_Energy-OPLS-2005>
134.931701660156

> <r_mmod_Electrostatic_Energy-OPLS-2005>
-408.373840332031

> <r_mmod_Solvation_Energy-OPLS-2005>
-208.146881103516

> <b_mmod_Minimization_Converged-OPLS-2005>
0

> <r_mmod_RMS_Derivative-OPLS-2005>
7.03042316436768

$$$$
55
                    3D
 Structure written by MMmdl.
155164  0  0  1  0            999 V2000
  -30.6243  -14.8362   20.3845 C   0  0  0  0  0  0
  -30.4578  -12.5034   19.5026 C   0  0  0  0  0  0
  -29.5368  -12.4850   18.2599 C   0  0  0  0  0  0
  -28.0615  -12.3088   18.6712 C   0  0  0  0  0  0
  -27.6492  -13.2494   19.8358 C   0  0  2  0  0  0
  -28.6980  -13.2475   20.9746 C   0  0  0  0  0  0
  -25.2523  -13.8191   20.5655 C   0  0  0  0  0  0
  -24.1818  -13.0515   20.9164 C   0  0  0  0  0  0
  -24.6444  -11.6946   20.8739 C   0  0  0  0  0  0
  -23.9082  -10.4317   21.0307 C   0  0  0  0  0  0
  -24.3610   -9.4232   21.9101 C   0  0  0  0  0  0
  -23.6273   -8.2269   22.0714 C   0  0  0  0  0  0
  -22.4245   -8.0275   21.3515 C   0  0  0  0  0  0
  -21.9857   -9.0261   20.4631 C   0  0  0  0  0  0
  -22.7223  -10.2115   20.3013 C   0  0  0  0  0  0
  -21.6879   -6.0702   22.5207 C   0  0  0  0  0  0
  -21.4074   -6.5619   23.8132 C   0  0  0  0  0  0
  -21.3635   -5.6778   24.9099 C   0  0  0  0  0  0
  -21.6035   -4.3037   24.7195 C   0  0  0  0  0  0
  -21.8822   -3.8118   23.4327 C   0  0  0  0  0  0
  -21.9199   -4.6935   22.3382 C   0  0  0  0  0  0
  -22.7771  -13.5262   21.1801 C   0  0  0  0  0  0
  -22.1659   -4.2176   21.0927 F   0  0  0  0  0  0
  -21.5611   -3.4493   25.7659 F   0  0  0  0  0  0
  -30.0028  -13.5963   20.3925 N   0  0  0  0  0  0
  -26.3034  -12.9486   20.3202 N   0  0  0  0  0  0
  -25.9376  -11.6619   20.5658 N   0  0  0  0  0  0
  -22.0454  -12.8276   22.0359 N   0  0  0  0  0  0
  -25.4269  -15.1930   20.4023 N   0  0  0  0  0  0
  -31.7945  -14.9172   20.0079 O   0  0  0  0  0  0
  -21.6631   -6.8863   21.4171 O   0  0  0  0  0  0
  -22.3384  -14.5541   20.6569 O   0  0  0  0  0  0
  -24.6512  -31.8398   23.1893 C   0  0  0  0  0  0
  -25.9233  -32.4656   23.8283 C   0  0  1  0  0  0
  -27.2785  -27.1990   20.0078 C   0  0  0  0  0  0
  -25.5972  -33.8472   24.2148 N   0  0  0  0  0  0
  -23.4510  -30.4565   21.5391 C   0  0  2  0  0  0
  -24.8957  -28.8788   20.1106 C   0  0  0  0  0  0
  -22.7571  -29.4477   22.4928 C   0  0  0  0  0  0
  -18.0307  -28.1369   22.8458 C   0  0  0  0  0  0
  -24.1493  -36.7292   23.2634 C   0  0  0  0  0  0
  -26.0051  -30.7117   21.3803 C   0  0  0  0  0  0
  -26.0809  -29.3285   20.7089 C   0  0  0  0  0  0
  -27.2616  -28.5009   20.6417 C   0  0  0  0  0  0
  -26.0550  -26.8332   19.4109 C   0  0  0  0  0  0
  -24.8856  -27.6257   19.4699 C   0  0  0  0  0  0
  -23.6765  -29.7842   20.1596 C   0  0  0  0  0  0
  -25.4100  -36.3001   24.0301 C   0  0  1  0  0  0
  -20.5911  -28.3687   23.1238 C   0  0  2  0  0  0
  -20.6784  -26.9415   22.5359 C   0  0  0  0  0  0
  -19.5761  -26.6364   21.5168 C   0  0  0  0  0  0
  -18.1954  -26.7914   22.1603 C   0  0  0  0  0  0
  -19.1565  -28.8857   23.2840 C   0  0  0  0  0  0
  -18.9474  -30.1457   23.8887 C   0  0  0  0  0  0
  -17.6478  -30.6572   24.0541 C   0  0  0  0  0  0
  -25.9077  -34.9378   23.5034 C   0  0  0  0  0  0
  -16.5372  -29.9064   23.6312 C   0  0  0  0  0  0
  -16.7291  -28.6463   23.0357 C   0  0  0  0  0  0
  -26.4575  -31.6539   25.0746 C   0  0  0  0  0  0
  -25.3822  -31.3739   26.1518 C   0  0  0  0  0  0
  -27.0398  -30.2912   24.6291 C   0  0  0  0  0  0
  -27.6088  -32.4318   25.7545 C   0  0  0  0  0  0
  -27.5549  -37.1784   24.8448 C   0  0  0  0  0  0
  -21.4276  -29.3032   22.3629 N   0  0  0  0  0  0
  -26.4248  -37.3697   23.9429 N   0  0  0  0  0  0
  -24.7232  -31.0264   22.0900 N   0  0  0  0  0  0
  -23.4179  -28.8008   23.3068 O   0  0  0  0  0  0
  -28.4125  -26.3057   19.9565 O   0  0  0  0  0  0
  -26.5647  -34.8868   22.4610 O   0  0  0  0  0  0
  -23.5609  -32.1275   23.7081 O   0  0  0  0  0  0
  -29.7044  -19.9392   19.6692 C   0  0  0  0  0  0
  -31.7004  -18.9251   20.6154 C   0  0  0  0  0  0
  -31.5423  -21.3717   20.3374 C   0  0  0  0  0  0
  -30.4006  -18.7325   20.0849 C   0  0  0  0  0  0
  -30.2317  -21.2860   19.7950 C   0  0  0  0  0  0
  -32.2541  -20.2226   20.7506 C   0  0  0  0  0  0
  -29.2955  -22.9390   18.1347 C   0  0  0  0  0  0
  -28.7481  -24.4015   18.0583 C   0  0  0  0  0  0
  -29.1325  -23.6553   20.3663 C   0  0  0  0  0  0
  -28.3649  -24.8177   19.5323 C   0  0  1  0  0  0
  -29.7274  -17.3023   19.8251 C   0  0  0  0  0  0
  -29.5059  -22.5261   19.4172 N   0  0  0  0  0  0
  -29.8779  -15.9829   20.6117 N   0  0  0  0  0  0
  -29.5070  -22.2661   17.0980 O   0  0  0  0  0  0
  -33.8452  -20.4452   21.4151 Cl  0  0  0  0  0  0
  -31.4987  -12.6292   19.1935 H   0  0  0  0  0  0
  -30.4195  -11.5541   20.0363 H   0  0  0  0  0  0
  -29.8356  -11.6827   17.5852 H   0  0  0  0  0  0
  -29.6514  -13.4076   17.6929 H   0  0  0  0  0  0
  -27.9399  -11.2722   18.9882 H   0  0  0  0  0  0
  -27.3996  -12.4473   17.8147 H   0  0  0  0  0  0
  -27.6232  -14.2537   19.4036 H   0  0  0  0  0  0
  -28.7360  -12.2774   21.4655 H   0  0  0  0  0  0
  -28.4160  -13.9626   21.7518 H   0  0  0  0  0  0
  -25.2773   -9.5699   22.4674 H   0  0  0  0  0  0
  -23.9991   -7.4638   22.7455 H   0  0  0  0  0  0
  -21.0792   -8.8807   19.8949 H   0  0  0  0  0  0
  -22.3696  -10.9637   19.6139 H   0  0  0  0  0  0
  -21.2119   -7.6134   23.9678 H   0  0  0  0  0  0
  -21.1433   -6.0478   25.9032 H   0  0  0  0  0  0
  -22.0652   -2.7584   23.2750 H   0  0  0  0  0  0
  -22.4053  -12.0041   22.4944 H   0  0  0  0  0  0
  -21.1075  -13.1261   22.2547 H   0  0  0  0  0  0
  -24.6680  -15.8602   20.4822 H   0  0  0  0  0  0
  -26.2657  -15.6022   20.0185 H   0  0  0  0  0  0
  -26.7308  -32.5210   23.1021 H   0  0  0  0  0  0
  -25.0147  -33.9556   25.0299 H   0  0  0  0  0  0
  -22.7546  -31.2847   21.3862 H   0  0  0  0  0  0
  -23.3696  -35.9682   23.3298 H   0  0  0  0  0  0
  -24.3609  -36.8941   22.2052 H   0  0  0  0  0  0
  -23.7323  -37.6512   23.6703 H   0  0  0  0  0  0
  -26.1607  -31.4702   20.6137 H   0  0  0  0  0  0
  -26.8755  -30.7523   22.0217 H   0  0  0  0  0  0
  -28.1722  -28.8655   21.0896 H   0  0  0  0  0  0
  -25.9804  -25.9192   18.8487 H   0  0  0  0  0  0
  -23.9861  -27.2548   18.9945 H   0  0  0  0  0  0
  -23.8342  -30.5683   19.4199 H   0  0  0  0  0  0
  -22.7821  -29.2553   19.8280 H   0  0  0  0  0  0
  -25.1285  -36.1826   25.0780 H   0  0  0  0  0  0
  -20.9996  -28.3271   24.1372 H   0  0  0  0  0  0
  -20.5663  -26.2330   23.3571 H   0  0  0  0  0  0
  -21.6649  -26.7444   22.1179 H   0  0  0  0  0  0
  -19.6929  -25.6267   21.1234 H   0  0  0  0  0  0
  -19.6689  -27.3140   20.6671 H   0  0  0  0  0  0
  -17.4212  -26.6652   21.4024 H   0  0  0  0  0  0
  -18.0390  -26.0069   22.9015 H   0  0  0  0  0  0
  -19.7947  -30.7242   24.2278 H   0  0  0  0  0  0
  -17.5032  -31.6279   24.5121 H   0  0  0  0  0  0
  -15.5358  -30.2964   23.7636 H   0  0  0  0  0  0
  -15.8698  -28.0762   22.7111 H   0  0  0  0  0  0
  -24.5890  -30.7198   25.7906 H   0  0  0  0  0  0
  -24.9190  -32.2942   26.5078 H   0  0  0  0  0  0
  -25.8197  -30.8826   27.0218 H   0  0  0  0  0  0
  -26.2952  -29.6676   24.1329 H   0  0  0  0  0  0
  -27.4031  -29.7193   25.4842 H   0  0  0  0  0  0
  -27.8898  -30.4148   23.9570 H   0  0  0  0  0  0
  -27.2617  -33.3540   26.2210 H   0  0  0  0  0  0
  -28.3885  -32.7002   25.0414 H   0  0  0  0  0  0
  -28.0812  -31.8438   26.5422 H   0  0  0  0  0  0
  -28.2537  -38.0081   24.7451 H   0  0  0  0  0  0
  -28.1063  -36.2628   24.6314 H   0  0  0  0  0  0
  -27.2323  -37.1499   25.8851 H   0  0  0  0  0  0
  -20.9483  -29.8873   21.6930 H   0  0  0  0  0  0
  -26.0128  -38.2767   24.1403 H   0  0  0  0  0  0
  -28.7243  -19.8282   19.2340 H   0  0  0  0  0  0
  -32.3089  -18.0716   20.8963 H   0  0  0  0  0  0
  -32.0473  -22.3235   20.4141 H   0  0  0  0  0  0
  -27.8953  -24.4185   17.3770 H   0  0  0  0  0  0
  -29.5485  -25.0177   17.6252 H   0  0  0  0  0  0
  -28.4504  -23.2623   21.1332 H   0  0  0  0  0  0
  -29.9971  -24.0154   20.9416 H   0  0  0  0  0  0
  -27.3236  -24.5039   19.6662 H   0  0  0  0  0  0
  -29.7845  -17.1010   18.7577 H   0  0  0  0  0  0
  -28.6756  -17.5443   19.9869 H   0  0  0  0  0  0
  -29.0109  -15.7655   21.0845 H   0  0  0  0  0  0
  1 25  1  0  0  0
  1 30  2  0  0  0
  1 83  1  0  0  0
  2  3  1  0  0  0
  2 25  1  0  0  0
  2 86  1  0  0  0
  2 87  1  0  0  0
  3  4  1  0  0  0
  3 88  1  0  0  0
  3 89  1  0  0  0
  4  5  1  0  0  0
  4 90  1  0  0  0
  4 91  1  0  0  0
  5  6  1  0  0  0
  5 26  1  0  0  0
  5 92  1  0  0  0
  6 25  1  0  0  0
  6 93  1  0  0  0
  6 94  1  0  0  0
  7  8  2  0  0  0
  7 26  1  0  0  0
  7 29  1  0  0  0
  8  9  1  0  0  0
  8 22  1  0  0  0
  9 10  1  0  0  0
  9 27  2  0  0  0
 10 11  2  0  0  0
 10 15  1  0  0  0
 11 12  1  0  0  0
 11 95  1  0  0  0
 12 13  2  0  0  0
 12 96  1  0  0  0
 13 14  1  0  0  0
 13 31  1  0  0  0
 14 15  2  0  0  0
 14 97  1  0  0  0
 15 98  1  0  0  0
 16 17  2  0  0  0
 16 21  1  0  0  0
 16 31  1  0  0  0
 17 18  1  0  0  0
 17 99  1  0  0  0
 18 19  2  0  0  0
 18100  1  0  0  0
 19 20  1  0  0  0
 19 24  1  0  0  0
 20 21  2  0  0  0
 20101  1  0  0  0
 21 23  1  0  0  0
 22 28  1  0  0  0
 22 32  2  0  0  0
 26 27  1  0  0  0
 28102  1  0  0  0
 28103  1  0  0  0
 29104  1  0  0  0
 29105  1  0  0  0
 33 34  1  0  0  0
 33 66  1  0  0  0
 33 70  2  0  0  0
 34 36  1  0  0  0
 34 59  1  0  0  0
 34106  1  0  0  0
 35 44  2  0  0  0
 35 45  1  0  0  0
 35 68  1  0  0  0
 36 56  1  0  0  0
 36107  1  0  0  0
 37 39  1  0  0  0
 37 47  1  0  0  0
 37 66  1  0  0  0
 37108  1  0  0  0
 38 43  2  0  0  0
 38 46  1  0  0  0
 38 47  1  0  0  0
 39 64  1  0  0  0
 39 67  2  0  0  0
 40 52  1  0  0  0
 40 53  2  0  0  0
 40 58  1  0  0  0
 41109  1  0  0  0
 41110  1  0  0  0
 41111  1  0  0  0
 41 48  1  0  0  0
 42 43  1  0  0  0
 42 66  1  0  0  0
 42112  1  0  0  0
 42113  1  0  0  0
 43 44  1  0  0  0
 44114  1  0  0  0
 45 46  2  0  0  0
 45115  1  0  0  0
 46116  1  0  0  0
 47117  1  0  0  0
 47118  1  0  0  0
 48 56  1  0  0  0
 48 65  1  0  0  0
 48119  1  0  0  0
 49 50  1  0  0  0
 49 53  1  0  0  0
 49 64  1  0  0  0
 49120  1  0  0  0
 50 51  1  0  0  0
 50121  1  0  0  0
 50122  1  0  0  0
 51 52  1  0  0  0
 51123  1  0  0  0
 51124  1  0  0  0
 52125  1  0  0  0
 52126  1  0  0  0
 53 54  1  0  0  0
 54 55  2  0  0  0
 54127  1  0  0  0
 55 57  1  0  0  0
 55128  1  0  0  0
 56 69  2  0  0  0
 57 58  2  0  0  0
 57129  1  0  0  0
 58130  1  0  0  0
 59 60  1  0  0  0
 59 61  1  0  0  0
 59 62  1  0  0  0
 60131  1  0  0  0
 60132  1  0  0  0
 60133  1  0  0  0
 61134  1  0  0  0
 61135  1  0  0  0
 61136  1  0  0  0
 62137  1  0  0  0
 62138  1  0  0  0
 62139  1  0  0  0
 63 65  1  0  0  0
 63140  1  0  0  0
 63141  1  0  0  0
 63142  1  0  0  0
 64143  1  0  0  0
 65144  1  0  0  0
 68 80  1  0  0  0
 71 74  2  0  0  0
 71 75  1  0  0  0
 71145  1  0  0  0
 72 74  1  0  0  0
 72 76  2  0  0  0
 72146  1  0  0  0
 73 75  2  0  0  0
 73 76  1  0  0  0
 73147  1  0  0  0
 74 81  1  0  0  0
 75 82  1  0  0  0
 76 85  1  0  0  0
 77 78  1  0  0  0
 77 82  1  0  0  0
 77 84  2  0  0  0
 78 80  1  0  0  0
 78148  1  0  0  0
 78149  1  0  0  0
 79 80  1  0  0  0
 79 82  1  0  0  0
 79150  1  0  0  0
 79151  1  0  0  0
 80152  1  0  0  0
 81 83  1  0  0  0
 81153  1  0  0  0
 81154  1  0  0  0
 83155  1  0  0  0
M  ISO  4   1 100  68 101  80 101  83 100
M  END
> <chiral flag>
0

> <version>
0

> <s_m_source_file>
/data/baiqing/PycharmProjects/Reinvent-master-3.2/result/LINK_invent/BTK/process_docking_weight1_custom_product_contain_oxygen_bond_distance_aromatic_linkinvent_7_9_3/rearranged_h_0027.sdf

> <i_m_source_file_index>
55

> <r_mmod_Potential_Energy-OPLS-2005>
319.218017578125

> <r_mmod_Stretch_Energy-OPLS-2005>
164.287826538086

> <r_mmod_Bend_Energy-OPLS-2005>
238.880645751953

> <r_mmod_Torsional_Energy-OPLS-2005>
292.960998535156

> <r_mmod_Improper_Torsional_Energy-OPLS-2005>
7.40908432006836

> <r_mmod_Van_der_Waal_Energy-OPLS-2005>
120.573577880859

> <r_mmod_Electrostatic_Energy-OPLS-2005>
-397.417388916016

> <r_mmod_Solvation_Energy-OPLS-2005>
-241.205184936523

> <b_mmod_Minimization_Converged-OPLS-2005>
0

> <r_mmod_RMS_Derivative-OPLS-2005>
19.6014404296875

$$$$
56
                    3D
 Structure written by MMmdl.
169179  0  0  1  0            999 V2000
  -30.5862  -14.8255   20.4533 C   0  0  0  0  0  0
  -30.4400  -12.5119   19.4720 C   0  0  0  0  0  0
  -29.5118  -12.5123   18.2368 C   0  0  0  0  0  0
  -28.0414  -12.3209   18.6565 C   0  0  0  0  0  0
  -27.6360  -13.2360   19.8418 C   0  0  2  0  0  0
  -28.6836  -13.2131   20.9746 C   0  0  0  0  0  0
  -25.2492  -13.8198   20.5693 C   0  0  0  0  0  0
  -24.1796  -13.0436   20.9216 C   0  0  0  0  0  0
  -24.6397  -11.6917   20.8755 C   0  0  0  0  0  0
  -23.9075  -10.4290   21.0412 C   0  0  0  0  0  0
  -24.3620   -9.4203   21.9191 C   0  0  0  0  0  0
  -23.6291   -8.2239   22.0768 C   0  0  0  0  0  0
  -22.4279   -8.0274   21.3543 C   0  0  0  0  0  0
  -21.9909   -9.0255   20.4652 C   0  0  0  0  0  0
  -22.7245  -10.2131   20.3062 C   0  0  0  0  0  0
  -21.6853   -6.0728   22.5279 C   0  0  0  0  0  0
  -21.4012   -6.5635   23.8210 C   0  0  0  0  0  0
  -21.3657   -5.6792   24.9172 C   0  0  0  0  0  0
  -21.6046   -4.3057   24.7226 C   0  0  0  0  0  0
  -21.8818   -3.8144   23.4350 C   0  0  0  0  0  0
  -21.9192   -4.6956   22.3404 C   0  0  0  0  0  0
  -22.7813  -13.5215   21.1864 C   0  0  0  0  0  0
  -22.1662   -4.2146   21.0979 F   0  0  0  0  0  0
  -21.5628   -3.4543   25.7739 F   0  0  0  0  0  0
  -29.9711  -13.5896   20.3775 N   0  0  0  0  0  0
  -26.2920  -12.9417   20.3264 N   0  0  0  0  0  0
  -25.9326  -11.6555   20.5753 N   0  0  0  0  0  0
  -22.0458  -12.8205   22.0417 N   0  0  0  0  0  0
  -25.4141  -15.1924   20.4096 N   0  0  0  0  0  0
  -31.7933  -14.9019   20.2025 O   0  0  0  0  0  0
  -21.6639   -6.8873   21.4241 O   0  0  0  0  0  0
  -22.3497  -14.5522   20.6715 O   0  0  0  0  0  0
  -24.6355  -31.8498   23.1941 C   0  0  0  0  0  0
  -25.9153  -32.4730   23.8308 C   0  0  1  0  0  0
  -27.2087  -27.2002   20.1456 C   0  0  0  0  0  0
  -25.5928  -33.8534   24.2222 N   0  0  0  0  0  0
  -23.4363  -30.4706   21.5395 C   0  0  2  0  0  0
  -24.8831  -28.9132   20.1080 C   0  0  0  0  0  0
  -22.7539  -29.4552   22.4894 C   0  0  0  0  0  0
  -18.0293  -28.1381   22.8472 C   0  0  0  0  0  0
  -24.1490  -36.7272   23.2643 C   0  0  0  0  0  0
  -25.9871  -30.7442   21.3843 C   0  0  0  0  0  0
  -26.0563  -29.3619   20.7268 C   0  0  0  0  0  0
  -27.2204  -28.5184   20.7332 C   0  0  0  0  0  0
  -26.0196  -26.8484   19.4675 C   0  0  0  0  0  0
  -24.8747  -27.6678   19.4637 C   0  0  0  0  0  0
  -23.6569  -29.8058   20.1560 C   0  0  0  0  0  0
  -25.4118  -36.3059   24.0331 C   0  0  1  0  0  0
  -20.5905  -28.3689   23.1260 C   0  0  2  0  0  0
  -20.6779  -26.9401   22.5408 C   0  0  0  0  0  0
  -19.5755  -26.6366   21.5213 C   0  0  0  0  0  0
  -18.1933  -26.7917   22.1623 C   0  0  0  0  0  0
  -19.1553  -28.8857   23.2848 C   0  0  0  0  0  0
  -18.9480  -30.1456   23.8871 C   0  0  0  0  0  0
  -17.6477  -30.6576   24.0557 C   0  0  0  0  0  0
  -25.9070  -34.9429   23.5088 C   0  0  0  0  0  0
  -16.5362  -29.9071   23.6346 C   0  0  0  0  0  0
  -16.7281  -28.6495   23.0354 C   0  0  0  0  0  0
  -26.4499  -31.6569   25.0726 C   0  0  0  0  0  0
  -25.3698  -31.3755   26.1444 C   0  0  0  0  0  0
  -27.0347  -30.2977   24.6247 C   0  0  0  0  0  0
  -27.6040  -32.4321   25.7494 C   0  0  0  0  0  0
  -27.5577  -37.1784   24.8466 C   0  0  0  0  0  0
  -21.4234  -29.3026   22.3649 N   0  0  0  0  0  0
  -26.4283  -37.3761   23.9426 N   0  0  0  0  0  0
  -24.7056  -31.0412   22.0947 N   0  0  0  0  0  0
  -23.4213  -28.8095   23.3015 O   0  0  0  0  0  0
  -28.2782  -26.2581   20.2220 O   0  0  0  0  0  0
  -26.5646  -34.8909   22.4663 O   0  0  0  0  0  0
  -23.5485  -32.1349   23.7197 O   0  0  0  0  0  0
  -31.4870  -19.0773   21.9486 C   0  0  0  0  0  0
  -31.2083  -17.7529   21.5589 C   0  0  0  0  0  0
  -29.5577  -19.9981   20.7186 C   0  0  0  0  0  0
  -29.2777  -18.5932   20.3432 C   0  0  0  0  0  0
  -30.6866  -20.1822   21.5629 C   0  0  0  0  0  0
  -30.0893  -17.4353   20.7648 C   0  0  0  0  0  0
  -32.6359  -22.3481   23.5752 C   0  0  0  0  0  0
  -31.2514  -22.6337   24.1460 C   0  0  0  0  0  0
  -32.3558  -21.9011   22.1362 C   0  0  0  0  0  0
  -30.3963  -21.5876   23.4440 C   0  0  0  0  0  0
  -28.8087  -23.7616   19.2854 C   0  0  0  0  0  0
  -28.5362  -23.7766   21.3345 C   0  0  0  0  0  0
  -28.0137  -24.7439   20.2139 C   0  0  1  0  0  0
  -28.0594  -18.3276   19.4727 C   0  0  0  0  0  0
  -28.6417  -21.2872   20.3043 C   0  0  0  0  0  0
  -30.9574  -21.4552   22.0987 N   0  0  0  0  0  0
  -29.7862  -15.9773   20.5326 N   0  0  0  0  0  0
  -29.1204  -22.7770   20.3773 N   0  3  1  0  0  0
  -31.4755  -12.6604   19.1597 H   0  0  0  0  0  0
  -30.4126  -11.5468   19.9800 H   0  0  0  0  0  0
  -29.8077  -11.7247   17.5425 H   0  0  0  0  0  0
  -29.6182  -13.4537   17.6957 H   0  0  0  0  0  0
  -27.9150  -11.2758   18.9395 H   0  0  0  0  0  0
  -27.3791  -12.4871   17.8058 H   0  0  0  0  0  0
  -27.6129  -14.2480   19.4384 H   0  0  0  0  0  0
  -28.7426  -12.2266   21.4360 H   0  0  0  0  0  0
  -28.4078  -13.9094   21.7681 H   0  0  0  0  0  0
  -25.2764   -9.5682   22.4767 H   0  0  0  0  0  0
  -23.9999   -7.4632   22.7492 H   0  0  0  0  0  0
  -21.0839   -8.8772   19.8956 H   0  0  0  0  0  0
  -22.3704  -10.9669   19.6173 H   0  0  0  0  0  0
  -21.2001   -7.6144   23.9711 H   0  0  0  0  0  0
  -21.1481   -6.0524   25.9077 H   0  0  0  0  0  0
  -22.0599   -2.7607   23.2853 H   0  0  0  0  0  0
  -22.4079  -11.9867   22.4804 H   0  0  0  0  0  0
  -21.1086  -13.1240   22.2639 H   0  0  0  0  0  0
  -24.6372  -15.8372   20.5108 H   0  0  0  0  0  0
  -26.2485  -15.6347   20.0505 H   0  0  0  0  0  0
  -26.7210  -32.5345   23.1031 H   0  0  0  0  0  0
  -25.0067  -33.9661   25.0365 H   0  0  0  0  0  0
  -22.7356  -31.2945   21.3892 H   0  0  0  0  0  0
  -23.3766  -35.9585   23.3286 H   0  0  0  0  0  0
  -24.3586  -36.8931   22.2063 H   0  0  0  0  0  0
  -23.7231  -37.6458   23.6686 H   0  0  0  0  0  0
  -26.1346  -31.5022   20.6134 H   0  0  0  0  0  0
  -26.8608  -30.7906   22.0220 H   0  0  0  0  0  0
  -28.1133  -28.8529   21.2427 H   0  0  0  0  0  0
  -25.9452  -25.9139   18.9322 H   0  0  0  0  0  0
  -23.9826  -27.3276   18.9545 H   0  0  0  0  0  0
  -23.7831  -30.5828   19.4012 H   0  0  0  0  0  0
  -22.7734  -29.2431   19.8481 H   0  0  0  0  0  0
  -25.1294  -36.1893   25.0821 H   0  0  0  0  0  0
  -20.9984  -28.3253   24.1385 H   0  0  0  0  0  0
  -20.5694  -26.2288   23.3611 H   0  0  0  0  0  0
  -21.6635  -26.7406   22.1191 H   0  0  0  0  0  0
  -19.6928  -25.6277   21.1243 H   0  0  0  0  0  0
  -19.6704  -27.3173   20.6744 H   0  0  0  0  0  0
  -17.4204  -26.6674   21.4022 H   0  0  0  0  0  0
  -18.0314  -26.0056   22.9021 H   0  0  0  0  0  0
  -19.7961  -30.7275   24.2219 H   0  0  0  0  0  0
  -17.5035  -31.6262   24.5149 H   0  0  0  0  0  0
  -15.5367  -30.2965   23.7687 H   0  0  0  0  0  0
  -15.8684  -28.0811   22.7079 H   0  0  0  0  0  0
  -24.5864  -30.7118   25.7776 H   0  0  0  0  0  0
  -24.8904  -32.2937   26.4834 H   0  0  0  0  0  0
  -25.7990  -30.8948   27.0243 H   0  0  0  0  0  0
  -26.2936  -29.6729   24.1252 H   0  0  0  0  0  0
  -27.3994  -29.7251   25.4780 H   0  0  0  0  0  0
  -27.8829  -30.4259   23.9524 H   0  0  0  0  0  0
  -27.2656  -33.3663   26.1986 H   0  0  0  0  0  0
  -28.3879  -32.6816   25.0332 H   0  0  0  0  0  0
  -28.0660  -31.8501   26.5479 H   0  0  0  0  0  0
  -28.2563  -38.0104   24.7517 H   0  0  0  0  0  0
  -28.1098  -36.2632   24.6270 H   0  0  0  0  0  0
  -27.2297  -37.1409   25.8866 H   0  0  0  0  0  0
  -20.9430  -29.8767   21.6863 H   0  0  0  0  0  0
  -26.0165  -38.2833   24.1427 H   0  0  0  0  0  0
  -32.3260  -19.2256   22.6134 H   0  0  0  0  0  0
  -31.8496  -16.9693   21.9363 H   0  0  0  0  0  0
  -33.0974  -21.5307   24.1314 H   0  0  0  0  0  0
  -33.3064  -23.2067   23.6288 H   0  0  0  0  0  0
  -30.9261  -23.6392   23.8725 H   0  0  0  0  0  0
  -31.2097  -22.5490   25.2327 H   0  0  0  0  0  0
  -33.0774  -21.1528   21.8040 H   0  0  0  0  0  0
  -32.4658  -22.7505   21.4604 H   0  0  0  0  0  0
  -29.3442  -21.8765   23.4230 H   0  0  0  0  0  0
  -30.4611  -20.6405   23.9861 H   0  0  0  0  0  0
  -29.7196  -24.2089   18.8871 H   0  0  0  0  0  0
  -28.1986  -23.3489   18.4813 H   0  0  0  0  0  0
  -27.7427  -23.3708   21.9618 H   0  0  0  0  0  0
  -29.3158  -24.2280   21.9483 H   0  0  0  0  0  0
  -26.9499  -24.5294   20.1267 H   0  0  0  0  0  0
  -27.1512  -18.6640   19.9737 H   0  0  0  0  0  0
  -27.9336  -17.2720   19.2380 H   0  0  0  0  0  0
  -28.1476  -18.8554   18.5231 H   0  0  0  0  0  0
  -27.7102  -21.2121   20.8656 H   0  0  0  0  0  0
  -28.3541  -21.1202   19.2680 H   0  0  0  0  0  0
  -28.8031  -15.7656   20.4694 H   0  0  0  0  0  0
  -30.1156  -22.7406   20.5524 H   0  0  0  0  0  0
  1 25  1  0  0  0
  1 30  2  0  0  0
  1 87  1  0  0  0
  2  3  1  0  0  0
  2 25  1  0  0  0
  2 89  1  0  0  0
  2 90  1  0  0  0
  3  4  1  0  0  0
  3 91  1  0  0  0
  3 92  1  0  0  0
  4  5  1  0  0  0
  4 93  1  0  0  0
  4 94  1  0  0  0
  5  6  1  0  0  0
  5 26  1  0  0  0
  5 95  1  0  0  0
  6 25  1  0  0  0
  6 96  1  0  0  0
  6 97  1  0  0  0
  7  8  2  0  0  0
  7 26  1  0  0  0
  7 29  1  0  0  0
  8  9  1  0  0  0
  8 22  1  0  0  0
  9 10  1  0  0  0
  9 27  2  0  0  0
 10 11  2  0  0  0
 10 15  1  0  0  0
 11 12  1  0  0  0
 11 98  1  0  0  0
 12 13  2  0  0  0
 12 99  1  0  0  0
 13 14  1  0  0  0
 13 31  1  0  0  0
 14 15  2  0  0  0
 14100  1  0  0  0
 15101  1  0  0  0
 16 17  2  0  0  0
 16 21  1  0  0  0
 16 31  1  0  0  0
 17 18  1  0  0  0
 17102  1  0  0  0
 18 19  2  0  0  0
 18103  1  0  0  0
 19 20  1  0  0  0
 19 24  1  0  0  0
 20 21  2  0  0  0
 20104  1  0  0  0
 21 23  1  0  0  0
 22 28  1  0  0  0
 22 32  2  0  0  0
 26 27  1  0  0  0
 28105  1  0  0  0
 28106  1  0  0  0
 29107  1  0  0  0
 29108  1  0  0  0
 33 34  1  0  0  0
 33 66  1  0  0  0
 33 70  2  0  0  0
 34 36  1  0  0  0
 34 59  1  0  0  0
 34109  1  0  0  0
 35 44  2  0  0  0
 35 45  1  0  0  0
 35 68  1  0  0  0
 36 56  1  0  0  0
 36110  1  0  0  0
 37 39  1  0  0  0
 37 47  1  0  0  0
 37 66  1  0  0  0
 37111  1  0  0  0
 38 43  2  0  0  0
 38 46  1  0  0  0
 38 47  1  0  0  0
 39 64  1  0  0  0
 39 67  2  0  0  0
 40 52  1  0  0  0
 40 53  2  0  0  0
 40 58  1  0  0  0
 41112  1  0  0  0
 41113  1  0  0  0
 41114  1  0  0  0
 41 48  1  0  0  0
 42 43  1  0  0  0
 42 66  1  0  0  0
 42115  1  0  0  0
 42116  1  0  0  0
 43 44  1  0  0  0
 44117  1  0  0  0
 45 46  2  0  0  0
 45118  1  0  0  0
 46119  1  0  0  0
 47120  1  0  0  0
 47121  1  0  0  0
 48 56  1  0  0  0
 48 65  1  0  0  0
 48122  1  0  0  0
 49 50  1  0  0  0
 49 53  1  0  0  0
 49 64  1  0  0  0
 49123  1  0  0  0
 50 51  1  0  0  0
 50124  1  0  0  0
 50125  1  0  0  0
 51 52  1  0  0  0
 51126  1  0  0  0
 51127  1  0  0  0
 52128  1  0  0  0
 52129  1  0  0  0
 53 54  1  0  0  0
 54 55  2  0  0  0
 54130  1  0  0  0
 55 57  1  0  0  0
 55131  1  0  0  0
 56 69  2  0  0  0
 57 58  2  0  0  0
 57132  1  0  0  0
 58133  1  0  0  0
 59 60  1  0  0  0
 59 61  1  0  0  0
 59 62  1  0  0  0
 60134  1  0  0  0
 60135  1  0  0  0
 60136  1  0  0  0
 61137  1  0  0  0
 61138  1  0  0  0
 61139  1  0  0  0
 62140  1  0  0  0
 62141  1  0  0  0
 62142  1  0  0  0
 63 65  1  0  0  0
 63143  1  0  0  0
 63144  1  0  0  0
 63145  1  0  0  0
 64146  1  0  0  0
 65147  1  0  0  0
 68 83  1  0  0  0
 71 72  2  0  0  0
 71 75  1  0  0  0
 71148  1  0  0  0
 72 76  1  0  0  0
 72149  1  0  0  0
 73 74  1  0  0  0
 73 75  2  0  0  0
 73 85  1  0  0  0
 74 76  2  0  0  0
 74 84  1  0  0  0
 75 86  1  0  0  0
 76 87  1  0  0  0
 77 78  1  0  0  0
 77 79  1  0  0  0
 77150  1  0  0  0
 77151  1  0  0  0
 78 80  1  0  0  0
 78152  1  0  0  0
 78153  1  0  0  0
 79 86  1  0  0  0
 79154  1  0  0  0
 79155  1  0  0  0
 80 86  1  0  0  0
 80156  1  0  0  0
 80157  1  0  0  0
 81 83  1  0  0  0
 81 88  1  0  0  0
 81158  1  0  0  0
 81159  1  0  0  0
 82 83  1  0  0  0
 82 88  1  0  0  0
 82160  1  0  0  0
 82161  1  0  0  0
 83162  1  0  0  0
 84163  1  0  0  0
 84164  1  0  0  0
 84165  1  0  0  0
 85166  1  0  0  0
 85167  1  0  0  0
 85 88  1  0  0  0
 87168  1  0  0  0
 88169  1  0  0  0
M  CHG  1  88   1
M  ISO  4   1 100  68 101  83 101  87 100
M  END
> <chiral flag>
0

> <version>
0

> <s_m_source_file>
/data/baiqing/PycharmProjects/Reinvent-master-3.2/result/LINK_invent/BTK/process_docking_weight1_custom_product_contain_oxygen_bond_distance_aromatic_linkinvent_7_9_3/rearranged_h_0027.sdf

> <i_m_source_file_index>
56

> <r_mmod_Potential_Energy-OPLS-2005>
157.157989501953

> <r_mmod_Stretch_Energy-OPLS-2005>
170.528594970703

> <r_mmod_Bend_Energy-OPLS-2005>
240.810012817383

> <r_mmod_Torsional_Energy-OPLS-2005>
344.150238037109

> <r_mmod_Improper_Torsional_Energy-OPLS-2005>
12.7386493682861

> <r_mmod_Van_der_Waal_Energy-OPLS-2005>
139.622909545898

> <r_mmod_Electrostatic_Energy-OPLS-2005>
-440.628540039062

> <r_mmod_Solvation_Energy-OPLS-2005>
-438.682800292969

> <b_mmod_Minimization_Converged-OPLS-2005>
0

> <r_mmod_RMS_Derivative-OPLS-2005>
1.80546653270721

$$$$
57
                    3D
 Structure written by MMmdl.
151159  0  0  1  0            999 V2000
  -30.5144  -14.9178   20.4216 C   0  0  0  0  0  0
  -30.4560  -12.5635   19.4882 C   0  0  0  0  0  0
  -29.5264  -12.5230   18.2513 C   0  0  0  0  0  0
  -28.0577  -12.3107   18.6687 C   0  0  0  0  0  0
  -27.6385  -13.2351   19.8408 C   0  0  2  0  0  0
  -28.6835  -13.2240   20.9781 C   0  0  0  0  0  0
  -25.2517  -13.8197   20.5688 C   0  0  0  0  0  0
  -24.1817  -13.0447   20.9226 C   0  0  0  0  0  0
  -24.6407  -11.6925   20.8751 C   0  0  0  0  0  0
  -23.9077  -10.4301   21.0411 C   0  0  0  0  0  0
  -24.3626   -9.4211   21.9183 C   0  0  0  0  0  0
  -23.6293   -8.2252   22.0756 C   0  0  0  0  0  0
  -22.4274   -8.0294   21.3548 C   0  0  0  0  0  0
  -21.9910   -9.0271   20.4653 C   0  0  0  0  0  0
  -22.7247  -10.2144   20.3061 C   0  0  0  0  0  0
  -21.6856   -6.0735   22.5278 C   0  0  0  0  0  0
  -21.4013   -6.5638   23.8210 C   0  0  0  0  0  0
  -21.3655   -5.6791   24.9175 C   0  0  0  0  0  0
  -21.6042   -4.3053   24.7227 C   0  0  0  0  0  0
  -21.8819   -3.8147   23.4347 C   0  0  0  0  0  0
  -21.9191   -4.6961   22.3399 C   0  0  0  0  0  0
  -22.7834  -13.5231   21.1879 C   0  0  0  0  0  0
  -22.1661   -4.2145   21.0976 F   0  0  0  0  0  0
  -21.5626   -3.4539   25.7741 F   0  0  0  0  0  0
  -29.9688  -13.6382   20.3941 N   0  0  0  0  0  0
  -26.2930  -12.9401   20.3226 N   0  0  0  0  0  0
  -25.9332  -11.6544   20.5721 N   0  0  0  0  0  0
  -22.0471  -12.8227   22.0434 N   0  0  0  0  0  0
  -25.4206  -15.1921   20.4086 N   0  0  0  0  0  0
  -31.7037  -15.0545   20.1122 O   0  0  0  0  0  0
  -21.6645   -6.8885   21.4243 O   0  0  0  0  0  0
  -22.3518  -14.5535   20.6722 O   0  0  0  0  0  0
  -24.6453  -31.8441   23.1886 C   0  0  0  0  0  0
  -25.9228  -32.4687   23.8285 C   0  0  1  0  0  0
  -27.2215  -27.1380   20.1428 C   0  0  0  0  0  0
  -25.5979  -33.8495   24.2202 N   0  0  0  0  0  0
  -23.4494  -30.4652   21.5334 C   0  0  2  0  0  0
  -24.8997  -28.8955   20.1096 C   0  0  0  0  0  0
  -22.7585  -29.4551   22.4839 C   0  0  0  0  0  0
  -18.0323  -28.1388   22.8471 C   0  0  0  0  0  0
  -24.1499  -36.7250   23.2636 C   0  0  0  0  0  0
  -26.0067  -30.7174   21.3895 C   0  0  0  0  0  0
  -26.0784  -29.3297   20.7290 C   0  0  0  0  0  0
  -27.2403  -28.4676   20.7297 C   0  0  0  0  0  0
  -26.0137  -26.8102   19.4837 C   0  0  0  0  0  0
  -24.8804  -27.6480   19.4724 C   0  0  0  0  0  0
  -23.6771  -29.7977   20.1520 C   0  0  0  0  0  0
  -25.4129  -36.3024   24.0310 C   0  0  1  0  0  0
  -20.5936  -28.3723   23.1217 C   0  0  2  0  0  0
  -20.6803  -26.9423   22.5390 C   0  0  0  0  0  0
  -19.5769  -26.6378   21.5203 C   0  0  0  0  0  0
  -18.1958  -26.7921   22.1627 C   0  0  0  0  0  0
  -19.1578  -28.8874   23.2837 C   0  0  0  0  0  0
  -18.9489  -30.1467   23.8864 C   0  0  0  0  0  0
  -17.6484  -30.6578   24.0561 C   0  0  0  0  0  0
  -25.9084  -34.9398   23.5063 C   0  0  0  0  0  0
  -16.5378  -29.9071   23.6329 C   0  0  0  0  0  0
  -16.7306  -28.6494   23.0344 C   0  0  0  0  0  0
  -26.4542  -31.6547   25.0722 C   0  0  0  0  0  0
  -25.3735  -31.3761   26.1429 C   0  0  0  0  0  0
  -27.0384  -30.2926   24.6319 C   0  0  0  0  0  0
  -27.6082  -32.4303   25.7506 C   0  0  0  0  0  0
  -27.5571  -37.1794   24.8473 C   0  0  0  0  0  0
  -21.4276  -29.3050   22.3584 N   0  0  0  0  0  0
  -26.4295  -37.3731   23.9395 N   0  0  0  0  0  0
  -24.7201  -31.0306   22.0916 N   0  0  0  0  0  0
  -23.4223  -28.8097   23.2992 O   0  0  0  0  0  0
  -28.2633  -26.1376   20.2110 O   0  0  0  0  0  0
  -26.5658  -34.8894   22.4634 O   0  0  0  0  0  0
  -23.5572  -32.1322   23.7099 O   0  0  0  0  0  0
  -30.5010  -18.5328   20.1498 C   0  0  0  0  0  0
  -30.2088  -19.9711   20.0805 C   0  0  0  0  0  0
  -28.2809  -18.1368   20.8248 C   0  0  0  0  0  0
  -27.9796  -19.5497   20.7531 C   0  0  0  0  0  0
  -29.5385  -17.5266   20.5263 C   0  0  0  0  0  0
  -28.9240  -20.5643   20.3727 C   0  0  0  0  0  0
  -28.9212  -23.3481   20.2721 C   0  0  0  0  0  0
  -26.5588  -19.9644   21.1017 C   0  0  0  0  0  0
  -27.9030  -24.6331   20.0204 C   0  0  0  0  0  0
  -28.4403  -22.0162   20.2307 N   0  0  0  0  0  0
  -29.6325  -16.0010   20.6400 N   0  0  0  0  0  0
  -30.1160  -23.5721   20.4861 O   0  0  0  0  0  0
  -31.4858  -12.7382   19.1738 H   0  0  0  0  0  0
  -30.4598  -11.6021   20.0044 H   0  0  0  0  0  0
  -29.8392  -11.7314   17.5690 H   0  0  0  0  0  0
  -29.6159  -13.4575   17.6962 H   0  0  0  0  0  0
  -27.9498  -11.2672   18.9676 H   0  0  0  0  0  0
  -27.3954  -12.4519   17.8138 H   0  0  0  0  0  0
  -27.6115  -14.2425   19.4245 H   0  0  0  0  0  0
  -28.7614  -12.2332   21.4284 H   0  0  0  0  0  0
  -28.3849  -13.9001   21.7808 H   0  0  0  0  0  0
  -25.2769   -9.5681   22.4759 H   0  0  0  0  0  0
  -23.9997   -7.4639   22.7478 H   0  0  0  0  0  0
  -21.0831   -8.8796   19.8962 H   0  0  0  0  0  0
  -22.3704  -10.9687   19.6177 H   0  0  0  0  0  0
  -21.2010   -7.6146   23.9710 H   0  0  0  0  0  0
  -21.1472   -6.0525   25.9072 H   0  0  0  0  0  0
  -22.0599   -2.7611   23.2855 H   0  0  0  0  0  0
  -22.4081  -11.9890   22.4828 H   0  0  0  0  0  0
  -21.1089  -13.1261   22.2637 H   0  0  0  0  0  0
  -24.6472  -15.8400   20.5114 H   0  0  0  0  0  0
  -26.2404  -15.6209   20.0005 H   0  0  0  0  0  0
  -26.7297  -32.5292   23.1019 H   0  0  0  0  0  0
  -25.0120  -33.9613   25.0345 H   0  0  0  0  0  0
  -22.7525  -31.2914   21.3793 H   0  0  0  0  0  0
  -23.3744  -35.9602   23.3325 H   0  0  0  0  0  0
  -24.3579  -36.8847   22.2044 H   0  0  0  0  0  0
  -23.7285  -37.6470   23.6650 H   0  0  0  0  0  0
  -26.1686  -31.4734   20.6200 H   0  0  0  0  0  0
  -26.8745  -30.7635   22.0355 H   0  0  0  0  0  0
  -28.1362  -28.7953   21.2380 H   0  0  0  0  0  0
  -25.9003  -25.8626   18.9816 H   0  0  0  0  0  0
  -23.9828  -27.3108   18.9725 H   0  0  0  0  0  0
  -23.8161  -30.5734   19.3977 H   0  0  0  0  0  0
  -22.7919  -29.2419   19.8383 H   0  0  0  0  0  0
  -25.1318  -36.1855   25.0801 H   0  0  0  0  0  0
  -21.0043  -28.3318   24.1332 H   0  0  0  0  0  0
  -20.5693  -26.2339   23.3614 H   0  0  0  0  0  0
  -21.6668  -26.7416   22.1188 H   0  0  0  0  0  0
  -19.6929  -25.6287   21.1238 H   0  0  0  0  0  0
  -19.6689  -27.3181   20.6725 H   0  0  0  0  0  0
  -17.4218  -26.6651   21.4045 H   0  0  0  0  0  0
  -18.0374  -26.0073   22.9037 H   0  0  0  0  0  0
  -19.7967  -30.7295   24.2214 H   0  0  0  0  0  0
  -17.5035  -31.6252   24.5173 H   0  0  0  0  0  0
  -15.5375  -30.2959   23.7666 H   0  0  0  0  0  0
  -15.8712  -28.0804   22.7059 H   0  0  0  0  0  0
  -24.5883  -30.7142   25.7758 H   0  0  0  0  0  0
  -24.8970  -32.2956   26.4835 H   0  0  0  0  0  0
  -25.8020  -30.8936   27.0222 H   0  0  0  0  0  0
  -26.2991  -29.6660   24.1314 H   0  0  0  0  0  0
  -27.3953  -29.7222   25.4906 H   0  0  0  0  0  0
  -27.8930  -30.4126   23.9657 H   0  0  0  0  0  0
  -27.2674  -33.3600   26.2076 H   0  0  0  0  0  0
  -28.3903  -32.6870   25.0347 H   0  0  0  0  0  0
  -28.0742  -31.8436   26.5435 H   0  0  0  0  0  0
  -28.2618  -38.0057   24.7456 H   0  0  0  0  0  0
  -28.1037  -36.2588   24.6381 H   0  0  0  0  0  0
  -27.2280  -37.1537   25.8875 H   0  0  0  0  0  0
  -20.9488  -29.8769   21.6764 H   0  0  0  0  0  0
  -26.0161  -38.2807   24.1355 H   0  0  0  0  0  0
  -31.4990  -18.2091   19.8898 H   0  0  0  0  0  0
  -31.0046  -20.6281   19.7592 H   0  0  0  0  0  0
  -27.4782  -17.4766   21.1222 H   0  0  0  0  0  0
  -26.0229  -19.1654   21.6150 H   0  0  0  0  0  0
  -26.0022  -20.2111   20.1976 H   0  0  0  0  0  0
  -26.5511  -20.8296   21.7648 H   0  0  0  0  0  0
  -27.0215  -24.4334   20.6310 H   0  0  0  0  0  0
  -27.5869  -24.5146   18.9844 H   0  0  0  0  0  0
  -27.4372  -22.0463   20.1106 H   0  0  0  0  0  0
  -28.7418  -15.6070   20.9001 H   0  0  0  0  0  0
  1 25  1  0  0  0
  1 30  2  0  0  0
  1 81  1  0  0  0
  2  3  1  0  0  0
  2 25  1  0  0  0
  2 83  1  0  0  0
  2 84  1  0  0  0
  3  4  1  0  0  0
  3 85  1  0  0  0
  3 86  1  0  0  0
  4  5  1  0  0  0
  4 87  1  0  0  0
  4 88  1  0  0  0
  5  6  1  0  0  0
  5 26  1  0  0  0
  5 89  1  0  0  0
  6 25  1  0  0  0
  6 90  1  0  0  0
  6 91  1  0  0  0
  7  8  2  0  0  0
  7 26  1  0  0  0
  7 29  1  0  0  0
  8  9  1  0  0  0
  8 22  1  0  0  0
  9 10  1  0  0  0
  9 27  2  0  0  0
 10 11  2  0  0  0
 10 15  1  0  0  0
 11 12  1  0  0  0
 11 92  1  0  0  0
 12 13  2  0  0  0
 12 93  1  0  0  0
 13 14  1  0  0  0
 13 31  1  0  0  0
 14 15  2  0  0  0
 14 94  1  0  0  0
 15 95  1  0  0  0
 16 17  2  0  0  0
 16 21  1  0  0  0
 16 31  1  0  0  0
 17 18  1  0  0  0
 17 96  1  0  0  0
 18 19  2  0  0  0
 18 97  1  0  0  0
 19 20  1  0  0  0
 19 24  1  0  0  0
 20 21  2  0  0  0
 20 98  1  0  0  0
 21 23  1  0  0  0
 22 28  1  0  0  0
 22 32  2  0  0  0
 26 27  1  0  0  0
 28 99  1  0  0  0
 28100  1  0  0  0
 29101  1  0  0  0
 29102  1  0  0  0
 33 34  1  0  0  0
 33 66  1  0  0  0
 33 70  2  0  0  0
 34 36  1  0  0  0
 34 59  1  0  0  0
 34103  1  0  0  0
 35 44  2  0  0  0
 35 45  1  0  0  0
 35 68  1  0  0  0
 36 56  1  0  0  0
 36104  1  0  0  0
 37 39  1  0  0  0
 37 47  1  0  0  0
 37 66  1  0  0  0
 37105  1  0  0  0
 38 43  2  0  0  0
 38 46  1  0  0  0
 38 47  1  0  0  0
 39 64  1  0  0  0
 39 67  2  0  0  0
 40 52  1  0  0  0
 40 53  2  0  0  0
 40 58  1  0  0  0
 41106  1  0  0  0
 41107  1  0  0  0
 41108  1  0  0  0
 41 48  1  0  0  0
 42 43  1  0  0  0
 42 66  1  0  0  0
 42109  1  0  0  0
 42110  1  0  0  0
 43 44  1  0  0  0
 44111  1  0  0  0
 45 46  2  0  0  0
 45112  1  0  0  0
 46113  1  0  0  0
 47114  1  0  0  0
 47115  1  0  0  0
 48 56  1  0  0  0
 48 65  1  0  0  0
 48116  1  0  0  0
 49 50  1  0  0  0
 49 53  1  0  0  0
 49 64  1  0  0  0
 49117  1  0  0  0
 50 51  1  0  0  0
 50118  1  0  0  0
 50119  1  0  0  0
 51 52  1  0  0  0
 51120  1  0  0  0
 51121  1  0  0  0
 52122  1  0  0  0
 52123  1  0  0  0
 53 54  1  0  0  0
 54 55  2  0  0  0
 54124  1  0  0  0
 55 57  1  0  0  0
 55125  1  0  0  0
 56 69  2  0  0  0
 57 58  2  0  0  0
 57126  1  0  0  0
 58127  1  0  0  0
 59 60  1  0  0  0
 59 61  1  0  0  0
 59 62  1  0  0  0
 60128  1  0  0  0
 60129  1  0  0  0
 60130  1  0  0  0
 61131  1  0  0  0
 61132  1  0  0  0
 61133  1  0  0  0
 62134  1  0  0  0
 62135  1  0  0  0
 62136  1  0  0  0
 63 65  1  0  0  0
 63137  1  0  0  0
 63138  1  0  0  0
 63139  1  0  0  0
 64140  1  0  0  0
 65141  1  0  0  0
 68 79  1  0  0  0
 71 72  2  0  0  0
 71 75  1  0  0  0
 71142  1  0  0  0
 72 76  1  0  0  0
 72143  1  0  0  0
 73 74  1  0  0  0
 73 75  2  0  0  0
 73144  1  0  0  0
 74 76  2  0  0  0
 74 78  1  0  0  0
 75 81  1  0  0  0
 76 80  1  0  0  0
 77 79  1  0  0  0
 77 80  1  0  0  0
 77 82  2  0  0  0
 78145  1  0  0  0
 78146  1  0  0  0
 78147  1  0  0  0
 79148  1  0  0  0
 79149  1  0  0  0
 80150  1  0  0  0
 81151  1  0  0  0
M  ISO  4   1 100  68 101  79 101  81 100
M  END
> <chiral flag>
0

> <version>
0

> <s_m_source_file>
/data/baiqing/PycharmProjects/Reinvent-master-3.2/result/LINK_invent/BTK/process_docking_weight1_custom_product_contain_oxygen_bond_distance_aromatic_linkinvent_7_9_3/rearranged_h_0027.sdf

> <i_m_source_file_index>
57

> <r_mmod_Potential_Energy-OPLS-2005>
406.607940673828

> <r_mmod_Stretch_Energy-OPLS-2005>
220.072738647461

> <r_mmod_Bend_Energy-OPLS-2005>
280.334228515625

> <r_mmod_Torsional_Energy-OPLS-2005>
222.647247314453

> <r_mmod_Improper_Torsional_Energy-OPLS-2005>
4.48283672332764

> <r_mmod_Van_der_Waal_Energy-OPLS-2005>
131.61994934082

> <r_mmod_Electrostatic_Energy-OPLS-2005>
-387.265258789062

> <r_mmod_Solvation_Energy-OPLS-2005>
-249.595458984375

> <b_mmod_Minimization_Converged-OPLS-2005>
0

> <r_mmod_RMS_Derivative-OPLS-2005>
1.20512986183167

$$$$
58
                    3D
 Structure written by MMmdl.
161170  0  0  1  0            999 V2000
  -30.7018  -14.5436   20.4904 C   0  0  0  0  0  0
  -30.4134  -12.3273   19.4501 C   0  0  0  0  0  0
  -29.5008  -12.4935   18.2175 C   0  0  0  0  0  0
  -28.0234  -12.3470   18.6298 C   0  0  0  0  0  0
  -27.6534  -13.2197   19.8594 C   0  0  2  0  0  0
  -28.6971  -13.0751   20.9901 C   0  0  0  0  0  0
  -25.2541  -13.8182   20.5684 C   0  0  0  0  0  0
  -24.1813  -13.0437   20.9170 C   0  0  0  0  0  0
  -24.6388  -11.6914   20.8714 C   0  0  0  0  0  0
  -23.9049  -10.4292   21.0379 C   0  0  0  0  0  0
  -24.3601   -9.4204   21.9164 C   0  0  0  0  0  0
  -23.6273   -8.2252   22.0749 C   0  0  0  0  0  0
  -22.4251   -8.0283   21.3545 C   0  0  0  0  0  0
  -21.9883   -9.0248   20.4641 C   0  0  0  0  0  0
  -22.7217  -10.2119   20.3038 C   0  0  0  0  0  0
  -21.6842   -6.0733   22.5273 C   0  0  0  0  0  0
  -21.4025   -6.5629   23.8208 C   0  0  0  0  0  0
  -21.3671   -5.6782   24.9165 C   0  0  0  0  0  0
  -21.6040   -4.3047   24.7214 C   0  0  0  0  0  0
  -21.8820   -3.8139   23.4333 C   0  0  0  0  0  0
  -21.9192   -4.6960   22.3393 C   0  0  0  0  0  0
  -22.7826  -13.5220   21.1817 C   0  0  0  0  0  0
  -22.1656   -4.2152   21.0969 F   0  0  0  0  0  0
  -21.5628   -3.4527   25.7725 F   0  0  0  0  0  0
  -30.0221  -13.3620   20.4237 N   0  0  0  0  0  0
  -26.2979  -12.9386   20.3296 N   0  0  0  0  0  0
  -25.9309  -11.6529   20.5719 N   0  0  0  0  0  0
  -22.0470  -12.8224   22.0392 N   0  0  0  0  0  0
  -25.4219  -15.1905   20.4151 N   0  0  0  0  0  0
  -31.8775  -14.6150   20.1341 O   0  0  0  0  0  0
  -21.6629   -6.8871   21.4236 O   0  0  0  0  0  0
  -22.3510  -14.5525   20.6660 O   0  0  0  0  0  0
  -24.6150  -31.8670   23.2098 C   0  0  0  0  0  0
  -25.9045  -32.4812   23.8389 C   0  0  1  0  0  0
  -27.2227  -27.3920   20.1029 C   0  0  0  0  0  0
  -25.5897  -33.8612   24.2320 N   0  0  0  0  0  0
  -23.4043  -30.4907   21.5512 C   0  0  2  0  0  0
  -24.8492  -28.9574   20.1088 C   0  0  0  0  0  0
  -22.7411  -29.4655   22.4984 C   0  0  0  0  0  0
  -18.0272  -28.1379   22.8489 C   0  0  0  0  0  0
  -24.1477  -36.7289   23.2639 C   0  0  0  0  0  0
  -25.9374  -30.8150   21.3741 C   0  0  0  0  0  0
  -26.0086  -29.4485   20.7187 C   0  0  0  0  0  0
  -27.1911  -28.6662   20.7252 C   0  0  0  0  0  0
  -26.0468  -26.9390   19.4650 C   0  0  0  0  0  0
  -24.8645  -27.7020   19.4802 C   0  0  0  0  0  0
  -23.6121  -29.8263   20.1634 C   0  0  0  0  0  0
  -25.4104  -36.3097   24.0334 C   0  0  1  0  0  0
  -20.5863  -28.3670   23.1314 C   0  0  2  0  0  0
  -20.6752  -26.9403   22.5418 C   0  0  0  0  0  0
  -19.5739  -26.6386   21.5206 C   0  0  0  0  0  0
  -18.1919  -26.7923   22.1623 C   0  0  0  0  0  0
  -19.1524  -28.8839   23.2894 C   0  0  0  0  0  0
  -18.9456  -30.1440   23.8913 C   0  0  0  0  0  0
  -17.6460  -30.6579   24.0572 C   0  0  0  0  0  0
  -25.9045  -34.9470   23.5130 C   0  0  0  0  0  0
  -16.5353  -29.9092   23.6319 C   0  0  0  0  0  0
  -16.7261  -28.6507   23.0345 C   0  0  0  0  0  0
  -26.4474  -31.6602   25.0725 C   0  0  0  0  0  0
  -25.3746  -31.3699   26.1476 C   0  0  0  0  0  0
  -27.0298  -30.3037   24.6114 C   0  0  0  0  0  0
  -27.6054  -32.4334   25.7475 C   0  0  0  0  0  0
  -27.5577  -37.1787   24.8467 C   0  0  0  0  0  0
  -21.4139  -29.3034   22.3715 N   0  0  0  0  0  0
  -26.4284  -37.3788   23.9422 N   0  0  0  0  0  0
  -24.6700  -31.0734   22.1019 N   0  0  0  0  0  0
  -23.4170  -28.8195   23.3038 O   0  0  0  0  0  0
  -28.3757  -26.6226   20.1897 O   0  0  0  0  0  0
  -26.5618  -34.8929   22.4697 O   0  0  0  0  0  0
  -23.5344  -32.1455   23.7475 O   0  0  0  0  0  0
  -31.6883  -18.8745   19.6484 C   0  0  0  0  0  0
  -30.7128  -19.8304   19.9745 C   0  0  0  0  0  0
  -31.4722  -17.5078   19.9105 C   0  0  0  0  0  0
  -29.4980  -19.4319   20.5663 C   0  0  0  0  0  0
  -30.2641  -17.0540   20.5059 C   0  0  0  0  0  0
  -29.2836  -18.0408   20.8251 C   0  0  0  0  0  0
  -28.5163  -22.9835   20.3544 C   0  0  0  0  0  0
  -26.7190  -22.2486   18.1891 C   0  0  0  0  0  0
  -27.3522  -23.6334   18.1392 C   0  0  0  0  0  0
  -27.7567  -21.2619   18.7261 C   0  0  0  0  0  0
  -27.8182  -24.1269   19.5290 C   0  0  2  0  0  0
  -28.4752  -20.5177   20.9678 C   0  0  0  0  0  0
  -28.6046  -25.4816   19.3280 C   0  0  0  0  0  0
  -28.2860  -21.6670   20.0351 N   0  0  0  0  0  0
  -29.9763  -15.6562   20.7858 N   0  0  0  0  0  0
  -29.1777  -23.2954   21.3495 O   0  0  0  0  0  0
  -28.1204  -17.6376   21.3904 F   0  0  0  0  0  0
  -31.4622  -12.3963   19.1567 H   0  0  0  0  0  0
  -30.2942  -11.3341   19.8865 H   0  0  0  0  0  0
  -29.7502  -11.7543   17.4549 H   0  0  0  0  0  0
  -29.6654  -13.4704   17.7588 H   0  0  0  0  0  0
  -27.8522  -11.2952   18.8599 H   0  0  0  0  0  0
  -27.3718  -12.5833   17.7891 H   0  0  0  0  0  0
  -27.6752  -14.2547   19.5169 H   0  0  0  0  0  0
  -28.6810  -12.0635   21.3998 H   0  0  0  0  0  0
  -28.4642  -13.7418   21.8212 H   0  0  0  0  0  0
  -25.2760   -9.5675   22.4715 H   0  0  0  0  0  0
  -23.9991   -7.4632   22.7455 H   0  0  0  0  0  0
  -21.0823   -8.8746   19.8928 H   0  0  0  0  0  0
  -22.3683  -10.9644   19.6128 H   0  0  0  0  0  0
  -21.2030   -7.6141   23.9707 H   0  0  0  0  0  0
  -21.1492   -6.0513   25.9066 H   0  0  0  0  0  0
  -22.0594   -2.7601   23.2820 H   0  0  0  0  0  0
  -22.4111  -11.9940   22.4859 H   0  0  0  0  0  0
  -21.1076  -13.1238   22.2555 H   0  0  0  0  0  0
  -24.6545  -15.8403   20.5450 H   0  0  0  0  0  0
  -26.2803  -15.6477   20.1356 H   0  0  0  0  0  0
  -26.7104  -32.5504   23.1138 H   0  0  0  0  0  0
  -25.0006  -33.9779   25.0434 H   0  0  0  0  0  0
  -22.6946  -31.3087   21.4134 H   0  0  0  0  0  0
  -23.3753  -35.9606   23.3307 H   0  0  0  0  0  0
  -24.3565  -36.8906   22.2052 H   0  0  0  0  0  0
  -23.7217  -37.6485   23.6659 H   0  0  0  0  0  0
  -26.0629  -31.5809   20.6079 H   0  0  0  0  0  0
  -26.8200  -30.8624   21.9992 H   0  0  0  0  0  0
  -28.0780  -29.0314   21.2241 H   0  0  0  0  0  0
  -26.0025  -25.9863   18.9688 H   0  0  0  0  0  0
  -23.9729  -27.3189   19.0038 H   0  0  0  0  0  0
  -23.7197  -30.6021   19.4054 H   0  0  0  0  0  0
  -22.7348  -29.2473   19.8677 H   0  0  0  0  0  0
  -25.1277  -36.1950   25.0824 H   0  0  0  0  0  0
  -20.9952  -28.3236   24.1440 H   0  0  0  0  0  0
  -20.5632  -26.2283   23.3607 H   0  0  0  0  0  0
  -21.6629  -26.7422   22.1234 H   0  0  0  0  0  0
  -19.6899  -25.6300   21.1229 H   0  0  0  0  0  0
  -19.6672  -27.3201   20.6739 H   0  0  0  0  0  0
  -17.4179  -26.6660   21.4038 H   0  0  0  0  0  0
  -18.0336  -26.0063   22.9022 H   0  0  0  0  0  0
  -19.7938  -30.7242   24.2299 H   0  0  0  0  0  0
  -17.5025  -31.6265   24.5167 H   0  0  0  0  0  0
  -15.5357  -30.3009   23.7623 H   0  0  0  0  0  0
  -15.8660  -28.0822   22.7067 H   0  0  0  0  0  0
  -24.5923  -30.7044   25.7813 H   0  0  0  0  0  0
  -24.8927  -32.2843   26.4943 H   0  0  0  0  0  0
  -25.8108  -30.8855   27.0218 H   0  0  0  0  0  0
  -26.2823  -29.6806   24.1187 H   0  0  0  0  0  0
  -27.4079  -29.7277   25.4570 H   0  0  0  0  0  0
  -27.8669  -30.4352   23.9254 H   0  0  0  0  0  0
  -27.2669  -33.3638   26.2049 H   0  0  0  0  0  0
  -28.3839  -32.6895   25.0277 H   0  0  0  0  0  0
  -28.0738  -31.8461   26.5383 H   0  0  0  0  0  0
  -28.2594  -38.0087   24.7537 H   0  0  0  0  0  0
  -28.1072  -36.2625   24.6257 H   0  0  0  0  0  0
  -27.2299  -37.1393   25.8870 H   0  0  0  0  0  0
  -20.9306  -29.8757   21.6932 H   0  0  0  0  0  0
  -26.0168  -38.2856   24.1460 H   0  0  0  0  0  0
  -32.6171  -19.1940   19.1954 H   0  0  0  0  0  0
  -30.9075  -20.8763   19.7826 H   0  0  0  0  0  0
  -32.2704  -16.8394   19.6295 H   0  0  0  0  0  0
  -26.3917  -21.9493   17.1927 H   0  0  0  0  0  0
  -25.8313  -22.2559   18.8242 H   0  0  0  0  0  0
  -26.6440  -24.3344   17.6980 H   0  0  0  0  0  0
  -28.2049  -23.6101   17.4589 H   0  0  0  0  0  0
  -28.5940  -21.1913   18.0299 H   0  0  0  0  0  0
  -27.3186  -20.2641   18.7717 H   0  0  0  0  0  0
  -26.9226  -24.3454   20.1085 H   0  0  0  0  0  0
  -28.7485  -20.8728   21.9619 H   0  0  0  0  0  0
  -27.5020  -20.0429   21.1063 H   0  0  0  0  0  0
  -28.4745  -25.8426   18.3064 H   0  0  0  0  0  0
  -29.6724  -25.2705   19.3933 H   0  0  0  0  0  0
  -29.0445  -15.4833   21.1320 H   0  0  0  0  0  0
  1 25  1  0  0  0
  1 30  2  0  0  0
  1 85  1  0  0  0
  2  3  1  0  0  0
  2 25  1  0  0  0
  2 88  1  0  0  0
  2 89  1  0  0  0
  3  4  1  0  0  0
  3 90  1  0  0  0
  3 91  1  0  0  0
  4  5  1  0  0  0
  4 92  1  0  0  0
  4 93  1  0  0  0
  5  6  1  0  0  0
  5 26  1  0  0  0
  5 94  1  0  0  0
  6 25  1  0  0  0
  6 95  1  0  0  0
  6 96  1  0  0  0
  7  8  2  0  0  0
  7 26  1  0  0  0
  7 29  1  0  0  0
  8  9  1  0  0  0
  8 22  1  0  0  0
  9 10  1  0  0  0
  9 27  2  0  0  0
 10 11  2  0  0  0
 10 15  1  0  0  0
 11 12  1  0  0  0
 11 97  1  0  0  0
 12 13  2  0  0  0
 12 98  1  0  0  0
 13 14  1  0  0  0
 13 31  1  0  0  0
 14 15  2  0  0  0
 14 99  1  0  0  0
 15100  1  0  0  0
 16 17  2  0  0  0
 16 21  1  0  0  0
 16 31  1  0  0  0
 17 18  1  0  0  0
 17101  1  0  0  0
 18 19  2  0  0  0
 18102  1  0  0  0
 19 20  1  0  0  0
 19 24  1  0  0  0
 20 21  2  0  0  0
 20103  1  0  0  0
 21 23  1  0  0  0
 22 28  1  0  0  0
 22 32  2  0  0  0
 26 27  1  0  0  0
 28104  1  0  0  0
 28105  1  0  0  0
 29106  1  0  0  0
 29107  1  0  0  0
 33 34  1  0  0  0
 33 66  1  0  0  0
 33 70  2  0  0  0
 34 36  1  0  0  0
 34 59  1  0  0  0
 34108  1  0  0  0
 35 44  2  0  0  0
 35 45  1  0  0  0
 35 68  1  0  0  0
 36 56  1  0  0  0
 36109  1  0  0  0
 37 39  1  0  0  0
 37 47  1  0  0  0
 37 66  1  0  0  0
 37110  1  0  0  0
 38 43  2  0  0  0
 38 46  1  0  0  0
 38 47  1  0  0  0
 39 64  1  0  0  0
 39 67  2  0  0  0
 40 52  1  0  0  0
 40 53  2  0  0  0
 40 58  1  0  0  0
 41111  1  0  0  0
 41112  1  0  0  0
 41113  1  0  0  0
 41 48  1  0  0  0
 42 43  1  0  0  0
 42 66  1  0  0  0
 42114  1  0  0  0
 42115  1  0  0  0
 43 44  1  0  0  0
 44116  1  0  0  0
 45 46  2  0  0  0
 45117  1  0  0  0
 46118  1  0  0  0
 47119  1  0  0  0
 47120  1  0  0  0
 48 56  1  0  0  0
 48 65  1  0  0  0
 48121  1  0  0  0
 49 50  1  0  0  0
 49 53  1  0  0  0
 49 64  1  0  0  0
 49122  1  0  0  0
 50 51  1  0  0  0
 50123  1  0  0  0
 50124  1  0  0  0
 51 52  1  0  0  0
 51125  1  0  0  0
 51126  1  0  0  0
 52127  1  0  0  0
 52128  1  0  0  0
 53 54  1  0  0  0
 54 55  2  0  0  0
 54129  1  0  0  0
 55 57  1  0  0  0
 55130  1  0  0  0
 56 69  2  0  0  0
 57 58  2  0  0  0
 57131  1  0  0  0
 58132  1  0  0  0
 59 60  1  0  0  0
 59 61  1  0  0  0
 59 62  1  0  0  0
 60133  1  0  0  0
 60134  1  0  0  0
 60135  1  0  0  0
 61136  1  0  0  0
 61137  1  0  0  0
 61138  1  0  0  0
 62139  1  0  0  0
 62140  1  0  0  0
 62141  1  0  0  0
 63 65  1  0  0  0
 63142  1  0  0  0
 63143  1  0  0  0
 63144  1  0  0  0
 64145  1  0  0  0
 65146  1  0  0  0
 68 83  1  0  0  0
 71 72  2  0  0  0
 71 73  1  0  0  0
 71147  1  0  0  0
 72 74  1  0  0  0
 72148  1  0  0  0
 73 75  2  0  0  0
 73149  1  0  0  0
 74 76  2  0  0  0
 74 82  1  0  0  0
 75 76  1  0  0  0
 75 85  1  0  0  0
 76 87  1  0  0  0
 77 81  1  0  0  0
 77 84  1  0  0  0
 77 86  2  0  0  0
 78 79  1  0  0  0
 78 80  1  0  0  0
 78150  1  0  0  0
 78151  1  0  0  0
 79 81  1  0  0  0
 79152  1  0  0  0
 79153  1  0  0  0
 80 84  1  0  0  0
 80154  1  0  0  0
 80155  1  0  0  0
 81 83  1  0  0  0
 81156  1  0  0  0
 82 84  1  0  0  0
 82157  1  0  0  0
 82158  1  0  0  0
 83159  1  0  0  0
 83160  1  0  0  0
 85161  1  0  0  0
M  ISO  4   1 100  68 101  83 101  85 100
M  END
> <chiral flag>
0

> <version>
0

> <s_m_source_file>
/data/baiqing/PycharmProjects/Reinvent-master-3.2/result/LINK_invent/BTK/process_docking_weight1_custom_product_contain_oxygen_bond_distance_aromatic_linkinvent_7_9_3/rearranged_h_0027.sdf

> <i_m_source_file_index>
58

> <r_mmod_Potential_Energy-OPLS-2005>
15.9629440307617

> <r_mmod_Stretch_Energy-OPLS-2005>
57.7198638916016

> <r_mmod_Bend_Energy-OPLS-2005>
133.803268432617

> <r_mmod_Torsional_Energy-OPLS-2005>
228.56071472168

> <r_mmod_Improper_Torsional_Energy-OPLS-2005>
5.31155681610107

> <r_mmod_Van_der_Waal_Energy-OPLS-2005>
164.964111328125

> <r_mmod_Electrostatic_Energy-OPLS-2005>
-384.044036865234

> <r_mmod_Solvation_Energy-OPLS-2005>
-218.728942871094

> <b_mmod_Minimization_Converged-OPLS-2005>
0

> <r_mmod_RMS_Derivative-OPLS-2005>
2.50800371170044

$$$$
59
                    3D
 Structure written by MMmdl.
168177  0  0  1  0            999 V2000
  -30.7056  -14.4779   20.4801 C   0  0  0  0  0  0
  -30.4153  -12.2849   19.4248 C   0  0  0  0  0  0
  -29.4918  -12.4792   18.2048 C   0  0  0  0  0  0
  -28.0106  -12.3569   18.6181 C   0  0  0  0  0  0
  -27.6563  -13.1999   19.8746 C   0  0  2  0  0  0
  -28.7086  -13.0196   20.9925 C   0  0  0  0  0  0
  -25.2588  -13.8137   20.5706 C   0  0  0  0  0  0
  -24.1829  -13.0420   20.9177 C   0  0  0  0  0  0
  -24.6381  -11.6886   20.8745 C   0  0  0  0  0  0
  -23.9047  -10.4278   21.0409 C   0  0  0  0  0  0
  -24.3604   -9.4192   21.9183 C   0  0  0  0  0  0
  -23.6286   -8.2226   22.0754 C   0  0  0  0  0  0
  -22.4266   -8.0269   21.3545 C   0  0  0  0  0  0
  -21.9902   -9.0236   20.4641 C   0  0  0  0  0  0
  -22.7225  -10.2119   20.3051 C   0  0  0  0  0  0
  -21.6844   -6.0731   22.5282 C   0  0  0  0  0  0
  -21.4009   -6.5637   23.8215 C   0  0  0  0  0  0
  -21.3658   -5.6790   24.9177 C   0  0  0  0  0  0
  -21.6046   -4.3053   24.7228 C   0  0  0  0  0  0
  -21.8821   -3.8144   23.4348 C   0  0  0  0  0  0
  -21.9189   -4.6960   22.3404 C   0  0  0  0  0  0
  -22.7855  -13.5224   21.1840 C   0  0  0  0  0  0
  -22.1659   -4.2149   21.0982 F   0  0  0  0  0  0
  -21.5632   -3.4537   25.7739 F   0  0  0  0  0  0
  -30.0306  -13.2996   20.4139 N   0  0  0  0  0  0
  -26.3013  -12.9285   20.3418 N   0  0  0  0  0  0
  -25.9312  -11.6455   20.5816 N   0  0  0  0  0  0
  -22.0496  -12.8215   22.0397 N   0  0  0  0  0  0
  -25.4329  -15.1852   20.4142 N   0  0  0  0  0  0
  -31.9000  -14.5715   20.1834 O   0  0  0  0  0  0
  -21.6627   -6.8870   21.4243 O   0  0  0  0  0  0
  -22.3541  -14.5532   20.6695 O   0  0  0  0  0  0
  -24.6134  -31.8694   23.2122 C   0  0  0  0  0  0
  -25.9035  -32.4831   23.8409 C   0  0  1  0  0  0
  -27.2304  -27.4508   20.0956 C   0  0  0  0  0  0
  -25.5898  -33.8629   24.2340 N   0  0  0  0  0  0
  -23.4007  -30.4940   21.5522 C   0  0  2  0  0  0
  -24.8482  -28.9679   20.1098 C   0  0  0  0  0  0
  -22.7405  -29.4664   22.4993 C   0  0  0  0  0  0
  -18.0272  -28.1378   22.8497 C   0  0  0  0  0  0
  -24.1486  -36.7318   23.2637 C   0  0  0  0  0  0
  -25.9286  -30.8412   21.3634 C   0  0  0  0  0  0
  -26.0079  -29.4785   20.7077 C   0  0  0  0  0  0
  -27.2053  -28.7276   20.6977 C   0  0  0  0  0  0
  -26.0605  -26.9621   19.4732 C   0  0  0  0  0  0
  -24.8687  -27.7084   19.4875 C   0  0  0  0  0  0
  -23.6080  -29.8301   20.1650 C   0  0  0  0  0  0
  -25.4107  -36.3116   24.0339 C   0  0  1  0  0  0
  -20.5861  -28.3665   23.1319 C   0  0  2  0  0  0
  -20.6763  -26.9403   22.5417 C   0  0  0  0  0  0
  -19.5741  -26.6387   21.5214 C   0  0  0  0  0  0
  -18.1919  -26.7926   22.1625 C   0  0  0  0  0  0
  -19.1519  -28.8839   23.2907 C   0  0  0  0  0  0
  -18.9450  -30.1445   23.8917 C   0  0  0  0  0  0
  -17.6452  -30.6587   24.0570 C   0  0  0  0  0  0
  -25.9036  -34.9480   23.5137 C   0  0  0  0  0  0
  -16.5344  -29.9090   23.6327 C   0  0  0  0  0  0
  -16.7261  -28.6505   23.0352 C   0  0  0  0  0  0
  -26.4472  -31.6598   25.0726 C   0  0  0  0  0  0
  -25.3745  -31.3683   26.1473 C   0  0  0  0  0  0
  -27.0306  -30.3047   24.6083 C   0  0  0  0  0  0
  -27.6046  -32.4313   25.7495 C   0  0  0  0  0  0
  -27.5584  -37.1811   24.8464 C   0  0  0  0  0  0
  -21.4134  -29.3033   22.3730 N   0  0  0  0  0  0
  -26.4293  -37.3800   23.9414 N   0  0  0  0  0  0
  -24.6657  -31.0812   22.1015 N   0  0  0  0  0  0
  -23.4182  -28.8205   23.3030 O   0  0  0  0  0  0
  -28.3663  -26.6742   20.1324 O   0  0  0  0  0  0
  -26.5597  -34.8927   22.4697 O   0  0  0  0  0  0
  -23.5330  -32.1438   23.7523 O   0  0  0  0  0  0
  -28.5234  -20.0349   21.2765 C   0  0  0  0  0  0
  -30.8561  -18.4969   21.5990 C   0  0  0  0  0  0
  -29.5974  -17.8434   21.5217 C   0  0  0  0  0  0
  -29.7694  -20.7042   21.3033 C   0  0  0  0  0  0
  -28.4361  -18.6342   21.3785 C   0  0  0  0  0  0
  -30.9370  -19.9080   21.4758 C   0  0  0  0  0  0
  -30.5280  -24.3898   21.1751 C   0  0  0  0  0  0
  -31.0208  -22.9352   21.1791 C   0  0  0  0  0  0
  -28.6359  -22.9371   20.8917 C   0  0  0  0  0  0
  -29.1582  -24.3275   20.4883 C   0  0  1  0  0  0
  -32.1389  -17.6971   21.7844 C   0  0  0  0  0  0
  -28.6703  -16.5416   18.3840 C   0  0  0  0  0  0
  -29.4642  -16.3085   21.5491 C   0  0  0  0  0  0
  -28.1744  -25.4543   20.8671 C   0  0  0  0  0  0
  -30.0264  -16.3433   19.0787 C   0  0  0  0  0  0
  -29.8135  -22.1185   21.1583 N   0  0  0  0  0  0
  -29.9195  -15.5756   20.3439 N   0  0  0  0  0  0
  -27.2156  -18.0491   21.3184 F   0  0  0  0  0  0
  -32.1635  -20.4852   21.5122 F   0  0  0  0  0  0
  -31.4621  -12.3621   19.1251 H   0  0  0  0  0  0
  -30.2965  -11.2843   19.8438 H   0  0  0  0  0  0
  -29.7254  -11.7437   17.4342 H   0  0  0  0  0  0
  -29.6709  -13.4568   17.7551 H   0  0  0  0  0  0
  -27.8108  -11.3026   18.8130 H   0  0  0  0  0  0
  -27.3642  -12.6362   17.7850 H   0  0  0  0  0  0
  -27.6787  -14.2415   19.5719 H   0  0  0  0  0  0
  -28.6836  -12.0012   21.3825 H   0  0  0  0  0  0
  -28.4956  -13.6718   21.8399 H   0  0  0  0  0  0
  -25.2751   -9.5665   22.4752 H   0  0  0  0  0  0
  -23.9995   -7.4617   22.7472 H   0  0  0  0  0  0
  -21.0836   -8.8751   19.8944 H   0  0  0  0  0  0
  -22.3689  -10.9657   19.6155 H   0  0  0  0  0  0
  -21.2000   -7.6144   23.9719 H   0  0  0  0  0  0
  -21.1482   -6.0520   25.9083 H   0  0  0  0  0  0
  -22.0604   -2.7608   23.2848 H   0  0  0  0  0  0
  -22.4119  -11.9878   22.4784 H   0  0  0  0  0  0
  -21.1117  -13.1241   22.2612 H   0  0  0  0  0  0
  -24.6750  -15.8449   20.5480 H   0  0  0  0  0  0
  -26.3033  -15.6339   20.1590 H   0  0  0  0  0  0
  -26.7111  -32.5556   23.1181 H   0  0  0  0  0  0
  -25.0056  -33.9797   25.0490 H   0  0  0  0  0  0
  -22.6882  -31.3102   21.4157 H   0  0  0  0  0  0
  -23.3748  -35.9650   23.3298 H   0  0  0  0  0  0
  -24.3580  -36.8934   22.2051 H   0  0  0  0  0  0
  -23.7234  -37.6521   23.6653 H   0  0  0  0  0  0
  -26.0378  -31.6097   20.5966 H   0  0  0  0  0  0
  -26.8175  -30.8941   21.9804 H   0  0  0  0  0  0
  -28.0983  -29.1125   21.1703 H   0  0  0  0  0  0
  -26.0655  -25.9975   18.9855 H   0  0  0  0  0  0
  -23.9794  -27.3125   19.0166 H   0  0  0  0  0  0
  -23.7121  -30.6071   19.4069 H   0  0  0  0  0  0
  -22.7334  -29.2476   19.8700 H   0  0  0  0  0  0
  -25.1280  -36.1984   25.0832 H   0  0  0  0  0  0
  -20.9952  -28.3231   24.1439 H   0  0  0  0  0  0
  -20.5675  -26.2272   23.3601 H   0  0  0  0  0  0
  -21.6633  -26.7451   22.1207 H   0  0  0  0  0  0
  -19.6904  -25.6303   21.1231 H   0  0  0  0  0  0
  -19.6678  -27.3208   20.6753 H   0  0  0  0  0  0
  -17.4188  -26.6678   21.4027 H   0  0  0  0  0  0
  -18.0320  -26.0064   22.9016 H   0  0  0  0  0  0
  -19.7925  -30.7260   24.2292 H   0  0  0  0  0  0
  -17.5007  -31.6265   24.5172 H   0  0  0  0  0  0
  -15.5346  -30.3002   23.7638 H   0  0  0  0  0  0
  -15.8660  -28.0834   22.7057 H   0  0  0  0  0  0
  -24.5918  -30.7039   25.7796 H   0  0  0  0  0  0
  -24.8942  -32.2833   26.4949 H   0  0  0  0  0  0
  -25.8104  -30.8825   27.0211 H   0  0  0  0  0  0
  -26.2847  -29.6807   24.1146 H   0  0  0  0  0  0
  -27.4098  -29.7278   25.4528 H   0  0  0  0  0  0
  -27.8669  -30.4377   23.9215 H   0  0  0  0  0  0
  -27.2665  -33.3601   26.2102 H   0  0  0  0  0  0
  -28.3847  -32.6891   25.0320 H   0  0  0  0  0  0
  -28.0725  -31.8419   26.5390 H   0  0  0  0  0  0
  -28.2591  -38.0118   24.7533 H   0  0  0  0  0  0
  -28.1090  -36.2650   24.6268 H   0  0  0  0  0  0
  -27.2303  -37.1438   25.8867 H   0  0  0  0  0  0
  -20.9292  -29.8759   21.6958 H   0  0  0  0  0  0
  -26.0182  -38.2876   24.1426 H   0  0  0  0  0  0
  -27.5989  -20.5790   21.1645 H   0  0  0  0  0  0
  -31.2210  -25.0682   20.6762 H   0  0  0  0  0  0
  -30.4164  -24.7348   22.2041 H   0  0  0  0  0  0
  -31.6364  -22.7397   22.0587 H   0  0  0  0  0  0
  -31.6174  -22.7261   20.2896 H   0  0  0  0  0  0
  -28.0152  -22.5186   20.0974 H   0  0  0  0  0  0
  -28.0310  -22.9950   21.7986 H   0  0  0  0  0  0
  -29.3053  -24.3258   19.4071 H   0  0  0  0  0  0
  -32.0300  -16.9516   22.5712 H   0  0  0  0  0  0
  -32.9787  -18.3315   22.0669 H   0  0  0  0  0  0
  -32.4095  -17.1887   20.8598 H   0  0  0  0  0  0
  -28.7677  -17.2426   17.5546 H   0  0  0  0  0  0
  -27.9160  -16.9421   19.0606 H   0  0  0  0  0  0
  -28.2928  -15.6102   17.9633 H   0  0  0  0  0  0
  -28.4177  -16.0447   21.7005 H   0  0  0  0  0  0
  -29.9687  -15.9371   22.4429 H   0  0  0  0  0  0
  -28.2444  -25.6739   21.9334 H   0  0  0  0  0  0
  -27.1698  -25.0553   20.7245 H   0  0  0  0  0  0
  -30.5184  -17.3026   19.2242 H   0  0  0  0  0  0
  -30.6725  -15.8297   18.3626 H   0  0  0  0  0  0
  1 25  1  0  0  0
  1 30  2  0  0  0
  1 87  1  0  0  0
  2  3  1  0  0  0
  2 25  1  0  0  0
  2 90  1  0  0  0
  2 91  1  0  0  0
  3  4  1  0  0  0
  3 92  1  0  0  0
  3 93  1  0  0  0
  4  5  1  0  0  0
  4 94  1  0  0  0
  4 95  1  0  0  0
  5  6  1  0  0  0
  5 26  1  0  0  0
  5 96  1  0  0  0
  6 25  1  0  0  0
  6 97  1  0  0  0
  6 98  1  0  0  0
  7  8  2  0  0  0
  7 26  1  0  0  0
  7 29  1  0  0  0
  8  9  1  0  0  0
  8 22  1  0  0  0
  9 10  1  0  0  0
  9 27  2  0  0  0
 10 11  2  0  0  0
 10 15  1  0  0  0
 11 12  1  0  0  0
 11 99  1  0  0  0
 12 13  2  0  0  0
 12100  1  0  0  0
 13 14  1  0  0  0
 13 31  1  0  0  0
 14 15  2  0  0  0
 14101  1  0  0  0
 15102  1  0  0  0
 16 17  2  0  0  0
 16 21  1  0  0  0
 16 31  1  0  0  0
 17 18  1  0  0  0
 17103  1  0  0  0
 18 19  2  0  0  0
 18104  1  0  0  0
 19 20  1  0  0  0
 19 24  1  0  0  0
 20 21  2  0  0  0
 20105  1  0  0  0
 21 23  1  0  0  0
 22 28  1  0  0  0
 22 32  2  0  0  0
 26 27  1  0  0  0
 28106  1  0  0  0
 28107  1  0  0  0
 29108  1  0  0  0
 29109  1  0  0  0
 33 34  1  0  0  0
 33 66  1  0  0  0
 33 70  2  0  0  0
 34 36  1  0  0  0
 34 59  1  0  0  0
 34110  1  0  0  0
 35 44  2  0  0  0
 35 45  1  0  0  0
 35 68  1  0  0  0
 36 56  1  0  0  0
 36111  1  0  0  0
 37 39  1  0  0  0
 37 47  1  0  0  0
 37 66  1  0  0  0
 37112  1  0  0  0
 38 43  2  0  0  0
 38 46  1  0  0  0
 38 47  1  0  0  0
 39 64  1  0  0  0
 39 67  2  0  0  0
 40 52  1  0  0  0
 40 53  2  0  0  0
 40 58  1  0  0  0
 41113  1  0  0  0
 41114  1  0  0  0
 41115  1  0  0  0
 41 48  1  0  0  0
 42 43  1  0  0  0
 42 66  1  0  0  0
 42116  1  0  0  0
 42117  1  0  0  0
 43 44  1  0  0  0
 44118  1  0  0  0
 45 46  2  0  0  0
 45119  1  0  0  0
 46120  1  0  0  0
 47121  1  0  0  0
 47122  1  0  0  0
 48 56  1  0  0  0
 48 65  1  0  0  0
 48123  1  0  0  0
 49 50  1  0  0  0
 49 53  1  0  0  0
 49 64  1  0  0  0
 49124  1  0  0  0
 50 51  1  0  0  0
 50125  1  0  0  0
 50126  1  0  0  0
 51 52  1  0  0  0
 51127  1  0  0  0
 51128  1  0  0  0
 52129  1  0  0  0
 52130  1  0  0  0
 53 54  1  0  0  0
 54 55  2  0  0  0
 54131  1  0  0  0
 55 57  1  0  0  0
 55132  1  0  0  0
 56 69  2  0  0  0
 57 58  2  0  0  0
 57133  1  0  0  0
 58134  1  0  0  0
 59 60  1  0  0  0
 59 61  1  0  0  0
 59 62  1  0  0  0
 60135  1  0  0  0
 60136  1  0  0  0
 60137  1  0  0  0
 61138  1  0  0  0
 61139  1  0  0  0
 61140  1  0  0  0
 62141  1  0  0  0
 62142  1  0  0  0
 62143  1  0  0  0
 63 65  1  0  0  0
 63144  1  0  0  0
 63145  1  0  0  0
 63146  1  0  0  0
 64147  1  0  0  0
 65148  1  0  0  0
 68 84  1  0  0  0
 71 74  2  0  0  0
 71 75  1  0  0  0
 71149  1  0  0  0
 72 73  1  0  0  0
 72 76  2  0  0  0
 72 81  1  0  0  0
 73 75  2  0  0  0
 73 83  1  0  0  0
 74 76  1  0  0  0
 74 86  1  0  0  0
 75 88  1  0  0  0
 76 89  1  0  0  0
 77 78  1  0  0  0
 77 80  1  0  0  0
 77150  1  0  0  0
 77151  1  0  0  0
 78 86  1  0  0  0
 78152  1  0  0  0
 78153  1  0  0  0
 79 80  1  0  0  0
 79 86  1  0  0  0
 79154  1  0  0  0
 79155  1  0  0  0
 80 84  1  0  0  0
 80156  1  0  0  0
 81157  1  0  0  0
 81158  1  0  0  0
 81159  1  0  0  0
 82 85  1  0  0  0
 82160  1  0  0  0
 82161  1  0  0  0
 82162  1  0  0  0
 83 87  1  0  0  0
 83163  1  0  0  0
 83164  1  0  0  0
 84165  1  0  0  0
 84166  1  0  0  0
 85 87  1  0  0  0
 85167  1  0  0  0
 85168  1  0  0  0
M  ISO  4   1 100  68 101  84 101  87 100
M  END
> <chiral flag>
0

> <version>
0

> <s_m_source_file>
/data/baiqing/PycharmProjects/Reinvent-master-3.2/result/LINK_invent/BTK/process_docking_weight1_custom_product_contain_oxygen_bond_distance_aromatic_linkinvent_7_9_3/rearranged_h_0027.sdf

> <i_m_source_file_index>
59

> <r_mmod_Potential_Energy-OPLS-2005>
299.325775146484

> <r_mmod_Stretch_Energy-OPLS-2005>
41.2502632141113

> <r_mmod_Bend_Energy-OPLS-2005>
141.511657714844

> <r_mmod_Torsional_Energy-OPLS-2005>
364.532623291016

> <r_mmod_Improper_Torsional_Energy-OPLS-2005>
19.1058177947998

> <r_mmod_Van_der_Waal_Energy-OPLS-2005>
156.138366699219

> <r_mmod_Electrostatic_Energy-OPLS-2005>
-246.921157836914

> <r_mmod_Solvation_Energy-OPLS-2005>
-196.249252319336

> <b_mmod_Minimization_Converged-OPLS-2005>
0

> <r_mmod_RMS_Derivative-OPLS-2005>
0.602801203727722

$$$$
60
                    3D
 Structure written by MMmdl.
158167  0  0  1  0            999 V2000
  -30.6295  -14.6597   20.4672 C   0  0  0  0  0  0
  -30.4248  -12.3953   19.4720 C   0  0  0  0  0  0
  -29.5074  -12.5083   18.2337 C   0  0  0  0  0  0
  -28.0291  -12.3507   18.6395 C   0  0  0  0  0  0
  -27.6491  -13.2270   19.8636 C   0  0  2  0  0  0
  -28.6912  -13.1114   20.9998 C   0  0  0  0  0  0
  -25.2531  -13.8199   20.5707 C   0  0  0  0  0  0
  -24.1809  -13.0446   20.9190 C   0  0  0  0  0  0
  -24.6389  -11.6921   20.8730 C   0  0  0  0  0  0
  -23.9069  -10.4300   21.0401 C   0  0  0  0  0  0
  -24.3621   -9.4217   21.9177 C   0  0  0  0  0  0
  -23.6296   -8.2254   22.0752 C   0  0  0  0  0  0
  -22.4272   -8.0291   21.3553 C   0  0  0  0  0  0
  -21.9914   -9.0258   20.4647 C   0  0  0  0  0  0
  -22.7242  -10.2135   20.3054 C   0  0  0  0  0  0
  -21.6853   -6.0740   22.5283 C   0  0  0  0  0  0
  -21.4012   -6.5642   23.8216 C   0  0  0  0  0  0
  -21.3666   -5.6791   24.9177 C   0  0  0  0  0  0
  -21.6046   -4.3055   24.7226 C   0  0  0  0  0  0
  -21.8821   -3.8152   23.4346 C   0  0  0  0  0  0
  -21.9192   -4.6970   22.3402 C   0  0  0  0  0  0
  -22.7832  -13.5223   21.1872 C   0  0  0  0  0  0
  -22.1654   -4.2162   21.0978 F   0  0  0  0  0  0
  -21.5639   -3.4541   25.7739 F   0  0  0  0  0  0
  -30.0077  -13.4371   20.4356 N   0  0  0  0  0  0
  -26.2967  -12.9397   20.3334 N   0  0  0  0  0  0
  -25.9321  -11.6539   20.5756 N   0  0  0  0  0  0
  -22.0489  -12.8198   22.0424 N   0  0  0  0  0  0
  -25.4247  -15.1928   20.4164 N   0  0  0  0  0  0
  -31.7919  -14.7871   20.0710 O   0  0  0  0  0  0
  -21.6644   -6.8885   21.4245 O   0  0  0  0  0  0
  -22.3519  -14.5539   20.6739 O   0  0  0  0  0  0
  -24.6282  -31.8587   23.2028 C   0  0  0  0  0  0
  -25.9122  -32.4778   23.8362 C   0  0  1  0  0  0
  -27.2188  -27.3134   20.1224 C   0  0  0  0  0  0
  -25.5925  -33.8577   24.2283 N   0  0  0  0  0  0
  -23.4238  -30.4834   21.5440 C   0  0  2  0  0  0
  -24.8745  -28.9442   20.1041 C   0  0  0  0  0  0
  -22.7488  -29.4627   22.4919 C   0  0  0  0  0  0
  -18.0290  -28.1391   22.8486 C   0  0  0  0  0  0
  -24.1484  -36.7291   23.2639 C   0  0  0  0  0  0
  -25.9666  -30.7901   21.3753 C   0  0  0  0  0  0
  -26.0448  -29.4188   20.7137 C   0  0  0  0  0  0
  -27.2269  -28.6160   20.7140 C   0  0  0  0  0  0
  -26.0377  -26.9043   19.4674 C   0  0  0  0  0  0
  -24.8736  -27.6933   19.4689 C   0  0  0  0  0  0
  -23.6404  -29.8221   20.1579 C   0  0  0  0  0  0
  -25.4109  -36.3084   24.0332 C   0  0  1  0  0  0
  -20.5893  -28.3700   23.1267 C   0  0  2  0  0  0
  -20.6777  -26.9417   22.5408 C   0  0  0  0  0  0
  -19.5754  -26.6384   21.5213 C   0  0  0  0  0  0
  -18.1932  -26.7934   22.1621 C   0  0  0  0  0  0
  -19.1543  -28.8864   23.2874 C   0  0  0  0  0  0
  -18.9465  -30.1464   23.8897 C   0  0  0  0  0  0
  -17.6467  -30.6592   24.0564 C   0  0  0  0  0  0
  -25.9051  -34.9452   23.5108 C   0  0  0  0  0  0
  -16.5357  -29.9088   23.6336 C   0  0  0  0  0  0
  -16.7277  -28.6504   23.0359 C   0  0  0  0  0  0
  -26.4500  -31.6590   25.0736 C   0  0  0  0  0  0
  -25.3722  -31.3722   26.1454 C   0  0  0  0  0  0
  -27.0347  -30.3012   24.6197 C   0  0  0  0  0  0
  -27.6059  -32.4326   25.7505 C   0  0  0  0  0  0
  -27.5580  -37.1795   24.8462 C   0  0  0  0  0  0
  -21.4199  -29.3048   22.3653 N   0  0  0  0  0  0
  -26.4285  -37.3780   23.9419 N   0  0  0  0  0  0
  -24.6916  -31.0600   22.0977 N   0  0  0  0  0  0
  -23.4201  -28.8169   23.3007 O   0  0  0  0  0  0
  -28.2499  -26.3623   20.1898 O   0  0  0  0  0  0
  -26.5622  -34.8918   22.4677 O   0  0  0  0  0  0
  -23.5438  -32.1389   23.7343 O   0  0  0  0  0  0
  -29.6924  -18.3477   20.5829 C   0  0  0  0  0  0
  -29.3012  -19.3062   18.3822 C   0  0  0  0  0  0
  -29.5558  -16.8867   18.6332 C   0  0  0  0  0  0
  -29.4838  -19.5308   19.7681 C   0  0  0  0  0  0
  -29.7492  -17.0081   20.0273 C   0  0  0  0  0  0
  -29.3321  -18.0147   17.8265 C   0  0  0  0  0  0
  -28.0518  -25.2892   21.1210 C   0  0  0  0  0  0
  -29.4892  -22.1678   19.2070 C   0  0  0  0  0  0
  -28.3566  -21.4341   21.2371 C   0  0  0  0  0  0
  -29.5357  -23.6709   19.6983 C   0  0  0  0  0  0
  -28.4925  -22.8907   21.8024 C   0  0  0  0  0  0
  -29.5087  -21.0315   20.2963 C   0  0  0  0  0  0
  -28.6169  -23.9992   20.8087 N   0  0  0  0  0  0
  -29.8789  -15.7643   20.7989 N   0  0  0  0  0  0
  -27.3768  -25.4777   22.1392 O   0  0  0  0  0  0
  -29.1410  -17.8561   16.4950 F   0  0  0  0  0  0
  -31.4714  -12.4940   19.1790 H   0  0  0  0  0  0
  -30.3343  -11.4066   19.9245 H   0  0  0  0  0  0
  -29.7747  -11.7529   17.4935 H   0  0  0  0  0  0
  -29.6542  -13.4739   17.7485 H   0  0  0  0  0  0
  -27.8629  -11.2981   18.8711 H   0  0  0  0  0  0
  -27.3776  -12.5813   17.7958 H   0  0  0  0  0  0
  -27.6594  -14.2590   19.5133 H   0  0  0  0  0  0
  -28.6999  -12.1029   21.4171 H   0  0  0  0  0  0
  -28.4373  -13.7767   21.8259 H   0  0  0  0  0  0
  -25.2768   -9.5691   22.4747 H   0  0  0  0  0  0
  -24.0012   -7.4642   22.7465 H   0  0  0  0  0  0
  -21.0852   -8.8770   19.8948 H   0  0  0  0  0  0
  -22.3702  -10.9668   19.6160 H   0  0  0  0  0  0
  -21.1997   -7.6146   23.9726 H   0  0  0  0  0  0
  -21.1490   -6.0520   25.9080 H   0  0  0  0  0  0
  -22.0595   -2.7616   23.2846 H   0  0  0  0  0  0
  -22.4086  -11.9815   22.4747 H   0  0  0  0  0  0
  -21.1131  -13.1249   22.2691 H   0  0  0  0  0  0
  -24.6629  -15.8508   20.5410 H   0  0  0  0  0  0
  -26.2845  -15.6364   20.1194 H   0  0  0  0  0  0
  -26.7197  -32.5450   23.1119 H   0  0  0  0  0  0
  -25.0071  -33.9725   25.0426 H   0  0  0  0  0  0
  -22.7187  -31.3052   21.4015 H   0  0  0  0  0  0
  -23.3753  -35.9613   23.3286 H   0  0  0  0  0  0
  -24.3578  -36.8929   22.2058 H   0  0  0  0  0  0
  -23.7224  -37.6479   23.6675 H   0  0  0  0  0  0
  -26.0994  -31.5559   20.6096 H   0  0  0  0  0  0
  -26.8460  -30.8383   22.0059 H   0  0  0  0  0  0
  -28.1205  -28.9663   21.2123 H   0  0  0  0  0  0
  -26.0001  -25.9337   18.9927 H   0  0  0  0  0  0
  -23.9786  -27.3255   18.9861 H   0  0  0  0  0  0
  -23.7578  -30.6019   19.4043 H   0  0  0  0  0  0
  -22.7602  -29.2525   19.8539 H   0  0  0  0  0  0
  -25.1288  -36.1932   25.0823 H   0  0  0  0  0  0
  -20.9992  -28.3284   24.1388 H   0  0  0  0  0  0
  -20.5677  -26.2318   23.3615 H   0  0  0  0  0  0
  -21.6645  -26.7443   22.1204 H   0  0  0  0  0  0
  -19.6916  -25.6291   21.1251 H   0  0  0  0  0  0
  -19.6693  -27.3185   20.6736 H   0  0  0  0  0  0
  -17.4204  -26.6689   21.4020 H   0  0  0  0  0  0
  -18.0327  -26.0072   22.9014 H   0  0  0  0  0  0
  -19.7940  -30.7276   24.2265 H   0  0  0  0  0  0
  -17.5021  -31.6273   24.5162 H   0  0  0  0  0  0
  -15.5357  -30.2993   23.7664 H   0  0  0  0  0  0
  -15.8674  -28.0821   22.7088 H   0  0  0  0  0  0
  -24.5910  -30.7065   25.7774 H   0  0  0  0  0  0
  -24.8905  -32.2883   26.4877 H   0  0  0  0  0  0
  -25.8041  -30.8899   27.0232 H   0  0  0  0  0  0
  -26.2930  -29.6758   24.1219 H   0  0  0  0  0  0
  -27.4037  -29.7276   25.4710 H   0  0  0  0  0  0
  -27.8800  -30.4301   23.9434 H   0  0  0  0  0  0
  -27.2679  -33.3636   26.2065 H   0  0  0  0  0  0
  -28.3875  -32.6864   25.0334 H   0  0  0  0  0  0
  -28.0717  -31.8459   26.5430 H   0  0  0  0  0  0
  -28.2578  -38.0112   24.7541 H   0  0  0  0  0  0
  -28.1097  -36.2648   24.6243 H   0  0  0  0  0  0
  -27.2307  -37.1388   25.8865 H   0  0  0  0  0  0
  -20.9383  -29.8764   21.6851 H   0  0  0  0  0  0
  -26.0164  -38.2847   24.1441 H   0  0  0  0  0  0
  -29.8243  -18.4724   21.6484 H   0  0  0  0  0  0
  -29.1420  -20.1233   17.6961 H   0  0  0  0  0  0
  -29.5514  -15.9166   18.1590 H   0  0  0  0  0  0
  -30.3156  -22.0129   18.5122 H   0  0  0  0  0  0
  -28.5788  -22.0610   18.6154 H   0  0  0  0  0  0
  -27.4039  -21.3347   20.7142 H   0  0  0  0  0  0
  -28.3136  -20.7335   22.0715 H   0  0  0  0  0  0
  -29.3414  -24.3318   18.8518 H   0  0  0  0  0  0
  -30.5473  -23.9019   20.0358 H   0  0  0  0  0  0
  -29.3680  -22.9380   22.4517 H   0  0  0  0  0  0
  -27.6364  -23.0564   22.4575 H   0  0  0  0  0  0
  -30.4421  -21.1267   20.8539 H   0  0  0  0  0  0
  -29.0734  -15.5475   21.3674 H   0  0  0  0  0  0
  1 25  1  0  0  0
  1 30  2  0  0  0
  1 84  1  0  0  0
  2  3  1  0  0  0
  2 25  1  0  0  0
  2 87  1  0  0  0
  2 88  1  0  0  0
  3  4  1  0  0  0
  3 89  1  0  0  0
  3 90  1  0  0  0
  4  5  1  0  0  0
  4 91  1  0  0  0
  4 92  1  0  0  0
  5  6  1  0  0  0
  5 26  1  0  0  0
  5 93  1  0  0  0
  6 25  1  0  0  0
  6 94  1  0  0  0
  6 95  1  0  0  0
  7  8  2  0  0  0
  7 26  1  0  0  0
  7 29  1  0  0  0
  8  9  1  0  0  0
  8 22  1  0  0  0
  9 10  1  0  0  0
  9 27  2  0  0  0
 10 11  2  0  0  0
 10 15  1  0  0  0
 11 12  1  0  0  0
 11 96  1  0  0  0
 12 13  2  0  0  0
 12 97  1  0  0  0
 13 14  1  0  0  0
 13 31  1  0  0  0
 14 15  2  0  0  0
 14 98  1  0  0  0
 15 99  1  0  0  0
 16 17  2  0  0  0
 16 21  1  0  0  0
 16 31  1  0  0  0
 17 18  1  0  0  0
 17100  1  0  0  0
 18 19  2  0  0  0
 18101  1  0  0  0
 19 20  1  0  0  0
 19 24  1  0  0  0
 20 21  2  0  0  0
 20102  1  0  0  0
 21 23  1  0  0  0
 22 28  1  0  0  0
 22 32  2  0  0  0
 26 27  1  0  0  0
 28103  1  0  0  0
 28104  1  0  0  0
 29105  1  0  0  0
 29106  1  0  0  0
 33 34  1  0  0  0
 33 66  1  0  0  0
 33 70  2  0  0  0
 34 36  1  0  0  0
 34 59  1  0  0  0
 34107  1  0  0  0
 35 44  2  0  0  0
 35 45  1  0  0  0
 35 68  1  0  0  0
 36 56  1  0  0  0
 36108  1  0  0  0
 37 39  1  0  0  0
 37 47  1  0  0  0
 37 66  1  0  0  0
 37109  1  0  0  0
 38 43  2  0  0  0
 38 46  1  0  0  0
 38 47  1  0  0  0
 39 64  1  0  0  0
 39 67  2  0  0  0
 40 52  1  0  0  0
 40 53  2  0  0  0
 40 58  1  0  0  0
 41110  1  0  0  0
 41111  1  0  0  0
 41112  1  0  0  0
 41 48  1  0  0  0
 42 43  1  0  0  0
 42 66  1  0  0  0
 42113  1  0  0  0
 42114  1  0  0  0
 43 44  1  0  0  0
 44115  1  0  0  0
 45 46  2  0  0  0
 45116  1  0  0  0
 46117  1  0  0  0
 47118  1  0  0  0
 47119  1  0  0  0
 48 56  1  0  0  0
 48 65  1  0  0  0
 48120  1  0  0  0
 49 50  1  0  0  0
 49 53  1  0  0  0
 49 64  1  0  0  0
 49121  1  0  0  0
 50 51  1  0  0  0
 50122  1  0  0  0
 50123  1  0  0  0
 51 52  1  0  0  0
 51124  1  0  0  0
 51125  1  0  0  0
 52126  1  0  0  0
 52127  1  0  0  0
 53 54  1  0  0  0
 54 55  2  0  0  0
 54128  1  0  0  0
 55 57  1  0  0  0
 55129  1  0  0  0
 56 69  2  0  0  0
 57 58  2  0  0  0
 57130  1  0  0  0
 58131  1  0  0  0
 59 60  1  0  0  0
 59 61  1  0  0  0
 59 62  1  0  0  0
 60132  1  0  0  0
 60133  1  0  0  0
 60134  1  0  0  0
 61135  1  0  0  0
 61136  1  0  0  0
 61137  1  0  0  0
 62138  1  0  0  0
 62139  1  0  0  0
 62140  1  0  0  0
 63 65  1  0  0  0
 63141  1  0  0  0
 63142  1  0  0  0
 63143  1  0  0  0
 64144  1  0  0  0
 65145  1  0  0  0
 68 77  1  0  0  0
 71 74  2  0  0  0
 71 75  1  0  0  0
 71146  1  0  0  0
 72 74  1  0  0  0
 72 76  2  0  0  0
 72147  1  0  0  0
 73 75  2  0  0  0
 73 76  1  0  0  0
 73148  1  0  0  0
 74 82  1  0  0  0
 75 84  1  0  0  0
 76 86  1  0  0  0
 77 83  1  0  0  0
 77 85  2  0  0  0
 78 80  1  0  0  0
 78 82  1  0  0  0
 78149  1  0  0  0
 78150  1  0  0  0
 79 81  1  0  0  0
 79 82  1  0  0  0
 79151  1  0  0  0
 79152  1  0  0  0
 80 83  1  0  0  0
 80153  1  0  0  0
 80154  1  0  0  0
 81 83  1  0  0  0
 81155  1  0  0  0
 81156  1  0  0  0
 82157  1  0  0  0
 84158  1  0  0  0
M  ISO  4   1 100  68 101  77 101  84 100
M  END
> <chiral flag>
0

> <version>
0

> <s_m_source_file>
/data/baiqing/PycharmProjects/Reinvent-master-3.2/result/LINK_invent/BTK/process_docking_weight1_custom_product_contain_oxygen_bond_distance_aromatic_linkinvent_7_9_3/rearranged_h_0027.sdf

> <i_m_source_file_index>
60

> <r_mmod_Potential_Energy-OPLS-2005>
233.678863525391

> <r_mmod_Stretch_Energy-OPLS-2005>
97.1007995605469

> <r_mmod_Bend_Energy-OPLS-2005>
148.958450317383

> <r_mmod_Torsional_Energy-OPLS-2005>
315.334686279297

> <r_mmod_Improper_Torsional_Energy-OPLS-2005>
6.40515851974487

> <r_mmod_Van_der_Waal_Energy-OPLS-2005>
146.330627441406

> <r_mmod_Electrostatic_Energy-OPLS-2005>
-319.304168701172

> <r_mmod_Solvation_Energy-OPLS-2005>
-224.103591918945

> <b_mmod_Minimization_Converged-OPLS-2005>
0

> <r_mmod_RMS_Derivative-OPLS-2005>
1.07744145393372

$$$$
61
                    3D
 Structure written by MMmdl.
152161  0  0  1  0            999 V2000
  -30.5130  -14.9316   20.4248 C   0  0  0  0  0  0
  -30.4497  -12.5727   19.4986 C   0  0  0  0  0  0
  -29.5255  -12.5336   18.2575 C   0  0  0  0  0  0
  -28.0561  -12.3225   18.6718 C   0  0  0  0  0  0
  -27.6364  -13.2422   19.8477 C   0  0  2  0  0  0
  -28.6792  -13.2350   20.9866 C   0  0  0  0  0  0
  -25.2483  -13.8202   20.5706 C   0  0  0  0  0  0
  -24.1786  -13.0436   20.9210 C   0  0  0  0  0  0
  -24.6394  -11.6919   20.8745 C   0  0  0  0  0  0
  -23.9074  -10.4295   21.0405 C   0  0  0  0  0  0
  -24.3621   -9.4210   21.9183 C   0  0  0  0  0  0
  -23.6294   -8.2246   22.0755 C   0  0  0  0  0  0
  -22.4277   -8.0284   21.3545 C   0  0  0  0  0  0
  -21.9913   -9.0259   20.4648 C   0  0  0  0  0  0
  -22.7244  -10.2136   20.3057 C   0  0  0  0  0  0
  -21.6854   -6.0737   22.5279 C   0  0  0  0  0  0
  -21.4016   -6.5639   23.8211 C   0  0  0  0  0  0
  -21.3659   -5.6791   24.9172 C   0  0  0  0  0  0
  -21.6044   -4.3053   24.7224 C   0  0  0  0  0  0
  -21.8818   -3.8146   23.4344 C   0  0  0  0  0  0
  -21.9194   -4.6964   22.3400 C   0  0  0  0  0  0
  -22.7807  -13.5215   21.1869 C   0  0  0  0  0  0
  -22.1661   -4.2150   21.0976 F   0  0  0  0  0  0
  -21.5627   -3.4537   25.7737 F   0  0  0  0  0  0
  -29.9615  -13.6524   20.4016 N   0  0  0  0  0  0
  -26.2915  -12.9426   20.3273 N   0  0  0  0  0  0
  -25.9330  -11.6560   20.5744 N   0  0  0  0  0  0
  -22.0456  -12.8209   22.0431 N   0  0  0  0  0  0
  -25.4151  -15.1928   20.4148 N   0  0  0  0  0  0
  -31.7005  -15.0514   20.1008 O   0  0  0  0  0  0
  -21.6641   -6.8881   21.4241 O   0  0  0  0  0  0
  -22.3489  -14.5520   20.6717 O   0  0  0  0  0  0
  -24.6430  -31.8434   23.1877 C   0  0  0  0  0  0
  -25.9203  -32.4689   23.8266 C   0  0  1  0  0  0
  -27.2200  -27.1344   20.1426 C   0  0  0  0  0  0
  -25.5951  -33.8496   24.2182 N   0  0  0  0  0  0
  -23.4461  -30.4625   21.5334 C   0  0  2  0  0  0
  -24.8949  -28.8890   20.1080 C   0  0  0  0  0  0
  -22.7563  -29.4540   22.4860 C   0  0  0  0  0  0
  -18.0305  -28.1394   22.8476 C   0  0  0  0  0  0
  -24.1492  -36.7254   23.2642 C   0  0  0  0  0  0
  -26.0019  -30.7155   21.3872 C   0  0  0  0  0  0
  -26.0710  -29.3270   20.7276 C   0  0  0  0  0  0
  -27.2297  -28.4645   20.7300 C   0  0  0  0  0  0
  -26.0143  -26.7975   19.4860 C   0  0  0  0  0  0
  -24.8798  -27.6381   19.4737 C   0  0  0  0  0  0
  -23.6715  -29.7913   20.1524 C   0  0  0  0  0  0
  -25.4124  -36.3027   24.0313 C   0  0  1  0  0  0
  -20.5915  -28.3718   23.1237 C   0  0  2  0  0  0
  -20.6788  -26.9421   22.5404 C   0  0  0  0  0  0
  -19.5762  -26.6379   21.5212 C   0  0  0  0  0  0
  -18.1943  -26.7931   22.1623 C   0  0  0  0  0  0
  -19.1561  -28.8875   23.2848 C   0  0  0  0  0  0
  -18.9476  -30.1471   23.8873 C   0  0  0  0  0  0
  -17.6473  -30.6590   24.0557 C   0  0  0  0  0  0
  -25.9075  -34.9403   23.5057 C   0  0  0  0  0  0
  -16.5365  -29.9082   23.6335 C   0  0  0  0  0  0
  -16.7289  -28.6501   23.0356 C   0  0  0  0  0  0
  -26.4526  -31.6563   25.0713 C   0  0  0  0  0  0
  -25.3709  -31.3757   26.1410 C   0  0  0  0  0  0
  -27.0396  -30.2957   24.6305 C   0  0  0  0  0  0
  -27.6049  -32.4337   25.7501 C   0  0  0  0  0  0
  -27.5574  -37.1783   24.8464 C   0  0  0  0  0  0
  -21.4256  -29.3043   22.3610 N   0  0  0  0  0  0
  -26.4286  -37.3740   23.9405 N   0  0  0  0  0  0
  -24.7168  -31.0287   22.0911 N   0  0  0  0  0  0
  -23.4208  -28.8090   23.3011 O   0  0  0  0  0  0
  -28.2985  -26.1791   20.2412 O   0  0  0  0  0  0
  -26.5662  -34.8901   22.4638 O   0  0  0  0  0  0
  -23.5551  -32.1314   23.7098 O   0  0  0  0  0  0
  -30.4579  -19.8560   19.7190 C   0  0  0  0  0  0
  -30.6159  -18.4144   19.8654 C   0  0  0  0  0  0
  -28.4083  -19.7936   20.8641 C   0  0  0  0  0  0
  -29.3407  -20.6515   20.1882 C   0  0  0  0  0  0
  -29.6582  -17.5668   20.5087 C   0  0  0  0  0  0
  -28.5525  -18.3487   21.0022 C   0  0  0  0  0  0
  -29.7644  -22.8555   18.9201 C   0  0  0  0  0  0
  -29.5088  -24.3852   18.9022 C   0  0  0  0  0  0
  -28.3926  -23.2913   20.6728 C   0  0  0  0  0  0
  -28.2927  -24.6819   19.7890 C   0  0  1  0  0  0
  -29.1827  -22.1785   19.9444 N   0  0  0  0  0  0
  -29.6652  -16.0399   20.6681 N   0  0  0  0  0  0
  -30.4501  -22.3459   18.0283 O   0  0  0  0  0  0
  -27.5610  -17.6760   21.6346 F   0  0  0  0  0  0
  -31.4825  -12.7400   19.1886 H   0  0  0  0  0  0
  -30.4462  -11.6113   20.0148 H   0  0  0  0  0  0
  -29.8391  -11.7427   17.5748 H   0  0  0  0  0  0
  -29.6184  -13.4696   17.7047 H   0  0  0  0  0  0
  -27.9445  -11.2780   18.9648 H   0  0  0  0  0  0
  -27.3950  -12.4715   17.8173 H   0  0  0  0  0  0
  -27.6095  -14.2515   19.4361 H   0  0  0  0  0  0
  -28.7590  -12.2449   21.4381 H   0  0  0  0  0  0
  -28.3801  -13.9120   21.7883 H   0  0  0  0  0  0
  -25.2764   -9.5682   22.4762 H   0  0  0  0  0  0
  -23.9999   -7.4637   22.7473 H   0  0  0  0  0  0
  -21.0843   -8.8780   19.8955 H   0  0  0  0  0  0
  -22.3701  -10.9676   19.6169 H   0  0  0  0  0  0
  -21.2010   -7.6148   23.9715 H   0  0  0  0  0  0
  -21.1482   -6.0521   25.9074 H   0  0  0  0  0  0
  -22.0597   -2.7609   23.2844 H   0  0  0  0  0  0
  -22.4075  -11.9875   22.4824 H   0  0  0  0  0  0
  -21.1076  -13.1238   22.2639 H   0  0  0  0  0  0
  -24.6514  -15.8456   20.5522 H   0  0  0  0  0  0
  -26.2688  -15.6466   20.1181 H   0  0  0  0  0  0
  -26.7267  -32.5288   23.0992 H   0  0  0  0  0  0
  -25.0068  -33.9610   25.0310 H   0  0  0  0  0  0
  -22.7485  -31.2885   21.3796 H   0  0  0  0  0  0
  -23.3756  -35.9584   23.3292 H   0  0  0  0  0  0
  -24.3575  -36.8901   22.2059 H   0  0  0  0  0  0
  -23.7248  -37.6446   23.6692 H   0  0  0  0  0  0
  -26.1600  -31.4705   20.6159 H   0  0  0  0  0  0
  -26.8715  -30.7634   22.0311 H   0  0  0  0  0  0
  -28.1249  -28.7948   21.2378 H   0  0  0  0  0  0
  -25.8936  -25.8470   18.9941 H   0  0  0  0  0  0
  -23.9804  -27.2975   18.9793 H   0  0  0  0  0  0
  -23.8069  -30.5658   19.3966 H   0  0  0  0  0  0
  -22.7859  -29.2332   19.8428 H   0  0  0  0  0  0
  -25.1314  -36.1850   25.0805 H   0  0  0  0  0  0
  -21.0007  -28.3307   24.1359 H   0  0  0  0  0  0
  -20.5682  -26.2329   23.3621 H   0  0  0  0  0  0
  -21.6653  -26.7425   22.1202 H   0  0  0  0  0  0
  -19.6921  -25.6283   21.1257 H   0  0  0  0  0  0
  -19.6698  -27.3176   20.6731 H   0  0  0  0  0  0
  -17.4210  -26.6673   21.4030 H   0  0  0  0  0  0
  -18.0343  -26.0081   22.9029 H   0  0  0  0  0  0
  -19.7953  -30.7295   24.2230 H   0  0  0  0  0  0
  -17.5026  -31.6268   24.5162 H   0  0  0  0  0  0
  -15.5363  -30.2975   23.7674 H   0  0  0  0  0  0
  -15.8690  -28.0811   22.7084 H   0  0  0  0  0  0
  -24.5878  -30.7120   25.7727 H   0  0  0  0  0  0
  -24.8914  -32.2945   26.4796 H   0  0  0  0  0  0
  -25.7988  -30.8946   27.0213 H   0  0  0  0  0  0
  -26.3017  -29.6673   24.1303 H   0  0  0  0  0  0
  -27.3995  -29.7264   25.4886 H   0  0  0  0  0  0
  -27.8930  -30.4192   23.9633 H   0  0  0  0  0  0
  -27.2629  -33.3650   26.2031 H   0  0  0  0  0  0
  -28.3883  -32.6882   25.0349 H   0  0  0  0  0  0
  -28.0694  -31.8499   26.5459 H   0  0  0  0  0  0
  -28.2582  -38.0088   24.7509 H   0  0  0  0  0  0
  -28.1081  -36.2617   24.6293 H   0  0  0  0  0  0
  -27.2291  -37.1430   25.8866 H   0  0  0  0  0  0
  -20.9466  -29.8754   21.6786 H   0  0  0  0  0  0
  -26.0151  -38.2806   24.1409 H   0  0  0  0  0  0
  -31.2638  -20.3592   19.2051 H   0  0  0  0  0  0
  -31.5019  -17.9575   19.4482 H   0  0  0  0  0  0
  -27.5159  -20.2428   21.2743 H   0  0  0  0  0  0
  -29.3597  -24.7459   17.8845 H   0  0  0  0  0  0
  -30.3958  -24.8762   19.3017 H   0  0  0  0  0  0
  -27.3972  -22.9342   20.9375 H   0  0  0  0  0  0
  -28.9090  -23.4982   21.6106 H   0  0  0  0  0  0
  -27.4373  -24.5312   19.1373 H   0  0  0  0  0  0
  -28.7716  -15.7151   21.0060 H   0  0  0  0  0  0
  1 25  1  0  0  0
  1 30  2  0  0  0
  1 82  1  0  0  0
  2  3  1  0  0  0
  2 25  1  0  0  0
  2 85  1  0  0  0
  2 86  1  0  0  0
  3  4  1  0  0  0
  3 87  1  0  0  0
  3 88  1  0  0  0
  4  5  1  0  0  0
  4 89  1  0  0  0
  4 90  1  0  0  0
  5  6  1  0  0  0
  5 26  1  0  0  0
  5 91  1  0  0  0
  6 25  1  0  0  0
  6 92  1  0  0  0
  6 93  1  0  0  0
  7  8  2  0  0  0
  7 26  1  0  0  0
  7 29  1  0  0  0
  8  9  1  0  0  0
  8 22  1  0  0  0
  9 10  1  0  0  0
  9 27  2  0  0  0
 10 11  2  0  0  0
 10 15  1  0  0  0
 11 12  1  0  0  0
 11 94  1  0  0  0
 12 13  2  0  0  0
 12 95  1  0  0  0
 13 14  1  0  0  0
 13 31  1  0  0  0
 14 15  2  0  0  0
 14 96  1  0  0  0
 15 97  1  0  0  0
 16 17  2  0  0  0
 16 21  1  0  0  0
 16 31  1  0  0  0
 17 18  1  0  0  0
 17 98  1  0  0  0
 18 19  2  0  0  0
 18 99  1  0  0  0
 19 20  1  0  0  0
 19 24  1  0  0  0
 20 21  2  0  0  0
 20100  1  0  0  0
 21 23  1  0  0  0
 22 28  1  0  0  0
 22 32  2  0  0  0
 26 27  1  0  0  0
 28101  1  0  0  0
 28102  1  0  0  0
 29103  1  0  0  0
 29104  1  0  0  0
 33 34  1  0  0  0
 33 66  1  0  0  0
 33 70  2  0  0  0
 34 36  1  0  0  0
 34 59  1  0  0  0
 34105  1  0  0  0
 35 44  2  0  0  0
 35 45  1  0  0  0
 35 68  1  0  0  0
 36 56  1  0  0  0
 36106  1  0  0  0
 37 39  1  0  0  0
 37 47  1  0  0  0
 37 66  1  0  0  0
 37107  1  0  0  0
 38 43  2  0  0  0
 38 46  1  0  0  0
 38 47  1  0  0  0
 39 64  1  0  0  0
 39 67  2  0  0  0
 40 52  1  0  0  0
 40 53  2  0  0  0
 40 58  1  0  0  0
 41108  1  0  0  0
 41109  1  0  0  0
 41110  1  0  0  0
 41 48  1  0  0  0
 42 43  1  0  0  0
 42 66  1  0  0  0
 42111  1  0  0  0
 42112  1  0  0  0
 43 44  1  0  0  0
 44113  1  0  0  0
 45 46  2  0  0  0
 45114  1  0  0  0
 46115  1  0  0  0
 47116  1  0  0  0
 47117  1  0  0  0
 48 56  1  0  0  0
 48 65  1  0  0  0
 48118  1  0  0  0
 49 50  1  0  0  0
 49 53  1  0  0  0
 49 64  1  0  0  0
 49119  1  0  0  0
 50 51  1  0  0  0
 50120  1  0  0  0
 50121  1  0  0  0
 51 52  1  0  0  0
 51122  1  0  0  0
 51123  1  0  0  0
 52124  1  0  0  0
 52125  1  0  0  0
 53 54  1  0  0  0
 54 55  2  0  0  0
 54126  1  0  0  0
 55 57  1  0  0  0
 55127  1  0  0  0
 56 69  2  0  0  0
 57 58  2  0  0  0
 57128  1  0  0  0
 58129  1  0  0  0
 59 60  1  0  0  0
 59 61  1  0  0  0
 59 62  1  0  0  0
 60130  1  0  0  0
 60131  1  0  0  0
 60132  1  0  0  0
 61133  1  0  0  0
 61134  1  0  0  0
 61135  1  0  0  0
 62136  1  0  0  0
 62137  1  0  0  0
 62138  1  0  0  0
 63 65  1  0  0  0
 63139  1  0  0  0
 63140  1  0  0  0
 63141  1  0  0  0
 64142  1  0  0  0
 65143  1  0  0  0
 68 80  1  0  0  0
 71 72  2  0  0  0
 71 74  1  0  0  0
 71144  1  0  0  0
 72 75  1  0  0  0
 72145  1  0  0  0
 73 74  2  0  0  0
 73 76  1  0  0  0
 73146  1  0  0  0
 74 81  1  0  0  0
 75 76  2  0  0  0
 75 82  1  0  0  0
 76 84  1  0  0  0
 77 78  1  0  0  0
 77 81  1  0  0  0
 77 83  2  0  0  0
 78 80  1  0  0  0
 78147  1  0  0  0
 78148  1  0  0  0
 79 80  1  0  0  0
 79 81  1  0  0  0
 79149  1  0  0  0
 79150  1  0  0  0
 80151  1  0  0  0
 82152  1  0  0  0
M  ISO  4   1 100  68 101  80 101  82 100
M  END
> <chiral flag>
0

> <version>
0

> <s_m_source_file>
/data/baiqing/PycharmProjects/Reinvent-master-3.2/result/LINK_invent/BTK/process_docking_weight1_custom_product_contain_oxygen_bond_distance_aromatic_linkinvent_7_9_3/rearranged_h_0027.sdf

> <i_m_source_file_index>
61

> <r_mmod_Potential_Energy-OPLS-2005>
476.735198974609

> <r_mmod_Stretch_Energy-OPLS-2005>
225.532958984375

> <r_mmod_Bend_Energy-OPLS-2005>
297.695953369141

> <r_mmod_Torsional_Energy-OPLS-2005>
254.663192749023

> <r_mmod_Improper_Torsional_Energy-OPLS-2005>
3.3829607963562

> <r_mmod_Van_der_Waal_Energy-OPLS-2005>
131.921859741211

> <r_mmod_Electrostatic_Energy-OPLS-2005>
-403.573669433594

> <r_mmod_Solvation_Energy-OPLS-2005>
-217.200378417969

> <b_mmod_Minimization_Converged-OPLS-2005>
0

> <r_mmod_RMS_Derivative-OPLS-2005>
0.449558764696121

$$$$
62
                    3D
 Structure written by MMmdl.
168177  0  0  1  0            999 V2000
  -30.7993  -14.4238   20.6566 C   0  0  0  0  0  0
  -30.4074  -12.3171   19.4242 C   0  0  0  0  0  0
  -29.4808  -12.5146   18.2120 C   0  0  0  0  0  0
  -28.0111  -12.3666   18.6336 C   0  0  0  0  0  0
  -27.6605  -13.2180   19.8811 C   0  0  2  0  0  0
  -28.7048  -13.0324   21.0051 C   0  0  0  0  0  0
  -25.2593  -13.8185   20.5812 C   0  0  0  0  0  0
  -24.1830  -13.0442   20.9228 C   0  0  0  0  0  0
  -24.6402  -11.6923   20.8792 C   0  0  0  0  0  0
  -23.9055  -10.4302   21.0420 C   0  0  0  0  0  0
  -24.3589   -9.4204   21.9186 C   0  0  0  0  0  0
  -23.6259   -8.2250   22.0752 C   0  0  0  0  0  0
  -22.4232   -8.0299   21.3555 C   0  0  0  0  0  0
  -21.9864   -9.0295   20.4674 C   0  0  0  0  0  0
  -22.7200  -10.2176   20.3112 C   0  0  0  0  0  0
  -21.6842   -6.0756   22.5291 C   0  0  0  0  0  0
  -21.4015   -6.5663   23.8231 C   0  0  0  0  0  0
  -21.3667   -5.6812   24.9198 C   0  0  0  0  0  0
  -21.6013   -4.3077   24.7232 C   0  0  0  0  0  0
  -21.8754   -3.8161   23.4352 C   0  0  0  0  0  0
  -21.9161   -4.6983   22.3404 C   0  0  0  0  0  0
  -22.7830  -13.5206   21.1847 C   0  0  0  0  0  0
  -22.1626   -4.2157   21.0993 F   0  0  0  0  0  0
  -21.5630   -3.4557   25.7755 F   0  0  0  0  0  0
  -30.0463  -13.3031   20.4588 N   0  0  0  0  0  0
  -26.3038  -12.9377   20.3485 N   0  0  0  0  0  0
  -25.9346  -11.6514   20.5855 N   0  0  0  0  0  0
  -22.0458  -12.8197   22.0389 N   0  0  0  0  0  0
  -25.4284  -15.1928   20.4345 N   0  0  0  0  0  0
  -31.8199  -14.6497   19.9975 O   0  0  0  0  0  0
  -21.6604   -6.8905   21.4246 O   0  0  0  0  0  0
  -22.3505  -14.5483   20.6655 O   0  0  0  0  0  0
  -24.6164  -31.8687   23.2071 C   0  0  0  0  0  0
  -25.9045  -32.4815   23.8384 C   0  0  1  0  0  0
  -27.2279  -27.4161   20.0926 C   0  0  0  0  0  0
  -25.5926  -33.8617   24.2318 N   0  0  0  0  0  0
  -23.4055  -30.4913   21.5508 C   0  0  2  0  0  0
  -24.8500  -28.9603   20.1157 C   0  0  0  0  0  0
  -22.7440  -29.4633   22.4969 C   0  0  0  0  0  0
  -18.0298  -28.1395   22.8478 C   0  0  0  0  0  0
  -24.1495  -36.7314   23.2636 C   0  0  0  0  0  0
  -25.9399  -30.8270   21.3647 C   0  0  0  0  0  0
  -26.0136  -29.4611   20.7109 C   0  0  0  0  0  0
  -27.2078  -28.6982   20.6938 C   0  0  0  0  0  0
  -26.0436  -26.9422   19.4818 C   0  0  0  0  0  0
  -24.8621  -27.7015   19.4951 C   0  0  0  0  0  0
  -23.6127  -29.8276   20.1647 C   0  0  0  0  0  0
  -25.4116  -36.3104   24.0332 C   0  0  1  0  0  0
  -20.5891  -28.3652   23.1326 C   0  0  2  0  0  0
  -20.6792  -26.9378   22.5434 C   0  0  0  0  0  0
  -19.5766  -26.6381   21.5239 C   0  0  0  0  0  0
  -18.1941  -26.7942   22.1628 C   0  0  0  0  0  0
  -19.1550  -28.8843   23.2899 C   0  0  0  0  0  0
  -18.9459  -30.1452   23.8896 C   0  0  0  0  0  0
  -17.6453  -30.6583   24.0549 C   0  0  0  0  0  0
  -25.9056  -34.9468   23.5124 C   0  0  0  0  0  0
  -16.5345  -29.9074   23.6333 C   0  0  0  0  0  0
  -16.7283  -28.6508   23.0335 C   0  0  0  0  0  0
  -26.4466  -31.6605   25.0724 C   0  0  0  0  0  0
  -25.3708  -31.3706   26.1450 C   0  0  0  0  0  0
  -27.0298  -30.3050   24.6106 C   0  0  0  0  0  0
  -27.6053  -32.4320   25.7475 C   0  0  0  0  0  0
  -27.5582  -37.1811   24.8463 C   0  0  0  0  0  0
  -21.4169  -29.3007   22.3719 N   0  0  0  0  0  0
  -26.4296  -37.3788   23.9412 N   0  0  0  0  0  0
  -24.6722  -31.0771   22.0983 N   0  0  0  0  0  0
  -23.4215  -28.8154   23.2993 O   0  0  0  0  0  0
  -28.3884  -26.6586   20.0879 O   0  0  0  0  0  0
  -26.5597  -34.8916   22.4676 O   0  0  0  0  0  0
  -23.5351  -32.1440   23.7469 O   0  0  0  0  0  0
  -30.3243  -18.8248   20.5537 C   0  0  0  0  0  0
  -30.5801  -17.4318   20.5654 C   0  0  0  0  0  0
  -28.9462  -18.5648   22.5202 C   0  0  0  0  0  0
  -29.1857  -17.1694   22.5366 C   0  0  0  0  0  0
  -29.5352  -19.4144   21.5622 C   0  0  0  0  0  0
  -30.0560  -16.5797   21.5775 C   0  0  0  0  0  0
  -28.3085  -23.5712   22.1202 C   0  0  0  0  0  0
  -28.0175  -25.0571   21.9110 C   0  0  0  0  0  0
  -29.4789  -24.3745   20.1189 C   0  0  0  0  0  0
  -29.4857  -23.2388   21.1810 C   0  0  2  0  0  0
  -28.2439  -25.2566   20.4146 C   0  0  2  0  0  0
  -28.5119  -16.3426   23.6215 C   0  0  0  0  0  0
  -30.9088  -13.7278   23.7299 C   0  0  0  0  0  0
  -29.4529  -21.7851   20.6222 C   0  0  0  0  0  0
  -31.3416  -14.9589   22.9139 C   0  0  0  0  0  0
  -29.3470  -20.8040   21.7084 N   0  0  0  0  0  0
  -30.4980  -15.2066   21.7269 N   0  0  0  0  0  0
  -31.4507  -12.3932   19.1117 H   0  0  0  0  0  0
  -30.3002  -11.3110   19.8290 H   0  0  0  0  0  0
  -29.7175  -11.7855   17.4355 H   0  0  0  0  0  0
  -29.6431  -13.5018   17.7763 H   0  0  0  0  0  0
  -27.8240  -11.3119   18.8455 H   0  0  0  0  0  0
  -27.3484  -12.6239   17.8062 H   0  0  0  0  0  0
  -27.6936  -14.2622   19.5668 H   0  0  0  0  0  0
  -28.6732  -12.0153   21.3986 H   0  0  0  0  0  0
  -28.4592  -13.6812   21.8432 H   0  0  0  0  0  0
  -25.2729   -9.5673   22.4765 H   0  0  0  0  0  0
  -23.9955   -7.4645   22.7498 H   0  0  0  0  0  0
  -21.0767   -8.8855   19.9005 H   0  0  0  0  0  0
  -22.3650  -10.9761   19.6279 H   0  0  0  0  0  0
  -21.2002   -7.6180   23.9753 H   0  0  0  0  0  0
  -21.1527   -6.0556   25.9111 H   0  0  0  0  0  0
  -22.0503   -2.7615   23.2866 H   0  0  0  0  0  0
  -22.4045  -11.9828   22.4734 H   0  0  0  0  0  0
  -21.1019  -13.1146   22.2492 H   0  0  0  0  0  0
  -24.6632  -15.8427   20.5830 H   0  0  0  0  0  0
  -26.3003  -15.6481   20.1927 H   0  0  0  0  0  0
  -26.7106  -32.5501   23.1137 H   0  0  0  0  0  0
  -25.0103  -33.9790   25.0471 H   0  0  0  0  0  0
  -22.6944  -31.3085   21.4118 H   0  0  0  0  0  0
  -23.3752  -35.9655   23.3314 H   0  0  0  0  0  0
  -24.3586  -36.8927   22.2050 H   0  0  0  0  0  0
  -23.7261  -37.6526   23.6647 H   0  0  0  0  0  0
  -26.0653  -31.5890   20.5937 H   0  0  0  0  0  0
  -26.8244  -30.8771   21.9876 H   0  0  0  0  0  0
  -28.1073  -29.0774   21.1570 H   0  0  0  0  0  0
  -26.0139  -25.9951   18.9648 H   0  0  0  0  0  0
  -23.9717  -27.3171   19.0188 H   0  0  0  0  0  0
  -23.7197  -30.6027   19.4037 H   0  0  0  0  0  0
  -22.7361  -29.2483   19.8683 H   0  0  0  0  0  0
  -25.1296  -36.1977   25.0825 H   0  0  0  0  0  0
  -21.0005  -28.3225   24.1441 H   0  0  0  0  0  0
  -20.5769  -26.2220   23.3613 H   0  0  0  0  0  0
  -21.6640  -26.7461   22.1154 H   0  0  0  0  0  0
  -19.6915  -25.6313   21.1230 H   0  0  0  0  0  0
  -19.6724  -27.3221   20.6801 H   0  0  0  0  0  0
  -17.4218  -26.6715   21.4015 H   0  0  0  0  0  0
  -18.0275  -26.0108   22.9037 H   0  0  0  0  0  0
  -19.7930  -30.7278   24.2253 H   0  0  0  0  0  0
  -17.5006  -31.6259   24.5161 H   0  0  0  0  0  0
  -15.5347  -30.2959   23.7673 H   0  0  0  0  0  0
  -15.8692  -28.0830   22.7031 H   0  0  0  0  0  0
  -24.5881  -30.7073   25.7751 H   0  0  0  0  0  0
  -24.8878  -32.2849   26.4908 H   0  0  0  0  0  0
  -25.8021  -30.8842   27.0206 H   0  0  0  0  0  0
  -26.2840  -29.6811   24.1163 H   0  0  0  0  0  0
  -27.4080  -29.7296   25.4570 H   0  0  0  0  0  0
  -27.8669  -30.4386   23.9244 H   0  0  0  0  0  0
  -27.2706  -33.3628   26.2062 H   0  0  0  0  0  0
  -28.3836  -32.6880   25.0274 H   0  0  0  0  0  0
  -28.0742  -31.8431   26.5369 H   0  0  0  0  0  0
  -28.2599  -38.0104   24.7524 H   0  0  0  0  0  0
  -28.1081  -36.2644   24.6280 H   0  0  0  0  0  0
  -27.2300  -37.1456   25.8862 H   0  0  0  0  0  0
  -20.9338  -29.8731   21.6938 H   0  0  0  0  0  0
  -26.0191  -38.2873   24.1398 H   0  0  0  0  0  0
  -30.7973  -19.4327   19.7971 H   0  0  0  0  0  0
  -31.2539  -17.0532   19.8121 H   0  0  0  0  0  0
  -28.3186  -18.9959   23.2865 H   0  0  0  0  0  0
  -27.4276  -22.9937   21.8385 H   0  0  0  0  0  0
  -28.5298  -23.3431   23.1626 H   0  0  0  0  0  0
  -28.7273  -25.6615   22.4761 H   0  0  0  0  0  0
  -27.0106  -25.3360   22.2289 H   0  0  0  0  0  0
  -29.4582  -23.9881   19.0988 H   0  0  0  0  0  0
  -30.3927  -24.9631   20.2140 H   0  0  0  0  0  0
  -30.4113  -23.3488   21.7528 H   0  0  0  0  0  0
  -27.4150  -24.7870   19.8863 H   0  0  0  0  0  0
  -29.1917  -16.1772   24.4568 H   0  0  0  0  0  0
  -28.1817  -15.3780   23.2381 H   0  0  0  0  0  0
  -27.6300  -16.8462   24.0143 H   0  0  0  0  0  0
  -31.4896  -13.6549   24.6517 H   0  0  0  0  0  0
  -31.0708  -12.8024   23.1757 H   0  0  0  0  0  0
  -29.8582  -13.7765   24.0112 H   0  0  0  0  0  0
  -30.3459  -21.6071   20.0216 H   0  0  0  0  0  0
  -28.5941  -21.6641   19.9613 H   0  0  0  0  0  0
  -32.3856  -14.8397   22.6153 H   0  0  0  0  0  0
  -31.3510  -15.8343   23.5631 H   0  0  0  0  0  0
  -28.8045  -21.1065   22.5126 H   0  0  0  0  0  0
  1 25  1  0  0  0
  1 30  2  0  0  0
  1 87  1  0  0  0
  2  3  1  0  0  0
  2 25  1  0  0  0
  2 88  1  0  0  0
  2 89  1  0  0  0
  3  4  1  0  0  0
  3 90  1  0  0  0
  3 91  1  0  0  0
  4  5  1  0  0  0
  4 92  1  0  0  0
  4 93  1  0  0  0
  5  6  1  0  0  0
  5 26  1  0  0  0
  5 94  1  0  0  0
  6 25  1  0  0  0
  6 95  1  0  0  0
  6 96  1  0  0  0
  7  8  2  0  0  0
  7 26  1  0  0  0
  7 29  1  0  0  0
  8  9  1  0  0  0
  8 22  1  0  0  0
  9 10  1  0  0  0
  9 27  2  0  0  0
 10 11  2  0  0  0
 10 15  1  0  0  0
 11 12  1  0  0  0
 11 97  1  0  0  0
 12 13  2  0  0  0
 12 98  1  0  0  0
 13 14  1  0  0  0
 13 31  1  0  0  0
 14 15  2  0  0  0
 14 99  1  0  0  0
 15100  1  0  0  0
 16 17  2  0  0  0
 16 21  1  0  0  0
 16 31  1  0  0  0
 17 18  1  0  0  0
 17101  1  0  0  0
 18 19  2  0  0  0
 18102  1  0  0  0
 19 20  1  0  0  0
 19 24  1  0  0  0
 20 21  2  0  0  0
 20103  1  0  0  0
 21 23  1  0  0  0
 22 28  1  0  0  0
 22 32  2  0  0  0
 26 27  1  0  0  0
 28104  1  0  0  0
 28105  1  0  0  0
 29106  1  0  0  0
 29107  1  0  0  0
 33 34  1  0  0  0
 33 66  1  0  0  0
 33 70  2  0  0  0
 34 36  1  0  0  0
 34 59  1  0  0  0
 34108  1  0  0  0
 35 44  2  0  0  0
 35 45  1  0  0  0
 35 68  1  0  0  0
 36 56  1  0  0  0
 36109  1  0  0  0
 37 39  1  0  0  0
 37 47  1  0  0  0
 37 66  1  0  0  0
 37110  1  0  0  0
 38 43  2  0  0  0
 38 46  1  0  0  0
 38 47  1  0  0  0
 39 64  1  0  0  0
 39 67  2  0  0  0
 40 52  1  0  0  0
 40 53  2  0  0  0
 40 58  1  0  0  0
 41111  1  0  0  0
 41112  1  0  0  0
 41113  1  0  0  0
 41 48  1  0  0  0
 42 43  1  0  0  0
 42 66  1  0  0  0
 42114  1  0  0  0
 42115  1  0  0  0
 43 44  1  0  0  0
 44116  1  0  0  0
 45 46  2  0  0  0
 45117  1  0  0  0
 46118  1  0  0  0
 47119  1  0  0  0
 47120  1  0  0  0
 48 56  1  0  0  0
 48 65  1  0  0  0
 48121  1  0  0  0
 49 50  1  0  0  0
 49 53  1  0  0  0
 49 64  1  0  0  0
 49122  1  0  0  0
 50 51  1  0  0  0
 50123  1  0  0  0
 50124  1  0  0  0
 51 52  1  0  0  0
 51125  1  0  0  0
 51126  1  0  0  0
 52127  1  0  0  0
 52128  1  0  0  0
 53 54  1  0  0  0
 54 55  2  0  0  0
 54129  1  0  0  0
 55 57  1  0  0  0
 55130  1  0  0  0
 56 69  2  0  0  0
 57 58  2  0  0  0
 57131  1  0  0  0
 58132  1  0  0  0
 59 60  1  0  0  0
 59 61  1  0  0  0
 59 62  1  0  0  0
 60133  1  0  0  0
 60134  1  0  0  0
 60135  1  0  0  0
 61136  1  0  0  0
 61137  1  0  0  0
 61138  1  0  0  0
 62139  1  0  0  0
 62140  1  0  0  0
 62141  1  0  0  0
 63 65  1  0  0  0
 63142  1  0  0  0
 63143  1  0  0  0
 63144  1  0  0  0
 64145  1  0  0  0
 65146  1  0  0  0
 68 81  1  0  0  0
 71 72  2  0  0  0
 71 75  1  0  0  0
 71147  1  0  0  0
 72 76  1  0  0  0
 72148  1  0  0  0
 73 74  1  0  0  0
 73 75  2  0  0  0
 73149  1  0  0  0
 74 76  2  0  0  0
 74 82  1  0  0  0
 75 86  1  0  0  0
 76 87  1  0  0  0
 77 78  1  0  0  0
 77 80  1  0  0  0
 77150  1  0  0  0
 77151  1  0  0  0
 78 81  1  0  0  0
 78152  1  0  0  0
 78153  1  0  0  0
 79 80  1  0  0  0
 79 81  1  0  0  0
 79154  1  0  0  0
 79155  1  0  0  0
 80 84  1  0  0  0
 80156  1  0  0  0
 81157  1  0  0  0
 82158  1  0  0  0
 82159  1  0  0  0
 82160  1  0  0  0
 83 85  1  0  0  0
 83161  1  0  0  0
 83162  1  0  0  0
 83163  1  0  0  0
 84 86  1  0  0  0
 84164  1  0  0  0
 84165  1  0  0  0
 85 87  1  0  0  0
 85166  1  0  0  0
 85167  1  0  0  0
 86168  1  0  0  0
M  ISO  4   1 100  68 101  81 101  87 100
M  END
> <chiral flag>
0

> <version>
0

> <s_m_source_file>
/data/baiqing/PycharmProjects/Reinvent-master-3.2/result/LINK_invent/BTK/process_docking_weight1_custom_product_contain_oxygen_bond_distance_aromatic_linkinvent_7_9_3/rearranged_h_0027.sdf

> <i_m_source_file_index>
62

> <r_mmod_Potential_Energy-OPLS-2005>
208.646453857422

> <r_mmod_Stretch_Energy-OPLS-2005>
45.7753868103027

> <r_mmod_Bend_Energy-OPLS-2005>
144.507034301758

> <r_mmod_Torsional_Energy-OPLS-2005>
354.960998535156

> <r_mmod_Improper_Torsional_Energy-OPLS-2005>
7.98679876327515

> <r_mmod_Van_der_Waal_Energy-OPLS-2005>
151.883193969727

> <r_mmod_Electrostatic_Energy-OPLS-2005>
-327.527587890625

> <r_mmod_Solvation_Energy-OPLS-2005>
-181.851943969727

> <b_mmod_Minimization_Converged-OPLS-2005>
0

> <r_mmod_RMS_Derivative-OPLS-2005>
3.5312807559967

$$$$
63
                    3D
 Structure written by MMmdl.
172182  0  0  1  0            999 V2000
  -30.5896  -14.6992   20.4969 C   0  0  0  0  0  0
  -30.4440  -12.4275   19.4742 C   0  0  0  0  0  0
  -29.5171  -12.5133   18.2402 C   0  0  0  0  0  0
  -28.0406  -12.3387   18.6472 C   0  0  0  0  0  0
  -27.6527  -13.2185   19.8651 C   0  0  2  0  0  0
  -28.6934  -13.0945   21.0009 C   0  0  0  0  0  0
  -25.2568  -13.8175   20.5698 C   0  0  0  0  0  0
  -24.1826  -13.0436   20.9181 C   0  0  0  0  0  0
  -24.6388  -11.6909   20.8728 C   0  0  0  0  0  0
  -23.9050  -10.4292   21.0394 C   0  0  0  0  0  0
  -24.3602   -9.4218   21.9177 C   0  0  0  0  0  0
  -23.6285   -8.2252   22.0754 C   0  0  0  0  0  0
  -22.4273   -8.0278   21.3538 C   0  0  0  0  0  0
  -21.9900   -9.0248   20.4639 C   0  0  0  0  0  0
  -22.7224  -10.2132   20.3046 C   0  0  0  0  0  0
  -21.6855   -6.0729   22.5277 C   0  0  0  0  0  0
  -21.4016   -6.5635   23.8209 C   0  0  0  0  0  0
  -21.3661   -5.6793   24.9173 C   0  0  0  0  0  0
  -21.6045   -4.3056   24.7230 C   0  0  0  0  0  0
  -21.8820   -3.8144   23.4347 C   0  0  0  0  0  0
  -21.9193   -4.6960   22.3401 C   0  0  0  0  0  0
  -22.7850  -13.5235   21.1841 C   0  0  0  0  0  0
  -22.1662   -4.2142   21.0983 F   0  0  0  0  0  0
  -21.5628   -3.4542   25.7743 F   0  0  0  0  0  0
  -30.0059  -13.4562   20.4421 N   0  0  0  0  0  0
  -26.2983  -12.9353   20.3317 N   0  0  0  0  0  0
  -25.9317  -11.6507   20.5731 N   0  0  0  0  0  0
  -22.0486  -12.8232   22.0398 N   0  0  0  0  0  0
  -25.4293  -15.1895   20.4166 N   0  0  0  0  0  0
  -31.7377  -14.8757   20.0760 O   0  0  0  0  0  0
  -21.6638   -6.8873   21.4239 O   0  0  0  0  0  0
  -22.3546  -14.5543   20.6692 O   0  0  0  0  0  0
  -24.6316  -31.8560   23.2020 C   0  0  0  0  0  0
  -25.9161  -32.4752   23.8347 C   0  0  1  0  0  0
  -27.2145  -27.2752   20.1197 C   0  0  0  0  0  0
  -25.5966  -33.8559   24.2263 N   0  0  0  0  0  0
  -23.4251  -30.4800   21.5463 C   0  0  2  0  0  0
  -24.8704  -28.9366   20.1091 C   0  0  0  0  0  0
  -22.7501  -29.4589   22.4942 C   0  0  0  0  0  0
  -18.0273  -28.1358   22.8471 C   0  0  0  0  0  0
  -24.1492  -36.7271   23.2643 C   0  0  0  0  0  0
  -25.9718  -30.7729   21.3811 C   0  0  0  0  0  0
  -26.0437  -29.3997   20.7181 C   0  0  0  0  0  0
  -27.2185  -28.5815   20.7143 C   0  0  0  0  0  0
  -26.0156  -26.8854   19.4765 C   0  0  0  0  0  0
  -24.8611  -27.6857   19.4792 C   0  0  0  0  0  0
  -23.6402  -29.8197   20.1613 C   0  0  0  0  0  0
  -25.4116  -36.3057   24.0328 C   0  0  1  0  0  0
  -20.5880  -28.3671   23.1257 C   0  0  2  0  0  0
  -20.6760  -26.9386   22.5397 C   0  0  0  0  0  0
  -19.5737  -26.6362   21.5196 C   0  0  0  0  0  0
  -18.1916  -26.7901   22.1605 C   0  0  0  0  0  0
  -19.1530  -28.8835   23.2847 C   0  0  0  0  0  0
  -18.9463  -30.1440   23.8853 C   0  0  0  0  0  0
  -17.6469  -30.6567   24.0545 C   0  0  0  0  0  0
  -25.9067  -34.9438   23.5088 C   0  0  0  0  0  0
  -16.5359  -29.9059   23.6333 C   0  0  0  0  0  0
  -16.7263  -28.6478   23.0347 C   0  0  0  0  0  0
  -26.4533  -31.6584   25.0736 C   0  0  0  0  0  0
  -25.3765  -31.3718   26.1454 C   0  0  0  0  0  0
  -27.0440  -30.3016   24.6252 C   0  0  0  0  0  0
  -27.6056  -32.4365   25.7520 C   0  0  0  0  0  0
  -27.5577  -37.1776   24.8461 C   0  0  0  0  0  0
  -21.4208  -29.3032   22.3679 N   0  0  0  0  0  0
  -26.4278  -37.3766   23.9425 N   0  0  0  0  0  0
  -24.6951  -31.0545   22.0986 N   0  0  0  0  0  0
  -23.4200  -28.8107   23.3023 O   0  0  0  0  0  0
  -28.3026  -26.3740   20.1874 O   0  0  0  0  0  0
  -26.5629  -34.8915   22.4650 O   0  0  0  0  0  0
  -23.5474  -32.1395   23.7322 O   0  0  0  0  0  0
  -29.0425  -19.4610   21.5230 C   0  0  0  0  0  0
  -30.3812  -17.8985   19.6731 C   0  0  0  0  0  0
  -29.1066  -18.0382   21.6821 C   0  0  0  0  0  0
  -30.2805  -19.3267   19.5073 C   0  0  0  0  0  0
  -29.6235  -20.1989   20.4494 C   0  0  0  0  0  0
  -29.8037  -17.2016   20.7650 C   0  0  0  0  0  0
  -28.6914  -19.3846   15.3047 C   0  0  0  0  0  0
  -29.7421  -20.3506   14.7502 C   0  0  0  0  0  0
  -29.3008  -22.5574   19.2893 C   0  0  0  0  0  0
  -28.7657  -22.5383   21.2784 C   0  0  0  0  0  0
  -29.2695  -18.9444   16.6510 C   0  0  0  0  0  0
  -30.5588  -20.8144   15.9699 C   0  0  0  0  0  0
  -29.0608  -23.7360   20.3003 C   0  0  0  0  0  0
  -28.4191  -17.4157   22.8867 C   0  0  0  0  0  0
  -30.9498  -19.9038   18.2618 C   0  0  0  0  0  0
  -28.0194  -24.9141   19.9867 C   0  0  0  0  0  0
  -29.6241  -21.6874   20.4324 N   0  0  0  0  0  0
  -29.7887  -15.7335   20.9318 N   0  0  0  0  0  0
  -29.9870  -20.1334   17.1541 N   0  3  0  0  0  0
  -31.4853  -12.5627   19.1775 H   0  0  0  0  0  0
  -30.3906  -11.4373   19.9296 H   0  0  0  0  0  0
  -29.7953  -11.7541   17.5084 H   0  0  0  0  0  0
  -29.6501  -13.4785   17.7463 H   0  0  0  0  0  0
  -27.8907  -11.2860   18.8913 H   0  0  0  0  0  0
  -27.3866  -12.5518   17.8011 H   0  0  0  0  0  0
  -27.6657  -14.2499   19.5120 H   0  0  0  0  0  0
  -28.7177  -12.0759   21.3921 H   0  0  0  0  0  0
  -28.4225  -13.7293   21.8457 H   0  0  0  0  0  0
  -25.2739   -9.5706   22.4757 H   0  0  0  0  0  0
  -23.9996   -7.4649   22.7485 H   0  0  0  0  0  0
  -21.0830   -8.8750   19.8946 H   0  0  0  0  0  0
  -22.3664  -10.9662   19.6156 H   0  0  0  0  0  0
  -21.2010   -7.6145   23.9705 H   0  0  0  0  0  0
  -21.1484   -6.0525   25.9070 H   0  0  0  0  0  0
  -22.0597   -2.7601   23.2854 H   0  0  0  0  0  0
  -22.4097  -11.9890   22.4785 H   0  0  0  0  0  0
  -21.1095  -13.1257   22.2587 H   0  0  0  0  0  0
  -24.6626  -15.8439   20.5297 H   0  0  0  0  0  0
  -26.2828  -15.6309   20.0989 H   0  0  0  0  0  0
  -26.7222  -32.5398   23.1082 H   0  0  0  0  0  0
  -25.0157  -33.9709   25.0435 H   0  0  0  0  0  0
  -22.7194  -31.3011   21.4036 H   0  0  0  0  0  0
  -23.3772  -35.9580   23.3269 H   0  0  0  0  0  0
  -24.3581  -36.8955   22.2065 H   0  0  0  0  0  0
  -23.7243  -37.6452   23.6707 H   0  0  0  0  0  0
  -26.1153  -31.5358   20.6152 H   0  0  0  0  0  0
  -26.8483  -30.8146   22.0165 H   0  0  0  0  0  0
  -28.1138  -28.9281   21.2107 H   0  0  0  0  0  0
  -25.9229  -25.9349   18.9758 H   0  0  0  0  0  0
  -23.9632  -27.3233   18.9975 H   0  0  0  0  0  0
  -23.7608  -30.5975   19.4067 H   0  0  0  0  0  0
  -22.7598  -29.2520   19.8570 H   0  0  0  0  0  0
  -25.1289  -36.1882   25.0817 H   0  0  0  0  0  0
  -20.9939  -28.3244   24.1392 H   0  0  0  0  0  0
  -20.5652  -26.2280   23.3593 H   0  0  0  0  0  0
  -21.6631  -26.7405   22.1206 H   0  0  0  0  0  0
  -19.6908  -25.6270   21.1225 H   0  0  0  0  0  0
  -19.6676  -27.3166   20.6717 H   0  0  0  0  0  0
  -17.4185  -26.6635   21.4008 H   0  0  0  0  0  0
  -18.0312  -26.0029   22.8985 H   0  0  0  0  0  0
  -19.7949  -30.7250   24.2204 H   0  0  0  0  0  0
  -17.5037  -31.6246   24.5151 H   0  0  0  0  0  0
  -15.5358  -30.2952   23.7706 H   0  0  0  0  0  0
  -15.8652  -28.0807   22.7078 H   0  0  0  0  0  0
  -24.5938  -30.7059   25.7800 H   0  0  0  0  0  0
  -24.8943  -32.2872   26.4881 H   0  0  0  0  0  0
  -25.8091  -30.8907   27.0232 H   0  0  0  0  0  0
  -26.3057  -29.6695   24.1297 H   0  0  0  0  0  0
  -27.4163  -29.7336   25.4791 H   0  0  0  0  0  0
  -27.8897  -30.4312   23.9496 H   0  0  0  0  0  0
  -27.2629  -33.3679   26.2034 H   0  0  0  0  0  0
  -28.3886  -32.6922   25.0372 H   0  0  0  0  0  0
  -28.0692  -31.8546   26.5491 H   0  0  0  0  0  0
  -28.2541  -38.0124   24.7577 H   0  0  0  0  0  0
  -28.1126  -36.2656   24.6195 H   0  0  0  0  0  0
  -27.2291  -37.1326   25.8860 H   0  0  0  0  0  0
  -20.9392  -29.8805   21.6927 H   0  0  0  0  0  0
  -26.0140  -38.2822   24.1470 H   0  0  0  0  0  0
  -28.5294  -20.0226   22.2901 H   0  0  0  0  0  0
  -30.9049  -17.3212   18.9238 H   0  0  0  0  0  0
  -28.4881  -18.5476   14.6344 H   0  0  0  0  0  0
  -27.7510  -19.9145   15.4630 H   0  0  0  0  0  0
  -29.2826  -21.1883   14.2237 H   0  0  0  0  0  0
  -30.3914  -19.8378   14.0389 H   0  0  0  0  0  0
  -30.1293  -22.7472   18.6058 H   0  0  0  0  0  0
  -28.3917  -22.2564   18.7638 H   0  0  0  0  0  0
  -27.7206  -22.2196   21.2781 H   0  0  0  0  0  0
  -29.1423  -22.6868   22.2915 H   0  0  0  0  0  0
  -29.9721  -18.1233   16.5001 H   0  0  0  0  0  0
  -28.4967  -18.6037   17.3415 H   0  0  0  0  0  0
  -30.5229  -21.8973   16.0940 H   0  0  0  0  0  0
  -31.6056  -20.5375   15.8318 H   0  0  0  0  0  0
  -30.0293  -24.1682   20.5607 H   0  0  0  0  0  0
  -28.0311  -18.1750   23.5671 H   0  0  0  0  0  0
  -29.1187  -16.7955   23.4488 H   0  0  0  0  0  0
  -27.5822  -16.7911   22.5723 H   0  0  0  0  0  0
  -31.7450  -19.2383   17.9235 H   0  0  0  0  0  0
  -31.4478  -20.8380   18.5224 H   0  0  0  0  0  0
  -27.1082  -24.6817   20.5407 H   0  0  0  0  0  0
  -27.7530  -24.8069   18.9351 H   0  0  0  0  0  0
  -28.9685  -15.3911   21.4082 H   0  0  0  0  0  0
  -29.2756  -20.7474   17.5179 H   0  0  0  0  0  0
  1 25  1  0  0  0
  1 30  2  0  0  0
  1 88  1  0  0  0
  2  3  1  0  0  0
  2 25  1  0  0  0
  2 90  1  0  0  0
  2 91  1  0  0  0
  3  4  1  0  0  0
  3 92  1  0  0  0
  3 93  1  0  0  0
  4  5  1  0  0  0
  4 94  1  0  0  0
  4 95  1  0  0  0
  5  6  1  0  0  0
  5 26  1  0  0  0
  5 96  1  0  0  0
  6 25  1  0  0  0
  6 97  1  0  0  0
  6 98  1  0  0  0
  7  8  2  0  0  0
  7 26  1  0  0  0
  7 29  1  0  0  0
  8  9  1  0  0  0
  8 22  1  0  0  0
  9 10  1  0  0  0
  9 27  2  0  0  0
 10 11  2  0  0  0
 10 15  1  0  0  0
 11 12  1  0  0  0
 11 99  1  0  0  0
 12 13  2  0  0  0
 12100  1  0  0  0
 13 14  1  0  0  0
 13 31  1  0  0  0
 14 15  2  0  0  0
 14101  1  0  0  0
 15102  1  0  0  0
 16 17  2  0  0  0
 16 21  1  0  0  0
 16 31  1  0  0  0
 17 18  1  0  0  0
 17103  1  0  0  0
 18 19  2  0  0  0
 18104  1  0  0  0
 19 20  1  0  0  0
 19 24  1  0  0  0
 20 21  2  0  0  0
 20105  1  0  0  0
 21 23  1  0  0  0
 22 28  1  0  0  0
 22 32  2  0  0  0
 26 27  1  0  0  0
 28106  1  0  0  0
 28107  1  0  0  0
 29108  1  0  0  0
 29109  1  0  0  0
 33 34  1  0  0  0
 33 66  1  0  0  0
 33 70  2  0  0  0
 34 36  1  0  0  0
 34 59  1  0  0  0
 34110  1  0  0  0
 35 44  2  0  0  0
 35 45  1  0  0  0
 35 68  1  0  0  0
 36 56  1  0  0  0
 36111  1  0  0  0
 37 39  1  0  0  0
 37 47  1  0  0  0
 37 66  1  0  0  0
 37112  1  0  0  0
 38 43  2  0  0  0
 38 46  1  0  0  0
 38 47  1  0  0  0
 39 64  1  0  0  0
 39 67  2  0  0  0
 40 52  1  0  0  0
 40 53  2  0  0  0
 40 58  1  0  0  0
 41113  1  0  0  0
 41114  1  0  0  0
 41115  1  0  0  0
 41 48  1  0  0  0
 42 43  1  0  0  0
 42 66  1  0  0  0
 42116  1  0  0  0
 42117  1  0  0  0
 43 44  1  0  0  0
 44118  1  0  0  0
 45 46  2  0  0  0
 45119  1  0  0  0
 46120  1  0  0  0
 47121  1  0  0  0
 47122  1  0  0  0
 48 56  1  0  0  0
 48 65  1  0  0  0
 48123  1  0  0  0
 49 50  1  0  0  0
 49 53  1  0  0  0
 49 64  1  0  0  0
 49124  1  0  0  0
 50 51  1  0  0  0
 50125  1  0  0  0
 50126  1  0  0  0
 51 52  1  0  0  0
 51127  1  0  0  0
 51128  1  0  0  0
 52129  1  0  0  0
 52130  1  0  0  0
 53 54  1  0  0  0
 54 55  2  0  0  0
 54131  1  0  0  0
 55 57  1  0  0  0
 55132  1  0  0  0
 56 69  2  0  0  0
 57 58  2  0  0  0
 57133  1  0  0  0
 58134  1  0  0  0
 59 60  1  0  0  0
 59 61  1  0  0  0
 59 62  1  0  0  0
 60135  1  0  0  0
 60136  1  0  0  0
 60137  1  0  0  0
 61138  1  0  0  0
 61139  1  0  0  0
 61140  1  0  0  0
 62141  1  0  0  0
 62142  1  0  0  0
 62143  1  0  0  0
 63 65  1  0  0  0
 63144  1  0  0  0
 63145  1  0  0  0
 63146  1  0  0  0
 64147  1  0  0  0
 65148  1  0  0  0
 68 86  1  0  0  0
 71 73  2  0  0  0
 71 75  1  0  0  0
 71149  1  0  0  0
 72 74  1  0  0  0
 72 76  2  0  0  0
 72150  1  0  0  0
 73 76  1  0  0  0
 73 84  1  0  0  0
 74 75  2  0  0  0
 74 85  1  0  0  0
 75 87  1  0  0  0
 76 88  1  0  0  0
 77 78  1  0  0  0
 77 81  1  0  0  0
 77151  1  0  0  0
 77152  1  0  0  0
 78 82  1  0  0  0
 78153  1  0  0  0
 78154  1  0  0  0
 79 83  1  0  0  0
 79 87  1  0  0  0
 79155  1  0  0  0
 79156  1  0  0  0
 80 83  1  0  0  0
 80 87  1  0  0  0
 80157  1  0  0  0
 80158  1  0  0  0
 81 89  1  0  0  0
 81159  1  0  0  0
 81160  1  0  0  0
 82 89  1  0  0  0
 82161  1  0  0  0
 82162  1  0  0  0
 83 86  1  0  0  0
 83163  1  0  0  0
 84164  1  0  0  0
 84165  1  0  0  0
 84166  1  0  0  0
 85167  1  0  0  0
 85168  1  0  0  0
 85 89  1  0  0  0
 86169  1  0  0  0
 86170  1  0  0  0
 88171  1  0  0  0
 89172  1  0  0  0
M  CHG  1  89   1
M  ISO  4   1 100  68 101  86 101  88 100
M  END
> <chiral flag>
0

> <version>
0

> <s_m_source_file>
/data/baiqing/PycharmProjects/Reinvent-master-3.2/result/LINK_invent/BTK/process_docking_weight1_custom_product_contain_oxygen_bond_distance_aromatic_linkinvent_7_9_3/rearranged_h_0027.sdf

> <i_m_source_file_index>
63

> <r_mmod_Potential_Energy-OPLS-2005>
104.066711425781

> <r_mmod_Stretch_Energy-OPLS-2005>
102.585357666016

> <r_mmod_Bend_Energy-OPLS-2005>
233.90380859375

> <r_mmod_Torsional_Energy-OPLS-2005>
307.204345703125

> <r_mmod_Improper_Torsional_Energy-OPLS-2005>
10.1082668304443

> <r_mmod_Van_der_Waal_Energy-OPLS-2005>
138.642135620117

> <r_mmod_Electrostatic_Energy-OPLS-2005>
-311.133880615234

> <r_mmod_Solvation_Energy-OPLS-2005>
-449.813781738281

> <b_mmod_Minimization_Converged-OPLS-2005>
0

> <r_mmod_RMS_Derivative-OPLS-2005>
1.90570390224457

$$$$
64
                    3D
 Structure written by MMmdl.
156165  0  0  1  0            999 V2000
  -30.5378  -15.0326   20.4608 C   0  0  0  0  0  0
  -30.4356  -12.6545   19.5188 C   0  0  0  0  0  0
  -29.5280  -12.5555   18.2686 C   0  0  0  0  0  0
  -28.0627  -12.3179   18.6753 C   0  0  0  0  0  0
  -27.6234  -13.2531   19.8286 C   0  0  2  0  0  0
  -28.6541  -13.2950   20.9702 C   0  0  0  0  0  0
  -25.2442  -13.8219   20.5691 C   0  0  0  0  0  0
  -24.1765  -13.0438   20.9214 C   0  0  0  0  0  0
  -24.6388  -11.6924   20.8732 C   0  0  0  0  0  0
  -23.9078  -10.4294   21.0400 C   0  0  0  0  0  0
  -24.3629   -9.4210   21.9180 C   0  0  0  0  0  0
  -23.6301   -8.2246   22.0753 C   0  0  0  0  0  0
  -22.4281   -8.0283   21.3545 C   0  0  0  0  0  0
  -21.9918   -9.0255   20.4646 C   0  0  0  0  0  0
  -22.7250  -10.2132   20.3052 C   0  0  0  0  0  0
  -21.6856   -6.0737   22.5281 C   0  0  0  0  0  0
  -21.4016   -6.5640   23.8214 C   0  0  0  0  0  0
  -21.3660   -5.6793   24.9176 C   0  0  0  0  0  0
  -21.6044   -4.3055   24.7227 C   0  0  0  0  0  0
  -21.8819   -3.8147   23.4348 C   0  0  0  0  0  0
  -21.9193   -4.6964   22.3404 C   0  0  0  0  0  0
  -22.7790  -13.5206   21.1888 C   0  0  0  0  0  0
  -22.1661   -4.2149   21.0981 F   0  0  0  0  0  0
  -21.5629   -3.4538   25.7739 F   0  0  0  0  0  0
  -29.9271  -13.7635   20.3943 N   0  0  0  0  0  0
  -26.2843  -12.9450   20.3159 N   0  0  0  0  0  0
  -25.9313  -11.6577   20.5677 N   0  0  0  0  0  0
  -22.0451  -12.8187   22.0447 N   0  0  0  0  0  0
  -25.4137  -15.1948   20.4161 N   0  0  0  0  0  0
  -31.7191  -15.0590   20.0899 O   0  0  0  0  0  0
  -21.6643   -6.8882   21.4243 O   0  0  0  0  0  0
  -22.3465  -14.5509   20.6737 O   0  0  0  0  0  0
  -24.6492  -31.8386   23.1831 C   0  0  0  0  0  0
  -25.9236  -32.4667   23.8244 C   0  0  1  0  0  0
  -27.2145  -27.0724   20.1674 C   0  0  0  0  0  0
  -25.5960  -33.8475   24.2156 N   0  0  0  0  0  0
  -23.4561  -30.4558   21.5302 C   0  0  2  0  0  0
  -24.9059  -28.8690   20.1147 C   0  0  0  0  0  0
  -22.7597  -29.4520   22.4841 C   0  0  0  0  0  0
  -18.0310  -28.1400   22.8476 C   0  0  0  0  0  0
  -24.1492  -36.7242   23.2644 C   0  0  0  0  0  0
  -26.0164  -30.6921   21.3916 C   0  0  0  0  0  0
  -26.0863  -29.2960   20.7365 C   0  0  0  0  0  0
  -27.2417  -28.4167   20.7399 C   0  0  0  0  0  0
  -26.0090  -26.7642   19.5005 C   0  0  0  0  0  0
  -24.8839  -27.6190   19.4788 C   0  0  0  0  0  0
  -23.6865  -29.7804   20.1525 C   0  0  0  0  0  0
  -25.4128  -36.3014   24.0310 C   0  0  1  0  0  0
  -20.5926  -28.3733   23.1223 C   0  0  2  0  0  0
  -20.6792  -26.9429   22.5404 C   0  0  0  0  0  0
  -19.5765  -26.6381   21.5214 C   0  0  0  0  0  0
  -18.1947  -26.7937   22.1625 C   0  0  0  0  0  0
  -19.1568  -28.8885   23.2840 C   0  0  0  0  0  0
  -18.9482  -30.1478   23.8869 C   0  0  0  0  0  0
  -17.6477  -30.6593   24.0558 C   0  0  0  0  0  0
  -25.9083  -34.9392   23.5047 C   0  0  0  0  0  0
  -16.5368  -29.9085   23.6338 C   0  0  0  0  0  0
  -16.7294  -28.6504   23.0359 C   0  0  0  0  0  0
  -26.4535  -31.6557   25.0712 C   0  0  0  0  0  0
  -25.3698  -31.3763   26.1392 C   0  0  0  0  0  0
  -27.0409  -30.2943   24.6339 C   0  0  0  0  0  0
  -27.6055  -32.4338   25.7500 C   0  0  0  0  0  0
  -27.5575  -37.1777   24.8465 C   0  0  0  0  0  0
  -21.4282  -29.3048   22.3587 N   0  0  0  0  0  0
  -26.4287  -37.3734   23.9407 N   0  0  0  0  0  0
  -24.7275  -31.0185   22.0895 N   0  0  0  0  0  0
  -23.4210  -28.8076   23.3022 O   0  0  0  0  0  0
  -28.2601  -26.0584   20.1994 O   0  0  0  0  0  0
  -26.5679  -34.8900   22.4633 O   0  0  0  0  0  0
  -23.5596  -32.1290   23.7011 O   0  0  0  0  0  0
  -30.5751  -19.1413   18.2957 C   0  0  0  0  0  0
  -30.4997  -17.8689   18.9121 C   0  0  0  0  0  0
  -30.0213  -20.3193   18.8566 C   0  0  0  0  0  0
  -29.2721  -18.9524   20.7116 C   0  0  0  0  0  0
  -29.8681  -17.6844   20.1599 C   0  0  0  0  0  0
  -29.3238  -20.3249   20.0840 C   0  0  0  0  0  0
  -28.5661  -18.8038   22.0495 C   0  0  0  0  0  0
  -28.2782  -17.3348   22.4403 C   0  0  0  0  0  0
  -29.4832  -16.3899   22.2293 C   0  0  0  0  0  0
  -28.9774  -23.1382   20.0561 C   0  0  0  0  0  0
  -27.9939  -24.5070   20.4149 C   0  0  0  0  0  0
  -29.8556  -16.2701   20.8109 N   0  0  0  0  0  0
  -28.7445  -21.6398   20.5431 N   0  0  0  0  0  0
  -31.4681  -12.8147   19.2056 H   0  0  0  0  0  0
  -30.4456  -11.7086   20.0628 H   0  0  0  0  0  0
  -29.8701  -11.7537   17.6128 H   0  0  0  0  0  0
  -29.6021  -13.4780   17.6906 H   0  0  0  0  0  0
  -27.9723  -11.2780   18.9912 H   0  0  0  0  0  0
  -27.4028  -12.4345   17.8147 H   0  0  0  0  0  0
  -27.5820  -14.2540   19.3971 H   0  0  0  0  0  0
  -28.7651  -12.3144   21.4352 H   0  0  0  0  0  0
  -28.2777  -13.9499   21.7485 H   0  0  0  0  0  0
  -25.2774   -9.5686   22.4754 H   0  0  0  0  0  0
  -24.0010   -7.4638   22.7472 H   0  0  0  0  0  0
  -21.0850   -8.8776   19.8952 H   0  0  0  0  0  0
  -22.3709  -10.9671   19.6160 H   0  0  0  0  0  0
  -21.2010   -7.6149   23.9718 H   0  0  0  0  0  0
  -21.1481   -6.0523   25.9079 H   0  0  0  0  0  0
  -22.0597   -2.7609   23.2848 H   0  0  0  0  0  0
  -22.4081  -11.9852   22.4831 H   0  0  0  0  0  0
  -21.1065  -13.1197   22.2659 H   0  0  0  0  0  0
  -24.6520  -15.8522   20.5412 H   0  0  0  0  0  0
  -26.2715  -15.6348   20.1082 H   0  0  0  0  0  0
  -26.7303  -32.5252   23.0967 H   0  0  0  0  0  0
  -25.0065  -33.9578   25.0276 H   0  0  0  0  0  0
  -22.7619  -31.2834   21.3707 H   0  0  0  0  0  0
  -23.3762  -35.9565   23.3290 H   0  0  0  0  0  0
  -24.3573  -36.8896   22.2062 H   0  0  0  0  0  0
  -23.7240  -37.6427   23.6699 H   0  0  0  0  0  0
  -26.1795  -31.4415   20.6157 H   0  0  0  0  0  0
  -26.8837  -30.7449   22.0380 H   0  0  0  0  0  0
  -28.1423  -28.7422   21.2412 H   0  0  0  0  0  0
  -25.9094  -25.8179   18.9909 H   0  0  0  0  0  0
  -23.9866  -27.2897   18.9731 H   0  0  0  0  0  0
  -23.8301  -30.5523   19.3956 H   0  0  0  0  0  0
  -22.7993  -29.2270   19.8400 H   0  0  0  0  0  0
  -25.1319  -36.1835   25.0802 H   0  0  0  0  0  0
  -21.0017  -28.3329   24.1345 H   0  0  0  0  0  0
  -20.5685  -26.2347   23.3630 H   0  0  0  0  0  0
  -21.6658  -26.7427   22.1203 H   0  0  0  0  0  0
  -19.6926  -25.6285   21.1263 H   0  0  0  0  0  0
  -19.6701  -27.3176   20.6731 H   0  0  0  0  0  0
  -17.4216  -26.6683   21.4028 H   0  0  0  0  0  0
  -18.0342  -26.0085   22.9026 H   0  0  0  0  0  0
  -19.7957  -30.7302   24.2227 H   0  0  0  0  0  0
  -17.5029  -31.6271   24.5165 H   0  0  0  0  0  0
  -15.5366  -30.2977   23.7677 H   0  0  0  0  0  0
  -15.8695  -28.0811   22.7093 H   0  0  0  0  0  0
  -24.5897  -30.7090   25.7708 H   0  0  0  0  0  0
  -24.8861  -32.2946   26.4730 H   0  0  0  0  0  0
  -25.7963  -30.8996   27.0227 H   0  0  0  0  0  0
  -26.3041  -29.6650   24.1334 H   0  0  0  0  0  0
  -27.3983  -29.7265   25.4939 H   0  0  0  0  0  0
  -27.8965  -30.4162   23.9695 H   0  0  0  0  0  0
  -27.2647  -33.3672   26.1991 H   0  0  0  0  0  0
  -28.3907  -32.6844   25.0355 H   0  0  0  0  0  0
  -28.0676  -31.8519   26.5484 H   0  0  0  0  0  0
  -28.2581  -38.0084   24.7515 H   0  0  0  0  0  0
  -28.1083  -36.2612   24.6292 H   0  0  0  0  0  0
  -27.2291  -37.1422   25.8868 H   0  0  0  0  0  0
  -20.9506  -29.8751   21.6746 H   0  0  0  0  0  0
  -26.0148  -38.2799   24.1413 H   0  0  0  0  0  0
  -31.0837  -19.2196   17.3452 H   0  0  0  0  0  0
  -30.9581  -17.0297   18.4083 H   0  0  0  0  0  0
  -30.1334  -21.2378   18.2995 H   0  0  0  0  0  0
  -27.6344  -19.3703   22.0346 H   0  0  0  0  0  0
  -29.1994  -19.2655   22.8077 H   0  0  0  0  0  0
  -27.4358  -16.9637   21.8549 H   0  0  0  0  0  0
  -27.9547  -17.2992   23.4814 H   0  0  0  0  0  0
  -29.3039  -15.4356   22.7170 H   0  0  0  0  0  0
  -30.3453  -16.7996   22.7585 H   0  0  0  0  0  0
  -29.9795  -23.3909   20.4049 H   0  0  0  0  0  0
  -29.0671  -23.1054   18.9702 H   0  0  0  0  0  0
  -27.7963  -24.4413   21.4849 H   0  0  0  0  0  0
  -27.0318  -24.2800   19.9612 H   0  0  0  0  0  0
  -28.2052  -21.5824   21.4040 H   0  0  0  0  0  0
  1 25  1  0  0  0
  1 30  2  0  0  0
  1 82  1  0  0  0
  2  3  1  0  0  0
  2 25  1  0  0  0
  2 84  1  0  0  0
  2 85  1  0  0  0
  3  4  1  0  0  0
  3 86  1  0  0  0
  3 87  1  0  0  0
  4  5  1  0  0  0
  4 88  1  0  0  0
  4 89  1  0  0  0
  5  6  1  0  0  0
  5 26  1  0  0  0
  5 90  1  0  0  0
  6 25  1  0  0  0
  6 91  1  0  0  0
  6 92  1  0  0  0
  7  8  2  0  0  0
  7 26  1  0  0  0
  7 29  1  0  0  0
  8  9  1  0  0  0
  8 22  1  0  0  0
  9 10  1  0  0  0
  9 27  2  0  0  0
 10 11  2  0  0  0
 10 15  1  0  0  0
 11 12  1  0  0  0
 11 93  1  0  0  0
 12 13  2  0  0  0
 12 94  1  0  0  0
 13 14  1  0  0  0
 13 31  1  0  0  0
 14 15  2  0  0  0
 14 95  1  0  0  0
 15 96  1  0  0  0
 16 17  2  0  0  0
 16 21  1  0  0  0
 16 31  1  0  0  0
 17 18  1  0  0  0
 17 97  1  0  0  0
 18 19  2  0  0  0
 18 98  1  0  0  0
 19 20  1  0  0  0
 19 24  1  0  0  0
 20 21  2  0  0  0
 20 99  1  0  0  0
 21 23  1  0  0  0
 22 28  1  0  0  0
 22 32  2  0  0  0
 26 27  1  0  0  0
 28100  1  0  0  0
 28101  1  0  0  0
 29102  1  0  0  0
 29103  1  0  0  0
 33 34  1  0  0  0
 33 66  1  0  0  0
 33 70  2  0  0  0
 34 36  1  0  0  0
 34 59  1  0  0  0
 34104  1  0  0  0
 35 44  2  0  0  0
 35 45  1  0  0  0
 35 68  1  0  0  0
 36 56  1  0  0  0
 36105  1  0  0  0
 37 39  1  0  0  0
 37 47  1  0  0  0
 37 66  1  0  0  0
 37106  1  0  0  0
 38 43  2  0  0  0
 38 46  1  0  0  0
 38 47  1  0  0  0
 39 64  1  0  0  0
 39 67  2  0  0  0
 40 52  1  0  0  0
 40 53  2  0  0  0
 40 58  1  0  0  0
 41107  1  0  0  0
 41108  1  0  0  0
 41109  1  0  0  0
 41 48  1  0  0  0
 42 43  1  0  0  0
 42 66  1  0  0  0
 42110  1  0  0  0
 42111  1  0  0  0
 43 44  1  0  0  0
 44112  1  0  0  0
 45 46  2  0  0  0
 45113  1  0  0  0
 46114  1  0  0  0
 47115  1  0  0  0
 47116  1  0  0  0
 48 56  1  0  0  0
 48 65  1  0  0  0
 48117  1  0  0  0
 49 50  1  0  0  0
 49 53  1  0  0  0
 49 64  1  0  0  0
 49118  1  0  0  0
 50 51  1  0  0  0
 50119  1  0  0  0
 50120  1  0  0  0
 51 52  1  0  0  0
 51121  1  0  0  0
 51122  1  0  0  0
 52123  1  0  0  0
 52124  1  0  0  0
 53 54  1  0  0  0
 54 55  2  0  0  0
 54125  1  0  0  0
 55 57  1  0  0  0
 55126  1  0  0  0
 56 69  2  0  0  0
 57 58  2  0  0  0
 57127  1  0  0  0
 58128  1  0  0  0
 59 60  1  0  0  0
 59 61  1  0  0  0
 59 62  1  0  0  0
 60129  1  0  0  0
 60130  1  0  0  0
 60131  1  0  0  0
 61132  1  0  0  0
 61133  1  0  0  0
 61134  1  0  0  0
 62135  1  0  0  0
 62136  1  0  0  0
 62137  1  0  0  0
 63 65  1  0  0  0
 63138  1  0  0  0
 63139  1  0  0  0
 63140  1  0  0  0
 64141  1  0  0  0
 65142  1  0  0  0
 68 81  1  0  0  0
 71 72  2  0  0  0
 71 73  1  0  0  0
 71143  1  0  0  0
 72 75  1  0  0  0
 72144  1  0  0  0
 73 76  2  0  0  0
 73145  1  0  0  0
 74 75  2  0  0  0
 74 76  1  0  0  0
 74 77  1  0  0  0
 75 82  1  0  0  0
 76 83  1  0  0  0
 77 78  1  0  0  0
 77146  1  0  0  0
 77147  1  0  0  0
 78 79  1  0  0  0
 78148  1  0  0  0
 78149  1  0  0  0
 79 82  1  0  0  0
 79150  1  0  0  0
 79151  1  0  0  0
 80 81  1  0  0  0
 80 83  1  0  0  0
 80152  1  0  0  0
 80153  1  0  0  0
 81154  1  0  0  0
 81155  1  0  0  0
 83156  1  0  0  0
M  ISO  4   1 100  68 101  81 101  82 100
M  END
> <chiral flag>
0

> <version>
0

> <s_m_source_file>
/data/baiqing/PycharmProjects/Reinvent-master-3.2/result/LINK_invent/BTK/process_docking_weight1_custom_product_contain_oxygen_bond_distance_aromatic_linkinvent_7_9_3/rearranged_h_0027.sdf

> <i_m_source_file_index>
64

> <r_mmod_Potential_Energy-OPLS-2005>
821.936401367188

> <r_mmod_Stretch_Energy-OPLS-2005>
335.806518554688

> <r_mmod_Bend_Energy-OPLS-2005>
298.716278076172

> <r_mmod_Torsional_Energy-OPLS-2005>
282.064056396484

> <r_mmod_Improper_Torsional_Energy-OPLS-2005>
4.02796983718872

> <r_mmod_Van_der_Waal_Energy-OPLS-2005>
136.719619750977

> <r_mmod_Electrostatic_Energy-OPLS-2005>
-275.850036621094

> <r_mmod_Solvation_Energy-OPLS-2005>
-205.285537719727

> <b_mmod_Minimization_Converged-OPLS-2005>
0

> <r_mmod_RMS_Derivative-OPLS-2005>
0.254478484392166

$$$$
65
                    3D
 Structure written by MMmdl.
150159  0  0  1  0            999 V2000
  -30.4758  -15.0239   20.4011 C   0  0  0  0  0  0
  -30.4524  -12.6350   19.4975 C   0  0  0  0  0  0
  -29.5271  -12.5373   18.2597 C   0  0  0  0  0  0
  -28.0614  -12.3111   18.6797 C   0  0  0  0  0  0
  -27.6284  -13.2464   19.8370 C   0  0  2  0  0  0
  -28.6734  -13.2867   20.9718 C   0  0  0  0  0  0
  -25.2463  -13.8209   20.5720 C   0  0  0  0  0  0
  -24.1781  -13.0434   20.9242 C   0  0  0  0  0  0
  -24.6395  -11.6919   20.8772 C   0  0  0  0  0  0
  -23.9070  -10.4289   21.0418 C   0  0  0  0  0  0
  -24.3623   -9.4200   21.9194 C   0  0  0  0  0  0
  -23.6296   -8.2239   22.0758 C   0  0  0  0  0  0
  -22.4277   -8.0287   21.3544 C   0  0  0  0  0  0
  -21.9910   -9.0263   20.4648 C   0  0  0  0  0  0
  -22.7242  -10.2141   20.3061 C   0  0  0  0  0  0
  -21.6855   -6.0734   22.5273 C   0  0  0  0  0  0
  -21.4019   -6.5639   23.8208 C   0  0  0  0  0  0
  -21.3659   -5.6794   24.9169 C   0  0  0  0  0  0
  -21.6045   -4.3054   24.7222 C   0  0  0  0  0  0
  -21.8820   -3.8142   23.4341 C   0  0  0  0  0  0
  -21.9193   -4.6960   22.3398 C   0  0  0  0  0  0
  -22.7800  -13.5207   21.1887 C   0  0  0  0  0  0
  -22.1662   -4.2146   21.0974 F   0  0  0  0  0  0
  -21.5621   -3.4540   25.7730 F   0  0  0  0  0  0
  -29.9378  -13.7314   20.3687 N   0  0  0  0  0  0
  -26.2883  -12.9430   20.3248 N   0  0  0  0  0  0
  -25.9328  -11.6564   20.5760 N   0  0  0  0  0  0
  -22.0444  -12.8209   22.0446 N   0  0  0  0  0  0
  -25.4110  -15.1942   20.4134 N   0  0  0  0  0  0
  -31.6864  -15.1273   20.1687 O   0  0  0  0  0  0
  -21.6644   -6.8886   21.4238 O   0  0  0  0  0  0
  -22.3490  -14.5511   20.6720 O   0  0  0  0  0  0
  -24.6468  -31.8384   23.1813 C   0  0  0  0  0  0
  -25.9215  -32.4660   23.8234 C   0  0  1  0  0  0
  -27.2230  -27.0879   20.1705 C   0  0  0  0  0  0
  -25.5941  -33.8467   24.2149 N   0  0  0  0  0  0
  -23.4538  -30.4528   21.5280 C   0  0  2  0  0  0
  -24.9051  -28.8628   20.1150 C   0  0  0  0  0  0
  -22.7585  -29.4506   22.4836 C   0  0  0  0  0  0
  -18.0304  -28.1393   22.8475 C   0  0  0  0  0  0
  -24.1490  -36.7248   23.2644 C   0  0  0  0  0  0
  -26.0118  -30.6975   21.3853 C   0  0  0  0  0  0
  -26.0842  -29.3015   20.7319 C   0  0  0  0  0  0
  -27.2447  -28.4331   20.7332 C   0  0  0  0  0  0
  -26.0151  -26.7497   19.5265 C   0  0  0  0  0  0
  -24.8861  -27.6024   19.4949 C   0  0  0  0  0  0
  -23.6843  -29.7733   20.1511 C   0  0  0  0  0  0
  -25.4122  -36.3012   24.0312 C   0  0  1  0  0  0
  -20.5921  -28.3719   23.1231 C   0  0  2  0  0  0
  -20.6783  -26.9415   22.5407 C   0  0  0  0  0  0
  -19.5756  -26.6371   21.5217 C   0  0  0  0  0  0
  -18.1941  -26.7930   22.1630 C   0  0  0  0  0  0
  -19.1563  -28.8874   23.2845 C   0  0  0  0  0  0
  -18.9482  -30.1471   23.8871 C   0  0  0  0  0  0
  -17.6477  -30.6589   24.0557 C   0  0  0  0  0  0
  -25.9078  -34.9387   23.5050 C   0  0  0  0  0  0
  -16.5368  -29.9082   23.6334 C   0  0  0  0  0  0
  -16.7291  -28.6501   23.0356 C   0  0  0  0  0  0
  -26.4526  -31.6550   25.0698 C   0  0  0  0  0  0
  -25.3700  -31.3756   26.1385 C   0  0  0  0  0  0
  -27.0398  -30.2940   24.6308 C   0  0  0  0  0  0
  -27.6034  -32.4334   25.7493 C   0  0  0  0  0  0
  -27.5577  -37.1771   24.8460 C   0  0  0  0  0  0
  -21.4271  -29.3038   22.3595 N   0  0  0  0  0  0
  -26.4279  -37.3733   23.9416 N   0  0  0  0  0  0
  -24.7242  -31.0191   22.0869 N   0  0  0  0  0  0
  -23.4204  -28.8068   23.3012 O   0  0  0  0  0  0
  -28.2885  -26.1029   20.1967 O   0  0  0  0  0  0
  -26.5683  -34.8903   22.4641 O   0  0  0  0  0  0
  -23.5572  -32.1270   23.7013 O   0  0  0  0  0  0
  -30.1534  -20.1691   20.8779 C   0  0  0  0  0  0
  -30.4237  -18.7188   20.8857 C   0  0  0  0  0  0
  -28.3888  -18.3871   19.8216 C   0  0  0  0  0  0
  -28.9883  -20.8655   20.3526 C   0  0  0  0  0  0
  -29.5348  -17.7060   20.3702 C   0  0  0  0  0  0
  -28.1435  -19.8289   19.7989 C   0  0  0  0  0  0
  -27.9154  -23.3147   19.4761 C   0  0  0  0  0  0
  -29.2823  -23.5868   21.0098 C   0  0  0  0  0  0
  -28.0976  -24.5586   20.4910 C   0  0  0  0  0  0
  -28.6046  -22.3831   20.4346 N   0  0  0  0  0  0
  -29.5846  -16.1472   20.4703 N   0  0  0  0  0  0
  -26.9768  -20.2330   19.2400 F   0  0  0  0  0  0
  -31.4781  -12.8263   19.1788 H   0  0  0  0  0  0
  -30.4778  -11.6892   20.0419 H   0  0  0  0  0  0
  -29.8550  -11.7300   17.6028 H   0  0  0  0  0  0
  -29.6017  -13.4573   17.6775 H   0  0  0  0  0  0
  -27.9679  -11.2721   18.9963 H   0  0  0  0  0  0
  -27.3970  -12.4311   17.8233 H   0  0  0  0  0  0
  -27.5833  -14.2431   19.3992 H   0  0  0  0  0  0
  -28.7819  -12.3085   21.4431 H   0  0  0  0  0  0
  -28.3633  -13.9765   21.7588 H   0  0  0  0  0  0
  -25.2769   -9.5674   22.4773 H   0  0  0  0  0  0
  -23.9994   -7.4633   22.7484 H   0  0  0  0  0  0
  -21.0836   -8.8797   19.8964 H   0  0  0  0  0  0
  -22.3706  -10.9691   19.6178 H   0  0  0  0  0  0
  -21.2018   -7.6153   23.9711 H   0  0  0  0  0  0
  -21.1477   -6.0523   25.9074 H   0  0  0  0  0  0
  -22.0596   -2.7604   23.2846 H   0  0  0  0  0  0
  -22.4068  -11.9879   22.4843 H   0  0  0  0  0  0
  -21.1066  -13.1250   22.2654 H   0  0  0  0  0  0
  -24.6364  -15.8400   20.5221 H   0  0  0  0  0  0
  -26.2349  -15.6314   20.0247 H   0  0  0  0  0  0
  -26.7285  -32.5256   23.0963 H   0  0  0  0  0  0
  -25.0028  -33.9569   25.0256 H   0  0  0  0  0  0
  -22.7588  -31.2794   21.3670 H   0  0  0  0  0  0
  -23.3749  -35.9583   23.3287 H   0  0  0  0  0  0
  -24.3573  -36.8897   22.2062 H   0  0  0  0  0  0
  -23.7248  -37.6439   23.6698 H   0  0  0  0  0  0
  -26.1701  -31.4470   20.6088 H   0  0  0  0  0  0
  -26.8808  -30.7535   22.0293 H   0  0  0  0  0  0
  -28.1474  -28.7686   21.2247 H   0  0  0  0  0  0
  -25.9295  -25.7808   19.0561 H   0  0  0  0  0  0
  -23.9858  -27.2597   19.0026 H   0  0  0  0  0  0
  -23.8284  -30.5449   19.3940 H   0  0  0  0  0  0
  -22.7978  -29.2193   19.8368 H   0  0  0  0  0  0
  -25.1310  -36.1828   25.0803 H   0  0  0  0  0  0
  -21.0016  -28.3312   24.1352 H   0  0  0  0  0  0
  -20.5665  -26.2334   23.3631 H   0  0  0  0  0  0
  -21.6648  -26.7402   22.1211 H   0  0  0  0  0  0
  -19.6913  -25.6276   21.1258 H   0  0  0  0  0  0
  -19.6698  -27.3169   20.6740 H   0  0  0  0  0  0
  -17.4209  -26.6669   21.4039 H   0  0  0  0  0  0
  -18.0346  -26.0082   22.9036 H   0  0  0  0  0  0
  -19.7960  -30.7293   24.2232 H   0  0  0  0  0  0
  -17.5031  -31.6268   24.5161 H   0  0  0  0  0  0
  -15.5367  -30.2976   23.7671 H   0  0  0  0  0  0
  -15.8694  -28.0810   22.7087 H   0  0  0  0  0  0
  -24.5877  -30.7110   25.7710 H   0  0  0  0  0  0
  -24.8898  -32.2946   26.4754 H   0  0  0  0  0  0
  -25.7969  -30.8964   27.0202 H   0  0  0  0  0  0
  -26.3026  -29.6649   24.1306 H   0  0  0  0  0  0
  -27.3988  -29.7257   25.4899 H   0  0  0  0  0  0
  -27.8942  -30.4169   23.9647 H   0  0  0  0  0  0
  -27.2600  -33.3641   26.2021 H   0  0  0  0  0  0
  -28.3871  -32.6882   25.0348 H   0  0  0  0  0  0
  -28.0677  -31.8499   26.5451 H   0  0  0  0  0  0
  -28.2561  -38.0099   24.7530 H   0  0  0  0  0  0
  -28.1102  -36.2625   24.6248 H   0  0  0  0  0  0
  -27.2301  -37.1368   25.8863 H   0  0  0  0  0  0
  -20.9486  -29.8759   21.6780 H   0  0  0  0  0  0
  -26.0135  -38.2793   24.1439 H   0  0  0  0  0  0
  -30.9044  -20.7891   21.3474 H   0  0  0  0  0  0
  -31.3377  -18.3877   21.3598 H   0  0  0  0  0  0
  -27.6087  -17.7737   19.3959 H   0  0  0  0  0  0
  -28.4721  -23.4283   18.5446 H   0  0  0  0  0  0
  -26.8733  -23.0561   19.2853 H   0  0  0  0  0  0
  -29.3784  -23.5601   22.0964 H   0  0  0  0  0  0
  -30.2438  -23.7827   20.5317 H   0  0  0  0  0  0
  -27.2889  -24.5054   21.2230 H   0  0  0  0  0  0
  -28.6520  -15.7687   20.5224 H   0  0  0  0  0  0
  1 25  1  0  0  0
  1 30  2  0  0  0
  1 81  1  0  0  0
  2  3  1  0  0  0
  2 25  1  0  0  0
  2 83  1  0  0  0
  2 84  1  0  0  0
  3  4  1  0  0  0
  3 85  1  0  0  0
  3 86  1  0  0  0
  4  5  1  0  0  0
  4 87  1  0  0  0
  4 88  1  0  0  0
  5  6  1  0  0  0
  5 26  1  0  0  0
  5 89  1  0  0  0
  6 25  1  0  0  0
  6 90  1  0  0  0
  6 91  1  0  0  0
  7  8  2  0  0  0
  7 26  1  0  0  0
  7 29  1  0  0  0
  8  9  1  0  0  0
  8 22  1  0  0  0
  9 10  1  0  0  0
  9 27  2  0  0  0
 10 11  2  0  0  0
 10 15  1  0  0  0
 11 12  1  0  0  0
 11 92  1  0  0  0
 12 13  2  0  0  0
 12 93  1  0  0  0
 13 14  1  0  0  0
 13 31  1  0  0  0
 14 15  2  0  0  0
 14 94  1  0  0  0
 15 95  1  0  0  0
 16 17  2  0  0  0
 16 21  1  0  0  0
 16 31  1  0  0  0
 17 18  1  0  0  0
 17 96  1  0  0  0
 18 19  2  0  0  0
 18 97  1  0  0  0
 19 20  1  0  0  0
 19 24  1  0  0  0
 20 21  2  0  0  0
 20 98  1  0  0  0
 21 23  1  0  0  0
 22 28  1  0  0  0
 22 32  2  0  0  0
 26 27  1  0  0  0
 28 99  1  0  0  0
 28100  1  0  0  0
 29101  1  0  0  0
 29102  1  0  0  0
 33 34  1  0  0  0
 33 66  1  0  0  0
 33 70  2  0  0  0
 34 36  1  0  0  0
 34 59  1  0  0  0
 34103  1  0  0  0
 35 44  2  0  0  0
 35 45  1  0  0  0
 35 68  1  0  0  0
 36 56  1  0  0  0
 36104  1  0  0  0
 37 39  1  0  0  0
 37 47  1  0  0  0
 37 66  1  0  0  0
 37105  1  0  0  0
 38 43  2  0  0  0
 38 46  1  0  0  0
 38 47  1  0  0  0
 39 64  1  0  0  0
 39 67  2  0  0  0
 40 52  1  0  0  0
 40 53  2  0  0  0
 40 58  1  0  0  0
 41106  1  0  0  0
 41107  1  0  0  0
 41108  1  0  0  0
 41 48  1  0  0  0
 42 43  1  0  0  0
 42 66  1  0  0  0
 42109  1  0  0  0
 42110  1  0  0  0
 43 44  1  0  0  0
 44111  1  0  0  0
 45 46  2  0  0  0
 45112  1  0  0  0
 46113  1  0  0  0
 47114  1  0  0  0
 47115  1  0  0  0
 48 56  1  0  0  0
 48 65  1  0  0  0
 48116  1  0  0  0
 49 50  1  0  0  0
 49 53  1  0  0  0
 49 64  1  0  0  0
 49117  1  0  0  0
 50 51  1  0  0  0
 50118  1  0  0  0
 50119  1  0  0  0
 51 52  1  0  0  0
 51120  1  0  0  0
 51121  1  0  0  0
 52122  1  0  0  0
 52123  1  0  0  0
 53 54  1  0  0  0
 54 55  2  0  0  0
 54124  1  0  0  0
 55 57  1  0  0  0
 55125  1  0  0  0
 56 69  2  0  0  0
 57 58  2  0  0  0
 57126  1  0  0  0
 58127  1  0  0  0
 59 60  1  0  0  0
 59 61  1  0  0  0
 59 62  1  0  0  0
 60128  1  0  0  0
 60129  1  0  0  0
 60130  1  0  0  0
 61131  1  0  0  0
 61132  1  0  0  0
 61133  1  0  0  0
 62134  1  0  0  0
 62135  1  0  0  0
 62136  1  0  0  0
 63 65  1  0  0  0
 63137  1  0  0  0
 63138  1  0  0  0
 63139  1  0  0  0
 64140  1  0  0  0
 65141  1  0  0  0
 68 79  1  0  0  0
 71 72  2  0  0  0
 71 74  1  0  0  0
 71142  1  0  0  0
 72 75  1  0  0  0
 72143  1  0  0  0
 73 75  2  0  0  0
 73 76  1  0  0  0
 73144  1  0  0  0
 74 76  2  0  0  0
 74 80  1  0  0  0
 75 81  1  0  0  0
 76 82  1  0  0  0
 77 79  1  0  0  0
 77 80  1  0  0  0
 77145  1  0  0  0
 77146  1  0  0  0
 78 79  1  0  0  0
 78 80  1  0  0  0
 78147  1  0  0  0
 78148  1  0  0  0
 79149  1  0  0  0
 81150  1  0  0  0
M  ISO  4   1 100  68 101  79 101  81 100
M  END
> <chiral flag>
0

> <version>
0

> <s_m_source_file>
/data/baiqing/PycharmProjects/Reinvent-master-3.2/result/LINK_invent/BTK/process_docking_weight1_custom_product_contain_oxygen_bond_distance_aromatic_linkinvent_7_9_3/rearranged_h_0027.sdf

> <i_m_source_file_index>
65

> <r_mmod_Potential_Energy-OPLS-2005>
733.16162109375

> <r_mmod_Stretch_Energy-OPLS-2005>
269.773254394531

> <r_mmod_Bend_Energy-OPLS-2005>
387.755920410156

> <r_mmod_Torsional_Energy-OPLS-2005>
250.862030029297

> <r_mmod_Improper_Torsional_Energy-OPLS-2005>
9.45074558258057

> <r_mmod_Van_der_Waal_Energy-OPLS-2005>
124.850028991699

> <r_mmod_Electrostatic_Energy-OPLS-2005>
-323.397552490234

> <r_mmod_Solvation_Energy-OPLS-2005>
-228.802612304688

> <b_mmod_Minimization_Converged-OPLS-2005>
0

> <r_mmod_RMS_Derivative-OPLS-2005>
1.42883503437042

$$$$
66
                    3D
 Structure written by MMmdl.
175185  0  0  1  0            999 V2000
  -30.6375  -14.5579   20.5508 C   0  0  0  0  0  0
  -30.4302  -12.3493   19.4538 C   0  0  0  0  0  0
  -29.5035  -12.4940   18.2239 C   0  0  0  0  0  0
  -28.0267  -12.3324   18.6411 C   0  0  0  0  0  0
  -27.6523  -13.2021   19.8719 C   0  0  2  0  0  0
  -28.6859  -13.0199   21.0049 C   0  0  0  0  0  0
  -25.2520  -13.8133   20.5611 C   0  0  0  0  0  0
  -24.1803  -13.0446   20.9152 C   0  0  0  0  0  0
  -24.6358  -11.6898   20.8754 C   0  0  0  0  0  0
  -23.9043  -10.4291   21.0432 C   0  0  0  0  0  0
  -24.3606   -9.4202   21.9209 C   0  0  0  0  0  0
  -23.6290   -8.2238   22.0770 C   0  0  0  0  0  0
  -22.4278   -8.0264   21.3550 C   0  0  0  0  0  0
  -21.9901   -9.0241   20.4673 C   0  0  0  0  0  0
  -22.7220  -10.2123   20.3084 C   0  0  0  0  0  0
  -21.6856   -6.0726   22.5277 C   0  0  0  0  0  0
  -21.4014   -6.5642   23.8206 C   0  0  0  0  0  0
  -21.3648   -5.6800   24.9173 C   0  0  0  0  0  0
  -21.6031   -4.3058   24.7223 C   0  0  0  0  0  0
  -21.8817   -3.8147   23.4350 C   0  0  0  0  0  0
  -21.9193   -4.6958   22.3408 C   0  0  0  0  0  0
  -22.7847  -13.5262   21.1816 C   0  0  0  0  0  0
  -22.1663   -4.2141   21.0987 F   0  0  0  0  0  0
  -21.5642   -3.4550   25.7741 F   0  0  0  0  0  0
  -30.0110  -13.3505   20.4522 N   0  0  0  0  0  0
  -26.2940  -12.9293   20.3329 N   0  0  0  0  0  0
  -25.9263  -11.6461   20.5772 N   0  0  0  0  0  0
  -22.0524  -12.8285   22.0402 N   0  0  0  0  0  0
  -25.4205  -15.1861   20.3904 N   0  0  0  0  0  0
  -31.7750  -14.7497   20.1071 O   0  0  0  0  0  0
  -21.6658   -6.8855   21.4228 O   0  0  0  0  0  0
  -22.3557  -14.5596   20.6685 O   0  0  0  0  0  0
  -24.6161  -31.8640   23.2015 C   0  0  0  0  0  0
  -25.9036  -32.4796   23.8338 C   0  0  1  0  0  0
  -27.2418  -27.3959   20.1086 C   0  0  0  0  0  0
  -25.5893  -33.8594   24.2309 N   0  0  0  0  0  0
  -23.4072  -30.4804   21.5416 C   0  0  2  0  0  0
  -24.8557  -28.9301   20.1137 C   0  0  0  0  0  0
  -22.7400  -29.4630   22.4959 C   0  0  0  0  0  0
  -18.0285  -28.1356   22.8486 C   0  0  0  0  0  0
  -24.1486  -36.7317   23.2637 C   0  0  0  0  0  0
  -25.9338  -30.8159   21.3590 C   0  0  0  0  0  0
  -26.0094  -29.4417   20.7178 C   0  0  0  0  0  0
  -27.2005  -28.6781   20.7131 C   0  0  0  0  0  0
  -26.0708  -26.9024   19.4943 C   0  0  0  0  0  0
  -24.8834  -27.6644   19.4993 C   0  0  0  0  0  0
  -23.6170  -29.7983   20.1598 C   0  0  0  0  0  0
  -25.4108  -36.3116   24.0346 C   0  0  1  0  0  0
  -20.5860  -28.3675   23.1276 C   0  0  2  0  0  0
  -20.6790  -26.9397   22.5407 C   0  0  0  0  0  0
  -19.5771  -26.6370   21.5209 C   0  0  0  0  0  0
  -18.1966  -26.7916   22.1594 C   0  0  0  0  0  0
  -19.1519  -28.8836   23.2883 C   0  0  0  0  0  0
  -18.9427  -30.1439   23.8906 C   0  0  0  0  0  0
  -17.6418  -30.6567   24.0536 C   0  0  0  0  0  0
  -25.9037  -34.9466   23.5136 C   0  0  0  0  0  0
  -16.5334  -29.9048   23.6282 C   0  0  0  0  0  0
  -16.7270  -28.6464   23.0327 C   0  0  0  0  0  0
  -26.4457  -31.6582   25.0681 C   0  0  0  0  0  0
  -25.3708  -31.3693   26.1427 C   0  0  0  0  0  0
  -27.0285  -30.3032   24.6064 C   0  0  0  0  0  0
  -27.6072  -32.4261   25.7434 C   0  0  0  0  0  0
  -27.5588  -37.1820   24.8468 C   0  0  0  0  0  0
  -21.4137  -29.3020   22.3677 N   0  0  0  0  0  0
  -26.4300  -37.3805   23.9408 N   0  0  0  0  0  0
  -24.6700  -31.0703   22.0934 N   0  0  0  0  0  0
  -23.4139  -28.8198   23.3039 O   0  0  0  0  0  0
  -28.4471  -26.7187   20.1193 O   0  0  0  0  0  0
  -26.5616  -34.8930   22.4709 O   0  0  0  0  0  0
  -23.5332  -32.1420   23.7382 O   0  0  0  0  0  0
  -27.7572  -17.5680   21.4503 C   0  0  0  0  0  0
  -26.6600  -18.4280   21.5692 C   0  0  0  0  0  0
  -29.0225  -18.0576   21.1036 C   0  0  0  0  0  0
  -29.1669  -19.4822   20.9612 C   0  0  0  0  0  0
  -28.0499  -20.3906   21.1670 C   0  0  0  0  0  0
  -26.7361  -19.8284   21.3777 C   0  0  0  0  0  0
  -23.6737  -22.0756   21.2935 C   0  0  0  0  0  0
  -23.1919  -20.7504   20.7345 C   0  0  0  0  0  0
  -28.5775  -24.5492   18.7174 C   0  0  0  0  0  0
  -25.1953  -21.9319   21.2219 C   0  0  0  0  0  0
  -24.2277  -19.7725   21.2743 C   0  0  0  0  0  0
  -28.6837  -23.0727   19.1575 C   0  0  0  0  0  0
  -27.7983  -24.3411   20.9911 C   0  0  0  0  0  0
  -28.5966  -25.2764   20.0603 C   0  0  2  0  0  0
  -30.5645  -20.0117   20.6301 C   0  0  0  0  0  0
  -30.1996  -17.0409   20.9554 C   0  0  0  0  0  0
  -28.3220  -21.9088   21.4196 C   0  0  0  0  0  0
  -25.4820  -20.5199   21.4579 N   0  0  0  0  0  0
  -29.8752  -15.5860   21.0042 N   0  0  0  0  0  0
  -27.9050  -22.9544   20.4195 N   0  3  2  0  0  0
  -31.4796  -12.4614   19.1669 H   0  0  0  0  0  0
  -30.3418  -11.3517   19.8840 H   0  0  0  0  0  0
  -29.7653  -11.7481   17.4711 H   0  0  0  0  0  0
  -29.6488  -13.4657   17.7490 H   0  0  0  0  0  0
  -27.8770  -11.2780   18.8854 H   0  0  0  0  0  0
  -27.3586  -12.5433   17.8050 H   0  0  0  0  0  0
  -27.6878  -14.2450   19.5531 H   0  0  0  0  0  0
  -28.6739  -11.9868   21.3601 H   0  0  0  0  0  0
  -28.4276  -13.6322   21.8704 H   0  0  0  0  0  0
  -25.2760   -9.5699   22.4763 H   0  0  0  0  0  0
  -24.0001   -7.4659   22.7521 H   0  0  0  0  0  0
  -21.0807   -8.8768   19.9029 H   0  0  0  0  0  0
  -22.3681  -10.9646   19.6198 H   0  0  0  0  0  0
  -21.2021   -7.6160   23.9689 H   0  0  0  0  0  0
  -21.1462   -6.0556   25.9069 H   0  0  0  0  0  0
  -22.0606   -2.7604   23.2870 H   0  0  0  0  0  0
  -22.4199  -11.9934   22.4707 H   0  0  0  0  0  0
  -21.1157  -13.1292   22.2682 H   0  0  0  0  0  0
  -24.6315  -15.8168   20.4621 H   0  0  0  0  0  0
  -26.2407  -15.6202   19.9874 H   0  0  0  0  0  0
  -26.7093  -32.5494   23.1076 H   0  0  0  0  0  0
  -25.0005  -33.9730   25.0438 H   0  0  0  0  0  0
  -22.6995  -31.2975   21.3910 H   0  0  0  0  0  0
  -23.3746  -35.9651   23.3298 H   0  0  0  0  0  0
  -24.3590  -36.8929   22.2052 H   0  0  0  0  0  0
  -23.7222  -37.6523   23.6642 H   0  0  0  0  0  0
  -26.0415  -31.5681   20.5752 H   0  0  0  0  0  0
  -26.8222  -30.8816   21.9748 H   0  0  0  0  0  0
  -28.0936  -29.0696   21.1828 H   0  0  0  0  0  0
  -26.0599  -25.9453   18.9976 H   0  0  0  0  0  0
  -23.9968  -27.2757   19.0190 H   0  0  0  0  0  0
  -23.7283  -30.5635   19.3908 H   0  0  0  0  0  0
  -22.7423  -29.2137   19.8665 H   0  0  0  0  0  0
  -25.1270  -36.1992   25.0837 H   0  0  0  0  0  0
  -20.9904  -28.3261   24.1410 H   0  0  0  0  0  0
  -21.6655  -26.7450   22.1192 H   0  0  0  0  0  0
  -20.5711  -26.2285   23.3599 H   0  0  0  0  0  0
  -19.6892  -25.6288   21.1206 H   0  0  0  0  0  0
  -19.6777  -27.3157   20.6729 H   0  0  0  0  0  0
  -17.4294  -26.6696   21.3934 H   0  0  0  0  0  0
  -18.0349  -25.9990   22.8923 H   0  0  0  0  0  0
  -19.7911  -30.7238   24.2260 H   0  0  0  0  0  0
  -17.4956  -31.6260   24.5102 H   0  0  0  0  0  0
  -15.5320  -30.2942   23.7537 H   0  0  0  0  0  0
  -15.8696  -28.0761   22.6991 H   0  0  0  0  0  0
  -24.5911  -30.7009   25.7758 H   0  0  0  0  0  0
  -24.8853  -32.2834   26.4851 H   0  0  0  0  0  0
  -25.8052  -30.8883   27.0195 H   0  0  0  0  0  0
  -26.2837  -29.6795   24.1120 H   0  0  0  0  0  0
  -27.4056  -29.7281   25.4526 H   0  0  0  0  0  0
  -27.8653  -30.4353   23.9207 H   0  0  0  0  0  0
  -27.2759  -33.3561   26.2053 H   0  0  0  0  0  0
  -28.3862  -32.6799   25.0235 H   0  0  0  0  0  0
  -28.0749  -31.8331   26.5300 H   0  0  0  0  0  0
  -28.2622  -38.0105   24.7515 H   0  0  0  0  0  0
  -28.1064  -36.2645   24.6282 H   0  0  0  0  0  0
  -27.2309  -37.1456   25.8873 H   0  0  0  0  0  0
  -20.9302  -29.8726   21.6890 H   0  0  0  0  0  0
  -26.0193  -38.2889   24.1405 H   0  0  0  0  0  0
  -27.5915  -16.5179   21.6330 H   0  0  0  0  0  0
  -25.7355  -17.9527   21.8513 H   0  0  0  0  0  0
  -23.3567  -22.1752   22.3340 H   0  0  0  0  0  0
  -23.2868  -22.9292   20.7358 H   0  0  0  0  0  0
  -23.2348  -20.7563   19.6443 H   0  0  0  0  0  0
  -22.1688  -20.5022   21.0234 H   0  0  0  0  0  0
  -27.6535  -24.7186   18.1698 H   0  0  0  0  0  0
  -29.4037  -24.8487   18.0717 H   0  0  0  0  0  0
  -25.6559  -22.5879   21.9605 H   0  0  0  0  0  0
  -25.5096  -22.2072   20.2168 H   0  0  0  0  0  0
  -24.3128  -18.9336   20.5815 H   0  0  0  0  0  0
  -23.9035  -19.3878   22.2422 H   0  0  0  0  0  0
  -29.7369  -22.8491   19.3366 H   0  0  0  0  0  0
  -28.3277  -22.3797   18.3958 H   0  0  0  0  0  0
  -26.7492  -24.6335   21.0323 H   0  0  0  0  0  0
  -28.1911  -24.3991   22.0085 H   0  0  0  0  0  0
  -29.6276  -25.1798   20.4043 H   0  0  0  0  0  0
  -31.2346  -19.9185   21.4878 H   0  0  0  0  0  0
  -30.5755  -21.0445   20.2961 H   0  0  0  0  0  0
  -30.9941  -19.4544   19.7969 H   0  0  0  0  0  0
  -30.7053  -17.2485   20.0115 H   0  0  0  0  0  0
  -30.9256  -17.2356   21.7459 H   0  0  0  0  0  0
  -29.3561  -22.0862   21.7094 H   0  0  0  0  0  0
  -27.7951  -22.1171   22.3497 H   0  0  0  0  0  0
  -28.9664  -15.3390   21.3615 H   0  0  0  0  0  0
  -26.9707  -22.6913   20.1415 H   0  0  0  0  0  0
  1 25  1  0  0  0
  1 30  2  0  0  0
  1 89  1  0  0  0
  2  3  1  0  0  0
  2 25  1  0  0  0
  2 91  1  0  0  0
  2 92  1  0  0  0
  3  4  1  0  0  0
  3 93  1  0  0  0
  3 94  1  0  0  0
  4  5  1  0  0  0
  4 95  1  0  0  0
  4 96  1  0  0  0
  5  6  1  0  0  0
  5 26  1  0  0  0
  5 97  1  0  0  0
  6 25  1  0  0  0
  6 98  1  0  0  0
  6 99  1  0  0  0
  7  8  2  0  0  0
  7 26  1  0  0  0
  7 29  1  0  0  0
  8  9  1  0  0  0
  8 22  1  0  0  0
  9 10  1  0  0  0
  9 27  2  0  0  0
 10 11  2  0  0  0
 10 15  1  0  0  0
 11 12  1  0  0  0
 11100  1  0  0  0
 12 13  2  0  0  0
 12101  1  0  0  0
 13 14  1  0  0  0
 13 31  1  0  0  0
 14 15  2  0  0  0
 14102  1  0  0  0
 15103  1  0  0  0
 16 17  2  0  0  0
 16 21  1  0  0  0
 16 31  1  0  0  0
 17 18  1  0  0  0
 17104  1  0  0  0
 18 19  2  0  0  0
 18105  1  0  0  0
 19 20  1  0  0  0
 19 24  1  0  0  0
 20 21  2  0  0  0
 20106  1  0  0  0
 21 23  1  0  0  0
 22 28  1  0  0  0
 22 32  2  0  0  0
 26 27  1  0  0  0
 28107  1  0  0  0
 28108  1  0  0  0
 29109  1  0  0  0
 29110  1  0  0  0
 33 34  1  0  0  0
 33 66  1  0  0  0
 33 70  2  0  0  0
 34 36  1  0  0  0
 34 59  1  0  0  0
 34111  1  0  0  0
 35 44  2  0  0  0
 35 45  1  0  0  0
 35 68  1  0  0  0
 36 56  1  0  0  0
 36112  1  0  0  0
 37 39  1  0  0  0
 37 47  1  0  0  0
 37 66  1  0  0  0
 37113  1  0  0  0
 38 43  2  0  0  0
 38 46  1  0  0  0
 38 47  1  0  0  0
 39 64  1  0  0  0
 39 67  2  0  0  0
 40 52  1  0  0  0
 40 53  2  0  0  0
 40 58  1  0  0  0
 41114  1  0  0  0
 41115  1  0  0  0
 41116  1  0  0  0
 41 48  1  0  0  0
 42 43  1  0  0  0
 42 66  1  0  0  0
 42117  1  0  0  0
 42118  1  0  0  0
 43 44  1  0  0  0
 44119  1  0  0  0
 45 46  2  0  0  0
 45120  1  0  0  0
 46121  1  0  0  0
 47122  1  0  0  0
 47123  1  0  0  0
 48 56  1  0  0  0
 48 65  1  0  0  0
 48124  1  0  0  0
 49 50  1  0  0  0
 49 53  1  0  0  0
 49 64  1  0  0  0
 49125  1  0  0  0
 50 51  1  0  0  0
 50126  1  0  0  0
 50127  1  0  0  0
 51 52  1  0  0  0
 51128  1  0  0  0
 51129  1  0  0  0
 52130  1  0  0  0
 52131  1  0  0  0
 53 54  1  0  0  0
 54 55  2  0  0  0
 54132  1  0  0  0
 55 57  1  0  0  0
 55133  1  0  0  0
 56 69  2  0  0  0
 57 58  2  0  0  0
 57134  1  0  0  0
 58135  1  0  0  0
 59 60  1  0  0  0
 59 61  1  0  0  0
 59 62  1  0  0  0
 60136  1  0  0  0
 60137  1  0  0  0
 60138  1  0  0  0
 61139  1  0  0  0
 61140  1  0  0  0
 61141  1  0  0  0
 62142  1  0  0  0
 62143  1  0  0  0
 62144  1  0  0  0
 63 65  1  0  0  0
 63145  1  0  0  0
 63146  1  0  0  0
 63147  1  0  0  0
 64148  1  0  0  0
 65149  1  0  0  0
 68 84  1  0  0  0
 71 72  2  0  0  0
 71 73  1  0  0  0
 71150  1  0  0  0
 72 76  1  0  0  0
 72151  1  0  0  0
 73 74  2  0  0  0
 73 86  1  0  0  0
 74 75  1  0  0  0
 74 85  1  0  0  0
 75 76  2  0  0  0
 75 87  1  0  0  0
 76 88  1  0  0  0
 77 78  1  0  0  0
 77 80  1  0  0  0
 77152  1  0  0  0
 77153  1  0  0  0
 78 81  1  0  0  0
 78154  1  0  0  0
 78155  1  0  0  0
 79 82  1  0  0  0
 79 84  1  0  0  0
 79156  1  0  0  0
 79157  1  0  0  0
 80 88  1  0  0  0
 80158  1  0  0  0
 80159  1  0  0  0
 81 88  1  0  0  0
 81160  1  0  0  0
 81161  1  0  0  0
 82 90  1  0  0  0
 82162  1  0  0  0
 82163  1  0  0  0
 83 84  1  0  0  0
 83 90  1  0  0  0
 83164  1  0  0  0
 83165  1  0  0  0
 84166  1  0  0  0
 85167  1  0  0  0
 85168  1  0  0  0
 85169  1  0  0  0
 86 89  1  0  0  0
 86170  1  0  0  0
 86171  1  0  0  0
 87172  1  0  0  0
 87173  1  0  0  0
 87 90  1  0  0  0
 89174  1  0  0  0
 90175  1  0  0  0
M  CHG  1  90   1
M  ISO  4   1 100  68 101  84 101  89 100
M  END
> <chiral flag>
0

> <version>
0

> <s_m_source_file>
/data/baiqing/PycharmProjects/Reinvent-master-3.2/result/LINK_invent/BTK/process_docking_weight1_custom_product_contain_oxygen_bond_distance_aromatic_linkinvent_7_9_3/rearranged_h_0027.sdf

> <i_m_source_file_index>
66

> <r_mmod_Potential_Energy-OPLS-2005>
23.3744411468506

> <r_mmod_Stretch_Energy-OPLS-2005>
67.7927017211914

> <r_mmod_Bend_Energy-OPLS-2005>
245.598236083984

> <r_mmod_Torsional_Energy-OPLS-2005>
298.978698730469

> <r_mmod_Improper_Torsional_Energy-OPLS-2005>
7.40729093551636

> <r_mmod_Van_der_Waal_Energy-OPLS-2005>
150.738418579102

> <r_mmod_Electrostatic_Energy-OPLS-2005>
-334.434356689453

> <r_mmod_Solvation_Energy-OPLS-2005>
-435.960205078125

> <b_mmod_Minimization_Converged-OPLS-2005>
0

> <r_mmod_RMS_Derivative-OPLS-2005>
4.8040599822998

$$$$
67
                    3D
 Structure written by MMmdl.
165174  0  0  1  0            999 V2000
  -30.6994  -14.6097   20.4994 C   0  0  0  0  0  0
  -30.4141  -12.3779   19.4618 C   0  0  0  0  0  0
  -29.4983  -12.4946   18.2266 C   0  0  0  0  0  0
  -28.0233  -12.3411   18.6403 C   0  0  0  0  0  0
  -27.6455  -13.2291   19.8569 C   0  0  2  0  0  0
  -28.6907  -13.1304   20.9913 C   0  0  0  0  0  0
  -25.2487  -13.8170   20.5678 C   0  0  0  0  0  0
  -24.1789  -13.0423   20.9216 C   0  0  0  0  0  0
  -24.6389  -11.6908   20.8762 C   0  0  0  0  0  0
  -23.9067  -10.4285   21.0411 C   0  0  0  0  0  0
  -24.3617   -9.4200   21.9188 C   0  0  0  0  0  0
  -23.6290   -8.2237   22.0755 C   0  0  0  0  0  0
  -22.4273   -8.0277   21.3542 C   0  0  0  0  0  0
  -21.9910   -9.0251   20.4644 C   0  0  0  0  0  0
  -22.7240  -10.2129   20.3056 C   0  0  0  0  0  0
  -21.6851   -6.0732   22.5276 C   0  0  0  0  0  0
  -21.4012   -6.5637   23.8210 C   0  0  0  0  0  0
  -21.3661   -5.6790   24.9174 C   0  0  0  0  0  0
  -21.6045   -4.3052   24.7223 C   0  0  0  0  0  0
  -21.8820   -3.8144   23.4345 C   0  0  0  0  0  0
  -21.9192   -4.6959   22.3401 C   0  0  0  0  0  0
  -22.7812  -13.5209   21.1870 C   0  0  0  0  0  0
  -22.1661   -4.2145   21.0977 F   0  0  0  0  0  0
  -21.5631   -3.4537   25.7738 F   0  0  0  0  0  0
  -30.0064  -13.4319   20.4140 N   0  0  0  0  0  0
  -26.2947  -12.9401   20.3314 N   0  0  0  0  0  0
  -25.9324  -11.6542   20.5781 N   0  0  0  0  0  0
  -22.0456  -12.8205   22.0427 N   0  0  0  0  0  0
  -25.4105  -15.1876   20.4016 N   0  0  0  0  0  0
  -31.8745  -14.6737   20.1337 O   0  0  0  0  0  0
  -21.6637   -6.8876   21.4238 O   0  0  0  0  0  0
  -22.3498  -14.5515   20.6715 O   0  0  0  0  0  0
  -24.6253  -31.8619   23.2057 C   0  0  0  0  0  0
  -25.9108  -32.4790   23.8377 C   0  0  1  0  0  0
  -27.2154  -27.3309   20.1100 C   0  0  0  0  0  0
  -25.5925  -33.8590   24.2299 N   0  0  0  0  0  0
  -23.4176  -30.4882   21.5486 C   0  0  2  0  0  0
  -24.8624  -28.9538   20.1070 C   0  0  0  0  0  0
  -22.7473  -29.4630   22.4940 C   0  0  0  0  0  0
  -18.0281  -28.1385   22.8480 C   0  0  0  0  0  0
  -24.1490  -36.7301   23.2637 C   0  0  0  0  0  0
  -25.9592  -30.7959   21.3772 C   0  0  0  0  0  0
  -26.0322  -29.4265   20.7158 C   0  0  0  0  0  0
  -27.2123  -28.6253   20.7123 C   0  0  0  0  0  0
  -26.0266  -26.9244   19.4563 C   0  0  0  0  0  0
  -24.8609  -27.7069   19.4691 C   0  0  0  0  0  0
  -23.6303  -29.8314   20.1611 C   0  0  0  0  0  0
  -25.4112  -36.3092   24.0329 C   0  0  1  0  0  0
  -20.5881  -28.3692   23.1279 C   0  0  2  0  0  0
  -20.6775  -26.9416   22.5407 C   0  0  0  0  0  0
  -19.5749  -26.6385   21.5210 C   0  0  0  0  0  0
  -18.1928  -26.7927   22.1622 C   0  0  0  0  0  0
  -19.1534  -28.8854   23.2876 C   0  0  0  0  0  0
  -18.9460  -30.1454   23.8895 C   0  0  0  0  0  0
  -17.6462  -30.6589   24.0561 C   0  0  0  0  0  0
  -25.9048  -34.9458   23.5114 C   0  0  0  0  0  0
  -16.5352  -29.9088   23.6327 C   0  0  0  0  0  0
  -16.7270  -28.6505   23.0346 C   0  0  0  0  0  0
  -26.4495  -31.6589   25.0740 C   0  0  0  0  0  0
  -25.3729  -31.3720   26.1467 C   0  0  0  0  0  0
  -27.0339  -30.3012   24.6190 C   0  0  0  0  0  0
  -27.6058  -32.4322   25.7507 C   0  0  0  0  0  0
  -27.5579  -37.1803   24.8463 C   0  0  0  0  0  0
  -21.4187  -29.3046   22.3680 N   0  0  0  0  0  0
  -26.4295  -37.3781   23.9405 N   0  0  0  0  0  0
  -24.6861  -31.0643   22.1008 N   0  0  0  0  0  0
  -23.4204  -28.8155   23.3003 O   0  0  0  0  0  0
  -28.3142  -26.4593   20.1849 O   0  0  0  0  0  0
  -26.5618  -34.8921   22.4681 O   0  0  0  0  0  0
  -23.5418  -32.1416   23.7386 O   0  0  0  0  0  0
  -30.7027  -19.6421   21.1236 C   0  0  0  0  0  0
  -30.1937  -20.9664   21.0848 C   0  0  0  0  0  0
  -29.9516  -18.5074   20.7193 C   0  0  0  0  0  0
  -28.6405  -18.7683   20.2274 C   0  0  0  0  0  0
  -28.1117  -20.1110   20.2015 C   0  0  0  0  0  0
  -28.8789  -21.2410   20.6465 C   0  0  0  0  0  0
  -28.2476  -23.5036   22.9569 C   0  0  0  0  0  0
  -29.3227  -24.2060   22.1186 C   0  0  0  0  0  0
  -27.4761  -22.6157   21.9725 C   0  0  0  0  0  0
  -28.9649  -23.8800   20.6638 C   0  0  2  0  0  0
  -27.8119  -17.5911   19.7278 C   0  0  0  0  0  0
  -26.6901  -20.3306   19.6816 C   0  0  0  0  0  0
  -30.6909  -17.1157   20.7568 C   0  0  0  0  0  0
  -28.0138  -25.0139   20.0673 C   0  0  0  0  0  0
  -28.2869  -22.5475   20.7571 N   0  0  0  0  0  0
  -30.0308  -15.7642   20.8056 N   0  0  0  0  0  0
  -31.4601  -12.4596   19.1614 H   0  0  0  0  0  0
  -30.3156  -11.3942   19.9236 H   0  0  0  0  0  0
  -29.7601  -11.7346   17.4891 H   0  0  0  0  0  0
  -29.6489  -13.4600   17.7406 H   0  0  0  0  0  0
  -27.8613  -11.2909   18.8857 H   0  0  0  0  0  0
  -27.3682  -12.5586   17.7957 H   0  0  0  0  0  0
  -27.6530  -14.2578   19.4959 H   0  0  0  0  0  0
  -28.6932  -12.1318   21.4307 H   0  0  0  0  0  0
  -28.4465  -13.8193   21.8015 H   0  0  0  0  0  0
  -25.2760   -9.5678   22.4765 H   0  0  0  0  0  0
  -23.9997   -7.4628   22.7476 H   0  0  0  0  0  0
  -21.0843   -8.8769   19.8948 H   0  0  0  0  0  0
  -22.3698  -10.9670   19.6166 H   0  0  0  0  0  0
  -21.2002   -7.6144   23.9711 H   0  0  0  0  0  0
  -21.1484   -6.0521   25.9077 H   0  0  0  0  0  0
  -22.0599   -2.7605   23.2845 H   0  0  0  0  0  0
  -22.4073  -11.9868   22.4820 H   0  0  0  0  0  0
  -21.1073  -13.1229   22.2631 H   0  0  0  0  0  0
  -24.6320  -15.8313   20.4921 H   0  0  0  0  0  0
  -26.2398  -15.6172   20.0173 H   0  0  0  0  0  0
  -26.7176  -32.5464   23.1127 H   0  0  0  0  0  0
  -25.0059  -33.9736   25.0434 H   0  0  0  0  0  0
  -22.7105  -31.3086   21.4103 H   0  0  0  0  0  0
  -23.3751  -35.9636   23.3305 H   0  0  0  0  0  0
  -24.3581  -36.8919   22.2053 H   0  0  0  0  0  0
  -23.7247  -37.6505   23.6659 H   0  0  0  0  0  0
  -26.0914  -31.5626   20.6124 H   0  0  0  0  0  0
  -26.8396  -30.8410   22.0065 H   0  0  0  0  0  0
  -28.1060  -28.9773   21.2085 H   0  0  0  0  0  0
  -25.9618  -25.9796   18.9381 H   0  0  0  0  0  0
  -23.9670  -27.3420   18.9819 H   0  0  0  0  0  0
  -23.7479  -30.6124   19.4090 H   0  0  0  0  0  0
  -22.7503  -29.2617   19.8571 H   0  0  0  0  0  0
  -25.1289  -36.1949   25.0821 H   0  0  0  0  0  0
  -20.9970  -28.3275   24.1400 H   0  0  0  0  0  0
  -20.5682  -26.2304   23.3609 H   0  0  0  0  0  0
  -21.6642  -26.7451   22.1193 H   0  0  0  0  0  0
  -19.6916  -25.6297   21.1237 H   0  0  0  0  0  0
  -19.6683  -27.3198   20.6744 H   0  0  0  0  0  0
  -17.4194  -26.6663   21.4030 H   0  0  0  0  0  0
  -18.0332  -26.0075   22.9025 H   0  0  0  0  0  0
  -19.7940  -30.7261   24.2271 H   0  0  0  0  0  0
  -17.5021  -31.6268   24.5169 H   0  0  0  0  0  0
  -15.5354  -30.2990   23.7659 H   0  0  0  0  0  0
  -15.8667  -28.0829   22.7060 H   0  0  0  0  0  0
  -24.5909  -30.7061   25.7797 H   0  0  0  0  0  0
  -24.8910  -32.2883   26.4890 H   0  0  0  0  0  0
  -25.8053  -30.8903   27.0245 H   0  0  0  0  0  0
  -26.2916  -29.6761   24.1214 H   0  0  0  0  0  0
  -27.4039  -29.7267   25.4692 H   0  0  0  0  0  0
  -27.8786  -30.4296   23.9417 H   0  0  0  0  0  0
  -27.2672  -33.3623   26.2085 H   0  0  0  0  0  0
  -28.3868  -32.6880   25.0334 H   0  0  0  0  0  0
  -28.0730  -31.8448   26.5423 H   0  0  0  0  0  0
  -28.2595  -38.0103   24.7511 H   0  0  0  0  0  0
  -28.1077  -36.2630   24.6288 H   0  0  0  0  0  0
  -27.2295  -37.1453   25.8867 H   0  0  0  0  0  0
  -20.9365  -29.8783   21.6900 H   0  0  0  0  0  0
  -26.0180  -38.2859   24.1404 H   0  0  0  0  0  0
  -31.7141  -19.5007   21.4790 H   0  0  0  0  0  0
  -30.8240  -21.7690   21.4366 H   0  0  0  0  0  0
  -27.5777  -24.2185   23.4370 H   0  0  0  0  0  0
  -28.7097  -22.9062   23.7444 H   0  0  0  0  0  0
  -30.3037  -23.7980   22.3629 H   0  0  0  0  0  0
  -29.3695  -25.2783   22.3119 H   0  0  0  0  0  0
  -26.5046  -23.0533   21.7383 H   0  0  0  0  0  0
  -27.2740  -21.6373   22.4145 H   0  0  0  0  0  0
  -29.8718  -23.8138   20.0606 H   0  0  0  0  0  0
  -28.3954  -16.9788   19.0401 H   0  0  0  0  0  0
  -26.9048  -17.8631   19.1935 H   0  0  0  0  0  0
  -27.5172  -16.9773   20.5778 H   0  0  0  0  0  0
  -26.6146  -20.0120   18.6422 H   0  0  0  0  0  0
  -26.3612  -21.3676   19.7026 H   0  0  0  0  0  0
  -25.9773  -19.7584   20.2755 H   0  0  0  0  0  0
  -31.3721  -17.1409   21.6091 H   0  0  0  0  0  0
  -31.3386  -17.1335   19.8784 H   0  0  0  0  0  0
  -27.0457  -24.8563   20.5419 H   0  0  0  0  0  0
  -27.8697  -24.7936   19.0086 H   0  0  0  0  0  0
  -29.0622  -15.7074   21.0772 H   0  0  0  0  0  0
  1 25  1  0  0  0
  1 30  2  0  0  0
  1 86  1  0  0  0
  2  3  1  0  0  0
  2 25  1  0  0  0
  2 87  1  0  0  0
  2 88  1  0  0  0
  3  4  1  0  0  0
  3 89  1  0  0  0
  3 90  1  0  0  0
  4  5  1  0  0  0
  4 91  1  0  0  0
  4 92  1  0  0  0
  5  6  1  0  0  0
  5 26  1  0  0  0
  5 93  1  0  0  0
  6 25  1  0  0  0
  6 94  1  0  0  0
  6 95  1  0  0  0
  7  8  2  0  0  0
  7 26  1  0  0  0
  7 29  1  0  0  0
  8  9  1  0  0  0
  8 22  1  0  0  0
  9 10  1  0  0  0
  9 27  2  0  0  0
 10 11  2  0  0  0
 10 15  1  0  0  0
 11 12  1  0  0  0
 11 96  1  0  0  0
 12 13  2  0  0  0
 12 97  1  0  0  0
 13 14  1  0  0  0
 13 31  1  0  0  0
 14 15  2  0  0  0
 14 98  1  0  0  0
 15 99  1  0  0  0
 16 17  2  0  0  0
 16 21  1  0  0  0
 16 31  1  0  0  0
 17 18  1  0  0  0
 17100  1  0  0  0
 18 19  2  0  0  0
 18101  1  0  0  0
 19 20  1  0  0  0
 19 24  1  0  0  0
 20 21  2  0  0  0
 20102  1  0  0  0
 21 23  1  0  0  0
 22 28  1  0  0  0
 22 32  2  0  0  0
 26 27  1  0  0  0
 28103  1  0  0  0
 28104  1  0  0  0
 29105  1  0  0  0
 29106  1  0  0  0
 33 34  1  0  0  0
 33 66  1  0  0  0
 33 70  2  0  0  0
 34 36  1  0  0  0
 34 59  1  0  0  0
 34107  1  0  0  0
 35 44  2  0  0  0
 35 45  1  0  0  0
 35 68  1  0  0  0
 36 56  1  0  0  0
 36108  1  0  0  0
 37 39  1  0  0  0
 37 47  1  0  0  0
 37 66  1  0  0  0
 37109  1  0  0  0
 38 43  2  0  0  0
 38 46  1  0  0  0
 38 47  1  0  0  0
 39 64  1  0  0  0
 39 67  2  0  0  0
 40 52  1  0  0  0
 40 53  2  0  0  0
 40 58  1  0  0  0
 41110  1  0  0  0
 41111  1  0  0  0
 41112  1  0  0  0
 41 48  1  0  0  0
 42 43  1  0  0  0
 42 66  1  0  0  0
 42113  1  0  0  0
 42114  1  0  0  0
 43 44  1  0  0  0
 44115  1  0  0  0
 45 46  2  0  0  0
 45116  1  0  0  0
 46117  1  0  0  0
 47118  1  0  0  0
 47119  1  0  0  0
 48 56  1  0  0  0
 48 65  1  0  0  0
 48120  1  0  0  0
 49 50  1  0  0  0
 49 53  1  0  0  0
 49 64  1  0  0  0
 49121  1  0  0  0
 50 51  1  0  0  0
 50122  1  0  0  0
 50123  1  0  0  0
 51 52  1  0  0  0
 51124  1  0  0  0
 51125  1  0  0  0
 52126  1  0  0  0
 52127  1  0  0  0
 53 54  1  0  0  0
 54 55  2  0  0  0
 54128  1  0  0  0
 55 57  1  0  0  0
 55129  1  0  0  0
 56 69  2  0  0  0
 57 58  2  0  0  0
 57130  1  0  0  0
 58131  1  0  0  0
 59 60  1  0  0  0
 59 61  1  0  0  0
 59 62  1  0  0  0
 60132  1  0  0  0
 60133  1  0  0  0
 60134  1  0  0  0
 61135  1  0  0  0
 61136  1  0  0  0
 61137  1  0  0  0
 62138  1  0  0  0
 62139  1  0  0  0
 62140  1  0  0  0
 63 65  1  0  0  0
 63141  1  0  0  0
 63142  1  0  0  0
 63143  1  0  0  0
 64144  1  0  0  0
 65145  1  0  0  0
 68 84  1  0  0  0
 71 72  2  0  0  0
 71 73  1  0  0  0
 71146  1  0  0  0
 72 76  1  0  0  0
 72147  1  0  0  0
 73 74  2  0  0  0
 73 83  1  0  0  0
 74 75  1  0  0  0
 74 81  1  0  0  0
 75 76  2  0  0  0
 75 82  1  0  0  0
 76 85  1  0  0  0
 77 78  1  0  0  0
 77 79  1  0  0  0
 77148  1  0  0  0
 77149  1  0  0  0
 78 80  1  0  0  0
 78150  1  0  0  0
 78151  1  0  0  0
 79 85  1  0  0  0
 79152  1  0  0  0
 79153  1  0  0  0
 80 84  1  0  0  0
 80 85  1  0  0  0
 80154  1  0  0  0
 81155  1  0  0  0
 81156  1  0  0  0
 81157  1  0  0  0
 82158  1  0  0  0
 82159  1  0  0  0
 82160  1  0  0  0
 83 86  1  0  0  0
 83161  1  0  0  0
 83162  1  0  0  0
 84163  1  0  0  0
 84164  1  0  0  0
 86165  1  0  0  0
M  ISO  4   1 100  68 101  84 101  86 100
M  END
> <chiral flag>
0

> <version>
0

> <s_m_source_file>
/data/baiqing/PycharmProjects/Reinvent-master-3.2/result/LINK_invent/BTK/process_docking_weight1_custom_product_contain_oxygen_bond_distance_aromatic_linkinvent_7_9_3/rearranged_h_0027.sdf

> <i_m_source_file_index>
67

> <r_mmod_Potential_Energy-OPLS-2005>
127.676765441895

> <r_mmod_Stretch_Energy-OPLS-2005>
79.3786163330078

> <r_mmod_Bend_Energy-OPLS-2005>
185.021759033203

> <r_mmod_Torsional_Energy-OPLS-2005>
287.656829833984

> <r_mmod_Improper_Torsional_Energy-OPLS-2005>
10.0876750946045

> <r_mmod_Van_der_Waal_Energy-OPLS-2005>
161.366439819336

> <r_mmod_Electrostatic_Energy-OPLS-2005>
-432.951568603516

> <r_mmod_Solvation_Energy-OPLS-2005>
-211.102935791016

> <b_mmod_Minimization_Converged-OPLS-2005>
0

> <r_mmod_RMS_Derivative-OPLS-2005>
0.464126616716385

$$$$
68
                    3D
 Structure written by MMmdl.
155164  0  0  1  0            999 V2000
  -30.6216  -14.6360   20.4936 C   0  0  0  0  0  0
  -30.4394  -12.3908   19.4447 C   0  0  0  0  0  0
  -29.5041  -12.5073   18.2196 C   0  0  0  0  0  0
  -28.0282  -12.3422   18.6351 C   0  0  0  0  0  0
  -27.6525  -13.2148   19.8628 C   0  0  2  0  0  0
  -28.7001  -13.0665   20.9895 C   0  0  0  0  0  0
  -25.2550  -13.8158   20.5689 C   0  0  0  0  0  0
  -24.1814  -13.0420   20.9166 C   0  0  0  0  0  0
  -24.6391  -11.6896   20.8731 C   0  0  0  0  0  0
  -23.9065  -10.4280   21.0401 C   0  0  0  0  0  0
  -24.3617   -9.4201   21.9183 C   0  0  0  0  0  0
  -23.6292   -8.2238   22.0753 C   0  0  0  0  0  0
  -22.4273   -8.0277   21.3545 C   0  0  0  0  0  0
  -21.9909   -9.0248   20.4646 C   0  0  0  0  0  0
  -22.7237  -10.2127   20.3052 C   0  0  0  0  0  0
  -21.6849   -6.0740   22.5285 C   0  0  0  0  0  0
  -21.4006   -6.5640   23.8217 C   0  0  0  0  0  0
  -21.3659   -5.6792   24.9179 C   0  0  0  0  0  0
  -21.6044   -4.3057   24.7225 C   0  0  0  0  0  0
  -21.8819   -3.8150   23.4346 C   0  0  0  0  0  0
  -21.9189   -4.6969   22.3406 C   0  0  0  0  0  0
  -22.7838  -13.5220   21.1842 C   0  0  0  0  0  0
  -22.1659   -4.2156   21.0986 F   0  0  0  0  0  0
  -21.5632   -3.4541   25.7738 F   0  0  0  0  0  0
  -30.0156  -13.4094   20.4245 N   0  0  0  0  0  0
  -26.2990  -12.9343   20.3341 N   0  0  0  0  0  0
  -25.9324  -11.6496   20.5766 N   0  0  0  0  0  0
  -22.0486  -12.8216   22.0406 N   0  0  0  0  0  0
  -25.4217  -15.1887   20.4171 N   0  0  0  0  0  0
  -31.7887  -14.7982   20.1251 O   0  0  0  0  0  0
  -21.6634   -6.8879   21.4244 O   0  0  0  0  0  0
  -22.3518  -14.5531   20.6705 O   0  0  0  0  0  0
  -24.6256  -31.8611   23.2037 C   0  0  0  0  0  0
  -25.9109  -32.4787   23.8352 C   0  0  1  0  0  0
  -27.2208  -27.3249   20.1093 C   0  0  0  0  0  0
  -25.5922  -33.8585   24.2281 N   0  0  0  0  0  0
  -23.4179  -30.4874   21.5467 C   0  0  2  0  0  0
  -24.8636  -28.9477   20.1094 C   0  0  0  0  0  0
  -22.7469  -29.4636   22.4935 C   0  0  0  0  0  0
  -18.0288  -28.1384   22.8495 C   0  0  0  0  0  0
  -24.1487  -36.7293   23.2639 C   0  0  0  0  0  0
  -25.9593  -30.7946   21.3733 C   0  0  0  0  0  0
  -26.0331  -29.4224   20.7157 C   0  0  0  0  0  0
  -27.2149  -28.6224   20.7084 C   0  0  0  0  0  0
  -26.0270  -26.9106   19.4700 C   0  0  0  0  0  0
  -24.8626  -27.6972   19.4774 C   0  0  0  0  0  0
  -23.6311  -29.8257   20.1608 C   0  0  0  0  0  0
  -25.4110  -36.3085   24.0332 C   0  0  1  0  0  0
  -20.5890  -28.3684   23.1288 C   0  0  2  0  0  0
  -20.6782  -26.9409   22.5409 C   0  0  0  0  0  0
  -19.5753  -26.6382   21.5218 C   0  0  0  0  0  0
  -18.1932  -26.7926   22.1631 C   0  0  0  0  0  0
  -19.1542  -28.8848   23.2892 C   0  0  0  0  0  0
  -18.9469  -30.1450   23.8909 C   0  0  0  0  0  0
  -17.6470  -30.6589   24.0564 C   0  0  0  0  0  0
  -25.9048  -34.9456   23.5105 C   0  0  0  0  0  0
  -16.5360  -29.9090   23.6329 C   0  0  0  0  0  0
  -16.7275  -28.6506   23.0355 C   0  0  0  0  0  0
  -26.4495  -31.6583   25.0708 C   0  0  0  0  0  0
  -25.3727  -31.3723   26.1433 C   0  0  0  0  0  0
  -27.0331  -30.3013   24.6131 C   0  0  0  0  0  0
  -27.6054  -32.4306   25.7487 C   0  0  0  0  0  0
  -27.5576  -37.1795   24.8466 C   0  0  0  0  0  0
  -21.4183  -29.3044   22.3681 N   0  0  0  0  0  0
  -26.4286  -37.3780   23.9414 N   0  0  0  0  0  0
  -24.6867  -31.0632   22.0985 N   0  0  0  0  0  0
  -23.4202  -28.8169   23.3003 O   0  0  0  0  0  0
  -28.3315  -26.4647   20.1681 O   0  0  0  0  0  0
  -26.5621  -34.8925   22.4674 O   0  0  0  0  0  0
  -23.5423  -32.1392   23.7377 O   0  0  0  0  0  0
  -31.0681  -19.2905   20.3281 C   0  0  0  0  0  0
  -31.0869  -17.8686   20.4531 C   0  0  0  0  0  0
  -28.6839  -19.3093   20.6007 C   0  0  0  0  0  0
  -29.8670  -20.0663   20.3812 C   0  0  0  0  0  0
  -29.8956  -17.1274   20.6533 C   0  0  0  0  0  0
  -28.6997  -17.8884   20.7292 C   0  0  0  0  0  0
  -30.7889  -22.3277   19.6784 C   0  0  0  0  0  0
  -30.3979  -23.8105   19.6260 C   0  0  0  0  0  0
  -28.6580  -22.4135   20.5013 C   0  0  0  0  0  0
  -29.1295  -23.9218   20.4734 C   0  0  2  0  0  0
  -28.0741  -25.0147   20.0064 C   0  0  0  0  0  0
  -29.8313  -21.5397   20.2247 N   0  0  0  0  0  0
  -29.7976  -15.6784   20.8158 N   0  0  0  0  0  0
  -31.8780  -21.9590   19.2299 O   0  0  0  0  0  0
  -27.5302  -17.2321   20.9212 F   0  0  0  0  0  0
  -31.4791  -12.5204   19.1391 H   0  0  0  0  0  0
  -30.3788  -11.3939   19.8843 H   0  0  0  0  0  0
  -29.7674  -11.7583   17.4717 H   0  0  0  0  0  0
  -29.6418  -13.4778   17.7402 H   0  0  0  0  0  0
  -27.8685  -11.2888   18.8686 H   0  0  0  0  0  0
  -27.3705  -12.5677   17.7944 H   0  0  0  0  0  0
  -27.6681  -14.2497   19.5202 H   0  0  0  0  0  0
  -28.7122  -12.0432   21.3679 H   0  0  0  0  0  0
  -28.4486  -13.6955   21.8450 H   0  0  0  0  0  0
  -25.2764   -9.5681   22.4752 H   0  0  0  0  0  0
  -24.0004   -7.4630   22.7469 H   0  0  0  0  0  0
  -21.0843   -8.8764   19.8950 H   0  0  0  0  0  0
  -22.3698  -10.9663   19.6158 H   0  0  0  0  0  0
  -21.1989   -7.6143   23.9725 H   0  0  0  0  0  0
  -21.1482   -6.0519   25.9084 H   0  0  0  0  0  0
  -22.0598   -2.7611   23.2845 H   0  0  0  0  0  0
  -22.4099  -11.9874   22.4790 H   0  0  0  0  0  0
  -21.1109  -13.1248   22.2621 H   0  0  0  0  0  0
  -24.6578  -15.8373   20.5682 H   0  0  0  0  0  0
  -26.2962  -15.6611   20.2195 H   0  0  0  0  0  0
  -26.7174  -32.5467   23.1097 H   0  0  0  0  0  0
  -25.0062  -33.9730   25.0422 H   0  0  0  0  0  0
  -22.7108  -31.3079   21.4061 H   0  0  0  0  0  0
  -23.3754  -35.9621   23.3298 H   0  0  0  0  0  0
  -24.3580  -36.8912   22.2053 H   0  0  0  0  0  0
  -23.7234  -37.6492   23.6661 H   0  0  0  0  0  0
  -26.0850  -31.5570   20.6032 H   0  0  0  0  0  0
  -26.8428  -30.8464   21.9979 H   0  0  0  0  0  0
  -28.1101  -28.9798   21.1974 H   0  0  0  0  0  0
  -25.9574  -25.9605   18.9626 H   0  0  0  0  0  0
  -23.9679  -27.3313   18.9925 H   0  0  0  0  0  0
  -23.7474  -30.6028   19.4046 H   0  0  0  0  0  0
  -22.7515  -29.2538   19.8598 H   0  0  0  0  0  0
  -25.1291  -36.1931   25.0824 H   0  0  0  0  0  0
  -20.9989  -28.3261   24.1407 H   0  0  0  0  0  0
  -20.5695  -26.2294   23.3609 H   0  0  0  0  0  0
  -21.6648  -26.7447   22.1194 H   0  0  0  0  0  0
  -19.6918  -25.6295   21.1243 H   0  0  0  0  0  0
  -19.6692  -27.3199   20.6756 H   0  0  0  0  0  0
  -17.4202  -26.6680   21.4033 H   0  0  0  0  0  0
  -18.0332  -26.0062   22.9022 H   0  0  0  0  0  0
  -19.7948  -30.7261   24.2285 H   0  0  0  0  0  0
  -17.5030  -31.6275   24.5155 H   0  0  0  0  0  0
  -15.5363  -30.3003   23.7644 H   0  0  0  0  0  0
  -15.8674  -28.0828   22.7071 H   0  0  0  0  0  0
  -24.5910  -30.7065   25.7760 H   0  0  0  0  0  0
  -24.8912  -32.2897   26.4831 H   0  0  0  0  0  0
  -25.8045  -30.8917   27.0219 H   0  0  0  0  0  0
  -26.2892  -29.6768   24.1168 H   0  0  0  0  0  0
  -27.4071  -29.7254   25.4605 H   0  0  0  0  0  0
  -27.8744  -30.4318   23.9318 H   0  0  0  0  0  0
  -27.2668  -33.3612   26.2054 H   0  0  0  0  0  0
  -28.3879  -32.6846   25.0324 H   0  0  0  0  0  0
  -28.0701  -31.8427   26.5412 H   0  0  0  0  0  0
  -28.2586  -38.0100   24.7520 H   0  0  0  0  0  0
  -28.1076  -36.2628   24.6280 H   0  0  0  0  0  0
  -27.2295  -37.1430   25.8870 H   0  0  0  0  0  0
  -20.9350  -29.8763   21.6895 H   0  0  0  0  0  0
  -26.0167  -38.2853   24.1425 H   0  0  0  0  0  0
  -32.0250  -19.7725   20.1957 H   0  0  0  0  0  0
  -32.0375  -17.3574   20.4023 H   0  0  0  0  0  0
  -27.7303  -19.8122   20.6625 H   0  0  0  0  0  0
  -30.2116  -24.0840   18.5874 H   0  0  0  0  0  0
  -31.1977  -24.4447   20.0086 H   0  0  0  0  0  0
  -27.9104  -22.2358   19.7265 H   0  0  0  0  0  0
  -28.2008  -22.1633   21.4589 H   0  0  0  0  0  0
  -29.4313  -24.1783   21.4899 H   0  0  0  0  0  0
  -27.1628  -24.7841   20.5615 H   0  0  0  0  0  0
  -27.8472  -24.8262   18.9563 H   0  0  0  0  0  0
  -28.8707  -15.3751   21.0720 H   0  0  0  0  0  0
  1 25  1  0  0  0
  1 30  2  0  0  0
  1 83  1  0  0  0
  2  3  1  0  0  0
  2 25  1  0  0  0
  2 86  1  0  0  0
  2 87  1  0  0  0
  3  4  1  0  0  0
  3 88  1  0  0  0
  3 89  1  0  0  0
  4  5  1  0  0  0
  4 90  1  0  0  0
  4 91  1  0  0  0
  5  6  1  0  0  0
  5 26  1  0  0  0
  5 92  1  0  0  0
  6 25  1  0  0  0
  6 93  1  0  0  0
  6 94  1  0  0  0
  7  8  2  0  0  0
  7 26  1  0  0  0
  7 29  1  0  0  0
  8  9  1  0  0  0
  8 22  1  0  0  0
  9 10  1  0  0  0
  9 27  2  0  0  0
 10 11  2  0  0  0
 10 15  1  0  0  0
 11 12  1  0  0  0
 11 95  1  0  0  0
 12 13  2  0  0  0
 12 96  1  0  0  0
 13 14  1  0  0  0
 13 31  1  0  0  0
 14 15  2  0  0  0
 14 97  1  0  0  0
 15 98  1  0  0  0
 16 17  2  0  0  0
 16 21  1  0  0  0
 16 31  1  0  0  0
 17 18  1  0  0  0
 17 99  1  0  0  0
 18 19  2  0  0  0
 18100  1  0  0  0
 19 20  1  0  0  0
 19 24  1  0  0  0
 20 21  2  0  0  0
 20101  1  0  0  0
 21 23  1  0  0  0
 22 28  1  0  0  0
 22 32  2  0  0  0
 26 27  1  0  0  0
 28102  1  0  0  0
 28103  1  0  0  0
 29104  1  0  0  0
 29105  1  0  0  0
 33 34  1  0  0  0
 33 66  1  0  0  0
 33 70  2  0  0  0
 34 36  1  0  0  0
 34 59  1  0  0  0
 34106  1  0  0  0
 35 44  2  0  0  0
 35 45  1  0  0  0
 35 68  1  0  0  0
 36 56  1  0  0  0
 36107  1  0  0  0
 37 39  1  0  0  0
 37 47  1  0  0  0
 37 66  1  0  0  0
 37108  1  0  0  0
 38 43  2  0  0  0
 38 46  1  0  0  0
 38 47  1  0  0  0
 39 64  1  0  0  0
 39 67  2  0  0  0
 40 52  1  0  0  0
 40 53  2  0  0  0
 40 58  1  0  0  0
 41109  1  0  0  0
 41110  1  0  0  0
 41111  1  0  0  0
 41 48  1  0  0  0
 42 43  1  0  0  0
 42 66  1  0  0  0
 42112  1  0  0  0
 42113  1  0  0  0
 43 44  1  0  0  0
 44114  1  0  0  0
 45 46  2  0  0  0
 45115  1  0  0  0
 46116  1  0  0  0
 47117  1  0  0  0
 47118  1  0  0  0
 48 56  1  0  0  0
 48 65  1  0  0  0
 48119  1  0  0  0
 49 50  1  0  0  0
 49 53  1  0  0  0
 49 64  1  0  0  0
 49120  1  0  0  0
 50 51  1  0  0  0
 50121  1  0  0  0
 50122  1  0  0  0
 51 52  1  0  0  0
 51123  1  0  0  0
 51124  1  0  0  0
 52125  1  0  0  0
 52126  1  0  0  0
 53 54  1  0  0  0
 54 55  2  0  0  0
 54127  1  0  0  0
 55 57  1  0  0  0
 55128  1  0  0  0
 56 69  2  0  0  0
 57 58  2  0  0  0
 57129  1  0  0  0
 58130  1  0  0  0
 59 60  1  0  0  0
 59 61  1  0  0  0
 59 62  1  0  0  0
 60131  1  0  0  0
 60132  1  0  0  0
 60133  1  0  0  0
 61134  1  0  0  0
 61135  1  0  0  0
 61136  1  0  0  0
 62137  1  0  0  0
 62138  1  0  0  0
 62139  1  0  0  0
 63 65  1  0  0  0
 63140  1  0  0  0
 63141  1  0  0  0
 63142  1  0  0  0
 64143  1  0  0  0
 65144  1  0  0  0
 68 81  1  0  0  0
 71 72  2  0  0  0
 71 74  1  0  0  0
 71145  1  0  0  0
 72 75  1  0  0  0
 72146  1  0  0  0
 73 74  2  0  0  0
 73 76  1  0  0  0
 73147  1  0  0  0
 74 82  1  0  0  0
 75 76  2  0  0  0
 75 83  1  0  0  0
 76 85  1  0  0  0
 77 78  1  0  0  0
 77 82  1  0  0  0
 77 84  2  0  0  0
 78 80  1  0  0  0
 78148  1  0  0  0
 78149  1  0  0  0
 79 80  1  0  0  0
 79 82  1  0  0  0
 79150  1  0  0  0
 79151  1  0  0  0
 80 81  1  0  0  0
 80152  1  0  0  0
 81153  1  0  0  0
 81154  1  0  0  0
 83155  1  0  0  0
M  ISO  4   1 100  68 101  81 101  83 100
M  END
> <chiral flag>
0

> <version>
0

> <s_m_source_file>
/data/baiqing/PycharmProjects/Reinvent-master-3.2/result/LINK_invent/BTK/process_docking_weight1_custom_product_contain_oxygen_bond_distance_aromatic_linkinvent_7_9_3/rearranged_h_0027.sdf

> <i_m_source_file_index>
68

> <r_mmod_Potential_Energy-OPLS-2005>
77.1957092285156

> <r_mmod_Stretch_Energy-OPLS-2005>
77.9300765991211

> <r_mmod_Bend_Energy-OPLS-2005>
163.4208984375

> <r_mmod_Torsional_Energy-OPLS-2005>
257.959747314453

> <r_mmod_Improper_Torsional_Energy-OPLS-2005>
4.53385448455811

> <r_mmod_Van_der_Waal_Energy-OPLS-2005>
149.647888183594

> <r_mmod_Electrostatic_Energy-OPLS-2005>
-410.917633056641

> <r_mmod_Solvation_Energy-OPLS-2005>
-213.570922851562

> <b_mmod_Minimization_Converged-OPLS-2005>
0

> <r_mmod_RMS_Derivative-OPLS-2005>
0.817499816417694

$$$$
69
                    3D
 Structure written by MMmdl.
153162  0  0  1  0            999 V2000
  -30.5076  -15.0516   20.4097 C   0  0  0  0  0  0
  -30.4518  -12.6572   19.5069 C   0  0  0  0  0  0
  -29.5293  -12.5505   18.2676 C   0  0  0  0  0  0
  -28.0662  -12.3138   18.6879 C   0  0  0  0  0  0
  -27.6244  -13.2529   19.8394 C   0  0  2  0  0  0
  -28.6730  -13.3203   20.9739 C   0  0  0  0  0  0
  -25.2233  -13.7940   20.5568 C   0  0  0  0  0  0
  -24.1661  -13.0205   20.9264 C   0  0  0  0  0  0
  -24.6398  -11.6763   20.8817 C   0  0  0  0  0  0
  -23.9093  -10.4169   21.0437 C   0  0  0  0  0  0
  -24.3629   -9.4098   21.9218 C   0  0  0  0  0  0
  -23.6276   -8.2159   22.0771 C   0  0  0  0  0  0
  -22.4260   -8.0232   21.3549 C   0  0  0  0  0  0
  -21.9912   -9.0208   20.4648 C   0  0  0  0  0  0
  -22.7270  -10.2061   20.3066 C   0  0  0  0  0  0
  -21.6829   -6.0714   22.5283 C   0  0  0  0  0  0
  -21.3999   -6.5625   23.8214 C   0  0  0  0  0  0
  -21.3653   -5.6783   24.9179 C   0  0  0  0  0  0
  -21.6044   -4.3047   24.7232 C   0  0  0  0  0  0
  -21.8821   -3.8134   23.4354 C   0  0  0  0  0  0
  -21.9186   -4.6946   22.3408 C   0  0  0  0  0  0
  -22.7692  -13.5023   21.1906 C   0  0  0  0  0  0
  -22.1658   -4.2136   21.0985 F   0  0  0  0  0  0
  -21.5631   -3.4532   25.7745 F   0  0  0  0  0  0
  -29.9433  -13.7647   20.3736 N   0  0  0  0  0  0
  -26.2840  -12.9353   20.3262 N   0  0  0  0  0  0
  -25.9361  -11.6475   20.5832 N   0  0  0  0  0  0
  -22.0356  -12.8062   22.0505 N   0  0  0  0  0  0
  -25.3361  -15.1538   20.3617 N   0  0  0  0  0  0
  -31.7120  -15.1311   20.1416 O   0  0  0  0  0  0
  -21.6605   -6.8851   21.4245 O   0  0  0  0  0  0
  -22.3382  -14.5338   20.6750 O   0  0  0  0  0  0
  -24.6463  -31.8391   23.1820 C   0  0  0  0  0  0
  -25.9214  -32.4672   23.8236 C   0  0  1  0  0  0
  -27.2434  -27.1063   20.1706 C   0  0  0  0  0  0
  -25.5943  -33.8478   24.2155 N   0  0  0  0  0  0
  -23.4537  -30.4519   21.5281 C   0  0  2  0  0  0
  -24.9087  -28.8603   20.1200 C   0  0  0  0  0  0
  -22.7584  -29.4515   22.4854 C   0  0  0  0  0  0
  -18.0307  -28.1398   22.8475 C   0  0  0  0  0  0
  -24.1490  -36.7247   23.2645 C   0  0  0  0  0  0
  -26.0096  -30.7048   21.3827 C   0  0  0  0  0  0
  -26.0858  -29.3084   20.7325 C   0  0  0  0  0  0
  -27.2532  -28.4516   20.7301 C   0  0  0  0  0  0
  -26.0341  -26.7519   19.5359 C   0  0  0  0  0  0
  -24.8966  -27.5957   19.5059 C   0  0  0  0  0  0
  -23.6849  -29.7669   20.1533 C   0  0  0  0  0  0
  -25.4125  -36.3018   24.0312 C   0  0  1  0  0  0
  -20.5919  -28.3725   23.1233 C   0  0  2  0  0  0
  -20.6788  -26.9425   22.5407 C   0  0  0  0  0  0
  -19.5763  -26.6381   21.5214 C   0  0  0  0  0  0
  -18.1945  -26.7936   22.1623 C   0  0  0  0  0  0
  -19.1563  -28.8881   23.2844 C   0  0  0  0  0  0
  -18.9478  -30.1477   23.8871 C   0  0  0  0  0  0
  -17.6474  -30.6593   24.0559 C   0  0  0  0  0  0
  -25.9076  -34.9395   23.5049 C   0  0  0  0  0  0
  -16.5366  -29.9085   23.6336 C   0  0  0  0  0  0
  -16.7291  -28.6504   23.0357 C   0  0  0  0  0  0
  -26.4526  -31.6556   25.0694 C   0  0  0  0  0  0
  -25.3703  -31.3752   26.1385 C   0  0  0  0  0  0
  -27.0401  -30.2951   24.6294 C   0  0  0  0  0  0
  -27.6046  -32.4332   25.7487 C   0  0  0  0  0  0
  -27.5574  -37.1779   24.8466 C   0  0  0  0  0  0
  -21.4272  -29.3042   22.3602 N   0  0  0  0  0  0
  -26.4284  -37.3736   23.9408 N   0  0  0  0  0  0
  -24.7232  -31.0212   22.0866 N   0  0  0  0  0  0
  -23.4205  -28.8083   23.3038 O   0  0  0  0  0  0
  -28.3371  -26.1552   20.1696 O   0  0  0  0  0  0
  -26.5673  -34.8904   22.4636 O   0  0  0  0  0  0
  -23.5572  -32.1276   23.7020 O   0  0  0  0  0  0
  -30.4242  -20.2414   20.5373 C   0  0  0  0  0  0
  -30.6500  -18.7801   20.5498 C   0  0  0  0  0  0
  -28.1748  -19.9277   20.2539 C   0  0  0  0  0  0
  -28.3566  -18.4796   20.3010 C   0  0  0  0  0  0
  -29.1623  -20.9554   20.3940 C   0  0  0  0  0  0
  -29.6161  -17.7742   20.4479 C   0  0  0  0  0  0
  -29.5378  -23.7064   20.8469 C   0  0  0  0  0  0
  -27.8885  -23.3389   19.6407 C   0  0  0  0  0  0
  -28.2421  -24.6258   20.5446 C   0  0  0  0  0  0
  -27.0970  -17.6474   20.2497 C   0  0  0  0  0  0
  -28.7887  -22.4685   20.4730 N   0  0  0  0  0  0
  -29.6609  -16.2032   20.5599 N   0  0  0  0  0  0
  -25.9747  -18.3499   20.0839 F   0  0  0  0  0  0
  -27.1971  -16.7760   19.2452 F   0  0  0  0  0  0
  -27.0223  -16.9973   21.4104 F   0  0  0  0  0  0
  -31.4792  -12.8376   19.1871 H   0  0  0  0  0  0
  -30.4731  -11.7155   20.0579 H   0  0  0  0  0  0
  -29.8656  -11.7462   17.6120 H   0  0  0  0  0  0
  -29.5966  -13.4701   17.6841 H   0  0  0  0  0  0
  -27.9816  -11.2754   19.0105 H   0  0  0  0  0  0
  -27.4008  -12.4219   17.8306 H   0  0  0  0  0  0
  -27.5679  -14.2459   19.3955 H   0  0  0  0  0  0
  -28.7849  -12.3521   21.4640 H   0  0  0  0  0  0
  -28.3532  -14.0203   21.7475 H   0  0  0  0  0  0
  -25.2768   -9.5563   22.4806 H   0  0  0  0  0  0
  -23.9960   -7.4540   22.7493 H   0  0  0  0  0  0
  -21.0841   -8.8748   19.8952 H   0  0  0  0  0  0
  -22.3756  -10.9616   19.6178 H   0  0  0  0  0  0
  -21.1987   -7.6133   23.9714 H   0  0  0  0  0  0
  -21.1477   -6.0514   25.9082 H   0  0  0  0  0  0
  -22.0608   -2.7597   23.2858 H   0  0  0  0  0  0
  -22.3980  -11.9734   22.4904 H   0  0  0  0  0  0
  -21.0989  -13.1111   22.2732 H   0  0  0  0  0  0
  -24.5423  -15.7736   20.4671 H   0  0  0  0  0  0
  -26.1412  -15.6107   19.9518 H   0  0  0  0  0  0
  -26.7283  -32.5275   23.0967 H   0  0  0  0  0  0
  -25.0054  -33.9582   25.0278 H   0  0  0  0  0  0
  -22.7582  -31.2777   21.3641 H   0  0  0  0  0  0
  -23.3757  -35.9574   23.3291 H   0  0  0  0  0  0
  -24.3573  -36.8899   22.2062 H   0  0  0  0  0  0
  -23.7242  -37.6436   23.6698 H   0  0  0  0  0  0
  -26.1632  -31.4539   20.6049 H   0  0  0  0  0  0
  -26.8798  -30.7633   22.0248 H   0  0  0  0  0  0
  -28.1569  -28.8013   21.2091 H   0  0  0  0  0  0
  -25.9600  -25.7823   19.0644 H   0  0  0  0  0  0
  -23.9978  -27.2449   19.0175 H   0  0  0  0  0  0
  -23.8249  -30.5342   19.3910 H   0  0  0  0  0  0
  -22.8002  -29.2073   19.8445 H   0  0  0  0  0  0
  -25.1316  -36.1838   25.0804 H   0  0  0  0  0  0
  -21.0007  -28.3318   24.1356 H   0  0  0  0  0  0
  -20.5676  -26.2341   23.3630 H   0  0  0  0  0  0
  -21.6655  -26.7424   22.1210 H   0  0  0  0  0  0
  -19.6924  -25.6285   21.1261 H   0  0  0  0  0  0
  -19.6701  -27.3177   20.6733 H   0  0  0  0  0  0
  -17.4214  -26.6680   21.4028 H   0  0  0  0  0  0
  -18.0343  -26.0084   22.9026 H   0  0  0  0  0  0
  -19.7954  -30.7300   24.2230 H   0  0  0  0  0  0
  -17.5026  -31.6270   24.5166 H   0  0  0  0  0  0
  -15.5364  -30.2978   23.7675 H   0  0  0  0  0  0
  -15.8692  -28.0814   22.7085 H   0  0  0  0  0  0
  -24.5889  -30.7094   25.7703 H   0  0  0  0  0  0
  -24.8885  -32.2936   26.4749 H   0  0  0  0  0  0
  -25.7979  -30.8964   27.0204 H   0  0  0  0  0  0
  -26.3025  -29.6662   24.1296 H   0  0  0  0  0  0
  -27.4004  -29.7265   25.4877 H   0  0  0  0  0  0
  -27.8932  -30.4186   23.9620 H   0  0  0  0  0  0
  -27.2631  -33.3655   26.1998 H   0  0  0  0  0  0
  -28.3893  -32.6858   25.0343 H   0  0  0  0  0  0
  -28.0675  -31.8502   26.5460 H   0  0  0  0  0  0
  -28.2583  -38.0083   24.7509 H   0  0  0  0  0  0
  -28.1077  -36.2611   24.6296 H   0  0  0  0  0  0
  -27.2291  -37.1430   25.8868 H   0  0  0  0  0  0
  -20.9499  -29.8736   21.6753 H   0  0  0  0  0  0
  -26.0147  -38.2802   24.1410 H   0  0  0  0  0  0
  -31.3041  -20.8554   20.6677 H   0  0  0  0  0  0
  -31.6661  -18.4371   20.6841 H   0  0  0  0  0  0
  -27.1636  -20.2909   20.1587 H   0  0  0  0  0  0
  -29.8553  -23.7303   21.8901 H   0  0  0  0  0  0
  -30.3748  -23.9006   20.1739 H   0  0  0  0  0  0
  -28.2358  -23.4231   18.6094 H   0  0  0  0  0  0
  -26.8366  -23.0538   19.6827 H   0  0  0  0  0  0
  -27.5991  -24.5927   21.4260 H   0  0  0  0  0  0
  -28.7275  -15.8509   20.7143 H   0  0  0  0  0  0
  1 25  1  0  0  0
  1 30  2  0  0  0
  1 82  1  0  0  0
  2  3  1  0  0  0
  2 25  1  0  0  0
  2 86  1  0  0  0
  2 87  1  0  0  0
  3  4  1  0  0  0
  3 88  1  0  0  0
  3 89  1  0  0  0
  4  5  1  0  0  0
  4 90  1  0  0  0
  4 91  1  0  0  0
  5  6  1  0  0  0
  5 26  1  0  0  0
  5 92  1  0  0  0
  6 25  1  0  0  0
  6 93  1  0  0  0
  6 94  1  0  0  0
  7  8  2  0  0  0
  7 26  1  0  0  0
  7 29  1  0  0  0
  8  9  1  0  0  0
  8 22  1  0  0  0
  9 10  1  0  0  0
  9 27  2  0  0  0
 10 11  2  0  0  0
 10 15  1  0  0  0
 11 12  1  0  0  0
 11 95  1  0  0  0
 12 13  2  0  0  0
 12 96  1  0  0  0
 13 14  1  0  0  0
 13 31  1  0  0  0
 14 15  2  0  0  0
 14 97  1  0  0  0
 15 98  1  0  0  0
 16 17  2  0  0  0
 16 21  1  0  0  0
 16 31  1  0  0  0
 17 18  1  0  0  0
 17 99  1  0  0  0
 18 19  2  0  0  0
 18100  1  0  0  0
 19 20  1  0  0  0
 19 24  1  0  0  0
 20 21  2  0  0  0
 20101  1  0  0  0
 21 23  1  0  0  0
 22 28  1  0  0  0
 22 32  2  0  0  0
 26 27  1  0  0  0
 28102  1  0  0  0
 28103  1  0  0  0
 29104  1  0  0  0
 29105  1  0  0  0
 33 34  1  0  0  0
 33 66  1  0  0  0
 33 70  2  0  0  0
 34 36  1  0  0  0
 34 59  1  0  0  0
 34106  1  0  0  0
 35 44  2  0  0  0
 35 45  1  0  0  0
 35 68  1  0  0  0
 36 56  1  0  0  0
 36107  1  0  0  0
 37 39  1  0  0  0
 37 47  1  0  0  0
 37 66  1  0  0  0
 37108  1  0  0  0
 38 43  2  0  0  0
 38 46  1  0  0  0
 38 47  1  0  0  0
 39 64  1  0  0  0
 39 67  2  0  0  0
 40 52  1  0  0  0
 40 53  2  0  0  0
 40 58  1  0  0  0
 41109  1  0  0  0
 41110  1  0  0  0
 41111  1  0  0  0
 41 48  1  0  0  0
 42 43  1  0  0  0
 42 66  1  0  0  0
 42112  1  0  0  0
 42113  1  0  0  0
 43 44  1  0  0  0
 44114  1  0  0  0
 45 46  2  0  0  0
 45115  1  0  0  0
 46116  1  0  0  0
 47117  1  0  0  0
 47118  1  0  0  0
 48 56  1  0  0  0
 48 65  1  0  0  0
 48119  1  0  0  0
 49 50  1  0  0  0
 49 53  1  0  0  0
 49 64  1  0  0  0
 49120  1  0  0  0
 50 51  1  0  0  0
 50121  1  0  0  0
 50122  1  0  0  0
 51 52  1  0  0  0
 51123  1  0  0  0
 51124  1  0  0  0
 52125  1  0  0  0
 52126  1  0  0  0
 53 54  1  0  0  0
 54 55  2  0  0  0
 54127  1  0  0  0
 55 57  1  0  0  0
 55128  1  0  0  0
 56 69  2  0  0  0
 57 58  2  0  0  0
 57129  1  0  0  0
 58130  1  0  0  0
 59 60  1  0  0  0
 59 61  1  0  0  0
 59 62  1  0  0  0
 60131  1  0  0  0
 60132  1  0  0  0
 60133  1  0  0  0
 61134  1  0  0  0
 61135  1  0  0  0
 61136  1  0  0  0
 62137  1  0  0  0
 62138  1  0  0  0
 62139  1  0  0  0
 63 65  1  0  0  0
 63140  1  0  0  0
 63141  1  0  0  0
 63142  1  0  0  0
 64143  1  0  0  0
 65144  1  0  0  0
 68 79  1  0  0  0
 71 72  2  0  0  0
 71 75  1  0  0  0
 71145  1  0  0  0
 72 76  1  0  0  0
 72146  1  0  0  0
 73 74  1  0  0  0
 73 75  2  0  0  0
 73147  1  0  0  0
 74 76  2  0  0  0
 74 80  1  0  0  0
 75 81  1  0  0  0
 76 82  1  0  0  0
 77 79  1  0  0  0
 77 81  1  0  0  0
 77148  1  0  0  0
 77149  1  0  0  0
 78 79  1  0  0  0
 78 81  1  0  0  0
 78150  1  0  0  0
 78151  1  0  0  0
 79152  1  0  0  0
 80 83  1  0  0  0
 80 84  1  0  0  0
 80 85  1  0  0  0
 82153  1  0  0  0
M  ISO  4   1 100  68 101  79 101  82 100
M  END
> <chiral flag>
0

> <version>
0

> <s_m_source_file>
/data/baiqing/PycharmProjects/Reinvent-master-3.2/result/LINK_invent/BTK/process_docking_weight1_custom_product_contain_oxygen_bond_distance_aromatic_linkinvent_7_9_3/rearranged_h_0027.sdf

> <i_m_source_file_index>
69

> <r_mmod_Potential_Energy-OPLS-2005>
750.313598632812

> <r_mmod_Stretch_Energy-OPLS-2005>
271.159606933594

> <r_mmod_Bend_Energy-OPLS-2005>
407.069274902344

> <r_mmod_Torsional_Energy-OPLS-2005>
245.514190673828

> <r_mmod_Improper_Torsional_Energy-OPLS-2005>
7.93597364425659

> <r_mmod_Van_der_Waal_Energy-OPLS-2005>
140.924697875977

> <r_mmod_Electrostatic_Energy-OPLS-2005>
-349.928161621094

> <r_mmod_Solvation_Energy-OPLS-2005>
-214.024642944336

> <b_mmod_Minimization_Converged-OPLS-2005>
0

> <r_mmod_RMS_Derivative-OPLS-2005>
0.235582932829857

$$$$
70
                    3D
 Structure written by MMmdl.
171181  0  0  1  0            999 V2000
  -30.7852  -14.4507   20.4787 C   0  0  0  0  0  0
  -30.4032  -12.2733   19.4271 C   0  0  0  0  0  0
  -29.4853  -12.4711   18.2060 C   0  0  0  0  0  0
  -28.0142  -12.3498   18.6281 C   0  0  0  0  0  0
  -27.6664  -13.2175   19.8714 C   0  0  2  0  0  0
  -28.7234  -13.0645   20.9972 C   0  0  0  0  0  0
  -25.2626  -13.8193   20.5722 C   0  0  0  0  0  0
  -24.1884  -13.0469   20.9211 C   0  0  0  0  0  0
  -24.6449  -11.6929   20.8788 C   0  0  0  0  0  0
  -23.9101  -10.4295   21.0417 C   0  0  0  0  0  0
  -24.3648   -9.4208   21.9186 C   0  0  0  0  0  0
  -23.6310   -8.2262   22.0763 C   0  0  0  0  0  0
  -22.4298   -8.0304   21.3553 C   0  0  0  0  0  0
  -21.9943   -9.0275   20.4664 C   0  0  0  0  0  0
  -22.7279  -10.2150   20.3054 C   0  0  0  0  0  0
  -21.6861   -6.0745   22.5278 C   0  0  0  0  0  0
  -21.4017   -6.5644   23.8210 C   0  0  0  0  0  0
  -21.3664   -5.6797   24.9172 C   0  0  0  0  0  0
  -21.6044   -4.3060   24.7221 C   0  0  0  0  0  0
  -21.8820   -3.8155   23.4346 C   0  0  0  0  0  0
  -21.9194   -4.6972   22.3400 C   0  0  0  0  0  0
  -22.7910  -13.5264   21.1857 C   0  0  0  0  0  0
  -22.1668   -4.2163   21.0975 F   0  0  0  0  0  0
  -21.5628   -3.4538   25.7730 F   0  0  0  0  0  0
  -30.0469  -13.3080   20.4114 N   0  0  0  0  0  0
  -26.3081  -12.9394   20.3428 N   0  0  0  0  0  0
  -25.9385  -11.6546   20.5873 N   0  0  0  0  0  0
  -22.0533  -12.8210   22.0387 N   0  0  0  0  0  0
  -25.4284  -15.1918   20.4131 N   0  0  0  0  0  0
  -31.9659  -14.4861   20.1390 O   0  0  0  0  0  0
  -21.6661   -6.8905   21.4253 O   0  0  0  0  0  0
  -22.3572  -14.5553   20.6725 O   0  0  0  0  0  0
  -24.6142  -31.8740   23.2118 C   0  0  0  0  0  0
  -25.9103  -32.4853   23.8229 C   0  0  1  0  0  0
  -27.1169  -27.3690   20.0029 C   0  0  0  0  0  0
  -25.6020  -33.8658   24.2158 N   0  0  0  0  0  0
  -23.3903  -30.5085   21.5861 C   0  0  2  0  0  0
  -24.7960  -29.0104   20.0778 C   0  0  0  0  0  0
  -22.7327  -29.4734   22.5198 C   0  0  0  0  0  0
  -18.0250  -28.1481   22.8505 C   0  0  0  0  0  0
  -24.1550  -36.7308   23.2610 C   0  0  0  0  0  0
  -25.9369  -30.7954   21.3830 C   0  0  0  0  0  0
  -25.9856  -29.4510   20.6767 C   0  0  0  0  0  0
  -27.1548  -28.6403   20.6440 C   0  0  0  0  0  0
  -25.9177  -27.0170   19.3417 C   0  0  0  0  0  0
  -24.7566  -27.7825   19.4102 C   0  0  0  0  0  0
  -23.5721  -29.8873   20.1839 C   0  0  0  0  0  0
  -25.4204  -36.3115   24.0237 C   0  0  1  0  0  0
  -20.5823  -28.3665   23.1434 C   0  0  2  0  0  0
  -20.6827  -26.9468   22.5455 C   0  0  0  0  0  0
  -19.5827  -26.6479   21.5249 C   0  0  0  0  0  0
  -18.1982  -26.8005   22.1651 C   0  0  0  0  0  0
  -19.1498  -28.8916   23.2950 C   0  0  0  0  0  0
  -18.9403  -30.1554   23.8907 C   0  0  0  0  0  0
  -17.6403  -30.6661   24.0629 C   0  0  0  0  0  0
  -25.9182  -34.9531   23.4957 C   0  0  0  0  0  0
  -16.5303  -29.9163   23.6421 C   0  0  0  0  0  0
  -16.7233  -28.6648   23.0313 C   0  0  0  0  0  0
  -26.4510  -31.6620   25.0559 C   0  0  0  0  0  0
  -25.3575  -31.3747   26.1086 C   0  0  0  0  0  0
  -27.0317  -30.3008   24.6039 C   0  0  0  0  0  0
  -27.6118  -32.4266   25.7267 C   0  0  0  0  0  0
  -27.5657  -37.1784   24.8462 C   0  0  0  0  0  0
  -21.4100  -29.2940   22.3783 N   0  0  0  0  0  0
  -26.4431  -37.3770   23.9337 N   0  0  0  0  0  0
  -24.6697  -31.0634   22.1176 N   0  0  0  0  0  0
  -23.4103  -28.8342   23.3330 O   0  0  0  0  0  0
  -28.2015  -26.5011   19.9826 O   0  0  0  0  0  0
  -26.5754  -34.8997   22.4562 O   0  0  0  0  0  0
  -23.5325  -32.1795   23.7367 O   0  0  0  0  0  0
  -29.7032  -19.1939   19.8403 C   0  0  0  0  0  0
  -31.5603  -19.9565   21.7963 C   0  0  0  0  0  0
  -29.8830  -20.5748   20.1173 C   0  0  0  0  0  0
  -30.5074  -18.2028   20.4507 C   0  0  0  0  0  0
  -30.8886  -20.9631   21.0551 C   0  0  0  0  0  0
  -31.4057  -18.5856   21.4730 C   0  0  0  0  0  0
  -31.8933  -23.1365   20.3071 C   0  0  0  0  0  0
  -27.9355  -22.9905   21.0699 C   0  0  0  0  0  0
  -32.2884  -22.8203   19.0601 C   0  0  0  0  0  0
  -32.0968  -24.4996   20.9189 C   0  0  0  0  0  0
  -27.7100  -24.4756   21.3645 C   0  0  0  0  0  0
  -31.5773  -24.3957   22.3535 C   0  0  0  0  0  0
  -31.2641  -22.9039   22.5602 C   0  0  0  0  0  0
  -28.7671  -24.1032   19.1911 C   0  0  0  0  0  0
  -27.8584  -25.0706   19.9637 C   0  0  2  0  0  0
  -29.0235  -21.5651   19.3033 C   0  0  0  0  0  0
  -30.5426  -16.7947   19.8279 C   0  0  0  0  0  0
  -31.2998  -22.3040   21.2325 N   0  0  0  0  0  0
  -28.6402  -22.8415   19.9359 N   0  0  0  0  0  0
  -30.1041  -15.6072   20.5932 N   0  0  0  0  0  0
  -27.4632  -22.0790   21.7516 O   0  0  0  0  0  0
  -32.1876  -17.6578   22.0945 F   0  0  0  0  0  0
  -31.4466  -12.3110   19.1097 H   0  0  0  0  0  0
  -30.2677  -11.2736   19.8456 H   0  0  0  0  0  0
  -29.7142  -11.7429   17.4255 H   0  0  0  0  0  0
  -29.6627  -13.4491   17.7612 H   0  0  0  0  0  0
  -27.8309  -11.3006   18.8568 H   0  0  0  0  0  0
  -27.3523  -12.6022   17.7985 H   0  0  0  0  0  0
  -27.6881  -14.2546   19.5344 H   0  0  0  0  0  0
  -28.6950  -12.0641   21.4391 H   0  0  0  0  0  0
  -28.5344  -13.7659   21.8122 H   0  0  0  0  0  0
  -25.2795   -9.5694   22.4764 H   0  0  0  0  0  0
  -24.0017   -7.4662   22.7491 H   0  0  0  0  0  0
  -21.0865   -8.8814   19.8968 H   0  0  0  0  0  0
  -22.3741  -10.9704   19.6166 H   0  0  0  0  0  0
  -21.2013   -7.6155   23.9721 H   0  0  0  0  0  0
  -21.1482   -6.0524   25.9078 H   0  0  0  0  0  0
  -22.0594   -2.7618   23.2833 H   0  0  0  0  0  0
  -22.4172  -11.9853   22.4717 H   0  0  0  0  0  0
  -21.1170  -13.1270   22.2636 H   0  0  0  0  0  0
  -24.6607  -15.8426   20.5362 H   0  0  0  0  0  0
  -26.2702  -15.6413   20.0771 H   0  0  0  0  0  0
  -26.7100  -32.5504   23.0879 H   0  0  0  0  0  0
  -24.9916  -33.9812   25.0065 H   0  0  0  0  0  0
  -22.6861  -31.3338   21.4809 H   0  0  0  0  0  0
  -23.3863  -35.9611   23.3311 H   0  0  0  0  0  0
  -24.3600  -36.8929   22.2042 H   0  0  0  0  0  0
  -23.7352  -37.6512   23.6640 H   0  0  0  0  0  0
  -26.0815  -31.5845   20.6465 H   0  0  0  0  0  0
  -26.8120  -30.7989   22.0242 H   0  0  0  0  0  0
  -28.0732  -28.9729   21.1049 H   0  0  0  0  0  0
  -25.7924  -26.1624   18.6946 H   0  0  0  0  0  0
  -23.8604  -27.4466   18.9081 H   0  0  0  0  0  0
  -23.6407  -30.6964   19.4521 H   0  0  0  0  0  0
  -22.6919  -29.3006   19.9147 H   0  0  0  0  0  0
  -25.1433  -36.1964   25.0741 H   0  0  0  0  0  0
  -20.9796  -28.3224   24.1596 H   0  0  0  0  0  0
  -20.5946  -26.2223   23.3581 H   0  0  0  0  0  0
  -21.6714  -26.7784   22.1137 H   0  0  0  0  0  0
  -19.7011  -25.6387   21.1329 H   0  0  0  0  0  0
  -19.6831  -27.3324   20.6822 H   0  0  0  0  0  0
  -17.4262  -26.6751   21.4043 H   0  0  0  0  0  0
  -18.0365  -26.0197   22.9119 H   0  0  0  0  0  0
  -19.7865  -30.7428   24.2224 H   0  0  0  0  0  0
  -17.4957  -31.6337   24.5236 H   0  0  0  0  0  0
  -15.5324  -30.3052   23.7742 H   0  0  0  0  0  0
  -15.8644  -28.1020   22.6861 H   0  0  0  0  0  0
  -24.5763  -30.7250   25.7106 H   0  0  0  0  0  0
  -24.8794  -32.2941   26.4445 H   0  0  0  0  0  0
  -25.7615  -30.8765   26.9868 H   0  0  0  0  0  0
  -26.2936  -29.6763   24.0982 H   0  0  0  0  0  0
  -27.3903  -29.7297   25.4606 H   0  0  0  0  0  0
  -27.8843  -30.4256   23.9352 H   0  0  0  0  0  0
  -27.2855  -33.3558   26.1876 H   0  0  0  0  0  0
  -28.3836  -32.6783   24.9990 H   0  0  0  0  0  0
  -28.0830  -31.8338   26.5094 H   0  0  0  0  0  0
  -28.2707  -38.0060   24.7548 H   0  0  0  0  0  0
  -28.1156  -36.2623   24.6282 H   0  0  0  0  0  0
  -27.2330  -37.1375   25.8852 H   0  0  0  0  0  0
  -20.9172  -29.8473   21.6902 H   0  0  0  0  0  0
  -26.0343  -38.2859   24.1300 H   0  0  0  0  0  0
  -28.9976  -18.8862   19.0840 H   0  0  0  0  0  0
  -32.2638  -20.2317   22.5664 H   0  0  0  0  0  0
  -32.7693  -23.5523   18.4249 H   0  0  0  0  0  0
  -32.1364  -21.8360   18.6502 H   0  0  0  0  0  0
  -31.5673  -25.2760   20.3690 H   0  0  0  0  0  0
  -33.1622  -24.7273   20.8832 H   0  0  0  0  0  0
  -28.4661  -24.8420   22.0593 H   0  0  0  0  0  0
  -26.7209  -24.6862   21.7711 H   0  0  0  0  0  0
  -30.6674  -24.9784   22.4967 H   0  0  0  0  0  0
  -32.3131  -24.7940   23.0508 H   0  0  0  0  0  0
  -30.2869  -22.7701   23.0187 H   0  0  0  0  0  0
  -31.9996  -22.4496   23.2166 H   0  0  0  0  0  0
  -29.8006  -24.4424   19.1282 H   0  0  0  0  0  0
  -28.3831  -23.9855   18.1709 H   0  0  0  0  0  0
  -26.9141  -24.8125   19.4947 H   0  0  0  0  0  0
  -28.1018  -21.0572   19.0152 H   0  0  0  0  0  0
  -29.5676  -21.7792   18.3791 H   0  0  0  0  0  0
  -31.5754  -16.6919   19.4900 H   0  0  0  0  0  0
  -29.9693  -16.7797   18.8980 H   0  0  0  0  0  0
  -29.1211  -15.5287   20.8028 H   0  0  0  0  0  0
  1 25  1  0  0  0
  1 30  2  0  0  0
  1 90  1  0  0  0
  2  3  1  0  0  0
  2 25  1  0  0  0
  2 93  1  0  0  0
  2 94  1  0  0  0
  3  4  1  0  0  0
  3 95  1  0  0  0
  3 96  1  0  0  0
  4  5  1  0  0  0
  4 97  1  0  0  0
  4 98  1  0  0  0
  5  6  1  0  0  0
  5 26  1  0  0  0
  5 99  1  0  0  0
  6 25  1  0  0  0
  6100  1  0  0  0
  6101  1  0  0  0
  7  8  2  0  0  0
  7 26  1  0  0  0
  7 29  1  0  0  0
  8  9  1  0  0  0
  8 22  1  0  0  0
  9 10  1  0  0  0
  9 27  2  0  0  0
 10 11  2  0  0  0
 10 15  1  0  0  0
 11 12  1  0  0  0
 11102  1  0  0  0
 12 13  2  0  0  0
 12103  1  0  0  0
 13 14  1  0  0  0
 13 31  1  0  0  0
 14 15  2  0  0  0
 14104  1  0  0  0
 15105  1  0  0  0
 16 17  2  0  0  0
 16 21  1  0  0  0
 16 31  1  0  0  0
 17 18  1  0  0  0
 17106  1  0  0  0
 18 19  2  0  0  0
 18107  1  0  0  0
 19 20  1  0  0  0
 19 24  1  0  0  0
 20 21  2  0  0  0
 20108  1  0  0  0
 21 23  1  0  0  0
 22 28  1  0  0  0
 22 32  2  0  0  0
 26 27  1  0  0  0
 28109  1  0  0  0
 28110  1  0  0  0
 29111  1  0  0  0
 29112  1  0  0  0
 33 34  1  0  0  0
 33 66  1  0  0  0
 33 70  2  0  0  0
 34 36  1  0  0  0
 34 59  1  0  0  0
 34113  1  0  0  0
 35 44  2  0  0  0
 35 45  1  0  0  0
 35 68  1  0  0  0
 36 56  1  0  0  0
 36114  1  0  0  0
 37 39  1  0  0  0
 37 47  1  0  0  0
 37 66  1  0  0  0
 37115  1  0  0  0
 38 43  2  0  0  0
 38 46  1  0  0  0
 38 47  1  0  0  0
 39 64  1  0  0  0
 39 67  2  0  0  0
 40 52  1  0  0  0
 40 53  2  0  0  0
 40 58  1  0  0  0
 41116  1  0  0  0
 41117  1  0  0  0
 41118  1  0  0  0
 41 48  1  0  0  0
 42 43  1  0  0  0
 42 66  1  0  0  0
 42119  1  0  0  0
 42120  1  0  0  0
 43 44  1  0  0  0
 44121  1  0  0  0
 45 46  2  0  0  0
 45122  1  0  0  0
 46123  1  0  0  0
 47124  1  0  0  0
 47125  1  0  0  0
 48 56  1  0  0  0
 48 65  1  0  0  0
 48126  1  0  0  0
 49 50  1  0  0  0
 49 53  1  0  0  0
 49 64  1  0  0  0
 49127  1  0  0  0
 50 51  1  0  0  0
 50128  1  0  0  0
 50129  1  0  0  0
 51 52  1  0  0  0
 51130  1  0  0  0
 51131  1  0  0  0
 52132  1  0  0  0
 52133  1  0  0  0
 53 54  1  0  0  0
 54 55  2  0  0  0
 54134  1  0  0  0
 55 57  1  0  0  0
 55135  1  0  0  0
 56 69  2  0  0  0
 57 58  2  0  0  0
 57136  1  0  0  0
 58137  1  0  0  0
 59 60  1  0  0  0
 59 61  1  0  0  0
 59 62  1  0  0  0
 60138  1  0  0  0
 60139  1  0  0  0
 60140  1  0  0  0
 61141  1  0  0  0
 61142  1  0  0  0
 61143  1  0  0  0
 62144  1  0  0  0
 62145  1  0  0  0
 62146  1  0  0  0
 63 65  1  0  0  0
 63147  1  0  0  0
 63148  1  0  0  0
 63149  1  0  0  0
 64150  1  0  0  0
 65151  1  0  0  0
 68 85  1  0  0  0
 71 73  2  0  0  0
 71 74  1  0  0  0
 71152  1  0  0  0
 72 75  2  0  0  0
 72 76  1  0  0  0
 72153  1  0  0  0
 73 75  1  0  0  0
 73 86  1  0  0  0
 74 76  2  0  0  0
 74 87  1  0  0  0
 75 88  1  0  0  0
 76 92  1  0  0  0
 77 79  2  0  0  0
 77 80  1  0  0  0
 77 88  1  0  0  0
 78 81  1  0  0  0
 78 89  1  0  0  0
 78 91  2  0  0  0
 79154  1  0  0  0
 79155  1  0  0  0
 80 82  1  0  0  0
 80156  1  0  0  0
 80157  1  0  0  0
 81 85  1  0  0  0
 81158  1  0  0  0
 81159  1  0  0  0
 82 83  1  0  0  0
 82160  1  0  0  0
 82161  1  0  0  0
 83 88  1  0  0  0
 83162  1  0  0  0
 83163  1  0  0  0
 84 85  1  0  0  0
 84 89  1  0  0  0
 84164  1  0  0  0
 84165  1  0  0  0
 85166  1  0  0  0
 86 89  1  0  0  0
 86167  1  0  0  0
 86168  1  0  0  0
 87 90  1  0  0  0
 87169  1  0  0  0
 87170  1  0  0  0
 90171  1  0  0  0
M  ISO  4   1 100  68 101  85 101  90 100
M  END
> <chiral flag>
0

> <version>
0

> <s_m_source_file>
/data/baiqing/PycharmProjects/Reinvent-master-3.2/result/LINK_invent/BTK/process_docking_weight1_custom_product_contain_oxygen_bond_distance_aromatic_linkinvent_7_9_3/rearranged_h_0027.sdf

> <i_m_source_file_index>
70

> <r_mmod_Potential_Energy-OPLS-2005>
97.6091842651367

> <r_mmod_Stretch_Energy-OPLS-2005>
48.0248031616211

> <r_mmod_Bend_Energy-OPLS-2005>
191.202697753906

> <r_mmod_Torsional_Energy-OPLS-2005>
315.471893310547

> <r_mmod_Improper_Torsional_Energy-OPLS-2005>
13.549861907959

> <r_mmod_Van_der_Waal_Energy-OPLS-2005>
154.907775878906

> <r_mmod_Electrostatic_Energy-OPLS-2005>
-445.707580566406

> <r_mmod_Solvation_Energy-OPLS-2005>
-231.867538452148

> <b_mmod_Minimization_Converged-OPLS-2005>
0

> <r_mmod_RMS_Derivative-OPLS-2005>
13.7482738494873

$$$$
71
                    3D
 Structure written by MMmdl.
157165  0  0  1  0            999 V2000
  -30.7062  -14.4245   20.6040 C   0  0  0  0  0  0
  -30.4281  -12.2853   19.4144 C   0  0  0  0  0  0
  -29.4949  -12.5100   18.2058 C   0  0  0  0  0  0
  -28.0151  -12.3701   18.6171 C   0  0  0  0  0  0
  -27.6696  -13.1925   19.8864 C   0  0  2  0  0  0
  -28.7107  -12.9355   21.0009 C   0  0  0  0  0  0
  -25.2628  -13.8143   20.5661 C   0  0  0  0  0  0
  -24.1857  -13.0437   20.9141 C   0  0  0  0  0  0
  -24.6385  -11.6895   20.8722 C   0  0  0  0  0  0
  -23.9049  -10.4279   21.0386 C   0  0  0  0  0  0
  -24.3602   -9.4196   21.9165 C   0  0  0  0  0  0
  -23.6275   -8.2236   22.0748 C   0  0  0  0  0  0
  -22.4259   -8.0267   21.3542 C   0  0  0  0  0  0
  -21.9887   -9.0237   20.4645 C   0  0  0  0  0  0
  -22.7217  -10.2114   20.3043 C   0  0  0  0  0  0
  -21.6844   -6.0724   22.5278 C   0  0  0  0  0  0
  -21.4011   -6.5628   23.8211 C   0  0  0  0  0  0
  -21.3662   -5.6782   24.9174 C   0  0  0  0  0  0
  -21.6050   -4.3047   24.7221 C   0  0  0  0  0  0
  -21.8826   -3.8137   23.4341 C   0  0  0  0  0  0
  -21.9187   -4.6953   22.3398 C   0  0  0  0  0  0
  -22.7883  -13.5241   21.1815 C   0  0  0  0  0  0
  -22.1654   -4.2140   21.0976 F   0  0  0  0  0  0
  -21.5629   -3.4530   25.7733 F   0  0  0  0  0  0
  -30.0502  -13.2423   20.4641 N   0  0  0  0  0  0
  -26.3065  -12.9283   20.3416 N   0  0  0  0  0  0
  -25.9315  -11.6461   20.5790 N   0  0  0  0  0  0
  -22.0533  -12.8235   22.0383 N   0  0  0  0  0  0
  -25.4394  -15.1856   20.4070 N   0  0  0  0  0  0
  -31.7848  -14.6742   20.0556 O   0  0  0  0  0  0
  -21.6624   -6.8866   21.4242 O   0  0  0  0  0  0
  -22.3558  -14.5538   20.6655 O   0  0  0  0  0  0
  -24.6143  -31.8675   23.2123 C   0  0  0  0  0  0
  -25.9031  -32.4828   23.8419 C   0  0  1  0  0  0
  -27.2360  -27.4609   20.0824 C   0  0  0  0  0  0
  -25.5881  -33.8626   24.2344 N   0  0  0  0  0  0
  -23.4020  -30.4909   21.5524 C   0  0  2  0  0  0
  -24.8512  -28.9630   20.1114 C   0  0  0  0  0  0
  -22.7421  -29.4635   22.4998 C   0  0  0  0  0  0
  -18.0262  -28.1386   22.8490 C   0  0  0  0  0  0
  -24.1482  -36.7323   23.2636 C   0  0  0  0  0  0
  -25.9284  -30.8449   21.3586 C   0  0  0  0  0  0
  -26.0102  -29.4810   20.7043 C   0  0  0  0  0  0
  -27.2105  -28.7365   20.6867 C   0  0  0  0  0  0
  -26.0646  -26.9492   19.4876 C   0  0  0  0  0  0
  -24.8710  -27.6958   19.5023 C   0  0  0  0  0  0
  -23.6098  -29.8241   20.1665 C   0  0  0  0  0  0
  -25.4100  -36.3118   24.0337 C   0  0  1  0  0  0
  -20.5855  -28.3653   23.1333 C   0  0  2  0  0  0
  -20.6751  -26.9388   22.5429 C   0  0  0  0  0  0
  -19.5734  -26.6390   21.5217 C   0  0  0  0  0  0
  -18.1910  -26.7932   22.1626 C   0  0  0  0  0  0
  -19.1511  -28.8837   23.2908 C   0  0  0  0  0  0
  -18.9437  -30.1445   23.8917 C   0  0  0  0  0  0
  -17.6438  -30.6588   24.0565 C   0  0  0  0  0  0
  -25.9022  -34.9477   23.5137 C   0  0  0  0  0  0
  -16.5329  -29.9092   23.6324 C   0  0  0  0  0  0
  -16.7250  -28.6513   23.0339 C   0  0  0  0  0  0
  -26.4468  -31.6605   25.0740 C   0  0  0  0  0  0
  -25.3740  -31.3689   26.1491 C   0  0  0  0  0  0
  -27.0287  -30.3058   24.6082 C   0  0  0  0  0  0
  -27.6062  -32.4312   25.7488 C   0  0  0  0  0  0
  -27.5576  -37.1816   24.8466 C   0  0  0  0  0  0
  -21.4144  -29.3019   22.3749 N   0  0  0  0  0  0
  -26.4293  -37.3799   23.9403 N   0  0  0  0  0  0
  -24.6668  -31.0802   22.1010 N   0  0  0  0  0  0
  -23.4199  -28.8162   23.3017 O   0  0  0  0  0  0
  -28.3753  -26.6951   20.0934 O   0  0  0  0  0  0
  -26.5586  -34.8922   22.4701 O   0  0  0  0  0  0
  -23.5338  -32.1394   23.7534 O   0  0  0  0  0  0
  -30.1312  -17.7602   21.7447 C   0  0  0  0  0  0
  -29.7567  -19.0702   21.3737 C   0  0  0  0  0  0
  -29.1197  -16.9078   19.7011 C   0  0  0  0  0  0
  -28.7162  -18.2109   19.3334 C   0  0  0  0  0  0
  -29.8072  -16.6699   20.9127 C   0  0  0  0  0  0
  -29.0127  -19.3052   20.1931 C   0  0  0  0  0  0
  -28.4986  -23.1939   21.5814 C   0  0  0  0  0  0
  -28.3325  -21.8680   21.3908 C   0  0  0  0  0  0
  -27.9570  -18.3796   18.0262 C   0  0  0  0  0  0
  -28.7362  -24.2831   20.5403 C   0  0  0  0  0  0
  -28.3360  -25.6671   21.0883 C   0  0  0  0  0  0
  -30.0674  -15.3432   21.3440 N   0  0  0  0  0  0
  -29.5272  -21.6647   19.0110 O   0  0  0  0  0  0
  -27.1007  -20.9470   19.2617 O   0  0  0  0  0  0
  -28.4733  -21.0025   19.8011 S   0  0  0  0  0  0
  -31.4727  -12.3863   19.1136 H   0  0  0  0  0  0
  -30.3269  -11.2664   19.7919 H   0  0  0  0  0  0
  -29.7322  -11.8035   17.4082 H   0  0  0  0  0  0
  -29.6638  -13.5064   17.7942 H   0  0  0  0  0  0
  -27.8167  -11.3129   18.7989 H   0  0  0  0  0  0
  -27.3661  -12.6620   17.7903 H   0  0  0  0  0  0
  -27.7242  -14.2422   19.6084 H   0  0  0  0  0  0
  -28.6809  -11.8870   21.3031 H   0  0  0  0  0  0
  -28.4669  -13.4979   21.9027 H   0  0  0  0  0  0
  -25.2756   -9.5665   22.4724 H   0  0  0  0  0  0
  -23.9994   -7.4627   22.7459 H   0  0  0  0  0  0
  -21.0825   -8.8743   19.8942 H   0  0  0  0  0  0
  -22.3678  -10.9640   19.6135 H   0  0  0  0  0  0
  -21.2009   -7.6138   23.9714 H   0  0  0  0  0  0
  -21.1478   -6.0507   25.9075 H   0  0  0  0  0  0
  -22.0604   -2.7595   23.2842 H   0  0  0  0  0  0
  -22.4133  -11.9884   22.4764 H   0  0  0  0  0  0
  -21.1153  -13.1260   22.2597 H   0  0  0  0  0  0
  -24.6821  -15.8504   20.5234 H   0  0  0  0  0  0
  -26.3062  -15.6200   20.1172 H   0  0  0  0  0  0
  -26.7108  -32.5557   23.1195 H   0  0  0  0  0  0
  -25.0042  -33.9796   25.0495 H   0  0  0  0  0  0
  -22.6888  -31.3062   21.4152 H   0  0  0  0  0  0
  -23.3738  -35.9666   23.3321 H   0  0  0  0  0  0
  -24.3577  -36.8918   22.2048 H   0  0  0  0  0  0
  -23.7245  -37.6537   23.6641 H   0  0  0  0  0  0
  -26.0301  -31.6145   20.5917 H   0  0  0  0  0  0
  -26.8204  -30.9035   21.9706 H   0  0  0  0  0  0
  -28.1077  -29.1300   21.1446 H   0  0  0  0  0  0
  -26.0739  -25.9728   19.0233 H   0  0  0  0  0  0
  -23.9769  -27.2939   19.0461 H   0  0  0  0  0  0
  -23.7095  -30.5997   19.4065 H   0  0  0  0  0  0
  -22.7362  -29.2399   19.8728 H   0  0  0  0  0  0
  -25.1275  -36.1987   25.0832 H   0  0  0  0  0  0
  -20.9930  -28.3204   24.1459 H   0  0  0  0  0  0
  -20.5657  -26.2240   23.3601 H   0  0  0  0  0  0
  -21.6618  -26.7435   22.1209 H   0  0  0  0  0  0
  -19.6891  -25.6307   21.1229 H   0  0  0  0  0  0
  -19.6693  -27.3217   20.6762 H   0  0  0  0  0  0
  -17.4180  -26.6672   21.4035 H   0  0  0  0  0  0
  -18.0314  -26.0085   22.9032 H   0  0  0  0  0  0
  -19.7905  -30.7260   24.2308 H   0  0  0  0  0  0
  -17.4984  -31.6272   24.5159 H   0  0  0  0  0  0
  -15.5328  -30.2995   23.7647 H   0  0  0  0  0  0
  -15.8647  -28.0848   22.7032 H   0  0  0  0  0  0
  -24.5920  -30.7030   25.7820 H   0  0  0  0  0  0
  -24.8921  -32.2832   26.4969 H   0  0  0  0  0  0
  -25.8100  -30.8841   27.0236 H   0  0  0  0  0  0
  -26.2816  -29.6842   24.1135 H   0  0  0  0  0  0
  -27.4069  -29.7266   25.4516 H   0  0  0  0  0  0
  -27.8647  -30.4395   23.9210 H   0  0  0  0  0  0
  -27.2702  -33.3601   26.2108 H   0  0  0  0  0  0
  -28.3845  -32.6889   25.0291 H   0  0  0  0  0  0
  -28.0761  -31.8414   26.5367 H   0  0  0  0  0  0
  -28.2608  -38.0099   24.7489 H   0  0  0  0  0  0
  -28.1055  -36.2631   24.6319 H   0  0  0  0  0  0
  -27.2291  -37.1486   25.8869 H   0  0  0  0  0  0
  -20.9307  -29.8745   21.6977 H   0  0  0  0  0  0
  -26.0186  -38.2879   24.1411 H   0  0  0  0  0  0
  -30.6555  -17.5993   22.6765 H   0  0  0  0  0  0
  -30.0217  -19.8917   22.0216 H   0  0  0  0  0  0
  -28.8699  -16.0805   19.0527 H   0  0  0  0  0  0
  -28.4410  -23.5437   22.6024 H   0  0  0  0  0  0
  -28.1174  -21.2083   22.2168 H   0  0  0  0  0  0
  -28.3371  -19.2256   17.4546 H   0  0  0  0  0  0
  -26.8947  -18.5345   18.2168 H   0  0  0  0  0  0
  -28.0493  -17.4963   17.3941 H   0  0  0  0  0  0
  -29.7873  -24.2867   20.2506 H   0  0  0  0  0  0
  -28.1552  -24.0552   19.6455 H   0  0  0  0  0  0
  -29.0148  -25.9544   21.8930 H   0  0  0  0  0  0
  -27.3454  -25.5884   21.5441 H   0  0  0  0  0  0
  -29.3466  -14.9519   21.9329 H   0  0  0  0  0  0
  1 25  1  0  0  0
  1 30  2  0  0  0
  1 82  1  0  0  0
  2  3  1  0  0  0
  2 25  1  0  0  0
  2 86  1  0  0  0
  2 87  1  0  0  0
  3  4  1  0  0  0
  3 88  1  0  0  0
  3 89  1  0  0  0
  4  5  1  0  0  0
  4 90  1  0  0  0
  4 91  1  0  0  0
  5  6  1  0  0  0
  5 26  1  0  0  0
  5 92  1  0  0  0
  6 25  1  0  0  0
  6 93  1  0  0  0
  6 94  1  0  0  0
  7  8  2  0  0  0
  7 26  1  0  0  0
  7 29  1  0  0  0
  8  9  1  0  0  0
  8 22  1  0  0  0
  9 10  1  0  0  0
  9 27  2  0  0  0
 10 11  2  0  0  0
 10 15  1  0  0  0
 11 12  1  0  0  0
 11 95  1  0  0  0
 12 13  2  0  0  0
 12 96  1  0  0  0
 13 14  1  0  0  0
 13 31  1  0  0  0
 14 15  2  0  0  0
 14 97  1  0  0  0
 15 98  1  0  0  0
 16 17  2  0  0  0
 16 21  1  0  0  0
 16 31  1  0  0  0
 17 18  1  0  0  0
 17 99  1  0  0  0
 18 19  2  0  0  0
 18100  1  0  0  0
 19 20  1  0  0  0
 19 24  1  0  0  0
 20 21  2  0  0  0
 20101  1  0  0  0
 21 23  1  0  0  0
 22 28  1  0  0  0
 22 32  2  0  0  0
 26 27  1  0  0  0
 28102  1  0  0  0
 28103  1  0  0  0
 29104  1  0  0  0
 29105  1  0  0  0
 33 34  1  0  0  0
 33 66  1  0  0  0
 33 70  2  0  0  0
 34 36  1  0  0  0
 34 59  1  0  0  0
 34106  1  0  0  0
 35 44  2  0  0  0
 35 45  1  0  0  0
 35 68  1  0  0  0
 36 56  1  0  0  0
 36107  1  0  0  0
 37 39  1  0  0  0
 37 47  1  0  0  0
 37 66  1  0  0  0
 37108  1  0  0  0
 38 43  2  0  0  0
 38 46  1  0  0  0
 38 47  1  0  0  0
 39 64  1  0  0  0
 39 67  2  0  0  0
 40 52  1  0  0  0
 40 53  2  0  0  0
 40 58  1  0  0  0
 41109  1  0  0  0
 41110  1  0  0  0
 41111  1  0  0  0
 41 48  1  0  0  0
 42 43  1  0  0  0
 42 66  1  0  0  0
 42112  1  0  0  0
 42113  1  0  0  0
 43 44  1  0  0  0
 44114  1  0  0  0
 45 46  2  0  0  0
 45115  1  0  0  0
 46116  1  0  0  0
 47117  1  0  0  0
 47118  1  0  0  0
 48 56  1  0  0  0
 48 65  1  0  0  0
 48119  1  0  0  0
 49 50  1  0  0  0
 49 53  1  0  0  0
 49 64  1  0  0  0
 49120  1  0  0  0
 50 51  1  0  0  0
 50121  1  0  0  0
 50122  1  0  0  0
 51 52  1  0  0  0
 51123  1  0  0  0
 51124  1  0  0  0
 52125  1  0  0  0
 52126  1  0  0  0
 53 54  1  0  0  0
 54 55  2  0  0  0
 54127  1  0  0  0
 55 57  1  0  0  0
 55128  1  0  0  0
 56 69  2  0  0  0
 57 58  2  0  0  0
 57129  1  0  0  0
 58130  1  0  0  0
 59 60  1  0  0  0
 59 61  1  0  0  0
 59 62  1  0  0  0
 60131  1  0  0  0
 60132  1  0  0  0
 60133  1  0  0  0
 61134  1  0  0  0
 61135  1  0  0  0
 61136  1  0  0  0
 62137  1  0  0  0
 62138  1  0  0  0
 62139  1  0  0  0
 63 65  1  0  0  0
 63140  1  0  0  0
 63141  1  0  0  0
 63142  1  0  0  0
 64143  1  0  0  0
 65144  1  0  0  0
 68 81  1  0  0  0
 71 72  2  0  0  0
 71 75  1  0  0  0
 71145  1  0  0  0
 72 76  1  0  0  0
 72146  1  0  0  0
 73 74  1  0  0  0
 73 75  2  0  0  0
 73147  1  0  0  0
 74 76  2  0  0  0
 74 79  1  0  0  0
 75 82  1  0  0  0
 76 85  1  0  0  0
 77 78  2  0  0  0
 77 80  1  0  0  0
 77148  1  0  0  0
 78149  1  0  0  0
 78 85  1  0  0  0
 79150  1  0  0  0
 79151  1  0  0  0
 79152  1  0  0  0
 80 81  1  0  0  0
 80153  1  0  0  0
 80154  1  0  0  0
 81155  1  0  0  0
 81156  1  0  0  0
 82157  1  0  0  0
 83 85  2  0  0  0
 84 85  2  0  0  0
M  ISO  4   1 100  68 101  81 101  82 100
M  END
> <chiral flag>
0

> <version>
0

> <s_m_source_file>
/data/baiqing/PycharmProjects/Reinvent-master-3.2/result/LINK_invent/BTK/process_docking_weight1_custom_product_contain_oxygen_bond_distance_aromatic_linkinvent_7_9_3/rearranged_h_0027.sdf

> <i_m_source_file_index>
71

> <r_mmod_Potential_Energy-OPLS-2005>
29.0158100128174

> <r_mmod_Stretch_Energy-OPLS-2005>
35.5969429016113

> <r_mmod_Bend_Energy-OPLS-2005>
94.6675872802734

> <r_mmod_Torsional_Energy-OPLS-2005>
269.72705078125

> <r_mmod_Improper_Torsional_Energy-OPLS-2005>
5.24982786178589

> <r_mmod_Van_der_Waal_Energy-OPLS-2005>
141.172546386719

> <r_mmod_Electrostatic_Energy-OPLS-2005>
-274.334197998047

> <r_mmod_Solvation_Energy-OPLS-2005>
-251.985916137695

> <b_mmod_Minimization_Converged-OPLS-2005>
0

> <r_mmod_RMS_Derivative-OPLS-2005>
1.73981130123138

$$$$
72
                    3D
 Structure written by MMmdl.
155164  0  0  1  0            999 V2000
  -30.5399  -14.7789   20.3680 C   0  0  0  0  0  0
  -30.4492  -12.4634   19.4346 C   0  0  0  0  0  0
  -29.5130  -12.4690   18.2058 C   0  0  0  0  0  0
  -28.0408  -12.2793   18.6375 C   0  0  0  0  0  0
  -27.6304  -13.2073   19.8131 C   0  0  2  0  0  0
  -28.6830  -13.1773   20.9394 C   0  0  0  0  0  0
  -25.2551  -13.8139   20.5632 C   0  0  0  0  0  0
  -24.1815  -13.0410   20.9190 C   0  0  0  0  0  0
  -24.6350  -11.6897   20.8708 C   0  0  0  0  0  0
  -23.8995  -10.4280   21.0396 C   0  0  0  0  0  0
  -24.3576   -9.4225   21.9174 C   0  0  0  0  0  0
  -23.6283   -8.2230   22.0748 C   0  0  0  0  0  0
  -22.4260   -8.0258   21.3533 C   0  0  0  0  0  0
  -21.9868   -9.0208   20.4644 C   0  0  0  0  0  0
  -22.7160  -10.2101   20.3043 C   0  0  0  0  0  0
  -21.6863   -6.0706   22.5291 C   0  0  0  0  0  0
  -21.3996   -6.5609   23.8232 C   0  0  0  0  0  0
  -21.3672   -5.6774   24.9197 C   0  0  0  0  0  0
  -21.6043   -4.3032   24.7236 C   0  0  0  0  0  0
  -21.8813   -3.8115   23.4362 C   0  0  0  0  0  0
  -21.9198   -4.6951   22.3421 C   0  0  0  0  0  0
  -22.7856  -13.5261   21.1848 C   0  0  0  0  0  0
  -22.1661   -4.2128   21.0993 F   0  0  0  0  0  0
  -21.5649   -3.4503   25.7744 F   0  0  0  0  0  0
  -29.9700  -13.5302   20.3319 N   0  0  0  0  0  0
  -26.2899  -12.9264   20.3104 N   0  0  0  0  0  0
  -25.9268  -11.6442   20.5645 N   0  0  0  0  0  0
  -22.0440  -12.8293   22.0417 N   0  0  0  0  0  0
  -25.4243  -15.1852   20.4107 N   0  0  0  0  0  0
  -31.7629  -14.9118   20.2810 O   0  0  0  0  0  0
  -21.6649   -6.8837   21.4244 O   0  0  0  0  0  0
  -22.3566  -14.5551   20.6703 O   0  0  0  0  0  0
  -24.6341  -31.8557   23.1967 C   0  0  0  0  0  0
  -25.9167  -32.4755   23.8283 C   0  0  1  0  0  0
  -27.1666  -27.2435   20.1024 C   0  0  0  0  0  0
  -25.5955  -33.8554   24.2221 N   0  0  0  0  0  0
  -23.4217  -30.4854   21.5486 C   0  0  2  0  0  0
  -24.8484  -28.9293   20.1118 C   0  0  0  0  0  0
  -22.7485  -29.4624   22.4957 C   0  0  0  0  0  0
  -18.0281  -28.1391   22.8493 C   0  0  0  0  0  0
  -24.1495  -36.7317   23.2631 C   0  0  0  0  0  0
  -25.9678  -30.7649   21.3663 C   0  0  0  0  0  0
  -26.0307  -29.3845   20.7131 C   0  0  0  0  0  0
  -27.1978  -28.5504   20.7008 C   0  0  0  0  0  0
  -25.9637  -26.8640   19.4742 C   0  0  0  0  0  0
  -24.8186  -27.6747   19.4919 C   0  0  0  0  0  0
  -23.6321  -29.8343   20.1587 C   0  0  0  0  0  0
  -25.4122  -36.3068   24.0306 C   0  0  1  0  0  0
  -20.5886  -28.3682   23.1299 C   0  0  2  0  0  0
  -20.6775  -26.9402   22.5432 C   0  0  0  0  0  0
  -19.5756  -26.6373   21.5227 C   0  0  0  0  0  0
  -18.1931  -26.7939   22.1627 C   0  0  0  0  0  0
  -19.1534  -28.8843   23.2891 C   0  0  0  0  0  0
  -18.9467  -30.1449   23.8901 C   0  0  0  0  0  0
  -17.6468  -30.6580   24.0579 C   0  0  0  0  0  0
  -25.9072  -34.9446   23.5060 C   0  0  0  0  0  0
  -16.5358  -29.9095   23.6322 C   0  0  0  0  0  0
  -16.7276  -28.6522   23.0331 C   0  0  0  0  0  0
  -26.4522  -31.6569   25.0674 C   0  0  0  0  0  0
  -25.3743  -31.3728   26.1399 C   0  0  0  0  0  0
  -27.0324  -30.2982   24.6097 C   0  0  0  0  0  0
  -27.6059  -32.4305   25.7487 C   0  0  0  0  0  0
  -27.5584  -37.1803   24.8449 C   0  0  0  0  0  0
  -21.4196  -29.3030   22.3695 N   0  0  0  0  0  0
  -26.4281  -37.3780   23.9409 N   0  0  0  0  0  0
  -24.6965  -31.0510   22.0968 N   0  0  0  0  0  0
  -23.4199  -28.8122   23.3005 O   0  0  0  0  0  0
  -28.2366  -26.3216   20.1017 O   0  0  0  0  0  0
  -26.5669  -34.8930   22.4643 O   0  0  0  0  0  0
  -23.5489  -32.1396   23.7283 O   0  0  0  0  0  0
  -28.7788  -17.2262   21.7704 C   0  0  0  0  0  0
  -28.1112  -18.3895   22.1909 C   0  0  0  0  0  0
  -29.4683  -18.4298   19.7727 C   0  0  0  0  0  0
  -28.8764  -19.6870   20.2379 C   0  0  0  0  0  0
  -29.4159  -17.1735   20.5183 C   0  0  0  0  0  0
  -28.0840  -19.5665   21.4157 C   0  0  0  0  0  0
  -29.0870  -22.8964   21.2981 C   0  0  0  0  0  0
  -28.5613  -24.3067   21.6092 C   0  0  0  0  0  0
  -28.3315  -23.6969   19.2907 C   0  0  0  0  0  0
  -27.9389  -24.8496   20.3161 C   0  0  2  0  0  0
  -29.0397  -21.0860   19.4551 C   0  0  0  0  0  0
  -28.7793  -22.4784   20.0571 N   0  0  0  0  0  0
  -29.6923  -15.8148   19.9960 N   0  0  0  0  0  0
  -29.6707  -22.2235   22.1513 O   0  0  0  0  0  0
  -26.9304  -20.7484   21.9221 Cl  0  0  0  0  0  0
  -31.4815  -12.6303   19.1235 H   0  0  0  0  0  0
  -30.4252  -11.4964   19.9406 H   0  0  0  0  0  0
  -29.8040  -11.6775   17.5145 H   0  0  0  0  0  0
  -29.6180  -13.4044   17.6574 H   0  0  0  0  0  0
  -27.9340  -11.2369   18.9432 H   0  0  0  0  0  0
  -27.3751  -12.4081   17.7840 H   0  0  0  0  0  0
  -27.5973  -14.2112   19.3940 H   0  0  0  0  0  0
  -28.7347  -12.1913   21.3989 H   0  0  0  0  0  0
  -28.4155  -13.8879   21.7244 H   0  0  0  0  0  0
  -25.2717   -9.5733   22.4758 H   0  0  0  0  0  0
  -24.0012   -7.4621   22.7462 H   0  0  0  0  0  0
  -21.0785   -8.8687   19.8932 H   0  0  0  0  0  0
  -22.3588  -10.9638   19.6151 H   0  0  0  0  0  0
  -21.1965   -7.6116   23.9726 H   0  0  0  0  0  0
  -21.1513   -6.0497   25.9102 H   0  0  0  0  0  0
  -22.0588   -2.7587   23.2876 H   0  0  0  0  0  0
  -22.4019  -12.0010   22.4913 H   0  0  0  0  0  0
  -21.1029  -13.1326   22.2479 H   0  0  0  0  0  0
  -24.6485  -15.8272   20.5197 H   0  0  0  0  0  0
  -26.2748  -15.6429   20.1134 H   0  0  0  0  0  0
  -26.7220  -32.5374   23.0993 H   0  0  0  0  0  0
  -24.9996  -33.9689   25.0295 H   0  0  0  0  0  0
  -22.7165  -31.3098   21.4163 H   0  0  0  0  0  0
  -23.3732  -35.9672   23.3280 H   0  0  0  0  0  0
  -24.3569  -36.8975   22.2046 H   0  0  0  0  0  0
  -23.7273  -37.6521   23.6682 H   0  0  0  0  0  0
  -26.0864  -31.5171   20.5851 H   0  0  0  0  0  0
  -26.8562  -30.8258   21.9819 H   0  0  0  0  0  0
  -28.1026  -28.8899   21.1804 H   0  0  0  0  0  0
  -25.8772  -25.9120   18.9718 H   0  0  0  0  0  0
  -23.9073  -27.3277   19.0226 H   0  0  0  0  0  0
  -23.7731  -30.6246   19.4184 H   0  0  0  0  0  0
  -22.7397  -29.2923   19.8419 H   0  0  0  0  0  0
  -25.1302  -36.1892   25.0791 H   0  0  0  0  0  0
  -20.9975  -28.3245   24.1425 H   0  0  0  0  0  0
  -20.5663  -26.2292   23.3629 H   0  0  0  0  0  0
  -21.6650  -26.7424   22.1235 H   0  0  0  0  0  0
  -19.6917  -25.6271   21.1275 H   0  0  0  0  0  0
  -19.6715  -27.3174   20.6747 H   0  0  0  0  0  0
  -17.4214  -26.6691   21.4013 H   0  0  0  0  0  0
  -18.0316  -26.0073   22.9006 H   0  0  0  0  0  0
  -19.7931  -30.7268   24.2290 H   0  0  0  0  0  0
  -17.5013  -31.6266   24.5166 H   0  0  0  0  0  0
  -15.5360  -30.3005   23.7614 H   0  0  0  0  0  0
  -15.8684  -28.0846   22.7025 H   0  0  0  0  0  0
  -24.5858  -30.7167   25.7697 H   0  0  0  0  0  0
  -24.9033  -32.2924   26.4874 H   0  0  0  0  0  0
  -25.8049  -30.8821   27.0136 H   0  0  0  0  0  0
  -26.2850  -29.6760   24.1162 H   0  0  0  0  0  0
  -27.4066  -29.7206   25.4554 H   0  0  0  0  0  0
  -27.8714  -30.4249   23.9253 H   0  0  0  0  0  0
  -27.2608  -33.3541   26.2138 H   0  0  0  0  0  0
  -28.3853  -32.6975   25.0345 H   0  0  0  0  0  0
  -28.0750  -31.8399   26.5359 H   0  0  0  0  0  0
  -28.2578  -38.0126   24.7516 H   0  0  0  0  0  0
  -28.1108  -36.2655   24.6236 H   0  0  0  0  0  0
  -27.2321  -37.1412   25.8860 H   0  0  0  0  0  0
  -20.9348  -29.8816   21.6988 H   0  0  0  0  0  0
  -26.0153  -38.2844   24.1445 H   0  0  0  0  0  0
  -28.7005  -16.3420   22.3889 H   0  0  0  0  0  0
  -27.5425  -18.3710   23.1097 H   0  0  0  0  0  0
  -29.9370  -18.4174   18.7962 H   0  0  0  0  0  0
  -29.3667  -24.9444   21.9701 H   0  0  0  0  0  0
  -27.7955  -24.2277   22.3826 H   0  0  0  0  0  0
  -29.1173  -24.0491   18.6145 H   0  0  0  0  0  0
  -27.4774  -23.4213   18.6745 H   0  0  0  0  0  0
  -26.8713  -24.7068   20.4804 H   0  0  0  0  0  0
  -28.4456  -21.0249   18.5403 H   0  0  0  0  0  0
  -30.0749  -21.1196   19.1089 H   0  0  0  0  0  0
  -28.8709  -15.4130   19.5745 H   0  0  0  0  0  0
  1 25  1  0  0  0
  1 30  2  0  0  0
  1 83  1  0  0  0
  2  3  1  0  0  0
  2 25  1  0  0  0
  2 86  1  0  0  0
  2 87  1  0  0  0
  3  4  1  0  0  0
  3 88  1  0  0  0
  3 89  1  0  0  0
  4  5  1  0  0  0
  4 90  1  0  0  0
  4 91  1  0  0  0
  5  6  1  0  0  0
  5 26  1  0  0  0
  5 92  1  0  0  0
  6 25  1  0  0  0
  6 93  1  0  0  0
  6 94  1  0  0  0
  7  8  2  0  0  0
  7 26  1  0  0  0
  7 29  1  0  0  0
  8  9  1  0  0  0
  8 22  1  0  0  0
  9 10  1  0  0  0
  9 27  2  0  0  0
 10 11  2  0  0  0
 10 15  1  0  0  0
 11 12  1  0  0  0
 11 95  1  0  0  0
 12 13  2  0  0  0
 12 96  1  0  0  0
 13 14  1  0  0  0
 13 31  1  0  0  0
 14 15  2  0  0  0
 14 97  1  0  0  0
 15 98  1  0  0  0
 16 17  2  0  0  0
 16 21  1  0  0  0
 16 31  1  0  0  0
 17 18  1  0  0  0
 17 99  1  0  0  0
 18 19  2  0  0  0
 18100  1  0  0  0
 19 20  1  0  0  0
 19 24  1  0  0  0
 20 21  2  0  0  0
 20101  1  0  0  0
 21 23  1  0  0  0
 22 28  1  0  0  0
 22 32  2  0  0  0
 26 27  1  0  0  0
 28102  1  0  0  0
 28103  1  0  0  0
 29104  1  0  0  0
 29105  1  0  0  0
 33 34  1  0  0  0
 33 66  1  0  0  0
 33 70  2  0  0  0
 34 36  1  0  0  0
 34 59  1  0  0  0
 34106  1  0  0  0
 35 44  2  0  0  0
 35 45  1  0  0  0
 35 68  1  0  0  0
 36 56  1  0  0  0
 36107  1  0  0  0
 37 39  1  0  0  0
 37 47  1  0  0  0
 37 66  1  0  0  0
 37108  1  0  0  0
 38 43  2  0  0  0
 38 46  1  0  0  0
 38 47  1  0  0  0
 39 64  1  0  0  0
 39 67  2  0  0  0
 40 52  1  0  0  0
 40 53  2  0  0  0
 40 58  1  0  0  0
 41109  1  0  0  0
 41110  1  0  0  0
 41111  1  0  0  0
 41 48  1  0  0  0
 42 43  1  0  0  0
 42 66  1  0  0  0
 42112  1  0  0  0
 42113  1  0  0  0
 43 44  1  0  0  0
 44114  1  0  0  0
 45 46  2  0  0  0
 45115  1  0  0  0
 46116  1  0  0  0
 47117  1  0  0  0
 47118  1  0  0  0
 48 56  1  0  0  0
 48 65  1  0  0  0
 48119  1  0  0  0
 49 50  1  0  0  0
 49 53  1  0  0  0
 49 64  1  0  0  0
 49120  1  0  0  0
 50 51  1  0  0  0
 50121  1  0  0  0
 50122  1  0  0  0
 51 52  1  0  0  0
 51123  1  0  0  0
 51124  1  0  0  0
 52125  1  0  0  0
 52126  1  0  0  0
 53 54  1  0  0  0
 54 55  2  0  0  0
 54127  1  0  0  0
 55 57  1  0  0  0
 55128  1  0  0  0
 56 69  2  0  0  0
 57 58  2  0  0  0
 57129  1  0  0  0
 58130  1  0  0  0
 59 60  1  0  0  0
 59 61  1  0  0  0
 59 62  1  0  0  0
 60131  1  0  0  0
 60132  1  0  0  0
 60133  1  0  0  0
 61134  1  0  0  0
 61135  1  0  0  0
 61136  1  0  0  0
 62137  1  0  0  0
 62138  1  0  0  0
 62139  1  0  0  0
 63 65  1  0  0  0
 63140  1  0  0  0
 63141  1  0  0  0
 63142  1  0  0  0
 64143  1  0  0  0
 65144  1  0  0  0
 68 80  1  0  0  0
 71 72  2  0  0  0
 71 75  1  0  0  0
 71145  1  0  0  0
 72 76  1  0  0  0
 72146  1  0  0  0
 73 74  1  0  0  0
 73 75  2  0  0  0
 73147  1  0  0  0
 74 76  2  0  0  0
 74 81  1  0  0  0
 75 83  1  0  0  0
 76 85  1  0  0  0
 77 78  1  0  0  0
 77 82  1  0  0  0
 77 84  2  0  0  0
 78 80  1  0  0  0
 78148  1  0  0  0
 78149  1  0  0  0
 79 80  1  0  0  0
 79 82  1  0  0  0
 79150  1  0  0  0
 79151  1  0  0  0
 80152  1  0  0  0
 81 82  1  0  0  0
 81153  1  0  0  0
 81154  1  0  0  0
 83155  1  0  0  0
M  ISO  4   1 100  68 101  80 101  83 100
M  END
> <chiral flag>
0

> <version>
0

> <s_m_source_file>
/data/baiqing/PycharmProjects/Reinvent-master-3.2/result/LINK_invent/BTK/process_docking_weight1_custom_product_contain_oxygen_bond_distance_aromatic_linkinvent_7_9_3/rearranged_h_0027.sdf

> <i_m_source_file_index>
72

> <r_mmod_Potential_Energy-OPLS-2005>
286.491241455078

> <r_mmod_Stretch_Energy-OPLS-2005>
123.802032470703

> <r_mmod_Bend_Energy-OPLS-2005>
203.659881591797

> <r_mmod_Torsional_Energy-OPLS-2005>
318.2587890625

> <r_mmod_Improper_Torsional_Energy-OPLS-2005>
20.8629360198975

> <r_mmod_Van_der_Waal_Energy-OPLS-2005>
135.022506713867

> <r_mmod_Electrostatic_Energy-OPLS-2005>
-395.586395263672

> <r_mmod_Solvation_Energy-OPLS-2005>
-234.318069458008

> <b_mmod_Minimization_Converged-OPLS-2005>
0

> <r_mmod_RMS_Derivative-OPLS-2005>
6.88267087936401

$$$$
73
                    3D
 Structure written by MMmdl.
164173  0  0  1  0            999 V2000
  -30.5706  -14.8374   20.4435 C   0  0  0  0  0  0
  -30.4410  -12.5183   19.4657 C   0  0  0  0  0  0
  -29.5113  -12.5078   18.2321 C   0  0  0  0  0  0
  -28.0423  -12.3113   18.6570 C   0  0  0  0  0  0
  -27.6337  -13.2321   19.8372 C   0  0  2  0  0  0
  -28.6831  -13.2154   20.9678 C   0  0  0  0  0  0
  -25.2493  -13.8186   20.5698 C   0  0  0  0  0  0
  -24.1794  -13.0432   20.9217 C   0  0  0  0  0  0
  -24.6389  -11.6908   20.8756 C   0  0  0  0  0  0
  -23.9071  -10.4286   21.0413 C   0  0  0  0  0  0
  -24.3621   -9.4202   21.9190 C   0  0  0  0  0  0
  -23.6293   -8.2240   22.0759 C   0  0  0  0  0  0
  -22.4277   -8.0280   21.3547 C   0  0  0  0  0  0
  -21.9913   -9.0255   20.4651 C   0  0  0  0  0  0
  -22.7245  -10.2131   20.3060 C   0  0  0  0  0  0
  -21.6853   -6.0734   22.5279 C   0  0  0  0  0  0
  -21.4013   -6.5641   23.8212 C   0  0  0  0  0  0
  -21.3657   -5.6794   24.9174 C   0  0  0  0  0  0
  -21.6042   -4.3057   24.7226 C   0  0  0  0  0  0
  -21.8820   -3.8147   23.4349 C   0  0  0  0  0  0
  -21.9191   -4.6962   22.3403 C   0  0  0  0  0  0
  -22.7816  -13.5210   21.1873 C   0  0  0  0  0  0
  -22.1663   -4.2148   21.0981 F   0  0  0  0  0  0
  -21.5625   -3.4541   25.7740 F   0  0  0  0  0  0
  -29.9643  -13.5976   20.3629 N   0  0  0  0  0  0
  -26.2908  -12.9389   20.3241 N   0  0  0  0  0  0
  -25.9316  -11.6534   20.5746 N   0  0  0  0  0  0
  -22.0466  -12.8203   22.0428 N   0  0  0  0  0  0
  -25.4156  -15.1918   20.4118 N   0  0  0  0  0  0
  -31.7858  -14.9193   20.2370 O   0  0  0  0  0  0
  -21.6641   -6.8877   21.4242 O   0  0  0  0  0  0
  -22.3504  -14.5521   20.6721 O   0  0  0  0  0  0
  -24.6368  -31.8495   23.1925 C   0  0  0  0  0  0
  -25.9175  -32.4718   23.8286 C   0  0  1  0  0  0
  -27.2170  -27.2093   20.1438 C   0  0  0  0  0  0
  -25.5948  -33.8521   24.2212 N   0  0  0  0  0  0
  -23.4360  -30.4693   21.5377 C   0  0  2  0  0  0
  -24.8836  -28.9031   20.1115 C   0  0  0  0  0  0
  -22.7528  -29.4576   22.4899 C   0  0  0  0  0  0
  -18.0293  -28.1392   22.8477 C   0  0  0  0  0  0
  -24.1497  -36.7275   23.2642 C   0  0  0  0  0  0
  -25.9844  -30.7484   21.3764 C   0  0  0  0  0  0
  -26.0578  -29.3649   20.7202 C   0  0  0  0  0  0
  -27.2302  -28.5343   20.7150 C   0  0  0  0  0  0
  -26.0185  -26.8199   19.5112 C   0  0  0  0  0  0
  -24.8724  -27.6428   19.4920 C   0  0  0  0  0  0
  -23.6570  -29.7976   20.1560 C   0  0  0  0  0  0
  -25.4121  -36.3045   24.0320 C   0  0  1  0  0  0
  -20.5899  -28.3709   23.1258 C   0  0  2  0  0  0
  -20.6783  -26.9420   22.5409 C   0  0  0  0  0  0
  -19.5764  -26.6383   21.5209 C   0  0  0  0  0  0
  -18.1940  -26.7930   22.1617 C   0  0  0  0  0  0
  -19.1549  -28.8869   23.2853 C   0  0  0  0  0  0
  -18.9473  -30.1468   23.8871 C   0  0  0  0  0  0
  -17.6470  -30.6587   24.0560 C   0  0  0  0  0  0
  -25.9068  -34.9419   23.5071 C   0  0  0  0  0  0
  -16.5360  -29.9082   23.6335 C   0  0  0  0  0  0
  -16.7278  -28.6505   23.0345 C   0  0  0  0  0  0
  -26.4518  -31.6563   25.0704 C   0  0  0  0  0  0
  -25.3721  -31.3734   26.1415 C   0  0  0  0  0  0
  -27.0384  -30.2974   24.6228 C   0  0  0  0  0  0
  -27.6055  -32.4323   25.7485 C   0  0  0  0  0  0
  -27.5575  -37.1790   24.8463 C   0  0  0  0  0  0
  -21.4231  -29.3046   22.3645 N   0  0  0  0  0  0
  -26.4289  -37.3749   23.9407 N   0  0  0  0  0  0
  -24.7055  -31.0422   22.0915 N   0  0  0  0  0  0
  -23.4204  -28.8116   23.3015 O   0  0  0  0  0  0
  -28.3005  -26.2883   20.1738 O   0  0  0  0  0  0
  -26.5647  -34.8910   22.4644 O   0  0  0  0  0  0
  -23.5511  -32.1338   23.7199 O   0  0  0  0  0  0
  -30.8997  -18.9535   22.5079 C   0  0  0  0  0  0
  -30.7287  -17.6530   21.9931 C   0  0  0  0  0  0
  -29.4396  -18.6316   20.1865 C   0  0  0  0  0  0
  -30.3945  -20.1122   21.8688 C   0  0  0  0  0  0
  -29.6361  -20.0149   20.6695 C   0  0  0  0  0  0
  -29.9925  -17.4194   20.8169 C   0  0  0  0  0  0
  -30.6920  -21.4057   22.4952 C   0  0  0  0  0  0
  -30.4798  -21.6760   23.7957 C   0  0  0  0  0  0
  -29.2616  -23.8728   20.9138 C   0  0  0  0  0  0
  -27.8753  -23.6391   19.5015 C   0  0  0  0  0  0
  -28.0630  -24.8190   20.5241 C   0  0  2  0  0  0
  -31.6876  -22.8231   25.6932 C   0  0  0  0  0  0
  -29.2011  -21.3715   19.8651 C   0  0  0  0  0  0
  -30.7930  -22.9998   24.4630 C   0  0  0  0  0  0
  -29.7581  -15.9846   20.4283 N   0  0  0  0  0  0
  -28.5102  -22.6518   20.4521 N   0  3  1  0  0  0
  -31.4747  -12.6742   19.1537 H   0  0  0  0  0  0
  -30.4216  -11.5557   19.9781 H   0  0  0  0  0  0
  -29.8100  -11.7193   17.5403 H   0  0  0  0  0  0
  -29.6122  -13.4475   17.6863 H   0  0  0  0  0  0
  -27.9247  -11.2673   18.9495 H   0  0  0  0  0  0
  -27.3769  -12.4654   17.8065 H   0  0  0  0  0  0
  -27.6090  -14.2414   19.4270 H   0  0  0  0  0  0
  -28.7487  -12.2305   21.4317 H   0  0  0  0  0  0
  -28.4074  -13.9142   21.7597 H   0  0  0  0  0  0
  -25.2765   -9.5675   22.4768 H   0  0  0  0  0  0
  -23.9999   -7.4629   22.7481 H   0  0  0  0  0  0
  -21.0843   -8.8774   19.8957 H   0  0  0  0  0  0
  -22.3705  -10.9671   19.6171 H   0  0  0  0  0  0
  -21.2010   -7.6150   23.9713 H   0  0  0  0  0  0
  -21.1476   -6.0527   25.9075 H   0  0  0  0  0  0
  -22.0601   -2.7610   23.2851 H   0  0  0  0  0  0
  -22.4086  -11.9861   22.4805 H   0  0  0  0  0  0
  -21.1082  -13.1220   22.2642 H   0  0  0  0  0  0
  -24.6441  -15.8400   20.5260 H   0  0  0  0  0  0
  -26.2566  -15.6384   20.0720 H   0  0  0  0  0  0
  -26.7236  -32.5342   23.1015 H   0  0  0  0  0  0
  -25.0069  -33.9633   25.0342 H   0  0  0  0  0  0
  -22.7344  -31.2920   21.3867 H   0  0  0  0  0  0
  -23.3754  -35.9612   23.3297 H   0  0  0  0  0  0
  -24.3579  -36.8913   22.2058 H   0  0  0  0  0  0
  -23.7264  -37.6474   23.6682 H   0  0  0  0  0  0
  -26.1273  -31.5065   20.6053 H   0  0  0  0  0  0
  -26.8595  -30.7987   22.0126 H   0  0  0  0  0  0
  -28.1321  -28.8850   21.1974 H   0  0  0  0  0  0
  -25.9538  -25.8519   19.0355 H   0  0  0  0  0  0
  -23.9734  -27.2865   19.0077 H   0  0  0  0  0  0
  -23.7850  -30.5717   19.3985 H   0  0  0  0  0  0
  -22.7726  -29.2348   19.8505 H   0  0  0  0  0  0
  -25.1305  -36.1877   25.0811 H   0  0  0  0  0  0
  -20.9978  -28.3301   24.1383 H   0  0  0  0  0  0
  -20.5695  -26.2312   23.3616 H   0  0  0  0  0  0
  -21.6648  -26.7441   22.1195 H   0  0  0  0  0  0
  -19.6929  -25.6290   21.1247 H   0  0  0  0  0  0
  -19.6711  -27.3188   20.6737 H   0  0  0  0  0  0
  -17.4208  -26.6672   21.4020 H   0  0  0  0  0  0
  -18.0340  -26.0075   22.9019 H   0  0  0  0  0  0
  -19.7953  -30.7288   24.2226 H   0  0  0  0  0  0
  -17.5029  -31.6266   24.5169 H   0  0  0  0  0  0
  -15.5362  -30.2974   23.7688 H   0  0  0  0  0  0
  -15.8677  -28.0828   22.7057 H   0  0  0  0  0  0
  -24.5900  -30.7078   25.7742 H   0  0  0  0  0  0
  -24.8909  -32.2912   26.4803 H   0  0  0  0  0  0
  -25.8023  -30.8935   27.0215 H   0  0  0  0  0  0
  -26.2986  -29.6694   24.1249 H   0  0  0  0  0  0
  -27.4046  -29.7265   25.4771 H   0  0  0  0  0  0
  -27.8867  -30.4233   23.9495 H   0  0  0  0  0  0
  -27.2647  -33.3634   26.2022 H   0  0  0  0  0  0
  -28.3886  -32.6863   25.0330 H   0  0  0  0  0  0
  -28.0699  -31.8476   26.5434 H   0  0  0  0  0  0
  -28.2581  -38.0096   24.7496 H   0  0  0  0  0  0
  -28.1079  -36.2621   24.6300 H   0  0  0  0  0  0
  -27.2287  -37.1445   25.8863 H   0  0  0  0  0  0
  -20.9437  -29.8752   21.6824 H   0  0  0  0  0  0
  -26.0163  -38.2821   24.1402 H   0  0  0  0  0  0
  -31.4691  -19.0610   23.4206 H   0  0  0  0  0  0
  -31.1487  -16.8226   22.5433 H   0  0  0  0  0  0
  -28.8704  -18.4991   19.2774 H   0  0  0  0  0  0
  -31.1411  -22.1581   21.8630 H   0  0  0  0  0  0
  -30.0440  -20.9177   24.4336 H   0  0  0  0  0  0
  -29.4789  -23.8845   21.9797 H   0  0  0  0  0  0
  -30.1666  -24.0616   20.3327 H   0  0  0  0  0  0
  -28.4514  -23.7693   18.5821 H   0  0  0  0  0  0
  -26.8350  -23.4053   19.2748 H   0  0  0  0  0  0
  -27.2940  -24.7679   21.2985 H   0  0  0  0  0  0
  -31.8818  -23.7827   26.1737 H   0  0  0  0  0  0
  -32.6491  -22.3853   25.4235 H   0  0  0  0  0  0
  -31.2187  -22.1729   26.4328 H   0  0  0  0  0  0
  -28.5235  -21.0248   19.0849 H   0  0  0  0  0  0
  -30.0851  -21.7103   19.3247 H   0  0  0  0  0  0
  -29.8523  -23.4668   24.7582 H   0  0  0  0  0  0
  -31.2688  -23.6771   23.7523 H   0  0  0  0  0  0
  -28.7951  -15.7692   20.2248 H   0  0  0  0  0  0
  -27.8263  -22.3779   21.1404 H   0  0  0  0  0  0
  1 25  1  0  0  0
  1 30  2  0  0  0
  1 85  1  0  0  0
  2  3  1  0  0  0
  2 25  1  0  0  0
  2 87  1  0  0  0
  2 88  1  0  0  0
  3  4  1  0  0  0
  3 89  1  0  0  0
  3 90  1  0  0  0
  4  5  1  0  0  0
  4 91  1  0  0  0
  4 92  1  0  0  0
  5  6  1  0  0  0
  5 26  1  0  0  0
  5 93  1  0  0  0
  6 25  1  0  0  0
  6 94  1  0  0  0
  6 95  1  0  0  0
  7  8  2  0  0  0
  7 26  1  0  0  0
  7 29  1  0  0  0
  8  9  1  0  0  0
  8 22  1  0  0  0
  9 10  1  0  0  0
  9 27  2  0  0  0
 10 11  2  0  0  0
 10 15  1  0  0  0
 11 12  1  0  0  0
 11 96  1  0  0  0
 12 13  2  0  0  0
 12 97  1  0  0  0
 13 14  1  0  0  0
 13 31  1  0  0  0
 14 15  2  0  0  0
 14 98  1  0  0  0
 15 99  1  0  0  0
 16 17  2  0  0  0
 16 21  1  0  0  0
 16 31  1  0  0  0
 17 18  1  0  0  0
 17100  1  0  0  0
 18 19  2  0  0  0
 18101  1  0  0  0
 19 20  1  0  0  0
 19 24  1  0  0  0
 20 21  2  0  0  0
 20102  1  0  0  0
 21 23  1  0  0  0
 22 28  1  0  0  0
 22 32  2  0  0  0
 26 27  1  0  0  0
 28103  1  0  0  0
 28104  1  0  0  0
 29105  1  0  0  0
 29106  1  0  0  0
 33 34  1  0  0  0
 33 66  1  0  0  0
 33 70  2  0  0  0
 34 36  1  0  0  0
 34 59  1  0  0  0
 34107  1  0  0  0
 35 44  2  0  0  0
 35 45  1  0  0  0
 35 68  1  0  0  0
 36 56  1  0  0  0
 36108  1  0  0  0
 37 39  1  0  0  0
 37 47  1  0  0  0
 37 66  1  0  0  0
 37109  1  0  0  0
 38 43  2  0  0  0
 38 46  1  0  0  0
 38 47  1  0  0  0
 39 64  1  0  0  0
 39 67  2  0  0  0
 40 52  1  0  0  0
 40 53  2  0  0  0
 40 58  1  0  0  0
 41110  1  0  0  0
 41111  1  0  0  0
 41112  1  0  0  0
 41 48  1  0  0  0
 42 43  1  0  0  0
 42 66  1  0  0  0
 42113  1  0  0  0
 42114  1  0  0  0
 43 44  1  0  0  0
 44115  1  0  0  0
 45 46  2  0  0  0
 45116  1  0  0  0
 46117  1  0  0  0
 47118  1  0  0  0
 47119  1  0  0  0
 48 56  1  0  0  0
 48 65  1  0  0  0
 48120  1  0  0  0
 49 50  1  0  0  0
 49 53  1  0  0  0
 49 64  1  0  0  0
 49121  1  0  0  0
 50 51  1  0  0  0
 50122  1  0  0  0
 50123  1  0  0  0
 51 52  1  0  0  0
 51124  1  0  0  0
 51125  1  0  0  0
 52126  1  0  0  0
 52127  1  0  0  0
 53 54  1  0  0  0
 54 55  2  0  0  0
 54128  1  0  0  0
 55 57  1  0  0  0
 55129  1  0  0  0
 56 69  2  0  0  0
 57 58  2  0  0  0
 57130  1  0  0  0
 58131  1  0  0  0
 59 60  1  0  0  0
 59 61  1  0  0  0
 59 62  1  0  0  0
 60132  1  0  0  0
 60133  1  0  0  0
 60134  1  0  0  0
 61135  1  0  0  0
 61136  1  0  0  0
 61137  1  0  0  0
 62138  1  0  0  0
 62139  1  0  0  0
 62140  1  0  0  0
 63 65  1  0  0  0
 63141  1  0  0  0
 63142  1  0  0  0
 63143  1  0  0  0
 64144  1  0  0  0
 65145  1  0  0  0
 68 81  1  0  0  0
 71 72  2  0  0  0
 71 74  1  0  0  0
 71146  1  0  0  0
 72 76  1  0  0  0
 72147  1  0  0  0
 73 75  1  0  0  0
 73 76  2  0  0  0
 73148  1  0  0  0
 74 75  2  0  0  0
 74 77  1  0  0  0
 75 83  1  0  0  0
 76 85  1  0  0  0
 77 78  2  0  0  0
 77149  1  0  0  0
 78 84  1  0  0  0
 78150  1  0  0  0
 79 81  1  0  0  0
 79 86  1  0  0  0
 79151  1  0  0  0
 79152  1  0  0  0
 80 81  1  0  0  0
 80 86  1  0  0  0
 80153  1  0  0  0
 80154  1  0  0  0
 81155  1  0  0  0
 82 84  1  0  0  0
 82156  1  0  0  0
 82157  1  0  0  0
 82158  1  0  0  0
 83159  1  0  0  0
 83160  1  0  0  0
 83 86  1  0  0  0
 84161  1  0  0  0
 84162  1  0  0  0
 85163  1  0  0  0
 86164  1  0  0  0
M  CHG  1  86   1
M  ISO  4   1 100  68 101  81 101  85 100
M  END
> <chiral flag>
0

> <version>
0

> <s_m_source_file>
/data/baiqing/PycharmProjects/Reinvent-master-3.2/result/LINK_invent/BTK/process_docking_weight1_custom_product_contain_oxygen_bond_distance_aromatic_linkinvent_7_9_3/rearranged_h_0027.sdf

> <i_m_source_file_index>
73

> <r_mmod_Potential_Energy-OPLS-2005>
128.50080871582

> <r_mmod_Stretch_Energy-OPLS-2005>
167.025955200195

> <r_mmod_Bend_Energy-OPLS-2005>
229.014175415039

> <r_mmod_Torsional_Energy-OPLS-2005>
270.396636962891

> <r_mmod_Improper_Torsional_Energy-OPLS-2005>
9.36699867248535

> <r_mmod_Van_der_Waal_Energy-OPLS-2005>
129.171310424805

> <r_mmod_Electrostatic_Energy-OPLS-2005>
-327.204467773438

> <r_mmod_Solvation_Energy-OPLS-2005>
-477.555847167969

> <b_mmod_Minimization_Converged-OPLS-2005>
0

> <r_mmod_RMS_Derivative-OPLS-2005>
0.991677105426788

$$$$
74
                    3D
 Structure written by MMmdl.
170179  0  0  1  0            999 V2000
  -30.6731  -14.5532   20.5192 C   0  0  0  0  0  0
  -30.4241  -12.3400   19.4538 C   0  0  0  0  0  0
  -29.5020  -12.4921   18.2253 C   0  0  0  0  0  0
  -28.0257  -12.3399   18.6380 C   0  0  0  0  0  0
  -27.6550  -13.2111   19.8678 C   0  0  2  0  0  0
  -28.6959  -13.0560   21.0013 C   0  0  0  0  0  0
  -25.2561  -13.8166   20.5687 C   0  0  0  0  0  0
  -24.1826  -13.0445   20.9205 C   0  0  0  0  0  0
  -24.6388  -11.6911   20.8759 C   0  0  0  0  0  0
  -23.9069  -10.4293   21.0423 C   0  0  0  0  0  0
  -24.3616   -9.4203   21.9195 C   0  0  0  0  0  0
  -23.6285   -8.2238   22.0756 C   0  0  0  0  0  0
  -22.4271   -8.0283   21.3543 C   0  0  0  0  0  0
  -21.9912   -9.0263   20.4644 C   0  0  0  0  0  0
  -22.7243  -10.2136   20.3061 C   0  0  0  0  0  0
  -21.6847   -6.0738   22.5277 C   0  0  0  0  0  0
  -21.4008   -6.5640   23.8213 C   0  0  0  0  0  0
  -21.3659   -5.6790   24.9173 C   0  0  0  0  0  0
  -21.6047   -4.3054   24.7223 C   0  0  0  0  0  0
  -21.8821   -3.8148   23.4345 C   0  0  0  0  0  0
  -21.9187   -4.6965   22.3399 C   0  0  0  0  0  0
  -22.7852  -13.5246   21.1869 C   0  0  0  0  0  0
  -22.1661   -4.2162   21.0974 F   0  0  0  0  0  0
  -21.5629   -3.4532   25.7733 F   0  0  0  0  0  0
  -30.0212  -13.3580   20.4412 N   0  0  0  0  0  0
  -26.2989  -12.9344   20.3337 N   0  0  0  0  0  0
  -25.9312  -11.6509   20.5778 N   0  0  0  0  0  0
  -22.0477  -12.8232   22.0408 N   0  0  0  0  0  0
  -25.4292  -15.1881   20.4071 N   0  0  0  0  0  0
  -31.8271  -14.6973   20.1085 O   0  0  0  0  0  0
  -21.6631   -6.8881   21.4241 O   0  0  0  0  0  0
  -22.3550  -14.5562   20.6721 O   0  0  0  0  0  0
  -24.6170  -31.8658   23.2069 C   0  0  0  0  0  0
  -25.9060  -32.4799   23.8377 C   0  0  1  0  0  0
  -27.2302  -27.3972   20.1134 C   0  0  0  0  0  0
  -25.5907  -33.8595   24.2301 N   0  0  0  0  0  0
  -23.4072  -30.4875   21.5475 C   0  0  2  0  0  0
  -24.8558  -28.9439   20.1198 C   0  0  0  0  0  0
  -22.7418  -29.4651   22.4973 C   0  0  0  0  0  0
  -18.0269  -28.1393   22.8477 C   0  0  0  0  0  0
  -24.1494  -36.7306   23.2638 C   0  0  0  0  0  0
  -25.9387  -30.8176   21.3689 C   0  0  0  0  0  0
  -26.0160  -29.4453   20.7252 C   0  0  0  0  0  0
  -27.2069  -28.6763   20.7250 C   0  0  0  0  0  0
  -26.0622  -26.9275   19.4825 C   0  0  0  0  0  0
  -24.8748  -27.6829   19.4977 C   0  0  0  0  0  0
  -23.6188  -29.8147   20.1648 C   0  0  0  0  0  0
  -25.4114  -36.3095   24.0336 C   0  0  1  0  0  0
  -20.5863  -28.3676   23.1307 C   0  0  2  0  0  0
  -20.6771  -26.9411   22.5418 C   0  0  0  0  0  0
  -19.5747  -26.6382   21.5216 C   0  0  0  0  0  0
  -18.1916  -26.7932   22.1618 C   0  0  0  0  0  0
  -19.1527  -28.8848   23.2885 C   0  0  0  0  0  0
  -18.9458  -30.1444   23.8903 C   0  0  0  0  0  0
  -17.6471  -30.6596   24.0564 C   0  0  0  0  0  0
  -25.9046  -34.9464   23.5112 C   0  0  0  0  0  0
  -16.5356  -29.9100   23.6339 C   0  0  0  0  0  0
  -16.7268  -28.6527   23.0343 C   0  0  0  0  0  0
  -26.4473  -31.6592   25.0726 C   0  0  0  0  0  0
  -25.3715  -31.3736   26.1468 C   0  0  0  0  0  0
  -27.0316  -30.3030   24.6127 C   0  0  0  0  0  0
  -27.6046  -32.4323   25.7480 C   0  0  0  0  0  0
  -27.5579  -37.1795   24.8460 C   0  0  0  0  0  0
  -21.4141  -29.3039   22.3712 N   0  0  0  0  0  0
  -26.4293  -37.3786   23.9404 N   0  0  0  0  0  0
  -24.6724  -31.0730   22.0986 N   0  0  0  0  0  0
  -23.4175  -28.8204   23.3035 O   0  0  0  0  0  0
  -28.3782  -26.6332   20.0328 O   0  0  0  0  0  0
  -26.5612  -34.8924   22.4674 O   0  0  0  0  0  0
  -23.5354  -32.1426   23.7430 O   0  0  0  0  0  0
  -28.9004  -23.1102   20.7949 C   0  0  0  0  0  0
  -26.9664  -21.6431   20.9498 C   0  0  0  0  0  0
  -26.6833  -24.0668   21.0994 C   0  0  0  0  0  0
  -28.3709  -21.7805   20.8024 C   0  0  0  0  0  0
  -28.0693  -24.2621   20.9481 C   0  0  0  0  0  0
  -26.1346  -22.7729   21.0865 C   0  0  0  0  0  0
  -29.6590  -18.1126   21.4982 C   0  0  0  0  0  0
  -29.9904  -18.1972   22.8124 C   0  0  0  0  0  0
  -28.3326  -17.5282   18.9518 C   0  0  0  0  0  0
  -29.8420  -17.3379   19.0444 C   0  0  0  0  0  0
  -27.8525  -18.7538   19.7461 C   0  0  0  0  0  0
  -30.2334  -17.0568   20.5040 C   0  0  2  0  0  0
  -29.4301  -19.2384   23.7733 C   0  0  0  0  0  0
  -31.0021  -17.2821   23.4853 C   0  0  0  0  0  0
  -29.3209  -20.5470   20.6708 C   0  0  0  0  0  0
  -28.6466  -25.6885   21.0922 C   0  0  0  0  0  0
  -29.9164  -15.6345   20.8448 N   0  0  0  0  0  0
  -28.7306  -19.1721   20.8814 N   0  3  2  0  0  0
  -24.4303  -22.5711   21.2659 Cl  0  0  0  0  0  0
  -31.4701  -12.4370   19.1566 H   0  0  0  0  0  0
  -30.3299  -11.3427   19.8862 H   0  0  0  0  0  0
  -29.7562  -11.7466   17.4707 H   0  0  0  0  0  0
  -29.6578  -13.4671   17.7610 H   0  0  0  0  0  0
  -27.8604  -11.2875   18.8725 H   0  0  0  0  0  0
  -27.3700  -12.5704   17.7979 H   0  0  0  0  0  0
  -27.6798  -14.2459   19.5290 H   0  0  0  0  0  0
  -28.6832  -12.0399   21.3979 H   0  0  0  0  0  0
  -28.4547  -13.7069   21.8432 H   0  0  0  0  0  0
  -25.2759   -9.5674   22.4773 H   0  0  0  0  0  0
  -23.9994   -7.4628   22.7472 H   0  0  0  0  0  0
  -21.0846   -8.8786   19.8943 H   0  0  0  0  0  0
  -22.3716  -10.9682   19.6174 H   0  0  0  0  0  0
  -21.2000   -7.6146   23.9726 H   0  0  0  0  0  0
  -21.1481   -6.0513   25.9078 H   0  0  0  0  0  0
  -22.0599   -2.7614   23.2836 H   0  0  0  0  0  0
  -22.4059  -11.9859   22.4764 H   0  0  0  0  0  0
  -21.1113  -13.1294   22.2643 H   0  0  0  0  0  0
  -24.6544  -15.8370   20.4873 H   0  0  0  0  0  0
  -26.2616  -15.6063   20.0184 H   0  0  0  0  0  0
  -26.7128  -32.5519   23.1132 H   0  0  0  0  0  0
  -25.0064  -33.9749   25.0453 H   0  0  0  0  0  0
  -22.6989  -31.3055   21.4023 H   0  0  0  0  0  0
  -23.3760  -35.9635   23.3305 H   0  0  0  0  0  0
  -24.3596  -36.8932   22.2053 H   0  0  0  0  0  0
  -23.7245  -37.6502   23.6675 H   0  0  0  0  0  0
  -26.0552  -31.5761   20.5939 H   0  0  0  0  0  0
  -26.8248  -30.8746   21.9892 H   0  0  0  0  0  0
  -28.1055  -29.0587   21.1871 H   0  0  0  0  0  0
  -26.0756  -25.9697   18.9816 H   0  0  0  0  0  0
  -23.9862  -27.2947   19.0201 H   0  0  0  0  0  0
  -23.7292  -30.5876   19.4033 H   0  0  0  0  0  0
  -22.7413  -29.2357   19.8692 H   0  0  0  0  0  0
  -25.1284  -36.1949   25.0831 H   0  0  0  0  0  0
  -20.9939  -28.3260   24.1431 H   0  0  0  0  0  0
  -20.5697  -26.2281   23.3609 H   0  0  0  0  0  0
  -21.6635  -26.7461   22.1193 H   0  0  0  0  0  0
  -19.6927  -25.6290   21.1246 H   0  0  0  0  0  0
  -19.6701  -27.3189   20.6743 H   0  0  0  0  0  0
  -17.4186  -26.6686   21.4014 H   0  0  0  0  0  0
  -18.0302  -26.0067   22.9004 H   0  0  0  0  0  0
  -19.7938  -30.7250   24.2273 H   0  0  0  0  0  0
  -17.5030  -31.6269   24.5172 H   0  0  0  0  0  0
  -15.5359  -30.3012   23.7665 H   0  0  0  0  0  0
  -15.8656  -28.0864   22.7046 H   0  0  0  0  0  0
  -24.5888  -30.7078   25.7816 H   0  0  0  0  0  0
  -24.8899  -32.2905   26.4876 H   0  0  0  0  0  0
  -25.8033  -30.8937   27.0253 H   0  0  0  0  0  0
  -26.2870  -29.6781   24.1174 H   0  0  0  0  0  0
  -27.4074  -29.7287   25.4603 H   0  0  0  0  0  0
  -27.8715  -30.4352   23.9300 H   0  0  0  0  0  0
  -27.2669  -33.3635   26.2042 H   0  0  0  0  0  0
  -28.3855  -32.6854   25.0297 H   0  0  0  0  0  0
  -28.0709  -31.8452   26.5398 H   0  0  0  0  0  0
  -28.2578  -38.0103   24.7508 H   0  0  0  0  0  0
  -28.1083  -36.2628   24.6276 H   0  0  0  0  0  0
  -27.2300  -37.1443   25.8863 H   0  0  0  0  0  0
  -20.9315  -29.8759   21.6926 H   0  0  0  0  0  0
  -26.0187  -38.2865   24.1401 H   0  0  0  0  0  0
  -29.9686  -23.2521   20.6977 H   0  0  0  0  0  0
  -26.4828  -20.6798   20.9761 H   0  0  0  0  0  0
  -26.0299  -24.9117   21.2557 H   0  0  0  0  0  0
  -27.8321  -16.6370   19.3267 H   0  0  0  0  0  0
  -28.0257  -17.6194   17.9096 H   0  0  0  0  0  0
  -30.3557  -18.2288   18.6807 H   0  0  0  0  0  0
  -30.1651  -16.5258   18.3904 H   0  0  0  0  0  0
  -26.8584  -18.5399   20.1403 H   0  0  0  0  0  0
  -27.7147  -19.5870   19.0539 H   0  0  0  0  0  0
  -31.3174  -17.1737   20.5585 H   0  0  0  0  0  0
  -28.5877  -19.8055   23.3823 H   0  0  0  0  0  0
  -30.2115  -19.9459   24.0531 H   0  0  0  0  0  0
  -29.0867  -18.7532   24.6880 H   0  0  0  0  0  0
  -31.4675  -16.5706   22.8070 H   0  0  0  0  0  0
  -30.5278  -16.7164   24.2873 H   0  0  0  0  0  0
  -31.8052  -17.8769   23.9226 H   0  0  0  0  0  0
  -30.1206  -20.6964   21.3969 H   0  0  0  0  0  0
  -29.8075  -20.5759   19.6945 H   0  0  0  0  0  0
  -29.7307  -25.6120   21.1794 H   0  0  0  0  0  0
  -28.3127  -26.1028   22.0450 H   0  0  0  0  0  0
  -28.9902  -15.4369   21.1925 H   0  0  0  0  0  0
  -28.0668  -19.3648   21.6153 H   0  0  0  0  0  0
  1 25  1  0  0  0
  1 30  2  0  0  0
  1 87  1  0  0  0
  2  3  1  0  0  0
  2 25  1  0  0  0
  2 90  1  0  0  0
  2 91  1  0  0  0
  3  4  1  0  0  0
  3 92  1  0  0  0
  3 93  1  0  0  0
  4  5  1  0  0  0
  4 94  1  0  0  0
  4 95  1  0  0  0
  5  6  1  0  0  0
  5 26  1  0  0  0
  5 96  1  0  0  0
  6 25  1  0  0  0
  6 97  1  0  0  0
  6 98  1  0  0  0
  7  8  2  0  0  0
  7 26  1  0  0  0
  7 29  1  0  0  0
  8  9  1  0  0  0
  8 22  1  0  0  0
  9 10  1  0  0  0
  9 27  2  0  0  0
 10 11  2  0  0  0
 10 15  1  0  0  0
 11 12  1  0  0  0
 11 99  1  0  0  0
 12 13  2  0  0  0
 12100  1  0  0  0
 13 14  1  0  0  0
 13 31  1  0  0  0
 14 15  2  0  0  0
 14101  1  0  0  0
 15102  1  0  0  0
 16 17  2  0  0  0
 16 21  1  0  0  0
 16 31  1  0  0  0
 17 18  1  0  0  0
 17103  1  0  0  0
 18 19  2  0  0  0
 18104  1  0  0  0
 19 20  1  0  0  0
 19 24  1  0  0  0
 20 21  2  0  0  0
 20105  1  0  0  0
 21 23  1  0  0  0
 22 28  1  0  0  0
 22 32  2  0  0  0
 26 27  1  0  0  0
 28106  1  0  0  0
 28107  1  0  0  0
 29108  1  0  0  0
 29109  1  0  0  0
 33 34  1  0  0  0
 33 66  1  0  0  0
 33 70  2  0  0  0
 34 36  1  0  0  0
 34 59  1  0  0  0
 34110  1  0  0  0
 35 44  2  0  0  0
 35 45  1  0  0  0
 35 68  1  0  0  0
 36 56  1  0  0  0
 36111  1  0  0  0
 37 39  1  0  0  0
 37 47  1  0  0  0
 37 66  1  0  0  0
 37112  1  0  0  0
 38 43  2  0  0  0
 38 46  1  0  0  0
 38 47  1  0  0  0
 39 64  1  0  0  0
 39 67  2  0  0  0
 40 52  1  0  0  0
 40 53  2  0  0  0
 40 58  1  0  0  0
 41113  1  0  0  0
 41114  1  0  0  0
 41115  1  0  0  0
 41 48  1  0  0  0
 42 43  1  0  0  0
 42 66  1  0  0  0
 42116  1  0  0  0
 42117  1  0  0  0
 43 44  1  0  0  0
 44118  1  0  0  0
 45 46  2  0  0  0
 45119  1  0  0  0
 46120  1  0  0  0
 47121  1  0  0  0
 47122  1  0  0  0
 48 56  1  0  0  0
 48 65  1  0  0  0
 48123  1  0  0  0
 49 50  1  0  0  0
 49 53  1  0  0  0
 49 64  1  0  0  0
 49124  1  0  0  0
 50 51  1  0  0  0
 50125  1  0  0  0
 50126  1  0  0  0
 51 52  1  0  0  0
 51127  1  0  0  0
 51128  1  0  0  0
 52129  1  0  0  0
 52130  1  0  0  0
 53 54  1  0  0  0
 54 55  2  0  0  0
 54131  1  0  0  0
 55 57  1  0  0  0
 55132  1  0  0  0
 56 69  2  0  0  0
 57 58  2  0  0  0
 57133  1  0  0  0
 58134  1  0  0  0
 59 60  1  0  0  0
 59 61  1  0  0  0
 59 62  1  0  0  0
 60135  1  0  0  0
 60136  1  0  0  0
 60137  1  0  0  0
 61138  1  0  0  0
 61139  1  0  0  0
 61140  1  0  0  0
 62141  1  0  0  0
 62142  1  0  0  0
 62143  1  0  0  0
 63 65  1  0  0  0
 63144  1  0  0  0
 63145  1  0  0  0
 63146  1  0  0  0
 64147  1  0  0  0
 65148  1  0  0  0
 68 86  1  0  0  0
 71 74  2  0  0  0
 71 75  1  0  0  0
 71149  1  0  0  0
 72 74  1  0  0  0
 72 76  2  0  0  0
 72150  1  0  0  0
 73 75  2  0  0  0
 73 76  1  0  0  0
 73151  1  0  0  0
 74 85  1  0  0  0
 75 86  1  0  0  0
 76 89  1  0  0  0
 77 78  2  0  0  0
 77 82  1  0  0  0
 77 88  1  0  0  0
 78 83  1  0  0  0
 78 84  1  0  0  0
 79 80  1  0  0  0
 79 81  1  0  0  0
 79152  1  0  0  0
 79153  1  0  0  0
 80 82  1  0  0  0
 80154  1  0  0  0
 80155  1  0  0  0
 81 88  1  0  0  0
 81156  1  0  0  0
 81157  1  0  0  0
 82 87  1  0  0  0
 82158  1  0  0  0
 83159  1  0  0  0
 83160  1  0  0  0
 83161  1  0  0  0
 84162  1  0  0  0
 84163  1  0  0  0
 84164  1  0  0  0
 85165  1  0  0  0
 85166  1  0  0  0
 85 88  1  0  0  0
 86167  1  0  0  0
 86168  1  0  0  0
 87169  1  0  0  0
 88170  1  0  0  0
M  CHG  1  88   1
M  ISO  4   1 100  68 101  86 101  87 100
M  END
> <chiral flag>
0

> <version>
0

> <s_m_source_file>
/data/baiqing/PycharmProjects/Reinvent-master-3.2/result/LINK_invent/BTK/process_docking_weight1_custom_product_contain_oxygen_bond_distance_aromatic_linkinvent_7_9_3/rearranged_h_0027.sdf

> <i_m_source_file_index>
74

> <r_mmod_Potential_Energy-OPLS-2005>
-112.428009033203

> <r_mmod_Stretch_Energy-OPLS-2005>
59.3683090209961

> <r_mmod_Bend_Energy-OPLS-2005>
126.212196350098

> <r_mmod_Torsional_Energy-OPLS-2005>
273.356903076172

> <r_mmod_Improper_Torsional_Energy-OPLS-2005>
6.72958469390869

> <r_mmod_Van_der_Waal_Energy-OPLS-2005>
140.353820800781

> <r_mmod_Electrostatic_Energy-OPLS-2005>
-287.489105224609

> <r_mmod_Solvation_Energy-OPLS-2005>
-453.586975097656

> <b_mmod_Minimization_Converged-OPLS-2005>
0

> <r_mmod_RMS_Derivative-OPLS-2005>
1.91655266284943

$$$$
75
                    3D
 Structure written by MMmdl.
162171  0  0  1  0            999 V2000
  -30.6910  -14.6651   20.4243 C   0  0  0  0  0  0
  -30.4226  -12.3958   19.4570 C   0  0  0  0  0  0
  -29.4926  -12.4135   18.2270 C   0  0  0  0  0  0
  -28.0170  -12.3025   18.6495 C   0  0  0  0  0  0
  -27.6400  -13.2287   19.8382 C   0  0  2  0  0  0
  -28.6946  -13.1845   20.9632 C   0  0  0  0  0  0
  -25.2530  -13.8217   20.5716 C   0  0  0  0  0  0
  -24.1807  -13.0467   20.9211 C   0  0  0  0  0  0
  -24.6389  -11.6940   20.8771 C   0  0  0  0  0  0
  -23.9067  -10.4307   21.0420 C   0  0  0  0  0  0
  -24.3620   -9.4215   21.9191 C   0  0  0  0  0  0
  -23.6295   -8.2249   22.0758 C   0  0  0  0  0  0
  -22.4277   -8.0286   21.3546 C   0  0  0  0  0  0
  -21.9912   -9.0264   20.4650 C   0  0  0  0  0  0
  -22.7243  -10.2143   20.3062 C   0  0  0  0  0  0
  -21.6856   -6.0730   22.5269 C   0  0  0  0  0  0
  -21.4019   -6.5634   23.8202 C   0  0  0  0  0  0
  -21.3662   -5.6789   24.9166 C   0  0  0  0  0  0
  -21.6045   -4.3052   24.7220 C   0  0  0  0  0  0
  -21.8821   -3.8142   23.4341 C   0  0  0  0  0  0
  -21.9195   -4.6956   22.3395 C   0  0  0  0  0  0
  -22.7823  -13.5243   21.1856 C   0  0  0  0  0  0
  -22.1664   -4.2142   21.0973 F   0  0  0  0  0  0
  -21.5631   -3.4538   25.7735 F   0  0  0  0  0  0
  -29.9897  -13.4899   20.3479 N   0  0  0  0  0  0
  -26.2948  -12.9421   20.3302 N   0  0  0  0  0  0
  -25.9322  -11.6569   20.5810 N   0  0  0  0  0  0
  -22.0466  -12.8230   22.0411 N   0  0  0  0  0  0
  -25.4258  -15.1934   20.4138 N   0  0  0  0  0  0
  -31.9175  -14.6477   20.2902 O   0  0  0  0  0  0
  -21.6647   -6.8877   21.4233 O   0  0  0  0  0  0
  -22.3505  -14.5541   20.6694 O   0  0  0  0  0  0
  -24.6276  -31.8616   23.2056 C   0  0  0  0  0  0
  -25.9126  -32.4787   23.8377 C   0  0  1  0  0  0
  -27.2105  -27.3141   20.1148 C   0  0  0  0  0  0
  -25.5945  -33.8587   24.2304 N   0  0  0  0  0  0
  -23.4197  -30.4897   21.5489 C   0  0  2  0  0  0
  -24.8624  -28.9541   20.1088 C   0  0  0  0  0  0
  -22.7484  -29.4637   22.4936 C   0  0  0  0  0  0
  -18.0291  -28.1381   22.8485 C   0  0  0  0  0  0
  -24.1490  -36.7294   23.2637 C   0  0  0  0  0  0
  -25.9636  -30.7923   21.3777 C   0  0  0  0  0  0
  -26.0350  -29.4225   20.7150 C   0  0  0  0  0  0
  -27.2131  -28.6155   20.7076 C   0  0  0  0  0  0
  -26.0105  -26.9104   19.4801 C   0  0  0  0  0  0
  -24.8531  -27.7035   19.4816 C   0  0  0  0  0  0
  -23.6330  -29.8351   20.1609 C   0  0  0  0  0  0
  -25.4113  -36.3089   24.0332 C   0  0  1  0  0  0
  -20.5894  -28.3689   23.1277 C   0  0  2  0  0  0
  -20.6782  -26.9413   22.5404 C   0  0  0  0  0  0
  -19.5755  -26.6382   21.5209 C   0  0  0  0  0  0
  -18.1935  -26.7924   22.1622 C   0  0  0  0  0  0
  -19.1544  -28.8851   23.2876 C   0  0  0  0  0  0
  -18.9466  -30.1454   23.8894 C   0  0  0  0  0  0
  -17.6465  -30.6582   24.0563 C   0  0  0  0  0  0
  -25.9053  -34.9457   23.5112 C   0  0  0  0  0  0
  -16.5356  -29.9080   23.6329 C   0  0  0  0  0  0
  -16.7278  -28.6496   23.0351 C   0  0  0  0  0  0
  -26.4504  -31.6589   25.0744 C   0  0  0  0  0  0
  -25.3737  -31.3725   26.1469 C   0  0  0  0  0  0
  -27.0344  -30.3014   24.6193 C   0  0  0  0  0  0
  -27.6065  -32.4320   25.7514 C   0  0  0  0  0  0
  -27.5581  -37.1805   24.8465 C   0  0  0  0  0  0
  -21.4198  -29.3045   22.3674 N   0  0  0  0  0  0
  -26.4292  -37.3783   23.9410 N   0  0  0  0  0  0
  -24.6895  -31.0636   22.1008 N   0  0  0  0  0  0
  -23.4209  -28.8166   23.3005 O   0  0  0  0  0  0
  -28.3134  -26.4412   20.1854 O   0  0  0  0  0  0
  -26.5608  -34.8920   22.4673 O   0  0  0  0  0  0
  -23.5439  -32.1415   23.7380 O   0  0  0  0  0  0
  -28.3139  -18.8062   19.9637 C   0  0  0  0  0  0
  -28.1174  -20.1904   19.6974 C   0  0  0  0  0  0
  -30.0865  -19.3668   21.4789 C   0  0  0  0  0  0
  -29.3270  -18.3453   20.8408 C   0  0  0  0  0  0
  -28.8838  -21.2191   20.3161 C   0  0  0  0  0  0
  -29.8702  -20.7617   21.2378 C   0  0  0  0  0  0
  -28.1631  -24.4955   18.5800 C   0  0  0  0  0  0
  -28.0515  -22.9649   18.6938 C   0  0  0  0  0  0
  -28.9303  -23.8587   20.7284 C   0  0  0  0  0  0
  -28.0611  -24.9831   20.0326 C   0  0  1  0  0  0
  -30.7233  -15.7712   17.5991 C   0  0  0  0  0  0
  -29.5451  -16.8045   21.1417 C   0  0  0  0  0  0
  -30.5593  -16.5764   18.9012 C   0  0  0  0  0  0
  -28.6608  -22.6045   19.9707 N   0  0  0  0  0  0
  -30.0310  -15.8387   20.0827 N   0  0  0  0  0  0
  -30.6487  -21.6624   21.8871 F   0  0  0  0  0  0
  -31.4613  -12.5000   19.1381 H   0  0  0  0  0  0
  -30.3622  -11.4381   19.9764 H   0  0  0  0  0  0
  -29.7474  -11.5902   17.5585 H   0  0  0  0  0  0
  -29.6380  -13.3174   17.6460 H   0  0  0  0  0  0
  -27.8463  -11.2617   18.9271 H   0  0  0  0  0  0
  -27.3642  -12.4969   17.7980 H   0  0  0  0  0  0
  -27.6333  -14.2437   19.4398 H   0  0  0  0  0  0
  -28.7180  -12.2045   21.4419 H   0  0  0  0  0  0
  -28.4566  -13.9095   21.7434 H   0  0  0  0  0  0
  -25.2766   -9.5691   22.4766 H   0  0  0  0  0  0
  -24.0006   -7.4640   22.7476 H   0  0  0  0  0  0
  -21.0843   -8.8784   19.8955 H   0  0  0  0  0  0
  -22.3703  -10.9683   19.6172 H   0  0  0  0  0  0
  -21.2013   -7.6142   23.9700 H   0  0  0  0  0  0
  -21.1485   -6.0523   25.9069 H   0  0  0  0  0  0
  -22.0600   -2.7603   23.2843 H   0  0  0  0  0  0
  -22.4092  -11.9902   22.4809 H   0  0  0  0  0  0
  -21.1082  -13.1246   22.2611 H   0  0  0  0  0  0
  -24.6641  -15.8531   20.5284 H   0  0  0  0  0  0
  -26.2854  -15.6292   20.1055 H   0  0  0  0  0  0
  -26.7194  -32.5454   23.1126 H   0  0  0  0  0  0
  -25.0114  -33.9736   25.0464 H   0  0  0  0  0  0
  -22.7133  -31.3110   21.4114 H   0  0  0  0  0  0
  -23.3754  -35.9624   23.3302 H   0  0  0  0  0  0
  -24.3584  -36.8909   22.2052 H   0  0  0  0  0  0
  -23.7239  -37.6496   23.6654 H   0  0  0  0  0  0
  -26.0983  -31.5582   20.6126 H   0  0  0  0  0  0
  -26.8434  -30.8365   22.0081 H   0  0  0  0  0  0
  -28.1102  -28.9690   21.1963 H   0  0  0  0  0  0
  -25.9144  -25.9571   18.9888 H   0  0  0  0  0  0
  -23.9550  -27.3384   19.0023 H   0  0  0  0  0  0
  -23.7565  -30.6170   19.4107 H   0  0  0  0  0  0
  -22.7512  -29.2702   19.8531 H   0  0  0  0  0  0
  -25.1290  -36.1947   25.0824 H   0  0  0  0  0  0
  -20.9987  -28.3262   24.1398 H   0  0  0  0  0  0
  -20.5694  -26.2296   23.3603 H   0  0  0  0  0  0
  -21.6650  -26.7445   22.1192 H   0  0  0  0  0  0
  -19.6917  -25.6292   21.1241 H   0  0  0  0  0  0
  -19.6689  -27.3191   20.6738 H   0  0  0  0  0  0
  -17.4204  -26.6673   21.4024 H   0  0  0  0  0  0
  -18.0334  -26.0066   22.9017 H   0  0  0  0  0  0
  -19.7942  -30.7272   24.2262 H   0  0  0  0  0  0
  -17.5018  -31.6262   24.5165 H   0  0  0  0  0  0
  -15.5356  -30.2977   23.7655 H   0  0  0  0  0  0
  -15.8679  -28.0812   22.7067 H   0  0  0  0  0  0
  -24.5908  -30.7078   25.7799 H   0  0  0  0  0  0
  -24.8932  -32.2889   26.4904 H   0  0  0  0  0  0
  -25.8063  -30.8896   27.0241 H   0  0  0  0  0  0
  -26.2917  -29.6768   24.1215 H   0  0  0  0  0  0
  -27.4040  -29.7265   25.4695 H   0  0  0  0  0  0
  -27.8791  -30.4300   23.9422 H   0  0  0  0  0  0
  -27.2679  -33.3616   26.2102 H   0  0  0  0  0  0
  -28.3872  -32.6886   25.0342 H   0  0  0  0  0  0
  -28.0740  -31.8440   26.5423 H   0  0  0  0  0  0
  -28.2598  -38.0102   24.7516 H   0  0  0  0  0  0
  -28.1078  -36.2634   24.6287 H   0  0  0  0  0  0
  -27.2302  -37.1451   25.8869 H   0  0  0  0  0  0
  -20.9374  -29.8779   21.6896 H   0  0  0  0  0  0
  -26.0177  -38.2860   24.1407 H   0  0  0  0  0  0
  -27.6823  -18.0858   19.4621 H   0  0  0  0  0  0
  -27.3385  -20.4476   18.9956 H   0  0  0  0  0  0
  -30.8601  -19.0859   22.1783 H   0  0  0  0  0  0
  -27.4158  -24.9073   17.9042 H   0  0  0  0  0  0
  -29.1396  -24.7662   18.1759 H   0  0  0  0  0  0
  -28.5376  -22.4647   17.8545 H   0  0  0  0  0  0
  -27.0002  -22.6724   18.6979 H   0  0  0  0  0  0
  -28.6770  -23.7532   21.7842 H   0  0  0  0  0  0
  -29.9931  -24.0970   20.6631 H   0  0  0  0  0  0
  -27.0565  -24.7753   20.4040 H   0  0  0  0  0  0
  -31.1570  -16.4020   16.8223 H   0  0  0  0  0  0
  -29.7549  -15.4414   17.2252 H   0  0  0  0  0  0
  -31.3813  -14.9089   17.7030 H   0  0  0  0  0  0
  -28.5919  -16.4178   21.5040 H   0  0  0  0  0  0
  -30.2199  -16.7330   21.9969 H   0  0  0  0  0  0
  -29.9057  -17.3911   18.6109 H   0  0  0  0  0  0
  -31.5132  -17.0344   19.1707 H   0  0  0  0  0  0
  1 25  1  0  0  0
  1 30  2  0  0  0
  1 85  1  0  0  0
  2  3  1  0  0  0
  2 25  1  0  0  0
  2 87  1  0  0  0
  2 88  1  0  0  0
  3  4  1  0  0  0
  3 89  1  0  0  0
  3 90  1  0  0  0
  4  5  1  0  0  0
  4 91  1  0  0  0
  4 92  1  0  0  0
  5  6  1  0  0  0
  5 26  1  0  0  0
  5 93  1  0  0  0
  6 25  1  0  0  0
  6 94  1  0  0  0
  6 95  1  0  0  0
  7  8  2  0  0  0
  7 26  1  0  0  0
  7 29  1  0  0  0
  8  9  1  0  0  0
  8 22  1  0  0  0
  9 10  1  0  0  0
  9 27  2  0  0  0
 10 11  2  0  0  0
 10 15  1  0  0  0
 11 12  1  0  0  0
 11 96  1  0  0  0
 12 13  2  0  0  0
 12 97  1  0  0  0
 13 14  1  0  0  0
 13 31  1  0  0  0
 14 15  2  0  0  0
 14 98  1  0  0  0
 15 99  1  0  0  0
 16 17  2  0  0  0
 16 21  1  0  0  0
 16 31  1  0  0  0
 17 18  1  0  0  0
 17100  1  0  0  0
 18 19  2  0  0  0
 18101  1  0  0  0
 19 20  1  0  0  0
 19 24  1  0  0  0
 20 21  2  0  0  0
 20102  1  0  0  0
 21 23  1  0  0  0
 22 28  1  0  0  0
 22 32  2  0  0  0
 26 27  1  0  0  0
 28103  1  0  0  0
 28104  1  0  0  0
 29105  1  0  0  0
 29106  1  0  0  0
 33 34  1  0  0  0
 33 66  1  0  0  0
 33 70  2  0  0  0
 34 36  1  0  0  0
 34 59  1  0  0  0
 34107  1  0  0  0
 35 44  2  0  0  0
 35 45  1  0  0  0
 35 68  1  0  0  0
 36 56  1  0  0  0
 36108  1  0  0  0
 37 39  1  0  0  0
 37 47  1  0  0  0
 37 66  1  0  0  0
 37109  1  0  0  0
 38 43  2  0  0  0
 38 46  1  0  0  0
 38 47  1  0  0  0
 39 64  1  0  0  0
 39 67  2  0  0  0
 40 52  1  0  0  0
 40 53  2  0  0  0
 40 58  1  0  0  0
 41110  1  0  0  0
 41111  1  0  0  0
 41112  1  0  0  0
 41 48  1  0  0  0
 42 43  1  0  0  0
 42 66  1  0  0  0
 42113  1  0  0  0
 42114  1  0  0  0
 43 44  1  0  0  0
 44115  1  0  0  0
 45 46  2  0  0  0
 45116  1  0  0  0
 46117  1  0  0  0
 47118  1  0  0  0
 47119  1  0  0  0
 48 56  1  0  0  0
 48 65  1  0  0  0
 48120  1  0  0  0
 49 50  1  0  0  0
 49 53  1  0  0  0
 49 64  1  0  0  0
 49121  1  0  0  0
 50 51  1  0  0  0
 50122  1  0  0  0
 50123  1  0  0  0
 51 52  1  0  0  0
 51124  1  0  0  0
 51125  1  0  0  0
 52126  1  0  0  0
 52127  1  0  0  0
 53 54  1  0  0  0
 54 55  2  0  0  0
 54128  1  0  0  0
 55 57  1  0  0  0
 55129  1  0  0  0
 56 69  2  0  0  0
 57 58  2  0  0  0
 57130  1  0  0  0
 58131  1  0  0  0
 59 60  1  0  0  0
 59 61  1  0  0  0
 59 62  1  0  0  0
 60132  1  0  0  0
 60133  1  0  0  0
 60134  1  0  0  0
 61135  1  0  0  0
 61136  1  0  0  0
 61137  1  0  0  0
 62138  1  0  0  0
 62139  1  0  0  0
 62140  1  0  0  0
 63 65  1  0  0  0
 63141  1  0  0  0
 63142  1  0  0  0
 63143  1  0  0  0
 64144  1  0  0  0
 65145  1  0  0  0
 68 80  1  0  0  0
 71 72  2  0  0  0
 71 74  1  0  0  0
 71146  1  0  0  0
 72 75  1  0  0  0
 72147  1  0  0  0
 73 74  2  0  0  0
 73 76  1  0  0  0
 73148  1  0  0  0
 74 82  1  0  0  0
 75 76  2  0  0  0
 75 84  1  0  0  0
 76 86  1  0  0  0
 77 78  1  0  0  0
 77 80  1  0  0  0
 77149  1  0  0  0
 77150  1  0  0  0
 78 84  1  0  0  0
 78151  1  0  0  0
 78152  1  0  0  0
 79 80  1  0  0  0
 79 84  1  0  0  0
 79153  1  0  0  0
 79154  1  0  0  0
 80155  1  0  0  0
 81 83  1  0  0  0
 81156  1  0  0  0
 81157  1  0  0  0
 81158  1  0  0  0
 82 85  1  0  0  0
 82159  1  0  0  0
 82160  1  0  0  0
 83 85  1  0  0  0
 83161  1  0  0  0
 83162  1  0  0  0
M  ISO  4   1 100  68 101  80 101  85 100
M  END
> <chiral flag>
0

> <version>
0

> <s_m_source_file>
/data/baiqing/PycharmProjects/Reinvent-master-3.2/result/LINK_invent/BTK/process_docking_weight1_custom_product_contain_oxygen_bond_distance_aromatic_linkinvent_7_9_3/rearranged_h_0027.sdf

> <i_m_source_file_index>
75

> <r_mmod_Potential_Energy-OPLS-2005>
412.525756835938

> <r_mmod_Stretch_Energy-OPLS-2005>
86.6599578857422

> <r_mmod_Bend_Energy-OPLS-2005>
210.139205932617

> <r_mmod_Torsional_Energy-OPLS-2005>
315.982086181641

> <r_mmod_Improper_Torsional_Energy-OPLS-2005>
22.3618774414062

> <r_mmod_Van_der_Waal_Energy-OPLS-2005>
156.980346679688

> <r_mmod_Electrostatic_Energy-OPLS-2005>
-243.059310913086

> <r_mmod_Solvation_Energy-OPLS-2005>
-208.406799316406

> <b_mmod_Minimization_Converged-OPLS-2005>
0

> <r_mmod_RMS_Derivative-OPLS-2005>
0.663478195667267

$$$$
76
                    3D
 Structure written by MMmdl.
163172  0  0  1  0            999 V2000
  -30.7313  -14.4008   20.6630 C   0  0  0  0  0  0
  -30.4232  -12.2989   19.4023 C   0  0  0  0  0  0
  -29.4885  -12.5061   18.1938 C   0  0  0  0  0  0
  -28.0116  -12.3599   18.6111 C   0  0  0  0  0  0
  -27.6613  -13.1966   19.8692 C   0  0  2  0  0  0
  -28.6956  -12.9454   20.9880 C   0  0  0  0  0  0
  -25.2596  -13.8125   20.5661 C   0  0  0  0  0  0
  -24.1844  -13.0425   20.9172 C   0  0  0  0  0  0
  -24.6377  -11.6879   20.8726 C   0  0  0  0  0  0
  -23.9035  -10.4279   21.0417 C   0  0  0  0  0  0
  -24.3593   -9.4202   21.9197 C   0  0  0  0  0  0
  -23.6269   -8.2233   22.0762 C   0  0  0  0  0  0
  -22.4262   -8.0275   21.3547 C   0  0  0  0  0  0
  -21.9883   -9.0243   20.4658 C   0  0  0  0  0  0
  -22.7201  -10.2125   20.3068 C   0  0  0  0  0  0
  -21.6842   -6.0745   22.5287 C   0  0  0  0  0  0
  -21.4008   -6.5646   23.8226 C   0  0  0  0  0  0
  -21.3658   -5.6801   24.9183 C   0  0  0  0  0  0
  -21.6035   -4.3062   24.7229 C   0  0  0  0  0  0
  -21.8814   -3.8155   23.4346 C   0  0  0  0  0  0
  -21.9188   -4.6970   22.3411 C   0  0  0  0  0  0
  -22.7879  -13.5246   21.1858 C   0  0  0  0  0  0
  -22.1669   -4.2162   21.0988 F   0  0  0  0  0  0
  -21.5617   -3.4548   25.7738 F   0  0  0  0  0  0
  -30.0339  -13.2545   20.4502 N   0  0  0  0  0  0
  -26.3008  -12.9272   20.3295 N   0  0  0  0  0  0
  -25.9295  -11.6439   20.5708 N   0  0  0  0  0  0
  -22.0505  -12.8258   22.0397 N   0  0  0  0  0  0
  -25.4318  -15.1844   20.4093 N   0  0  0  0  0  0
  -31.8001  -14.6569   20.1030 O   0  0  0  0  0  0
  -21.6628   -6.8876   21.4246 O   0  0  0  0  0  0
  -22.3584  -14.5567   20.6710 O   0  0  0  0  0  0
  -24.6111  -31.8680   23.2111 C   0  0  0  0  0  0
  -25.9032  -32.4810   23.8392 C   0  0  1  0  0  0
  -27.2307  -27.4686   20.0795 C   0  0  0  0  0  0
  -25.5902  -33.8606   24.2334 N   0  0  0  0  0  0
  -23.3991  -30.4942   21.5491 C   0  0  2  0  0  0
  -24.8472  -28.9658   20.1096 C   0  0  0  0  0  0
  -22.7397  -29.4658   22.4953 C   0  0  0  0  0  0
  -18.0255  -28.1366   22.8469 C   0  0  0  0  0  0
  -24.1486  -36.7342   23.2622 C   0  0  0  0  0  0
  -25.9257  -30.8417   21.3648 C   0  0  0  0  0  0
  -26.0045  -29.4788   20.7123 C   0  0  0  0  0  0
  -27.2019  -28.7327   20.7057 C   0  0  0  0  0  0
  -26.0685  -26.9625   19.4706 C   0  0  0  0  0  0
  -24.8717  -27.7022   19.4919 C   0  0  0  0  0  0
  -23.6087  -29.8298   20.1603 C   0  0  0  0  0  0
  -25.4087  -36.3091   24.0317 C   0  0  1  0  0  0
  -20.5850  -28.3668   23.1289 C   0  0  2  0  0  0
  -20.6748  -26.9398   22.5416 C   0  0  0  0  0  0
  -19.5740  -26.6371   21.5202 C   0  0  0  0  0  0
  -18.1913  -26.7917   22.1596 C   0  0  0  0  0  0
  -19.1503  -28.8837   23.2880 C   0  0  0  0  0  0
  -18.9446  -30.1441   23.8897 C   0  0  0  0  0  0
  -17.6452  -30.6573   24.0576 C   0  0  0  0  0  0
  -25.8993  -34.9453   23.5103 C   0  0  0  0  0  0
  -16.5339  -29.9080   23.6324 C   0  0  0  0  0  0
  -16.7247  -28.6497   23.0333 C   0  0  0  0  0  0
  -26.4442  -31.6563   25.0704 C   0  0  0  0  0  0
  -25.3703  -31.3661   26.1455 C   0  0  0  0  0  0
  -27.0244  -30.2997   24.6073 C   0  0  0  0  0  0
  -27.6012  -32.4259   25.7520 C   0  0  0  0  0  0
  -27.5553  -37.1799   24.8473 C   0  0  0  0  0  0
  -21.4120  -29.3035   22.3692 N   0  0  0  0  0  0
  -26.4276  -37.3762   23.9405 N   0  0  0  0  0  0
  -24.6632  -31.0820   22.0998 N   0  0  0  0  0  0
  -23.4171  -28.8185   23.2977 O   0  0  0  0  0  0
  -28.3621  -26.6977   20.0507 O   0  0  0  0  0  0
  -26.5525  -34.8899   22.4651 O   0  0  0  0  0  0
  -23.5313  -32.1414   23.7527 O   0  0  0  0  0  0
  -28.9388  -19.2341   20.0992 C   0  0  0  0  0  0
  -29.2231  -17.9996   20.7228 C   0  0  0  0  0  0
  -31.2119  -19.9783   20.5388 C   0  0  0  0  0  0
  -29.9260  -20.2430   20.0160 C   0  0  0  0  0  0
  -30.4937  -17.7552   21.2865 C   0  0  0  0  0  0
  -31.4898  -18.7531   21.1810 C   0  0  0  0  0  0
  -30.8172  -25.0047   20.3664 C   0  0  0  0  0  0
  -31.0493  -23.6038   19.7625 C   0  0  0  0  0  0
  -28.8168  -23.6771   20.5284 C   0  0  0  0  0  0
  -29.5254  -24.8755   21.1822 C   0  0  2  0  0  0
  -30.7769  -16.4695   22.0668 C   0  0  0  0  0  0
  -29.6070  -21.5835   19.3462 C   0  0  0  0  0  0
  -28.7152  -26.1791   21.3270 C   0  0  0  0  0  0
  -30.1682  -15.2503   21.5333 N   0  0  0  0  0  0
  -29.9257  -22.7485   20.2187 N   0  3  1  0  0  0
  -32.7186  -18.5488   21.7120 F   0  0  0  0  0  0
  -31.4649  -12.4110   19.0985 H   0  0  0  0  0  0
  -30.3359  -11.2800   19.7823 H   0  0  0  0  0  0
  -29.7238  -11.7851   17.4098 H   0  0  0  0  0  0
  -29.6552  -13.4934   17.7615 H   0  0  0  0  0  0
  -27.8304  -11.3027   18.8125 H   0  0  0  0  0  0
  -27.3553  -12.6271   17.7817 H   0  0  0  0  0  0
  -27.7156  -14.2476   19.5820 H   0  0  0  0  0  0
  -28.6648  -11.9000   21.2989 H   0  0  0  0  0  0
  -28.4373  -13.5113   21.8815 H   0  0  0  0  0  0
  -25.2738   -9.5686   22.4774 H   0  0  0  0  0  0
  -23.9989   -7.4624   22.7475 H   0  0  0  0  0  0
  -21.0815   -8.8739   19.8970 H   0  0  0  0  0  0
  -22.3644  -10.9659   19.6182 H   0  0  0  0  0  0
  -21.2013   -7.6160   23.9722 H   0  0  0  0  0  0
  -21.1484   -6.0546   25.9088 H   0  0  0  0  0  0
  -22.0593   -2.7617   23.2844 H   0  0  0  0  0  0
  -22.4090  -11.9918   22.4809 H   0  0  0  0  0  0
  -21.1130  -13.1313   22.2587 H   0  0  0  0  0  0
  -24.6611  -15.8342   20.5215 H   0  0  0  0  0  0
  -26.2795  -15.6233   20.0727 H   0  0  0  0  0  0
  -26.7111  -32.5559   23.1161 H   0  0  0  0  0  0
  -25.0115  -33.9777   25.0519 H   0  0  0  0  0  0
  -22.6836  -31.3085   21.4096 H   0  0  0  0  0  0
  -23.3704  -35.9720   23.3288 H   0  0  0  0  0  0
  -24.3583  -36.8948   22.2039 H   0  0  0  0  0  0
  -23.7310  -37.6575   23.6651 H   0  0  0  0  0  0
  -26.0378  -31.6103   20.5981 H   0  0  0  0  0  0
  -26.8143  -30.8937   21.9834 H   0  0  0  0  0  0
  -28.0970  -29.1274   21.1674 H   0  0  0  0  0  0
  -26.0912  -25.9933   18.9913 H   0  0  0  0  0  0
  -23.9834  -27.3017   19.0237 H   0  0  0  0  0  0
  -23.7177  -30.6084   19.4041 H   0  0  0  0  0  0
  -22.7334  -29.2508   19.8601 H   0  0  0  0  0  0
  -25.1252  -36.1941   25.0802 H   0  0  0  0  0  0
  -20.9935  -28.3273   24.1409 H   0  0  0  0  0  0
  -20.5648  -26.2285   23.3615 H   0  0  0  0  0  0
  -21.6626  -26.7444   22.1214 H   0  0  0  0  0  0
  -19.6911  -25.6287   21.1223 H   0  0  0  0  0  0
  -19.6696  -27.3180   20.6731 H   0  0  0  0  0  0
  -17.4194  -26.6670   21.3978 H   0  0  0  0  0  0
  -18.0308  -26.0046   22.8977 H   0  0  0  0  0  0
  -19.7942  -30.7239   24.2246 H   0  0  0  0  0  0
  -17.5023  -31.6239   24.5206 H   0  0  0  0  0  0
  -15.5352  -30.2989   23.7645 H   0  0  0  0  0  0
  -15.8637  -28.0834   22.7024 H   0  0  0  0  0  0
  -24.5928  -30.6936   25.7792 H   0  0  0  0  0  0
  -24.8798  -32.2805   26.4818 H   0  0  0  0  0  0
  -25.8071  -30.8940   27.0265 H   0  0  0  0  0  0
  -26.2814  -29.6858   24.0960 H   0  0  0  0  0  0
  -27.3783  -29.7121   25.4556 H   0  0  0  0  0  0
  -27.8759  -30.4270   23.9390 H   0  0  0  0  0  0
  -27.2624  -33.3570   26.2094 H   0  0  0  0  0  0
  -28.3884  -32.6749   25.0395 H   0  0  0  0  0  0
  -28.0622  -31.8366   26.5440 H   0  0  0  0  0  0
  -28.2536  -38.0113   24.7459 H   0  0  0  0  0  0
  -28.1061  -36.2623   24.6364 H   0  0  0  0  0  0
  -27.2239  -37.1506   25.8864 H   0  0  0  0  0  0
  -20.9267  -29.8750   21.6924 H   0  0  0  0  0  0
  -26.0153  -38.2833   24.1403 H   0  0  0  0  0  0
  -27.9523  -19.3958   19.6880 H   0  0  0  0  0  0
  -28.4481  -17.2494   20.7895 H   0  0  0  0  0  0
  -32.0013  -20.7126   20.4678 H   0  0  0  0  0  0
  -30.6984  -25.7323   19.5634 H   0  0  0  0  0  0
  -31.6496  -25.3387   20.9862 H   0  0  0  0  0  0
  -32.0078  -23.1821   20.0616 H   0  0  0  0  0  0
  -31.0555  -23.6883   18.6733 H   0  0  0  0  0  0
  -28.3246  -23.9904   19.6058 H   0  0  0  0  0  0
  -28.0635  -23.2194   21.1709 H   0  0  0  0  0  0
  -29.8031  -24.5666   22.1901 H   0  0  0  0  0  0
  -30.3800  -16.6089   23.0732 H   0  0  0  0  0  0
  -31.8504  -16.3211   22.1970 H   0  0  0  0  0  0
  -28.5478  -21.5991   19.0854 H   0  0  0  0  0  0
  -30.1476  -21.6342   18.4005 H   0  0  0  0  0  0
  -29.3046  -26.9271   21.8574 H   0  0  0  0  0  0
  -27.8288  -25.9852   21.9369 H   0  0  0  0  0  0
  -29.2825  -14.9725   21.9297 H   0  0  0  0  0  0
  -30.1983  -22.3558   21.1062 H   0  0  0  0  0  0
  1 25  1  0  0  0
  1 30  2  0  0  0
  1 84  1  0  0  0
  2  3  1  0  0  0
  2 25  1  0  0  0
  2 87  1  0  0  0
  2 88  1  0  0  0
  3  4  1  0  0  0
  3 89  1  0  0  0
  3 90  1  0  0  0
  4  5  1  0  0  0
  4 91  1  0  0  0
  4 92  1  0  0  0
  5  6  1  0  0  0
  5 26  1  0  0  0
  5 93  1  0  0  0
  6 25  1  0  0  0
  6 94  1  0  0  0
  6 95  1  0  0  0
  7  8  2  0  0  0
  7 26  1  0  0  0
  7 29  1  0  0  0
  8  9  1  0  0  0
  8 22  1  0  0  0
  9 10  1  0  0  0
  9 27  2  0  0  0
 10 11  2  0  0  0
 10 15  1  0  0  0
 11 12  1  0  0  0
 11 96  1  0  0  0
 12 13  2  0  0  0
 12 97  1  0  0  0
 13 14  1  0  0  0
 13 31  1  0  0  0
 14 15  2  0  0  0
 14 98  1  0  0  0
 15 99  1  0  0  0
 16 17  2  0  0  0
 16 21  1  0  0  0
 16 31  1  0  0  0
 17 18  1  0  0  0
 17100  1  0  0  0
 18 19  2  0  0  0
 18101  1  0  0  0
 19 20  1  0  0  0
 19 24  1  0  0  0
 20 21  2  0  0  0
 20102  1  0  0  0
 21 23  1  0  0  0
 22 28  1  0  0  0
 22 32  2  0  0  0
 26 27  1  0  0  0
 28103  1  0  0  0
 28104  1  0  0  0
 29105  1  0  0  0
 29106  1  0  0  0
 33 34  1  0  0  0
 33 66  1  0  0  0
 33 70  2  0  0  0
 34 36  1  0  0  0
 34 59  1  0  0  0
 34107  1  0  0  0
 35 44  2  0  0  0
 35 45  1  0  0  0
 35 68  1  0  0  0
 36 56  1  0  0  0
 36108  1  0  0  0
 37 39  1  0  0  0
 37 47  1  0  0  0
 37 66  1  0  0  0
 37109  1  0  0  0
 38 43  2  0  0  0
 38 46  1  0  0  0
 38 47  1  0  0  0
 39 64  1  0  0  0
 39 67  2  0  0  0
 40 52  1  0  0  0
 40 53  2  0  0  0
 40 58  1  0  0  0
 41110  1  0  0  0
 41111  1  0  0  0
 41112  1  0  0  0
 41 48  1  0  0  0
 42 43  1  0  0  0
 42 66  1  0  0  0
 42113  1  0  0  0
 42114  1  0  0  0
 43 44  1  0  0  0
 44115  1  0  0  0
 45 46  2  0  0  0
 45116  1  0  0  0
 46117  1  0  0  0
 47118  1  0  0  0
 47119  1  0  0  0
 48 56  1  0  0  0
 48 65  1  0  0  0
 48120  1  0  0  0
 49 50  1  0  0  0
 49 53  1  0  0  0
 49 64  1  0  0  0
 49121  1  0  0  0
 50 51  1  0  0  0
 50122  1  0  0  0
 50123  1  0  0  0
 51 52  1  0  0  0
 51124  1  0  0  0
 51125  1  0  0  0
 52126  1  0  0  0
 52127  1  0  0  0
 53 54  1  0  0  0
 54 55  2  0  0  0
 54128  1  0  0  0
 55 57  1  0  0  0
 55129  1  0  0  0
 56 69  2  0  0  0
 57 58  2  0  0  0
 57130  1  0  0  0
 58131  1  0  0  0
 59 60  1  0  0  0
 59 61  1  0  0  0
 59 62  1  0  0  0
 60132  1  0  0  0
 60133  1  0  0  0
 60134  1  0  0  0
 61135  1  0  0  0
 61136  1  0  0  0
 61137  1  0  0  0
 62138  1  0  0  0
 62139  1  0  0  0
 62140  1  0  0  0
 63 65  1  0  0  0
 63141  1  0  0  0
 63142  1  0  0  0
 63143  1  0  0  0
 64144  1  0  0  0
 65145  1  0  0  0
 68 83  1  0  0  0
 71 72  2  0  0  0
 71 74  1  0  0  0
 71146  1  0  0  0
 72 75  1  0  0  0
 72147  1  0  0  0
 73 74  2  0  0  0
 73 76  1  0  0  0
 73148  1  0  0  0
 74 82  1  0  0  0
 75 76  2  0  0  0
 75 81  1  0  0  0
 76 86  1  0  0  0
 77 78  1  0  0  0
 77 80  1  0  0  0
 77149  1  0  0  0
 77150  1  0  0  0
 78 85  1  0  0  0
 78151  1  0  0  0
 78152  1  0  0  0
 79 80  1  0  0  0
 79 85  1  0  0  0
 79153  1  0  0  0
 79154  1  0  0  0
 80 83  1  0  0  0
 80155  1  0  0  0
 81 84  1  0  0  0
 81156  1  0  0  0
 81157  1  0  0  0
 82158  1  0  0  0
 82159  1  0  0  0
 82 85  1  0  0  0
 83160  1  0  0  0
 83161  1  0  0  0
 84162  1  0  0  0
 85163  1  0  0  0
M  CHG  1  85   1
M  ISO  4   1 100  68 101  83 101  84 100
M  END
> <chiral flag>
0

> <version>
0

> <s_m_source_file>
/data/baiqing/PycharmProjects/Reinvent-master-3.2/result/LINK_invent/BTK/process_docking_weight1_custom_product_contain_oxygen_bond_distance_aromatic_linkinvent_7_9_3/rearranged_h_0027.sdf

> <i_m_source_file_index>
76

> <r_mmod_Potential_Energy-OPLS-2005>
-169.587844848633

> <r_mmod_Stretch_Energy-OPLS-2005>
33.1799545288086

> <r_mmod_Bend_Energy-OPLS-2005>
116.013442993164

> <r_mmod_Torsional_Energy-OPLS-2005>
277.454254150391

> <r_mmod_Improper_Torsional_Energy-OPLS-2005>
1.93458604812622

> <r_mmod_Van_der_Waal_Energy-OPLS-2005>
145.30126953125

> <r_mmod_Electrostatic_Energy-OPLS-2005>
-307.919677734375

> <r_mmod_Solvation_Energy-OPLS-2005>
-443.576934814453

> <b_mmod_Minimization_Converged-OPLS-2005>
0

> <r_mmod_RMS_Derivative-OPLS-2005>
3.03238534927368

$$$$
77
                    3D
 Structure written by MMmdl.
155164  0  0  1  0            999 V2000
  -30.5376  -14.9110   20.4152 C   0  0  0  0  0  0
  -30.4461  -12.5565   19.4948 C   0  0  0  0  0  0
  -29.5256  -12.5427   18.2510 C   0  0  0  0  0  0
  -28.0531  -12.3379   18.6589 C   0  0  0  0  0  0
  -27.6391  -13.2454   19.8470 C   0  0  2  0  0  0
  -28.6846  -13.2295   20.9851 C   0  0  0  0  0  0
  -25.2492  -13.8212   20.5688 C   0  0  0  0  0  0
  -24.1798  -13.0446   20.9221 C   0  0  0  0  0  0
  -24.6399  -11.6928   20.8732 C   0  0  0  0  0  0
  -23.9085  -10.4293   21.0391 C   0  0  0  0  0  0
  -24.3632   -9.4215   21.9176 C   0  0  0  0  0  0
  -23.6306   -8.2249   22.0738 C   0  0  0  0  0  0
  -22.4288   -8.0280   21.3527 C   0  0  0  0  0  0
  -21.9922   -9.0260   20.4632 C   0  0  0  0  0  0
  -22.7247  -10.2140   20.3047 C   0  0  0  0  0  0
  -21.6860   -6.0735   22.5280 C   0  0  0  0  0  0
  -21.4012   -6.5633   23.8208 C   0  0  0  0  0  0
  -21.3671   -5.6785   24.9175 C   0  0  0  0  0  0
  -21.6046   -4.3052   24.7218 C   0  0  0  0  0  0
  -21.8823   -3.8141   23.4338 C   0  0  0  0  0  0
  -21.9191   -4.6963   22.3400 C   0  0  0  0  0  0
  -22.7815  -13.5227   21.1874 C   0  0  0  0  0  0
  -22.1661   -4.2157   21.0973 F   0  0  0  0  0  0
  -21.5643   -3.4530   25.7727 F   0  0  0  0  0  0
  -29.9711  -13.6379   20.4025 N   0  0  0  0  0  0
  -26.2934  -12.9443   20.3264 N   0  0  0  0  0  0
  -25.9349  -11.6573   20.5740 N   0  0  0  0  0  0
  -22.0458  -12.8210   22.0424 N   0  0  0  0  0  0
  -25.4167  -15.1932   20.4062 N   0  0  0  0  0  0
  -31.7184  -15.0187   20.0666 O   0  0  0  0  0  0
  -21.6640   -6.8881   21.4235 O   0  0  0  0  0  0
  -22.3502  -14.5522   20.6704 O   0  0  0  0  0  0
  -24.6440  -31.8445   23.1896 C   0  0  0  0  0  0
  -25.9215  -32.4689   23.8291 C   0  0  1  0  0  0
  -27.2265  -27.1500   20.1323 C   0  0  0  0  0  0
  -25.5977  -33.8502   24.2205 N   0  0  0  0  0  0
  -23.4468  -30.4634   21.5334 C   0  0  2  0  0  0
  -24.8985  -28.8928   20.1095 C   0  0  0  0  0  0
  -22.7562  -29.4559   22.4869 C   0  0  0  0  0  0
  -18.0295  -28.1398   22.8476 C   0  0  0  0  0  0
  -24.1499  -36.7243   23.2638 C   0  0  0  0  0  0
  -26.0027  -30.7208   21.3884 C   0  0  0  0  0  0
  -26.0758  -29.3337   20.7272 C   0  0  0  0  0  0
  -27.2396  -28.4759   20.7250 C   0  0  0  0  0  0
  -26.0251  -26.8142   19.4698 C   0  0  0  0  0  0
  -24.8854  -27.6452   19.4676 C   0  0  0  0  0  0
  -23.6733  -29.7910   20.1537 C   0  0  0  0  0  0
  -25.4127  -36.3021   24.0314 C   0  0  1  0  0  0
  -20.5911  -28.3733   23.1241 C   0  0  2  0  0  0
  -20.6789  -26.9436   22.5407 C   0  0  0  0  0  0
  -19.5768  -26.6383   21.5216 C   0  0  0  0  0  0
  -18.1942  -26.7939   22.1615 C   0  0  0  0  0  0
  -19.1552  -28.8886   23.2846 C   0  0  0  0  0  0
  -18.9468  -30.1481   23.8878 C   0  0  0  0  0  0
  -17.6462  -30.6591   24.0567 C   0  0  0  0  0  0
  -25.9085  -34.9400   23.5059 C   0  0  0  0  0  0
  -16.5351  -29.9086   23.6343 C   0  0  0  0  0  0
  -16.7277  -28.6507   23.0360 C   0  0  0  0  0  0
  -26.4535  -31.6561   25.0733 C   0  0  0  0  0  0
  -25.3721  -31.3760   26.1428 C   0  0  0  0  0  0
  -27.0377  -30.2946   24.6322 C   0  0  0  0  0  0
  -27.6088  -32.4313   25.7497 C   0  0  0  0  0  0
  -27.5582  -37.1767   24.8438 C   0  0  0  0  0  0
  -21.4255  -29.3064   22.3614 N   0  0  0  0  0  0
  -26.4268  -37.3751   23.9417 N   0  0  0  0  0  0
  -24.7170  -31.0306   22.0924 N   0  0  0  0  0  0
  -23.4195  -28.8102   23.3025 O   0  0  0  0  0  0
  -28.2913  -26.1786   20.2002 O   0  0  0  0  0  0
  -26.5659  -34.8900   22.4631 O   0  0  0  0  0  0
  -23.5553  -32.1326   23.7107 O   0  0  0  0  0  0
  -29.3861  -19.6218   19.0282 C   0  0  0  0  0  0
  -29.6239  -18.1979   19.1986 C   0  0  0  0  0  0
  -29.6486  -18.5228   21.5159 C   0  0  0  0  0  0
  -29.4406  -19.9647   21.3617 C   0  0  0  0  0  0
  -29.2287  -20.6134   20.0780 C   0  0  0  0  0  0
  -29.7494  -17.5492   20.4644 C   0  0  0  0  0  0
  -28.4586  -22.6182   18.5980 C   0  0  0  0  0  0
  -28.2846  -24.1635   18.5386 C   0  0  0  0  0  0
  -28.8669  -23.3913   20.6733 C   0  0  0  0  0  0
  -28.0789  -24.6491   19.9758 C   0  0  1  0  0  0
  -29.4333  -20.7861   22.6495 C   0  0  0  0  0  0
  -28.8761  -22.1154   19.7960 N   0  0  0  0  0  0
  -29.7263  -16.0349   20.7042 N   0  0  0  0  0  0
  -28.1953  -21.9548   17.5909 O   0  0  0  0  0  0
  -29.8380  -20.0800   23.7061 F   0  0  0  0  0  0
  -30.2645  -21.8229   22.5493 F   0  0  0  0  0  0
  -28.1976  -21.2173   22.8990 F   0  0  0  0  0  0
  -31.4830  -12.7069   19.1923 H   0  0  0  0  0  0
  -30.4254  -11.5903   20.0010 H   0  0  0  0  0  0
  -29.8365  -11.7614   17.5559 H   0  0  0  0  0  0
  -29.6266  -13.4866   17.7126 H   0  0  0  0  0  0
  -27.9279  -11.2904   18.9328 H   0  0  0  0  0  0
  -27.3955  -12.5118   17.8051 H   0  0  0  0  0  0
  -27.6161  -14.2596   19.4474 H   0  0  0  0  0  0
  -28.7563  -12.2377   21.4359 H   0  0  0  0  0  0
  -28.3919  -13.9104   21.7861 H   0  0  0  0  0  0
  -25.2785   -9.5697   22.4751 H   0  0  0  0  0  0
  -24.0029   -7.4634   22.7448 H   0  0  0  0  0  0
  -21.0860   -8.8766   19.8937 H   0  0  0  0  0  0
  -22.3701  -10.9675   19.6155 H   0  0  0  0  0  0
  -21.1991   -7.6138   23.9726 H   0  0  0  0  0  0
  -21.1498   -6.0503   25.9079 H   0  0  0  0  0  0
  -22.0590   -2.7608   23.2828 H   0  0  0  0  0  0
  -22.4073  -11.9894   22.4857 H   0  0  0  0  0  0
  -21.1063  -13.1214   22.2590 H   0  0  0  0  0  0
  -24.6431  -15.8418   20.4986 H   0  0  0  0  0  0
  -26.2488  -15.6245   20.0257 H   0  0  0  0  0  0
  -26.7284  -32.5300   23.1022 H   0  0  0  0  0  0
  -25.0137  -33.9640   25.0358 H   0  0  0  0  0  0
  -22.7504  -31.2891   21.3755 H   0  0  0  0  0  0
  -23.3786  -35.9543   23.3226 H   0  0  0  0  0  0
  -24.3611  -36.8949   22.2068 H   0  0  0  0  0  0
  -23.7217  -37.6398   23.6730 H   0  0  0  0  0  0
  -26.1608  -31.4790   20.6190 H   0  0  0  0  0  0
  -26.8719  -30.7695   22.0329 H   0  0  0  0  0  0
  -28.1355  -28.8059   21.2323 H   0  0  0  0  0  0
  -25.9360  -25.8697   18.9558 H   0  0  0  0  0  0
  -23.9890  -27.3058   18.9664 H   0  0  0  0  0  0
  -23.8083  -30.5625   19.3955 H   0  0  0  0  0  0
  -22.7913  -29.2271   19.8458 H   0  0  0  0  0  0
  -25.1319  -36.1828   25.0803 H   0  0  0  0  0  0
  -21.0002  -28.3322   24.1367 H   0  0  0  0  0  0
  -20.5684  -26.2348   23.3636 H   0  0  0  0  0  0
  -21.6654  -26.7449   22.1205 H   0  0  0  0  0  0
  -19.6927  -25.6288   21.1278 H   0  0  0  0  0  0
  -19.6703  -27.3179   20.6745 H   0  0  0  0  0  0
  -17.4215  -26.6696   21.4006 H   0  0  0  0  0  0
  -18.0313  -26.0069   22.9004 H   0  0  0  0  0  0
  -19.7940  -30.7303   24.2234 H   0  0  0  0  0  0
  -17.5013  -31.6275   24.5171 H   0  0  0  0  0  0
  -15.5355  -30.2983   23.7690 H   0  0  0  0  0  0
  -15.8669  -28.0824   22.7095 H   0  0  0  0  0  0
  -24.5893  -30.7115   25.7750 H   0  0  0  0  0  0
  -24.8920  -32.2938   26.4835 H   0  0  0  0  0  0
  -25.8003  -30.8939   27.0221 H   0  0  0  0  0  0
  -26.2980  -29.6671   24.1330 H   0  0  0  0  0  0
  -27.3955  -29.7265   25.4920 H   0  0  0  0  0  0
  -27.8916  -30.4158   23.9652 H   0  0  0  0  0  0
  -27.2711  -33.3633   26.2042 H   0  0  0  0  0  0
  -28.3908  -32.6833   25.0321 H   0  0  0  0  0  0
  -28.0736  -31.8445   26.5425 H   0  0  0  0  0  0
  -28.2534  -38.0134   24.7584 H   0  0  0  0  0  0
  -28.1141  -36.2671   24.6119 H   0  0  0  0  0  0
  -27.2322  -37.1228   25.8843 H   0  0  0  0  0  0
  -20.9464  -29.8769   21.6788 H   0  0  0  0  0  0
  -26.0115  -38.2791   24.1496 H   0  0  0  0  0  0
  -29.3137  -19.9304   17.9973 H   0  0  0  0  0  0
  -29.6573  -17.5815   18.3091 H   0  0  0  0  0  0
  -29.7226  -18.1323   22.5188 H   0  0  0  0  0  0
  -27.4630  -24.4491   17.8836 H   0  0  0  0  0  0
  -29.2008  -24.5906   18.1285 H   0  0  0  0  0  0
  -28.4063  -23.1973   21.6367 H   0  0  0  0  0  0
  -29.9036  -23.6764   20.8568 H   0  0  0  0  0  0
  -27.0359  -24.4605   20.2321 H   0  0  0  0  0  0
  -28.8682  -15.7299   21.1390 H   0  0  0  0  0  0
  1 25  1  0  0  0
  1 30  2  0  0  0
  1 83  1  0  0  0
  2  3  1  0  0  0
  2 25  1  0  0  0
  2 88  1  0  0  0
  2 89  1  0  0  0
  3  4  1  0  0  0
  3 90  1  0  0  0
  3 91  1  0  0  0
  4  5  1  0  0  0
  4 92  1  0  0  0
  4 93  1  0  0  0
  5  6  1  0  0  0
  5 26  1  0  0  0
  5 94  1  0  0  0
  6 25  1  0  0  0
  6 95  1  0  0  0
  6 96  1  0  0  0
  7  8  2  0  0  0
  7 26  1  0  0  0
  7 29  1  0  0  0
  8  9  1  0  0  0
  8 22  1  0  0  0
  9 10  1  0  0  0
  9 27  2  0  0  0
 10 11  2  0  0  0
 10 15  1  0  0  0
 11 12  1  0  0  0
 11 97  1  0  0  0
 12 13  2  0  0  0
 12 98  1  0  0  0
 13 14  1  0  0  0
 13 31  1  0  0  0
 14 15  2  0  0  0
 14 99  1  0  0  0
 15100  1  0  0  0
 16 17  2  0  0  0
 16 21  1  0  0  0
 16 31  1  0  0  0
 17 18  1  0  0  0
 17101  1  0  0  0
 18 19  2  0  0  0
 18102  1  0  0  0
 19 20  1  0  0  0
 19 24  1  0  0  0
 20 21  2  0  0  0
 20103  1  0  0  0
 21 23  1  0  0  0
 22 28  1  0  0  0
 22 32  2  0  0  0
 26 27  1  0  0  0
 28104  1  0  0  0
 28105  1  0  0  0
 29106  1  0  0  0
 29107  1  0  0  0
 33 34  1  0  0  0
 33 66  1  0  0  0
 33 70  2  0  0  0
 34 36  1  0  0  0
 34 59  1  0  0  0
 34108  1  0  0  0
 35 44  2  0  0  0
 35 45  1  0  0  0
 35 68  1  0  0  0
 36 56  1  0  0  0
 36109  1  0  0  0
 37 39  1  0  0  0
 37 47  1  0  0  0
 37 66  1  0  0  0
 37110  1  0  0  0
 38 43  2  0  0  0
 38 46  1  0  0  0
 38 47  1  0  0  0
 39 64  1  0  0  0
 39 67  2  0  0  0
 40 52  1  0  0  0
 40 53  2  0  0  0
 40 58  1  0  0  0
 41111  1  0  0  0
 41112  1  0  0  0
 41113  1  0  0  0
 41 48  1  0  0  0
 42 43  1  0  0  0
 42 66  1  0  0  0
 42114  1  0  0  0
 42115  1  0  0  0
 43 44  1  0  0  0
 44116  1  0  0  0
 45 46  2  0  0  0
 45117  1  0  0  0
 46118  1  0  0  0
 47119  1  0  0  0
 47120  1  0  0  0
 48 56  1  0  0  0
 48 65  1  0  0  0
 48121  1  0  0  0
 49 50  1  0  0  0
 49 53  1  0  0  0
 49 64  1  0  0  0
 49122  1  0  0  0
 50 51  1  0  0  0
 50123  1  0  0  0
 50124  1  0  0  0
 51 52  1  0  0  0
 51125  1  0  0  0
 51126  1  0  0  0
 52127  1  0  0  0
 52128  1  0  0  0
 53 54  1  0  0  0
 54 55  2  0  0  0
 54129  1  0  0  0
 55 57  1  0  0  0
 55130  1  0  0  0
 56 69  2  0  0  0
 57 58  2  0  0  0
 57131  1  0  0  0
 58132  1  0  0  0
 59 60  1  0  0  0
 59 61  1  0  0  0
 59 62  1  0  0  0
 60133  1  0  0  0
 60134  1  0  0  0
 60135  1  0  0  0
 61136  1  0  0  0
 61137  1  0  0  0
 61138  1  0  0  0
 62139  1  0  0  0
 62140  1  0  0  0
 62141  1  0  0  0
 63 65  1  0  0  0
 63142  1  0  0  0
 63143  1  0  0  0
 63144  1  0  0  0
 64145  1  0  0  0
 65146  1  0  0  0
 68 80  1  0  0  0
 71 72  2  0  0  0
 71 75  1  0  0  0
 71147  1  0  0  0
 72 76  1  0  0  0
 72148  1  0  0  0
 73 74  1  0  0  0
 73 76  2  0  0  0
 73149  1  0  0  0
 74 75  2  0  0  0
 74 81  1  0  0  0
 75 82  1  0  0  0
 76 83  1  0  0  0
 77 78  1  0  0  0
 77 82  1  0  0  0
 77 84  2  0  0  0
 78 80  1  0  0  0
 78150  1  0  0  0
 78151  1  0  0  0
 79 80  1  0  0  0
 79 82  1  0  0  0
 79152  1  0  0  0
 79153  1  0  0  0
 80154  1  0  0  0
 81 85  1  0  0  0
 81 86  1  0  0  0
 81 87  1  0  0  0
 83155  1  0  0  0
M  ISO  4   1 100  68 101  80 101  83 100
M  END
> <chiral flag>
0

> <version>
0

> <s_m_source_file>
/data/baiqing/PycharmProjects/Reinvent-master-3.2/result/LINK_invent/BTK/process_docking_weight1_custom_product_contain_oxygen_bond_distance_aromatic_linkinvent_7_9_3/rearranged_h_0027.sdf

> <i_m_source_file_index>
77

> <r_mmod_Potential_Energy-OPLS-2005>
535.37451171875

> <r_mmod_Stretch_Energy-OPLS-2005>
231.826675415039

> <r_mmod_Bend_Energy-OPLS-2005>
290.125366210938

> <r_mmod_Torsional_Energy-OPLS-2005>
279.831298828125

> <r_mmod_Improper_Torsional_Energy-OPLS-2005>
4.68109369277954

> <r_mmod_Van_der_Waal_Energy-OPLS-2005>
143.923690795898

> <r_mmod_Electrostatic_Energy-OPLS-2005>
-366.523773193359

> <r_mmod_Solvation_Energy-OPLS-2005>
-219.425399780273

> <b_mmod_Minimization_Converged-OPLS-2005>
0

> <r_mmod_RMS_Derivative-OPLS-2005>
2.63804626464844

$$$$
78
                    3D
 Structure written by MMmdl.
176186  0  0  1  0            999 V2000
  -30.5686  -14.7609   20.3714 C   0  0  0  0  0  0
  -30.4544  -12.4304   19.4811 C   0  0  0  0  0  0
  -29.5205  -12.4124   18.2519 C   0  0  0  0  0  0
  -28.0384  -12.3084   18.6642 C   0  0  0  0  0  0
  -27.6489  -13.2088   19.8677 C   0  0  2  0  0  0
  -28.7054  -13.1449   20.9918 C   0  0  0  0  0  0
  -25.2519  -13.8096   20.5689 C   0  0  0  0  0  0
  -24.1783  -13.0373   20.9208 C   0  0  0  0  0  0
  -24.6363  -11.6851   20.8825 C   0  0  0  0  0  0
  -23.9048  -10.4224   21.0481 C   0  0  0  0  0  0
  -24.3571   -9.4124   21.9237 C   0  0  0  0  0  0
  -23.6233   -8.2172   22.0784 C   0  0  0  0  0  0
  -22.4225   -8.0237   21.3554 C   0  0  0  0  0  0
  -21.9871   -9.0232   20.4672 C   0  0  0  0  0  0
  -22.7233  -10.2101   20.3111 C   0  0  0  0  0  0
  -21.6825   -6.0674   22.5273 C   0  0  0  0  0  0
  -21.3989   -6.5571   23.8201 C   0  0  0  0  0  0
  -21.3646   -5.6739   24.9171 C   0  0  0  0  0  0
  -21.6038   -4.3005   24.7222 C   0  0  0  0  0  0
  -21.8814   -3.8074   23.4342 C   0  0  0  0  0  0
  -21.9192   -4.6902   22.3407 C   0  0  0  0  0  0
  -22.7828  -13.5246   21.1848 C   0  0  0  0  0  0
  -22.1736   -4.2100   21.0980 F   0  0  0  0  0  0
  -21.5613   -3.4504   25.7748 F   0  0  0  0  0  0
  -30.0033  -13.5045   20.3963 N   0  0  0  0  0  0
  -26.2974  -12.9273   20.3436 N   0  0  0  0  0  0
  -25.9298  -11.6445   20.5856 N   0  0  0  0  0  0
  -22.0412  -12.8343   22.0396 N   0  0  0  0  0  0
  -25.4177  -15.1799   20.3979 N   0  0  0  0  0  0
  -31.7368  -14.9072   19.9958 O   0  0  0  0  0  0
  -21.6609   -6.8830   21.4237 O   0  0  0  0  0  0
  -22.3591  -14.5580   20.6712 O   0  0  0  0  0  0
  -24.6308  -31.8607   23.2028 C   0  0  0  0  0  0
  -25.9161  -32.4776   23.8346 C   0  0  1  0  0  0
  -27.2035  -27.2685   20.1367 C   0  0  0  0  0  0
  -25.5980  -33.8574   24.2298 N   0  0  0  0  0  0
  -23.4242  -30.4861   21.5457 C   0  0  2  0  0  0
  -24.8686  -28.9418   20.1048 C   0  0  0  0  0  0
  -22.7483  -29.4620   22.4909 C   0  0  0  0  0  0
  -18.0289  -28.1375   22.8480 C   0  0  0  0  0  0
  -24.1497  -36.7270   23.2628 C   0  0  0  0  0  0
  -25.9707  -30.7717   21.3868 C   0  0  0  0  0  0
  -26.0383  -29.3957   20.7264 C   0  0  0  0  0  0
  -27.2049  -28.5710   20.7387 C   0  0  0  0  0  0
  -26.0197  -26.8977   19.4530 C   0  0  0  0  0  0
  -24.8655  -27.6989   19.4555 C   0  0  0  0  0  0
  -23.6417  -29.8304   20.1571 C   0  0  0  0  0  0
  -25.4125  -36.3083   24.0335 C   0  0  1  0  0  0
  -20.5889  -28.3692   23.1251 C   0  0  2  0  0  0
  -20.6783  -26.9407   22.5394 C   0  0  0  0  0  0
  -19.5755  -26.6368   21.5197 C   0  0  0  0  0  0
  -18.1933  -26.7922   22.1606 C   0  0  0  0  0  0
  -19.1545  -28.8847   23.2863 C   0  0  0  0  0  0
  -18.9479  -30.1447   23.8901 C   0  0  0  0  0  0
  -17.6476  -30.6570   24.0555 C   0  0  0  0  0  0
  -25.9077  -34.9459   23.5111 C   0  0  0  0  0  0
  -16.5367  -29.9072   23.6316 C   0  0  0  0  0  0
  -16.7275  -28.6478   23.0357 C   0  0  0  0  0  0
  -26.4523  -31.6570   25.0710 C   0  0  0  0  0  0
  -25.3727  -31.3773   26.1424 C   0  0  0  0  0  0
  -27.0362  -30.2978   24.6200 C   0  0  0  0  0  0
  -27.6095  -32.4291   25.7478 C   0  0  0  0  0  0
  -27.5609  -37.1775   24.8458 C   0  0  0  0  0  0
  -21.4203  -29.3050   22.3648 N   0  0  0  0  0  0
  -26.4293  -37.3792   23.9433 N   0  0  0  0  0  0
  -24.6933  -31.0576   22.1009 N   0  0  0  0  0  0
  -23.4203  -28.8148   23.2979 O   0  0  0  0  0  0
  -28.2893  -26.3675   20.2520 O   0  0  0  0  0  0
  -26.5610  -34.8921   22.4662 O   0  0  0  0  0  0
  -23.5462  -32.1449   23.7311 O   0  0  0  0  0  0
  -29.6663  -18.4240   20.6091 C   0  0  0  0  0  0
  -27.9150  -19.5013   19.3353 C   0  0  0  0  0  0
  -28.9874  -19.6524   20.2315 C   0  0  0  0  0  0
  -28.5478  -17.1779   18.8316 C   0  0  0  0  0  0
  -29.4241  -17.1381   19.9722 C   0  0  0  0  0  0
  -27.6892  -18.2959   18.6582 C   0  0  0  0  0  0
  -28.9945  -17.0659   14.1420 C   0  0  0  0  0  0
  -29.4929  -15.6284   14.1902 C   0  0  0  0  0  0
  -28.4299  -23.4006   17.8358 C   0  0  0  0  0  0
  -28.5451  -24.8247   18.3999 C   0  0  0  0  0  0
  -28.3612  -17.2622   15.5145 C   0  0  0  0  0  0
  -29.7149  -15.3287   15.6828 C   0  0  0  0  0  0
  -29.2437  -22.3900   18.6616 C   0  0  0  0  0  0
  -28.8532  -23.7318   20.6977 C   0  0  0  0  0  0
  -28.1300  -24.9209   19.8804 C   0  0  1  0  0  0
  -29.2629  -21.1043   20.8253 C   0  0  0  0  0  0
  -28.5009  -16.0782   17.7578 C   0  0  0  0  0  0
  -29.7376  -15.8374   20.6410 N   0  0  0  0  0  0
  -29.1658  -16.4634   16.4688 N   0  3  0  0  0  0
  -28.7416  -22.3345   20.0592 N   0  3  2  0  0  0
  -26.3030  -18.2322   17.6237 Cl  0  0  0  0  0  0
  -31.4897  -12.5702   19.1545 H   0  0  0  0  0  0
  -30.4306  -11.4669   19.9899 H   0  0  0  0  0  0
  -29.7765  -11.5759   17.5991 H   0  0  0  0  0  0
  -29.6958  -13.2910   17.6515 H   0  0  0  0  0  0
  -27.8756  -11.2671   18.9386 H   0  0  0  0  0  0
  -27.3891  -12.5068   17.8128 H   0  0  0  0  0  0
  -27.6301  -14.2305   19.5083 H   0  0  0  0  0  0
  -28.7449  -12.1452   21.4316 H   0  0  0  0  0  0
  -28.4479  -13.8266   21.8040 H   0  0  0  0  0  0
  -25.2704   -9.5553   22.4863 H   0  0  0  0  0  0
  -23.9863   -7.4520   22.7493 H   0  0  0  0  0  0
  -21.0786   -8.8774   19.8987 H   0  0  0  0  0  0
  -22.3675  -10.9656   19.6242 H   0  0  0  0  0  0
  -21.1995   -7.6084   23.9718 H   0  0  0  0  0  0
  -21.1524   -6.0469   25.9088 H   0  0  0  0  0  0
  -22.0631   -2.7538   23.2875 H   0  0  0  0  0  0
  -22.3894  -11.9951   22.4762 H   0  0  0  0  0  0
  -21.1127  -13.1632   22.2655 H   0  0  0  0  0  0
  -24.6189  -15.8042   20.4185 H   0  0  0  0  0  0
  -26.2743  -15.6449   20.1370 H   0  0  0  0  0  0
  -26.7211  -32.5424   23.1065 H   0  0  0  0  0  0
  -25.0208  -33.9730   25.0494 H   0  0  0  0  0  0
  -22.7177  -31.3073   21.4056 H   0  0  0  0  0  0
  -23.3801  -35.9554   23.3240 H   0  0  0  0  0  0
  -24.3616  -36.8937   22.2057 H   0  0  0  0  0  0
  -23.7187  -37.6428   23.6680 H   0  0  0  0  0  0
  -26.1190  -31.5311   20.6177 H   0  0  0  0  0  0
  -26.8487  -30.8135   22.0203 H   0  0  0  0  0  0
  -28.0934  -28.9059   21.2577 H   0  0  0  0  0  0
  -25.9352  -25.9693   18.9107 H   0  0  0  0  0  0
  -23.9759  -27.3518   18.9474 H   0  0  0  0  0  0
  -23.7710  -30.6139   19.4087 H   0  0  0  0  0  0
  -22.7566  -29.2719   19.8484 H   0  0  0  0  0  0
  -25.1275  -36.1948   25.0819 H   0  0  0  0  0  0
  -20.9989  -28.3292   24.1365 H   0  0  0  0  0  0
  -20.5668  -26.2309   23.3605 H   0  0  0  0  0  0
  -21.6666  -26.7432   22.1206 H   0  0  0  0  0  0
  -19.6932  -25.6283   21.1216 H   0  0  0  0  0  0
  -19.6668  -27.3164   20.6713 H   0  0  0  0  0  0
  -17.4202  -26.6668   21.4010 H   0  0  0  0  0  0
  -18.0314  -26.0048   22.8975 H   0  0  0  0  0  0
  -19.7965  -30.7253   24.2281 H   0  0  0  0  0  0
  -17.5035  -31.6251   24.5151 H   0  0  0  0  0  0
  -15.5376  -30.2979   23.7633 H   0  0  0  0  0  0
  -15.8666  -28.0784   22.7107 H   0  0  0  0  0  0
  -24.5877  -30.7146   25.7767 H   0  0  0  0  0  0
  -24.8939  -32.2968   26.4801 H   0  0  0  0  0  0
  -25.7998  -30.8975   27.0233 H   0  0  0  0  0  0
  -26.2956  -29.6702   24.1230 H   0  0  0  0  0  0
  -27.4060  -29.7259   25.4717 H   0  0  0  0  0  0
  -27.8819  -30.4248   23.9443 H   0  0  0  0  0  0
  -27.2749  -33.3614   26.2040 H   0  0  0  0  0  0
  -28.3913  -32.6808   25.0300 H   0  0  0  0  0  0
  -28.0739  -31.8407   26.5399 H   0  0  0  0  0  0
  -28.2567  -38.0131   24.7605 H   0  0  0  0  0  0
  -28.1158  -36.2673   24.6138 H   0  0  0  0  0  0
  -27.2344  -37.1254   25.8856 H   0  0  0  0  0  0
  -20.9374  -29.8808   21.6892 H   0  0  0  0  0  0
  -26.0178  -38.2857   24.1464 H   0  0  0  0  0  0
  -30.3607  -18.4607   21.4382 H   0  0  0  0  0  0
  -27.2539  -20.3275   19.1146 H   0  0  0  0  0  0
  -28.2929  -17.2446   13.3257 H   0  0  0  0  0  0
  -29.8293  -17.7548   14.0172 H   0  0  0  0  0  0
  -30.3893  -15.4854   13.5860 H   0  0  0  0  0  0
  -28.7241  -14.9643   13.7908 H   0  0  0  0  0  0
  -28.7924  -23.3905   16.8072 H   0  0  0  0  0  0
  -27.3831  -23.0929   17.7878 H   0  0  0  0  0  0
  -27.9401  -25.5009   17.7966 H   0  0  0  0  0  0
  -29.5723  -25.1700   18.2970 H   0  0  0  0  0  0
  -27.3429  -16.8720   15.4840 H   0  0  0  0  0  0
  -28.3242  -18.3201   15.7765 H   0  0  0  0  0  0
  -30.7719  -15.1943   15.9182 H   0  0  0  0  0  0
  -29.1961  -14.4001   15.9117 H   0  0  0  0  0  0
  -30.3023  -22.6533   18.6620 H   0  0  0  0  0  0
  -29.1832  -21.4222   18.1669 H   0  0  0  0  0  0
  -28.4269  -23.6855   21.7003 H   0  0  0  0  0  0
  -29.9064  -23.9713   20.8304 H   0  0  0  0  0  0
  -27.0823  -24.6447   19.9821 H   0  0  0  0  0  0
  -30.3386  -21.2189   20.9596 H   0  0  0  0  0  0
  -28.8319  -21.1277   21.8259 H   0  0  0  0  0  0
  -27.4829  -15.7282   17.5863 H   0  0  0  0  0  0
  -29.0429  -15.2307   18.1466 H   0  0  0  0  0  0
  -28.9615  -15.5201   21.2021 H   0  0  0  0  0  0
  -29.9657  -17.0308   16.7153 H   0  0  0  0  0  0
  -27.7488  -22.1635   19.9923 H   0  0  0  0  0  0
  1 25  1  0  0  0
  1 30  2  0  0  0
  1 88  1  0  0  0
  2  3  1  0  0  0
  2 25  1  0  0  0
  2 92  1  0  0  0
  2 93  1  0  0  0
  3  4  1  0  0  0
  3 94  1  0  0  0
  3 95  1  0  0  0
  4  5  1  0  0  0
  4 96  1  0  0  0
  4 97  1  0  0  0
  5  6  1  0  0  0
  5 26  1  0  0  0
  5 98  1  0  0  0
  6 25  1  0  0  0
  6 99  1  0  0  0
  6100  1  0  0  0
  7  8  2  0  0  0
  7 26  1  0  0  0
  7 29  1  0  0  0
  8  9  1  0  0  0
  8 22  1  0  0  0
  9 10  1  0  0  0
  9 27  2  0  0  0
 10 11  2  0  0  0
 10 15  1  0  0  0
 11 12  1  0  0  0
 11101  1  0  0  0
 12 13  2  0  0  0
 12102  1  0  0  0
 13 14  1  0  0  0
 13 31  1  0  0  0
 14 15  2  0  0  0
 14103  1  0  0  0
 15104  1  0  0  0
 16 17  2  0  0  0
 16 21  1  0  0  0
 16 31  1  0  0  0
 17 18  1  0  0  0
 17105  1  0  0  0
 18 19  2  0  0  0
 18106  1  0  0  0
 19 20  1  0  0  0
 19 24  1  0  0  0
 20 21  2  0  0  0
 20107  1  0  0  0
 21 23  1  0  0  0
 22 28  1  0  0  0
 22 32  2  0  0  0
 26 27  1  0  0  0
 28108  1  0  0  0
 28109  1  0  0  0
 29110  1  0  0  0
 29111  1  0  0  0
 33 34  1  0  0  0
 33 66  1  0  0  0
 33 70  2  0  0  0
 34 36  1  0  0  0
 34 59  1  0  0  0
 34112  1  0  0  0
 35 44  2  0  0  0
 35 45  1  0  0  0
 35 68  1  0  0  0
 36 56  1  0  0  0
 36113  1  0  0  0
 37 39  1  0  0  0
 37 47  1  0  0  0
 37 66  1  0  0  0
 37114  1  0  0  0
 38 43  2  0  0  0
 38 46  1  0  0  0
 38 47  1  0  0  0
 39 64  1  0  0  0
 39 67  2  0  0  0
 40 52  1  0  0  0
 40 53  2  0  0  0
 40 58  1  0  0  0
 41115  1  0  0  0
 41116  1  0  0  0
 41117  1  0  0  0
 41 48  1  0  0  0
 42 43  1  0  0  0
 42 66  1  0  0  0
 42118  1  0  0  0
 42119  1  0  0  0
 43 44  1  0  0  0
 44120  1  0  0  0
 45 46  2  0  0  0
 45121  1  0  0  0
 46122  1  0  0  0
 47123  1  0  0  0
 47124  1  0  0  0
 48 56  1  0  0  0
 48 65  1  0  0  0
 48125  1  0  0  0
 49 50  1  0  0  0
 49 53  1  0  0  0
 49 64  1  0  0  0
 49126  1  0  0  0
 50 51  1  0  0  0
 50127  1  0  0  0
 50128  1  0  0  0
 51 52  1  0  0  0
 51129  1  0  0  0
 51130  1  0  0  0
 52131  1  0  0  0
 52132  1  0  0  0
 53 54  1  0  0  0
 54 55  2  0  0  0
 54133  1  0  0  0
 55 57  1  0  0  0
 55134  1  0  0  0
 56 69  2  0  0  0
 57 58  2  0  0  0
 57135  1  0  0  0
 58136  1  0  0  0
 59 60  1  0  0  0
 59 61  1  0  0  0
 59 62  1  0  0  0
 60137  1  0  0  0
 60138  1  0  0  0
 60139  1  0  0  0
 61140  1  0  0  0
 61141  1  0  0  0
 61142  1  0  0  0
 62143  1  0  0  0
 62144  1  0  0  0
 62145  1  0  0  0
 63 65  1  0  0  0
 63146  1  0  0  0
 63147  1  0  0  0
 63148  1  0  0  0
 64149  1  0  0  0
 65150  1  0  0  0
 68 85  1  0  0  0
 71 73  2  0  0  0
 71 75  1  0  0  0
 71151  1  0  0  0
 72 73  1  0  0  0
 72 76  2  0  0  0
 72152  1  0  0  0
 73 86  1  0  0  0
 74 75  2  0  0  0
 74 76  1  0  0  0
 74 87  1  0  0  0
 75 88  1  0  0  0
 76 91  1  0  0  0
 77 78  1  0  0  0
 77 81  1  0  0  0
 77153  1  0  0  0
 77154  1  0  0  0
 78 82  1  0  0  0
 78155  1  0  0  0
 78156  1  0  0  0
 79 80  1  0  0  0
 79 83  1  0  0  0
 79157  1  0  0  0
 79158  1  0  0  0
 80 85  1  0  0  0
 80159  1  0  0  0
 80160  1  0  0  0
 81 89  1  0  0  0
 81161  1  0  0  0
 81162  1  0  0  0
 82 89  1  0  0  0
 82163  1  0  0  0
 82164  1  0  0  0
 83 90  1  0  0  0
 83165  1  0  0  0
 83166  1  0  0  0
 84 85  1  0  0  0
 84 90  1  0  0  0
 84167  1  0  0  0
 84168  1  0  0  0
 85169  1  0  0  0
 86170  1  0  0  0
 86171  1  0  0  0
 86 90  1  0  0  0
 87172  1  0  0  0
 87173  1  0  0  0
 87 89  1  0  0  0
 88174  1  0  0  0
 89175  1  0  0  0
 90176  1  0  0  0
M  CHG  2  89   1  90   1
M  ISO  4   1 100  68 101  85 101  88 100
M  END
> <chiral flag>
0

> <version>
0

> <s_m_source_file>
/data/baiqing/PycharmProjects/Reinvent-master-3.2/result/LINK_invent/BTK/process_docking_weight1_custom_product_contain_oxygen_bond_distance_aromatic_linkinvent_7_9_3/rearranged_h_0027.sdf

> <i_m_source_file_index>
78

> <r_mmod_Potential_Energy-OPLS-2005>
157.146194458008

> <r_mmod_Stretch_Energy-OPLS-2005>
123.372459411621

> <r_mmod_Bend_Energy-OPLS-2005>
195.202865600586

> <r_mmod_Torsional_Energy-OPLS-2005>
391.724182128906

> <r_mmod_Improper_Torsional_Energy-OPLS-2005>
8.28871440887451

> <r_mmod_Van_der_Waal_Energy-OPLS-2005>
141.344787597656

> <r_mmod_Electrostatic_Energy-OPLS-2005>
53.6200790405273

> <r_mmod_Solvation_Energy-OPLS-2005>
-853.8388671875

> <b_mmod_Minimization_Converged-OPLS-2005>
0

> <r_mmod_RMS_Derivative-OPLS-2005>
4.96522283554077

$$$$
79
                    3D
 Structure written by MMmdl.
164174  0  0  1  0            999 V2000
  -30.6136  -14.8518   20.3862 C   0  0  0  0  0  0
  -30.4453  -12.5136   19.5041 C   0  0  0  0  0  0
  -29.5378  -12.5123   18.2547 C   0  0  0  0  0  0
  -28.0618  -12.3299   18.6597 C   0  0  0  0  0  0
  -27.6456  -13.2519   19.8403 C   0  0  2  0  0  0
  -28.6908  -13.2498   20.9799 C   0  0  0  0  0  0
  -25.2537  -13.8236   20.5725 C   0  0  0  0  0  0
  -24.1828  -13.0474   20.9217 C   0  0  0  0  0  0
  -24.6452  -11.6957   20.8744 C   0  0  0  0  0  0
  -23.9117  -10.4329   21.0424 C   0  0  0  0  0  0
  -24.3648   -9.4231   21.9195 C   0  0  0  0  0  0
  -23.6315   -8.2265   22.0766 C   0  0  0  0  0  0
  -22.4291   -8.0315   21.3555 C   0  0  0  0  0  0
  -21.9941   -9.0305   20.4672 C   0  0  0  0  0  0
  -22.7289  -10.2171   20.3082 C   0  0  0  0  0  0
  -21.6849   -6.0763   22.5292 C   0  0  0  0  0  0
  -21.4012   -6.5662   23.8224 C   0  0  0  0  0  0
  -21.3651   -5.6798   24.9171 C   0  0  0  0  0  0
  -21.6050   -4.3067   24.7209 C   0  0  0  0  0  0
  -21.8806   -3.8167   23.4327 C   0  0  0  0  0  0
  -21.9173   -4.6992   22.3389 C   0  0  0  0  0  0
  -22.7828  -13.5260   21.1803 C   0  0  0  0  0  0
  -22.1651   -4.2184   21.0963 F   0  0  0  0  0  0
  -21.5622   -3.4538   25.7709 F   0  0  0  0  0  0
  -29.9874  -13.6119   20.3952 N   0  0  0  0  0  0
  -26.2989  -12.9504   20.3237 N   0  0  0  0  0  0
  -25.9398  -11.6630   20.5712 N   0  0  0  0  0  0
  -22.0418  -12.8328   22.0363 N   0  0  0  0  0  0
  -25.4211  -15.1970   20.4190 N   0  0  0  0  0  0
  -31.8010  -14.9012   20.0608 O   0  0  0  0  0  0
  -21.6644   -6.8922   21.4261 O   0  0  0  0  0  0
  -22.3539  -14.5549   20.6609 O   0  0  0  0  0  0
  -24.6401  -31.8476   23.1887 C   0  0  0  0  0  0
  -25.9193  -32.4703   23.8294 C   0  0  1  0  0  0
  -27.2355  -27.1978   20.1220 C   0  0  0  0  0  0
  -25.5954  -33.8512   24.2216 N   0  0  0  0  0  0
  -23.4407  -30.4662   21.5356 C   0  0  2  0  0  0
  -24.8927  -28.8960   20.1122 C   0  0  0  0  0  0
  -22.7565  -29.4562   22.4886 C   0  0  0  0  0  0
  -18.0297  -28.1372   22.8460 C   0  0  0  0  0  0
  -24.1502  -36.7281   23.2637 C   0  0  0  0  0  0
  -25.9944  -30.7410   21.3778 C   0  0  0  0  0  0
  -26.0691  -29.3561   20.7164 C   0  0  0  0  0  0
  -27.2451  -28.5227   20.6995 C   0  0  0  0  0  0
  -26.0310  -26.8183   19.4943 C   0  0  0  0  0  0
  -24.8827  -27.6395   19.4854 C   0  0  0  0  0  0
  -23.6626  -29.7897   20.1570 C   0  0  0  0  0  0
  -25.4132  -36.3050   24.0309 C   0  0  1  0  0  0
  -20.5909  -28.3709   23.1223 C   0  0  2  0  0  0
  -20.6780  -26.9422   22.5380 C   0  0  0  0  0  0
  -19.5752  -26.6367   21.5195 C   0  0  0  0  0  0
  -18.1943  -26.7892   22.1635 C   0  0  0  0  0  0
  -19.1546  -28.8863   23.2824 C   0  0  0  0  0  0
  -18.9468  -30.1463   23.8843 C   0  0  0  0  0  0
  -17.6460  -30.6569   24.0541 C   0  0  0  0  0  0
  -25.9072  -34.9408   23.5081 C   0  0  0  0  0  0
  -16.5356  -29.9048   23.6331 C   0  0  0  0  0  0
  -16.7276  -28.6473   23.0335 C   0  0  0  0  0  0
  -26.4518  -31.6534   25.0707 C   0  0  0  0  0  0
  -25.3731  -31.3736   26.1440 C   0  0  0  0  0  0
  -27.0339  -30.2917   24.6273 C   0  0  0  0  0  0
  -27.6110  -32.4245   25.7454 C   0  0  0  0  0  0
  -27.5585  -37.1793   24.8462 C   0  0  0  0  0  0
  -21.4266  -29.3034   22.3622 N   0  0  0  0  0  0
  -26.4304  -37.3754   23.9386 N   0  0  0  0  0  0
  -24.7101  -31.0378   22.0895 N   0  0  0  0  0  0
  -23.4212  -28.8114   23.3027 O   0  0  0  0  0  0
  -28.3217  -26.2665   20.1359 O   0  0  0  0  0  0
  -26.5667  -34.8890   22.4660 O   0  0  0  0  0  0
  -23.5533  -32.1338   23.7142 O   0  0  0  0  0  0
  -30.2063  -18.4450   17.6647 C   0  0  0  0  0  0
  -30.2487  -17.3027   18.4836 C   0  0  0  0  0  0
  -29.6873  -18.7241   20.3654 C   0  0  0  0  0  0
  -29.9332  -19.7476   18.1539 C   0  0  0  0  0  0
  -29.7010  -19.9610   19.5540 C   0  0  0  0  0  0
  -29.9639  -17.3635   19.8587 C   0  0  0  0  0  0
  -29.5197  -21.7234   15.2060 C   0  0  0  0  0  0
  -30.6450  -20.8302   15.7409 C   0  0  0  0  0  0
  -28.6293  -21.0968   16.2884 C   0  0  0  0  0  0
  -29.1732  -23.8660   21.0060 C   0  0  0  0  0  0
  -28.3302  -23.6122   19.2192 C   0  0  0  0  0  0
  -29.9127  -20.8796   17.1136 C   0  0  0  0  0  0
  -28.0876  -24.7539   20.3035 C   0  0  2  0  0  0
  -29.7983  -21.4828   20.1575 C   0  0  0  0  0  0
  -29.8894  -16.0424   20.5866 N   0  0  0  0  0  0
  -28.7254  -22.6192   20.2873 N   0  3  1  0  0  0
  -31.4913  -12.6259   19.2104 H   0  0  0  0  0  0
  -30.3909  -11.5591   20.0277 H   0  0  0  0  0  0
  -29.8495  -11.7207   17.5706 H   0  0  0  0  0  0
  -29.6556  -13.4497   17.7088 H   0  0  0  0  0  0
  -27.9278  -11.2871   18.9440 H   0  0  0  0  0  0
  -27.4133  -12.4984   17.7999 H   0  0  0  0  0  0
  -27.6232  -14.2622   19.4309 H   0  0  0  0  0  0
  -28.7430  -12.2739   21.4643 H   0  0  0  0  0  0
  -28.4102  -13.9613   21.7572 H   0  0  0  0  0  0
  -25.2799   -9.5708   22.4752 H   0  0  0  0  0  0
  -24.0021   -7.4664   22.7512 H   0  0  0  0  0  0
  -21.0855   -8.8864   19.8995 H   0  0  0  0  0  0
  -22.3775  -10.9716   19.6185 H   0  0  0  0  0  0
  -21.2039   -7.6167   23.9755 H   0  0  0  0  0  0
  -21.1479   -6.0507   25.9075 H   0  0  0  0  0  0
  -22.0589   -2.7632   23.2797 H   0  0  0  0  0  0
  -22.3969  -12.0064   22.4924 H   0  0  0  0  0  0
  -21.1041  -13.1442   22.2416 H   0  0  0  0  0  0
  -24.6618  -15.8509   20.5738 H   0  0  0  0  0  0
  -26.2723  -15.6439   20.1015 H   0  0  0  0  0  0
  -26.7280  -32.5346   23.1054 H   0  0  0  0  0  0
  -25.0050  -33.9631   25.0330 H   0  0  0  0  0  0
  -22.7417  -31.2917   21.3817 H   0  0  0  0  0  0
  -23.3754  -35.9618   23.3265 H   0  0  0  0  0  0
  -24.3611  -36.8969   22.2067 H   0  0  0  0  0  0
  -23.7277  -37.6476   23.6690 H   0  0  0  0  0  0
  -26.1457  -31.4998   20.6084 H   0  0  0  0  0  0
  -26.8661  -30.7900   22.0175 H   0  0  0  0  0  0
  -28.1525  -28.8740   21.1710 H   0  0  0  0  0  0
  -25.9665  -25.8566   19.0126 H   0  0  0  0  0  0
  -23.9854  -27.2855   18.9975 H   0  0  0  0  0  0
  -23.7906  -30.5588   19.3970 H   0  0  0  0  0  0
  -22.7817  -29.2213   19.8551 H   0  0  0  0  0  0
  -25.1312  -36.1890   25.0799 H   0  0  0  0  0  0
  -20.9999  -28.3287   24.1341 H   0  0  0  0  0  0
  -20.5720  -26.2311   23.3581 H   0  0  0  0  0  0
  -21.6636  -26.7443   22.1156 H   0  0  0  0  0  0
  -19.6915  -25.6273   21.1231 H   0  0  0  0  0  0
  -19.6646  -27.3160   20.6709 H   0  0  0  0  0  0
  -17.4191  -26.6593   21.4058 H   0  0  0  0  0  0
  -18.0388  -26.0051   22.9066 H   0  0  0  0  0  0
  -19.7949  -30.7302   24.2163 H   0  0  0  0  0  0
  -17.5005  -31.6238   24.5166 H   0  0  0  0  0  0
  -15.5346  -30.2923   23.7678 H   0  0  0  0  0  0
  -15.8683  -28.0785   22.7040 H   0  0  0  0  0  0
  -24.5703  -30.7378   25.7695 H   0  0  0  0  0  0
  -24.9175  -32.2939   26.5108 H   0  0  0  0  0  0
  -25.7961  -30.8614   27.0097 H   0  0  0  0  0  0
  -26.2918  -29.6634   24.1344 H   0  0  0  0  0  0
  -27.4006  -29.7231   25.4836 H   0  0  0  0  0  0
  -27.8817  -30.4114   23.9525 H   0  0  0  0  0  0
  -27.2797  -33.3588   26.2007 H   0  0  0  0  0  0
  -28.3923  -32.6750   25.0251 H   0  0  0  0  0  0
  -28.0778  -31.8373   26.5387 H   0  0  0  0  0  0
  -28.2591  -38.0104   24.7514 H   0  0  0  0  0  0
  -28.1085  -36.2625   24.6264 H   0  0  0  0  0  0
  -27.2291  -37.1457   25.8866 H   0  0  0  0  0  0
  -20.9485  -29.8740   21.6794 H   0  0  0  0  0  0
  -26.0169  -38.2828   24.1343 H   0  0  0  0  0  0
  -30.3956  -18.2817   16.6154 H   0  0  0  0  0  0
  -30.4739  -16.3541   18.0179 H   0  0  0  0  0  0
  -29.5119  -18.8371   21.4260 H   0  0  0  0  0  0
  -29.2089  -21.5219   14.1785 H   0  0  0  0  0  0
  -29.7074  -22.7859   15.3789 H   0  0  0  0  0  0
  -31.6488  -21.2622   15.7045 H   0  0  0  0  0  0
  -30.6411  -19.8674   15.2238 H   0  0  0  0  0  0
  -28.1738  -20.1623   15.9450 H   0  0  0  0  0  0
  -27.8718  -21.7488   16.7304 H   0  0  0  0  0  0
  -29.0877  -23.8049   22.0910 H   0  0  0  0  0  0
  -30.1910  -24.1578   20.7253 H   0  0  0  0  0  0
  -29.1338  -23.8294   18.5135 H   0  0  0  0  0  0
  -27.4264  -23.3061   18.6901 H   0  0  0  0  0  0
  -30.2005  -21.8204   17.5843 H   0  0  0  0  0  0
  -27.1384  -24.5959   20.8211 H   0  0  0  0  0  0
  -30.6822  -21.9349   19.7123 H   0  0  0  0  0  0
  -30.1161  -21.3200   21.1857 H   0  0  0  0  0  0
  -29.0444  -15.9185   21.1242 H   0  0  0  0  0  0
  -27.9084  -22.2542   20.7539 H   0  0  0  0  0  0
  1 25  1  0  0  0
  1 30  2  0  0  0
  1 85  1  0  0  0
  2  3  1  0  0  0
  2 25  1  0  0  0
  2 87  1  0  0  0
  2 88  1  0  0  0
  3  4  1  0  0  0
  3 89  1  0  0  0
  3 90  1  0  0  0
  4  5  1  0  0  0
  4 91  1  0  0  0
  4 92  1  0  0  0
  5  6  1  0  0  0
  5 26  1  0  0  0
  5 93  1  0  0  0
  6 25  1  0  0  0
  6 94  1  0  0  0
  6 95  1  0  0  0
  7  8  2  0  0  0
  7 26  1  0  0  0
  7 29  1  0  0  0
  8  9  1  0  0  0
  8 22  1  0  0  0
  9 10  1  0  0  0
  9 27  2  0  0  0
 10 11  2  0  0  0
 10 15  1  0  0  0
 11 12  1  0  0  0
 11 96  1  0  0  0
 12 13  2  0  0  0
 12 97  1  0  0  0
 13 14  1  0  0  0
 13 31  1  0  0  0
 14 15  2  0  0  0
 14 98  1  0  0  0
 15 99  1  0  0  0
 16 17  2  0  0  0
 16 21  1  0  0  0
 16 31  1  0  0  0
 17 18  1  0  0  0
 17100  1  0  0  0
 18 19  2  0  0  0
 18101  1  0  0  0
 19 20  1  0  0  0
 19 24  1  0  0  0
 20 21  2  0  0  0
 20102  1  0  0  0
 21 23  1  0  0  0
 22 28  1  0  0  0
 22 32  2  0  0  0
 26 27  1  0  0  0
 28103  1  0  0  0
 28104  1  0  0  0
 29105  1  0  0  0
 29106  1  0  0  0
 33 34  1  0  0  0
 33 66  1  0  0  0
 33 70  2  0  0  0
 34 36  1  0  0  0
 34 59  1  0  0  0
 34107  1  0  0  0
 35 44  2  0  0  0
 35 45  1  0  0  0
 35 68  1  0  0  0
 36 56  1  0  0  0
 36108  1  0  0  0
 37 39  1  0  0  0
 37 47  1  0  0  0
 37 66  1  0  0  0
 37109  1  0  0  0
 38 43  2  0  0  0
 38 46  1  0  0  0
 38 47  1  0  0  0
 39 64  1  0  0  0
 39 67  2  0  0  0
 40 52  1  0  0  0
 40 53  2  0  0  0
 40 58  1  0  0  0
 41110  1  0  0  0
 41111  1  0  0  0
 41112  1  0  0  0
 41 48  1  0  0  0
 42 43  1  0  0  0
 42 66  1  0  0  0
 42113  1  0  0  0
 42114  1  0  0  0
 43 44  1  0  0  0
 44115  1  0  0  0
 45 46  2  0  0  0
 45116  1  0  0  0
 46117  1  0  0  0
 47118  1  0  0  0
 47119  1  0  0  0
 48 56  1  0  0  0
 48 65  1  0  0  0
 48120  1  0  0  0
 49 50  1  0  0  0
 49 53  1  0  0  0
 49 64  1  0  0  0
 49121  1  0  0  0
 50 51  1  0  0  0
 50122  1  0  0  0
 50123  1  0  0  0
 51 52  1  0  0  0
 51124  1  0  0  0
 51125  1  0  0  0
 52126  1  0  0  0
 52127  1  0  0  0
 53 54  1  0  0  0
 54 55  2  0  0  0
 54128  1  0  0  0
 55 57  1  0  0  0
 55129  1  0  0  0
 56 69  2  0  0  0
 57 58  2  0  0  0
 57130  1  0  0  0
 58131  1  0  0  0
 59 60  1  0  0  0
 59 61  1  0  0  0
 59 62  1  0  0  0
 60132  1  0  0  0
 60133  1  0  0  0
 60134  1  0  0  0
 61135  1  0  0  0
 61136  1  0  0  0
 61137  1  0  0  0
 62138  1  0  0  0
 62139  1  0  0  0
 62140  1  0  0  0
 63 65  1  0  0  0
 63141  1  0  0  0
 63142  1  0  0  0
 63143  1  0  0  0
 64144  1  0  0  0
 65145  1  0  0  0
 68 83  1  0  0  0
 71 72  2  0  0  0
 71 74  1  0  0  0
 71146  1  0  0  0
 72 76  1  0  0  0
 72147  1  0  0  0
 73 75  1  0  0  0
 73 76  2  0  0  0
 73148  1  0  0  0
 74 75  2  0  0  0
 74 82  1  0  0  0
 75 84  1  0  0  0
 76 85  1  0  0  0
 77 78  1  0  0  0
 77 79  1  0  0  0
 77149  1  0  0  0
 77150  1  0  0  0
 78 82  1  0  0  0
 78151  1  0  0  0
 78152  1  0  0  0
 79 82  1  0  0  0
 79153  1  0  0  0
 79154  1  0  0  0
 80 83  1  0  0  0
 80 86  1  0  0  0
 80155  1  0  0  0
 80156  1  0  0  0
 81 83  1  0  0  0
 81 86  1  0  0  0
 81157  1  0  0  0
 81158  1  0  0  0
 82159  1  0  0  0
 83160  1  0  0  0
 84161  1  0  0  0
 84162  1  0  0  0
 84 86  1  0  0  0
 85163  1  0  0  0
 86164  1  0  0  0
M  CHG  1  86   1
M  ISO  4   1 100  68 101  83 101  85 100
M  END
> <chiral flag>
0

> <version>
0

> <s_m_source_file>
/data/baiqing/PycharmProjects/Reinvent-master-3.2/result/LINK_invent/BTK/process_docking_weight1_custom_product_contain_oxygen_bond_distance_aromatic_linkinvent_7_9_3/rearranged_h_0027.sdf

> <i_m_source_file_index>
79

> <r_mmod_Potential_Energy-OPLS-2005>
225.819671630859

> <r_mmod_Stretch_Energy-OPLS-2005>
187.538024902344

> <r_mmod_Bend_Energy-OPLS-2005>
286.274139404297

> <r_mmod_Torsional_Energy-OPLS-2005>
276.786987304688

> <r_mmod_Improper_Torsional_Energy-OPLS-2005>
6.34625673294067

> <r_mmod_Van_der_Waal_Energy-OPLS-2005>
133.735748291016

> <r_mmod_Electrostatic_Energy-OPLS-2005>
-314.636413574219

> <r_mmod_Solvation_Energy-OPLS-2005>
-483.519256591797

> <b_mmod_Minimization_Converged-OPLS-2005>
0

> <r_mmod_RMS_Derivative-OPLS-2005>
5.23385429382324

$$$$
80
                    3D
 Structure written by MMmdl.
160169  0  0  1  0            999 V2000
  -29.7264  -14.1034   21.8877 C   0  0  0  0  0  0
  -30.5481  -13.3052   19.2774 C   0  0  0  0  0  0
  -29.6892  -13.1645   17.8265 C   0  0  0  0  0  0
  -28.1375  -12.6089   17.8386 C   0  0  0  0  0  0
  -27.6126  -12.9123   19.1934 C   0  0  2  0  0  0
  -28.9725  -12.2229   19.8917 C   0  0  0  0  0  0
  -25.0555  -14.6057   21.0933 C   0  0  0  0  0  0
  -24.4027  -14.2243   21.2829 C   0  0  0  0  0  0
  -25.2246  -12.2441   20.4458 C   0  0  0  0  0  0
  -24.4379  -10.6431   20.7494 C   0  0  0  0  0  0
  -24.6326   -9.6676   21.8196 C   0  0  0  0  0  0
  -23.8233   -8.4822   22.0807 C   0  0  0  0  0  0
  -22.6436   -8.1709   21.3467 C   0  0  0  0  0  0
  -22.3643   -9.0885   20.3245 C   0  0  0  0  0  0
  -23.2573  -10.1664   20.0121 C   0  0  0  0  0  0
  -21.7831   -6.1667   22.5310 C   0  0  0  0  0  0
  -21.4648   -6.6166   23.8310 C   0  0  0  0  0  0
  -21.3848   -5.7079   24.9092 C   0  0  0  0  0  0
  -21.6033   -4.3335   24.6988 C   0  0  0  0  0  0
  -21.8758   -3.8666   23.4022 C   0  0  0  0  0  0
  -21.9537   -4.7725   22.3240 C   0  0  0  0  0  0
  -22.9450  -14.6846   21.9125 C   0  0  0  0  0  0
  -22.1828   -4.2850   21.0804 F   0  0  0  0  0  0
  -21.5521   -3.4666   25.7402 F   0  0  0  0  0  0
  -29.7749  -13.2902   20.5978 N   0  0  0  0  0  0
  -25.9742  -13.0493   19.8599 N   0  0  0  0  0  0
  -25.7206  -11.9278   19.4370 N   0  0  0  0  0  0
  -22.2636  -13.7770   22.6729 N   0  0  0  0  0  0
  -25.2813  -15.9506   21.5755 N   0  0  0  0  0  0
  -30.7995  -14.7689   21.7161 O   0  0  0  0  0  0
  -21.8134   -7.0430   21.4567 O   0  0  0  0  0  0
  -22.2222  -15.3385   21.1655 O   0  0  0  0  0  0
  -24.7364  -31.7306   23.1129 C   0  0  0  0  0  0
  -25.9719  -32.4080   23.7805 C   0  0  1  0  0  0
  -26.7559  -26.0215   20.1444 C   0  0  0  0  0  0
  -25.6091  -33.7957   24.1618 N   0  0  0  0  0  0
  -23.5513  -30.3516   21.4911 C   0  0  2  0  0  0
  -24.9008  -28.5866   20.0832 C   0  0  0  0  0  0
  -22.7864  -29.4031   22.4569 C   0  0  0  0  0  0
  -18.0344  -28.1422   22.8446 C   0  0  0  0  0  0
  -24.1502  -36.6971   23.2671 C   0  0  0  0  0  0
  -26.1418  -30.2054   21.4666 C   0  0  0  0  0  0
  -26.0974  -28.7214   20.7864 C   0  0  0  0  0  0
  -27.0185  -27.4697   20.7780 C   0  0  0  0  0  0
  -25.6224  -26.2829   19.3522 C   0  0  0  0  0  0
  -24.7469  -27.4119   19.3374 C   0  0  0  0  0  0
  -23.7948  -29.6621   20.1190 C   0  0  0  0  0  0
  -25.4176  -36.2661   24.0236 C   0  0  1  0  0  0
  -20.5993  -28.3783   23.1072 C   0  0  2  0  0  0
  -20.6778  -26.9407   22.5406 C   0  0  0  0  0  0
  -19.5758  -26.6343   21.5214 C   0  0  0  0  0  0
  -18.1948  -26.7945   22.1618 C   0  0  0  0  0  0
  -19.1621  -28.8934   23.2738 C   0  0  0  0  0  0
  -18.9530  -30.1515   23.8792 C   0  0  0  0  0  0
  -17.6517  -30.6602   24.0538 C   0  0  0  0  0  0
  -25.9206  -34.9074   23.4796 C   0  0  0  0  0  0
  -16.5402  -29.9079   23.6359 C   0  0  0  0  0  0
  -16.7326  -28.6501   23.0381 C   0  0  0  0  0  0
  -26.4708  -31.6411   25.0690 C   0  0  0  0  0  0
  -25.3638  -31.3896   26.1215 C   0  0  0  0  0  0
  -27.0736  -30.2701   24.7030 C   0  0  0  0  0  0
  -27.6031  -32.4441   25.7530 C   0  0  0  0  0  0
  -27.5537  -37.1652   24.8474 C   0  0  0  0  0  0
  -21.4488  -29.2958   22.3341 N   0  0  0  0  0  0
  -26.4240  -37.3497   23.9409 N   0  0  0  0  0  0
  -24.8502  -30.8151   22.0710 N   0  0  0  0  0  0
  -23.4141  -28.7644   23.3045 O   0  0  0  0  0  0
  -27.3181  -24.4204   20.0674 O   0  0  0  0  0  0
  -26.5912  -34.8774   22.4462 O   0  0  0  0  0  0
  -23.6315  -32.0743   23.5784 O   0  0  0  0  0  0
  -23.1488  -12.7891   20.3698 C   0  0  0  0  0  0
  -24.2170  -14.2518   18.9875 C   0  0  0  0  0  0
  -26.3066  -13.1221   22.3916 C   0  0  0  0  0  0
  -24.6922  -12.5498   22.5867 C   0  0  0  0  0  0
  -26.2076  -15.3160   19.3871 C   0  0  0  0  0  0
  -27.2406  -14.2952   21.1560 C   0  0  0  0  0  0
  -27.6034  -20.6997   20.0459 C   0  0  0  0  0  0
  -26.0045  -20.9435   19.2335 C   0  0  0  0  0  0
  -26.8281  -22.4037   20.0604 C   0  0  2  0  0  0
  -27.5833  -12.4362   21.7437 C   0  0  0  0  0  0
  -26.4241  -13.7056   23.5041 C   0  0  0  0  0  0
  -26.5209  -17.4573   19.1785 C   0  0  0  0  0  0
  -28.5089  -14.1384   23.1486 N   0  0  0  0  0  0
  -26.5013  -19.3797   19.8177 N   0  3  1  0  0  0
  -31.0904  -14.2523   19.2295 H   0  0  0  0  0  0
  -31.3527  -12.5641   19.3196 H   0  0  0  0  0  0
  -30.2757  -12.6185   17.0898 H   0  0  0  0  0  0
  -29.6364  -14.1722   17.4174 H   0  0  0  0  0  0
  -28.0814  -11.5419   17.6145 H   0  0  0  0  0  0
  -27.5522  -13.1041   17.0626 H   0  0  0  0  0  0
  -27.9387  -13.9267   19.0168 H   0  0  0  0  0  0
  -29.4842  -11.4533   19.2801 H   0  0  0  0  0  0
  -28.9236  -11.2380   20.3690 H   0  0  0  0  0  0
  -25.4691   -9.8337   22.4857 H   0  0  0  0  0  0
  -24.1324   -7.8200   22.8785 H   0  0  0  0  0  0
  -21.4968   -8.9227   19.6970 H   0  0  0  0  0  0
  -22.9899  -10.7031   19.1140 H   0  0  0  0  0  0
  -21.2812   -7.6669   24.0029 H   0  0  0  0  0  0
  -21.1609   -6.0692   25.9027 H   0  0  0  0  0  0
  -22.0213   -2.8114   23.2304 H   0  0  0  0  0  0
  -22.7591  -12.9708   23.0252 H   0  0  0  0  0  0
  -21.2777  -13.8797   22.8542 H   0  0  0  0  0  0
  -24.6847  -16.3955   22.2579 H   0  0  0  0  0  0
  -26.2339  -16.2908   21.5868 H   0  0  0  0  0  0
  -26.7831  -32.4332   23.0513 H   0  0  0  0  0  0
  -25.0064  -33.8893   24.9658 H   0  0  0  0  0  0
  -22.9110  -31.2162   21.3004 H   0  0  0  0  0  0
  -23.3795  -35.9268   23.3239 H   0  0  0  0  0  0
  -24.3546  -36.8764   22.2105 H   0  0  0  0  0  0
  -23.7248  -37.6092   23.6863 H   0  0  0  0  0  0
  -26.4592  -30.8909   20.6806 H   0  0  0  0  0  0
  -26.9668  -30.2132   22.1640 H   0  0  0  0  0  0
  -27.9088  -27.5519   21.3852 H   0  0  0  0  0  0
  -25.2948  -25.4503   18.7460 H   0  0  0  0  0  0
  -23.8583  -27.3182   18.7282 H   0  0  0  0  0  0
  -24.0630  -30.4209   19.3830 H   0  0  0  0  0  0
  -22.8621  -29.2272   19.7560 H   0  0  0  0  0  0
  -25.1420  -36.1322   25.0722 H   0  0  0  0  0  0
  -21.0072  -28.3431   24.1202 H   0  0  0  0  0  0
  -20.5591  -26.2415   23.3700 H   0  0  0  0  0  0
  -21.6635  -26.7276   22.1252 H   0  0  0  0  0  0
  -19.6895  -25.6229   21.1301 H   0  0  0  0  0  0
  -19.6708  -27.3106   20.6708 H   0  0  0  0  0  0
  -17.4216  -26.6706   21.4023 H   0  0  0  0  0  0
  -18.0317  -26.0106   22.9029 H   0  0  0  0  0  0
  -19.8009  -30.7353   24.2115 H   0  0  0  0  0  0
  -17.5069  -31.6274   24.5155 H   0  0  0  0  0  0
  -15.5399  -30.2948   23.7734 H   0  0  0  0  0  0
  -15.8732  -28.0777   22.7161 H   0  0  0  0  0  0
  -24.5878  -30.7179   25.7525 H   0  0  0  0  0  0
  -24.8778  -32.3168   26.4262 H   0  0  0  0  0  0
  -25.7707  -30.9317   27.0242 H   0  0  0  0  0  0
  -26.3474  -29.6055   24.2344 H   0  0  0  0  0  0
  -27.4230  -29.7483   25.5952 H   0  0  0  0  0  0
  -27.9448  -30.3712   24.0556 H   0  0  0  0  0  0
  -27.2474  -33.3883   26.1672 H   0  0  0  0  0  0
  -28.4050  -32.6785   25.0515 H   0  0  0  0  0  0
  -28.0472  -31.8893   26.5808 H   0  0  0  0  0  0
  -28.2486  -38.0004   24.7497 H   0  0  0  0  0  0
  -28.1097  -36.2512   24.6330 H   0  0  0  0  0  0
  -27.2245  -37.1302   25.8874 H   0  0  0  0  0  0
  -20.9850  -29.8623   21.6376 H   0  0  0  0  0  0
  -25.9998  -38.2511   24.1429 H   0  0  0  0  0  0
  -22.1459  -12.4076   20.2308 H   0  0  0  0  0  0
  -23.6056  -14.6637   18.1956 H   0  0  0  0  0  0
  -26.0405  -11.9690   22.7328 H   0  0  0  0  0  0
  -28.1732  -20.5323   20.9600 H   0  0  0  0  0  0
  -28.3526  -20.6494   19.2472 H   0  0  0  0  0  0
  -26.1735  -20.9820   18.1532 H   0  0  0  0  0  0
  -24.9231  -21.0224   19.3494 H   0  0  0  0  0  0
  -26.3182  -22.4257   21.0233 H   0  0  0  0  0  0
  -27.9183  -11.9656   22.7466 H   0  0  0  0  0  0
  -28.5666  -12.0681   22.0596 H   0  0  0  0  0  0
  -27.2330  -11.4960   21.2608 H   0  0  0  0  0  0
  -26.4931  -13.2929   24.5443 H   0  0  0  0  0  0
  -26.0267  -14.7020   23.8304 H   0  0  0  0  0  0
  -25.9474  -17.5999   18.2641 H   0  0  0  0  0  0
  -27.5499  -17.4274   18.8259 H   0  0  0  0  0  0
  -28.8584  -14.7014   23.9097 H   0  0  0  0  0  0
  -26.0283  -19.2793   20.7031 H   0  0  0  0  0  0
  1 25  1  0  0  0
  1 30  2  0  0  0
  1 83  1  0  0  0
  2  3  1  0  0  0
  2 25  1  0  0  0
  2 85  1  0  0  0
  2 86  1  0  0  0
  3  4  1  0  0  0
  3 87  1  0  0  0
  3 88  1  0  0  0
  4  5  1  0  0  0
  4 89  1  0  0  0
  4 90  1  0  0  0
  5  6  1  0  0  0
  5 26  1  0  0  0
  5 91  1  0  0  0
  6 25  1  0  0  0
  6 92  1  0  0  0
  6 93  1  0  0  0
  7  8  2  0  0  0
  7 26  1  0  0  0
  7 29  1  0  0  0
  8  9  1  0  0  0
  8 22  1  0  0  0
  9 10  1  0  0  0
  9 27  2  0  0  0
 10 11  2  0  0  0
 10 15  1  0  0  0
 11 12  1  0  0  0
 11 94  1  0  0  0
 12 13  2  0  0  0
 12 95  1  0  0  0
 13 14  1  0  0  0
 13 31  1  0  0  0
 14 15  2  0  0  0
 14 96  1  0  0  0
 15 97  1  0  0  0
 16 17  2  0  0  0
 16 21  1  0  0  0
 16 31  1  0  0  0
 17 18  1  0  0  0
 17 98  1  0  0  0
 18 19  2  0  0  0
 18 99  1  0  0  0
 19 20  1  0  0  0
 19 24  1  0  0  0
 20 21  2  0  0  0
 20100  1  0  0  0
 21 23  1  0  0  0
 22 28  1  0  0  0
 22 32  2  0  0  0
 26 27  1  0  0  0
 28101  1  0  0  0
 28102  1  0  0  0
 29103  1  0  0  0
 29104  1  0  0  0
 33 34  1  0  0  0
 33 66  1  0  0  0
 33 70  2  0  0  0
 34 36  1  0  0  0
 34 59  1  0  0  0
 34105  1  0  0  0
 35 44  2  0  0  0
 35 45  1  0  0  0
 35 68  1  0  0  0
 36 56  1  0  0  0
 36106  1  0  0  0
 37 39  1  0  0  0
 37 47  1  0  0  0
 37 66  1  0  0  0
 37107  1  0  0  0
 38 43  2  0  0  0
 38 46  1  0  0  0
 38 47  1  0  0  0
 39 64  1  0  0  0
 39 67  2  0  0  0
 40 52  1  0  0  0
 40 53  2  0  0  0
 40 58  1  0  0  0
 41108  1  0  0  0
 41109  1  0  0  0
 41110  1  0  0  0
 41 48  1  0  0  0
 42 43  1  0  0  0
 42 66  1  0  0  0
 42111  1  0  0  0
 42112  1  0  0  0
 43 44  1  0  0  0
 44113  1  0  0  0
 45 46  2  0  0  0
 45114  1  0  0  0
 46115  1  0  0  0
 47116  1  0  0  0
 47117  1  0  0  0
 48 56  1  0  0  0
 48 65  1  0  0  0
 48118  1  0  0  0
 49 50  1  0  0  0
 49 53  1  0  0  0
 49 64  1  0  0  0
 49119  1  0  0  0
 50 51  1  0  0  0
 50120  1  0  0  0
 50121  1  0  0  0
 51 52  1  0  0  0
 51122  1  0  0  0
 51123  1  0  0  0
 52124  1  0  0  0
 52125  1  0  0  0
 53 54  1  0  0  0
 54 55  2  0  0  0
 54126  1  0  0  0
 55 57  1  0  0  0
 55127  1  0  0  0
 56 69  2  0  0  0
 57 58  2  0  0  0
 57128  1  0  0  0
 58129  1  0  0  0
 59 60  1  0  0  0
 59 61  1  0  0  0
 59 62  1  0  0  0
 60130  1  0  0  0
 60131  1  0  0  0
 60132  1  0  0  0
 61133  1  0  0  0
 61134  1  0  0  0
 61135  1  0  0  0
 62136  1  0  0  0
 62137  1  0  0  0
 62138  1  0  0  0
 63 65  1  0  0  0
 63139  1  0  0  0
 63140  1  0  0  0
 63141  1  0  0  0
 64142  1  0  0  0
 65143  1  0  0  0
 68 79  1  0  0  0
 71 72  2  0  0  0
 71 74  1  0  0  0
 71144  1  0  0  0
 72 75  1  0  0  0
 72145  1  0  0  0
 73 74  2  0  0  0
 73 76  1  0  0  0
 73146  1  0  0  0
 74 81  1  0  0  0
 75 76  2  0  0  0
 75 82  1  0  0  0
 76 80  1  0  0  0
 77 79  1  0  0  0
 77 84  1  0  0  0
 77147  1  0  0  0
 77148  1  0  0  0
 78 79  1  0  0  0
 78 84  1  0  0  0
 78149  1  0  0  0
 78150  1  0  0  0
 79151  1  0  0  0
 80152  1  0  0  0
 80153  1  0  0  0
 80154  1  0  0  0
 81 83  1  0  0  0
 81155  1  0  0  0
 81156  1  0  0  0
 82157  1  0  0  0
 82158  1  0  0  0
 82 84  1  0  0  0
 83159  1  0  0  0
 84160  1  0  0  0
M  CHG  1  84   1
M  ISO  4   1 100  68 101  79 101  83 100
M  END
> <chiral flag>
0

> <version>
0

> <s_m_source_file>
/data/baiqing/PycharmProjects/Reinvent-master-3.2/result/LINK_invent/BTK/process_docking_weight1_custom_product_contain_oxygen_bond_distance_aromatic_linkinvent_7_9_3/rearranged_h_0027.sdf

> <i_m_source_file_index>
80

> <r_mmod_Potential_Energy-OPLS-2005>
31265.896484375

> <r_mmod_Stretch_Energy-OPLS-2005>
17622.23828125

> <r_mmod_Bend_Energy-OPLS-2005>
3972.50805664062

> <r_mmod_Torsional_Energy-OPLS-2005>
606.823974609375

> <r_mmod_Improper_Torsional_Energy-OPLS-2005>
129.91291809082

> <r_mmod_Van_der_Waal_Energy-OPLS-2005>
6065.24853515625

> <r_mmod_Electrostatic_Energy-OPLS-2005>
-357.292297363281

> <r_mmod_Solvation_Energy-OPLS-2005>
-498.507080078125

> <b_mmod_Minimization_Converged-OPLS-2005>
0

> <r_mmod_RMS_Derivative-OPLS-2005>
7.42122936248779

$$$$
81
                    3D
 Structure written by MMmdl.
161170  0  0  1  0            999 V2000
  -30.5826  -14.7386   20.4782 C   0  0  0  0  0  0
  -30.4417  -12.4474   19.4752 C   0  0  0  0  0  0
  -29.5172  -12.5112   18.2374 C   0  0  0  0  0  0
  -28.0411  -12.3282   18.6445 C   0  0  0  0  0  0
  -27.6443  -13.2232   19.8471 C   0  0  2  0  0  0
  -28.6860  -13.1380   20.9841 C   0  0  0  0  0  0
  -25.2531  -13.8175   20.5677 C   0  0  0  0  0  0
  -24.1818  -13.0437   20.9206 C   0  0  0  0  0  0
  -24.6395  -11.6908   20.8736 C   0  0  0  0  0  0
  -23.9065  -10.4291   21.0403 C   0  0  0  0  0  0
  -24.3616   -9.4206   21.9180 C   0  0  0  0  0  0
  -23.6293   -8.2241   22.0751 C   0  0  0  0  0  0
  -22.4275   -8.0281   21.3543 C   0  0  0  0  0  0
  -21.9910   -9.0254   20.4643 C   0  0  0  0  0  0
  -22.7237  -10.2132   20.3052 C   0  0  0  0  0  0
  -21.6849   -6.0740   22.5277 C   0  0  0  0  0  0
  -21.4011   -6.5642   23.8213 C   0  0  0  0  0  0
  -21.3663   -5.6792   24.9174 C   0  0  0  0  0  0
  -21.6048   -4.3057   24.7219 C   0  0  0  0  0  0
  -21.8818   -3.8151   23.4338 C   0  0  0  0  0  0
  -21.9192   -4.6970   22.3397 C   0  0  0  0  0  0
  -22.7842  -13.5226   21.1875 C   0  0  0  0  0  0
  -22.1659   -4.2159   21.0974 F   0  0  0  0  0  0
  -21.5630   -3.4538   25.7730 F   0  0  0  0  0  0
  -29.9941  -13.4937   20.4220 N   0  0  0  0  0  0
  -26.2948  -12.9365   20.3237 N   0  0  0  0  0  0
  -25.9317  -11.6520   20.5716 N   0  0  0  0  0  0
  -22.0480  -12.8215   22.0419 N   0  0  0  0  0  0
  -25.4238  -15.1899   20.4085 N   0  0  0  0  0  0
  -31.7607  -14.8587   20.1271 O   0  0  0  0  0  0
  -21.6638   -6.8881   21.4239 O   0  0  0  0  0  0
  -22.3529  -14.5537   20.6725 O   0  0  0  0  0  0
  -24.6286  -31.8563   23.2004 C   0  0  0  0  0  0
  -25.9118  -32.4768   23.8350 C   0  0  1  0  0  0
  -27.2202  -27.2679   20.1459 C   0  0  0  0  0  0
  -25.5922  -33.8573   24.2271 N   0  0  0  0  0  0
  -23.4266  -30.4753   21.5443 C   0  0  2  0  0  0
  -24.8765  -28.9180   20.1189 C   0  0  0  0  0  0
  -22.7494  -29.4591   22.4949 C   0  0  0  0  0  0
  -18.0285  -28.1367   22.8483 C   0  0  0  0  0  0
  -24.1487  -36.7295   23.2643 C   0  0  0  0  0  0
  -25.9704  -30.7678   21.3836 C   0  0  0  0  0  0
  -26.0444  -29.3860   20.7376 C   0  0  0  0  0  0
  -27.2213  -28.5710   20.7449 C   0  0  0  0  0  0
  -26.0467  -26.8767   19.4757 C   0  0  0  0  0  0
  -24.8811  -27.6688   19.4780 C   0  0  0  0  0  0
  -23.6457  -29.8038   20.1629 C   0  0  0  0  0  0
  -25.4113  -36.3077   24.0324 C   0  0  1  0  0  0
  -20.5886  -28.3680   23.1276 C   0  0  2  0  0  0
  -20.6774  -26.9402   22.5403 C   0  0  0  0  0  0
  -19.5752  -26.6365   21.5204 C   0  0  0  0  0  0
  -18.1929  -26.7914   22.1612 C   0  0  0  0  0  0
  -19.1538  -28.8840   23.2871 C   0  0  0  0  0  0
  -18.9464  -30.1443   23.8885 C   0  0  0  0  0  0
  -17.6466  -30.6580   24.0547 C   0  0  0  0  0  0
  -25.9047  -34.9445   23.5098 C   0  0  0  0  0  0
  -16.5353  -29.9071   23.6331 C   0  0  0  0  0  0
  -16.7271  -28.6483   23.0362 C   0  0  0  0  0  0
  -26.4496  -31.6603   25.0742 C   0  0  0  0  0  0
  -25.3705  -31.3757   26.1454 C   0  0  0  0  0  0
  -27.0385  -30.3028   24.6247 C   0  0  0  0  0  0
  -27.6049  -32.4360   25.7508 C   0  0  0  0  0  0
  -27.5580  -37.1792   24.8460 C   0  0  0  0  0  0
  -21.4202  -29.3034   22.3682 N   0  0  0  0  0  0
  -26.4291  -37.3768   23.9403 N   0  0  0  0  0  0
  -24.6938  -31.0515   22.0994 N   0  0  0  0  0  0
  -23.4191  -28.8137   23.3056 O   0  0  0  0  0  0
  -28.3241  -26.4001   20.0691 O   0  0  0  0  0  0
  -26.5619  -34.8911   22.4668 O   0  0  0  0  0  0
  -23.5437  -32.1391   23.7290 O   0  0  0  0  0  0
  -27.3232  -20.9349   20.5273 C   0  0  0  0  0  0
  -26.3738  -21.9556   20.7197 C   0  0  0  0  0  0
  -29.0520  -22.6405   20.5306 C   0  0  0  0  0  0
  -28.6992  -21.2266   20.4606 C   0  0  0  0  0  0
  -26.7373  -23.3152   20.8526 C   0  0  0  0  0  0
  -28.0938  -23.7273   20.7101 C   0  0  0  0  0  0
  -29.9853  -16.7133   22.1793 C   0  0  0  0  0  0
  -29.5864  -18.2257   22.0929 C   0  0  0  0  0  0
  -29.9595  -17.3928   19.9200 C   0  0  0  0  0  0
  -29.7429  -16.0801   20.7938 C   0  0  1  0  0  0
  -25.6140  -24.2671   21.2318 C   0  0  0  0  0  0
  -29.7255  -20.0213   20.2411 C   0  0  0  0  0  0
  -28.5223  -25.2460   20.9996 C   0  0  0  0  0  0
  -29.3700  -18.5792   20.6662 N   0  3  2  0  0  0
  -31.4833  -12.5777   19.1761 H   0  0  0  0  0  0
  -30.3878  -11.4644   19.9458 H   0  0  0  0  0  0
  -29.8032  -11.7469   17.5138 H   0  0  0  0  0  0
  -29.6432  -13.4714   17.7339 H   0  0  0  0  0  0
  -27.8988  -11.2782   18.9035 H   0  0  0  0  0  0
  -27.3859  -12.5225   17.7943 H   0  0  0  0  0  0
  -27.6402  -14.2440   19.4666 H   0  0  0  0  0  0
  -28.7162  -12.1318   21.4051 H   0  0  0  0  0  0
  -28.4189  -13.8005   21.8090 H   0  0  0  0  0  0
  -25.2760   -9.5685   22.4751 H   0  0  0  0  0  0
  -24.0007   -7.4632   22.7468 H   0  0  0  0  0  0
  -21.0842   -8.8771   19.8946 H   0  0  0  0  0  0
  -22.3697  -10.9670   19.6161 H   0  0  0  0  0  0
  -21.2003   -7.6150   23.9719 H   0  0  0  0  0  0
  -21.1487   -6.0520   25.9077 H   0  0  0  0  0  0
  -22.0596   -2.7614   23.2831 H   0  0  0  0  0  0
  -22.4096  -11.9874   22.4803 H   0  0  0  0  0  0
  -21.1094  -13.1238   22.2627 H   0  0  0  0  0  0
  -24.6502  -15.8386   20.5070 H   0  0  0  0  0  0
  -26.2611  -15.6225   20.0420 H   0  0  0  0  0  0
  -26.7190  -32.5414   23.1099 H   0  0  0  0  0  0
  -25.0079  -33.9732   25.0421 H   0  0  0  0  0  0
  -22.7202  -31.2946   21.3963 H   0  0  0  0  0  0
  -23.3742  -35.9634   23.3300 H   0  0  0  0  0  0
  -24.3582  -36.8929   22.2061 H   0  0  0  0  0  0
  -23.7240  -37.6493   23.6678 H   0  0  0  0  0  0
  -26.1042  -31.5239   20.6086 H   0  0  0  0  0  0
  -26.8497  -30.8241   22.0139 H   0  0  0  0  0  0
  -28.1233  -28.9325   21.2195 H   0  0  0  0  0  0
  -26.0317  -25.9306   18.9538 H   0  0  0  0  0  0
  -23.9934  -27.3118   18.9736 H   0  0  0  0  0  0
  -23.7649  -30.5763   19.4027 H   0  0  0  0  0  0
  -22.7650  -29.2325   19.8647 H   0  0  0  0  0  0
  -25.1289  -36.1936   25.0815 H   0  0  0  0  0  0
  -20.9967  -28.3253   24.1400 H   0  0  0  0  0  0
  -20.5667  -26.2290   23.3603 H   0  0  0  0  0  0
  -21.6645  -26.7426   22.1200 H   0  0  0  0  0  0
  -19.6917  -25.6268   21.1251 H   0  0  0  0  0  0
  -19.6695  -27.3156   20.6721 H   0  0  0  0  0  0
  -17.4199  -26.6659   21.4012 H   0  0  0  0  0  0
  -18.0328  -26.0049   22.9001 H   0  0  0  0  0  0
  -19.7944  -30.7253   24.2253 H   0  0  0  0  0  0
  -17.5024  -31.6268   24.5137 H   0  0  0  0  0  0
  -15.5352  -30.2966   23.7672 H   0  0  0  0  0  0
  -15.8668  -28.0795   22.7101 H   0  0  0  0  0  0
  -24.5872  -30.7130   25.7760 H   0  0  0  0  0  0
  -24.8897  -32.2931   26.4864 H   0  0  0  0  0  0
  -25.7989  -30.8928   27.0246 H   0  0  0  0  0  0
  -26.3011  -29.6732   24.1255 H   0  0  0  0  0  0
  -27.4067  -29.7332   25.4791 H   0  0  0  0  0  0
  -27.8869  -30.4324   23.9521 H   0  0  0  0  0  0
  -27.2677  -33.3681   26.2055 H   0  0  0  0  0  0
  -28.3866  -32.6891   25.0334 H   0  0  0  0  0  0
  -28.0714  -31.8506   26.5440 H   0  0  0  0  0  0
  -28.2581  -38.0106   24.7529 H   0  0  0  0  0  0
  -28.1095  -36.2635   24.6268 H   0  0  0  0  0  0
  -27.2300  -37.1417   25.8863 H   0  0  0  0  0  0
  -20.9382  -29.8776   21.6905 H   0  0  0  0  0  0
  -26.0173  -38.2844   24.1398 H   0  0  0  0  0  0
  -26.9693  -19.9169   20.4474 H   0  0  0  0  0  0
  -25.3318  -21.6762   20.8058 H   0  0  0  0  0  0
  -30.0996  -22.9012   20.4738 H   0  0  0  0  0  0
  -29.4203  -16.1995   22.9580 H   0  0  0  0  0  0
  -31.0392  -16.6288   22.4492 H   0  0  0  0  0  0
  -30.3732  -18.8408   22.5315 H   0  0  0  0  0  0
  -28.6739  -18.4296   22.6544 H   0  0  0  0  0  0
  -29.5096  -17.2954   18.9314 H   0  0  0  0  0  0
  -31.0271  -17.5607   19.7684 H   0  0  0  0  0  0
  -28.6842  -15.8398   20.7272 H   0  0  0  0  0  0
  -24.9705  -24.4592   20.3740 H   0  0  0  0  0  0
  -25.9586  -25.2167   21.6332 H   0  0  0  0  0  0
  -24.9915  -23.8171   22.0060 H   0  0  0  0  0  0
  -30.6859  -20.2932   20.6807 H   0  0  0  0  0  0
  -29.9050  -19.9926   19.1661 H   0  0  0  0  0  0
  -29.6012  -25.2101   21.1515 H   0  0  0  0  0  0
  -28.1370  -25.5268   21.9799 H   0  0  0  0  0  0
  -28.3773  -18.5046   20.5102 H   0  0  0  0  0  0
  1 25  1  0  0  0
  1 30  2  0  0  0
  1 80  1  0  0  0
  2  3  1  0  0  0
  2 25  1  0  0  0
  2 85  1  0  0  0
  2 86  1  0  0  0
  3  4  1  0  0  0
  3 87  1  0  0  0
  3 88  1  0  0  0
  4  5  1  0  0  0
  4 89  1  0  0  0
  4 90  1  0  0  0
  5  6  1  0  0  0
  5 26  1  0  0  0
  5 91  1  0  0  0
  6 25  1  0  0  0
  6 92  1  0  0  0
  6 93  1  0  0  0
  7  8  2  0  0  0
  7 26  1  0  0  0
  7 29  1  0  0  0
  8  9  1  0  0  0
  8 22  1  0  0  0
  9 10  1  0  0  0
  9 27  2  0  0  0
 10 11  2  0  0  0
 10 15  1  0  0  0
 11 12  1  0  0  0
 11 94  1  0  0  0
 12 13  2  0  0  0
 12 95  1  0  0  0
 13 14  1  0  0  0
 13 31  1  0  0  0
 14 15  2  0  0  0
 14 96  1  0  0  0
 15 97  1  0  0  0
 16 17  2  0  0  0
 16 21  1  0  0  0
 16 31  1  0  0  0
 17 18  1  0  0  0
 17 98  1  0  0  0
 18 19  2  0  0  0
 18 99  1  0  0  0
 19 20  1  0  0  0
 19 24  1  0  0  0
 20 21  2  0  0  0
 20100  1  0  0  0
 21 23  1  0  0  0
 22 28  1  0  0  0
 22 32  2  0  0  0
 26 27  1  0  0  0
 28101  1  0  0  0
 28102  1  0  0  0
 29103  1  0  0  0
 29104  1  0  0  0
 33 34  1  0  0  0
 33 66  1  0  0  0
 33 70  2  0  0  0
 34 36  1  0  0  0
 34 59  1  0  0  0
 34105  1  0  0  0
 35 44  2  0  0  0
 35 45  1  0  0  0
 35 68  1  0  0  0
 36 56  1  0  0  0
 36106  1  0  0  0
 37 39  1  0  0  0
 37 47  1  0  0  0
 37 66  1  0  0  0
 37107  1  0  0  0
 38 43  2  0  0  0
 38 46  1  0  0  0
 38 47  1  0  0  0
 39 64  1  0  0  0
 39 67  2  0  0  0
 40 52  1  0  0  0
 40 53  2  0  0  0
 40 58  1  0  0  0
 41108  1  0  0  0
 41109  1  0  0  0
 41110  1  0  0  0
 41 48  1  0  0  0
 42 43  1  0  0  0
 42 66  1  0  0  0
 42111  1  0  0  0
 42112  1  0  0  0
 43 44  1  0  0  0
 44113  1  0  0  0
 45 46  2  0  0  0
 45114  1  0  0  0
 46115  1  0  0  0
 47116  1  0  0  0
 47117  1  0  0  0
 48 56  1  0  0  0
 48 65  1  0  0  0
 48118  1  0  0  0
 49 50  1  0  0  0
 49 53  1  0  0  0
 49 64  1  0  0  0
 49119  1  0  0  0
 50 51  1  0  0  0
 50120  1  0  0  0
 50121  1  0  0  0
 51 52  1  0  0  0
 51122  1  0  0  0
 51123  1  0  0  0
 52124  1  0  0  0
 52125  1  0  0  0
 53 54  1  0  0  0
 54 55  2  0  0  0
 54126  1  0  0  0
 55 57  1  0  0  0
 55127  1  0  0  0
 56 69  2  0  0  0
 57 58  2  0  0  0
 57128  1  0  0  0
 58129  1  0  0  0
 59 60  1  0  0  0
 59 61  1  0  0  0
 59 62  1  0  0  0
 60130  1  0  0  0
 60131  1  0  0  0
 60132  1  0  0  0
 61133  1  0  0  0
 61134  1  0  0  0
 61135  1  0  0  0
 62136  1  0  0  0
 62137  1  0  0  0
 62138  1  0  0  0
 63 65  1  0  0  0
 63139  1  0  0  0
 63140  1  0  0  0
 63141  1  0  0  0
 64142  1  0  0  0
 65143  1  0  0  0
 68 83  1  0  0  0
 71 72  2  0  0  0
 71 74  1  0  0  0
 71144  1  0  0  0
 72 75  1  0  0  0
 72145  1  0  0  0
 73 74  2  0  0  0
 73 76  1  0  0  0
 73146  1  0  0  0
 74 82  1  0  0  0
 75 76  2  0  0  0
 75 81  1  0  0  0
 76 83  1  0  0  0
 77 78  1  0  0  0
 77 80  1  0  0  0
 77147  1  0  0  0
 77148  1  0  0  0
 78 84  1  0  0  0
 78149  1  0  0  0
 78150  1  0  0  0
 79 80  1  0  0  0
 79 84  1  0  0  0
 79151  1  0  0  0
 79152  1  0  0  0
 80153  1  0  0  0
 81154  1  0  0  0
 81155  1  0  0  0
 81156  1  0  0  0
 82157  1  0  0  0
 82158  1  0  0  0
 82 84  1  0  0  0
 83159  1  0  0  0
 83160  1  0  0  0
 84161  1  0  0  0
M  CHG  1  84   1
M  ISO  4   1 100  68 101  80 100  83 101
M  END
> <chiral flag>
0

> <version>
0

> <s_m_source_file>
/data/baiqing/PycharmProjects/Reinvent-master-3.2/result/LINK_invent/BTK/process_docking_weight1_custom_product_contain_oxygen_bond_distance_aromatic_linkinvent_7_9_3/rearranged_h_0027.sdf

> <i_m_source_file_index>
81

> <r_mmod_Potential_Energy-OPLS-2005>
134.031066894531

> <r_mmod_Stretch_Energy-OPLS-2005>
118.109252929688

> <r_mmod_Bend_Energy-OPLS-2005>
198.589508056641

> <r_mmod_Torsional_Energy-OPLS-2005>
278.168670654297

> <r_mmod_Improper_Torsional_Energy-OPLS-2005>
5.90561771392822

> <r_mmod_Van_der_Waal_Energy-OPLS-2005>
124.534637451172

> <r_mmod_Electrostatic_Energy-OPLS-2005>
-229.142303466797

> <r_mmod_Solvation_Energy-OPLS-2005>
-438.935913085938

> <b_mmod_Minimization_Converged-OPLS-2005>
0

> <r_mmod_RMS_Derivative-OPLS-2005>
1.19519138336182

$$$$
82
                    3D
 Structure written by MMmdl.
175185  0  0  1  0            999 V2000
  -30.0259  -16.0463   20.4438 C   0  0  0  0  0  0
  -30.3713  -13.4008   19.6358 C   0  0  0  0  0  0
  -29.5788  -12.8099   18.4153 C   0  0  0  0  0  0
  -28.1945  -12.3262   18.8459 C   0  0  0  0  0  0
  -27.5838  -13.3406   19.8370 C   0  0  2  0  0  0
  -28.5233  -13.7978   20.9862 C   0  0  0  0  0  0
  -25.2232  -13.8291   20.5827 C   0  0  0  0  0  0
  -24.1647  -13.0419   20.9284 C   0  0  0  0  0  0
  -24.6401  -11.6947   20.8679 C   0  0  0  0  0  0
  -23.9151  -10.4295   21.0346 C   0  0  0  0  0  0
  -24.3677   -9.4220   21.9145 C   0  0  0  0  0  0
  -23.6308   -8.2279   22.0766 C   0  0  0  0  0  0
  -22.4275   -8.0325   21.3584 C   0  0  0  0  0  0
  -21.9939   -9.0316   20.4658 C   0  0  0  0  0  0
  -22.7294  -10.2147   20.3001 C   0  0  0  0  0  0
  -21.6881   -6.0717   22.5281 C   0  0  0  0  0  0
  -21.4058   -6.5630   23.8216 C   0  0  0  0  0  0
  -21.3661   -5.6779   24.9171 C   0  0  0  0  0  0
  -21.6034   -4.3032   24.7226 C   0  0  0  0  0  0
  -21.8816   -3.8132   23.4367 C   0  0  0  0  0  0
  -21.9202   -4.6954   22.3401 C   0  0  0  0  0  0
  -22.7680  -13.5175   21.1904 C   0  0  0  0  0  0
  -22.1647   -4.2113   21.0987 F   0  0  0  0  0  0
  -21.5603   -3.4552   25.7773 F   0  0  0  0  0  0
  -29.6316  -14.5819   20.3765 N   0  0  0  0  0  0
  -26.2683  -12.9704   20.3210 N   0  0  0  0  0  0
  -25.9356  -11.6734   20.5587 N   0  0  0  0  0  0
  -22.0281  -12.8181   22.0446 N   0  0  0  0  0  0
  -25.3723  -15.2053   20.4363 N   0  0  0  0  0  0
  -31.2445  -15.9676   20.1347 O   0  0  0  0  0  0
  -21.6621   -6.8926   21.4273 O   0  0  0  0  0  0
  -22.3387  -14.5452   20.6688 O   0  0  0  0  0  0
  -24.7068  -31.7695   23.1270 C   0  0  0  0  0  0
  -25.9544  -32.4315   23.7933 C   0  0  1  0  0  0
  -27.1691  -26.4234   20.2542 C   0  0  0  0  0  0
  -25.6022  -33.8168   24.1795 N   0  0  0  0  0  0
  -23.5409  -30.3663   21.4863 C   0  0  2  0  0  0
  -24.9899  -28.6500   20.1100 C   0  0  0  0  0  0
  -22.7851  -29.4226   22.4596 C   0  0  0  0  0  0
  -18.0381  -28.1462   22.8455 C   0  0  0  0  0  0
  -24.1528  -36.7078   23.2648 C   0  0  0  0  0  0
  -26.1315  -30.4085   21.4308 C   0  0  0  0  0  0
  -26.1781  -28.9447   20.7872 C   0  0  0  0  0  0
  -27.2411  -27.8616   20.8213 C   0  0  0  0  0  0
  -25.9647  -26.4130   19.4870 C   0  0  0  0  0  0
  -24.9388  -27.4212   19.4297 C   0  0  0  0  0  0
  -23.8047  -29.6425   20.1291 C   0  0  0  0  0  0
  -25.4192  -36.2811   24.0255 C   0  0  1  0  0  0
  -20.6026  -28.3846   23.1102 C   0  0  2  0  0  0
  -20.6836  -26.9486   22.5411 C   0  0  0  0  0  0
  -19.5820  -26.6399   21.5222 C   0  0  0  0  0  0
  -18.2004  -26.7988   22.1610 C   0  0  0  0  0  0
  -19.1643  -28.8976   23.2755 C   0  0  0  0  0  0
  -18.9534  -30.1556   23.8825 C   0  0  0  0  0  0
  -17.6520  -30.6629   24.0578 C   0  0  0  0  0  0
  -25.9188  -34.9207   23.4867 C   0  0  0  0  0  0
  -16.5417  -29.9110   23.6356 C   0  0  0  0  0  0
  -16.7354  -28.6538   23.0374 C   0  0  0  0  0  0
  -26.4644  -31.6430   25.0614 C   0  0  0  0  0  0
  -25.3641  -31.3788   26.1171 C   0  0  0  0  0  0
  -27.0584  -30.2727   24.6679 C   0  0  0  0  0  0
  -27.6005  -32.4345   25.7449 C   0  0  0  0  0  0
  -27.5595  -37.1696   24.8475 C   0  0  0  0  0  0
  -21.4470  -29.3019   22.3347 N   0  0  0  0  0  0
  -26.4308  -37.3580   23.9402 N   0  0  0  0  0  0
  -24.8219  -30.8926   22.0654 N   0  0  0  0  0  0
  -23.4179  -28.7871   23.3082 O   0  0  0  0  0  0
  -28.0531  -25.0712   20.4214 O   0  0  0  0  0  0
  -26.5851  -34.8836   22.4511 O   0  0  0  0  0  0
  -23.6054  -32.0892   23.6099 O   0  0  0  0  0  0
  -26.3360  -18.1251   23.0967 C   0  0  0  0  0  0
  -27.0705  -17.8741   21.9067 C   0  0  0  0  0  0
  -29.0321  -17.4207   23.2222 C   0  0  0  0  0  0
  -28.3070  -17.7519   24.4080 C   0  0  0  0  0  0
  -26.9208  -18.0711   24.3945 C   0  0  0  0  0  0
  -28.4355  -17.4914   21.9373 C   0  0  0  0  0  0
  -29.3103  -21.6454   26.2271 C   0  0  0  0  0  0
  -29.8800  -21.1151   27.5512 C   0  0  0  0  0  0
  -24.3018  -17.9904   26.1666 C   0  0  0  0  0  0
  -25.0368  -19.2187   25.6340 C   0  0  0  0  0  0
  -25.6650  -17.3415   26.4189 C   0  0  0  0  0  0
  -29.2042  -20.4142   25.3234 C   0  0  0  0  0  0
  -29.7575  -19.5847   27.4709 C   0  0  0  0  0  0
  -29.0750  -17.9125   25.7280 C   0  0  0  0  0  0
  -28.4573  -21.2474   20.7158 C   0  0  0  0  0  0
  -29.2315  -19.3462   20.2784 C   0  0  0  0  0  0
  -28.0978  -23.2108   20.0780 C   0  0  0  0  0  0
  -26.2673  -18.4262   25.6360 N   0  0  0  0  0  0
  -29.2491  -17.4960   20.7330 N   0  0  0  0  0  0
  -28.9643  -19.2962   26.2593 N   0  3  0  0  0  0
  -31.3389  -13.7277   19.2576 H   0  0  0  0  0  0
  -30.6250  -12.6031   20.3386 H   0  0  0  0  0  0
  -30.1419  -12.0001   17.9537 H   0  0  0  0  0  0
  -29.4764  -13.5884   17.6602 H   0  0  0  0  0  0
  -28.3176  -11.3641   19.3471 H   0  0  0  0  0  0
  -27.5535  -12.1654   17.9770 H   0  0  0  0  0  0
  -27.4127  -14.2220   19.2201 H   0  0  0  0  0  0
  -28.8666  -12.9605   21.5987 H   0  0  0  0  0  0
  -27.9759  -14.4571   21.6633 H   0  0  0  0  0  0
  -25.2810   -9.5650   22.4774 H   0  0  0  0  0  0
  -23.9975   -7.4656   22.7494 H   0  0  0  0  0  0
  -21.0849   -8.8837   19.8989 H   0  0  0  0  0  0
  -22.3741  -10.9715   19.6103 H   0  0  0  0  0  0
  -21.2059   -7.6133   23.9736 H   0  0  0  0  0  0
  -21.1473   -6.0474   25.9070 H   0  0  0  0  0  0
  -22.0577   -2.7604   23.2845 H   0  0  0  0  0  0
  -22.3909  -11.9913   22.4940 H   0  0  0  0  0  0
  -21.0901  -13.1245   22.2580 H   0  0  0  0  0  0
  -24.5970  -15.8431   20.5865 H   0  0  0  0  0  0
  -26.2182  -15.6798   20.1521 H   0  0  0  0  0  0
  -26.7643  -32.4703   23.0643 H   0  0  0  0  0  0
  -25.0102  -33.9150   24.9902 H   0  0  0  0  0  0
  -22.8824  -31.2108   21.2761 H   0  0  0  0  0  0
  -23.3817  -35.9390   23.3231 H   0  0  0  0  0  0
  -24.3599  -36.8816   22.2084 H   0  0  0  0  0  0
  -23.7266  -37.6224   23.6786 H   0  0  0  0  0  0
  -26.3674  -31.1102   20.6315 H   0  0  0  0  0  0
  -26.9765  -30.4896   22.0995 H   0  0  0  0  0  0
  -28.1298  -28.0829   21.3894 H   0  0  0  0  0  0
  -25.7451  -25.4967   18.9546 H   0  0  0  0  0  0
  -24.0497  -27.1938   18.8566 H   0  0  0  0  0  0
  -24.0022  -30.3913   19.3615 H   0  0  0  0  0  0
  -22.8991  -29.1238   19.8077 H   0  0  0  0  0  0
  -25.1396  -36.1531   25.0753 H   0  0  0  0  0  0
  -21.0123  -28.3547   24.1226 H   0  0  0  0  0  0
  -20.5702  -26.2485   23.3703 H   0  0  0  0  0  0
  -21.6704  -26.7418   22.1238 H   0  0  0  0  0  0
  -19.6977  -25.6278   21.1335 H   0  0  0  0  0  0
  -19.6772  -27.3139   20.6718 H   0  0  0  0  0  0
  -17.4264  -26.6752   21.4026 H   0  0  0  0  0  0
  -18.0389  -26.0158   22.9044 H   0  0  0  0  0  0
  -19.8020  -30.7395   24.2145 H   0  0  0  0  0  0
  -17.5084  -31.6291   24.5202 H   0  0  0  0  0  0
  -15.5425  -30.2987   23.7716 H   0  0  0  0  0  0
  -15.8770  -28.0831   22.7116 H   0  0  0  0  0  0
  -24.5913  -30.7060   25.7470 H   0  0  0  0  0  0
  -24.8732  -32.3002   26.4303 H   0  0  0  0  0  0
  -25.7751  -30.9163   27.0141 H   0  0  0  0  0  0
  -26.3336  -29.6282   24.1704 H   0  0  0  0  0  0
  -27.3971  -29.7246   25.5472 H   0  0  0  0  0  0
  -27.9323  -30.3779   24.0245 H   0  0  0  0  0  0
  -27.2469  -33.3649   26.1911 H   0  0  0  0  0  0
  -28.3885  -32.6945   25.0349 H   0  0  0  0  0  0
  -28.0660  -31.8622   26.5471 H   0  0  0  0  0  0
  -28.2545  -38.0045   24.7529 H   0  0  0  0  0  0
  -28.1144  -36.2555   24.6284 H   0  0  0  0  0  0
  -27.2313  -37.1331   25.8879 H   0  0  0  0  0  0
  -20.9811  -29.8584   21.6297 H   0  0  0  0  0  0
  -26.0096  -38.2628   24.1389 H   0  0  0  0  0  0
  -25.3027  -18.4292   23.0022 H   0  0  0  0  0  0
  -26.5648  -18.0384   20.9612 H   0  0  0  0  0  0
  -30.0903  -17.2139   23.2943 H   0  0  0  0  0  0
  -29.9117  -22.4446   25.7918 H   0  0  0  0  0  0
  -28.3133  -22.0490   26.4029 H   0  0  0  0  0  0
  -29.3266  -21.5135   28.4037 H   0  0  0  0  0  0
  -30.9244  -21.4087   27.6752 H   0  0  0  0  0  0
  -23.7117  -17.4858   25.4034 H   0  0  0  0  0  0
  -23.7191  -18.1665   27.0726 H   0  0  0  0  0  0
  -25.0599  -20.0152   26.3821 H   0  0  0  0  0  0
  -24.6689  -19.5911   24.6798 H   0  0  0  0  0  0
  -25.7687  -16.3415   26.0077 H   0  0  0  0  0  0
  -25.9399  -17.3718   27.4784 H   0  0  0  0  0  0
  -30.1341  -20.2502   24.7783 H   0  0  0  0  0  0
  -28.4022  -20.5229   24.5930 H   0  0  0  0  0  0
  -29.3033  -19.1415   28.3587 H   0  0  0  0  0  0
  -30.7550  -19.1539   27.3648 H   0  0  0  0  0  0
  -30.1211  -17.6233   25.6212 H   0  0  0  0  0  0
  -28.6423  -17.2263   26.4584 H   0  0  0  0  0  0
  -28.8969  -21.4199   21.6956 H   0  0  0  0  0  0
  -27.4155  -20.9809   20.9489 H   0  0  0  0  0  0
  -30.2813  -19.5378   20.4932 H   0  0  0  0  0  0
  -29.1582  -19.3175   19.1912 H   0  0  0  0  0  0
  -27.1512  -23.0547   19.5360 H   0  0  0  0  0  0
  -28.7894  -23.2341   19.2373 H   0  0  0  0  0  0
  -27.9863  -19.3828   26.5128 H   0  0  0  0  0  0
  1 25  1  0  0  0
  1 30  2  0  0  0
  1 89  1  0  0  0
  2  3  1  0  0  0
  2 25  1  0  0  0
  2 91  1  0  0  0
  2 92  1  0  0  0
  3  4  1  0  0  0
  3 93  1  0  0  0
  3 94  1  0  0  0
  4  5  1  0  0  0
  4 95  1  0  0  0
  4 96  1  0  0  0
  5  6  1  0  0  0
  5 26  1  0  0  0
  5 97  1  0  0  0
  6 25  1  0  0  0
  6 98  1  0  0  0
  6 99  1  0  0  0
  7  8  2  0  0  0
  7 26  1  0  0  0
  7 29  1  0  0  0
  8  9  1  0  0  0
  8 22  1  0  0  0
  9 10  1  0  0  0
  9 27  2  0  0  0
 10 11  2  0  0  0
 10 15  1  0  0  0
 11 12  1  0  0  0
 11100  1  0  0  0
 12 13  2  0  0  0
 12101  1  0  0  0
 13 14  1  0  0  0
 13 31  1  0  0  0
 14 15  2  0  0  0
 14102  1  0  0  0
 15103  1  0  0  0
 16 17  2  0  0  0
 16 21  1  0  0  0
 16 31  1  0  0  0
 17 18  1  0  0  0
 17104  1  0  0  0
 18 19  2  0  0  0
 18105  1  0  0  0
 19 20  1  0  0  0
 19 24  1  0  0  0
 20 21  2  0  0  0
 20106  1  0  0  0
 21 23  1  0  0  0
 22 28  1  0  0  0
 22 32  2  0  0  0
 26 27  1  0  0  0
 28107  1  0  0  0
 28108  1  0  0  0
 29109  1  0  0  0
 29110  1  0  0  0
 33 34  1  0  0  0
 33 66  1  0  0  0
 33 70  2  0  0  0
 34 36  1  0  0  0
 34 59  1  0  0  0
 34111  1  0  0  0
 35 44  2  0  0  0
 35 45  1  0  0  0
 35 68  1  0  0  0
 36 56  1  0  0  0
 36112  1  0  0  0
 37 39  1  0  0  0
 37 47  1  0  0  0
 37 66  1  0  0  0
 37113  1  0  0  0
 38 43  2  0  0  0
 38 46  1  0  0  0
 38 47  1  0  0  0
 39 64  1  0  0  0
 39 67  2  0  0  0
 40 52  1  0  0  0
 40 53  2  0  0  0
 40 58  1  0  0  0
 41114  1  0  0  0
 41115  1  0  0  0
 41116  1  0  0  0
 41 48  1  0  0  0
 42 43  1  0  0  0
 42 66  1  0  0  0
 42117  1  0  0  0
 42118  1  0  0  0
 43 44  1  0  0  0
 44119  1  0  0  0
 45 46  2  0  0  0
 45120  1  0  0  0
 46121  1  0  0  0
 47122  1  0  0  0
 47123  1  0  0  0
 48 56  1  0  0  0
 48 65  1  0  0  0
 48124  1  0  0  0
 49 50  1  0  0  0
 49 53  1  0  0  0
 49 64  1  0  0  0
 49125  1  0  0  0
 50 51  1  0  0  0
 50126  1  0  0  0
 50127  1  0  0  0
 51 52  1  0  0  0
 51128  1  0  0  0
 51129  1  0  0  0
 52130  1  0  0  0
 52131  1  0  0  0
 53 54  1  0  0  0
 54 55  2  0  0  0
 54132  1  0  0  0
 55 57  1  0  0  0
 55133  1  0  0  0
 56 69  2  0  0  0
 57 58  2  0  0  0
 57134  1  0  0  0
 58135  1  0  0  0
 59 60  1  0  0  0
 59 61  1  0  0  0
 59 62  1  0  0  0
 60136  1  0  0  0
 60137  1  0  0  0
 60138  1  0  0  0
 61139  1  0  0  0
 61140  1  0  0  0
 61141  1  0  0  0
 62142  1  0  0  0
 62143  1  0  0  0
 62144  1  0  0  0
 63 65  1  0  0  0
 63145  1  0  0  0
 63146  1  0  0  0
 63147  1  0  0  0
 64148  1  0  0  0
 65149  1  0  0  0
 68 87  1  0  0  0
 71 72  2  0  0  0
 71 75  1  0  0  0
 71150  1  0  0  0
 72 76  1  0  0  0
 72151  1  0  0  0
 73 74  1  0  0  0
 73 76  2  0  0  0
 73152  1  0  0  0
 74 75  2  0  0  0
 74 84  1  0  0  0
 75 88  1  0  0  0
 76 89  1  0  0  0
 77 78  1  0  0  0
 77 82  1  0  0  0
 77153  1  0  0  0
 77154  1  0  0  0
 78 83  1  0  0  0
 78155  1  0  0  0
 78156  1  0  0  0
 79 80  1  0  0  0
 79 81  1  0  0  0
 79157  1  0  0  0
 79158  1  0  0  0
 80 88  1  0  0  0
 80159  1  0  0  0
 80160  1  0  0  0
 81 88  1  0  0  0
 81161  1  0  0  0
 81162  1  0  0  0
 82 90  1  0  0  0
 82163  1  0  0  0
 82164  1  0  0  0
 83 90  1  0  0  0
 83165  1  0  0  0
 83166  1  0  0  0
 84167  1  0  0  0
 84168  1  0  0  0
 84 90  1  0  0  0
 85 86  1  0  0  0
 85 87  1  0  0  0
 85169  1  0  0  0
 85170  1  0  0  0
 86 89  1  0  0  0
 86171  1  0  0  0
 86172  1  0  0  0
 87173  1  0  0  0
 87174  1  0  0  0
 90175  1  0  0  0
M  CHG  1  90   1
M  ISO  4   1 100  68 101  87 101  89 100
M  END
> <chiral flag>
0

> <version>
0

> <s_m_source_file>
/data/baiqing/PycharmProjects/Reinvent-master-3.2/result/LINK_invent/BTK/process_docking_weight1_custom_product_contain_oxygen_bond_distance_aromatic_linkinvent_7_9_3/rearranged_h_0027.sdf

> <i_m_source_file_index>
82

> <r_mmod_Potential_Energy-OPLS-2005>
4395.07177734375

> <r_mmod_Stretch_Energy-OPLS-2005>
1926.98376464844

> <r_mmod_Bend_Energy-OPLS-2005>
946.389404296875

> <r_mmod_Torsional_Energy-OPLS-2005>
407.428039550781

> <r_mmod_Improper_Torsional_Energy-OPLS-2005>
13.0204629898071

> <r_mmod_Van_der_Waal_Energy-OPLS-2005>
120.826713562012

> <r_mmod_Electrostatic_Energy-OPLS-2005>
-248.78010559082

> <r_mmod_Solvation_Energy-OPLS-2005>
-417.915130615234

> <b_mmod_Minimization_Converged-OPLS-2005>
0

> <r_mmod_RMS_Derivative-OPLS-2005>
10.7072896957397

$$$$
83
                    3D
 Structure written by MMmdl.
159168  0  0  1  0            999 V2000
  -30.6195  -14.7509   20.4668 C   0  0  0  0  0  0
  -30.4363  -12.4628   19.4707 C   0  0  0  0  0  0
  -29.5123  -12.5074   18.2332 C   0  0  0  0  0  0
  -28.0400  -12.3264   18.6494 C   0  0  0  0  0  0
  -27.6435  -13.2301   19.8466 C   0  0  2  0  0  0
  -28.6898  -13.1770   20.9808 C   0  0  0  0  0  0
  -25.2526  -13.8192   20.5706 C   0  0  0  0  0  0
  -24.1818  -13.0450   20.9204 C   0  0  0  0  0  0
  -24.6410  -11.6927   20.8748 C   0  0  0  0  0  0
  -23.9098  -10.4309   21.0413 C   0  0  0  0  0  0
  -24.3654   -9.4221   21.9186 C   0  0  0  0  0  0
  -23.6324   -8.2264   22.0763 C   0  0  0  0  0  0
  -22.4301   -8.0307   21.3559 C   0  0  0  0  0  0
  -21.9942   -9.0283   20.4663 C   0  0  0  0  0  0
  -22.7274  -10.2151   20.3067 C   0  0  0  0  0  0
  -21.6860   -6.0759   22.5283 C   0  0  0  0  0  0
  -21.4017   -6.5655   23.8218 C   0  0  0  0  0  0
  -21.3653   -5.6797   24.9172 C   0  0  0  0  0  0
  -21.6046   -4.3063   24.7214 C   0  0  0  0  0  0
  -21.8819   -3.8167   23.4329 C   0  0  0  0  0  0
  -21.9194   -4.6991   22.3393 C   0  0  0  0  0  0
  -22.7843  -13.5242   21.1850 C   0  0  0  0  0  0
  -22.1666   -4.2185   21.0968 F   0  0  0  0  0  0
  -21.5622   -3.4542   25.7718 F   0  0  0  0  0  0
  -29.9884  -13.5291   20.3942 N   0  0  0  0  0  0
  -26.2958  -12.9407   20.3269 N   0  0  0  0  0  0
  -25.9340  -11.6552   20.5755 N   0  0  0  0  0  0
  -22.0487  -12.8243   22.0400 N   0  0  0  0  0  0
  -25.4196  -15.1926   20.4160 N   0  0  0  0  0  0
  -31.8143  -14.8400   20.1711 O   0  0  0  0  0  0
  -21.6655   -6.8911   21.4253 O   0  0  0  0  0  0
  -22.3540  -14.5561   20.6690 O   0  0  0  0  0  0
  -24.6287  -31.8555   23.1973 C   0  0  0  0  0  0
  -25.9124  -32.4752   23.8316 C   0  0  1  0  0  0
  -27.2210  -27.2717   20.1445 C   0  0  0  0  0  0
  -25.5931  -33.8554   24.2253 N   0  0  0  0  0  0
  -23.4246  -30.4770   21.5396 C   0  0  2  0  0  0
  -24.8744  -28.9218   20.1100 C   0  0  0  0  0  0
  -22.7481  -29.4607   22.4902 C   0  0  0  0  0  0
  -18.0289  -28.1401   22.8477 C   0  0  0  0  0  0
  -24.1490  -36.7285   23.2641 C   0  0  0  0  0  0
  -25.9678  -30.7756   21.3716 C   0  0  0  0  0  0
  -26.0442  -29.3973   20.7165 C   0  0  0  0  0  0
  -27.2229  -28.5876   20.7158 C   0  0  0  0  0  0
  -26.0306  -26.8560   19.5126 C   0  0  0  0  0  0
  -24.8729  -27.6597   19.4931 C   0  0  0  0  0  0
  -23.6430  -29.8072   20.1561 C   0  0  0  0  0  0
  -25.4114  -36.3066   24.0330 C   0  0  1  0  0  0
  -20.5888  -28.3709   23.1271 C   0  0  2  0  0  0
  -20.6780  -26.9429   22.5412 C   0  0  0  0  0  0
  -19.5760  -26.6394   21.5210 C   0  0  0  0  0  0
  -18.1936  -26.7938   22.1620 C   0  0  0  0  0  0
  -19.1540  -28.8873   23.2868 C   0  0  0  0  0  0
  -18.9465  -30.1475   23.8886 C   0  0  0  0  0  0
  -17.6464  -30.6598   24.0562 C   0  0  0  0  0  0
  -25.9057  -34.9439   23.5094 C   0  0  0  0  0  0
  -16.5358  -29.9094   23.6334 C   0  0  0  0  0  0
  -16.7276  -28.6518   23.0341 C   0  0  0  0  0  0
  -26.4495  -31.6574   25.0701 C   0  0  0  0  0  0
  -25.3719  -31.3731   26.1424 C   0  0  0  0  0  0
  -27.0341  -30.2987   24.6191 C   0  0  0  0  0  0
  -27.6040  -32.4312   25.7482 C   0  0  0  0  0  0
  -27.5578  -37.1794   24.8464 C   0  0  0  0  0  0
  -21.4192  -29.3047   22.3648 N   0  0  0  0  0  0
  -26.4285  -37.3766   23.9409 N   0  0  0  0  0  0
  -24.6925  -31.0527   22.0934 N   0  0  0  0  0  0
  -23.4188  -28.8163   23.3010 O   0  0  0  0  0  0
  -28.3239  -26.3927   20.1721 O   0  0  0  0  0  0
  -26.5617  -34.8916   22.4659 O   0  0  0  0  0  0
  -23.5447  -32.1377   23.7284 O   0  0  0  0  0  0
  -28.4112  -18.3413   19.3814 C   0  0  0  0  0  0
  -27.8556  -20.7314   19.2054 C   0  0  0  0  0  0
  -29.4244  -18.5959   20.3241 C   0  0  0  0  0  0
  -29.6287  -20.0029   20.6974 C   0  0  0  0  0  0
  -28.8359  -21.1130   20.1507 C   0  0  0  0  0  0
  -27.6450  -19.3874   18.8343 C   0  0  0  0  0  0
  -28.9772  -24.5806   21.7919 C   0  0  0  0  0  0
  -29.0139  -23.0283   21.8460 C   0  0  0  0  0  0
  -28.5006  -23.7182   19.6384 C   0  0  0  0  0  0
  -28.1247  -24.9562   20.5729 C   0  0  2  0  0  0
  -30.7574  -20.3320   21.6632 C   0  0  0  0  0  0
  -30.2932  -17.3510   20.8343 C   0  0  0  0  0  0
  -28.9642  -22.5400   20.4653 N   0  0  0  0  0  0
  -29.8549  -15.8893   20.6843 N   0  0  0  0  0  0
  -26.6854  -19.0990   17.9236 F   0  0  0  0  0  0
  -31.4781  -12.5881   19.1705 H   0  0  0  0  0  0
  -30.3860  -11.4904   19.9627 H   0  0  0  0  0  0
  -29.7982  -11.7362   17.5161 H   0  0  0  0  0  0
  -29.6298  -13.4633   17.7180 H   0  0  0  0  0  0
  -27.8975  -11.2784   18.9162 H   0  0  0  0  0  0
  -27.3836  -12.5151   17.7996 H   0  0  0  0  0  0
  -27.6362  -14.2495   19.4607 H   0  0  0  0  0  0
  -28.7323  -12.1867   21.4356 H   0  0  0  0  0  0
  -28.4259  -13.8718   21.7796 H   0  0  0  0  0  0
  -25.2804   -9.5690   22.4751 H   0  0  0  0  0  0
  -24.0032   -7.4658   22.7482 H   0  0  0  0  0  0
  -21.0871   -8.8812   19.8970 H   0  0  0  0  0  0
  -22.3750  -10.9696   19.6176 H   0  0  0  0  0  0
  -21.2019   -7.6165   23.9735 H   0  0  0  0  0  0
  -21.1468   -6.0522   25.9076 H   0  0  0  0  0  0
  -22.0603   -2.7639   23.2809 H   0  0  0  0  0  0
  -22.4113  -11.9915   22.4794 H   0  0  0  0  0  0
  -21.1112  -13.1269   22.2619 H   0  0  0  0  0  0
  -24.6453  -15.8371   20.5333 H   0  0  0  0  0  0
  -26.2592  -15.6418   20.0769 H   0  0  0  0  0  0
  -26.7187  -32.5409   23.1055 H   0  0  0  0  0  0
  -25.0057  -33.9684   25.0386 H   0  0  0  0  0  0
  -22.7205  -31.2976   21.3903 H   0  0  0  0  0  0
  -23.3749  -35.9620   23.3296 H   0  0  0  0  0  0
  -24.3577  -36.8915   22.2057 H   0  0  0  0  0  0
  -23.7249  -37.6488   23.6665 H   0  0  0  0  0  0
  -26.0995  -31.5379   20.6023 H   0  0  0  0  0  0
  -26.8465  -30.8274   22.0025 H   0  0  0  0  0  0
  -28.1211  -28.9499   21.1957 H   0  0  0  0  0  0
  -25.9878  -25.8848   19.0407 H   0  0  0  0  0  0
  -23.9777  -27.2894   19.0126 H   0  0  0  0  0  0
  -23.7625  -30.5800   19.3950 H   0  0  0  0  0  0
  -22.7633  -29.2356   19.8545 H   0  0  0  0  0  0
  -25.1297  -36.1905   25.0821 H   0  0  0  0  0  0
  -20.9979  -28.3296   24.1389 H   0  0  0  0  0  0
  -20.5679  -26.2320   23.3613 H   0  0  0  0  0  0
  -21.6649  -26.7451   22.1207 H   0  0  0  0  0  0
  -19.6919  -25.6300   21.1249 H   0  0  0  0  0  0
  -19.6704  -27.3194   20.6730 H   0  0  0  0  0  0
  -17.4204  -26.6675   21.4025 H   0  0  0  0  0  0
  -18.0345  -26.0089   22.9031 H   0  0  0  0  0  0
  -19.7948  -30.7295   24.2240 H   0  0  0  0  0  0
  -17.5026  -31.6272   24.5180 H   0  0  0  0  0  0
  -15.5362  -30.2994   23.7678 H   0  0  0  0  0  0
  -15.8669  -28.0845   22.7047 H   0  0  0  0  0  0
  -24.5902  -30.7066   25.7763 H   0  0  0  0  0  0
  -24.8902  -32.2907   26.4811 H   0  0  0  0  0  0
  -25.8046  -30.8941   27.0217 H   0  0  0  0  0  0
  -26.2936  -29.6723   24.1203 H   0  0  0  0  0  0
  -27.4008  -29.7255   25.4718 H   0  0  0  0  0  0
  -27.8813  -30.4250   23.9444 H   0  0  0  0  0  0
  -27.2641  -33.3618   26.2034 H   0  0  0  0  0  0
  -28.3869  -32.6859   25.0328 H   0  0  0  0  0  0
  -28.0677  -31.8446   26.5422 H   0  0  0  0  0  0
  -28.2588  -38.0098   24.7503 H   0  0  0  0  0  0
  -28.1080  -36.2624   24.6293 H   0  0  0  0  0  0
  -27.2292  -37.1454   25.8867 H   0  0  0  0  0  0
  -20.9381  -29.8755   21.6839 H   0  0  0  0  0  0
  -26.0165  -38.2839   24.1406 H   0  0  0  0  0  0
  -28.2301  -17.3301   19.0465 H   0  0  0  0  0  0
  -27.2232  -21.4653   18.7331 H   0  0  0  0  0  0
  -29.9902  -24.9601   21.6525 H   0  0  0  0  0  0
  -28.5962  -25.0177   22.7154 H   0  0  0  0  0  0
  -28.1572  -22.6410   22.4000 H   0  0  0  0  0  0
  -29.9106  -22.7118   22.3744 H   0  0  0  0  0  0
  -27.6589  -23.4855   18.9872 H   0  0  0  0  0  0
  -29.3262  -24.0063   18.9881 H   0  0  0  0  0  0
  -27.0862  -24.8210   20.8796 H   0  0  0  0  0  0
  -31.2773  -21.2346   21.3427 H   0  0  0  0  0  0
  -31.5111  -19.5494   21.7212 H   0  0  0  0  0  0
  -30.3651  -20.4952   22.6667 H   0  0  0  0  0  0
  -30.4600  -17.4951   21.9019 H   0  0  0  0  0  0
  -31.2728  -17.4544   20.3656 H   0  0  0  0  0  0
  -28.8770  -15.7155   20.8536 H   0  0  0  0  0  0
  1 25  1  0  0  0
  1 30  2  0  0  0
  1 84  1  0  0  0
  2  3  1  0  0  0
  2 25  1  0  0  0
  2 86  1  0  0  0
  2 87  1  0  0  0
  3  4  1  0  0  0
  3 88  1  0  0  0
  3 89  1  0  0  0
  4  5  1  0  0  0
  4 90  1  0  0  0
  4 91  1  0  0  0
  5  6  1  0  0  0
  5 26  1  0  0  0
  5 92  1  0  0  0
  6 25  1  0  0  0
  6 93  1  0  0  0
  6 94  1  0  0  0
  7  8  2  0  0  0
  7 26  1  0  0  0
  7 29  1  0  0  0
  8  9  1  0  0  0
  8 22  1  0  0  0
  9 10  1  0  0  0
  9 27  2  0  0  0
 10 11  2  0  0  0
 10 15  1  0  0  0
 11 12  1  0  0  0
 11 95  1  0  0  0
 12 13  2  0  0  0
 12 96  1  0  0  0
 13 14  1  0  0  0
 13 31  1  0  0  0
 14 15  2  0  0  0
 14 97  1  0  0  0
 15 98  1  0  0  0
 16 17  2  0  0  0
 16 21  1  0  0  0
 16 31  1  0  0  0
 17 18  1  0  0  0
 17 99  1  0  0  0
 18 19  2  0  0  0
 18100  1  0  0  0
 19 20  1  0  0  0
 19 24  1  0  0  0
 20 21  2  0  0  0
 20101  1  0  0  0
 21 23  1  0  0  0
 22 28  1  0  0  0
 22 32  2  0  0  0
 26 27  1  0  0  0
 28102  1  0  0  0
 28103  1  0  0  0
 29104  1  0  0  0
 29105  1  0  0  0
 33 34  1  0  0  0
 33 66  1  0  0  0
 33 70  2  0  0  0
 34 36  1  0  0  0
 34 59  1  0  0  0
 34106  1  0  0  0
 35 44  2  0  0  0
 35 45  1  0  0  0
 35 68  1  0  0  0
 36 56  1  0  0  0
 36107  1  0  0  0
 37 39  1  0  0  0
 37 47  1  0  0  0
 37 66  1  0  0  0
 37108  1  0  0  0
 38 43  2  0  0  0
 38 46  1  0  0  0
 38 47  1  0  0  0
 39 64  1  0  0  0
 39 67  2  0  0  0
 40 52  1  0  0  0
 40 53  2  0  0  0
 40 58  1  0  0  0
 41109  1  0  0  0
 41110  1  0  0  0
 41111  1  0  0  0
 41 48  1  0  0  0
 42 43  1  0  0  0
 42 66  1  0  0  0
 42112  1  0  0  0
 42113  1  0  0  0
 43 44  1  0  0  0
 44114  1  0  0  0
 45 46  2  0  0  0
 45115  1  0  0  0
 46116  1  0  0  0
 47117  1  0  0  0
 47118  1  0  0  0
 48 56  1  0  0  0
 48 65  1  0  0  0
 48119  1  0  0  0
 49 50  1  0  0  0
 49 53  1  0  0  0
 49 64  1  0  0  0
 49120  1  0  0  0
 50 51  1  0  0  0
 50121  1  0  0  0
 50122  1  0  0  0
 51 52  1  0  0  0
 51123  1  0  0  0
 51124  1  0  0  0
 52125  1  0  0  0
 52126  1  0  0  0
 53 54  1  0  0  0
 54 55  2  0  0  0
 54127  1  0  0  0
 55 57  1  0  0  0
 55128  1  0  0  0
 56 69  2  0  0  0
 57 58  2  0  0  0
 57129  1  0  0  0
 58130  1  0  0  0
 59 60  1  0  0  0
 59 61  1  0  0  0
 59 62  1  0  0  0
 60131  1  0  0  0
 60132  1  0  0  0
 60133  1  0  0  0
 61134  1  0  0  0
 61135  1  0  0  0
 61136  1  0  0  0
 62137  1  0  0  0
 62138  1  0  0  0
 62139  1  0  0  0
 63 65  1  0  0  0
 63140  1  0  0  0
 63141  1  0  0  0
 63142  1  0  0  0
 64143  1  0  0  0
 65144  1  0  0  0
 68 80  1  0  0  0
 71 73  2  0  0  0
 71 76  1  0  0  0
 71145  1  0  0  0
 72 75  1  0  0  0
 72 76  2  0  0  0
 72146  1  0  0  0
 73 74  1  0  0  0
 73 82  1  0  0  0
 74 75  2  0  0  0
 74 81  1  0  0  0
 75 83  1  0  0  0
 76 85  1  0  0  0
 77 78  1  0  0  0
 77 80  1  0  0  0
 77147  1  0  0  0
 77148  1  0  0  0
 78 83  1  0  0  0
 78149  1  0  0  0
 78150  1  0  0  0
 79 80  1  0  0  0
 79 83  1  0  0  0
 79151  1  0  0  0
 79152  1  0  0  0
 80153  1  0  0  0
 81154  1  0  0  0
 81155  1  0  0  0
 81156  1  0  0  0
 82 84  1  0  0  0
 82157  1  0  0  0
 82158  1  0  0  0
 84159  1  0  0  0
M  ISO  4   1 100  68 101  80 101  84 100
M  END
> <chiral flag>
0

> <version>
0

> <s_m_source_file>
/data/baiqing/PycharmProjects/Reinvent-master-3.2/result/LINK_invent/BTK/process_docking_weight1_custom_product_contain_oxygen_bond_distance_aromatic_linkinvent_7_9_3/rearranged_h_0027.sdf

> <i_m_source_file_index>
83

> <r_mmod_Potential_Energy-OPLS-2005>
173.69255065918

> <r_mmod_Stretch_Energy-OPLS-2005>
123.938598632812

> <r_mmod_Bend_Energy-OPLS-2005>
203.300399780273

> <r_mmod_Torsional_Energy-OPLS-2005>
269.564819335938

> <r_mmod_Improper_Torsional_Energy-OPLS-2005>
6.09520959854126

> <r_mmod_Van_der_Waal_Energy-OPLS-2005>
135.603103637695

> <r_mmod_Electrostatic_Energy-OPLS-2005>
-427.326995849609

> <r_mmod_Solvation_Energy-OPLS-2005>
-221.148574829102

> <b_mmod_Minimization_Converged-OPLS-2005>
0

> <r_mmod_RMS_Derivative-OPLS-2005>
2.17772316932678

$$$$
84
                    3D
 Structure written by MMmdl.
164174  0  0  1  0            999 V2000
  -30.7711  -14.3718   20.6872 C   0  0  0  0  0  0
  -30.4144  -12.2932   19.3976 C   0  0  0  0  0  0
  -29.4836  -12.5240   18.1934 C   0  0  0  0  0  0
  -28.0096  -12.3736   18.6121 C   0  0  0  0  0  0
  -27.6661  -13.2024   19.8772 C   0  0  2  0  0  0
  -28.7054  -12.9626   20.9958 C   0  0  0  0  0  0
  -25.2610  -13.8154   20.5675 C   0  0  0  0  0  0
  -24.1852  -13.0440   20.9172 C   0  0  0  0  0  0
  -24.6397  -11.6904   20.8729 C   0  0  0  0  0  0
  -23.9059  -10.4293   21.0402 C   0  0  0  0  0  0
  -24.3610   -9.4209   21.9182 C   0  0  0  0  0  0
  -23.6287   -8.2244   22.0753 C   0  0  0  0  0  0
  -22.4270   -8.0280   21.3542 C   0  0  0  0  0  0
  -21.9904   -9.0254   20.4646 C   0  0  0  0  0  0
  -22.7231  -10.2134   20.3054 C   0  0  0  0  0  0
  -21.6853   -6.0736   22.5279 C   0  0  0  0  0  0
  -21.4014   -6.5639   23.8213 C   0  0  0  0  0  0
  -21.3658   -5.6791   24.9175 C   0  0  0  0  0  0
  -21.6044   -4.3054   24.7226 C   0  0  0  0  0  0
  -21.8819   -3.8146   23.4347 C   0  0  0  0  0  0
  -21.9192   -4.6963   22.3403 C   0  0  0  0  0  0
  -22.7875  -13.5244   21.1837 C   0  0  0  0  0  0
  -22.1661   -4.2148   21.0980 F   0  0  0  0  0  0
  -21.5629   -3.4538   25.7739 F   0  0  0  0  0  0
  -30.0464  -13.2456   20.4566 N   0  0  0  0  0  0
  -26.3048  -12.9320   20.3370 N   0  0  0  0  0  0
  -25.9324  -11.6483   20.5758 N   0  0  0  0  0  0
  -22.0509  -12.8239   22.0393 N   0  0  0  0  0  0
  -25.4345  -15.1872   20.4081 N   0  0  0  0  0  0
  -31.7807  -14.6410   20.0293 O   0  0  0  0  0  0
  -21.6637   -6.8877   21.4241 O   0  0  0  0  0  0
  -22.3565  -14.5553   20.6690 O   0  0  0  0  0  0
  -24.6119  -31.8694   23.2120 C   0  0  0  0  0  0
  -25.9021  -32.4831   23.8403 C   0  0  1  0  0  0
  -27.2350  -27.4656   20.0860 C   0  0  0  0  0  0
  -25.5886  -33.8629   24.2337 N   0  0  0  0  0  0
  -23.3991  -30.4932   21.5518 C   0  0  2  0  0  0
  -24.8471  -28.9654   20.1108 C   0  0  0  0  0  0
  -22.7397  -29.4661   22.4998 C   0  0  0  0  0  0
  -18.0268  -28.1377   22.8495 C   0  0  0  0  0  0
  -24.1487  -36.7324   23.2639 C   0  0  0  0  0  0
  -25.9252  -30.8451   21.3607 C   0  0  0  0  0  0
  -26.0059  -29.4837   20.7038 C   0  0  0  0  0  0
  -27.2061  -28.7407   20.6882 C   0  0  0  0  0  0
  -26.0645  -26.9571   19.4843 C   0  0  0  0  0  0
  -24.8699  -27.7003   19.4977 C   0  0  0  0  0  0
  -23.6060  -29.8265   20.1656 C   0  0  0  0  0  0
  -25.4107  -36.3117   24.0338 C   0  0  1  0  0  0
  -20.5857  -28.3661   23.1327 C   0  0  2  0  0  0
  -20.6760  -26.9401   22.5421 C   0  0  0  0  0  0
  -19.5740  -26.6387   21.5215 C   0  0  0  0  0  0
  -18.1919  -26.7925   22.1625 C   0  0  0  0  0  0
  -19.1518  -28.8835   23.2908 C   0  0  0  0  0  0
  -18.9446  -30.1441   23.8919 C   0  0  0  0  0  0
  -17.6450  -30.6585   24.0568 C   0  0  0  0  0  0
  -25.9027  -34.9480   23.5136 C   0  0  0  0  0  0
  -16.5341  -29.9088   23.6326 C   0  0  0  0  0  0
  -16.7258  -28.6505   23.0345 C   0  0  0  0  0  0
  -26.4462  -31.6599   25.0716 C   0  0  0  0  0  0
  -25.3739  -31.3691   26.1471 C   0  0  0  0  0  0
  -27.0289  -30.3045   24.6070 C   0  0  0  0  0  0
  -27.6047  -32.4309   25.7474 C   0  0  0  0  0  0
  -27.5581  -37.1814   24.8465 C   0  0  0  0  0  0
  -21.4126  -29.3031   22.3737 N   0  0  0  0  0  0
  -26.4300  -37.3794   23.9400 N   0  0  0  0  0  0
  -24.6637  -31.0819   22.1010 N   0  0  0  0  0  0
  -23.4180  -28.8205   23.3035 O   0  0  0  0  0  0
  -28.3762  -26.7043   20.1333 O   0  0  0  0  0  0
  -26.5593  -34.8929   22.4699 O   0  0  0  0  0  0
  -23.5317  -32.1431   23.7528 O   0  0  0  0  0  0
  -29.4080  -20.0148   20.2574 C   0  0  0  0  0  0
  -30.4847  -22.0906   21.7568 C   0  0  0  0  0  0
  -28.7348  -21.2560   20.3288 C   0  0  0  0  0  0
  -30.6058  -19.7870   20.9614 C   0  0  0  0  0  0
  -29.2643  -22.3473   21.0822 C   0  0  0  0  0  0
  -31.1479  -20.8497   21.7149 C   0  0  0  0  0  0
  -29.4630  -24.8099   21.3964 C   0  0  0  0  0  0
  -27.8277  -24.2503   20.2463 C   0  0  0  0  0  0
  -29.5988  -16.5793   21.3247 C   0  0  0  0  0  0
  -31.4671  -16.3165   22.2696 C   0  0  0  0  0  0
  -30.3638  -15.3449   21.8175 C   0  0  2  0  0  0
  -28.1959  -25.5544   20.9660 C   0  0  0  0  0  0
  -27.4000  -21.3496   19.6067 C   0  0  0  0  0  0
  -31.2722  -18.4115   20.9085 C   0  0  0  0  0  0
  -28.6264  -23.6132   21.2891 N   0  0  0  0  0  0
  -30.6465  -17.4567   21.8604 N   0  3  1  0  0  0
  -32.6058  -20.6654   22.6271 Cl  0  0  0  0  0  0
  -31.4582  -12.3849   19.0917 H   0  0  0  0  0  0
  -30.3071  -11.2727   19.7692 H   0  0  0  0  0  0
  -29.7190  -11.8190   17.3952 H   0  0  0  0  0  0
  -29.6512  -13.5209   17.7829 H   0  0  0  0  0  0
  -27.8229  -11.3155   18.8001 H   0  0  0  0  0  0
  -27.3531  -12.6543   17.7879 H   0  0  0  0  0  0
  -27.7200  -14.2538   19.5946 H   0  0  0  0  0  0
  -28.6659  -11.9258   21.3330 H   0  0  0  0  0  0
  -28.4440  -13.5603   21.8662 H   0  0  0  0  0  0
  -25.2758   -9.5686   22.4754 H   0  0  0  0  0  0
  -23.9998   -7.4637   22.7472 H   0  0  0  0  0  0
  -21.0835   -8.8771   19.8953 H   0  0  0  0  0  0
  -22.3688  -10.9671   19.6161 H   0  0  0  0  0  0
  -21.2005   -7.6148   23.9716 H   0  0  0  0  0  0
  -21.1481   -6.0522   25.9077 H   0  0  0  0  0  0
  -22.0599   -2.7608   23.2848 H   0  0  0  0  0  0
  -22.4109  -11.9892   22.4777 H   0  0  0  0  0  0
  -21.1129  -13.1273   22.2596 H   0  0  0  0  0  0
  -24.6666  -15.8423   20.5074 H   0  0  0  0  0  0
  -26.2842  -15.6222   20.0724 H   0  0  0  0  0  0
  -26.7092  -32.5558   23.1172 H   0  0  0  0  0  0
  -25.0026  -33.9794   25.0475 H   0  0  0  0  0  0
  -22.6865  -31.3091   21.4144 H   0  0  0  0  0  0
  -23.3735  -35.9672   23.3324 H   0  0  0  0  0  0
  -24.3579  -36.8915   22.2048 H   0  0  0  0  0  0
  -23.7260  -37.6546   23.6638 H   0  0  0  0  0  0
  -26.0323  -31.6149   20.5952 H   0  0  0  0  0  0
  -26.8145  -30.8985   21.9767 H   0  0  0  0  0  0
  -28.0997  -29.1308   21.1557 H   0  0  0  0  0  0
  -26.0715  -25.9876   19.0084 H   0  0  0  0  0  0
  -23.9791  -27.2965   19.0367 H   0  0  0  0  0  0
  -23.7077  -30.6020   19.4055 H   0  0  0  0  0  0
  -22.7318  -29.2422   19.8731 H   0  0  0  0  0  0
  -25.1283  -36.1989   25.0831 H   0  0  0  0  0  0
  -20.9946  -28.3226   24.1448 H   0  0  0  0  0  0
  -20.5670  -26.2266   23.3603 H   0  0  0  0  0  0
  -21.6633  -26.7451   22.1210 H   0  0  0  0  0  0
  -19.6905  -25.6305   21.1230 H   0  0  0  0  0  0
  -19.6684  -27.3212   20.6759 H   0  0  0  0  0  0
  -17.4190  -26.6675   21.4026 H   0  0  0  0  0  0
  -18.0316  -26.0064   22.9017 H   0  0  0  0  0  0
  -19.7924  -30.7245   24.2302 H   0  0  0  0  0  0
  -17.5009  -31.6269   24.5163 H   0  0  0  0  0  0
  -15.5344  -30.2998   23.7642 H   0  0  0  0  0  0
  -15.8655  -28.0833   22.7047 H   0  0  0  0  0  0
  -24.5911  -30.7042   25.7803 H   0  0  0  0  0  0
  -24.8929  -32.2841   26.4936 H   0  0  0  0  0  0
  -25.8099  -30.8844   27.0217 H   0  0  0  0  0  0
  -26.2826  -29.6807   24.1135 H   0  0  0  0  0  0
  -27.4087  -29.7274   25.4513 H   0  0  0  0  0  0
  -27.8649  -30.4372   23.9197 H   0  0  0  0  0  0
  -27.2677  -33.3595   26.2091 H   0  0  0  0  0  0
  -28.3835  -32.6888   25.0284 H   0  0  0  0  0  0
  -28.0742  -31.8407   26.5353 H   0  0  0  0  0  0
  -28.2612  -38.0098   24.7490 H   0  0  0  0  0  0
  -28.1064  -36.2628   24.6319 H   0  0  0  0  0  0
  -27.2294  -37.1499   25.8869 H   0  0  0  0  0  0
  -20.9279  -29.8760   21.6969 H   0  0  0  0  0  0
  -26.0194  -38.2879   24.1382 H   0  0  0  0  0  0
  -28.9792  -19.2106   19.6750 H   0  0  0  0  0  0
  -30.9275  -22.8609   22.3708 H   0  0  0  0  0  0
  -29.8022  -25.0452   22.4059 H   0  0  0  0  0  0
  -30.2682  -24.8481   20.6596 H   0  0  0  0  0  0
  -28.2588  -24.1662   19.2468 H   0  0  0  0  0  0
  -26.7622  -24.0199   20.2737 H   0  0  0  0  0  0
  -28.6390  -16.7224   21.8219 H   0  0  0  0  0  0
  -29.4848  -16.6312   20.2404 H   0  0  0  0  0  0
  -32.4185  -16.2495   21.7406 H   0  0  0  0  0  0
  -31.6337  -16.3025   23.3469 H   0  0  0  0  0  0
  -29.9131  -14.8632   22.6846 H   0  0  0  0  0  0
  -27.5493  -25.7548   21.8274 H   0  0  0  0  0  0
  -27.0588  -20.3733   19.2629 H   0  0  0  0  0  0
  -27.4783  -21.9927   18.7307 H   0  0  0  0  0  0
  -26.6285  -21.7394   20.2705 H   0  0  0  0  0  0
  -32.3311  -18.5106   21.1424 H   0  0  0  0  0  0
  -31.2463  -18.0212   19.8906 H   0  0  0  0  0  0
  -30.3235  -17.9453   22.6821 H   0  0  0  0  0  0
  1 25  1  0  0  0
  1 30  2  0  0  0
  1 81  1  0  0  0
  2  3  1  0  0  0
  2 25  1  0  0  0
  2 88  1  0  0  0
  2 89  1  0  0  0
  3  4  1  0  0  0
  3 90  1  0  0  0
  3 91  1  0  0  0
  4  5  1  0  0  0
  4 92  1  0  0  0
  4 93  1  0  0  0
  5  6  1  0  0  0
  5 26  1  0  0  0
  5 94  1  0  0  0
  6 25  1  0  0  0
  6 95  1  0  0  0
  6 96  1  0  0  0
  7  8  2  0  0  0
  7 26  1  0  0  0
  7 29  1  0  0  0
  8  9  1  0  0  0
  8 22  1  0  0  0
  9 10  1  0  0  0
  9 27  2  0  0  0
 10 11  2  0  0  0
 10 15  1  0  0  0
 11 12  1  0  0  0
 11 97  1  0  0  0
 12 13  2  0  0  0
 12 98  1  0  0  0
 13 14  1  0  0  0
 13 31  1  0  0  0
 14 15  2  0  0  0
 14 99  1  0  0  0
 15100  1  0  0  0
 16 17  2  0  0  0
 16 21  1  0  0  0
 16 31  1  0  0  0
 17 18  1  0  0  0
 17101  1  0  0  0
 18 19  2  0  0  0
 18102  1  0  0  0
 19 20  1  0  0  0
 19 24  1  0  0  0
 20 21  2  0  0  0
 20103  1  0  0  0
 21 23  1  0  0  0
 22 28  1  0  0  0
 22 32  2  0  0  0
 26 27  1  0  0  0
 28104  1  0  0  0
 28105  1  0  0  0
 29106  1  0  0  0
 29107  1  0  0  0
 33 34  1  0  0  0
 33 66  1  0  0  0
 33 70  2  0  0  0
 34 36  1  0  0  0
 34 59  1  0  0  0
 34108  1  0  0  0
 35 44  2  0  0  0
 35 45  1  0  0  0
 35 68  1  0  0  0
 36 56  1  0  0  0
 36109  1  0  0  0
 37 39  1  0  0  0
 37 47  1  0  0  0
 37 66  1  0  0  0
 37110  1  0  0  0
 38 43  2  0  0  0
 38 46  1  0  0  0
 38 47  1  0  0  0
 39 64  1  0  0  0
 39 67  2  0  0  0
 40 52  1  0  0  0
 40 53  2  0  0  0
 40 58  1  0  0  0
 41111  1  0  0  0
 41112  1  0  0  0
 41113  1  0  0  0
 41 48  1  0  0  0
 42 43  1  0  0  0
 42 66  1  0  0  0
 42114  1  0  0  0
 42115  1  0  0  0
 43 44  1  0  0  0
 44116  1  0  0  0
 45 46  2  0  0  0
 45117  1  0  0  0
 46118  1  0  0  0
 47119  1  0  0  0
 47120  1  0  0  0
 48 56  1  0  0  0
 48 65  1  0  0  0
 48121  1  0  0  0
 49 50  1  0  0  0
 49 53  1  0  0  0
 49 64  1  0  0  0
 49122  1  0  0  0
 50 51  1  0  0  0
 50123  1  0  0  0
 50124  1  0  0  0
 51 52  1  0  0  0
 51125  1  0  0  0
 51126  1  0  0  0
 52127  1  0  0  0
 52128  1  0  0  0
 53 54  1  0  0  0
 54 55  2  0  0  0
 54129  1  0  0  0
 55 57  1  0  0  0
 55130  1  0  0  0
 56 69  2  0  0  0
 57 58  2  0  0  0
 57131  1  0  0  0
 58132  1  0  0  0
 59 60  1  0  0  0
 59 61  1  0  0  0
 59 62  1  0  0  0
 60133  1  0  0  0
 60134  1  0  0  0
 60135  1  0  0  0
 61136  1  0  0  0
 61137  1  0  0  0
 61138  1  0  0  0
 62139  1  0  0  0
 62140  1  0  0  0
 62141  1  0  0  0
 63 65  1  0  0  0
 63142  1  0  0  0
 63143  1  0  0  0
 63144  1  0  0  0
 64145  1  0  0  0
 65146  1  0  0  0
 68 82  1  0  0  0
 71 73  2  0  0  0
 71 74  1  0  0  0
 71147  1  0  0  0
 72 75  2  0  0  0
 72 76  1  0  0  0
 72148  1  0  0  0
 73 75  1  0  0  0
 73 83  1  0  0  0
 74 76  2  0  0  0
 74 84  1  0  0  0
 75 85  1  0  0  0
 76 87  1  0  0  0
 77 82  1  0  0  0
 77 85  1  0  0  0
 77149  1  0  0  0
 77150  1  0  0  0
 78 82  1  0  0  0
 78 85  1  0  0  0
 78151  1  0  0  0
 78152  1  0  0  0
 79 81  1  0  0  0
 79 86  1  0  0  0
 79153  1  0  0  0
 79154  1  0  0  0
 80 81  1  0  0  0
 80 86  1  0  0  0
 80155  1  0  0  0
 80156  1  0  0  0
 81157  1  0  0  0
 82158  1  0  0  0
 83159  1  0  0  0
 83160  1  0  0  0
 83161  1  0  0  0
 84162  1  0  0  0
 84163  1  0  0  0
 84 86  1  0  0  0
 86164  1  0  0  0
M  CHG  1  86   1
M  ISO  4   1 100  68 101  81 100  82 101
M  END
> <chiral flag>
0

> <version>
0

> <s_m_source_file>
/data/baiqing/PycharmProjects/Reinvent-master-3.2/result/LINK_invent/BTK/process_docking_weight1_custom_product_contain_oxygen_bond_distance_aromatic_linkinvent_7_9_3/rearranged_h_0027.sdf

> <i_m_source_file_index>
84

> <r_mmod_Potential_Energy-OPLS-2005>
-192.350158691406

> <r_mmod_Stretch_Energy-OPLS-2005>
36.4265975952148

> <r_mmod_Bend_Energy-OPLS-2005>
146.517654418945

> <r_mmod_Torsional_Energy-OPLS-2005>
228.124816894531

> <r_mmod_Improper_Torsional_Energy-OPLS-2005>
9.52793598175049

> <r_mmod_Van_der_Waal_Energy-OPLS-2005>
160.694580078125

> <r_mmod_Electrostatic_Energy-OPLS-2005>
-327.818054199219

> <r_mmod_Solvation_Energy-OPLS-2005>
-454.273406982422

> <b_mmod_Minimization_Converged-OPLS-2005>
0

> <r_mmod_RMS_Derivative-OPLS-2005>
0.543220102787018

$$$$
85
                    3D
 Structure written by MMmdl.
179189  0  0  1  0            999 V2000
  -30.5406  -14.7561   20.5255 C   0  0  0  0  0  0
  -30.4349  -12.4614   19.4614 C   0  0  0  0  0  0
  -29.5168  -12.5529   18.2202 C   0  0  0  0  0  0
  -28.0370  -12.3721   18.6157 C   0  0  0  0  0  0
  -27.6444  -13.2220   19.8515 C   0  0  2  0  0  0
  -28.6793  -13.0719   20.9875 C   0  0  0  0  0  0
  -25.2485  -13.8042   20.5599 C   0  0  0  0  0  0
  -24.1864  -13.0415   20.9218 C   0  0  0  0  0  0
  -24.6437  -11.6832   20.8699 C   0  0  0  0  0  0
  -23.9082  -10.4309   21.0436 C   0  0  0  0  0  0
  -24.3617   -9.4169   21.9205 C   0  0  0  0  0  0
  -23.6284   -8.2192   22.0751 C   0  0  0  0  0  0
  -22.4248   -8.0258   21.3552 C   0  0  0  0  0  0
  -21.9903   -9.0236   20.4643 C   0  0  0  0  0  0
  -22.7243  -10.2114   20.3071 C   0  0  0  0  0  0
  -21.6851   -6.0723   22.5289 C   0  0  0  0  0  0
  -21.4015   -6.5632   23.8216 C   0  0  0  0  0  0
  -21.3655   -5.6788   24.9179 C   0  0  0  0  0  0
  -21.6027   -4.3053   24.7234 C   0  0  0  0  0  0
  -21.8799   -3.8140   23.4364 C   0  0  0  0  0  0
  -21.9179   -4.6953   22.3411 C   0  0  0  0  0  0
  -22.7861  -13.5144   21.1860 C   0  0  0  0  0  0
  -22.1646   -4.2127   21.0998 F   0  0  0  0  0  0
  -21.5625   -3.4545   25.7758 F   0  0  0  0  0  0
  -29.9814  -13.4898   20.4385 N   0  0  0  0  0  0
  -26.2968  -12.9287   20.3153 N   0  0  0  0  0  0
  -25.9382  -11.6439   20.5685 N   0  0  0  0  0  0
  -22.0498  -12.8219   22.0390 N   0  0  0  0  0  0
  -25.4090  -15.1781   20.3765 N   0  0  0  0  0  0
  -31.7044  -14.9409   20.1599 O   0  0  0  0  0  0
  -21.6590   -6.8868   21.4260 O   0  0  0  0  0  0
  -22.3599  -14.5516   20.6677 O   0  0  0  0  0  0
  -24.6431  -31.8796   23.1869 C   0  0  0  0  0  0
  -25.9209  -32.5147   23.8286 C   0  0  1  0  0  0
  -27.2306  -27.2376   20.1989 C   0  0  0  0  0  0
  -25.5674  -33.8797   24.2079 N   0  0  0  0  0  0
  -23.4304  -30.5086   21.5310 C   0  0  2  0  0  0
  -24.8884  -28.9081   20.1451 C   0  0  0  0  0  0
  -22.7457  -29.5018   22.4806 C   0  0  0  0  0  0
  -18.0242  -28.1508   22.8425 C   0  0  0  0  0  0
  -24.1138  -36.7305   23.2720 C   0  0  0  0  0  0
  -25.9850  -30.7584   21.3880 C   0  0  0  0  0  0
  -26.0594  -29.3645   20.7642 C   0  0  0  0  0  0
  -27.2345  -28.5298   20.8105 C   0  0  0  0  0  0
  -26.0367  -26.8362   19.5891 C   0  0  0  0  0  0
  -24.8742  -27.6295   19.5700 C   0  0  0  0  0  0
  -23.6567  -29.7980   20.1687 C   0  0  0  0  0  0
  -25.3761  -36.3222   24.0351 C   0  0  1  0  0  0
  -20.5810  -28.4158   23.0815 C   0  0  2  0  0  0
  -20.7458  -27.0041   22.4684 C   0  0  0  0  0  0
  -19.5702  -26.4002   21.6870 C   0  0  0  0  0  0
  -18.1524  -26.8404   22.0864 C   0  0  0  0  0  0
  -19.1494  -28.8992   23.2790 C   0  0  0  0  0  0
  -18.9380  -30.1371   23.9131 C   0  0  0  0  0  0
  -17.6379  -30.6597   24.0748 C   0  0  0  0  0  0
  -25.8646  -34.9694   23.4903 C   0  0  0  0  0  0
  -16.5273  -29.9096   23.6327 C   0  0  0  0  0  0
  -16.7143  -28.6441   23.0507 C   0  0  0  0  0  0
  -26.4490  -31.7167   25.0846 C   0  0  0  0  0  0
  -25.3497  -31.4309   26.1379 C   0  0  0  0  0  0
  -27.0612  -30.3694   24.6439 C   0  0  0  0  0  0
  -27.5986  -32.4886   25.7662 C   0  0  0  0  0  0
  -27.5226  -37.1922   24.8357 C   0  0  0  0  0  0
  -21.4098  -29.3951   22.3791 N   0  0  0  0  0  0
  -26.3965  -37.3801   23.9292 N   0  0  0  0  0  0
  -24.7087  -31.0680   22.0891 N   0  0  0  0  0  0
  -23.4305  -28.8069   23.2387 O   0  0  0  0  0  0
  -28.2410  -26.2716   20.0178 O   0  0  0  0  0  0
  -26.5367  -34.9324   22.4510 O   0  0  0  0  0  0
  -23.5508  -32.1752   23.6984 O   0  0  0  0  0  0
  -30.8663  -19.5794   20.6679 C   0  0  0  0  0  0
  -30.8857  -18.1323   20.5317 C   0  0  0  0  0  0
  -29.9206  -20.3229   21.4554 C   0  0  0  0  0  0
  -29.0007  -19.4207   22.1041 C   0  0  0  0  0  0
  -28.7629  -18.0877   21.5970 C   0  0  0  0  0  0
  -29.8038  -17.3093   20.9916 C   0  0  0  0  0  0
  -27.2830  -23.9985   22.9616 C   0  0  0  0  0  0
  -28.5557  -24.8008   23.1423 C   0  0  0  0  0  0
  -24.5212  -20.2568   21.5910 C   0  0  0  0  0  0
  -27.8825  -22.7194   22.3747 C   0  0  0  0  0  0
  -25.1177  -18.9214   22.0900 C   0  0  0  0  0  0
  -26.1194  -19.2646   20.0144 C   0  0  0  0  0  0
  -25.1430  -20.4537   20.1874 C   0  0  1  0  0  0
  -29.3602  -24.5082   21.8667 C   0  0  2  0  0  0
  -28.4351  -19.6464   23.5160 C   0  0  0  0  0  0
  -30.1318  -21.9166   21.7411 C   0  0  0  0  0  0
  -27.2844  -17.6286   21.6059 C   0  0  0  0  0  0
  -29.3501  -25.8047   20.8752 C   0  0  0  0  0  0
  -29.6944  -15.8039   20.8808 N   0  0  0  0  0  0
  -26.4108  -18.8351   21.3933 N   0  3  2  0  0  0
  -29.0481  -23.0219   21.4938 N   0  3  1  0  0  0
  -24.2065  -20.4479   19.2498 F   0  0  0  0  0  0
  -31.4895  -12.5756   19.1870 H   0  0  0  0  0  0
  -30.3488  -11.4640   19.8934 H   0  0  0  0  0  0
  -29.8001  -11.8082   17.4810 H   0  0  0  0  0  0
  -29.6557  -13.5207   17.7305 H   0  0  0  0  0  0
  -27.8864  -11.3187   18.8327 H   0  0  0  0  0  0
  -27.3834  -12.5911   17.7698 H   0  0  0  0  0  0
  -27.6580  -14.2604   19.5202 H   0  0  0  0  0  0
  -28.7308  -12.0257   21.3000 H   0  0  0  0  0  0
  -28.4064  -13.6395   21.8786 H   0  0  0  0  0  0
  -25.2767   -9.5579   22.4805 H   0  0  0  0  0  0
  -23.9957   -7.4543   22.7493 H   0  0  0  0  0  0
  -21.0793   -8.8740   19.8987 H   0  0  0  0  0  0
  -22.3694  -10.9631   19.6161 H   0  0  0  0  0  0
  -21.2026   -7.6149   23.9716 H   0  0  0  0  0  0
  -21.1497   -6.0536   25.9081 H   0  0  0  0  0  0
  -22.0599   -2.7608   23.2861 H   0  0  0  0  0  0
  -22.4044  -11.9851   22.4796 H   0  0  0  0  0  0
  -21.1131  -13.1259   22.2638 H   0  0  0  0  0  0
  -24.5226  -15.6665   20.2879 H   0  0  0  0  0  0
  -26.0431  -15.4286   19.6294 H   0  0  0  0  0  0
  -26.7242  -32.5812   23.0950 H   0  0  0  0  0  0
  -25.0036  -33.9811   25.0414 H   0  0  0  0  0  0
  -22.7263  -31.3308   21.3630 H   0  0  0  0  0  0
  -23.3386  -35.9682   23.3658 H   0  0  0  0  0  0
  -24.3247  -36.8766   22.2158 H   0  0  0  0  0  0
  -23.7014  -37.6590   23.6565 H   0  0  0  0  0  0
  -26.1218  -31.4746   20.5820 H   0  0  0  0  0  0
  -26.8465  -30.8580   22.0289 H   0  0  0  0  0  0
  -28.1199  -28.8937   21.3013 H   0  0  0  0  0  0
  -25.9704  -25.8401   19.1702 H   0  0  0  0  0  0
  -23.9546  -27.2413   19.1487 H   0  0  0  0  0  0
  -23.7230  -30.5221   19.3570 H   0  0  0  0  0  0
  -22.7896  -29.1964   19.9013 H   0  0  0  0  0  0
  -25.0935  -36.1815   25.0847 H   0  0  0  0  0  0
  -20.9921  -28.3679   24.0933 H   0  0  0  0  0  0
  -21.6317  -26.9872   21.8223 H   0  0  0  0  0  0
  -21.0095  -26.3055   23.2728 H   0  0  0  0  0  0
  -19.6143  -25.3296   21.9189 H   0  0  0  0  0  0
  -19.7450  -26.4553   20.6008 H   0  0  0  0  0  0
  -17.5774  -26.9494   21.1570 H   0  0  0  0  0  0
  -17.6466  -26.0497   22.6488 H   0  0  0  0  0  0
  -19.7797  -30.7000   24.2890 H   0  0  0  0  0  0
  -17.4940  -31.6393   24.5272 H   0  0  0  0  0  0
  -15.5281  -30.3159   23.7535 H   0  0  0  0  0  0
  -15.8460  -28.0805   22.7284 H   0  0  0  0  0  0
  -24.4701  -30.9490   25.7010 H   0  0  0  0  0  0
  -25.0162  -32.3567   26.6024 H   0  0  0  0  0  0
  -25.7046  -30.7689   26.9249 H   0  0  0  0  0  0
  -27.8788  -30.5403   23.9496 H   0  0  0  0  0  0
  -27.5444  -29.8663   25.4658 H   0  0  0  0  0  0
  -26.3191  -29.7026   24.2234 H   0  0  0  0  0  0
  -27.2307  -33.4195   26.1967 H   0  0  0  0  0  0
  -28.4182  -32.7448   25.0945 H   0  0  0  0  0  0
  -28.0484  -31.9289   26.5852 H   0  0  0  0  0  0
  -28.2295  -38.0101   24.7162 H   0  0  0  0  0  0
  -28.0627  -36.2700   24.6063 H   0  0  0  0  0  0
  -27.2272  -37.1602   25.8889 H   0  0  0  0  0  0
  -20.9184  -30.0215   21.7590 H   0  0  0  0  0  0
  -25.9842  -38.2849   24.1146 H   0  0  0  0  0  0
  -31.6786  -20.1192   20.2271 H   0  0  0  0  0  0
  -31.7094  -17.6592   20.0073 H   0  0  0  0  0  0
  -26.5982  -24.5116   22.2939 H   0  0  0  0  0  0
  -26.7483  -23.8009   23.8980 H   0  0  0  0  0  0
  -29.0919  -24.4026   24.0021 H   0  0  0  0  0  0
  -28.4078  -25.8628   23.2816 H   0  0  0  0  0  0
  -24.8150  -21.0873   22.2383 H   0  0  0  0  0  0
  -23.4310  -20.2227   21.5650 H   0  0  0  0  0  0
  -27.1927  -21.9722   21.9906 H   0  0  0  0  0  0
  -28.3536  -22.3048   23.2572 H   0  0  0  0  0  0
  -24.4836  -18.0746   21.8004 H   0  0  0  0  0  0
  -25.2059  -18.8908   23.1723 H   0  0  0  0  0  0
  -26.9945  -19.5467   19.4174 H   0  0  0  0  0  0
  -25.6152  -18.4342   19.5162 H   0  0  0  0  0  0
  -25.6499  -21.4210   20.0966 H   0  0  0  0  0  0
  -30.3960  -24.4979   22.1951 H   0  0  0  0  0  0
  -27.7148  -20.4428   23.6291 H   0  0  0  0  0  0
  -29.2785  -19.7732   24.2007 H   0  0  0  0  0  0
  -27.9394  -18.7452   23.9057 H   0  0  0  0  0  0
  -31.0098  -22.2369   21.1715 H   0  0  0  0  0  0
  -30.4874  -21.9685   22.7734 H   0  0  0  0  0  0
  -27.0093  -17.0627   22.5056 H   0  0  0  0  0  0
  -27.1546  -16.9704   20.7499 H   0  0  0  0  0  0
  -30.1659  -25.6315   20.1732 H   0  0  0  0  0  0
  -29.6819  -26.6814   21.4378 H   0  0  0  0  0  0
  -28.8293  -15.4069   21.2333 H   0  0  0  0  0  0
  -26.9705  -19.5821   21.7866 H   0  0  0  0  0  0
  -28.8035  -22.9740   20.5170 H   0  0  0  0  0  0
  1 25  1  0  0  0
  1 30  2  0  0  0
  1 89  1  0  0  0
  2  3  1  0  0  0
  2 25  1  0  0  0
  2 93  1  0  0  0
  2 94  1  0  0  0
  3  4  1  0  0  0
  3 95  1  0  0  0
  3 96  1  0  0  0
  4  5  1  0  0  0
  4 97  1  0  0  0
  4 98  1  0  0  0
  5  6  1  0  0  0
  5 26  1  0  0  0
  5 99  1  0  0  0
  6 25  1  0  0  0
  6100  1  0  0  0
  6101  1  0  0  0
  7  8  2  0  0  0
  7 26  1  0  0  0
  7 29  1  0  0  0
  8  9  1  0  0  0
  8 22  1  0  0  0
  9 10  1  0  0  0
  9 27  2  0  0  0
 10 11  2  0  0  0
 10 15  1  0  0  0
 11 12  1  0  0  0
 11102  1  0  0  0
 12 13  2  0  0  0
 12103  1  0  0  0
 13 14  1  0  0  0
 13 31  1  0  0  0
 14 15  2  0  0  0
 14104  1  0  0  0
 15105  1  0  0  0
 16 17  2  0  0  0
 16 21  1  0  0  0
 16 31  1  0  0  0
 17 18  1  0  0  0
 17106  1  0  0  0
 18 19  2  0  0  0
 18107  1  0  0  0
 19 20  1  0  0  0
 19 24  1  0  0  0
 20 21  2  0  0  0
 20108  1  0  0  0
 21 23  1  0  0  0
 22 28  1  0  0  0
 22 32  2  0  0  0
 26 27  1  0  0  0
 28109  1  0  0  0
 28110  1  0  0  0
 29111  1  0  0  0
 29112  1  0  0  0
 33 34  1  0  0  0
 33 66  1  0  0  0
 33 70  2  0  0  0
 34 36  1  0  0  0
 34 59  1  0  0  0
 34113  1  0  0  0
 35 44  2  0  0  0
 35 45  1  0  0  0
 35 68  1  0  0  0
 36 56  1  0  0  0
 36114  1  0  0  0
 37 39  1  0  0  0
 37 47  1  0  0  0
 37 66  1  0  0  0
 37115  1  0  0  0
 38 43  2  0  0  0
 38 46  1  0  0  0
 38 47  1  0  0  0
 39 64  1  0  0  0
 39 67  2  0  0  0
 40 52  1  0  0  0
 40 53  2  0  0  0
 40 58  1  0  0  0
 41116  1  0  0  0
 41117  1  0  0  0
 41118  1  0  0  0
 41 48  1  0  0  0
 42 43  1  0  0  0
 42 66  1  0  0  0
 42119  1  0  0  0
 42120  1  0  0  0
 43 44  1  0  0  0
 44121  1  0  0  0
 45 46  2  0  0  0
 45122  1  0  0  0
 46123  1  0  0  0
 47124  1  0  0  0
 47125  1  0  0  0
 48 56  1  0  0  0
 48 65  1  0  0  0
 48126  1  0  0  0
 49 50  1  0  0  0
 49 53  1  0  0  0
 49 64  1  0  0  0
 49127  1  0  0  0
 50 51  1  0  0  0
 50128  1  0  0  0
 50129  1  0  0  0
 51 52  1  0  0  0
 51130  1  0  0  0
 51131  1  0  0  0
 52132  1  0  0  0
 52133  1  0  0  0
 53 54  1  0  0  0
 54 55  2  0  0  0
 54134  1  0  0  0
 55 57  1  0  0  0
 55135  1  0  0  0
 56 69  2  0  0  0
 57 58  2  0  0  0
 57136  1  0  0  0
 58137  1  0  0  0
 59 60  1  0  0  0
 59 61  1  0  0  0
 59 62  1  0  0  0
 60138  1  0  0  0
 60139  1  0  0  0
 60140  1  0  0  0
 61141  1  0  0  0
 61142  1  0  0  0
 61143  1  0  0  0
 62144  1  0  0  0
 62145  1  0  0  0
 62146  1  0  0  0
 63 65  1  0  0  0
 63147  1  0  0  0
 63148  1  0  0  0
 63149  1  0  0  0
 64150  1  0  0  0
 65151  1  0  0  0
 68 88  1  0  0  0
 71 72  2  0  0  0
 71 73  1  0  0  0
 71152  1  0  0  0
 72 76  1  0  0  0
 72153  1  0  0  0
 73 74  2  0  0  0
 73 86  1  0  0  0
 74 75  1  0  0  0
 74 85  1  0  0  0
 75 76  2  0  0  0
 75 87  1  0  0  0
 76 89  1  0  0  0
 77 78  1  0  0  0
 77 80  1  0  0  0
 77154  1  0  0  0
 77155  1  0  0  0
 78 84  1  0  0  0
 78156  1  0  0  0
 78157  1  0  0  0
 79 81  1  0  0  0
 79 83  1  0  0  0
 79158  1  0  0  0
 79159  1  0  0  0
 80 91  1  0  0  0
 80160  1  0  0  0
 80161  1  0  0  0
 81 90  1  0  0  0
 81162  1  0  0  0
 81163  1  0  0  0
 82 83  1  0  0  0
 82 90  1  0  0  0
 82164  1  0  0  0
 82165  1  0  0  0
 83 92  1  0  0  0
 83166  1  0  0  0
 84 88  1  0  0  0
 84 91  1  0  0  0
 84167  1  0  0  0
 85168  1  0  0  0
 85169  1  0  0  0
 85170  1  0  0  0
 86171  1  0  0  0
 86172  1  0  0  0
 86 91  1  0  0  0
 87173  1  0  0  0
 87174  1  0  0  0
 87 90  1  0  0  0
 88175  1  0  0  0
 88176  1  0  0  0
 89177  1  0  0  0
 90178  1  0  0  0
 91179  1  0  0  0
M  CHG  2  90   1  91   1
M  ISO  4   1 100  68 101  88 101  89 100
M  END
> <chiral flag>
0

> <version>
0

> <s_m_source_file>
/data/baiqing/PycharmProjects/Reinvent-master-3.2/result/LINK_invent/BTK/process_docking_weight1_custom_product_contain_oxygen_bond_distance_aromatic_linkinvent_7_9_3/rearranged_h_0027.sdf

> <i_m_source_file_index>
85

> <r_mmod_Potential_Energy-OPLS-2005>
496.305206298828

> <r_mmod_Stretch_Energy-OPLS-2005>
166.494369506836

> <r_mmod_Bend_Energy-OPLS-2005>
408.667572021484

> <r_mmod_Torsional_Energy-OPLS-2005>
478.27978515625

> <r_mmod_Improper_Torsional_Energy-OPLS-2005>
13.5928859710693

> <r_mmod_Van_der_Waal_Energy-OPLS-2005>
134.00846862793

> <r_mmod_Electrostatic_Energy-OPLS-2005>
80.0090408325195

> <r_mmod_Solvation_Energy-OPLS-2005>
-902.731689453125

> <b_mmod_Minimization_Converged-OPLS-2005>
0

> <r_mmod_RMS_Derivative-OPLS-2005>
24.8488883972168

$$$$
86
                    3D
 Structure written by MMmdl.
169179  0  0  1  0            999 V2000
  -30.5680  -14.8286   20.4158 C   0  0  0  0  0  0
  -30.4361  -12.5004   19.4910 C   0  0  0  0  0  0
  -29.5194  -12.5197   18.2465 C   0  0  0  0  0  0
  -28.0452  -12.3330   18.6559 C   0  0  0  0  0  0
  -27.6385  -13.2407   19.8474 C   0  0  2  0  0  0
  -28.6799  -13.2043   20.9866 C   0  0  0  0  0  0
  -25.2491  -13.8210   20.5695 C   0  0  0  0  0  0
  -24.1797  -13.0439   20.9211 C   0  0  0  0  0  0
  -24.6404  -11.6920   20.8742 C   0  0  0  0  0  0
  -23.9079  -10.4295   21.0405 C   0  0  0  0  0  0
  -24.3627   -9.4211   21.9185 C   0  0  0  0  0  0
  -23.6300   -8.2246   22.0758 C   0  0  0  0  0  0
  -22.4280   -8.0285   21.3551 C   0  0  0  0  0  0
  -21.9918   -9.0257   20.4651 C   0  0  0  0  0  0
  -22.7248  -10.2132   20.3059 C   0  0  0  0  0  0
  -21.6854   -6.0738   22.5278 C   0  0  0  0  0  0
  -21.4013   -6.5640   23.8212 C   0  0  0  0  0  0
  -21.3663   -5.6792   24.9175 C   0  0  0  0  0  0
  -21.6042   -4.3054   24.7225 C   0  0  0  0  0  0
  -21.8819   -3.8147   23.4346 C   0  0  0  0  0  0
  -21.9193   -4.6966   22.3402 C   0  0  0  0  0  0
  -22.7817  -13.5215   21.1870 C   0  0  0  0  0  0
  -22.1661   -4.2151   21.0981 F   0  0  0  0  0  0
  -21.5632   -3.4536   25.7736 F   0  0  0  0  0  0
  -29.9743  -13.5777   20.4042 N   0  0  0  0  0  0
  -26.2921  -12.9431   20.3255 N   0  0  0  0  0  0
  -25.9334  -11.6565   20.5736 N   0  0  0  0  0  0
  -22.0465  -12.8206   22.0424 N   0  0  0  0  0  0
  -25.4156  -15.1938   20.4110 N   0  0  0  0  0  0
  -31.7648  -14.9124   20.1222 O   0  0  0  0  0  0
  -21.6645   -6.8882   21.4242 O   0  0  0  0  0  0
  -22.3500  -14.5520   20.6720 O   0  0  0  0  0  0
  -24.6361  -31.8498   23.1916 C   0  0  0  0  0  0
  -25.9161  -32.4728   23.8286 C   0  0  1  0  0  0
  -27.2200  -27.2062   20.1319 C   0  0  0  0  0  0
  -25.5934  -33.8531   24.2224 N   0  0  0  0  0  0
  -23.4357  -30.4696   21.5372 C   0  0  2  0  0  0
  -24.8829  -28.9068   20.1080 C   0  0  0  0  0  0
  -22.7527  -29.4568   22.4894 C   0  0  0  0  0  0
  -18.0295  -28.1382   22.8497 C   0  0  0  0  0  0
  -24.1489  -36.7260   23.2641 C   0  0  0  0  0  0
  -25.9856  -30.7440   21.3805 C   0  0  0  0  0  0
  -26.0561  -29.3619   20.7221 C   0  0  0  0  0  0
  -27.2235  -28.5247   20.7206 C   0  0  0  0  0  0
  -26.0199  -26.8286   19.4909 C   0  0  0  0  0  0
  -24.8739  -27.6512   19.4809 C   0  0  0  0  0  0
  -23.6561  -29.7995   20.1549 C   0  0  0  0  0  0
  -25.4120  -36.3049   24.0316 C   0  0  1  0  0  0
  -20.5904  -28.3694   23.1270 C   0  0  2  0  0  0
  -20.6786  -26.9407   22.5420 C   0  0  0  0  0  0
  -19.5754  -26.6378   21.5230 C   0  0  0  0  0  0
  -18.1932  -26.7928   22.1630 C   0  0  0  0  0  0
  -19.1553  -28.8857   23.2878 C   0  0  0  0  0  0
  -18.9472  -30.1464   23.8890 C   0  0  0  0  0  0
  -17.6468  -30.6593   24.0558 C   0  0  0  0  0  0
  -25.9067  -34.9424   23.5077 C   0  0  0  0  0  0
  -16.5359  -29.9085   23.6333 C   0  0  0  0  0  0
  -16.7279  -28.6495   23.0368 C   0  0  0  0  0  0
  -26.4498  -31.6573   25.0705 C   0  0  0  0  0  0
  -25.3689  -31.3771   26.1408 C   0  0  0  0  0  0
  -27.0345  -30.2973   24.6244 C   0  0  0  0  0  0
  -27.6050  -32.4322   25.7481 C   0  0  0  0  0  0
  -27.5579  -37.1778   24.8459 C   0  0  0  0  0  0
  -21.4227  -29.3029   22.3644 N   0  0  0  0  0  0
  -26.4281  -37.3764   23.9420 N   0  0  0  0  0  0
  -24.7055  -31.0416   22.0915 N   0  0  0  0  0  0
  -23.4215  -28.8125   23.3008 O   0  0  0  0  0  0
  -28.3115  -26.2921   20.2041 O   0  0  0  0  0  0
  -26.5654  -34.8911   22.4660 O   0  0  0  0  0  0
  -23.5494  -32.1332   23.7180 O   0  0  0  0  0  0
  -30.0364  -19.9984   18.8294 C   0  0  0  0  0  0
  -29.4346  -19.9555   20.1032 C   0  0  0  0  0  0
  -29.3793  -18.6145   20.7204 C   0  0  0  0  0  0
  -30.5171  -18.8433   18.1559 C   0  0  0  0  0  0
  -29.8815  -17.3839   20.0799 C   0  0  0  0  0  0
  -30.4052  -17.5584   18.7719 C   0  0  0  0  0  0
  -31.9405  -19.9841   14.8910 C   0  0  0  0  0  0
  -32.8089  -18.7736   15.2283 C   0  0  0  0  0  0
  -31.2345  -20.2863   16.2094 C   0  0  0  0  0  0
  -31.9986  -18.0143   16.2833 C   0  0  0  0  0  0
  -27.6036  -23.6591   20.5753 C   0  0  0  0  0  0
  -29.4662  -23.8613   19.8810 C   0  0  0  0  0  0
  -28.2310  -24.8369   19.7421 C   0  0  2  0  0  0
  -28.7761  -18.4949   22.1107 C   0  0  0  0  0  0
  -28.9489  -21.3670   20.7679 C   0  0  0  0  0  0
  -31.0761  -18.9901   16.8585 N   0  0  0  0  0  0
  -29.7805  -15.9744   20.6258 N   0  0  0  0  0  0
  -28.5629  -22.6623   19.9729 N   0  3  1  0  0  0
  -30.7425  -16.4530   18.0623 F   0  0  0  0  0  0
  -31.4771  -12.6323   19.1910 H   0  0  0  0  0  0
  -30.3916  -11.5304   19.9887 H   0  0  0  0  0  0
  -29.8160  -11.7388   17.5452 H   0  0  0  0  0  0
  -29.6387  -13.4673   17.7180 H   0  0  0  0  0  0
  -27.9113  -11.2854   18.9280 H   0  0  0  0  0  0
  -27.3896  -12.5114   17.8026 H   0  0  0  0  0  0
  -27.6230  -14.2579   19.4549 H   0  0  0  0  0  0
  -28.7308  -12.2119   21.4371 H   0  0  0  0  0  0
  -28.4013  -13.8907   21.7872 H   0  0  0  0  0  0
  -25.2773   -9.5682   22.4759 H   0  0  0  0  0  0
  -24.0004   -7.4639   22.7480 H   0  0  0  0  0  0
  -21.0847   -8.8777   19.8959 H   0  0  0  0  0  0
  -22.3709  -10.9672   19.6166 H   0  0  0  0  0  0
  -21.2006   -7.6148   23.9717 H   0  0  0  0  0  0
  -21.1482   -6.0523   25.9080 H   0  0  0  0  0  0
  -22.0597   -2.7608   23.2844 H   0  0  0  0  0  0
  -22.4074  -11.9862   22.4806 H   0  0  0  0  0  0
  -21.1086  -13.1235   22.2640 H   0  0  0  0  0  0
  -24.6388  -15.8386   20.5119 H   0  0  0  0  0  0
  -26.2513  -15.6354   20.0514 H   0  0  0  0  0  0
  -26.7228  -32.5352   23.1020 H   0  0  0  0  0  0
  -25.0047  -33.9661   25.0343 H   0  0  0  0  0  0
  -22.7344  -31.2918   21.3872 H   0  0  0  0  0  0
  -23.3771  -35.9570   23.3273 H   0  0  0  0  0  0
  -24.3589  -36.8915   22.2065 H   0  0  0  0  0  0
  -23.7211  -37.6433   23.6692 H   0  0  0  0  0  0
  -26.1360  -31.5033   20.6112 H   0  0  0  0  0  0
  -26.8595  -30.7889   22.0190 H   0  0  0  0  0  0
  -28.1203  -28.8690   21.2163 H   0  0  0  0  0  0
  -25.9324  -25.8663   19.0102 H   0  0  0  0  0  0
  -23.9749  -27.2989   18.9941 H   0  0  0  0  0  0
  -23.7802  -30.5733   19.3958 H   0  0  0  0  0  0
  -22.7732  -29.2330   19.8521 H   0  0  0  0  0  0
  -25.1307  -36.1868   25.0803 H   0  0  0  0  0  0
  -20.9994  -28.3264   24.1390 H   0  0  0  0  0  0
  -20.5705  -26.2291   23.3626 H   0  0  0  0  0  0
  -21.6648  -26.7434   22.1193 H   0  0  0  0  0  0
  -19.6917  -25.6294   21.1249 H   0  0  0  0  0  0
  -19.6695  -27.3193   20.6768 H   0  0  0  0  0  0
  -17.4212  -26.6689   21.4026 H   0  0  0  0  0  0
  -18.0315  -26.0077   22.9026 H   0  0  0  0  0  0
  -19.7951  -30.7287   24.2250 H   0  0  0  0  0  0
  -17.5022  -31.6273   24.5155 H   0  0  0  0  0  0
  -15.5361  -30.2983   23.7674 H   0  0  0  0  0  0
  -15.8675  -28.0810   22.7104 H   0  0  0  0  0  0
  -24.5876  -30.7104   25.7739 H   0  0  0  0  0  0
  -24.8863  -32.2958   26.4752 H   0  0  0  0  0  0
  -25.7961  -30.9002   27.0235 H   0  0  0  0  0  0
  -26.2937  -29.6720   24.1247 H   0  0  0  0  0  0
  -27.3976  -29.7247   25.4788 H   0  0  0  0  0  0
  -27.8837  -30.4240   23.9528 H   0  0  0  0  0  0
  -27.2675  -33.3671   26.1973 H   0  0  0  0  0  0
  -28.3898  -32.6796   25.0318 H   0  0  0  0  0  0
  -28.0663  -31.8485   26.5459 H   0  0  0  0  0  0
  -28.2566  -38.0110   24.7556 H   0  0  0  0  0  0
  -28.1106  -36.2640   24.6218 H   0  0  0  0  0  0
  -27.2306  -37.1331   25.8864 H   0  0  0  0  0  0
  -20.9426  -29.8723   21.6820 H   0  0  0  0  0  0
  -26.0143  -38.2821   24.1463 H   0  0  0  0  0  0
  -30.1248  -20.9642   18.3585 H   0  0  0  0  0  0
  -31.2064  -19.7160   14.1297 H   0  0  0  0  0  0
  -32.5158  -20.8319   14.5185 H   0  0  0  0  0  0
  -33.7540  -19.1066   15.6599 H   0  0  0  0  0  0
  -33.0404  -18.1608   14.3561 H   0  0  0  0  0  0
  -30.2763  -20.7800   16.0383 H   0  0  0  0  0  0
  -31.8545  -20.9384   16.8277 H   0  0  0  0  0  0
  -32.6561  -17.5687   17.0323 H   0  0  0  0  0  0
  -31.4262  -17.2120   15.8138 H   0  0  0  0  0  0
  -26.5605  -23.4517   20.3354 H   0  0  0  0  0  0
  -27.7328  -23.7779   21.6531 H   0  0  0  0  0  0
  -30.0425  -24.0293   20.7937 H   0  0  0  0  0  0
  -30.1216  -23.8477   19.0097 H   0  0  0  0  0  0
  -27.8815  -24.8114   18.7071 H   0  0  0  0  0  0
  -29.1445  -19.2863   22.7634 H   0  0  0  0  0  0
  -29.0281  -17.5481   22.5883 H   0  0  0  0  0  0
  -27.6892  -18.5666   22.0621 H   0  0  0  0  0  0
  -29.6873  -21.6472   21.5186 H   0  0  0  0  0  0
  -28.0540  -21.1157   21.3367 H   0  0  0  0  0  0
  -28.9003  -15.7723   21.0734 H   0  0  0  0  0  0
  -28.2194  -22.4099   19.0596 H   0  0  0  0  0  0
  1 25  1  0  0  0
  1 30  2  0  0  0
  1 87  1  0  0  0
  2  3  1  0  0  0
  2 25  1  0  0  0
  2 90  1  0  0  0
  2 91  1  0  0  0
  3  4  1  0  0  0
  3 92  1  0  0  0
  3 93  1  0  0  0
  4  5  1  0  0  0
  4 94  1  0  0  0
  4 95  1  0  0  0
  5  6  1  0  0  0
  5 26  1  0  0  0
  5 96  1  0  0  0
  6 25  1  0  0  0
  6 97  1  0  0  0
  6 98  1  0  0  0
  7  8  2  0  0  0
  7 26  1  0  0  0
  7 29  1  0  0  0
  8  9  1  0  0  0
  8 22  1  0  0  0
  9 10  1  0  0  0
  9 27  2  0  0  0
 10 11  2  0  0  0
 10 15  1  0  0  0
 11 12  1  0  0  0
 11 99  1  0  0  0
 12 13  2  0  0  0
 12100  1  0  0  0
 13 14  1  0  0  0
 13 31  1  0  0  0
 14 15  2  0  0  0
 14101  1  0  0  0
 15102  1  0  0  0
 16 17  2  0  0  0
 16 21  1  0  0  0
 16 31  1  0  0  0
 17 18  1  0  0  0
 17103  1  0  0  0
 18 19  2  0  0  0
 18104  1  0  0  0
 19 20  1  0  0  0
 19 24  1  0  0  0
 20 21  2  0  0  0
 20105  1  0  0  0
 21 23  1  0  0  0
 22 28  1  0  0  0
 22 32  2  0  0  0
 26 27  1  0  0  0
 28106  1  0  0  0
 28107  1  0  0  0
 29108  1  0  0  0
 29109  1  0  0  0
 33 34  1  0  0  0
 33 66  1  0  0  0
 33 70  2  0  0  0
 34 36  1  0  0  0
 34 59  1  0  0  0
 34110  1  0  0  0
 35 44  2  0  0  0
 35 45  1  0  0  0
 35 68  1  0  0  0
 36 56  1  0  0  0
 36111  1  0  0  0
 37 39  1  0  0  0
 37 47  1  0  0  0
 37 66  1  0  0  0
 37112  1  0  0  0
 38 43  2  0  0  0
 38 46  1  0  0  0
 38 47  1  0  0  0
 39 64  1  0  0  0
 39 67  2  0  0  0
 40 52  1  0  0  0
 40 53  2  0  0  0
 40 58  1  0  0  0
 41113  1  0  0  0
 41114  1  0  0  0
 41115  1  0  0  0
 41 48  1  0  0  0
 42 43  1  0  0  0
 42 66  1  0  0  0
 42116  1  0  0  0
 42117  1  0  0  0
 43 44  1  0  0  0
 44118  1  0  0  0
 45 46  2  0  0  0
 45119  1  0  0  0
 46120  1  0  0  0
 47121  1  0  0  0
 47122  1  0  0  0
 48 56  1  0  0  0
 48 65  1  0  0  0
 48123  1  0  0  0
 49 50  1  0  0  0
 49 53  1  0  0  0
 49 64  1  0  0  0
 49124  1  0  0  0
 50 51  1  0  0  0
 50125  1  0  0  0
 50126  1  0  0  0
 51 52  1  0  0  0
 51127  1  0  0  0
 51128  1  0  0  0
 52129  1  0  0  0
 52130  1  0  0  0
 53 54  1  0  0  0
 54 55  2  0  0  0
 54131  1  0  0  0
 55 57  1  0  0  0
 55132  1  0  0  0
 56 69  2  0  0  0
 57 58  2  0  0  0
 57133  1  0  0  0
 58134  1  0  0  0
 59 60  1  0  0  0
 59 61  1  0  0  0
 59 62  1  0  0  0
 60135  1  0  0  0
 60136  1  0  0  0
 60137  1  0  0  0
 61138  1  0  0  0
 61139  1  0  0  0
 61140  1  0  0  0
 62141  1  0  0  0
 62142  1  0  0  0
 62143  1  0  0  0
 63 65  1  0  0  0
 63144  1  0  0  0
 63145  1  0  0  0
 63146  1  0  0  0
 64147  1  0  0  0
 65148  1  0  0  0
 68 83  1  0  0  0
 71 72  2  0  0  0
 71 74  1  0  0  0
 71149  1  0  0  0
 72 73  1  0  0  0
 72 85  1  0  0  0
 73 75  2  0  0  0
 73 84  1  0  0  0
 74 76  2  0  0  0
 74 86  1  0  0  0
 75 76  1  0  0  0
 75 87  1  0  0  0
 76 89  1  0  0  0
 77 78  1  0  0  0
 77 79  1  0  0  0
 77150  1  0  0  0
 77151  1  0  0  0
 78 80  1  0  0  0
 78152  1  0  0  0
 78153  1  0  0  0
 79 86  1  0  0  0
 79154  1  0  0  0
 79155  1  0  0  0
 80 86  1  0  0  0
 80156  1  0  0  0
 80157  1  0  0  0
 81 83  1  0  0  0
 81 88  1  0  0  0
 81158  1  0  0  0
 81159  1  0  0  0
 82 83  1  0  0  0
 82 88  1  0  0  0
 82160  1  0  0  0
 82161  1  0  0  0
 83162  1  0  0  0
 84163  1  0  0  0
 84164  1  0  0  0
 84165  1  0  0  0
 85166  1  0  0  0
 85167  1  0  0  0
 85 88  1  0  0  0
 87168  1  0  0  0
 88169  1  0  0  0
M  CHG  1  88   1
M  ISO  4   1 100  68 101  83 101  87 100
M  END
> <chiral flag>
0

> <version>
0

> <s_m_source_file>
/data/baiqing/PycharmProjects/Reinvent-master-3.2/result/LINK_invent/BTK/process_docking_weight1_custom_product_contain_oxygen_bond_distance_aromatic_linkinvent_7_9_3/rearranged_h_0027.sdf

> <i_m_source_file_index>
86

> <r_mmod_Potential_Energy-OPLS-2005>
209.662826538086

> <r_mmod_Stretch_Energy-OPLS-2005>
174.966323852539

> <r_mmod_Bend_Energy-OPLS-2005>
266.175720214844

> <r_mmod_Torsional_Energy-OPLS-2005>
289.824737548828

> <r_mmod_Improper_Torsional_Energy-OPLS-2005>
5.73371171951294

> <r_mmod_Van_der_Waal_Energy-OPLS-2005>
143.822418212891

> <r_mmod_Electrostatic_Energy-OPLS-2005>
-272.802185058594

> <r_mmod_Solvation_Energy-OPLS-2005>
-521.185791015625

> <b_mmod_Minimization_Converged-OPLS-2005>
0

> <r_mmod_RMS_Derivative-OPLS-2005>
1.41437149047852

$$$$
87
                    3D
 Structure written by MMmdl.
156165  0  0  1  0            999 V2000
  -30.6161  -14.6369   20.5233 C   0  0  0  0  0  0
  -30.4438  -12.3979   19.4507 C   0  0  0  0  0  0
  -29.5108  -12.5221   18.2251 C   0  0  0  0  0  0
  -28.0320  -12.3582   18.6339 C   0  0  0  0  0  0
  -27.6559  -13.2159   19.8720 C   0  0  2  0  0  0
  -28.6998  -13.0538   21.0005 C   0  0  0  0  0  0
  -25.2554  -13.8156   20.5689 C   0  0  0  0  0  0
  -24.1806  -13.0426   20.9159 C   0  0  0  0  0  0
  -24.6374  -11.6900   20.8709 C   0  0  0  0  0  0
  -23.9045  -10.4286   21.0387 C   0  0  0  0  0  0
  -24.3595   -9.4202   21.9168 C   0  0  0  0  0  0
  -23.6283   -8.2231   22.0744 C   0  0  0  0  0  0
  -22.4266   -8.0255   21.3532 C   0  0  0  0  0  0
  -21.9889   -9.0230   20.4636 C   0  0  0  0  0  0
  -22.7209  -10.2119   20.3044 C   0  0  0  0  0  0
  -21.6850   -6.0715   22.5275 C   0  0  0  0  0  0
  -21.4010   -6.5623   23.8205 C   0  0  0  0  0  0
  -21.3669   -5.6775   24.9167 C   0  0  0  0  0  0
  -21.6044   -4.3037   24.7221 C   0  0  0  0  0  0
  -21.8818   -3.8131   23.4343 C   0  0  0  0  0  0
  -21.9197   -4.6947   22.3400 C   0  0  0  0  0  0
  -22.7829  -13.5231   21.1844 C   0  0  0  0  0  0
  -22.1659   -4.2132   21.0974 F   0  0  0  0  0  0
  -21.5644   -3.4519   25.7732 F   0  0  0  0  0  0
  -30.0178  -13.4050   20.4442 N   0  0  0  0  0  0
  -26.2993  -12.9346   20.3353 N   0  0  0  0  0  0
  -25.9305  -11.6495   20.5746 N   0  0  0  0  0  0
  -22.0479  -12.8222   22.0407 N   0  0  0  0  0  0
  -25.4271  -15.1875   20.4169 N   0  0  0  0  0  0
  -31.7647  -14.8200   20.1125 O   0  0  0  0  0  0
  -21.6629   -6.8848   21.4230 O   0  0  0  0  0  0
  -22.3516  -14.5554   20.6724 O   0  0  0  0  0  0
  -24.6265  -31.8612   23.2048 C   0  0  0  0  0  0
  -25.9129  -32.4773   23.8371 C   0  0  1  0  0  0
  -27.2236  -27.3241   20.1244 C   0  0  0  0  0  0
  -25.5951  -33.8572   24.2306 N   0  0  0  0  0  0
  -23.4180  -30.4869   21.5461 C   0  0  2  0  0  0
  -24.8673  -28.9402   20.1109 C   0  0  0  0  0  0
  -22.7461  -29.4657   22.4946 C   0  0  0  0  0  0
  -18.0276  -28.1373   22.8490 C   0  0  0  0  0  0
  -24.1494  -36.7294   23.2627 C   0  0  0  0  0  0
  -25.9594  -30.7918   21.3768 C   0  0  0  0  0  0
  -26.0349  -29.4184   20.7208 C   0  0  0  0  0  0
  -27.2177  -28.6225   20.7188 C   0  0  0  0  0  0
  -26.0414  -26.9032   19.4767 C   0  0  0  0  0  0
  -24.8720  -27.6873   19.4786 C   0  0  0  0  0  0
  -23.6339  -29.8193   20.1617 C   0  0  0  0  0  0
  -25.4109  -36.3076   24.0333 C   0  0  1  0  0  0
  -20.5877  -28.3700   23.1275 C   0  0  2  0  0  0
  -20.6776  -26.9433   22.5397 C   0  0  0  0  0  0
  -19.5753  -26.6388   21.5204 C   0  0  0  0  0  0
  -18.1930  -26.7915   22.1614 C   0  0  0  0  0  0
  -19.1527  -28.8852   23.2878 C   0  0  0  0  0  0
  -18.9450  -30.1443   23.8903 C   0  0  0  0  0  0
  -17.6454  -30.6593   24.0553 C   0  0  0  0  0  0
  -25.9051  -34.9448   23.5118 C   0  0  0  0  0  0
  -16.5345  -29.9094   23.6319 C   0  0  0  0  0  0
  -16.7262  -28.6497   23.0372 C   0  0  0  0  0  0
  -26.4517  -31.6561   25.0732 C   0  0  0  0  0  0
  -25.3743  -31.3682   26.1455 C   0  0  0  0  0  0
  -27.0345  -30.2974   24.6187 C   0  0  0  0  0  0
  -27.6098  -32.4283   25.7479 C   0  0  0  0  0  0
  -27.5587  -37.1793   24.8460 C   0  0  0  0  0  0
  -21.4179  -29.3061   22.3683 N   0  0  0  0  0  0
  -26.4288  -37.3778   23.9417 N   0  0  0  0  0  0
  -24.6858  -31.0641   22.0985 N   0  0  0  0  0  0
  -23.4194  -28.8191   23.3028 O   0  0  0  0  0  0
  -28.3311  -26.4653   20.1539 O   0  0  0  0  0  0
  -26.5626  -34.8923   22.4687 O   0  0  0  0  0  0
  -23.5440  -32.1429   23.7390 O   0  0  0  0  0  0
  -30.8748  -19.3107   20.2935 C   0  0  0  0  0  0
  -30.9579  -17.8884   20.4016 C   0  0  0  0  0  0
  -29.6793  -20.0483   20.5527 C   0  0  0  0  0  0
  -29.8394  -17.1116   20.7991 C   0  0  0  0  0  0
  -28.5646  -19.2599   20.9599 C   0  0  0  0  0  0
  -28.6528  -17.8395   21.0866 C   0  0  0  0  0  0
  -30.4039  -23.7678   20.5620 C   0  0  0  0  0  0
  -30.8397  -22.3056   20.3093 C   0  0  0  0  0  0
  -28.4597  -22.3949   20.4552 C   0  0  0  0  0  0
  -28.9469  -23.8526   20.0827 C   0  0  1  0  0  0
  -28.0945  -25.0807   20.6359 C   0  0  0  0  0  0
  -29.6350  -21.4880   20.4167 N   0  0  0  0  0  0
  -29.8054  -15.6558   20.9488 N   0  0  0  0  0  0
  -27.3828  -19.8581   21.2533 F   0  0  0  0  0  0
  -27.5581  -17.1513   21.4921 F   0  0  0  0  0  0
  -31.4841  -12.5336   19.1489 H   0  0  0  0  0  0
  -30.3848  -11.3970   19.8788 H   0  0  0  0  0  0
  -29.7767  -11.7781   17.4723 H   0  0  0  0  0  0
  -29.6534  -13.4974   17.7554 H   0  0  0  0  0  0
  -27.8641  -11.3027   18.8547 H   0  0  0  0  0  0
  -27.3802  -12.6015   17.7939 H   0  0  0  0  0  0
  -27.6779  -14.2558   19.5460 H   0  0  0  0  0  0
  -28.7090  -12.0273   21.3726 H   0  0  0  0  0  0
  -28.4389  -13.6709   21.8614 H   0  0  0  0  0  0
  -25.2733   -9.5687   22.4741 H   0  0  0  0  0  0
  -23.9988   -7.4623   22.7466 H   0  0  0  0  0  0
  -21.0811   -8.8744   19.8948 H   0  0  0  0  0  0
  -22.3649  -10.9651   19.6152 H   0  0  0  0  0  0
  -21.1988   -7.6134   23.9688 H   0  0  0  0  0  0
  -21.1509   -6.0514   25.9067 H   0  0  0  0  0  0
  -22.0601   -2.7596   23.2836 H   0  0  0  0  0  0
  -22.4087  -11.9878   22.4786 H   0  0  0  0  0  0
  -21.1111  -13.1268   22.2646 H   0  0  0  0  0  0
  -24.6707  -15.8469   20.5629 H   0  0  0  0  0  0
  -26.3013  -15.6402   20.1864 H   0  0  0  0  0  0
  -26.7189  -32.5464   23.1117 H   0  0  0  0  0  0
  -25.0110  -33.9713   25.0463 H   0  0  0  0  0  0
  -22.7089  -31.3065   21.4031 H   0  0  0  0  0  0
  -23.3766  -35.9617   23.3273 H   0  0  0  0  0  0
  -24.3593  -36.8927   22.2041 H   0  0  0  0  0  0
  -23.7253  -37.6492   23.6667 H   0  0  0  0  0  0
  -26.0914  -31.5530   20.6071 H   0  0  0  0  0  0
  -26.8391  -30.8418   22.0065 H   0  0  0  0  0  0
  -28.1113  -28.9829   21.2093 H   0  0  0  0  0  0
  -26.0106  -25.9490   18.9695 H   0  0  0  0  0  0
  -23.9799  -27.3224   18.9892 H   0  0  0  0  0  0
  -23.7487  -30.5952   19.4039 H   0  0  0  0  0  0
  -22.7545  -29.2448   19.8635 H   0  0  0  0  0  0
  -25.1288  -36.1904   25.0823 H   0  0  0  0  0  0
  -20.9964  -28.3284   24.1398 H   0  0  0  0  0  0
  -20.5674  -26.2330   23.3602 H   0  0  0  0  0  0
  -21.6647  -26.7480   22.1193 H   0  0  0  0  0  0
  -19.6931  -25.6293   21.1251 H   0  0  0  0  0  0
  -19.6690  -27.3186   20.6722 H   0  0  0  0  0  0
  -17.4210  -26.6660   21.4005 H   0  0  0  0  0  0
  -18.0360  -26.0043   22.9000 H   0  0  0  0  0  0
  -19.7924  -30.7252   24.2300 H   0  0  0  0  0  0
  -17.5015  -31.6270   24.5152 H   0  0  0  0  0  0
  -15.5348  -30.3002   23.7637 H   0  0  0  0  0  0
  -15.8654  -28.0802   22.7117 H   0  0  0  0  0  0
  -24.5942  -30.7015   25.7773 H   0  0  0  0  0  0
  -24.8909  -32.2830   26.4883 H   0  0  0  0  0  0
  -25.8070  -30.8853   27.0227 H   0  0  0  0  0  0
  -26.2908  -29.6719   24.1248 H   0  0  0  0  0  0
  -27.4053  -29.7244   25.4695 H   0  0  0  0  0  0
  -27.8785  -30.4221   23.9403 H   0  0  0  0  0  0
  -27.2740  -33.3592   26.2058 H   0  0  0  0  0  0
  -28.3899  -32.6815   25.0287 H   0  0  0  0  0  0
  -28.0789  -31.8398   26.5375 H   0  0  0  0  0  0
  -28.2577  -38.0120   24.7560 H   0  0  0  0  0  0
  -28.1107  -36.2658   24.6207 H   0  0  0  0  0  0
  -27.2331  -37.1350   25.8869 H   0  0  0  0  0  0
  -20.9379  -29.8736   21.6830 H   0  0  0  0  0  0
  -26.0167  -38.2855   24.1413 H   0  0  0  0  0  0
  -31.7684  -19.8353   19.9894 H   0  0  0  0  0  0
  -31.8990  -17.4088   20.1750 H   0  0  0  0  0  0
  -31.0543  -24.4890   20.0662 H   0  0  0  0  0  0
  -30.4491  -23.9743   21.6316 H   0  0  0  0  0  0
  -31.6059  -21.9961   21.0237 H   0  0  0  0  0  0
  -31.2554  -22.1982   19.3063 H   0  0  0  0  0  0
  -27.6824  -22.0568   19.7673 H   0  0  0  0  0  0
  -28.0287  -22.3868   21.4578 H   0  0  0  0  0  0
  -28.9540  -23.9182   18.9932 H   0  0  0  0  0  0
  -28.2215  -25.1083   21.7180 H   0  0  0  0  0  0
  -27.0502  -24.8010   20.5052 H   0  0  0  0  0  0
  -28.9212  -15.3147   21.2935 H   0  0  0  0  0  0
  1 25  1  0  0  0
  1 30  2  0  0  0
  1 83  1  0  0  0
  2  3  1  0  0  0
  2 25  1  0  0  0
  2 86  1  0  0  0
  2 87  1  0  0  0
  3  4  1  0  0  0
  3 88  1  0  0  0
  3 89  1  0  0  0
  4  5  1  0  0  0
  4 90  1  0  0  0
  4 91  1  0  0  0
  5  6  1  0  0  0
  5 26  1  0  0  0
  5 92  1  0  0  0
  6 25  1  0  0  0
  6 93  1  0  0  0
  6 94  1  0  0  0
  7  8  2  0  0  0
  7 26  1  0  0  0
  7 29  1  0  0  0
  8  9  1  0  0  0
  8 22  1  0  0  0
  9 10  1  0  0  0
  9 27  2  0  0  0
 10 11  2  0  0  0
 10 15  1  0  0  0
 11 12  1  0  0  0
 11 95  1  0  0  0
 12 13  2  0  0  0
 12 96  1  0  0  0
 13 14  1  0  0  0
 13 31  1  0  0  0
 14 15  2  0  0  0
 14 97  1  0  0  0
 15 98  1  0  0  0
 16 17  2  0  0  0
 16 21  1  0  0  0
 16 31  1  0  0  0
 17 18  1  0  0  0
 17 99  1  0  0  0
 18 19  2  0  0  0
 18100  1  0  0  0
 19 20  1  0  0  0
 19 24  1  0  0  0
 20 21  2  0  0  0
 20101  1  0  0  0
 21 23  1  0  0  0
 22 28  1  0  0  0
 22 32  2  0  0  0
 26 27  1  0  0  0
 28102  1  0  0  0
 28103  1  0  0  0
 29104  1  0  0  0
 29105  1  0  0  0
 33 34  1  0  0  0
 33 66  1  0  0  0
 33 70  2  0  0  0
 34 36  1  0  0  0
 34 59  1  0  0  0
 34106  1  0  0  0
 35 44  2  0  0  0
 35 45  1  0  0  0
 35 68  1  0  0  0
 36 56  1  0  0  0
 36107  1  0  0  0
 37 39  1  0  0  0
 37 47  1  0  0  0
 37 66  1  0  0  0
 37108  1  0  0  0
 38 43  2  0  0  0
 38 46  1  0  0  0
 38 47  1  0  0  0
 39 64  1  0  0  0
 39 67  2  0  0  0
 40 52  1  0  0  0
 40 53  2  0  0  0
 40 58  1  0  0  0
 41109  1  0  0  0
 41110  1  0  0  0
 41111  1  0  0  0
 41 48  1  0  0  0
 42 43  1  0  0  0
 42 66  1  0  0  0
 42112  1  0  0  0
 42113  1  0  0  0
 43 44  1  0  0  0
 44114  1  0  0  0
 45 46  2  0  0  0
 45115  1  0  0  0
 46116  1  0  0  0
 47117  1  0  0  0
 47118  1  0  0  0
 48 56  1  0  0  0
 48 65  1  0  0  0
 48119  1  0  0  0
 49 50  1  0  0  0
 49 53  1  0  0  0
 49 64  1  0  0  0
 49120  1  0  0  0
 50 51  1  0  0  0
 50121  1  0  0  0
 50122  1  0  0  0
 51 52  1  0  0  0
 51123  1  0  0  0
 51124  1  0  0  0
 52125  1  0  0  0
 52126  1  0  0  0
 53 54  1  0  0  0
 54 55  2  0  0  0
 54127  1  0  0  0
 55 57  1  0  0  0
 55128  1  0  0  0
 56 69  2  0  0  0
 57 58  2  0  0  0
 57129  1  0  0  0
 58130  1  0  0  0
 59 60  1  0  0  0
 59 61  1  0  0  0
 59 62  1  0  0  0
 60131  1  0  0  0
 60132  1  0  0  0
 60133  1  0  0  0
 61134  1  0  0  0
 61135  1  0  0  0
 61136  1  0  0  0
 62137  1  0  0  0
 62138  1  0  0  0
 62139  1  0  0  0
 63 65  1  0  0  0
 63140  1  0  0  0
 63141  1  0  0  0
 63142  1  0  0  0
 64143  1  0  0  0
 65144  1  0  0  0
 68 81  1  0  0  0
 71 72  2  0  0  0
 71 73  1  0  0  0
 71145  1  0  0  0
 72 74  1  0  0  0
 72146  1  0  0  0
 73 75  2  0  0  0
 73 82  1  0  0  0
 74 76  2  0  0  0
 74 83  1  0  0  0
 75 76  1  0  0  0
 75 84  1  0  0  0
 76 85  1  0  0  0
 77 78  1  0  0  0
 77 80  1  0  0  0
 77147  1  0  0  0
 77148  1  0  0  0
 78 82  1  0  0  0
 78149  1  0  0  0
 78150  1  0  0  0
 79 80  1  0  0  0
 79 82  1  0  0  0
 79151  1  0  0  0
 79152  1  0  0  0
 80 81  1  0  0  0
 80153  1  0  0  0
 81154  1  0  0  0
 81155  1  0  0  0
 83156  1  0  0  0
M  ISO  4   1 100  68 101  81 101  83 100
M  END
> <chiral flag>
0

> <version>
0

> <s_m_source_file>
/data/baiqing/PycharmProjects/Reinvent-master-3.2/result/LINK_invent/BTK/process_docking_weight1_custom_product_contain_oxygen_bond_distance_aromatic_linkinvent_7_9_3/rearranged_h_0027.sdf

> <i_m_source_file_index>
87

> <r_mmod_Potential_Energy-OPLS-2005>
164.914123535156

> <r_mmod_Stretch_Energy-OPLS-2005>
76.8735275268555

> <r_mmod_Bend_Energy-OPLS-2005>
184.144058227539

> <r_mmod_Torsional_Energy-OPLS-2005>
272.499908447266

> <r_mmod_Improper_Torsional_Energy-OPLS-2005>
3.66935539245605

> <r_mmod_Van_der_Waal_Energy-OPLS-2005>
142.008483886719

> <r_mmod_Electrostatic_Energy-OPLS-2005>
-348.227722167969

> <r_mmod_Solvation_Energy-OPLS-2005>
-213.095611572266

> <b_mmod_Minimization_Converged-OPLS-2005>
0

> <r_mmod_RMS_Derivative-OPLS-2005>
2.37468767166138

$$$$
88
                    3D
 Structure written by MMmdl.
156165  0  0  1  0            999 V2000
  -30.4875  -15.0045   20.4280 C   0  0  0  0  0  0
  -30.4469  -12.6234   19.5111 C   0  0  0  0  0  0
  -29.5311  -12.5684   18.2639 C   0  0  0  0  0  0
  -28.0623  -12.3416   18.6713 C   0  0  0  0  0  0
  -27.6334  -13.2561   19.8483 C   0  0  2  0  0  0
  -28.6739  -13.2703   20.9891 C   0  0  0  0  0  0
  -25.2458  -13.8225   20.5710 C   0  0  0  0  0  0
  -24.1774  -13.0443   20.9212 C   0  0  0  0  0  0
  -24.6404  -11.6929   20.8735 C   0  0  0  0  0  0
  -23.9091  -10.4292   21.0387 C   0  0  0  0  0  0
  -24.3626   -9.4209   21.9181 C   0  0  0  0  0  0
  -23.6289   -8.2247   22.0764 C   0  0  0  0  0  0
  -22.4261   -8.0292   21.3562 C   0  0  0  0  0  0
  -21.9905   -9.0271   20.4664 C   0  0  0  0  0  0
  -22.7245  -10.2141   20.3058 C   0  0  0  0  0  0
  -21.6854   -6.0728   22.5273 C   0  0  0  0  0  0
  -21.4031   -6.5634   23.8209 C   0  0  0  0  0  0
  -21.3662   -5.6787   24.9174 C   0  0  0  0  0  0
  -21.6036   -4.3050   24.7223 C   0  0  0  0  0  0
  -21.8817   -3.8141   23.4349 C   0  0  0  0  0  0
  -21.9197   -4.6954   22.3405 C   0  0  0  0  0  0
  -22.7791  -13.5218   21.1865 C   0  0  0  0  0  0
  -22.1658   -4.2145   21.0980 F   0  0  0  0  0  0
  -21.5622   -3.4533   25.7738 F   0  0  0  0  0  0
  -29.9461  -13.7128   20.4041 N   0  0  0  0  0  0
  -26.2908  -12.9477   20.3270 N   0  0  0  0  0  0
  -25.9344  -11.6596   20.5730 N   0  0  0  0  0  0
  -22.0446  -12.8231   22.0440 N   0  0  0  0  0  0
  -25.4076  -15.1950   20.4170 N   0  0  0  0  0  0
  -31.6759  -15.1113   20.1053 O   0  0  0  0  0  0
  -21.6640   -6.8876   21.4238 O   0  0  0  0  0  0
  -22.3470  -14.5515   20.6701 O   0  0  0  0  0  0
  -24.6459  -31.8392   23.1822 C   0  0  0  0  0  0
  -25.9209  -32.4666   23.8251 C   0  0  1  0  0  0
  -27.2183  -27.0816   20.1849 C   0  0  0  0  0  0
  -25.5926  -33.8471   24.2155 N   0  0  0  0  0  0
  -23.4530  -30.4553   21.5281 C   0  0  2  0  0  0
  -24.9070  -28.8699   20.1122 C   0  0  0  0  0  0
  -22.7581  -29.4527   22.4832 C   0  0  0  0  0  0
  -18.0310  -28.1401   22.8475 C   0  0  0  0  0  0
  -24.1489  -36.7243   23.2645 C   0  0  0  0  0  0
  -26.0111  -30.6984   21.3887 C   0  0  0  0  0  0
  -26.0841  -29.3021   20.7364 C   0  0  0  0  0  0
  -27.2395  -28.4263   20.7520 C   0  0  0  0  0  0
  -26.0198  -26.7638   19.5108 C   0  0  0  0  0  0
  -24.8929  -27.6167   19.4792 C   0  0  0  0  0  0
  -23.6842  -29.7765   20.1508 C   0  0  0  0  0  0
  -25.4124  -36.3006   24.0316 C   0  0  1  0  0  0
  -20.5921  -28.3733   23.1226 C   0  0  2  0  0  0
  -20.6786  -26.9419   22.5415 C   0  0  0  0  0  0
  -19.5764  -26.6383   21.5213 C   0  0  0  0  0  0
  -18.1949  -26.7942   22.1615 C   0  0  0  0  0  0
  -19.1565  -28.8885   23.2842 C   0  0  0  0  0  0
  -18.9482  -30.1478   23.8870 C   0  0  0  0  0  0
  -17.6478  -30.6586   24.0565 C   0  0  0  0  0  0
  -25.9078  -34.9389   23.5049 C   0  0  0  0  0  0
  -16.5370  -29.9081   23.6336 C   0  0  0  0  0  0
  -16.7299  -28.6505   23.0353 C   0  0  0  0  0  0
  -26.4506  -31.6556   25.0721 C   0  0  0  0  0  0
  -25.3670  -31.3781   26.1408 C   0  0  0  0  0  0
  -27.0382  -30.2945   24.6343 C   0  0  0  0  0  0
  -27.6040  -32.4316   25.7502 C   0  0  0  0  0  0
  -27.5575  -37.1772   24.8460 C   0  0  0  0  0  0
  -21.4271  -29.3041   22.3575 N   0  0  0  0  0  0
  -26.4281  -37.3733   23.9409 N   0  0  0  0  0  0
  -24.7232  -31.0209   22.0872 N   0  0  0  0  0  0
  -23.4199  -28.8076   23.3005 O   0  0  0  0  0  0
  -28.2623  -26.0717   20.2661 O   0  0  0  0  0  0
  -26.5683  -34.8895   22.4643 O   0  0  0  0  0  0
  -23.5564  -32.1287   23.7005 O   0  0  0  0  0  0
  -29.4564  -20.0608   21.4862 C   0  0  0  0  0  0
  -29.7354  -18.6273   21.5511 C   0  0  0  0  0  0
  -28.8831  -19.8695   19.2536 C   0  0  0  0  0  0
  -29.1525  -18.4010   19.2858 C   0  0  0  0  0  0
  -28.9859  -20.8217   20.3527 C   0  0  0  0  0  0
  -29.6093  -17.6833   20.4711 C   0  0  0  0  0  0
  -28.6910  -23.4488   21.3460 C   0  0  0  0  0  0
  -28.5124  -23.3990   19.2841 C   0  0  0  0  0  0
  -27.9984  -24.5072   20.3330 C   0  0  0  0  0  0
  -28.3787  -20.5158   17.9653 C   0  0  0  0  0  0
  -28.8815  -17.5930   17.9975 C   0  0  0  0  0  0
  -28.5595  -22.3346   20.3481 N   0  0  0  0  0  0
  -29.6464  -16.1367   20.6984 N   0  0  0  0  0  0
  -27.6084  -17.7320   17.6212 F   0  0  0  0  0  0
  -29.6814  -18.0163   17.0187 F   0  0  0  0  0  0
  -29.0857  -16.2826   18.0972 F   0  0  0  0  0  0
  -31.4813  -12.7919   19.2073 H   0  0  0  0  0  0
  -30.4452  -11.6641   20.0335 H   0  0  0  0  0  0
  -29.8610  -11.7856   17.5799 H   0  0  0  0  0  0
  -29.6131  -13.5076   17.7137 H   0  0  0  0  0  0
  -27.9538  -11.2958   18.9588 H   0  0  0  0  0  0
  -27.4050  -12.4952   17.8140 H   0  0  0  0  0  0
  -27.5991  -14.2641   19.4339 H   0  0  0  0  0  0
  -28.7735  -12.2850   21.4461 H   0  0  0  0  0  0
  -28.3658  -13.9456   21.7896 H   0  0  0  0  0  0
  -25.2779   -9.5677   22.4745 H   0  0  0  0  0  0
  -24.0004   -7.4640   22.7480 H   0  0  0  0  0  0
  -21.0832   -8.8795   19.8965 H   0  0  0  0  0  0
  -22.3715  -10.9678   19.6163 H   0  0  0  0  0  0
  -21.2031   -7.6146   23.9707 H   0  0  0  0  0  0
  -21.1484   -6.0523   25.9077 H   0  0  0  0  0  0
  -22.0592   -2.7601   23.2838 H   0  0  0  0  0  0
  -22.4061  -11.9907   22.4842 H   0  0  0  0  0  0
  -21.1071  -13.1259   22.2649 H   0  0  0  0  0  0
  -24.6221  -15.8302   20.5036 H   0  0  0  0  0  0
  -26.2410  -15.6439   20.0631 H   0  0  0  0  0  0
  -26.7276  -32.5260   23.0979 H   0  0  0  0  0  0
  -25.0012  -33.9586   25.0255 H   0  0  0  0  0  0
  -22.7578  -31.2820   21.3673 H   0  0  0  0  0  0
  -23.3754  -35.9571   23.3291 H   0  0  0  0  0  0
  -24.3562  -36.8893   22.2060 H   0  0  0  0  0  0
  -23.7247  -37.6436   23.6698 H   0  0  0  0  0  0
  -26.1706  -31.4461   20.6102 H   0  0  0  0  0  0
  -26.8772  -30.7547   22.0368 H   0  0  0  0  0  0
  -28.1312  -28.7529   21.2670 H   0  0  0  0  0  0
  -25.9288  -25.8052   19.0210 H   0  0  0  0  0  0
  -23.9970  -27.2813   18.9748 H   0  0  0  0  0  0
  -23.8246  -30.5462   19.3917 H   0  0  0  0  0  0
  -22.7985  -29.2203   19.8392 H   0  0  0  0  0  0
  -25.1305  -36.1834   25.0811 H   0  0  0  0  0  0
  -21.0030  -28.3334   24.1343 H   0  0  0  0  0  0
  -20.5651  -26.2341   23.3646 H   0  0  0  0  0  0
  -21.6657  -26.7406   22.1237 H   0  0  0  0  0  0
  -19.6926  -25.6284   21.1263 H   0  0  0  0  0  0
  -19.6708  -27.3178   20.6729 H   0  0  0  0  0  0
  -17.4216  -26.6691   21.4018 H   0  0  0  0  0  0
  -18.0344  -26.0086   22.9010 H   0  0  0  0  0  0
  -19.7961  -30.7303   24.2221 H   0  0  0  0  0  0
  -17.5036  -31.6263   24.5174 H   0  0  0  0  0  0
  -15.5370  -30.2973   23.7680 H   0  0  0  0  0  0
  -15.8707  -28.0815   22.7085 H   0  0  0  0  0  0
  -24.5844  -30.7123   25.7736 H   0  0  0  0  0  0
  -24.8862  -32.2981   26.4753 H   0  0  0  0  0  0
  -25.7926  -30.9010   27.0246 H   0  0  0  0  0  0
  -26.3029  -29.6652   24.1312 H   0  0  0  0  0  0
  -27.3937  -29.7257   25.4945 H   0  0  0  0  0  0
  -27.8956  -30.4163   23.9718 H   0  0  0  0  0  0
  -27.2645  -33.3634   26.2036 H   0  0  0  0  0  0
  -28.3882  -32.6832   25.0349 H   0  0  0  0  0  0
  -28.0681  -31.8469   26.5453 H   0  0  0  0  0  0
  -28.2578  -38.0075   24.7496 H   0  0  0  0  0  0
  -28.1071  -36.2603   24.6282 H   0  0  0  0  0  0
  -27.2296  -37.1445   25.8862 H   0  0  0  0  0  0
  -20.9485  -29.8731   21.6731 H   0  0  0  0  0  0
  -26.0135  -38.2797   24.1403 H   0  0  0  0  0  0
  -29.5765  -20.6065   22.4115 H   0  0  0  0  0  0
  -30.0207  -18.2369   22.5187 H   0  0  0  0  0  0
  -28.1169  -23.2830   22.2575 H   0  0  0  0  0  0
  -29.7324  -23.6788   21.5749 H   0  0  0  0  0  0
  -29.5040  -23.6166   18.8848 H   0  0  0  0  0  0
  -27.7952  -23.2127   18.4843 H   0  0  0  0  0  0
  -26.9224  -24.3787   20.4542 H   0  0  0  0  0  0
  -28.2883  -19.8737   17.0973 H   0  0  0  0  0  0
  -29.0587  -21.3119   17.6662 H   0  0  0  0  0  0
  -27.3921  -20.9475   18.1404 H   0  0  0  0  0  0
  -28.7553  -15.8009   21.0309 H   0  0  0  0  0  0
  1 25  1  0  0  0
  1 30  2  0  0  0
  1 83  1  0  0  0
  2  3  1  0  0  0
  2 25  1  0  0  0
  2 87  1  0  0  0
  2 88  1  0  0  0
  3  4  1  0  0  0
  3 89  1  0  0  0
  3 90  1  0  0  0
  4  5  1  0  0  0
  4 91  1  0  0  0
  4 92  1  0  0  0
  5  6  1  0  0  0
  5 26  1  0  0  0
  5 93  1  0  0  0
  6 25  1  0  0  0
  6 94  1  0  0  0
  6 95  1  0  0  0
  7  8  2  0  0  0
  7 26  1  0  0  0
  7 29  1  0  0  0
  8  9  1  0  0  0
  8 22  1  0  0  0
  9 10  1  0  0  0
  9 27  2  0  0  0
 10 11  2  0  0  0
 10 15  1  0  0  0
 11 12  1  0  0  0
 11 96  1  0  0  0
 12 13  2  0  0  0
 12 97  1  0  0  0
 13 14  1  0  0  0
 13 31  1  0  0  0
 14 15  2  0  0  0
 14 98  1  0  0  0
 15 99  1  0  0  0
 16 17  2  0  0  0
 16 21  1  0  0  0
 16 31  1  0  0  0
 17 18  1  0  0  0
 17100  1  0  0  0
 18 19  2  0  0  0
 18101  1  0  0  0
 19 20  1  0  0  0
 19 24  1  0  0  0
 20 21  2  0  0  0
 20102  1  0  0  0
 21 23  1  0  0  0
 22 28  1  0  0  0
 22 32  2  0  0  0
 26 27  1  0  0  0
 28103  1  0  0  0
 28104  1  0  0  0
 29105  1  0  0  0
 29106  1  0  0  0
 33 34  1  0  0  0
 33 66  1  0  0  0
 33 70  2  0  0  0
 34 36  1  0  0  0
 34 59  1  0  0  0
 34107  1  0  0  0
 35 44  2  0  0  0
 35 45  1  0  0  0
 35 68  1  0  0  0
 36 56  1  0  0  0
 36108  1  0  0  0
 37 39  1  0  0  0
 37 47  1  0  0  0
 37 66  1  0  0  0
 37109  1  0  0  0
 38 43  2  0  0  0
 38 46  1  0  0  0
 38 47  1  0  0  0
 39 64  1  0  0  0
 39 67  2  0  0  0
 40 52  1  0  0  0
 40 53  2  0  0  0
 40 58  1  0  0  0
 41110  1  0  0  0
 41111  1  0  0  0
 41112  1  0  0  0
 41 48  1  0  0  0
 42 43  1  0  0  0
 42 66  1  0  0  0
 42113  1  0  0  0
 42114  1  0  0  0
 43 44  1  0  0  0
 44115  1  0  0  0
 45 46  2  0  0  0
 45116  1  0  0  0
 46117  1  0  0  0
 47118  1  0  0  0
 47119  1  0  0  0
 48 56  1  0  0  0
 48 65  1  0  0  0
 48120  1  0  0  0
 49 50  1  0  0  0
 49 53  1  0  0  0
 49 64  1  0  0  0
 49121  1  0  0  0
 50 51  1  0  0  0
 50122  1  0  0  0
 50123  1  0  0  0
 51 52  1  0  0  0
 51124  1  0  0  0
 51125  1  0  0  0
 52126  1  0  0  0
 52127  1  0  0  0
 53 54  1  0  0  0
 54 55  2  0  0  0
 54128  1  0  0  0
 55 57  1  0  0  0
 55129  1  0  0  0
 56 69  2  0  0  0
 57 58  2  0  0  0
 57130  1  0  0  0
 58131  1  0  0  0
 59 60  1  0  0  0
 59 61  1  0  0  0
 59 62  1  0  0  0
 60132  1  0  0  0
 60133  1  0  0  0
 60134  1  0  0  0
 61135  1  0  0  0
 61136  1  0  0  0
 61137  1  0  0  0
 62138  1  0  0  0
 62139  1  0  0  0
 62140  1  0  0  0
 63 65  1  0  0  0
 63141  1  0  0  0
 63142  1  0  0  0
 63143  1  0  0  0
 64144  1  0  0  0
 65145  1  0  0  0
 68 79  1  0  0  0
 71 72  2  0  0  0
 71 75  1  0  0  0
 71146  1  0  0  0
 72 76  1  0  0  0
 72147  1  0  0  0
 73 74  1  0  0  0
 73 75  2  0  0  0
 73 80  1  0  0  0
 74 76  2  0  0  0
 74 81  1  0  0  0
 75 82  1  0  0  0
 76 83  1  0  0  0
 77 79  1  0  0  0
 77 82  1  0  0  0
 77148  1  0  0  0
 77149  1  0  0  0
 78 79  1  0  0  0
 78 82  1  0  0  0
 78150  1  0  0  0
 78151  1  0  0  0
 79152  1  0  0  0
 80153  1  0  0  0
 80154  1  0  0  0
 80155  1  0  0  0
 81 84  1  0  0  0
 81 85  1  0  0  0
 81 86  1  0  0  0
 83156  1  0  0  0
M  ISO  4   1 100  68 101  79 101  83 100
M  END
> <chiral flag>
0

> <version>
0

> <s_m_source_file>
/data/baiqing/PycharmProjects/Reinvent-master-3.2/result/LINK_invent/BTK/process_docking_weight1_custom_product_contain_oxygen_bond_distance_aromatic_linkinvent_7_9_3/rearranged_h_0027.sdf

> <i_m_source_file_index>
88

> <r_mmod_Potential_Energy-OPLS-2005>
768.042419433594

> <r_mmod_Stretch_Energy-OPLS-2005>
287.773468017578

> <r_mmod_Bend_Energy-OPLS-2005>
376.957733154297

> <r_mmod_Torsional_Energy-OPLS-2005>
268.179779052734

> <r_mmod_Improper_Torsional_Energy-OPLS-2005>
8.89099311828613

> <r_mmod_Van_der_Waal_Energy-OPLS-2005>
144.543060302734

> <r_mmod_Electrostatic_Energy-OPLS-2005>
-332.131622314453

> <r_mmod_Solvation_Energy-OPLS-2005>
-225.30500793457

> <b_mmod_Minimization_Converged-OPLS-2005>
0

> <r_mmod_RMS_Derivative-OPLS-2005>
2.35733795166016

$$$$
89
                    3D
 Structure written by MMmdl.
160169  0  0  1  0            999 V2000
  -30.5205  -14.9484   20.4146 C   0  0  0  0  0  0
  -30.4444  -12.5902   19.4960 C   0  0  0  0  0  0
  -29.5284  -12.5393   18.2551 C   0  0  0  0  0  0
  -28.0548  -12.3285   18.6591 C   0  0  0  0  0  0
  -27.6286  -13.2504   19.8361 C   0  0  2  0  0  0
  -28.6750  -13.2556   20.9708 C   0  0  0  0  0  0
  -25.2446  -13.8214   20.5727 C   0  0  0  0  0  0
  -24.1781  -13.0452   20.9275 C   0  0  0  0  0  0
  -24.6388  -11.6930   20.8788 C   0  0  0  0  0  0
  -23.9077  -10.4303   21.0402 C   0  0  0  0  0  0
  -24.3629   -9.4220   21.9156 C   0  0  0  0  0  0
  -23.6308   -8.2244   22.0707 C   0  0  0  0  0  0
  -22.4279   -8.0265   21.3526 C   0  0  0  0  0  0
  -21.9943   -9.0228   20.4627 C   0  0  0  0  0  0
  -22.7257  -10.2117   20.3045 C   0  0  0  0  0  0
  -21.6850   -6.0751   22.5276 C   0  0  0  0  0  0
  -21.4005   -6.5648   23.8219 C   0  0  0  0  0  0
  -21.3674   -5.6806   24.9191 C   0  0  0  0  0  0
  -21.6078   -4.3061   24.7226 C   0  0  0  0  0  0
  -21.8816   -3.8152   23.4328 C   0  0  0  0  0  0
  -21.9194   -4.6982   22.3396 C   0  0  0  0  0  0
  -22.7801  -13.5202   21.1897 C   0  0  0  0  0  0
  -22.1652   -4.2183   21.0974 F   0  0  0  0  0  0
  -21.5623   -3.4526   25.7717 F   0  0  0  0  0  0
  -29.9464  -13.6824   20.3707 N   0  0  0  0  0  0
  -26.2875  -12.9471   20.3242 N   0  0  0  0  0  0
  -25.9333  -11.6591   20.5776 N   0  0  0  0  0  0
  -22.0427  -12.8206   22.0455 N   0  0  0  0  0  0
  -25.4153  -15.1959   20.4100 N   0  0  0  0  0  0
  -31.7362  -15.0335   20.2159 O   0  0  0  0  0  0
  -21.6645   -6.8866   21.4218 O   0  0  0  0  0  0
  -22.3520  -14.5509   20.6713 O   0  0  0  0  0  0
  -24.6383  -31.8435   23.1887 C   0  0  0  0  0  0
  -25.9169  -32.4691   23.8295 C   0  0  1  0  0  0
  -27.2214  -27.1628   20.1551 C   0  0  0  0  0  0
  -25.5928  -33.8494   24.2197 N   0  0  0  0  0  0
  -23.4425  -30.4609   21.5337 C   0  0  2  0  0  0
  -24.8934  -28.8927   20.1123 C   0  0  0  0  0  0
  -22.7564  -29.4538   22.4882 C   0  0  0  0  0  0
  -18.0316  -28.1377   22.8488 C   0  0  0  0  0  0
  -24.1482  -36.7251   23.2638 C   0  0  0  0  0  0
  -25.9959  -30.7210   21.3921 C   0  0  0  0  0  0
  -26.0683  -29.3391   20.7293 C   0  0  0  0  0  0
  -27.2337  -28.4906   20.7336 C   0  0  0  0  0  0
  -26.0224  -26.8086   19.4988 C   0  0  0  0  0  0
  -24.8830  -27.6395   19.4809 C   0  0  0  0  0  0
  -23.6656  -29.7851   20.1562 C   0  0  0  0  0  0
  -25.4125  -36.3020   24.0305 C   0  0  1  0  0  0
  -20.5919  -28.3683   23.1240 C   0  0  2  0  0  0
  -20.6792  -26.9386   22.5409 C   0  0  0  0  0  0
  -19.5771  -26.6356   21.5222 C   0  0  0  0  0  0
  -18.1942  -26.7920   22.1615 C   0  0  0  0  0  0
  -19.1560  -28.8855   23.2851 C   0  0  0  0  0  0
  -18.9477  -30.1459   23.8847 C   0  0  0  0  0  0
  -17.6469  -30.6565   24.0547 C   0  0  0  0  0  0
  -25.9071  -34.9400   23.5068 C   0  0  0  0  0  0
  -16.5363  -29.9033   23.6365 C   0  0  0  0  0  0
  -16.7299  -28.6465   23.0379 C   0  0  0  0  0  0
  -26.4508  -31.6573   25.0757 C   0  0  0  0  0  0
  -25.3693  -31.3792   26.1461 C   0  0  0  0  0  0
  -27.0394  -30.2953   24.6396 C   0  0  0  0  0  0
  -27.6010  -32.4394   25.7551 C   0  0  0  0  0  0
  -27.5580  -37.1788   24.8448 C   0  0  0  0  0  0
  -21.4266  -29.2995   22.3612 N   0  0  0  0  0  0
  -26.4293  -37.3734   23.9378 N   0  0  0  0  0  0
  -24.7104  -31.0323   22.0914 N   0  0  0  0  0  0
  -23.4212  -28.8094   23.3051 O   0  0  0  0  0  0
  -28.2854  -26.2024   20.2415 O   0  0  0  0  0  0
  -26.5647  -34.8897   22.4638 O   0  0  0  0  0  0
  -23.5506  -32.1301   23.7125 O   0  0  0  0  0  0
  -30.9569  -18.2434   18.6399 C   0  0  0  0  0  0
  -31.0783  -20.2570   17.3329 C   0  0  0  0  0  0
  -30.0725  -18.8143   19.5826 C   0  0  0  0  0  0
  -30.1703  -20.9410   18.1753 C   0  0  0  0  0  0
  -29.7196  -20.2873   19.3869 C   0  0  0  0  0  0
  -31.4878  -18.9508   17.5661 C   0  0  0  0  0  0
  -30.1540  -23.7289   16.3717 C   0  0  0  0  0  0
  -30.8014  -23.2627   17.6655 C   0  0  0  0  0  0
  -29.3631  -22.4278   16.3607 C   0  0  0  0  0  0
  -29.7732  -17.6730   20.7051 C   0  0  0  0  0  0
  -28.0383  -24.6829   20.0763 C   0  0  0  0  0  0
  -29.0528  -23.4596   20.5954 C   0  0  0  0  0  0
  -29.7399  -22.2597   17.7722 N   0  0  0  0  0  0
  -29.6856  -16.0986   20.4753 N   0  0  0  0  0  0
  -28.7150  -21.4849   20.4846 S   0  0  0  0  0  0
  -32.6427  -18.2033   16.5219 Cl  0  0  0  0  0  0
  -31.4809  -12.7604   19.1998 H   0  0  0  0  0  0
  -30.4407  -11.6362   20.0222 H   0  0  0  0  0  0
  -29.8538  -11.7504   17.5758 H   0  0  0  0  0  0
  -29.6305  -13.4747   17.7038 H   0  0  0  0  0  0
  -27.9431  -11.2846   18.9504 H   0  0  0  0  0  0
  -27.4027  -12.4780   17.7973 H   0  0  0  0  0  0
  -27.5867  -14.2621   19.4216 H   0  0  0  0  0  0
  -28.7670  -12.2676   21.4286 H   0  0  0  0  0  0
  -28.3798  -13.9342   21.7704 H   0  0  0  0  0  0
  -25.2750   -9.5738   22.4749 H   0  0  0  0  0  0
  -24.0057   -7.4657   22.7431 H   0  0  0  0  0  0
  -21.0863   -8.8724   19.8918 H   0  0  0  0  0  0
  -22.3671  -10.9646   19.6167 H   0  0  0  0  0  0
  -21.1979   -7.6150   23.9749 H   0  0  0  0  0  0
  -21.1507   -6.0508   25.9104 H   0  0  0  0  0  0
  -22.0582   -2.7619   23.2821 H   0  0  0  0  0  0
  -22.4029  -11.9916   22.4959 H   0  0  0  0  0  0
  -21.1016  -13.1208   22.2512 H   0  0  0  0  0  0
  -24.6425  -15.8454   20.4981 H   0  0  0  0  0  0
  -26.2483  -15.6254   20.0277 H   0  0  0  0  0  0
  -26.7236  -32.5298   23.1028 H   0  0  0  0  0  0
  -25.0086  -33.9630   25.0355 H   0  0  0  0  0  0
  -22.7432  -31.2828   21.3788 H   0  0  0  0  0  0
  -23.3763  -35.9566   23.3285 H   0  0  0  0  0  0
  -24.3557  -36.8915   22.2052 H   0  0  0  0  0  0
  -23.7233  -37.6436   23.6708 H   0  0  0  0  0  0
  -26.1659  -31.4795   20.6264 H   0  0  0  0  0  0
  -26.8592  -30.7564   22.0464 H   0  0  0  0  0  0
  -28.1267  -28.8259   21.2422 H   0  0  0  0  0  0
  -25.9326  -25.8456   19.0146 H   0  0  0  0  0  0
  -23.9852  -27.2908   18.9886 H   0  0  0  0  0  0
  -23.7839  -30.5491   19.3881 H   0  0  0  0  0  0
  -22.7880  -29.2062   19.8634 H   0  0  0  0  0  0
  -25.1323  -36.1858   25.0798 H   0  0  0  0  0  0
  -21.0009  -28.3261   24.1359 H   0  0  0  0  0  0
  -20.5690  -26.2283   23.3613 H   0  0  0  0  0  0
  -21.6659  -26.7389   22.1197 H   0  0  0  0  0  0
  -19.6921  -25.6257   21.1253 H   0  0  0  0  0  0
  -19.6731  -27.3164   20.6751 H   0  0  0  0  0  0
  -17.4231  -26.6703   21.3986 H   0  0  0  0  0  0
  -18.0311  -26.0041   22.8985 H   0  0  0  0  0  0
  -19.7941  -30.7317   24.2158 H   0  0  0  0  0  0
  -17.5004  -31.6253   24.5139 H   0  0  0  0  0  0
  -15.5342  -30.2913   23.7712 H   0  0  0  0  0  0
  -15.8705  -28.0751   22.7132 H   0  0  0  0  0  0
  -24.5809  -30.7226   25.7760 H   0  0  0  0  0  0
  -24.8978  -32.3009   26.4884 H   0  0  0  0  0  0
  -25.7952  -30.8923   27.0247 H   0  0  0  0  0  0
  -26.3039  -29.6675   24.1353 H   0  0  0  0  0  0
  -27.3902  -29.7265   25.5020 H   0  0  0  0  0  0
  -27.8993  -30.4155   23.9804 H   0  0  0  0  0  0
  -27.2532  -33.3685   26.2087 H   0  0  0  0  0  0
  -28.3835  -32.6994   25.0410 H   0  0  0  0  0  0
  -28.0677  -31.8587   26.5523 H   0  0  0  0  0  0
  -28.2565  -38.0109   24.7507 H   0  0  0  0  0  0
  -28.1114  -36.2644   24.6275 H   0  0  0  0  0  0
  -27.2297  -37.1417   25.8848 H   0  0  0  0  0  0
  -20.9462  -29.8633   21.6726 H   0  0  0  0  0  0
  -26.0162  -38.2801   24.1407 H   0  0  0  0  0  0
  -31.2981  -17.2260   18.7635 H   0  0  0  0  0  0
  -31.5000  -20.7474   16.4673 H   0  0  0  0  0  0
  -30.8721  -23.8414   15.5574 H   0  0  0  0  0  0
  -29.5298  -24.6182   16.4879 H   0  0  0  0  0  0
  -30.7792  -24.0568   18.4072 H   0  0  0  0  0  0
  -31.8051  -22.8625   17.5272 H   0  0  0  0  0  0
  -29.7869  -21.7241   15.6438 H   0  0  0  0  0  0
  -28.2936  -22.5701   16.1987 H   0  0  0  0  0  0
  -28.8391  -17.9696   21.1829 H   0  0  0  0  0  0
  -30.5302  -17.8114   21.4745 H   0  0  0  0  0  0
  -27.0774  -24.4845   20.5512 H   0  0  0  0  0  0
  -27.8791  -24.5260   19.0081 H   0  0  0  0  0  0
  -29.1394  -23.6314   21.6685 H   0  0  0  0  0  0
  -30.0655  -23.6538   20.2607 H   0  0  0  0  0  0
  -28.7225  -15.8040   20.5268 H   0  0  0  0  0  0
  1 25  1  0  0  0
  1 30  2  0  0  0
  1 84  1  0  0  0
  2  3  1  0  0  0
  2 25  1  0  0  0
  2 87  1  0  0  0
  2 88  1  0  0  0
  3  4  1  0  0  0
  3 89  1  0  0  0
  3 90  1  0  0  0
  4  5  1  0  0  0
  4 91  1  0  0  0
  4 92  1  0  0  0
  5  6  1  0  0  0
  5 26  1  0  0  0
  5 93  1  0  0  0
  6 25  1  0  0  0
  6 94  1  0  0  0
  6 95  1  0  0  0
  7  8  2  0  0  0
  7 26  1  0  0  0
  7 29  1  0  0  0
  8  9  1  0  0  0
  8 22  1  0  0  0
  9 10  1  0  0  0
  9 27  2  0  0  0
 10 11  2  0  0  0
 10 15  1  0  0  0
 11 12  1  0  0  0
 11 96  1  0  0  0
 12 13  2  0  0  0
 12 97  1  0  0  0
 13 14  1  0  0  0
 13 31  1  0  0  0
 14 15  2  0  0  0
 14 98  1  0  0  0
 15 99  1  0  0  0
 16 17  2  0  0  0
 16 21  1  0  0  0
 16 31  1  0  0  0
 17 18  1  0  0  0
 17100  1  0  0  0
 18 19  2  0  0  0
 18101  1  0  0  0
 19 20  1  0  0  0
 19 24  1  0  0  0
 20 21  2  0  0  0
 20102  1  0  0  0
 21 23  1  0  0  0
 22 28  1  0  0  0
 22 32  2  0  0  0
 26 27  1  0  0  0
 28103  1  0  0  0
 28104  1  0  0  0
 29105  1  0  0  0
 29106  1  0  0  0
 33 34  1  0  0  0
 33 66  1  0  0  0
 33 70  2  0  0  0
 34 36  1  0  0  0
 34 59  1  0  0  0
 34107  1  0  0  0
 35 44  2  0  0  0
 35 45  1  0  0  0
 35 68  1  0  0  0
 36 56  1  0  0  0
 36108  1  0  0  0
 37 39  1  0  0  0
 37 47  1  0  0  0
 37 66  1  0  0  0
 37109  1  0  0  0
 38 43  2  0  0  0
 38 46  1  0  0  0
 38 47  1  0  0  0
 39 64  1  0  0  0
 39 67  2  0  0  0
 40 52  1  0  0  0
 40 53  2  0  0  0
 40 58  1  0  0  0
 41110  1  0  0  0
 41111  1  0  0  0
 41112  1  0  0  0
 41 48  1  0  0  0
 42 43  1  0  0  0
 42 66  1  0  0  0
 42113  1  0  0  0
 42114  1  0  0  0
 43 44  1  0  0  0
 44115  1  0  0  0
 45 46  2  0  0  0
 45116  1  0  0  0
 46117  1  0  0  0
 47118  1  0  0  0
 47119  1  0  0  0
 48 56  1  0  0  0
 48 65  1  0  0  0
 48120  1  0  0  0
 49 50  1  0  0  0
 49 53  1  0  0  0
 49 64  1  0  0  0
 49121  1  0  0  0
 50 51  1  0  0  0
 50122  1  0  0  0
 50123  1  0  0  0
 51 52  1  0  0  0
 51124  1  0  0  0
 51125  1  0  0  0
 52126  1  0  0  0
 52127  1  0  0  0
 53 54  1  0  0  0
 54 55  2  0  0  0
 54128  1  0  0  0
 55 57  1  0  0  0
 55129  1  0  0  0
 56 69  2  0  0  0
 57 58  2  0  0  0
 57130  1  0  0  0
 58131  1  0  0  0
 59 60  1  0  0  0
 59 61  1  0  0  0
 59 62  1  0  0  0
 60132  1  0  0  0
 60133  1  0  0  0
 60134  1  0  0  0
 61135  1  0  0  0
 61136  1  0  0  0
 61137  1  0  0  0
 62138  1  0  0  0
 62139  1  0  0  0
 62140  1  0  0  0
 63 65  1  0  0  0
 63141  1  0  0  0
 63142  1  0  0  0
 63143  1  0  0  0
 64144  1  0  0  0
 65145  1  0  0  0
 68 81  1  0  0  0
 71 73  2  0  0  0
 71 76  1  0  0  0
 71146  1  0  0  0
 72 74  1  0  0  0
 72 76  2  0  0  0
 72147  1  0  0  0
 73 75  1  0  0  0
 73 80  1  0  0  0
 74 75  2  0  0  0
 74 83  1  0  0  0
 75 85  1  0  0  0
 76 86  1  0  0  0
 77 78  1  0  0  0
 77 79  1  0  0  0
 77148  1  0  0  0
 77149  1  0  0  0
 78 83  1  0  0  0
 78150  1  0  0  0
 78151  1  0  0  0
 79 83  1  0  0  0
 79152  1  0  0  0
 79153  1  0  0  0
 80 84  1  0  0  0
 80154  1  0  0  0
 80155  1  0  0  0
 81 82  1  0  0  0
 81156  1  0  0  0
 81157  1  0  0  0
 82 85  1  0  0  0
 82158  1  0  0  0
 82159  1  0  0  0
 84160  1  0  0  0
M  ISO  4   1 100  68 101  81 101  84 100
M  END
> <chiral flag>
0

> <version>
0

> <s_m_source_file>
/data/baiqing/PycharmProjects/Reinvent-master-3.2/result/LINK_invent/BTK/process_docking_weight1_custom_product_contain_oxygen_bond_distance_aromatic_linkinvent_7_9_3/rearranged_h_0027.sdf

> <i_m_source_file_index>
89

> <r_mmod_Potential_Energy-OPLS-2005>
592.988037109375

> <r_mmod_Stretch_Energy-OPLS-2005>
268.724395751953

> <r_mmod_Bend_Energy-OPLS-2005>
339.100921630859

> <r_mmod_Torsional_Energy-OPLS-2005>
264.308227539062

> <r_mmod_Improper_Torsional_Energy-OPLS-2005>
13.0616188049316

> <r_mmod_Van_der_Waal_Energy-OPLS-2005>
139.055526733398

> <r_mmod_Electrostatic_Energy-OPLS-2005>
-387.659729003906

> <r_mmod_Solvation_Energy-OPLS-2005>
-229.151077270508

> <b_mmod_Minimization_Converged-OPLS-2005>
0

> <r_mmod_RMS_Derivative-OPLS-2005>
5.46330785751343

$$$$
90
                    3D
 Structure written by MMmdl.
171181  0  0  1  0            999 V2000
  -30.6650  -14.7834   20.3974 C   0  0  0  0  0  0
  -30.4102  -12.4940   19.4413 C   0  0  0  0  0  0
  -29.4866  -12.4904   18.2087 C   0  0  0  0  0  0
  -28.0176  -12.3208   18.6419 C   0  0  0  0  0  0
  -27.6205  -13.2496   19.8242 C   0  0  2  0  0  0
  -28.6797  -13.2706   20.9441 C   0  0  0  0  0  0
  -25.2426  -13.8242   20.5748 C   0  0  0  0  0  0
  -24.1752  -13.0429   20.9289 C   0  0  0  0  0  0
  -24.6384  -11.6923   20.8784 C   0  0  0  0  0  0
  -23.9079  -10.4284   21.0429 C   0  0  0  0  0  0
  -24.3640   -9.4203   21.9216 C   0  0  0  0  0  0
  -23.6322   -8.2231   22.0752 C   0  0  0  0  0  0
  -22.4307   -8.0274   21.3535 C   0  0  0  0  0  0
  -21.9948   -9.0241   20.4644 C   0  0  0  0  0  0
  -22.7247  -10.2133   20.3074 C   0  0  0  0  0  0
  -21.6868   -6.0753   22.5286 C   0  0  0  0  0  0
  -21.4012   -6.5655   23.8216 C   0  0  0  0  0  0
  -21.3659   -5.6807   24.9184 C   0  0  0  0  0  0
  -21.6054   -4.3070   24.7226 C   0  0  0  0  0  0
  -21.8814   -3.8153   23.4343 C   0  0  0  0  0  0
  -21.9183   -4.6974   22.3394 C   0  0  0  0  0  0
  -22.7768  -13.5178   21.1943 C   0  0  0  0  0  0
  -22.1612   -4.2159   21.0967 F   0  0  0  0  0  0
  -21.5648   -3.4546   25.7738 F   0  0  0  0  0  0
  -29.9531  -13.6084   20.3031 N   0  0  0  0  0  0
  -26.2842  -12.9472   20.3250 N   0  0  0  0  0  0
  -25.9311  -11.6591   20.5767 N   0  0  0  0  0  0
  -22.0407  -12.8143   22.0492 N   0  0  0  0  0  0
  -25.4068  -15.1967   20.4090 N   0  0  0  0  0  0
  -31.8958  -14.6930   20.3391 O   0  0  0  0  0  0
  -21.6644   -6.8884   21.4251 O   0  0  0  0  0  0
  -22.3449  -14.5467   20.6774 O   0  0  0  0  0  0
  -24.6347  -31.8540   23.1960 C   0  0  0  0  0  0
  -25.9158  -32.4749   23.8326 C   0  0  1  0  0  0
  -27.2093  -27.2342   20.1307 C   0  0  0  0  0  0
  -25.5941  -33.8550   24.2245 N   0  0  0  0  0  0
  -23.4316  -30.4776   21.5394 C   0  0  2  0  0  0
  -24.8770  -28.9215   20.1092 C   0  0  0  0  0  0
  -22.7518  -29.4604   22.4891 C   0  0  0  0  0  0
  -18.0300  -28.1391   22.8472 C   0  0  0  0  0  0
  -24.1487  -36.7280   23.2639 C   0  0  0  0  0  0
  -25.9803  -30.7579   21.3797 C   0  0  0  0  0  0
  -26.0516  -29.3788   20.7199 C   0  0  0  0  0  0
  -27.2214  -28.5481   20.7190 C   0  0  0  0  0  0
  -26.0142  -26.8592   19.4795 C   0  0  0  0  0  0
  -24.8652  -27.6713   19.4754 C   0  0  0  0  0  0
  -23.6505  -29.8120   20.1565 C   0  0  0  0  0  0
  -25.4114  -36.3068   24.0323 C   0  0  1  0  0  0
  -20.5901  -28.3712   23.1248 C   0  0  2  0  0  0
  -20.6782  -26.9428   22.5401 C   0  0  0  0  0  0
  -19.5763  -26.6382   21.5202 C   0  0  0  0  0  0
  -18.1938  -26.7933   22.1613 C   0  0  0  0  0  0
  -19.1547  -28.8863   23.2862 C   0  0  0  0  0  0
  -18.9476  -30.1459   23.8896 C   0  0  0  0  0  0
  -17.6470  -30.6592   24.0557 C   0  0  0  0  0  0
  -25.9058  -34.9441   23.5085 C   0  0  0  0  0  0
  -16.5364  -29.9087   23.6329 C   0  0  0  0  0  0
  -16.7281  -28.6504   23.0353 C   0  0  0  0  0  0
  -26.4508  -31.6586   25.0729 C   0  0  0  0  0  0
  -25.3708  -31.3748   26.1434 C   0  0  0  0  0  0
  -27.0354  -30.3000   24.6230 C   0  0  0  0  0  0
  -27.6062  -32.4333   25.7498 C   0  0  0  0  0  0
  -27.5584  -37.1792   24.8462 C   0  0  0  0  0  0
  -21.4222  -29.3064   22.3633 N   0  0  0  0  0  0
  -26.4289  -37.3770   23.9415 N   0  0  0  0  0  0
  -24.7008  -31.0484   22.0944 N   0  0  0  0  0  0
  -23.4201  -28.8134   23.2994 O   0  0  0  0  0  0
  -28.2838  -26.3098   20.2027 O   0  0  0  0  0  0
  -26.5629  -34.8915   22.4656 O   0  0  0  0  0  0
  -23.5490  -32.1358   23.7249 O   0  0  0  0  0  0
  -30.0583  -18.4957   22.0607 C   0  0  0  0  0  0
  -30.2080  -19.7020   22.7545 C   0  0  0  0  0  0
  -29.3972  -18.4501   20.8296 C   0  0  0  0  0  0
  -29.7482  -20.9436   22.2519 C   0  0  0  0  0  0
  -29.1482  -21.0442   20.9473 C   0  0  0  0  0  0
  -28.9742  -19.7404   20.2697 C   0  0  0  0  0  0
  -29.4432  -22.9715   25.2675 C   0  0  0  0  0  0
  -30.9562  -22.8217   25.1184 C   0  0  0  0  0  0
  -28.1046  -24.1116   18.8121 C   0  0  0  0  0  0
  -28.8890  -22.0040   24.2283 C   0  0  0  0  0  0
  -31.1699  -22.3599   23.6689 C   0  0  0  0  0  0
  -28.1564  -22.5716   19.0850 C   0  0  0  0  0  0
  -28.8935  -23.7601   20.9884 C   0  0  0  0  0  0
  -28.0117  -24.8131   20.1800 C   0  0  1  0  0  0
  -30.9068  -16.6077   18.7960 C   0  0  0  0  0  0
  -29.0511  -16.9678   20.3189 C   0  0  0  0  0  0
  -29.8484  -22.0421   23.1305 N   0  0  0  0  0  0
  -28.7317  -22.3662   20.4154 N   0  0  0  0  0  0
  -30.1274  -15.9767   19.8762 N   0  0  0  0  0  0
  -28.3566  -19.7130   19.0631 F   0  0  0  0  0  0
  -31.4462  -12.6165   19.1203 H   0  0  0  0  0  0
  -30.3636  -11.5419   19.9714 H   0  0  0  0  0  0
  -29.7747  -11.6945   17.5221 H   0  0  0  0  0  0
  -29.6017  -13.4248   17.6568 H   0  0  0  0  0  0
  -27.8804  -11.2766   18.9304 H   0  0  0  0  0  0
  -27.3508  -12.4856   17.7951 H   0  0  0  0  0  0
  -27.5851  -14.2579   19.4090 H   0  0  0  0  0  0
  -28.7426  -12.3075   21.4504 H   0  0  0  0  0  0
  -28.4222  -14.0125   21.7026 H   0  0  0  0  0  0
  -25.2765   -9.5677   22.4840 H   0  0  0  0  0  0
  -24.0035   -7.4611   22.7453 H   0  0  0  0  0  0
  -21.0872   -8.8738   19.8947 H   0  0  0  0  0  0
  -22.3675  -10.9696   19.6209 H   0  0  0  0  0  0
  -21.2001   -7.6172   23.9722 H   0  0  0  0  0  0
  -21.1498   -6.0539   25.9098 H   0  0  0  0  0  0
  -22.0613   -2.7620   23.2833 H   0  0  0  0  0  0
  -22.4019  -11.9821   22.4950 H   0  0  0  0  0  0
  -21.1027  -13.1186   22.2642 H   0  0  0  0  0  0
  -24.6381  -15.8487   20.5247 H   0  0  0  0  0  0
  -26.2501  -15.6394   20.0672 H   0  0  0  0  0  0
  -26.7219  -32.5388   23.1060 H   0  0  0  0  0  0
  -25.0095  -33.9680   25.0395 H   0  0  0  0  0  0
  -22.7308  -31.3014   21.3918 H   0  0  0  0  0  0
  -23.3758  -35.9606   23.3285 H   0  0  0  0  0  0
  -24.3580  -36.8919   22.2061 H   0  0  0  0  0  0
  -23.7231  -37.6467   23.6675 H   0  0  0  0  0  0
  -26.1248  -31.5161   20.6093 H   0  0  0  0  0  0
  -26.8574  -30.8071   22.0137 H   0  0  0  0  0  0
  -28.1181  -28.8890   21.2160 H   0  0  0  0  0  0
  -25.9359  -25.9077   18.9785 H   0  0  0  0  0  0
  -23.9676  -27.3162   18.9875 H   0  0  0  0  0  0
  -23.7817  -30.5872   19.4013 H   0  0  0  0  0  0
  -22.7669  -29.2497   19.8498 H   0  0  0  0  0  0
  -25.1300  -36.1903   25.0815 H   0  0  0  0  0  0
  -21.0008  -28.3297   24.1363 H   0  0  0  0  0  0
  -20.5659  -26.2333   23.3612 H   0  0  0  0  0  0
  -21.6648  -26.7427   22.1208 H   0  0  0  0  0  0
  -19.6922  -25.6282   21.1252 H   0  0  0  0  0  0
  -19.6703  -27.3175   20.6713 H   0  0  0  0  0  0
  -17.4207  -26.6676   21.4021 H   0  0  0  0  0  0
  -18.0353  -26.0083   22.9018 H   0  0  0  0  0  0
  -19.7949  -30.7274   24.2281 H   0  0  0  0  0  0
  -17.5024  -31.6276   24.5157 H   0  0  0  0  0  0
  -15.5362  -30.2991   23.7651 H   0  0  0  0  0  0
  -15.8682  -28.0818   22.7079 H   0  0  0  0  0  0
  -24.5892  -30.7092   25.7751 H   0  0  0  0  0  0
  -24.8889  -32.2922   26.4834 H   0  0  0  0  0  0
  -25.8004  -30.8937   27.0228 H   0  0  0  0  0  0
  -26.2939  -29.6747   24.1239 H   0  0  0  0  0  0
  -27.4009  -29.7278   25.4767 H   0  0  0  0  0  0
  -27.8836  -30.4279   23.9499 H   0  0  0  0  0  0
  -27.2682  -33.3660   26.2036 H   0  0  0  0  0  0
  -28.3894  -32.6845   25.0329 H   0  0  0  0  0  0
  -28.0703  -31.8473   26.5445 H   0  0  0  0  0  0
  -28.2578  -38.0109   24.7527 H   0  0  0  0  0  0
  -28.1097  -36.2639   24.6256 H   0  0  0  0  0  0
  -27.2305  -37.1403   25.8863 H   0  0  0  0  0  0
  -20.9404  -29.8805   21.6853 H   0  0  0  0  0  0
  -26.0161  -38.2837   24.1422 H   0  0  0  0  0  0
  -30.3819  -17.5796   22.5330 H   0  0  0  0  0  0
  -30.6484  -19.6484   23.7389 H   0  0  0  0  0  0
  -29.1435  -23.9907   25.0224 H   0  0  0  0  0  0
  -29.0911  -22.7508   26.2768 H   0  0  0  0  0  0
  -31.3280  -22.0596   25.8057 H   0  0  0  0  0  0
  -31.4813  -23.7495   25.3437 H   0  0  0  0  0  0
  -27.2850  -24.3731   18.1437 H   0  0  0  0  0  0
  -29.0273  -24.4230   18.3207 H   0  0  0  0  0  0
  -27.8919  -22.3039   23.8985 H   0  0  0  0  0  0
  -28.8091  -21.0016   24.6550 H   0  0  0  0  0  0
  -31.8665  -21.5216   23.6321 H   0  0  0  0  0  0
  -31.6074  -23.1625   23.0745 H   0  0  0  0  0  0
  -28.7383  -22.0690   18.3111 H   0  0  0  0  0  0
  -27.1476  -22.1553   19.0679 H   0  0  0  0  0  0
  -28.5976  -23.8199   22.0340 H   0  0  0  0  0  0
  -29.9466  -24.0401   20.9282 H   0  0  0  0  0  0
  -27.0004  -24.6639   20.5617 H   0  0  0  0  0  0
  -30.3494  -17.3794   18.2621 H   0  0  0  0  0  0
  -31.1886  -15.8680   18.0468 H   0  0  0  0  0  0
  -31.8213  -17.0658   19.1768 H   0  0  0  0  0  0
  -28.4866  -16.4840   21.1173 H   0  0  0  0  0  0
  -28.3358  -17.0612   19.5011 H   0  0  0  0  0  0
  1 25  1  0  0  0
  1 30  2  0  0  0
  1 89  1  0  0  0
  2  3  1  0  0  0
  2 25  1  0  0  0
  2 91  1  0  0  0
  2 92  1  0  0  0
  3  4  1  0  0  0
  3 93  1  0  0  0
  3 94  1  0  0  0
  4  5  1  0  0  0
  4 95  1  0  0  0
  4 96  1  0  0  0
  5  6  1  0  0  0
  5 26  1  0  0  0
  5 97  1  0  0  0
  6 25  1  0  0  0
  6 98  1  0  0  0
  6 99  1  0  0  0
  7  8  2  0  0  0
  7 26  1  0  0  0
  7 29  1  0  0  0
  8  9  1  0  0  0
  8 22  1  0  0  0
  9 10  1  0  0  0
  9 27  2  0  0  0
 10 11  2  0  0  0
 10 15  1  0  0  0
 11 12  1  0  0  0
 11100  1  0  0  0
 12 13  2  0  0  0
 12101  1  0  0  0
 13 14  1  0  0  0
 13 31  1  0  0  0
 14 15  2  0  0  0
 14102  1  0  0  0
 15103  1  0  0  0
 16 17  2  0  0  0
 16 21  1  0  0  0
 16 31  1  0  0  0
 17 18  1  0  0  0
 17104  1  0  0  0
 18 19  2  0  0  0
 18105  1  0  0  0
 19 20  1  0  0  0
 19 24  1  0  0  0
 20 21  2  0  0  0
 20106  1  0  0  0
 21 23  1  0  0  0
 22 28  1  0  0  0
 22 32  2  0  0  0
 26 27  1  0  0  0
 28107  1  0  0  0
 28108  1  0  0  0
 29109  1  0  0  0
 29110  1  0  0  0
 33 34  1  0  0  0
 33 66  1  0  0  0
 33 70  2  0  0  0
 34 36  1  0  0  0
 34 59  1  0  0  0
 34111  1  0  0  0
 35 44  2  0  0  0
 35 45  1  0  0  0
 35 68  1  0  0  0
 36 56  1  0  0  0
 36112  1  0  0  0
 37 39  1  0  0  0
 37 47  1  0  0  0
 37 66  1  0  0  0
 37113  1  0  0  0
 38 43  2  0  0  0
 38 46  1  0  0  0
 38 47  1  0  0  0
 39 64  1  0  0  0
 39 67  2  0  0  0
 40 52  1  0  0  0
 40 53  2  0  0  0
 40 58  1  0  0  0
 41114  1  0  0  0
 41115  1  0  0  0
 41116  1  0  0  0
 41 48  1  0  0  0
 42 43  1  0  0  0
 42 66  1  0  0  0
 42117  1  0  0  0
 42118  1  0  0  0
 43 44  1  0  0  0
 44119  1  0  0  0
 45 46  2  0  0  0
 45120  1  0  0  0
 46121  1  0  0  0
 47122  1  0  0  0
 47123  1  0  0  0
 48 56  1  0  0  0
 48 65  1  0  0  0
 48124  1  0  0  0
 49 50  1  0  0  0
 49 53  1  0  0  0
 49 64  1  0  0  0
 49125  1  0  0  0
 50 51  1  0  0  0
 50126  1  0  0  0
 50127  1  0  0  0
 51 52  1  0  0  0
 51128  1  0  0  0
 51129  1  0  0  0
 52130  1  0  0  0
 52131  1  0  0  0
 53 54  1  0  0  0
 54 55  2  0  0  0
 54132  1  0  0  0
 55 57  1  0  0  0
 55133  1  0  0  0
 56 69  2  0  0  0
 57 58  2  0  0  0
 57134  1  0  0  0
 58135  1  0  0  0
 59 60  1  0  0  0
 59 61  1  0  0  0
 59 62  1  0  0  0
 60136  1  0  0  0
 60137  1  0  0  0
 60138  1  0  0  0
 61139  1  0  0  0
 61140  1  0  0  0
 61141  1  0  0  0
 62142  1  0  0  0
 62143  1  0  0  0
 62144  1  0  0  0
 63 65  1  0  0  0
 63145  1  0  0  0
 63146  1  0  0  0
 63147  1  0  0  0
 64148  1  0  0  0
 65149  1  0  0  0
 68 84  1  0  0  0
 71 72  2  0  0  0
 71 73  1  0  0  0
 71150  1  0  0  0
 72 74  1  0  0  0
 72151  1  0  0  0
 73 76  2  0  0  0
 73 86  1  0  0  0
 74 75  2  0  0  0
 74 87  1  0  0  0
 75 76  1  0  0  0
 75 88  1  0  0  0
 76 90  1  0  0  0
 77 78  1  0  0  0
 77 80  1  0  0  0
 77152  1  0  0  0
 77153  1  0  0  0
 78 81  1  0  0  0
 78154  1  0  0  0
 78155  1  0  0  0
 79 82  1  0  0  0
 79 84  1  0  0  0
 79156  1  0  0  0
 79157  1  0  0  0
 80 87  1  0  0  0
 80158  1  0  0  0
 80159  1  0  0  0
 81 87  1  0  0  0
 81160  1  0  0  0
 81161  1  0  0  0
 82 88  1  0  0  0
 82162  1  0  0  0
 82163  1  0  0  0
 83 84  1  0  0  0
 83 88  1  0  0  0
 83164  1  0  0  0
 83165  1  0  0  0
 84166  1  0  0  0
 85 89  1  0  0  0
 85167  1  0  0  0
 85168  1  0  0  0
 85169  1  0  0  0
 86 89  1  0  0  0
 86170  1  0  0  0
 86171  1  0  0  0
M  ISO  4   1 100  68 101  84 101  89 100
M  END
> <chiral flag>
0

> <version>
0

> <s_m_source_file>
/data/baiqing/PycharmProjects/Reinvent-master-3.2/result/LINK_invent/BTK/process_docking_weight1_custom_product_contain_oxygen_bond_distance_aromatic_linkinvent_7_9_3/rearranged_h_0027.sdf

> <i_m_source_file_index>
90

> <r_mmod_Potential_Energy-OPLS-2005>
688.353210449219

> <r_mmod_Stretch_Energy-OPLS-2005>
151.566818237305

> <r_mmod_Bend_Energy-OPLS-2005>
282.638885498047

> <r_mmod_Torsional_Energy-OPLS-2005>
404.391357421875

> <r_mmod_Improper_Torsional_Energy-OPLS-2005>
33.3277130126953

> <r_mmod_Van_der_Waal_Energy-OPLS-2005>
145.981231689453

> <r_mmod_Electrostatic_Energy-OPLS-2005>
-231.190200805664

> <r_mmod_Solvation_Energy-OPLS-2005>
-220.774200439453

> <b_mmod_Minimization_Converged-OPLS-2005>
0

> <r_mmod_RMS_Derivative-OPLS-2005>
3.19851088523865

$$$$
