0
                    3D
 Structure written by MMmdl.
163171  0  0  1  0            999 V2000
  -32.0029  -13.3293   19.5695 C   0  0  0  0  0  0
  -30.8123  -14.9106   19.2083 C   0  0  0  0  0  0
  -29.6257  -15.4227   20.4177 C   0  0  0  0  0  0
  -27.8970  -14.6702   20.8089 C   0  0  0  0  0  0
  -27.2930  -13.1022   20.3341 C   0  0  2  0  0  0
  -28.2357  -12.1178   19.2363 C   0  0  0  0  0  0
  -24.9463  -13.7357   20.5850 C   0  0  0  0  0  0
  -23.9313  -12.9430   20.9493 C   0  0  0  0  0  0
  -24.4194  -11.6046   20.9340 C   0  0  0  0  0  0
  -23.7397  -10.3493   21.0711 C   0  0  0  0  0  0
  -24.2420   -9.3658   21.9451 C   0  0  0  0  0  0
  -23.5635   -8.1493   22.0751 C   0  0  0  0  0  0
  -22.3655   -7.9393   21.3396 C   0  0  0  0  0  0
  -21.8656   -8.9363   20.4987 C   0  0  0  0  0  0
  -22.5566  -10.1374   20.3470 C   0  0  0  0  0  0
  -21.6449   -6.0253   22.5326 C   0  0  0  0  0  0
  -21.3931   -6.5320   23.8262 C   0  0  0  0  0  0
  -21.3759   -5.6699   24.9354 C   0  0  0  0  0  0
  -21.5925   -4.2880   24.7447 C   0  0  0  0  0  0
  -21.8713   -3.7753   23.4627 C   0  0  0  0  0  0
  -21.8980   -4.6534   22.3574 C   0  0  0  0  0  0
  -22.5660  -13.4276   21.2774 C   0  0  0  0  0  0
  -22.1425   -4.1680   21.1263 F   0  0  0  0  0  0
  -21.5723   -3.4579   25.8109 F   0  0  0  0  0  0
  -30.7837  -13.3454   18.8063 N   0  0  0  0  0  0
  -25.9796  -12.8666   20.4426 N   0  0  0  0  0  0
  -25.6729  -11.5594   20.6442 N   0  0  0  0  0  0
  -21.8215  -12.7761   22.1735 N   0  0  0  0  0  0
  -25.0062  -15.1069   20.3547 N   0  0  0  0  0  0
  -32.5736  -14.1062   20.3823 O   0  0  0  0  0  0
  -21.6080   -6.8071   21.4128 O   0  0  0  0  0  0
  -22.1864  -14.4764   20.7707 O   0  0  0  0  0  0
  -24.7273  -31.7613   23.1444 C   0  0  0  0  0  0
  -25.9675  -32.4390   23.8075 C   0  0  1  0  0  0
  -27.0322  -26.4335   20.0390 C   0  0  0  0  0  0
  -25.6001  -33.8235   24.1770 N   0  0  0  0  0  0
  -23.5481  -30.3752   21.5105 C   0  0  2  0  0  0
  -24.9448  -28.6868   20.0871 C   0  0  0  0  0  0
  -22.7885  -29.4098   22.4692 C   0  0  0  0  0  0
  -18.0235  -28.1465   22.8356 C   0  0  0  0  0  0
  -24.1384  -36.7131   23.2637 C   0  0  0  0  0  0
  -26.1471  -30.3768   21.4374 C   0  0  0  0  0  0
  -26.1541  -28.9298   20.7336 C   0  0  0  0  0  0
  -27.1893  -27.8387   20.6612 C   0  0  0  0  0  0
  -25.7983  -26.4533   19.3706 C   0  0  0  0  0  0
  -24.8195  -27.4873   19.3703 C   0  0  0  0  0  0
  -23.8076  -29.7125   20.1246 C   0  0  0  0  0  0
  -25.4071  -36.2875   24.0222 C   0  0  1  0  0  0
  -20.5882  -28.3789   23.1086 C   0  0  2  0  0  0
  -20.6786  -26.9439   22.5432 C   0  0  0  0  0  0
  -19.5825  -26.6326   21.5230 C   0  0  0  0  0  0
  -18.1942  -26.8010   22.1527 C   0  0  0  0  0  0
  -19.1513  -28.8931   23.2677 C   0  0  0  0  0  0
  -18.9485  -30.1522   23.8737 C   0  0  0  0  0  0
  -17.6484  -30.6641   24.0553 C   0  0  0  0  0  0
  -25.9135  -34.9250   23.4869 C   0  0  0  0  0  0
  -16.5331  -29.9169   23.6374 C   0  0  0  0  0  0
  -16.7230  -28.6602   23.0356 C   0  0  0  0  0  0
  -26.4672  -31.6820   25.0944 C   0  0  0  0  0  0
  -25.3752  -31.4405   26.1611 C   0  0  0  0  0  0
  -27.0731  -30.3160   24.7220 C   0  0  0  0  0  0
  -27.5831  -32.4932   25.7940 C   0  0  0  0  0  0
  -27.5516  -37.1780   24.8427 C   0  0  0  0  0  0
  -21.4509  -29.3010   22.3473 N   0  0  0  0  0  0
  -26.4164  -37.3711   23.9460 N   0  0  0  0  0  0
  -24.8422  -30.8742   22.0858 N   0  0  0  0  0  0
  -23.4182  -28.7559   23.3008 O   0  0  0  0  0  0
  -27.8223  -25.0433   19.8937 O   0  0  0  0  0  0
  -26.5717  -34.8882   22.4469 O   0  0  0  0  0  0
  -23.6156  -32.0801   23.6142 O   0  0  0  0  0  0
  -28.9843  -13.2258   17.2459 C   0  0  0  0  0  0
  -30.2751  -10.9606   18.7036 C   0  0  0  0  0  0
  -29.6738  -11.7001   17.3595 C   0  0  0  0  0  0
  -28.6983  -14.1934   18.6500 C   0  0  0  0  0  0
  -30.3155  -11.5209   20.2477 C   0  0  0  0  0  0
  -29.6477  -13.0699   20.6265 C   0  0  0  0  0  0
  -27.9805  -21.4621   19.0868 C   0  0  0  0  0  0
  -29.4207  -10.5877   16.2983 C   0  0  0  0  0  0
  -29.9695  -13.4067   22.1698 C   0  0  0  0  0  0
  -28.0107  -16.0855   18.4292 C   0  0  0  0  0  0
  -31.7598  -11.3362   20.7142 C   0  0  0  0  0  0
  -27.3992  -23.2113   19.8610 C   0  0  0  0  0  0
  -28.3325  -18.1422   18.5357 C   0  0  0  0  0  0
  -27.8083  -19.8375   19.2056 N   0  0  0  0  0  0
  -32.4206  -12.0871   19.6357 N   0  0  0  0  0  0
  -28.7607  -21.7068   18.1698 O   0  0  0  0  0  0
  -31.6294  -15.6430   19.2263 H   0  0  0  0  0  0
  -30.5816  -15.4085   18.2629 H   0  0  0  0  0  0
  -29.4368  -16.4972   20.5140 H   0  0  0  0  0  0
  -30.3109  -15.5052   21.2494 H   0  0  0  0  0  0
  -27.8818  -14.6901   21.8724 H   0  0  0  0  0  0
  -27.2022  -15.4258   20.7428 H   0  0  0  0  0  0
  -27.5808  -12.5711   21.2401 H   0  0  0  0  0  0
  -27.4789  -12.1232   18.4436 H   0  0  0  0  0  0
  -28.1237  -11.0467   19.5260 H   0  0  0  0  0  0
  -25.1285   -9.5445   22.5252 H   0  0  0  0  0  0
  -23.9561   -7.3706   22.6967 H   0  0  0  0  0  0
  -20.9470   -8.7297   19.9539 H   0  0  0  0  0  0
  -22.1249  -10.8967   19.6968 H   0  0  0  0  0  0
  -21.2010   -7.5908   23.9623 H   0  0  0  0  0  0
  -21.1825   -6.0638   25.9346 H   0  0  0  0  0  0
  -22.0441   -2.7192   23.3309 H   0  0  0  0  0  0
  -22.1307  -11.9334   22.6689 H   0  0  0  0  0  0
  -20.9432  -13.2012   22.4464 H   0  0  0  0  0  0
  -24.3187  -15.6965   20.7965 H   0  0  0  0  0  0
  -25.9287  -15.5288   20.3692 H   0  0  0  0  0  0
  -26.7832  -32.4699   23.0842 H   0  0  0  0  0  0
  -25.0501  -33.9409   25.0108 H   0  0  0  0  0  0
  -22.8784  -31.2190   21.3210 H   0  0  0  0  0  0
  -23.3749  -35.9389   23.3202 H   0  0  0  0  0  0
  -24.3396  -36.8959   22.2098 H   0  0  0  0  0  0
  -23.7061  -37.6180   23.6864 H   0  0  0  0  0  0
  -26.3979  -31.1024   20.6564 H   0  0  0  0  0  0
  -26.9903  -30.4008   22.1246 H   0  0  0  0  0  0
  -28.1416  -28.0319   21.1494 H   0  0  0  0  0  0
  -25.5494  -25.5825   18.7837 H   0  0  0  0  0  0
  -23.9164  -27.3172   18.8166 H   0  0  0  0  0  0
  -24.0804  -30.4992   19.4118 H   0  0  0  0  0  0
  -22.8955  -29.2673   19.7431 H   0  0  0  0  0  0
  -25.1313  -36.1612   25.0718 H   0  0  0  0  0  0
  -20.9860  -28.3472   24.1262 H   0  0  0  0  0  0
  -20.5627  -26.2445   23.3704 H   0  0  0  0  0  0
  -21.6663  -26.7430   22.1261 H   0  0  0  0  0  0
  -19.7006  -25.6166   21.1489 H   0  0  0  0  0  0
  -19.6888  -27.2927   20.6610 H   0  0  0  0  0  0
  -17.4258  -26.6610   21.3940 H   0  0  0  0  0  0
  -18.0301  -26.0225   22.8970 H   0  0  0  0  0  0
  -19.7932  -30.7395   24.2126 H   0  0  0  0  0  0
  -17.5010  -31.6354   24.5146 H   0  0  0  0  0  0
  -15.5327  -30.3052   23.7867 H   0  0  0  0  0  0
  -15.8606  -28.0977   22.7150 H   0  0  0  0  0  0
  -24.5670  -30.8020   25.8125 H   0  0  0  0  0  0
  -24.9323  -32.3803   26.4946 H   0  0  0  0  0  0
  -25.7904  -30.9704   27.0560 H   0  0  0  0  0  0
  -26.3584  -29.6514   24.2400 H   0  0  0  0  0  0
  -27.4159  -29.8010   25.6210 H   0  0  0  0  0  0
  -27.9514  -30.4228   24.0860 H   0  0  0  0  0  0
  -27.2096  -33.4328   26.2063 H   0  0  0  0  0  0
  -28.3990  -32.7461   25.1190 H   0  0  0  0  0  0
  -28.0138  -31.9558   26.6401 H   0  0  0  0  0  0
  -28.2365  -38.0210   24.7535 H   0  0  0  0  0  0
  -28.1131  -36.2731   24.6130 H   0  0  0  0  0  0
  -27.2246  -37.1271   25.8807 H   0  0  0  0  0  0
  -20.9824  -29.8958   21.6793 H   0  0  0  0  0  0
  -25.9916  -38.2713   24.1600 H   0  0  0  0  0  0
  -28.6888  -13.4955   16.2314 H   0  0  0  0  0  0
  -30.7861  -10.0139   18.5890 H   0  0  0  0  0  0
  -29.0858  -10.8781   15.3132 H   0  0  0  0  0  0
  -28.6101   -9.9564   16.6912 H   0  0  0  0  0  0
  -30.2238   -9.8601   16.1419 H   0  0  0  0  0  0
  -30.8550  -14.0052   22.3115 H   0  0  0  0  0  0
  -30.2136  -12.5522   22.7682 H   0  0  0  0  0  0
  -29.2813  -13.8859   22.8577 H   0  0  0  0  0  0
  -26.9257  -15.9358   18.3891 H   0  0  0  0  0  0
  -28.2148  -16.0311   17.3529 H   0  0  0  0  0  0
  -32.0193  -11.7451   21.7054 H   0  0  0  0  0  0
  -32.0800  -10.2774   20.7061 H   0  0  0  0  0  0
  -27.5520  -22.9920   20.9140 H   0  0  0  0  0  0
  -26.3200  -23.1908   19.7656 H   0  0  0  0  0  0
  -28.0101  -18.3356   17.5020 H   0  0  0  0  0  0
  -29.4012  -18.2646   18.3375 H   0  0  0  0  0  0
  -27.3039  -19.6515   20.0715 H   0  0  0  0  0  0
  -32.1684  -11.6532   18.7622 H   0  0  0  0  0  0
  1 25  1  0  0  0
  1 30  2  0  0  0
  1 85  1  0  0  0
  2  3  1  0  0  0
  2 25  1  0  0  0
  2 87  1  0  0  0
  2 88  1  0  0  0
  3  4  1  0  0  0
  3 89  1  0  0  0
  3 90  1  0  0  0
  4  5  1  0  0  0
  4 91  1  0  0  0
  4 92  1  0  0  0
  5  6  1  0  0  0
  5 26  1  0  0  0
  5 93  1  0  0  0
  6 25  1  0  0  0
  6 94  1  0  0  0
  6 95  1  0  0  0
  7  8  2  0  0  0
  7 26  1  0  0  0
  7 29  1  0  0  0
  8  9  1  0  0  0
  8 22  1  0  0  0
  9 10  1  0  0  0
  9 27  2  0  0  0
 10 11  2  0  0  0
 10 15  1  0  0  0
 11 12  1  0  0  0
 11 96  1  0  0  0
 12 13  2  0  0  0
 12 97  1  0  0  0
 13 14  1  0  0  0
 13 31  1  0  0  0
 14 15  2  0  0  0
 14 98  1  0  0  0
 15 99  1  0  0  0
 16 17  2  0  0  0
 16 21  1  0  0  0
 16 31  1  0  0  0
 17 18  1  0  0  0
 17100  1  0  0  0
 18 19  2  0  0  0
 18101  1  0  0  0
 19 20  1  0  0  0
 19 24  1  0  0  0
 20 21  2  0  0  0
 20102  1  0  0  0
 21 23  1  0  0  0
 22 28  1  0  0  0
 22 32  2  0  0  0
 26 27  1  0  0  0
 28103  1  0  0  0
 28104  1  0  0  0
 29105  1  0  0  0
 29106  1  0  0  0
 33 34  1  0  0  0
 33 66  1  0  0  0
 33 70  2  0  0  0
 34 36  1  0  0  0
 34 59  1  0  0  0
 34107  1  0  0  0
 35 44  2  0  0  0
 35 45  1  0  0  0
 35 68  1  0  0  0
 36 56  1  0  0  0
 36108  1  0  0  0
 37 39  1  0  0  0
 37 47  1  0  0  0
 37 66  1  0  0  0
 37109  1  0  0  0
 38 43  2  0  0  0
 38 46  1  0  0  0
 38 47  1  0  0  0
 39 64  1  0  0  0
 39 67  2  0  0  0
 40 52  1  0  0  0
 40 53  2  0  0  0
 40 58  1  0  0  0
 41110  1  0  0  0
 41111  1  0  0  0
 41112  1  0  0  0
 41 48  1  0  0  0
 42 43  1  0  0  0
 42 66  1  0  0  0
 42113  1  0  0  0
 42114  1  0  0  0
 43 44  1  0  0  0
 44115  1  0  0  0
 45 46  2  0  0  0
 45116  1  0  0  0
 46117  1  0  0  0
 47118  1  0  0  0
 47119  1  0  0  0
 48 56  1  0  0  0
 48 65  1  0  0  0
 48120  1  0  0  0
 49 50  1  0  0  0
 49 53  1  0  0  0
 49 64  1  0  0  0
 49121  1  0  0  0
 50 51  1  0  0  0
 50122  1  0  0  0
 50123  1  0  0  0
 51 52  1  0  0  0
 51124  1  0  0  0
 51125  1  0  0  0
 52126  1  0  0  0
 52127  1  0  0  0
 53 54  1  0  0  0
 54 55  2  0  0  0
 54128  1  0  0  0
 55 57  1  0  0  0
 55129  1  0  0  0
 56 69  2  0  0  0
 57 58  2  0  0  0
 57130  1  0  0  0
 58131  1  0  0  0
 59 60  1  0  0  0
 59 61  1  0  0  0
 59 62  1  0  0  0
 60132  1  0  0  0
 60133  1  0  0  0
 60134  1  0  0  0
 61135  1  0  0  0
 61136  1  0  0  0
 61137  1  0  0  0
 62138  1  0  0  0
 62139  1  0  0  0
 62140  1  0  0  0
 63 65  1  0  0  0
 63141  1  0  0  0
 63142  1  0  0  0
 63143  1  0  0  0
 64144  1  0  0  0
 65145  1  0  0  0
 68 82  1  0  0  0
 71 73  2  0  0  0
 71 74  1  0  0  0
 71146  1  0  0  0
 72 73  1  0  0  0
 72 75  2  0  0  0
 72147  1  0  0  0
 73 78  1  0  0  0
 74 76  2  0  0  0
 74 80  1  0  0  0
 75 76  1  0  0  0
 75 81  1  0  0  0
 76 79  1  0  0  0
 77 82  1  0  0  0
 77 84  1  0  0  0
 77 86  2  0  0  0
 78148  1  0  0  0
 78149  1  0  0  0
 78150  1  0  0  0
 79151  1  0  0  0
 79152  1  0  0  0
 79153  1  0  0  0
 80 83  1  0  0  0
 80154  1  0  0  0
 80155  1  0  0  0
 81 85  1  0  0  0
 81156  1  0  0  0
 81157  1  0  0  0
 82158  1  0  0  0
 82159  1  0  0  0
 83 84  1  0  0  0
 83160  1  0  0  0
 83161  1  0  0  0
 84162  1  0  0  0
 85163  1  0  0  0
M  ISO  4   1 100  68 101  82 101  85 100
M  END
> <chiral flag>
0

> <version>
0

> <s_m_source_file>
/data/baiqing/PycharmProjects/Reinvent-master-3.2/result/LINK_invent/BTK/process_docking_weight1_custom_product_contain_oxygen_bond_distance_aromatic_linkinvent_7_9_3/rearranged_h_0051.sdf

> <i_m_source_file_index>
1

> <r_mmod_Potential_Energy-OPLS-2005>
18095.236328125

> <r_mmod_Stretch_Energy-OPLS-2005>
8302.5185546875

> <r_mmod_Bend_Energy-OPLS-2005>
1408.79675292969

> <r_mmod_Torsional_Energy-OPLS-2005>
423.949066162109

> <r_mmod_Improper_Torsional_Energy-OPLS-2005>
47.8728446960449

> <r_mmod_Van_der_Waal_Energy-OPLS-2005>
3505.68139648438

> <r_mmod_Electrostatic_Energy-OPLS-2005>
-432.795135498047

> <r_mmod_Solvation_Energy-OPLS-2005>
-260.047790527344

> <b_mmod_Minimization_Converged-OPLS-2005>
0

> <r_mmod_RMS_Derivative-OPLS-2005>
59.620906829834

$$$$
1
                    3D
 Structure written by MMmdl.
154162  0  0  1  0            999 V2000
  -30.6407  -14.7705   20.4414 C   0  0  0  0  0  0
  -30.4220  -12.4674   19.4878 C   0  0  0  0  0  0
  -29.5111  -12.5118   18.2429 C   0  0  0  0  0  0
  -28.0388  -12.3292   18.6557 C   0  0  0  0  0  0
  -27.6371  -13.2425   19.8438 C   0  0  2  0  0  0
  -28.6817  -13.2193   20.9827 C   0  0  0  0  0  0
  -25.2474  -13.8213   20.5682 C   0  0  0  0  0  0
  -24.1791  -13.0446   20.9239 C   0  0  0  0  0  0
  -24.6405  -11.6929   20.8762 C   0  0  0  0  0  0
  -23.9086  -10.4302   21.0415 C   0  0  0  0  0  0
  -24.3632   -9.4206   21.9187 C   0  0  0  0  0  0
  -23.6305   -8.2233   22.0750 C   0  0  0  0  0  0
  -22.4284   -8.0282   21.3539 C   0  0  0  0  0  0
  -21.9920   -9.0265   20.4649 C   0  0  0  0  0  0
  -22.7252  -10.2145   20.3065 C   0  0  0  0  0  0
  -21.6859   -6.0731   22.5281 C   0  0  0  0  0  0
  -21.4023   -6.5632   23.8216 C   0  0  0  0  0  0
  -21.3670   -5.6778   24.9179 C   0  0  0  0  0  0
  -21.6041   -4.3043   24.7224 C   0  0  0  0  0  0
  -21.8812   -3.8144   23.4345 C   0  0  0  0  0  0
  -21.9186   -4.6958   22.3404 C   0  0  0  0  0  0
  -22.7800  -13.5220   21.1876 C   0  0  0  0  0  0
  -22.1653   -4.2147   21.0979 F   0  0  0  0  0  0
  -21.5624   -3.4529   25.7741 F   0  0  0  0  0  0
  -29.9835  -13.5576   20.3949 N   0  0  0  0  0  0
  -26.2916  -12.9453   20.3259 N   0  0  0  0  0  0
  -25.9344  -11.6596   20.5756 N   0  0  0  0  0  0
  -22.0436  -12.8233   22.0446 N   0  0  0  0  0  0
  -25.4097  -15.1935   20.4024 N   0  0  0  0  0  0
  -31.8371  -14.7699   20.1596 O   0  0  0  0  0  0
  -21.6641   -6.8883   21.4248 O   0  0  0  0  0  0
  -22.3479  -14.5506   20.6691 O   0  0  0  0  0  0
  -24.6309  -31.8560   23.1965 C   0  0  0  0  0  0
  -25.9144  -32.4749   23.8300 C   0  0  1  0  0  0
  -27.2239  -27.2708   20.1414 C   0  0  0  0  0  0
  -25.5946  -33.8550   24.2239 N   0  0  0  0  0  0
  -23.4281  -30.4764   21.5398 C   0  0  2  0  0  0
  -24.8752  -28.9146   20.1160 C   0  0  0  0  0  0
  -22.7504  -29.4601   22.4909 C   0  0  0  0  0  0
  -18.0307  -28.1401   22.8493 C   0  0  0  0  0  0
  -24.1491  -36.7279   23.2639 C   0  0  0  0  0  0
  -25.9716  -30.7719   21.3707 C   0  0  0  0  0  0
  -26.0450  -29.3897   20.7228 C   0  0  0  0  0  0
  -27.2255  -28.5824   20.7194 C   0  0  0  0  0  0
  -26.0347  -26.8501   19.5157 C   0  0  0  0  0  0
  -24.8733  -27.6501   19.5025 C   0  0  0  0  0  0
  -23.6463  -29.8032   20.1576 C   0  0  0  0  0  0
  -25.4116  -36.3066   24.0324 C   0  0  1  0  0  0
  -20.5913  -28.3713   23.1267 C   0  0  2  0  0  0
  -20.6795  -26.9430   22.5408 C   0  0  0  0  0  0
  -19.5766  -26.6398   21.5221 C   0  0  0  0  0  0
  -18.1946  -26.7943   22.1631 C   0  0  0  0  0  0
  -19.1560  -28.8879   23.2878 C   0  0  0  0  0  0
  -18.9467  -30.1477   23.8901 C   0  0  0  0  0  0
  -17.6463  -30.6594   24.0575 C   0  0  0  0  0  0
  -25.9059  -34.9437   23.5092 C   0  0  0  0  0  0
  -16.5360  -29.9097   23.6324 C   0  0  0  0  0  0
  -16.7290  -28.6523   23.0335 C   0  0  0  0  0  0
  -26.4507  -31.6564   25.0677 C   0  0  0  0  0  0
  -25.3742  -31.3712   26.1407 C   0  0  0  0  0  0
  -27.0324  -30.2982   24.6121 C   0  0  0  0  0  0
  -27.6063  -32.4291   25.7449 C   0  0  0  0  0  0
  -27.5577  -37.1792   24.8467 C   0  0  0  0  0  0
  -21.4220  -29.3057   22.3657 N   0  0  0  0  0  0
  -26.4289  -37.3769   23.9408 N   0  0  0  0  0  0
  -24.6965  -31.0540   22.0922 N   0  0  0  0  0  0
  -23.4214  -28.8165   23.3014 O   0  0  0  0  0  0
  -28.3347  -26.4077   20.1047 O   0  0  0  0  0  0
  -26.5622  -34.8929   22.4652 O   0  0  0  0  0  0
  -23.5460  -32.1356   23.7280 O   0  0  0  0  0  0
  -30.7489  -20.2611   20.0234 C   0  0  0  0  0  0
  -31.7433  -19.2815   19.8802 C   0  0  0  0  0  0
  -29.4419  -19.9056   20.3886 C   0  0  0  0  0  0
  -29.1821  -18.4747   20.5997 C   0  0  0  0  0  0
  -30.1959  -17.4204   20.4389 C   0  0  0  0  0  0
  -31.4925  -17.9096   20.0835 C   0  0  0  0  0  0
  -28.2605  -23.7145   20.1196 C   0  0  0  0  0  0
  -27.7719  -18.0825   21.0155 C   0  0  0  0  0  0
  -28.3665  -21.0867   20.4643 C   0  0  0  0  0  0
  -28.3188  -25.1268   20.8820 C   0  0  0  0  0  0
  -29.9041  -15.9470   20.6179 N   0  0  0  0  0  0
  -28.7427  -22.5522   20.7090 N   0  0  0  0  0  0
  -27.7025  -23.6643   19.0210 O   0  0  0  0  0  0
  -32.5602  -17.1047   19.9152 F   0  0  0  0  0  0
  -31.4656  -12.5622   19.1877 H   0  0  0  0  0  0
  -30.3490  -11.5022   19.9929 H   0  0  0  0  0  0
  -29.8058  -11.7397   17.5317 H   0  0  0  0  0  0
  -29.6336  -13.4679   17.7292 H   0  0  0  0  0  0
  -27.9044  -11.2827   18.9324 H   0  0  0  0  0  0
  -27.3820  -12.5010   17.8022 H   0  0  0  0  0  0
  -27.6187  -14.2560   19.4440 H   0  0  0  0  0  0
  -28.7205  -12.2412   21.4624 H   0  0  0  0  0  0
  -28.4136  -13.9334   21.7633 H   0  0  0  0  0  0
  -25.2777   -9.5668   22.4757 H   0  0  0  0  0  0
  -24.0019   -7.4612   22.7458 H   0  0  0  0  0  0
  -21.0837   -8.8781   19.8961 H   0  0  0  0  0  0
  -22.3706  -10.9680   19.6166 H   0  0  0  0  0  0
  -21.2030   -7.6138   23.9732 H   0  0  0  0  0  0
  -21.1497   -6.0503   25.9079 H   0  0  0  0  0  0
  -22.0588   -2.7607   23.2842 H   0  0  0  0  0  0
  -22.4058  -11.9932   22.4899 H   0  0  0  0  0  0
  -21.1038  -13.1260   22.2617 H   0  0  0  0  0  0
  -24.6218  -15.8277   20.4733 H   0  0  0  0  0  0
  -26.2279  -15.6240   19.9948 H   0  0  0  0  0  0
  -26.7214  -32.5415   23.1046 H   0  0  0  0  0  0
  -25.0137  -33.9672   25.0417 H   0  0  0  0  0  0
  -22.7256  -31.3004   21.3903 H   0  0  0  0  0  0
  -23.3758  -35.9604   23.3296 H   0  0  0  0  0  0
  -24.3589  -36.8893   22.2053 H   0  0  0  0  0  0
  -23.7237  -37.6481   23.6656 H   0  0  0  0  0  0
  -26.1052  -31.5275   20.5947 H   0  0  0  0  0  0
  -26.8524  -30.8273   21.9990 H   0  0  0  0  0  0
  -28.1298  -28.9525   21.1831 H   0  0  0  0  0  0
  -26.0053  -25.8827   19.0353 H   0  0  0  0  0  0
  -23.9796  -27.2810   19.0186 H   0  0  0  0  0  0
  -23.7763  -30.5755   19.3979 H   0  0  0  0  0  0
  -22.7646  -29.2370   19.8517 H   0  0  0  0  0  0
  -25.1301  -36.1908   25.0813 H   0  0  0  0  0  0
  -21.0010  -28.3292   24.1388 H   0  0  0  0  0  0
  -20.5708  -26.2326   23.3614 H   0  0  0  0  0  0
  -21.6658  -26.7464   22.1193 H   0  0  0  0  0  0
  -19.6918  -25.6309   21.1256 H   0  0  0  0  0  0
  -19.6692  -27.3208   20.6749 H   0  0  0  0  0  0
  -17.4212  -26.6697   21.4034 H   0  0  0  0  0  0
  -18.0343  -26.0090   22.9033 H   0  0  0  0  0  0
  -19.7934  -30.7305   24.2262 H   0  0  0  0  0  0
  -17.5007  -31.6272   24.5189 H   0  0  0  0  0  0
  -15.5352  -30.2997   23.7647 H   0  0  0  0  0  0
  -15.8694  -28.0853   22.7016 H   0  0  0  0  0  0
  -24.5922  -30.7053   25.7748 H   0  0  0  0  0  0
  -24.8935  -32.2884   26.4819 H   0  0  0  0  0  0
  -25.8074  -30.8908   27.0191 H   0  0  0  0  0  0
  -26.2872  -29.6750   24.1165 H   0  0  0  0  0  0
  -27.4054  -29.7221   25.4597 H   0  0  0  0  0  0
  -27.8745  -30.4269   23.9317 H   0  0  0  0  0  0
  -27.2674  -33.3596   26.2022 H   0  0  0  0  0  0
  -28.3880  -32.6836   25.0277 H   0  0  0  0  0  0
  -28.0729  -31.8417   26.5364 H   0  0  0  0  0  0
  -28.2597  -38.0088   24.7518 H   0  0  0  0  0  0
  -28.1074  -36.2619   24.6295 H   0  0  0  0  0  0
  -27.2306  -37.1457   25.8876 H   0  0  0  0  0  0
  -20.9410  -29.8778   21.6862 H   0  0  0  0  0  0
  -26.0168  -38.2847   24.1401 H   0  0  0  0  0  0
  -30.9951  -21.2964   19.8334 H   0  0  0  0  0  0
  -32.7394  -19.5881   19.5935 H   0  0  0  0  0  0
  -27.0497  -18.3860   20.2583 H   0  0  0  0  0  0
  -27.6518  -17.0120   21.1677 H   0  0  0  0  0  0
  -27.5081  -18.5691   21.9540 H   0  0  0  0  0  0
  -27.6809  -20.8379   21.2733 H   0  0  0  0  0  0
  -27.7687  -21.0310   19.5535 H   0  0  0  0  0  0
  -27.4928  -25.1530   21.5930 H   0  0  0  0  0  0
  -29.2280  -25.1283   21.4841 H   0  0  0  0  0  0
  -28.9419  -15.7472   20.8332 H   0  0  0  0  0  0
  -29.2375  -22.7081   21.5778 H   0  0  0  0  0  0
  1 25  1  0  0  0
  1 30  2  0  0  0
  1 81  1  0  0  0
  2  3  1  0  0  0
  2 25  1  0  0  0
  2 85  1  0  0  0
  2 86  1  0  0  0
  3  4  1  0  0  0
  3 87  1  0  0  0
  3 88  1  0  0  0
  4  5  1  0  0  0
  4 89  1  0  0  0
  4 90  1  0  0  0
  5  6  1  0  0  0
  5 26  1  0  0  0
  5 91  1  0  0  0
  6 25  1  0  0  0
  6 92  1  0  0  0
  6 93  1  0  0  0
  7  8  2  0  0  0
  7 26  1  0  0  0
  7 29  1  0  0  0
  8  9  1  0  0  0
  8 22  1  0  0  0
  9 10  1  0  0  0
  9 27  2  0  0  0
 10 11  2  0  0  0
 10 15  1  0  0  0
 11 12  1  0  0  0
 11 94  1  0  0  0
 12 13  2  0  0  0
 12 95  1  0  0  0
 13 14  1  0  0  0
 13 31  1  0  0  0
 14 15  2  0  0  0
 14 96  1  0  0  0
 15 97  1  0  0  0
 16 17  2  0  0  0
 16 21  1  0  0  0
 16 31  1  0  0  0
 17 18  1  0  0  0
 17 98  1  0  0  0
 18 19  2  0  0  0
 18 99  1  0  0  0
 19 20  1  0  0  0
 19 24  1  0  0  0
 20 21  2  0  0  0
 20100  1  0  0  0
 21 23  1  0  0  0
 22 28  1  0  0  0
 22 32  2  0  0  0
 26 27  1  0  0  0
 28101  1  0  0  0
 28102  1  0  0  0
 29103  1  0  0  0
 29104  1  0  0  0
 33 34  1  0  0  0
 33 66  1  0  0  0
 33 70  2  0  0  0
 34 36  1  0  0  0
 34 59  1  0  0  0
 34105  1  0  0  0
 35 44  2  0  0  0
 35 45  1  0  0  0
 35 68  1  0  0  0
 36 56  1  0  0  0
 36106  1  0  0  0
 37 39  1  0  0  0
 37 47  1  0  0  0
 37 66  1  0  0  0
 37107  1  0  0  0
 38 43  2  0  0  0
 38 46  1  0  0  0
 38 47  1  0  0  0
 39 64  1  0  0  0
 39 67  2  0  0  0
 40 52  1  0  0  0
 40 53  2  0  0  0
 40 58  1  0  0  0
 41108  1  0  0  0
 41109  1  0  0  0
 41110  1  0  0  0
 41 48  1  0  0  0
 42 43  1  0  0  0
 42 66  1  0  0  0
 42111  1  0  0  0
 42112  1  0  0  0
 43 44  1  0  0  0
 44113  1  0  0  0
 45 46  2  0  0  0
 45114  1  0  0  0
 46115  1  0  0  0
 47116  1  0  0  0
 47117  1  0  0  0
 48 56  1  0  0  0
 48 65  1  0  0  0
 48118  1  0  0  0
 49 50  1  0  0  0
 49 53  1  0  0  0
 49 64  1  0  0  0
 49119  1  0  0  0
 50 51  1  0  0  0
 50120  1  0  0  0
 50121  1  0  0  0
 51 52  1  0  0  0
 51122  1  0  0  0
 51123  1  0  0  0
 52124  1  0  0  0
 52125  1  0  0  0
 53 54  1  0  0  0
 54 55  2  0  0  0
 54126  1  0  0  0
 55 57  1  0  0  0
 55127  1  0  0  0
 56 69  2  0  0  0
 57 58  2  0  0  0
 57128  1  0  0  0
 58129  1  0  0  0
 59 60  1  0  0  0
 59 61  1  0  0  0
 59 62  1  0  0  0
 60130  1  0  0  0
 60131  1  0  0  0
 60132  1  0  0  0
 61133  1  0  0  0
 61134  1  0  0  0
 61135  1  0  0  0
 62136  1  0  0  0
 62137  1  0  0  0
 62138  1  0  0  0
 63 65  1  0  0  0
 63139  1  0  0  0
 63140  1  0  0  0
 63141  1  0  0  0
 64142  1  0  0  0
 65143  1  0  0  0
 68 80  1  0  0  0
 71 72  2  0  0  0
 71 73  1  0  0  0
 71144  1  0  0  0
 72 76  1  0  0  0
 72145  1  0  0  0
 73 74  2  0  0  0
 73 79  1  0  0  0
 74 75  1  0  0  0
 74 78  1  0  0  0
 75 76  2  0  0  0
 75 81  1  0  0  0
 76 84  1  0  0  0
 77 80  1  0  0  0
 77 82  1  0  0  0
 77 83  2  0  0  0
 78146  1  0  0  0
 78147  1  0  0  0
 78148  1  0  0  0
 79 82  1  0  0  0
 79149  1  0  0  0
 79150  1  0  0  0
 80151  1  0  0  0
 80152  1  0  0  0
 81153  1  0  0  0
 82154  1  0  0  0
M  ISO  4   1 100  68 101  80 101  81 100
M  END
> <chiral flag>
0

> <version>
0

> <s_m_source_file>
/data/baiqing/PycharmProjects/Reinvent-master-3.2/result/LINK_invent/BTK/process_docking_weight1_custom_product_contain_oxygen_bond_distance_aromatic_linkinvent_7_9_3/rearranged_h_0051.sdf

> <i_m_source_file_index>
2

> <r_mmod_Potential_Energy-OPLS-2005>
101.027137756348

> <r_mmod_Stretch_Energy-OPLS-2005>
135.927032470703

> <r_mmod_Bend_Energy-OPLS-2005>
177.012008666992

> <r_mmod_Torsional_Energy-OPLS-2005>
236.748992919922

> <r_mmod_Improper_Torsional_Energy-OPLS-2005>
5.8668327331543

> <r_mmod_Van_der_Waal_Energy-OPLS-2005>
139.277908325195

> <r_mmod_Electrostatic_Energy-OPLS-2005>
-429.952301025391

> <r_mmod_Solvation_Energy-OPLS-2005>
-250.455520629883

> <b_mmod_Minimization_Converged-OPLS-2005>
0

> <r_mmod_RMS_Derivative-OPLS-2005>
2.57539868354797

$$$$
2
                    3D
 Structure written by MMmdl.
167176  0  0  1  0            999 V2000
  -30.4094  -13.4623   21.3410 C   0  0  0  0  0  0
  -30.4347  -12.3985   19.2182 C   0  0  0  0  0  0
  -29.6156  -12.5386   17.9539 C   0  0  0  0  0  0
  -28.1483  -12.3523   18.2843 C   0  0  0  0  0  0
  -27.6459  -13.5132   19.1727 C   0  0  2  0  0  0
  -28.5293  -13.8509   20.2919 C   0  0  0  0  0  0
  -25.3111  -14.2417   19.9890 C   0  0  0  0  0  0
  -24.1809  -13.5271   20.1771 C   0  0  0  0  0  0
  -24.8452  -12.3089   20.1792 C   0  0  0  0  0  0
  -24.6203  -11.3710   20.9289 C   0  0  0  0  0  0
  -24.9775  -10.3949   23.1968 C   0  0  0  0  0  0
  -23.6915   -9.1489   23.3779 C   0  0  0  0  0  0
  -22.5605   -8.7552   22.1880 C   0  0  0  0  0  0
  -22.3590   -9.5684   20.8532 C   0  0  0  0  0  0
  -23.2478  -10.7096   20.2105 C   0  0  0  0  0  0
  -21.8128   -6.3482   22.7350 C   0  0  0  0  0  0
  -21.4423   -6.6492   24.0501 C   0  0  0  0  0  0
  -21.3454   -5.6540   25.0326 C   0  0  0  0  0  0
  -21.5899   -4.3132   24.7116 C   0  0  0  0  0  0
  -21.8677   -3.9526   23.3796 C   0  0  0  0  0  0
  -21.9566   -4.9536   22.3799 C   0  0  0  0  0  0
  -22.7669  -13.9536   20.6149 C   0  0  0  0  0  0
  -22.1942   -4.5232   21.1099 F   0  0  0  0  0  0
  -21.5532   -3.3839   25.6941 F   0  0  0  0  0  0
  -29.8067  -13.1781   20.2647 N   0  0  0  0  0  0
  -26.3230  -13.3482   19.6403 N   0  0  0  0  0  0
  -25.9490  -12.1188   19.6589 N   0  0  0  0  0  0
  -21.8686  -13.1863   21.1941 N   0  0  0  0  0  0
  -25.5585  -15.5840   20.0126 N   0  0  0  0  0  0
  -31.3981  -14.2399   21.2428 O   0  0  0  0  0  0
  -21.9347   -7.4622   21.8985 O   0  0  0  0  0  0
  -22.4255  -15.1008   20.4584 O   0  0  0  0  0  0
  -24.7274  -31.7237   23.1292 C   0  0  0  0  0  0
  -25.9684  -32.3972   23.7893 C   0  0  1  0  0  0
  -26.4763  -25.8085   20.6898 C   0  0  0  0  0  0
  -25.6095  -33.7878   24.1633 N   0  0  0  0  0  0
  -23.5529  -30.3388   21.4849 C   0  0  2  0  0  0
  -24.9109  -28.5283   20.1432 C   0  0  0  0  0  0
  -22.7825  -29.4011   22.4530 C   0  0  0  0  0  0
  -18.0350  -28.1419   22.8489 C   0  0  0  0  0  0
  -24.1511  -36.6923   23.2680 C   0  0  0  0  0  0
  -26.1127  -30.1421   21.5485 C   0  0  0  0  0  0
  -26.0261  -28.6237   20.9693 C   0  0  0  0  0  0
  -26.8096  -27.3017   21.1930 C   0  0  0  0  0  0
  -25.5934  -26.1484   19.6159 C   0  0  0  0  0  0
  -24.8176  -27.3432   19.3954 C   0  0  0  0  0  0
  -23.8277  -29.6328   20.1167 C   0  0  0  0  0  0
  -25.4166  -36.2569   24.0238 C   0  0  1  0  0  0
  -20.5973  -28.3750   23.1077 C   0  0  2  0  0  0
  -20.6734  -26.9364   22.5422 C   0  0  0  0  0  0
  -19.5706  -26.6333   21.5229 C   0  0  0  0  0  0
  -18.1922  -26.7955   22.1657 C   0  0  0  0  0  0
  -19.1627  -28.8915   23.2772 C   0  0  0  0  0  0
  -18.9549  -30.1502   23.8806 C   0  0  0  0  0  0
  -17.6533  -30.6580   24.0562 C   0  0  0  0  0  0
  -25.9194  -34.8987   23.4789 C   0  0  0  0  0  0
  -16.5414  -29.9060   23.6378 C   0  0  0  0  0  0
  -16.7345  -28.6494   23.0397 C   0  0  0  0  0  0
  -26.4702  -31.6357   25.0809 C   0  0  0  0  0  0
  -25.3630  -31.3909   26.1342 C   0  0  0  0  0  0
  -27.0735  -30.2591   24.7351 C   0  0  0  0  0  0
  -27.6029  -32.4429   25.7587 C   0  0  0  0  0  0
  -27.5529  -37.1604   24.8454 C   0  0  0  0  0  0
  -21.4439  -29.2936   22.3313 N   0  0  0  0  0  0
  -26.4196  -37.3434   23.9444 N   0  0  0  0  0  0
  -24.8360  -30.8013   22.0963 N   0  0  0  0  0  0
  -23.4115  -28.7757   23.3102 O   0  0  0  0  0  0
  -26.8147  -24.1192   20.9826 O   0  0  0  0  0  0
  -26.5898  -34.8680   22.4457 O   0  0  0  0  0  0
  -23.6233  -32.0813   23.5840 O   0  0  0  0  0  0
  -26.0590  -12.6113   22.6209 C   0  0  0  0  0  0
  -26.4380   -9.8590   21.4061 C   0  0  0  0  0  0
  -26.9749  -11.3428   22.0456 C   0  0  0  0  0  0
  -24.4584  -13.0283   22.7630 C   0  0  0  0  0  0
  -23.2296  -11.4095   22.5350 C   0  0  0  0  0  0
  -24.7971   -9.3024   21.3623 C   0  0  0  0  0  0
  -24.5029  -18.9407   21.8209 C   0  0  0  0  0  0
  -23.3264  -19.0821   22.4531 C   0  0  0  0  0  0
  -25.1661  -20.5097   20.9824 C   0  0  0  0  0  0
  -26.7311  -20.4299   22.2109 C   0  0  0  0  0  0
  -26.4214  -18.4448   22.3796 C   0  0  0  0  0  0
  -26.1147  -22.1098   21.4737 C   0  0  1  0  0  0
  -21.8324  -11.3815   23.2284 C   0  0  0  0  0  0
  -28.6388  -11.5172   22.1293 C   0  0  0  0  0  0
  -24.5862  -15.3201   22.7859 C   0  0  0  0  0  0
  -29.6496  -12.7658   22.3328 N   0  0  0  0  0  0
  -25.1796  -17.2531   22.0970 N   0  3  1  0  0  0
  -24.6404   -7.6655   20.7006 Cl  0  0  0  0  0  0
  -31.4667  -12.7270   19.0690 H   0  0  0  0  0  0
  -30.4811  -11.3553   19.5369 H   0  0  0  0  0  0
  -29.9607  -11.8141   17.2154 H   0  0  0  0  0  0
  -29.7731  -13.5282   17.5187 H   0  0  0  0  0  0
  -28.0508  -11.3667   18.7454 H   0  0  0  0  0  0
  -27.5780  -12.3359   17.3563 H   0  0  0  0  0  0
  -27.6176  -14.3858   18.5122 H   0  0  0  0  0  0
  -27.9643  -13.9217   21.2219 H   0  0  0  0  0  0
  -28.7715  -14.9043   20.1267 H   0  0  0  0  0  0
  -25.6621  -10.6414   23.9984 H   0  0  0  0  0  0
  -23.7242   -8.5222   24.2558 H   0  0  0  0  0  0
  -21.5790   -9.2042   20.2008 H   0  0  0  0  0  0
  -22.9431  -11.0756   19.2414 H   0  0  0  0  0  0
  -21.2689   -7.6744   24.3384 H   0  0  0  0  0  0
  -21.1041   -5.9255   26.0501 H   0  0  0  0  0  0
  -22.0191   -2.9158   23.1229 H   0  0  0  0  0  0
  -22.1124  -12.2359   21.4518 H   0  0  0  0  0  0
  -20.9693  -13.5637   21.4531 H   0  0  0  0  0  0
  -24.7331  -16.0214   19.6125 H   0  0  0  0  0  0
  -26.3629  -15.8084   19.4352 H   0  0  0  0  0  0
  -26.7758  -32.4167   23.0560 H   0  0  0  0  0  0
  -25.0199  -33.8860   24.9757 H   0  0  0  0  0  0
  -22.9175  -31.2003   21.2798 H   0  0  0  0  0  0
  -23.3799  -35.9227   23.3179 H   0  0  0  0  0  0
  -24.3580  -36.8772   22.2134 H   0  0  0  0  0  0
  -23.7286  -37.6025   23.6931 H   0  0  0  0  0  0
  -26.4436  -30.7758   20.7256 H   0  0  0  0  0  0
  -26.9438  -30.1773   22.2308 H   0  0  0  0  0  0
  -27.5962  -27.3668   21.9323 H   0  0  0  0  0  0
  -25.3059  -25.3086   18.9982 H   0  0  0  0  0  0
  -24.0337  -27.2724   18.6550 H   0  0  0  0  0  0
  -24.1380  -30.3760   19.3795 H   0  0  0  0  0  0
  -22.9015  -29.2037   19.7355 H   0  0  0  0  0  0
  -25.1419  -36.1193   25.0724 H   0  0  0  0  0  0
  -21.0042  -28.3379   24.1201 H   0  0  0  0  0  0
  -20.5519  -26.2369   23.3714 H   0  0  0  0  0  0
  -21.6604  -26.7219   22.1310 H   0  0  0  0  0  0
  -19.6809  -25.6224   21.1310 H   0  0  0  0  0  0
  -19.6653  -27.3070   20.6710 H   0  0  0  0  0  0
  -17.4194  -26.6778   21.4049 H   0  0  0  0  0  0
  -18.0281  -26.0083   22.9042 H   0  0  0  0  0  0
  -19.8023  -30.7352   24.2118 H   0  0  0  0  0  0
  -17.5080  -31.6258   24.5146 H   0  0  0  0  0  0
  -15.5401  -30.2934   23.7668 H   0  0  0  0  0  0
  -15.8798  -28.0742   22.7145 H   0  0  0  0  0  0
  -24.5836  -30.7206   25.7679 H   0  0  0  0  0  0
  -24.8834  -32.3204   26.4412 H   0  0  0  0  0  0
  -25.7707  -30.9326   27.0356 H   0  0  0  0  0  0
  -26.3405  -29.5789   24.3000 H   0  0  0  0  0  0
  -27.4352  -29.7606   25.6353 H   0  0  0  0  0  0
  -27.9393  -30.3418   24.0784 H   0  0  0  0  0  0
  -27.2434  -33.3802   26.1841 H   0  0  0  0  0  0
  -28.3982  -32.6876   25.0532 H   0  0  0  0  0  0
  -28.0584  -31.8861   26.5779 H   0  0  0  0  0  0
  -28.2376  -38.0042   24.7527 H   0  0  0  0  0  0
  -28.1176  -36.2545   24.6212 H   0  0  0  0  0  0
  -27.2252  -37.1106   25.8848 H   0  0  0  0  0  0
  -20.9774  -29.8583   21.6349 H   0  0  0  0  0  0
  -25.9912  -38.2399   24.1575 H   0  0  0  0  0  0
  -26.6855  -13.4421   22.8995 H   0  0  0  0  0  0
  -27.1940   -9.1671   21.0694 H   0  0  0  0  0  0
  -22.8042  -20.0279   22.4452 H   0  0  0  0  0  0
  -22.8802  -18.2725   23.0095 H   0  0  0  0  0  0
  -24.2517  -20.9213   20.5619 H   0  0  0  0  0  0
  -25.6536  -20.1439   20.0779 H   0  0  0  0  0  0
  -27.7695  -20.4385   21.8721 H   0  0  0  0  0  0
  -26.8366  -20.7017   23.2605 H   0  0  0  0  0  0
  -26.7182  -18.2199   23.4059 H   0  0  0  0  0  0
  -27.2494  -18.0110   21.8131 H   0  0  0  0  0  0
  -25.4418  -22.4756   22.2445 H   0  0  0  0  0  0
  -21.5681  -12.3668   23.6199 H   0  0  0  0  0  0
  -21.8347  -10.7289   24.1013 H   0  0  0  0  0  0
  -21.0231  -11.0565   22.5768 H   0  0  0  0  0  0
  -28.9551  -11.0336   21.2089 H   0  0  0  0  0  0
  -28.9575  -10.7949   22.8806 H   0  0  0  0  0  0
  -24.9910  -15.4218   23.7935 H   0  0  0  0  0  0
  -23.5275  -15.5350   22.9142 H   0  0  0  0  0  0
  -29.8467  -13.0184   23.2943 H   0  0  0  0  0  0
  -25.4332  -16.9012   21.1742 H   0  0  0  0  0  0
  1 25  1  0  0  0
  1 30  2  0  0  0
  1 86  1  0  0  0
  2  3  1  0  0  0
  2 25  1  0  0  0
  2 89  1  0  0  0
  2 90  1  0  0  0
  3  4  1  0  0  0
  3 91  1  0  0  0
  3 92  1  0  0  0
  4  5  1  0  0  0
  4 93  1  0  0  0
  4 94  1  0  0  0
  5  6  1  0  0  0
  5 26  1  0  0  0
  5 95  1  0  0  0
  6 25  1  0  0  0
  6 96  1  0  0  0
  6 97  1  0  0  0
  7  8  2  0  0  0
  7 26  1  0  0  0
  7 29  1  0  0  0
  8  9  1  0  0  0
  8 22  1  0  0  0
  9 10  1  0  0  0
  9 27  2  0  0  0
 10 11  2  0  0  0
 10 15  1  0  0  0
 11 12  1  0  0  0
 11 98  1  0  0  0
 12 13  2  0  0  0
 12 99  1  0  0  0
 13 14  1  0  0  0
 13 31  1  0  0  0
 14 15  2  0  0  0
 14100  1  0  0  0
 15101  1  0  0  0
 16 17  2  0  0  0
 16 21  1  0  0  0
 16 31  1  0  0  0
 17 18  1  0  0  0
 17102  1  0  0  0
 18 19  2  0  0  0
 18103  1  0  0  0
 19 20  1  0  0  0
 19 24  1  0  0  0
 20 21  2  0  0  0
 20104  1  0  0  0
 21 23  1  0  0  0
 22 28  1  0  0  0
 22 32  2  0  0  0
 26 27  1  0  0  0
 28105  1  0  0  0
 28106  1  0  0  0
 29107  1  0  0  0
 29108  1  0  0  0
 33 34  1  0  0  0
 33 66  1  0  0  0
 33 70  2  0  0  0
 34 36  1  0  0  0
 34 59  1  0  0  0
 34109  1  0  0  0
 35 44  2  0  0  0
 35 45  1  0  0  0
 35 68  1  0  0  0
 36 56  1  0  0  0
 36110  1  0  0  0
 37 39  1  0  0  0
 37 47  1  0  0  0
 37 66  1  0  0  0
 37111  1  0  0  0
 38 43  2  0  0  0
 38 46  1  0  0  0
 38 47  1  0  0  0
 39 64  1  0  0  0
 39 67  2  0  0  0
 40 52  1  0  0  0
 40 53  2  0  0  0
 40 58  1  0  0  0
 41112  1  0  0  0
 41113  1  0  0  0
 41114  1  0  0  0
 41 48  1  0  0  0
 42 43  1  0  0  0
 42 66  1  0  0  0
 42115  1  0  0  0
 42116  1  0  0  0
 43 44  1  0  0  0
 44117  1  0  0  0
 45 46  2  0  0  0
 45118  1  0  0  0
 46119  1  0  0  0
 47120  1  0  0  0
 47121  1  0  0  0
 48 56  1  0  0  0
 48 65  1  0  0  0
 48122  1  0  0  0
 49 50  1  0  0  0
 49 53  1  0  0  0
 49 64  1  0  0  0
 49123  1  0  0  0
 50 51  1  0  0  0
 50124  1  0  0  0
 50125  1  0  0  0
 51 52  1  0  0  0
 51126  1  0  0  0
 51127  1  0  0  0
 52128  1  0  0  0
 52129  1  0  0  0
 53 54  1  0  0  0
 54 55  2  0  0  0
 54130  1  0  0  0
 55 57  1  0  0  0
 55131  1  0  0  0
 56 69  2  0  0  0
 57 58  2  0  0  0
 57132  1  0  0  0
 58133  1  0  0  0
 59 60  1  0  0  0
 59 61  1  0  0  0
 59 62  1  0  0  0
 60134  1  0  0  0
 60135  1  0  0  0
 60136  1  0  0  0
 61137  1  0  0  0
 61138  1  0  0  0
 61139  1  0  0  0
 62140  1  0  0  0
 62141  1  0  0  0
 62142  1  0  0  0
 63 65  1  0  0  0
 63143  1  0  0  0
 63144  1  0  0  0
 63145  1  0  0  0
 64146  1  0  0  0
 65147  1  0  0  0
 68 82  1  0  0  0
 71 73  2  0  0  0
 71 74  1  0  0  0
 71148  1  0  0  0
 72 73  1  0  0  0
 72 76  2  0  0  0
 72149  1  0  0  0
 73 84  1  0  0  0
 74 75  2  0  0  0
 74 85  1  0  0  0
 75 76  1  0  0  0
 75 83  1  0  0  0
 76 88  1  0  0  0
 77 78  2  0  0  0
 77 79  1  0  0  0
 77 87  1  0  0  0
 78150  1  0  0  0
 78151  1  0  0  0
 79 82  1  0  0  0
 79152  1  0  0  0
 79153  1  0  0  0
 80 81  1  0  0  0
 80 82  1  0  0  0
 80154  1  0  0  0
 80155  1  0  0  0
 81 87  1  0  0  0
 81156  1  0  0  0
 81157  1  0  0  0
 82158  1  0  0  0
 83159  1  0  0  0
 83160  1  0  0  0
 83161  1  0  0  0
 84 86  1  0  0  0
 84162  1  0  0  0
 84163  1  0  0  0
 85164  1  0  0  0
 85165  1  0  0  0
 85 87  1  0  0  0
 86166  1  0  0  0
 87167  1  0  0  0
M  CHG  1  87   1
M  ISO  4   1 100  68 101  82 101  86 100
M  END
> <chiral flag>
0

> <version>
0

> <s_m_source_file>
/data/baiqing/PycharmProjects/Reinvent-master-3.2/result/LINK_invent/BTK/process_docking_weight1_custom_product_contain_oxygen_bond_distance_aromatic_linkinvent_7_9_3/rearranged_h_0051.sdf

> <i_m_source_file_index>
3

> <r_mmod_Potential_Energy-OPLS-2005>
23027.091796875

> <r_mmod_Stretch_Energy-OPLS-2005>
12998.02734375

> <r_mmod_Bend_Energy-OPLS-2005>
2315.0537109375

> <r_mmod_Torsional_Energy-OPLS-2005>
543.417053222656

> <r_mmod_Improper_Torsional_Energy-OPLS-2005>
26.3047218322754

> <r_mmod_Van_der_Waal_Energy-OPLS-2005>
3817.70068359375

> <r_mmod_Electrostatic_Energy-OPLS-2005>
-398.871704101562

> <r_mmod_Solvation_Energy-OPLS-2005>
-423.791290283203

> <b_mmod_Minimization_Converged-OPLS-2005>
0

> <r_mmod_RMS_Derivative-OPLS-2005>
12.711106300354

$$$$
3
                    3D
 Structure written by MMmdl.
165174  0  0  1  0            999 V2000
  -30.6565  -14.6131   20.4834 C   0  0  0  0  0  0
  -30.4250  -12.3708   19.4601 C   0  0  0  0  0  0
  -29.5028  -12.4945   18.2278 C   0  0  0  0  0  0
  -28.0264  -12.3393   18.6396 C   0  0  0  0  0  0
  -27.6507  -13.2194   19.8618 C   0  0  2  0  0  0
  -28.6942  -13.0958   20.9959 C   0  0  0  0  0  0
  -25.2547  -13.8181   20.5691 C   0  0  0  0  0  0
  -24.1819  -13.0440   20.9193 C   0  0  0  0  0  0
  -24.6390  -11.6912   20.8743 C   0  0  0  0  0  0
  -23.9063  -10.4294   21.0407 C   0  0  0  0  0  0
  -24.3617   -9.4210   21.9183 C   0  0  0  0  0  0
  -23.6295   -8.2244   22.0755 C   0  0  0  0  0  0
  -22.4278   -8.0282   21.3543 C   0  0  0  0  0  0
  -21.9910   -9.0256   20.4647 C   0  0  0  0  0  0
  -22.7238  -10.2134   20.3057 C   0  0  0  0  0  0
  -21.6851   -6.0735   22.5279 C   0  0  0  0  0  0
  -21.4016   -6.5640   23.8212 C   0  0  0  0  0  0
  -21.3658   -5.6793   24.9174 C   0  0  0  0  0  0
  -21.6045   -4.3056   24.7226 C   0  0  0  0  0  0
  -21.8818   -3.8146   23.4347 C   0  0  0  0  0  0
  -21.9196   -4.6963   22.3402 C   0  0  0  0  0  0
  -22.7842  -13.5230   21.1855 C   0  0  0  0  0  0
  -22.1662   -4.2148   21.0979 F   0  0  0  0  0  0
  -21.5628   -3.4540   25.7737 F   0  0  0  0  0  0
  -30.0124  -13.4077   20.4275 N   0  0  0  0  0  0
  -26.2974  -12.9367   20.3323 N   0  0  0  0  0  0
  -25.9321  -11.6518   20.5771 N   0  0  0  0  0  0
  -22.0489  -12.8220   22.0412 N   0  0  0  0  0  0
  -25.4251  -15.1903   20.4099 N   0  0  0  0  0  0
  -31.8255  -14.7325   20.1084 O   0  0  0  0  0  0
  -21.6643   -6.8878   21.4240 O   0  0  0  0  0  0
  -22.3524  -14.5537   20.6705 O   0  0  0  0  0  0
  -24.6235  -31.8619   23.2037 C   0  0  0  0  0  0
  -25.9098  -32.4786   23.8361 C   0  0  1  0  0  0
  -27.2231  -27.3401   20.1100 C   0  0  0  0  0  0
  -25.5930  -33.8589   24.2291 N   0  0  0  0  0  0
  -23.4153  -30.4862   21.5465 C   0  0  2  0  0  0
  -24.8593  -28.9451   20.1101 C   0  0  0  0  0  0
  -22.7460  -29.4633   22.4948 C   0  0  0  0  0  0
  -18.0282  -28.1381   22.8492 C   0  0  0  0  0  0
  -24.1488  -36.7296   23.2637 C   0  0  0  0  0  0
  -25.9542  -30.7985   21.3718 C   0  0  0  0  0  0
  -26.0261  -29.4275   20.7145 C   0  0  0  0  0  0
  -27.2079  -28.6350   20.7076 C   0  0  0  0  0  0
  -26.0327  -26.9068   19.4802 C   0  0  0  0  0  0
  -24.8633  -27.6889   19.4858 C   0  0  0  0  0  0
  -23.6270  -29.8223   20.1607 C   0  0  0  0  0  0
  -25.4112  -36.3091   24.0329 C   0  0  1  0  0  0
  -20.5883  -28.3677   23.1294 C   0  0  2  0  0  0
  -20.6774  -26.9405   22.5414 C   0  0  0  0  0  0
  -19.5750  -26.6383   21.5216 C   0  0  0  0  0  0
  -18.1927  -26.7931   22.1624 C   0  0  0  0  0  0
  -19.1535  -28.8848   23.2890 C   0  0  0  0  0  0
  -18.9459  -30.1455   23.8897 C   0  0  0  0  0  0
  -17.6458  -30.6584   24.0566 C   0  0  0  0  0  0
  -25.9050  -34.9457   23.5106 C   0  0  0  0  0  0
  -16.5350  -29.9081   23.6328 C   0  0  0  0  0  0
  -16.7271  -28.6501   23.0349 C   0  0  0  0  0  0
  -26.4492  -31.6588   25.0721 C   0  0  0  0  0  0
  -25.3734  -31.3718   26.1453 C   0  0  0  0  0  0
  -27.0331  -30.3017   24.6156 C   0  0  0  0  0  0
  -27.6058  -32.4319   25.7486 C   0  0  0  0  0  0
  -27.5581  -37.1799   24.8463 C   0  0  0  0  0  0
  -21.4177  -29.3038   22.3692 N   0  0  0  0  0  0
  -26.4287  -37.3788   23.9414 N   0  0  0  0  0  0
  -24.6829  -31.0655   22.0973 N   0  0  0  0  0  0
  -23.4201  -28.8172   23.3017 O   0  0  0  0  0  0
  -28.3648  -26.5313   20.1661 O   0  0  0  0  0  0
  -26.5615  -34.8919   22.4669 O   0  0  0  0  0  0
  -23.5405  -32.1408   23.7379 O   0  0  0  0  0  0
  -29.1525  -18.1864   22.3018 C   0  0  0  0  0  0
  -28.6500  -19.2762   23.0298 C   0  0  0  0  0  0
  -29.5898  -18.3509   20.9752 C   0  0  0  0  0  0
  -29.4964  -19.6713   20.3876 C   0  0  0  0  0  0
  -28.9673  -20.8040   21.1185 C   0  0  0  0  0  0
  -28.5578  -20.5618   22.4639 C   0  0  0  0  0  0
  -27.4305  -24.2339   20.8417 C   0  0  0  0  0  0
  -29.6967  -24.4016   19.7428 C   0  0  0  0  0  0
  -27.4786  -22.7164   20.4831 C   0  0  0  0  0  0
  -28.2933  -25.0851   19.8741 C   0  0  2  0  0  0
  -29.9694  -23.0682   20.5466 C   0  0  1  0  0  0
  -29.9589  -19.8524   18.9463 C   0  0  0  0  0  0
  -30.5064  -23.3712   21.9580 C   0  0  0  0  0  0
  -30.2054  -17.1111   20.2422 C   0  0  0  0  0  0
  -28.8284  -22.1239   20.5507 N   0  0  0  0  0  0
  -29.8915  -15.7207   20.7178 N   0  0  0  0  0  0
  -27.9515  -21.8150   23.4962 Cl  0  0  0  0  0  0
  -31.4695  -12.4712   19.1605 H   0  0  0  0  0  0
  -30.3382  -11.3803   19.9096 H   0  0  0  0  0  0
  -29.7642  -11.7402   17.4842 H   0  0  0  0  0  0
  -29.6518  -13.4632   17.7478 H   0  0  0  0  0  0
  -27.8621  -11.2877   18.8773 H   0  0  0  0  0  0
  -27.3724  -12.5643   17.7962 H   0  0  0  0  0  0
  -27.6648  -14.2510   19.5095 H   0  0  0  0  0  0
  -28.6951  -12.0874   21.4123 H   0  0  0  0  0  0
  -28.4491  -13.7638   21.8232 H   0  0  0  0  0  0
  -25.2764   -9.5686   22.4756 H   0  0  0  0  0  0
  -24.0006   -7.4635   22.7471 H   0  0  0  0  0  0
  -21.0842   -8.8770   19.8952 H   0  0  0  0  0  0
  -22.3696  -10.9671   19.6165 H   0  0  0  0  0  0
  -21.2007   -7.6148   23.9713 H   0  0  0  0  0  0
  -21.1480   -6.0524   25.9075 H   0  0  0  0  0  0
  -22.0599   -2.7609   23.2847 H   0  0  0  0  0  0
  -22.4113  -11.9883   22.4794 H   0  0  0  0  0  0
  -21.1105  -13.1236   22.2622 H   0  0  0  0  0  0
  -24.6565  -15.8430   20.5199 H   0  0  0  0  0  0
  -26.2726  -15.6316   20.0768 H   0  0  0  0  0  0
  -26.7160  -32.5461   23.1106 H   0  0  0  0  0  0
  -25.0103  -33.9745   25.0454 H   0  0  0  0  0  0
  -22.7080  -31.3060   21.4055 H   0  0  0  0  0  0
  -23.3751  -35.9628   23.3298 H   0  0  0  0  0  0
  -24.3590  -36.8917   22.2054 H   0  0  0  0  0  0
  -23.7232  -37.6493   23.6657 H   0  0  0  0  0  0
  -26.0848  -31.5618   20.6035 H   0  0  0  0  0  0
  -26.8355  -30.8453   21.9997 H   0  0  0  0  0  0
  -28.1032  -29.0016   21.1896 H   0  0  0  0  0  0
  -25.9698  -25.9505   18.9857 H   0  0  0  0  0  0
  -23.9681  -27.3140   19.0085 H   0  0  0  0  0  0
  -23.7437  -30.5991   19.4038 H   0  0  0  0  0  0
  -22.7476  -29.2500   19.8604 H   0  0  0  0  0  0
  -25.1288  -36.1945   25.0820 H   0  0  0  0  0  0
  -20.9977  -28.3245   24.1413 H   0  0  0  0  0  0
  -20.5685  -26.2283   23.3607 H   0  0  0  0  0  0
  -21.6639  -26.7442   22.1197 H   0  0  0  0  0  0
  -19.6906  -25.6297   21.1235 H   0  0  0  0  0  0
  -19.6682  -27.3201   20.6755 H   0  0  0  0  0  0
  -17.4200  -26.6684   21.4023 H   0  0  0  0  0  0
  -18.0315  -26.0072   22.9016 H   0  0  0  0  0  0
  -19.7937  -30.7277   24.2255 H   0  0  0  0  0  0
  -17.5011  -31.6264   24.5171 H   0  0  0  0  0  0
  -15.5351  -30.2981   23.7654 H   0  0  0  0  0  0
  -15.8674  -28.0822   22.7054 H   0  0  0  0  0  0
  -24.5915  -30.7059   25.7786 H   0  0  0  0  0  0
  -24.8916  -32.2879   26.4878 H   0  0  0  0  0  0
  -25.8069  -30.8899   27.0226 H   0  0  0  0  0  0
  -26.2893  -29.6776   24.1186 H   0  0  0  0  0  0
  -27.4053  -29.7265   25.4643 H   0  0  0  0  0  0
  -27.8753  -30.4317   23.9356 H   0  0  0  0  0  0
  -27.2674  -33.3619   26.2066 H   0  0  0  0  0  0
  -28.3863  -32.6879   25.0309 H   0  0  0  0  0  0
  -28.0732  -31.8441   26.5397 H   0  0  0  0  0  0
  -28.2585  -38.0111   24.7542 H   0  0  0  0  0  0
  -28.1087  -36.2644   24.6241 H   0  0  0  0  0  0
  -27.2309  -37.1396   25.8869 H   0  0  0  0  0  0
  -20.9339  -29.8770   21.6917 H   0  0  0  0  0  0
  -26.0166  -38.2858   24.1433 H   0  0  0  0  0  0
  -29.2194  -17.2231   22.7874 H   0  0  0  0  0  0
  -28.3373  -19.1271   24.0528 H   0  0  0  0  0  0
  -27.7468  -24.3925   21.8710 H   0  0  0  0  0  0
  -26.3925  -24.5626   20.8117 H   0  0  0  0  0  0
  -30.4745  -25.1295   19.9762 H   0  0  0  0  0  0
  -29.8482  -24.1807   18.6852 H   0  0  0  0  0  0
  -27.1083  -22.5829   19.4659 H   0  0  0  0  0  0
  -26.7802  -22.1688   21.1160 H   0  0  0  0  0  0
  -27.8546  -24.9882   18.8809 H   0  0  0  0  0  0
  -30.7833  -22.5606   20.0264 H   0  0  0  0  0  0
  -30.9855  -19.5065   18.8279 H   0  0  0  0  0  0
  -29.9267  -20.8871   18.6095 H   0  0  0  0  0  0
  -29.3219  -19.2790   18.2733 H   0  0  0  0  0  0
  -29.7810  -23.8911   22.5806 H   0  0  0  0  0  0
  -31.3922  -24.0052   21.9048 H   0  0  0  0  0  0
  -30.8035  -22.4620   22.4801 H   0  0  0  0  0  0
  -31.2875  -17.2537   20.2493 H   0  0  0  0  0  0
  -29.9102  -17.1474   19.1932 H   0  0  0  0  0  0
  -28.9413  -15.5497   21.0073 H   0  0  0  0  0  0
  1 25  1  0  0  0
  1 30  2  0  0  0
  1 86  1  0  0  0
  2  3  1  0  0  0
  2 25  1  0  0  0
  2 88  1  0  0  0
  2 89  1  0  0  0
  3  4  1  0  0  0
  3 90  1  0  0  0
  3 91  1  0  0  0
  4  5  1  0  0  0
  4 92  1  0  0  0
  4 93  1  0  0  0
  5  6  1  0  0  0
  5 26  1  0  0  0
  5 94  1  0  0  0
  6 25  1  0  0  0
  6 95  1  0  0  0
  6 96  1  0  0  0
  7  8  2  0  0  0
  7 26  1  0  0  0
  7 29  1  0  0  0
  8  9  1  0  0  0
  8 22  1  0  0  0
  9 10  1  0  0  0
  9 27  2  0  0  0
 10 11  2  0  0  0
 10 15  1  0  0  0
 11 12  1  0  0  0
 11 97  1  0  0  0
 12 13  2  0  0  0
 12 98  1  0  0  0
 13 14  1  0  0  0
 13 31  1  0  0  0
 14 15  2  0  0  0
 14 99  1  0  0  0
 15100  1  0  0  0
 16 17  2  0  0  0
 16 21  1  0  0  0
 16 31  1  0  0  0
 17 18  1  0  0  0
 17101  1  0  0  0
 18 19  2  0  0  0
 18102  1  0  0  0
 19 20  1  0  0  0
 19 24  1  0  0  0
 20 21  2  0  0  0
 20103  1  0  0  0
 21 23  1  0  0  0
 22 28  1  0  0  0
 22 32  2  0  0  0
 26 27  1  0  0  0
 28104  1  0  0  0
 28105  1  0  0  0
 29106  1  0  0  0
 29107  1  0  0  0
 33 34  1  0  0  0
 33 66  1  0  0  0
 33 70  2  0  0  0
 34 36  1  0  0  0
 34 59  1  0  0  0
 34108  1  0  0  0
 35 44  2  0  0  0
 35 45  1  0  0  0
 35 68  1  0  0  0
 36 56  1  0  0  0
 36109  1  0  0  0
 37 39  1  0  0  0
 37 47  1  0  0  0
 37 66  1  0  0  0
 37110  1  0  0  0
 38 43  2  0  0  0
 38 46  1  0  0  0
 38 47  1  0  0  0
 39 64  1  0  0  0
 39 67  2  0  0  0
 40 52  1  0  0  0
 40 53  2  0  0  0
 40 58  1  0  0  0
 41111  1  0  0  0
 41112  1  0  0  0
 41113  1  0  0  0
 41 48  1  0  0  0
 42 43  1  0  0  0
 42 66  1  0  0  0
 42114  1  0  0  0
 42115  1  0  0  0
 43 44  1  0  0  0
 44116  1  0  0  0
 45 46  2  0  0  0
 45117  1  0  0  0
 46118  1  0  0  0
 47119  1  0  0  0
 47120  1  0  0  0
 48 56  1  0  0  0
 48 65  1  0  0  0
 48121  1  0  0  0
 49 50  1  0  0  0
 49 53  1  0  0  0
 49 64  1  0  0  0
 49122  1  0  0  0
 50 51  1  0  0  0
 50123  1  0  0  0
 50124  1  0  0  0
 51 52  1  0  0  0
 51125  1  0  0  0
 51126  1  0  0  0
 52127  1  0  0  0
 52128  1  0  0  0
 53 54  1  0  0  0
 54 55  2  0  0  0
 54129  1  0  0  0
 55 57  1  0  0  0
 55130  1  0  0  0
 56 69  2  0  0  0
 57 58  2  0  0  0
 57131  1  0  0  0
 58132  1  0  0  0
 59 60  1  0  0  0
 59 61  1  0  0  0
 59 62  1  0  0  0
 60133  1  0  0  0
 60134  1  0  0  0
 60135  1  0  0  0
 61136  1  0  0  0
 61137  1  0  0  0
 61138  1  0  0  0
 62139  1  0  0  0
 62140  1  0  0  0
 62141  1  0  0  0
 63 65  1  0  0  0
 63142  1  0  0  0
 63143  1  0  0  0
 63144  1  0  0  0
 64145  1  0  0  0
 65146  1  0  0  0
 68 80  1  0  0  0
 71 72  2  0  0  0
 71 73  1  0  0  0
 71147  1  0  0  0
 72 76  1  0  0  0
 72148  1  0  0  0
 73 74  2  0  0  0
 73 84  1  0  0  0
 74 75  1  0  0  0
 74 82  1  0  0  0
 75 76  2  0  0  0
 75 85  1  0  0  0
 76 87  1  0  0  0
 77 79  1  0  0  0
 77 80  1  0  0  0
 77149  1  0  0  0
 77150  1  0  0  0
 78 80  1  0  0  0
 78 81  1  0  0  0
 78151  1  0  0  0
 78152  1  0  0  0
 79 85  1  0  0  0
 79153  1  0  0  0
 79154  1  0  0  0
 80155  1  0  0  0
 81 83  1  0  0  0
 81 85  1  0  0  0
 81156  1  0  0  0
 82157  1  0  0  0
 82158  1  0  0  0
 82159  1  0  0  0
 83160  1  0  0  0
 83161  1  0  0  0
 83162  1  0  0  0
 84 86  1  0  0  0
 84163  1  0  0  0
 84164  1  0  0  0
 86165  1  0  0  0
M  ISO  4   1 100  68 101  80 101  86 100
M  END
> <chiral flag>
0

> <version>
0

> <s_m_source_file>
/data/baiqing/PycharmProjects/Reinvent-master-3.2/result/LINK_invent/BTK/process_docking_weight1_custom_product_contain_oxygen_bond_distance_aromatic_linkinvent_7_9_3/rearranged_h_0051.sdf

> <i_m_source_file_index>
4

> <r_mmod_Potential_Energy-OPLS-2005>
77.7680282592773

> <r_mmod_Stretch_Energy-OPLS-2005>
77.1945190429688

> <r_mmod_Bend_Energy-OPLS-2005>
138.500518798828

> <r_mmod_Torsional_Energy-OPLS-2005>
283.325714111328

> <r_mmod_Improper_Torsional_Energy-OPLS-2005>
8.23305320739746

> <r_mmod_Van_der_Waal_Energy-OPLS-2005>
157.091873168945

> <r_mmod_Electrostatic_Energy-OPLS-2005>
-421.221588134766

> <r_mmod_Solvation_Energy-OPLS-2005>
-206.038818359375

> <b_mmod_Minimization_Converged-OPLS-2005>
0

> <r_mmod_RMS_Derivative-OPLS-2005>
0.809423327445984

$$$$
4
                    3D
 Structure written by MMmdl.
165173  0  0  1  0            999 V2000
  -30.3429  -14.3685   20.9510 C   0  0  0  0  0  0
  -30.7575  -12.4628   19.2878 C   0  0  0  0  0  0
  -29.7901  -12.5184   18.0529 C   0  0  0  0  0  0
  -28.2996  -12.3289   18.3722 C   0  0  0  0  0  0
  -28.0303  -13.1301   19.6170 C   0  0  2  0  0  0
  -28.9729  -12.4832   20.7004 C   0  0  0  0  0  0
  -25.8210  -13.8416   19.9932 C   0  0  0  0  0  0
  -24.3150  -13.2636   21.0723 C   0  0  0  0  0  0
  -24.3048  -12.0492   21.5489 C   0  0  0  0  0  0
  -23.7395  -10.6246   21.3177 C   0  0  0  0  0  0
  -24.2666   -9.5352   22.0636 C   0  0  0  0  0  0
  -23.6311   -8.2711   22.0846 C   0  0  0  0  0  0
  -22.4498   -8.0581   21.3393 C   0  0  0  0  0  0
  -22.0166   -9.0786   20.4699 C   0  0  0  0  0  0
  -22.6622  -10.3365   20.4430 C   0  0  0  0  0  0
  -21.7029   -6.0830   22.5086 C   0  0  0  0  0  0
  -21.4123   -6.5735   23.8016 C   0  0  0  0  0  0
  -21.3668   -5.6896   24.9029 C   0  0  0  0  0  0
  -21.6012   -4.3139   24.7127 C   0  0  0  0  0  0
  -21.8794   -3.8213   23.4259 C   0  0  0  0  0  0
  -21.9223   -4.7013   22.3307 C   0  0  0  0  0  0
  -22.7253  -13.6921   21.4953 C   0  0  0  0  0  0
  -22.1704   -4.2124   21.0899 F   0  0  0  0  0  0
  -21.5598   -3.4645   25.7668 F   0  0  0  0  0  0
  -30.1781  -13.1177   20.4766 N   0  0  0  0  0  0
  -26.5387  -13.3034   19.7039 N   0  0  0  0  0  0
  -24.9984  -13.1255   20.7614 N   0  0  0  0  0  0
  -21.9836  -12.8900   22.2694 N   0  0  0  0  0  0
  -26.4028  -15.0274   19.2693 N   0  0  0  0  0  0
  -31.3486  -14.9797   20.5342 O   0  0  0  0  0  0
  -21.7076   -6.8950   21.3945 O   0  0  0  0  0  0
  -22.0781  -14.6598   21.0915 O   0  0  0  0  0  0
  -24.6551  -31.8375   23.1929 C   0  0  0  0  0  0
  -25.9300  -32.4633   23.8278 C   0  0  1  0  0  0
  -26.9811  -26.8861   20.2590 C   0  0  0  0  0  0
  -25.6045  -33.8460   24.2166 N   0  0  0  0  0  0
  -23.4551  -30.4743   21.5361 C   0  0  2  0  0  0
  -24.8753  -28.8975   20.0898 C   0  0  0  0  0  0
  -22.7588  -29.4538   22.4742 C   0  0  0  0  0  0
  -18.0306  -28.1401   22.8458 C   0  0  0  0  0  0
  -24.1482  -36.7203   23.2642 C   0  0  0  0  0  0
  -26.0257  -30.6347   21.4326 C   0  0  0  0  0  0
  -26.0536  -29.2333   20.7679 C   0  0  0  0  0  0
  -27.1181  -28.2357   20.8452 C   0  0  0  0  0  0
  -25.8566  -26.7597   19.4325 C   0  0  0  0  0  0
  -24.8108  -27.6926   19.3853 C   0  0  0  0  0  0
  -23.6898  -29.8459   20.1374 C   0  0  0  0  0  0
  -25.4128  -36.3005   24.0302 C   0  0  1  0  0  0
  -20.5931  -28.3756   23.1167 C   0  0  2  0  0  0
  -20.6800  -26.9439   22.5383 C   0  0  0  0  0  0
  -19.5769  -26.6371   21.5201 C   0  0  0  0  0  0
  -18.1945  -26.7929   22.1609 C   0  0  0  0  0  0
  -19.1568  -28.8890   23.2814 C   0  0  0  0  0  0
  -18.9485  -30.1479   23.8856 C   0  0  0  0  0  0
  -17.6484  -30.6596   24.0556 C   0  0  0  0  0  0
  -25.9110  -34.9380   23.5028 C   0  0  0  0  0  0
  -16.5372  -29.9087   23.6351 C   0  0  0  0  0  0
  -16.7289  -28.6509   23.0362 C   0  0  0  0  0  0
  -26.4580  -31.6574   25.0787 C   0  0  0  0  0  0
  -25.3716  -31.3836   26.1454 C   0  0  0  0  0  0
  -27.0501  -30.2930   24.6575 C   0  0  0  0  0  0
  -27.6062  -32.4393   25.7598 C   0  0  0  0  0  0
  -27.5571  -37.1760   24.8457 C   0  0  0  0  0  0
  -21.4276  -29.3082   22.3511 N   0  0  0  0  0  0
  -26.4272  -37.3733   23.9418 N   0  0  0  0  0  0
  -24.7331  -31.0091   22.1047 N   0  0  0  0  0  0
  -23.4190  -28.8050   23.2895 O   0  0  0  0  0  0
  -27.7362  -25.6428   20.4998 O   0  0  0  0  0  0
  -26.5675  -34.8895   22.4598 O   0  0  0  0  0  0
  -23.5640  -32.1378   23.7058 O   0  0  0  0  0  0
  -26.6331  -11.7940   21.3676 C   0  0  0  0  0  0
  -25.4332  -11.3714   19.4795 C   0  0  0  0  0  0
  -23.9863  -14.9738   19.5320 C   0  0  0  0  0  0
  -26.5892  -13.8947   22.1465 C   0  0  0  0  0  0
  -25.2041  -15.4722   21.3611 C   0  0  0  0  0  0
  -24.1829  -12.9624   18.6549 C   0  0  0  0  0  0
  -22.4476  -18.3668   19.5202 C   0  0  0  0  0  0
  -26.5635  -21.2813   20.6398 C   0  0  0  0  0  0
  -23.5023  -18.9218   20.1391 C   0  0  0  0  0  0
  -27.0998  -22.6136   20.9809 C   0  0  0  0  0  0
  -26.4619  -19.8545   21.4059 C   0  0  0  0  0  0
  -28.0426  -14.4694   22.6267 C   0  0  0  0  0  0
  -25.5808  -17.1364   21.7578 C   0  0  0  0  0  0
  -24.9521  -18.6573   19.7749 C   0  0  0  0  0  0
  -27.2528  -24.1071   20.1167 C   0  0  0  0  0  0
  -29.2558  -14.9191   21.6929 N   0  0  0  0  0  0
  -25.7872  -18.5969   20.9748 N   0  0  0  0  0  0
  -27.0268  -19.7746   22.5005 O   0  0  0  0  0  0
  -23.4775  -12.6921   17.5300 F   0  0  0  0  0  0
  -31.7050  -12.9358   19.0209 H   0  0  0  0  0  0
  -31.0188  -11.4285   19.5225 H   0  0  0  0  0  0
  -30.1067  -11.8014   17.2935 H   0  0  0  0  0  0
  -29.9060  -13.4977   17.5886 H   0  0  0  0  0  0
  -28.0641  -11.2744   18.5153 H   0  0  0  0  0  0
  -27.6964  -12.6745   17.5319 H   0  0  0  0  0  0
  -28.4499  -14.0936   19.3352 H   0  0  0  0  0  0
  -29.0658  -11.4078   20.5252 H   0  0  0  0  0  0
  -28.8297  -12.4731   21.7686 H   0  0  0  0  0  0
  -25.1184   -9.6985   22.7086 H   0  0  0  0  0  0
  -24.0240   -7.4921   22.7212 H   0  0  0  0  0  0
  -21.1421   -8.9199   19.8551 H   0  0  0  0  0  0
  -22.2598  -11.1270   19.8247 H   0  0  0  0  0  0
  -21.2223   -7.6257   23.9529 H   0  0  0  0  0  0
  -21.1480   -6.0664   25.8893 H   0  0  0  0  0  0
  -22.0543   -2.7679   23.2799 H   0  0  0  0  0  0
  -22.3358  -12.0262   22.6448 H   0  0  0  0  0  0
  -21.0322  -13.1624   22.4791 H   0  0  0  0  0  0
  -25.9482  -15.9217   19.3496 H   0  0  0  0  0  0
  -27.2247  -15.0287   18.6835 H   0  0  0  0  0  0
  -26.7356  -32.5138   23.0964 H   0  0  0  0  0  0
  -25.0212  -33.9580   25.0334 H   0  0  0  0  0  0
  -22.7651  -31.3104   21.3987 H   0  0  0  0  0  0
  -23.3784  -35.9486   23.3265 H   0  0  0  0  0  0
  -24.3572  -36.8884   22.2066 H   0  0  0  0  0  0
  -23.7193  -37.6355   23.6723 H   0  0  0  0  0  0
  -26.2346  -31.3814   20.6654 H   0  0  0  0  0  0
  -26.8805  -30.6594   22.0959 H   0  0  0  0  0  0
  -27.9729  -28.4541   21.4722 H   0  0  0  0  0  0
  -25.6797  -25.8629   18.8664 H   0  0  0  0  0  0
  -23.9267  -27.4523   18.8126 H   0  0  0  0  0  0
  -23.8789  -30.6478   19.4207 H   0  0  0  0  0  0
  -22.7866  -29.3434   19.7856 H   0  0  0  0  0  0
  -25.1324  -36.1795   25.0790 H   0  0  0  0  0  0
  -21.0038  -28.3368   24.1283 H   0  0  0  0  0  0
  -20.5694  -26.2368   23.3619 H   0  0  0  0  0  0
  -21.6657  -26.7427   22.1182 H   0  0  0  0  0  0
  -19.6937  -25.6269   21.1270 H   0  0  0  0  0  0
  -19.6716  -27.3148   20.6704 H   0  0  0  0  0  0
  -17.4217  -26.6657   21.4022 H   0  0  0  0  0  0
  -18.0354  -26.0084   22.9022 H   0  0  0  0  0  0
  -19.7968  -30.7295   24.2201 H   0  0  0  0  0  0
  -17.5052  -31.6270   24.5158 H   0  0  0  0  0  0
  -15.5380  -30.2985   23.7712 H   0  0  0  0  0  0
  -15.8681  -28.0830   22.7106 H   0  0  0  0  0  0
  -24.5879  -30.7209   25.7781 H   0  0  0  0  0  0
  -24.8944  -32.3051   26.4789 H   0  0  0  0  0  0
  -25.7952  -30.9061   27.0298 H   0  0  0  0  0  0
  -26.3179  -29.6534   24.1638 H   0  0  0  0  0  0
  -27.4060  -29.7382   25.5274 H   0  0  0  0  0  0
  -27.9123  -30.4098   24.0004 H   0  0  0  0  0  0
  -27.2595  -33.3695   26.2115 H   0  0  0  0  0  0
  -28.3912  -32.6948   25.0471 H   0  0  0  0  0  0
  -28.0693  -31.8578   26.5584 H   0  0  0  0  0  0
  -28.2540  -38.0108   24.7576 H   0  0  0  0  0  0
  -28.1123  -36.2642   24.6199 H   0  0  0  0  0  0
  -27.2305  -37.1293   25.8863 H   0  0  0  0  0  0
  -20.9450  -29.8836   21.6753 H   0  0  0  0  0  0
  -26.0115  -38.2772   24.1484 H   0  0  0  0  0  0
  -27.2667  -11.0194   21.7781 H   0  0  0  0  0  0
  -25.4692  -10.4025   19.0055 H   0  0  0  0  0  0
  -23.3971  -15.7247   19.0314 H   0  0  0  0  0  0
  -21.4389  -18.5790   19.8438 H   0  0  0  0  0  0
  -22.5712  -17.6938   18.6850 H   0  0  0  0  0  0
  -26.1768  -21.2660   19.6328 H   0  0  0  0  0  0
  -23.3223  -19.6076   20.9552 H   0  0  0  0  0  0
  -27.5315  -22.6959   21.9711 H   0  0  0  0  0  0
  -28.4311  -13.7826   23.3823 H   0  0  0  0  0  0
  -27.8065  -15.3568   23.2106 H   0  0  0  0  0  0
  -26.5160  -17.0336   22.3053 H   0  0  0  0  0  0
  -24.8563  -17.3729   22.5402 H   0  0  0  0  0  0
  -25.2911  -19.4222   19.0791 H   0  0  0  0  0  0
  -25.0220  -17.7164   19.2289 H   0  0  0  0  0  0
  -26.3665  -24.1103   19.4926 H   0  0  0  0  0  0
  -28.0431  -23.8362   19.4141 H   0  0  0  0  0  0
  -29.4021  -15.9145   21.7863 H   0  0  0  0  0  0
  1 25  1  0  0  0
  1 30  2  0  0  0
  1 86  1  0  0  0
  2  3  1  0  0  0
  2 25  1  0  0  0
  2 90  1  0  0  0
  2 91  1  0  0  0
  3  4  1  0  0  0
  3 92  1  0  0  0
  3 93  1  0  0  0
  4  5  1  0  0  0
  4 94  1  0  0  0
  4 95  1  0  0  0
  5  6  1  0  0  0
  5 26  1  0  0  0
  5 96  1  0  0  0
  6 25  1  0  0  0
  6 97  1  0  0  0
  6 98  1  0  0  0
  7  8  2  0  0  0
  7 26  1  0  0  0
  7 29  1  0  0  0
  8  9  1  0  0  0
  8 22  1  0  0  0
  9 10  1  0  0  0
  9 27  2  0  0  0
 10 11  2  0  0  0
 10 15  1  0  0  0
 11 12  1  0  0  0
 11 99  1  0  0  0
 12 13  2  0  0  0
 12100  1  0  0  0
 13 14  1  0  0  0
 13 31  1  0  0  0
 14 15  2  0  0  0
 14101  1  0  0  0
 15102  1  0  0  0
 16 17  2  0  0  0
 16 21  1  0  0  0
 16 31  1  0  0  0
 17 18  1  0  0  0
 17103  1  0  0  0
 18 19  2  0  0  0
 18104  1  0  0  0
 19 20  1  0  0  0
 19 24  1  0  0  0
 20 21  2  0  0  0
 20105  1  0  0  0
 21 23  1  0  0  0
 22 28  1  0  0  0
 22 32  2  0  0  0
 26 27  1  0  0  0
 28106  1  0  0  0
 28107  1  0  0  0
 29108  1  0  0  0
 29109  1  0  0  0
 33 34  1  0  0  0
 33 66  1  0  0  0
 33 70  2  0  0  0
 34 36  1  0  0  0
 34 59  1  0  0  0
 34110  1  0  0  0
 35 44  2  0  0  0
 35 45  1  0  0  0
 35 68  1  0  0  0
 36 56  1  0  0  0
 36111  1  0  0  0
 37 39  1  0  0  0
 37 47  1  0  0  0
 37 66  1  0  0  0
 37112  1  0  0  0
 38 43  2  0  0  0
 38 46  1  0  0  0
 38 47  1  0  0  0
 39 64  1  0  0  0
 39 67  2  0  0  0
 40 52  1  0  0  0
 40 53  2  0  0  0
 40 58  1  0  0  0
 41113  1  0  0  0
 41114  1  0  0  0
 41115  1  0  0  0
 41 48  1  0  0  0
 42 43  1  0  0  0
 42 66  1  0  0  0
 42116  1  0  0  0
 42117  1  0  0  0
 43 44  1  0  0  0
 44118  1  0  0  0
 45 46  2  0  0  0
 45119  1  0  0  0
 46120  1  0  0  0
 47121  1  0  0  0
 47122  1  0  0  0
 48 56  1  0  0  0
 48 65  1  0  0  0
 48123  1  0  0  0
 49 50  1  0  0  0
 49 53  1  0  0  0
 49 64  1  0  0  0
 49124  1  0  0  0
 50 51  1  0  0  0
 50125  1  0  0  0
 50126  1  0  0  0
 51 52  1  0  0  0
 51127  1  0  0  0
 51128  1  0  0  0
 52129  1  0  0  0
 52130  1  0  0  0
 53 54  1  0  0  0
 54 55  2  0  0  0
 54131  1  0  0  0
 55 57  1  0  0  0
 55132  1  0  0  0
 56 69  2  0  0  0
 57 58  2  0  0  0
 57133  1  0  0  0
 58134  1  0  0  0
 59 60  1  0  0  0
 59 61  1  0  0  0
 59 62  1  0  0  0
 60135  1  0  0  0
 60136  1  0  0  0
 60137  1  0  0  0
 61138  1  0  0  0
 61139  1  0  0  0
 61140  1  0  0  0
 62141  1  0  0  0
 62142  1  0  0  0
 62143  1  0  0  0
 63 65  1  0  0  0
 63144  1  0  0  0
 63145  1  0  0  0
 63146  1  0  0  0
 64147  1  0  0  0
 65148  1  0  0  0
 68 85  1  0  0  0
 71 72  2  0  0  0
 71 74  1  0  0  0
 71149  1  0  0  0
 72 76  1  0  0  0
 72150  1  0  0  0
 73 75  1  0  0  0
 73 76  2  0  0  0
 73151  1  0  0  0
 74 75  2  0  0  0
 74 82  1  0  0  0
 75 83  1  0  0  0
 76 89  1  0  0  0
 77 79  2  0  0  0
 77152  1  0  0  0
 77153  1  0  0  0
 78 80  2  0  0  0
 78 81  1  0  0  0
 78154  1  0  0  0
 79 84  1  0  0  0
 79155  1  0  0  0
 80 85  1  0  0  0
 80156  1  0  0  0
 81 87  1  0  0  0
 81 88  2  0  0  0
 82 86  1  0  0  0
 82157  1  0  0  0
 82158  1  0  0  0
 83 87  1  0  0  0
 83159  1  0  0  0
 83160  1  0  0  0
 84 87  1  0  0  0
 84161  1  0  0  0
 84162  1  0  0  0
 85163  1  0  0  0
 85164  1  0  0  0
 86165  1  0  0  0
M  ISO  4   1 100  68 101  85 101  86 100
M  END
> <chiral flag>
0

> <version>
0

> <s_m_source_file>
/data/baiqing/PycharmProjects/Reinvent-master-3.2/result/LINK_invent/BTK/process_docking_weight1_custom_product_contain_oxygen_bond_distance_aromatic_linkinvent_7_9_3/rearranged_h_0051.sdf

> <i_m_source_file_index>
5

> <r_mmod_Potential_Energy-OPLS-2005>
18205.662109375

> <r_mmod_Stretch_Energy-OPLS-2005>
10547.158203125

> <r_mmod_Bend_Energy-OPLS-2005>
1984.66955566406

> <r_mmod_Torsional_Energy-OPLS-2005>
474.194091796875

> <r_mmod_Improper_Torsional_Energy-OPLS-2005>
72.8019485473633

> <r_mmod_Van_der_Waal_Energy-OPLS-2005>
4440.56787109375

> <r_mmod_Electrostatic_Energy-OPLS-2005>
-384.928070068359

> <r_mmod_Solvation_Energy-OPLS-2005>
-231.661834716797

> <b_mmod_Minimization_Converged-OPLS-2005>
0

> <r_mmod_RMS_Derivative-OPLS-2005>
10.7964477539062

$$$$
5
                    3D
 Structure written by MMmdl.
168178  0  0  1  0            999 V2000
  -30.7098  -14.4630   20.4183 C   0  0  0  0  0  0
  -30.4131  -12.2580   19.4363 C   0  0  0  0  0  0
  -29.4897  -12.4511   18.2147 C   0  0  0  0  0  0
  -28.0121  -12.3326   18.6336 C   0  0  0  0  0  0
  -27.6618  -13.1958   19.8725 C   0  0  2  0  0  0
  -28.7140  -13.0264   20.9995 C   0  0  0  0  0  0
  -25.2634  -13.8128   20.5689 C   0  0  0  0  0  0
  -24.1861  -13.0424   20.9168 C   0  0  0  0  0  0
  -24.6384  -11.6896   20.8771 C   0  0  0  0  0  0
  -23.9012  -10.4309   21.0475 C   0  0  0  0  0  0
  -24.3568   -9.4235   21.9247 C   0  0  0  0  0  0
  -23.6248   -8.2268   22.0800 C   0  0  0  0  0  0
  -22.4245   -8.0299   21.3584 C   0  0  0  0  0  0
  -21.9872   -9.0266   20.4680 C   0  0  0  0  0  0
  -22.7196  -10.2148   20.3123 C   0  0  0  0  0  0
  -21.6865   -6.0740   22.5272 C   0  0  0  0  0  0
  -21.4008   -6.5643   23.8200 C   0  0  0  0  0  0
  -21.3653   -5.6786   24.9147 C   0  0  0  0  0  0
  -21.6032   -4.3054   24.7225 C   0  0  0  0  0  0
  -21.8822   -3.8157   23.4345 C   0  0  0  0  0  0
  -21.9205   -4.6971   22.3401 C   0  0  0  0  0  0
  -22.7888  -13.5261   21.1821 C   0  0  0  0  0  0
  -22.1693   -4.2143   21.0989 F   0  0  0  0  0  0
  -21.5622   -3.4547   25.7758 F   0  0  0  0  0  0
  -30.0464  -13.2777   20.4287 N   0  0  0  0  0  0
  -26.3052  -12.9261   20.3431 N   0  0  0  0  0  0
  -25.9324  -11.6442   20.5862 N   0  0  0  0  0  0
  -22.0522  -12.8261   22.0361 N   0  0  0  0  0  0
  -25.4346  -15.1850   20.4091 N   0  0  0  0  0  0
  -31.8962  -14.5729   20.1093 O   0  0  0  0  0  0
  -21.6637   -6.8887   21.4240 O   0  0  0  0  0  0
  -22.3601  -14.5597   20.6710 O   0  0  0  0  0  0
  -24.6120  -31.8719   23.2169 C   0  0  0  0  0  0
  -25.9046  -32.4828   23.8436 C   0  0  1  0  0  0
  -27.2234  -27.4661   20.0778 C   0  0  0  0  0  0
  -25.5942  -33.8630   24.2371 N   0  0  0  0  0  0
  -23.3947  -30.5036   21.5542 C   0  0  2  0  0  0
  -24.8360  -28.9804   20.1113 C   0  0  0  0  0  0
  -22.7361  -29.4707   22.4968 C   0  0  0  0  0  0
  -18.0280  -28.1356   22.8477 C   0  0  0  0  0  0
  -24.1499  -36.7310   23.2635 C   0  0  0  0  0  0
  -25.9208  -30.8447   21.3680 C   0  0  0  0  0  0
  -25.9953  -29.4838   20.7134 C   0  0  0  0  0  0
  -27.1885  -28.7285   20.7036 C   0  0  0  0  0  0
  -26.0399  -26.9826   19.4636 C   0  0  0  0  0  0
  -24.8505  -27.7254   19.4881 C   0  0  0  0  0  0
  -23.5999  -29.8471   20.1642 C   0  0  0  0  0  0
  -25.4119  -36.3113   24.0334 C   0  0  1  0  0  0
  -20.5851  -28.3677   23.1261 C   0  0  2  0  0  0
  -20.6761  -26.9404   22.5388 C   0  0  0  0  0  0
  -19.5758  -26.6386   21.5162 C   0  0  0  0  0  0
  -18.1932  -26.7932   22.1580 C   0  0  0  0  0  0
  -19.1522  -28.8827   23.2892 C   0  0  0  0  0  0
  -18.9465  -30.1436   23.8906 C   0  0  0  0  0  0
  -17.6463  -30.6569   24.0552 C   0  0  0  0  0  0
  -25.9042  -34.9471   23.5140 C   0  0  0  0  0  0
  -16.5354  -29.9064   23.6319 C   0  0  0  0  0  0
  -16.7274  -28.6475   23.0360 C   0  0  0  0  0  0
  -26.4500  -31.6573   25.0734 C   0  0  0  0  0  0
  -25.3805  -31.3580   26.1492 C   0  0  0  0  0  0
  -27.0348  -30.3045   24.6061 C   0  0  0  0  0  0
  -27.6097  -32.4267   25.7482 C   0  0  0  0  0  0
  -27.5582  -37.1805   24.8463 C   0  0  0  0  0  0
  -21.4097  -29.3071   22.3696 N   0  0  0  0  0  0
  -26.4302  -37.3799   23.9407 N   0  0  0  0  0  0
  -24.6612  -31.0856   22.1052 N   0  0  0  0  0  0
  -23.4145  -28.8232   23.2992 O   0  0  0  0  0  0
  -28.4071  -26.7520   20.0791 O   0  0  0  0  0  0
  -26.5575  -34.8901   22.4673 O   0  0  0  0  0  0
  -23.5324  -32.1466   23.7584 O   0  0  0  0  0  0
  -27.6473  -23.3092   18.9880 C   0  0  0  0  0  0
  -31.7511  -19.6899   19.3589 C   0  0  0  0  0  0
  -31.2628  -20.3489   18.2190 C   0  0  0  0  0  0
  -27.7664  -24.4367   19.8209 C   0  0  0  0  0  0
  -29.1732  -25.5396   18.1525 C   0  0  0  0  0  0
  -28.3049  -23.2993   17.7447 C   0  0  0  0  0  0
  -29.1124  -24.3849   17.3487 C   0  0  0  0  0  0
  -31.3134  -18.3904   19.7045 C   0  0  0  0  0  0
  -30.3040  -19.7222   17.4012 C   0  0  0  0  0  0
  -30.3437  -17.7389   18.8863 C   0  0  0  0  0  0
  -28.4683  -25.5796   19.3710 C   0  0  0  0  0  0
  -29.8429  -18.4319   17.7522 C   0  0  0  0  0  0
  -30.3503  -22.8106   15.8079 C   0  0  0  0  0  0
  -29.8860  -24.2660   16.0394 C   0  0  0  0  0  0
  -28.2057  -22.1249   16.7947 C   0  0  0  0  0  0
  -31.9514  -17.7486   20.9241 C   0  0  0  0  0  0
  -29.8225  -20.3856   16.1058 C   0  0  0  0  0  0
  -29.8725  -16.2788   19.0229 C   0  0  0  0  0  0
  -29.5175  -21.8170   16.2151 N   0  0  0  0  0  0
  -29.9016  -15.5282   20.2965 N   0  0  0  0  0  0
  -31.4517  -22.5988   15.2883 O   0  0  0  0  0  0
  -28.9253  -17.8307   16.9541 F   0  0  0  0  0  0
  -31.4607  -12.3154   19.1316 H   0  0  0  0  0  0
  -30.2877  -11.2604   19.8617 H   0  0  0  0  0  0
  -29.7157  -11.7097   17.4487 H   0  0  0  0  0  0
  -29.6657  -13.4215   17.7494 H   0  0  0  0  0  0
  -27.8160  -11.2807   18.8449 H   0  0  0  0  0  0
  -27.3651  -12.6019   17.7994 H   0  0  0  0  0  0
  -27.6839  -14.2288   19.5324 H   0  0  0  0  0  0
  -28.6855  -12.0138   21.4081 H   0  0  0  0  0  0
  -28.5044  -13.6940   21.8363 H   0  0  0  0  0  0
  -25.2755   -9.5690   22.4742 H   0  0  0  0  0  0
  -24.0000   -7.4649   22.7490 H   0  0  0  0  0  0
  -21.0826   -8.8756   19.8936 H   0  0  0  0  0  0
  -22.3707  -10.9657   19.6192 H   0  0  0  0  0  0
  -21.1996   -7.6149   23.9698 H   0  0  0  0  0  0
  -21.1467   -6.0530   25.9034 H   0  0  0  0  0  0
  -22.0611   -2.7617   23.2854 H   0  0  0  0  0  0
  -22.4160  -11.9899   22.4696 H   0  0  0  0  0  0
  -21.1164  -13.1306   22.2663 H   0  0  0  0  0  0
  -24.6554  -15.8281   20.5101 H   0  0  0  0  0  0
  -26.2825  -15.6402   20.0942 H   0  0  0  0  0  0
  -26.7107  -32.5554   23.1189 H   0  0  0  0  0  0
  -25.0160  -33.9804   25.0559 H   0  0  0  0  0  0
  -22.6861  -31.3231   21.4197 H   0  0  0  0  0  0
  -23.3756  -35.9646   23.3307 H   0  0  0  0  0  0
  -24.3581  -36.8920   22.2049 H   0  0  0  0  0  0
  -23.7251  -37.6509   23.6650 H   0  0  0  0  0  0
  -26.0376  -31.6147   20.6066 H   0  0  0  0  0  0
  -26.8088  -30.8866   21.9898 H   0  0  0  0  0  0
  -28.0859  -29.1133   21.1706 H   0  0  0  0  0  0
  -26.0029  -26.0362   18.9447 H   0  0  0  0  0  0
  -23.9607  -27.3297   19.0152 H   0  0  0  0  0  0
  -23.7079  -30.6262   19.4089 H   0  0  0  0  0  0
  -22.7227  -29.2720   19.8645 H   0  0  0  0  0  0
  -25.1295  -36.1978   25.0825 H   0  0  0  0  0  0
  -20.9970  -28.3268   24.1371 H   0  0  0  0  0  0
  -20.5608  -26.2312   23.3593 H   0  0  0  0  0  0
  -21.6653  -26.7424   22.1218 H   0  0  0  0  0  0
  -19.6925  -25.6298   21.1213 H   0  0  0  0  0  0
  -19.6700  -27.3179   20.6675 H   0  0  0  0  0  0
  -17.4209  -26.6691   21.3979 H   0  0  0  0  0  0
  -18.0349  -26.0048   22.8945 H   0  0  0  0  0  0
  -19.7939  -30.7244   24.2290 H   0  0  0  0  0  0
  -17.5017  -31.6238   24.5171 H   0  0  0  0  0  0
  -15.5361  -30.2964   23.7617 H   0  0  0  0  0  0
  -15.8687  -28.0773   22.7079 H   0  0  0  0  0  0
  -24.6054  -30.6844   25.7804 H   0  0  0  0  0  0
  -24.8916  -32.2682   26.4972 H   0  0  0  0  0  0
  -25.8235  -30.8748   27.0215 H   0  0  0  0  0  0
  -26.2870  -29.6749   24.1235 H   0  0  0  0  0  0
  -27.4286  -29.7317   25.4460 H   0  0  0  0  0  0
  -27.8625  -30.4386   23.9089 H   0  0  0  0  0  0
  -27.2752  -33.3545   26.2116 H   0  0  0  0  0  0
  -28.3875  -32.6841   25.0281 H   0  0  0  0  0  0
  -28.0810  -31.8357   26.5345 H   0  0  0  0  0  0
  -28.2593  -38.0109   24.7500 H   0  0  0  0  0  0
  -28.1085  -36.2632   24.6309 H   0  0  0  0  0  0
  -27.2288  -37.1462   25.8863 H   0  0  0  0  0  0
  -20.9245  -29.8826   21.6949 H   0  0  0  0  0  0
  -26.0188  -38.2868   24.1437 H   0  0  0  0  0  0
  -27.0424  -22.4674   19.2993 H   0  0  0  0  0  0
  -32.4958  -20.1948   19.9590 H   0  0  0  0  0  0
  -31.6456  -21.3285   17.9696 H   0  0  0  0  0  0
  -27.2439  -24.4620   20.7671 H   0  0  0  0  0  0
  -29.7377  -26.4048   17.8317 H   0  0  0  0  0  0
  -30.7454  -24.9392   16.0471 H   0  0  0  0  0  0
  -29.2451  -24.5694   15.2106 H   0  0  0  0  0  0
  -27.5283  -22.4061   15.9852 H   0  0  0  0  0  0
  -27.7573  -21.2605   17.2865 H   0  0  0  0  0  0
  -32.5087  -18.4808   21.5091 H   0  0  0  0  0  0
  -32.6552  -16.9770   20.6223 H   0  0  0  0  0  0
  -31.2082  -17.3189   21.5923 H   0  0  0  0  0  0
  -28.9216  -19.8863   15.7529 H   0  0  0  0  0  0
  -30.5645  -20.2024   15.3284 H   0  0  0  0  0  0
  -30.4251  -15.7328   18.2562 H   0  0  0  0  0  0
  -28.8354  -16.2283   18.6876 H   0  0  0  0  0  0
  -28.9925  -15.3997   20.7151 H   0  0  0  0  0  0
  1 25  1  0  0  0
  1 30  2  0  0  0
  1 90  1  0  0  0
  2  3  1  0  0  0
  2 25  1  0  0  0
  2 93  1  0  0  0
  2 94  1  0  0  0
  3  4  1  0  0  0
  3 95  1  0  0  0
  3 96  1  0  0  0
  4  5  1  0  0  0
  4 97  1  0  0  0
  4 98  1  0  0  0
  5  6  1  0  0  0
  5 26  1  0  0  0
  5 99  1  0  0  0
  6 25  1  0  0  0
  6100  1  0  0  0
  6101  1  0  0  0
  7  8  2  0  0  0
  7 26  1  0  0  0
  7 29  1  0  0  0
  8  9  1  0  0  0
  8 22  1  0  0  0
  9 10  1  0  0  0
  9 27  2  0  0  0
 10 11  2  0  0  0
 10 15  1  0  0  0
 11 12  1  0  0  0
 11102  1  0  0  0
 12 13  2  0  0  0
 12103  1  0  0  0
 13 14  1  0  0  0
 13 31  1  0  0  0
 14 15  2  0  0  0
 14104  1  0  0  0
 15105  1  0  0  0
 16 17  2  0  0  0
 16 21  1  0  0  0
 16 31  1  0  0  0
 17 18  1  0  0  0
 17106  1  0  0  0
 18 19  2  0  0  0
 18107  1  0  0  0
 19 20  1  0  0  0
 19 24  1  0  0  0
 20 21  2  0  0  0
 20108  1  0  0  0
 21 23  1  0  0  0
 22 28  1  0  0  0
 22 32  2  0  0  0
 26 27  1  0  0  0
 28109  1  0  0  0
 28110  1  0  0  0
 29111  1  0  0  0
 29112  1  0  0  0
 33 34  1  0  0  0
 33 66  1  0  0  0
 33 70  2  0  0  0
 34 36  1  0  0  0
 34 59  1  0  0  0
 34113  1  0  0  0
 35 44  2  0  0  0
 35 45  1  0  0  0
 35 68  1  0  0  0
 36 56  1  0  0  0
 36114  1  0  0  0
 37 39  1  0  0  0
 37 47  1  0  0  0
 37 66  1  0  0  0
 37115  1  0  0  0
 38 43  2  0  0  0
 38 46  1  0  0  0
 38 47  1  0  0  0
 39 64  1  0  0  0
 39 67  2  0  0  0
 40 52  1  0  0  0
 40 53  2  0  0  0
 40 58  1  0  0  0
 41116  1  0  0  0
 41117  1  0  0  0
 41118  1  0  0  0
 41 48  1  0  0  0
 42 43  1  0  0  0
 42 66  1  0  0  0
 42119  1  0  0  0
 42120  1  0  0  0
 43 44  1  0  0  0
 44121  1  0  0  0
 45 46  2  0  0  0
 45122  1  0  0  0
 46123  1  0  0  0
 47124  1  0  0  0
 47125  1  0  0  0
 48 56  1  0  0  0
 48 65  1  0  0  0
 48126  1  0  0  0
 49 50  1  0  0  0
 49 53  1  0  0  0
 49 64  1  0  0  0
 49127  1  0  0  0
 50 51  1  0  0  0
 50128  1  0  0  0
 50129  1  0  0  0
 51 52  1  0  0  0
 51130  1  0  0  0
 51131  1  0  0  0
 52132  1  0  0  0
 52133  1  0  0  0
 53 54  1  0  0  0
 54 55  2  0  0  0
 54134  1  0  0  0
 55 57  1  0  0  0
 55135  1  0  0  0
 56 69  2  0  0  0
 57 58  2  0  0  0
 57136  1  0  0  0
 58137  1  0  0  0
 59 60  1  0  0  0
 59 61  1  0  0  0
 59 62  1  0  0  0
 60138  1  0  0  0
 60139  1  0  0  0
 60140  1  0  0  0
 61141  1  0  0  0
 61142  1  0  0  0
 61143  1  0  0  0
 62144  1  0  0  0
 62145  1  0  0  0
 62146  1  0  0  0
 63 65  1  0  0  0
 63147  1  0  0  0
 63148  1  0  0  0
 63149  1  0  0  0
 64150  1  0  0  0
 65151  1  0  0  0
 68 81  1  0  0  0
 71 74  2  0  0  0
 71 76  1  0  0  0
 71152  1  0  0  0
 72 73  2  0  0  0
 72 78  1  0  0  0
 72153  1  0  0  0
 73 79  1  0  0  0
 73154  1  0  0  0
 74 81  1  0  0  0
 74155  1  0  0  0
 75 77  1  0  0  0
 75 81  2  0  0  0
 75156  1  0  0  0
 76 77  2  0  0  0
 76 85  1  0  0  0
 77 84  1  0  0  0
 78 80  2  0  0  0
 78 86  1  0  0  0
 79 82  2  0  0  0
 79 87  1  0  0  0
 80 82  1  0  0  0
 80 88  1  0  0  0
 82 92  1  0  0  0
 83 84  1  0  0  0
 83 89  1  0  0  0
 83 91  2  0  0  0
 84157  1  0  0  0
 84158  1  0  0  0
 85 89  1  0  0  0
 85159  1  0  0  0
 85160  1  0  0  0
 86161  1  0  0  0
 86162  1  0  0  0
 86163  1  0  0  0
 87 89  1  0  0  0
 87164  1  0  0  0
 87165  1  0  0  0
 88 90  1  0  0  0
 88166  1  0  0  0
 88167  1  0  0  0
 90168  1  0  0  0
M  ISO  4   1 100  68 101  81 101  90 100
M  END
> <chiral flag>
0

> <version>
0

> <s_m_source_file>
/data/baiqing/PycharmProjects/Reinvent-master-3.2/result/LINK_invent/BTK/process_docking_weight1_custom_product_contain_oxygen_bond_distance_aromatic_linkinvent_7_9_3/rearranged_h_0051.sdf

> <i_m_source_file_index>
6

> <r_mmod_Potential_Energy-OPLS-2005>
19.5620536804199

> <r_mmod_Stretch_Energy-OPLS-2005>
39.2395095825195

> <r_mmod_Bend_Energy-OPLS-2005>
113.596336364746

> <r_mmod_Torsional_Energy-OPLS-2005>
254.892440795898

> <r_mmod_Improper_Torsional_Energy-OPLS-2005>
18.817403793335

> <r_mmod_Van_der_Waal_Energy-OPLS-2005>
197.530471801758

> <r_mmod_Electrostatic_Energy-OPLS-2005>
-394.883514404297

> <r_mmod_Solvation_Energy-OPLS-2005>
-229.691970825195

> <b_mmod_Minimization_Converged-OPLS-2005>
0

> <r_mmod_RMS_Derivative-OPLS-2005>
4.72695159912109

$$$$
6
                    3D
 Structure written by MMmdl.
161170  0  0  1  0            999 V2000
  -30.6171  -14.6138   20.4577 C   0  0  0  0  0  0
  -30.4353  -12.3655   19.4543 C   0  0  0  0  0  0
  -29.5097  -12.4851   18.2224 C   0  0  0  0  0  0
  -28.0297  -12.3307   18.6281 C   0  0  0  0  0  0
  -27.6516  -13.2072   19.8524 C   0  0  2  0  0  0
  -28.6904  -13.0662   20.9858 C   0  0  0  0  0  0
  -25.2583  -13.8175   20.5640 C   0  0  0  0  0  0
  -24.1825  -13.0470   20.9163 C   0  0  0  0  0  0
  -24.6351  -11.6924   20.8705 C   0  0  0  0  0  0
  -23.9005  -10.4320   21.0382 C   0  0  0  0  0  0
  -24.3578   -9.4232   21.9144 C   0  0  0  0  0  0
  -23.6294   -8.2248   22.0717 C   0  0  0  0  0  0
  -22.4272   -8.0277   21.3524 C   0  0  0  0  0  0
  -21.9883   -9.0244   20.4634 C   0  0  0  0  0  0
  -22.7179  -10.2143   20.3043 C   0  0  0  0  0  0
  -21.6850   -6.0727   22.5268 C   0  0  0  0  0  0
  -21.4009   -6.5623   23.8202 C   0  0  0  0  0  0
  -21.3665   -5.6782   24.9160 C   0  0  0  0  0  0
  -21.6054   -4.3043   24.7210 C   0  0  0  0  0  0
  -21.8831   -3.8126   23.4333 C   0  0  0  0  0  0
  -21.9195   -4.6943   22.3396 C   0  0  0  0  0  0
  -22.7855  -13.5266   21.1835 C   0  0  0  0  0  0
  -22.1673   -4.2113   21.0978 F   0  0  0  0  0  0
  -21.5632   -3.4549   25.7740 F   0  0  0  0  0  0
  -30.0074  -13.3916   20.4243 N   0  0  0  0  0  0
  -26.2967  -12.9315   20.3237 N   0  0  0  0  0  0
  -25.9272  -11.6478   20.5690 N   0  0  0  0  0  0
  -22.0489  -12.8282   22.0416 N   0  0  0  0  0  0
  -25.4408  -15.1893   20.4076 N   0  0  0  0  0  0
  -31.8020  -14.7413   20.1326 O   0  0  0  0  0  0
  -21.6644   -6.8875   21.4234 O   0  0  0  0  0  0
  -22.3551  -14.5566   20.6673 O   0  0  0  0  0  0
  -24.6231  -31.8615   23.2050 C   0  0  0  0  0  0
  -25.9086  -32.4781   23.8366 C   0  0  1  0  0  0
  -27.2126  -27.3418   20.0850 C   0  0  0  0  0  0
  -25.5924  -33.8592   24.2289 N   0  0  0  0  0  0
  -23.4140  -30.4861   21.5503 C   0  0  2  0  0  0
  -24.8552  -28.9480   20.1130 C   0  0  0  0  0  0
  -22.7467  -29.4616   22.4980 C   0  0  0  0  0  0
  -18.0270  -28.1396   22.8469 C   0  0  0  0  0  0
  -24.1502  -36.7275   23.2653 C   0  0  0  0  0  0
  -25.9578  -30.7936   21.3787 C   0  0  0  0  0  0
  -26.0264  -29.4263   20.7141 C   0  0  0  0  0  0
  -27.2087  -28.6325   20.6922 C   0  0  0  0  0  0
  -26.0130  -26.9134   19.4680 C   0  0  0  0  0  0
  -24.8479  -27.6957   19.4860 C   0  0  0  0  0  0
  -23.6239  -29.8236   20.1658 C   0  0  0  0  0  0
  -25.4130  -36.3084   24.0340 C   0  0  1  0  0  0
  -20.5871  -28.3672   23.1318 C   0  0  2  0  0  0
  -20.6761  -26.9398   22.5436 C   0  0  0  0  0  0
  -19.5745  -26.6379   21.5227 C   0  0  0  0  0  0
  -18.1915  -26.7940   22.1612 C   0  0  0  0  0  0
  -19.1519  -28.8846   23.2884 C   0  0  0  0  0  0
  -18.9456  -30.1459   23.8886 C   0  0  0  0  0  0
  -17.6452  -30.6587   24.0560 C   0  0  0  0  0  0
  -25.9066  -34.9454   23.5115 C   0  0  0  0  0  0
  -16.5334  -29.9075   23.6349 C   0  0  0  0  0  0
  -16.7261  -28.6502   23.0345 C   0  0  0  0  0  0
  -26.4502  -31.6573   25.0713 C   0  0  0  0  0  0
  -25.3764  -31.3677   26.1459 C   0  0  0  0  0  0
  -27.0338  -30.3005   24.6143 C   0  0  0  0  0  0
  -27.6088  -32.4327   25.7411 C   0  0  0  0  0  0
  -27.5606  -37.1778   24.8454 C   0  0  0  0  0  0
  -21.4188  -29.2999   22.3710 N   0  0  0  0  0  0
  -26.4306  -37.3771   23.9423 N   0  0  0  0  0  0
  -24.6834  -31.0649   22.0993 N   0  0  0  0  0  0
  -23.4215  -28.8160   23.3048 O   0  0  0  0  0  0
  -28.3489  -26.5236   20.1004 O   0  0  0  0  0  0
  -26.5623  -34.8913   22.4673 O   0  0  0  0  0  0
  -23.5395  -32.1405   23.7390 O   0  0  0  0  0  0
  -29.1328  -18.1427   20.7108 C   0  0  0  0  0  0
  -30.0496  -19.7169   19.0917 C   0  0  0  0  0  0
  -30.7449  -17.3669   19.0699 C   0  0  0  0  0  0
  -29.2024  -19.4880   20.2000 C   0  0  0  0  0  0
  -29.9095  -17.0613   20.1718 C   0  0  0  0  0  0
  -30.8132  -18.6707   18.5413 C   0  0  0  0  0  0
  -29.6882  -22.8836   20.2981 C   0  0  0  0  0  0
  -30.8250  -22.4068   20.8365 C   0  0  0  0  0  0
  -29.5534  -24.3144   19.6878 C   0  0  0  0  0  0
  -27.4957  -24.3714   21.0868 C   0  0  0  0  0  0
  -27.2279  -22.8609   20.8038 C   0  0  0  0  0  0
  -28.2047  -25.0655   19.9096 C   0  0  1  0  0  0
  -28.3950  -20.6563   20.8623 C   0  0  0  0  0  0
  -29.8074  -15.6962   20.6867 N   0  0  0  0  0  0
  -28.3972  -22.0740   20.2883 N   0  3  2  0  0  0
  -31.8604  -18.9928   17.2070 Cl  0  0  0  0  0  0
  -31.4781  -12.4847   19.1537 H   0  0  0  0  0  0
  -30.3676  -11.3711   19.8980 H   0  0  0  0  0  0
  -29.7788  -11.7313   17.4815 H   0  0  0  0  0  0
  -29.6576  -13.4506   17.7396 H   0  0  0  0  0  0
  -27.8637  -11.2794   18.8669 H   0  0  0  0  0  0
  -27.3751  -12.5544   17.7841 H   0  0  0  0  0  0
  -27.6715  -14.2397   19.5007 H   0  0  0  0  0  0
  -28.6951  -12.0477   21.3792 H   0  0  0  0  0  0
  -28.4413  -13.7116   21.8283 H   0  0  0  0  0  0
  -25.2731   -9.5734   22.4681 H   0  0  0  0  0  0
  -24.0032   -7.4665   22.7444 H   0  0  0  0  0  0
  -21.0785   -8.8761   19.8973 H   0  0  0  0  0  0
  -22.3616  -10.9677   19.6156 H   0  0  0  0  0  0
  -21.1995   -7.6137   23.9696 H   0  0  0  0  0  0
  -21.1478   -6.0498   25.9069 H   0  0  0  0  0  0
  -22.0606   -2.7581   23.2815 H   0  0  0  0  0  0
  -22.4104  -11.9960   22.4817 H   0  0  0  0  0  0
  -21.1106  -13.1301   22.2622 H   0  0  0  0  0  0
  -24.6815  -15.8543   20.5177 H   0  0  0  0  0  0
  -26.2928  -15.6187   20.0637 H   0  0  0  0  0  0
  -26.7131  -32.5453   23.1092 H   0  0  0  0  0  0
  -25.0059  -33.9743   25.0428 H   0  0  0  0  0  0
  -22.7024  -31.3042   21.4120 H   0  0  0  0  0  0
  -23.3784  -35.9588   23.3299 H   0  0  0  0  0  0
  -24.3592  -36.8903   22.2070 H   0  0  0  0  0  0
  -23.7230  -37.6459   23.6687 H   0  0  0  0  0  0
  -26.1064  -31.5618   20.6187 H   0  0  0  0  0  0
  -26.8322  -30.8265   22.0181 H   0  0  0  0  0  0
  -28.1112  -28.9935   21.1652 H   0  0  0  0  0  0
  -25.9287  -25.9687   18.9566 H   0  0  0  0  0  0
  -23.9478  -27.3280   19.0111 H   0  0  0  0  0  0
  -23.7369  -30.5968   19.4059 H   0  0  0  0  0  0
  -22.7458  -29.2459   19.8726 H   0  0  0  0  0  0
  -25.1326  -36.1922   25.0833 H   0  0  0  0  0  0
  -20.9959  -28.3244   24.1446 H   0  0  0  0  0  0
  -20.5663  -26.2286   23.3634 H   0  0  0  0  0  0
  -21.6638  -26.7429   22.1240 H   0  0  0  0  0  0
  -19.6915  -25.6291   21.1250 H   0  0  0  0  0  0
  -19.6719  -27.3194   20.6761 H   0  0  0  0  0  0
  -17.4222  -26.6701   21.3980 H   0  0  0  0  0  0
  -18.0275  -26.0081   22.8998 H   0  0  0  0  0  0
  -19.7933  -30.7276   24.2254 H   0  0  0  0  0  0
  -17.5004  -31.6267   24.5154 H   0  0  0  0  0  0
  -15.5337  -30.2967   23.7693 H   0  0  0  0  0  0
  -15.8662  -28.0830   22.7058 H   0  0  0  0  0  0
  -24.5942  -30.7031   25.7764 H   0  0  0  0  0  0
  -24.8961  -32.2826   26.4939 H   0  0  0  0  0  0
  -25.8123  -30.8801   27.0189 H   0  0  0  0  0  0
  -26.2871  -29.6722   24.1284 H   0  0  0  0  0  0
  -27.4153  -29.7297   25.4610 H   0  0  0  0  0  0
  -27.8701  -30.4278   23.9275 H   0  0  0  0  0  0
  -27.2713  -33.3592   26.2064 H   0  0  0  0  0  0
  -28.3802  -32.6958   25.0162 H   0  0  0  0  0  0
  -28.0891  -31.8439   26.5230 H   0  0  0  0  0  0
  -28.2623  -38.0080   24.7533 H   0  0  0  0  0  0
  -28.1104  -36.2620   24.6232 H   0  0  0  0  0  0
  -27.2350  -37.1372   25.8862 H   0  0  0  0  0  0
  -20.9392  -29.8686   21.6877 H   0  0  0  0  0  0
  -26.0191  -38.2841   24.1449 H   0  0  0  0  0  0
  -28.4742  -17.9430   21.5451 H   0  0  0  0  0  0
  -30.1438  -20.6978   18.6519 H   0  0  0  0  0  0
  -31.3463  -16.6061   18.5987 H   0  0  0  0  0  0
  -31.7280  -22.9976   20.8350 H   0  0  0  0  0  0
  -30.8968  -21.4217   21.2763 H   0  0  0  0  0  0
  -29.7578  -24.2482   18.6177 H   0  0  0  0  0  0
  -30.3581  -24.9287   20.0942 H   0  0  0  0  0  0
  -28.0992  -24.4829   21.9898 H   0  0  0  0  0  0
  -26.5494  -24.8596   21.3080 H   0  0  0  0  0  0
  -26.4244  -22.7642   20.0733 H   0  0  0  0  0  0
  -26.8387  -22.4226   21.7245 H   0  0  0  0  0  0
  -27.6384  -24.8728   18.9979 H   0  0  0  0  0  0
  -28.6954  -20.7153   21.9072 H   0  0  0  0  0  0
  -27.3591  -20.3141   20.8868 H   0  0  0  0  0  0
  -28.9271  -15.4670   21.1261 H   0  0  0  0  0  0
  -28.1571  -21.9324   19.3183 H   0  0  0  0  0  0
  1 25  1  0  0  0
  1 30  2  0  0  0
  1 84  1  0  0  0
  2  3  1  0  0  0
  2 25  1  0  0  0
  2 87  1  0  0  0
  2 88  1  0  0  0
  3  4  1  0  0  0
  3 89  1  0  0  0
  3 90  1  0  0  0
  4  5  1  0  0  0
  4 91  1  0  0  0
  4 92  1  0  0  0
  5  6  1  0  0  0
  5 26  1  0  0  0
  5 93  1  0  0  0
  6 25  1  0  0  0
  6 94  1  0  0  0
  6 95  1  0  0  0
  7  8  2  0  0  0
  7 26  1  0  0  0
  7 29  1  0  0  0
  8  9  1  0  0  0
  8 22  1  0  0  0
  9 10  1  0  0  0
  9 27  2  0  0  0
 10 11  2  0  0  0
 10 15  1  0  0  0
 11 12  1  0  0  0
 11 96  1  0  0  0
 12 13  2  0  0  0
 12 97  1  0  0  0
 13 14  1  0  0  0
 13 31  1  0  0  0
 14 15  2  0  0  0
 14 98  1  0  0  0
 15 99  1  0  0  0
 16 17  2  0  0  0
 16 21  1  0  0  0
 16 31  1  0  0  0
 17 18  1  0  0  0
 17100  1  0  0  0
 18 19  2  0  0  0
 18101  1  0  0  0
 19 20  1  0  0  0
 19 24  1  0  0  0
 20 21  2  0  0  0
 20102  1  0  0  0
 21 23  1  0  0  0
 22 28  1  0  0  0
 22 32  2  0  0  0
 26 27  1  0  0  0
 28103  1  0  0  0
 28104  1  0  0  0
 29105  1  0  0  0
 29106  1  0  0  0
 33 34  1  0  0  0
 33 66  1  0  0  0
 33 70  2  0  0  0
 34 36  1  0  0  0
 34 59  1  0  0  0
 34107  1  0  0  0
 35 44  2  0  0  0
 35 45  1  0  0  0
 35 68  1  0  0  0
 36 56  1  0  0  0
 36108  1  0  0  0
 37 39  1  0  0  0
 37 47  1  0  0  0
 37 66  1  0  0  0
 37109  1  0  0  0
 38 43  2  0  0  0
 38 46  1  0  0  0
 38 47  1  0  0  0
 39 64  1  0  0  0
 39 67  2  0  0  0
 40 52  1  0  0  0
 40 53  2  0  0  0
 40 58  1  0  0  0
 41110  1  0  0  0
 41111  1  0  0  0
 41112  1  0  0  0
 41 48  1  0  0  0
 42 43  1  0  0  0
 42 66  1  0  0  0
 42113  1  0  0  0
 42114  1  0  0  0
 43 44  1  0  0  0
 44115  1  0  0  0
 45 46  2  0  0  0
 45116  1  0  0  0
 46117  1  0  0  0
 47118  1  0  0  0
 47119  1  0  0  0
 48 56  1  0  0  0
 48 65  1  0  0  0
 48120  1  0  0  0
 49 50  1  0  0  0
 49 53  1  0  0  0
 49 64  1  0  0  0
 49121  1  0  0  0
 50 51  1  0  0  0
 50122  1  0  0  0
 50123  1  0  0  0
 51 52  1  0  0  0
 51124  1  0  0  0
 51125  1  0  0  0
 52126  1  0  0  0
 52127  1  0  0  0
 53 54  1  0  0  0
 54 55  2  0  0  0
 54128  1  0  0  0
 55 57  1  0  0  0
 55129  1  0  0  0
 56 69  2  0  0  0
 57 58  2  0  0  0
 57130  1  0  0  0
 58131  1  0  0  0
 59 60  1  0  0  0
 59 61  1  0  0  0
 59 62  1  0  0  0
 60132  1  0  0  0
 60133  1  0  0  0
 60134  1  0  0  0
 61135  1  0  0  0
 61136  1  0  0  0
 61137  1  0  0  0
 62138  1  0  0  0
 62139  1  0  0  0
 62140  1  0  0  0
 63 65  1  0  0  0
 63141  1  0  0  0
 63142  1  0  0  0
 63143  1  0  0  0
 64144  1  0  0  0
 65145  1  0  0  0
 68 82  1  0  0  0
 71 74  2  0  0  0
 71 75  1  0  0  0
 71146  1  0  0  0
 72 74  1  0  0  0
 72 76  2  0  0  0
 72147  1  0  0  0
 73 75  2  0  0  0
 73 76  1  0  0  0
 73148  1  0  0  0
 74 83  1  0  0  0
 75 84  1  0  0  0
 76 86  1  0  0  0
 77 78  2  0  0  0
 77 79  1  0  0  0
 77 85  1  0  0  0
 78149  1  0  0  0
 78150  1  0  0  0
 79 82  1  0  0  0
 79151  1  0  0  0
 79152  1  0  0  0
 80 81  1  0  0  0
 80 82  1  0  0  0
 80153  1  0  0  0
 80154  1  0  0  0
 81 85  1  0  0  0
 81155  1  0  0  0
 81156  1  0  0  0
 82157  1  0  0  0
 83158  1  0  0  0
 83159  1  0  0  0
 83 85  1  0  0  0
 84160  1  0  0  0
 85161  1  0  0  0
M  CHG  1  85   1
M  ISO  4   1 100  68 101  82 101  84 100
M  END
> <chiral flag>
0

> <version>
0

> <s_m_source_file>
/data/baiqing/PycharmProjects/Reinvent-master-3.2/result/LINK_invent/BTK/process_docking_weight1_custom_product_contain_oxygen_bond_distance_aromatic_linkinvent_7_9_3/rearranged_h_0051.sdf

> <i_m_source_file_index>
7

> <r_mmod_Potential_Energy-OPLS-2005>
-39.6577415466309

> <r_mmod_Stretch_Energy-OPLS-2005>
75.6481094360352

> <r_mmod_Bend_Energy-OPLS-2005>
140.71875

> <r_mmod_Torsional_Energy-OPLS-2005>
250.204559326172

> <r_mmod_Improper_Torsional_Energy-OPLS-2005>
4.74705839157104

> <r_mmod_Van_der_Waal_Energy-OPLS-2005>
161.846252441406

> <r_mmod_Electrostatic_Energy-OPLS-2005>
-242.23095703125

> <r_mmod_Solvation_Energy-OPLS-2005>
-472.208953857422

> <b_mmod_Minimization_Converged-OPLS-2005>
0

> <r_mmod_RMS_Derivative-OPLS-2005>
3.705974817276

$$$$
7
                    3D
 Structure written by MMmdl.
166174  0  0  1  0            999 V2000
  -30.7368  -14.5019   20.3900 C   0  0  0  0  0  0
  -30.3968  -12.2956   19.4143 C   0  0  0  0  0  0
  -29.4751  -12.4650   18.1966 C   0  0  0  0  0  0
  -28.0052  -12.3221   18.6238 C   0  0  0  0  0  0
  -27.6477  -13.2114   19.8466 C   0  0  2  0  0  0
  -28.7013  -13.1189   20.9735 C   0  0  0  0  0  0
  -25.2603  -13.8152   20.5723 C   0  0  0  0  0  0
  -24.1858  -13.0423   20.9184 C   0  0  0  0  0  0
  -24.6411  -11.6896   20.8769 C   0  0  0  0  0  0
  -23.9077  -10.4299   21.0426 C   0  0  0  0  0  0
  -24.3667   -9.4245   21.9217 C   0  0  0  0  0  0
  -23.6346   -8.2278   22.0830 C   0  0  0  0  0  0
  -22.4314   -8.0332   21.3597 C   0  0  0  0  0  0
  -21.9910   -9.0289   20.4684 C   0  0  0  0  0  0
  -22.7232  -10.2161   20.3084 C   0  0  0  0  0  0
  -21.6876   -6.0757   22.5278 C   0  0  0  0  0  0
  -21.4003   -6.5658   23.8210 C   0  0  0  0  0  0
  -21.3672   -5.6834   24.9180 C   0  0  0  0  0  0
  -21.6034   -4.3085   24.7244 C   0  0  0  0  0  0
  -21.8825   -3.8165   23.4375 C   0  0  0  0  0  0
  -21.9213   -4.6979   22.3415 C   0  0  0  0  0  0
  -22.7918  -13.5249   21.1832 C   0  0  0  0  0  0
  -22.1704   -4.2162   21.1010 F   0  0  0  0  0  0
  -21.5631   -3.4579   25.7771 F   0  0  0  0  0  0
  -30.0214  -13.3473   20.3738 N   0  0  0  0  0  0
  -26.3002  -12.9288   20.3304 N   0  0  0  0  0  0
  -25.9308  -11.6442   20.5733 N   0  0  0  0  0  0
  -22.0561  -12.8265   22.0417 N   0  0  0  0  0  0
  -25.4305  -15.1874   20.4211 N   0  0  0  0  0  0
  -31.9616  -14.5020   20.2838 O   0  0  0  0  0  0
  -21.6683   -6.8914   21.4251 O   0  0  0  0  0  0
  -22.3632  -14.5558   20.6692 O   0  0  0  0  0  0
  -24.6075  -31.8750   23.2167 C   0  0  0  0  0  0
  -25.8992  -32.4866   23.8446 C   0  0  1  0  0  0
  -27.2280  -27.4747   20.0911 C   0  0  0  0  0  0
  -25.5855  -33.8673   24.2339 N   0  0  0  0  0  0
  -23.3958  -30.5010   21.5560 C   0  0  2  0  0  0
  -24.8383  -28.9692   20.1191 C   0  0  0  0  0  0
  -22.7369  -29.4739   22.5028 C   0  0  0  0  0  0
  -18.0298  -28.1396   22.8544 C   0  0  0  0  0  0
  -24.1487  -36.7322   23.2638 C   0  0  0  0  0  0
  -25.9216  -30.8562   21.3608 C   0  0  0  0  0  0
  -25.9995  -29.4910   20.7089 C   0  0  0  0  0  0
  -27.2007  -28.7493   20.6937 C   0  0  0  0  0  0
  -26.0624  -26.9638   19.4901 C   0  0  0  0  0  0
  -24.8633  -27.7006   19.5132 C   0  0  0  0  0  0
  -23.5950  -29.8307   20.1738 C   0  0  0  0  0  0
  -25.4122  -36.3142   24.0344 C   0  0  1  0  0  0
  -20.5882  -28.3687   23.1330 C   0  0  2  0  0  0
  -20.6771  -26.9404   22.5459 C   0  0  0  0  0  0
  -19.5717  -26.6383   21.5266 C   0  0  0  0  0  0
  -18.1910  -26.7950   22.1662 C   0  0  0  0  0  0
  -19.1553  -28.8851   23.2950 C   0  0  0  0  0  0
  -18.9451  -30.1450   23.8935 C   0  0  0  0  0  0
  -17.6442  -30.6581   24.0583 C   0  0  0  0  0  0
  -25.9030  -34.9505   23.5145 C   0  0  0  0  0  0
  -16.5351  -29.9077   23.6350 C   0  0  0  0  0  0
  -16.7292  -28.6508   23.0356 C   0  0  0  0  0  0
  -26.4419  -31.6604   25.0759 C   0  0  0  0  0  0
  -25.3678  -31.3620   26.1479 C   0  0  0  0  0  0
  -27.0267  -30.3100   24.6081 C   0  0  0  0  0  0
  -27.6066  -32.4268   25.7443 C   0  0  0  0  0  0
  -27.5586  -37.1804   24.8476 C   0  0  0  0  0  0
  -21.4111  -29.3050   22.3733 N   0  0  0  0  0  0
  -26.4310  -37.3819   23.9427 N   0  0  0  0  0  0
  -24.6633  -31.0881   22.1057 N   0  0  0  0  0  0
  -23.4170  -28.8300   23.3066 O   0  0  0  0  0  0
  -28.3857  -26.7448   20.0584 O   0  0  0  0  0  0
  -26.5578  -34.8914   22.4688 O   0  0  0  0  0  0
  -23.5297  -32.1473   23.7624 O   0  0  0  0  0  0
  -30.7528  -20.8776   20.2372 C   0  0  0  0  0  0
  -31.7343  -20.3418   19.3896 C   0  0  0  0  0  0
  -29.6995  -18.6758   20.3905 C   0  0  0  0  0  0
  -29.6993  -20.0628   20.7001 C   0  0  0  0  0  0
  -31.6966  -18.9823   19.0077 C   0  0  0  0  0  0
  -30.6883  -18.1126   19.5411 C   0  0  0  0  0  0
  -28.3767  -23.1609   21.3767 C   0  0  0  0  0  0
  -32.7577  -18.5584   17.9924 C   0  0  0  0  0  0
  -29.9254  -16.5024   17.7335 C   0  0  0  0  0  0
  -27.0213  -21.7347   19.8678 C   0  0  0  0  0  0
  -28.5635  -20.6831   21.5160 C   0  0  0  0  0  0
  -27.7999  -24.4163   20.6888 C   0  0  0  0  0  0
  -28.4875  -25.7508   21.0801 C   0  0  0  0  0  0
  -30.6110  -16.6314   19.1090 C   0  0  2  0  0  0
  -30.0485  -15.6223   20.0551 N   0  0  0  0  0  0
  -28.0096  -21.9292   20.9404 N   0  0  0  0  0  0
  -29.1679  -23.3064   22.3159 O   0  0  0  0  0  0
  -31.4397  -12.3584   19.0989 H   0  0  0  0  0  0
  -30.2760  -11.2972   19.8404 H   0  0  0  0  0  0
  -29.7086  -11.7266   17.4257 H   0  0  0  0  0  0
  -29.6306  -13.4379   17.7402 H   0  0  0  0  0  0
  -27.8359  -11.2696   18.8636 H   0  0  0  0  0  0
  -27.3450  -12.5494   17.7819 H   0  0  0  0  0  0
  -27.6524  -14.2377   19.4814 H   0  0  0  0  0  0
  -28.6660  -12.1433   21.4614 H   0  0  0  0  0  0
  -28.4983  -13.8575   21.7506 H   0  0  0  0  0  0
  -25.2801   -9.5743   22.4794 H   0  0  0  0  0  0
  -24.0046   -7.4682   22.7560 H   0  0  0  0  0  0
  -21.0837   -8.8804   19.8990 H   0  0  0  0  0  0
  -22.3683  -10.9749   19.6241 H   0  0  0  0  0  0
  -21.1966   -7.6152   23.9692 H   0  0  0  0  0  0
  -21.1487   -6.0577   25.9070 H   0  0  0  0  0  0
  -22.0572   -2.7636   23.2872 H   0  0  0  0  0  0
  -22.4188  -11.9863   22.4680 H   0  0  0  0  0  0
  -21.1226  -13.1391   22.2625 H   0  0  0  0  0  0
  -24.6644  -15.8386   20.5460 H   0  0  0  0  0  0
  -26.2831  -15.6408   20.1186 H   0  0  0  0  0  0
  -26.7089  -32.5620   23.1231 H   0  0  0  0  0  0
  -25.0064  -33.9840   25.0527 H   0  0  0  0  0  0
  -22.6905  -31.3267   21.4220 H   0  0  0  0  0  0
  -23.3770  -35.9636   23.3347 H   0  0  0  0  0  0
  -24.3587  -36.8903   22.2046 H   0  0  0  0  0  0
  -23.7193  -37.6515   23.6637 H   0  0  0  0  0  0
  -26.0215  -31.6287   20.5953 H   0  0  0  0  0  0
  -26.8113  -30.9137   21.9726 H   0  0  0  0  0  0
  -28.1002  -29.1534   21.1387 H   0  0  0  0  0  0
  -26.0865  -25.9985   19.0097 H   0  0  0  0  0  0
  -23.9666  -27.2897   19.0661 H   0  0  0  0  0  0
  -23.6944  -30.6106   19.4142 H   0  0  0  0  0  0
  -22.7174  -29.2504   19.8834 H   0  0  0  0  0  0
  -25.1281  -36.2058   25.0844 H   0  0  0  0  0  0
  -21.0020  -28.3267   24.1423 H   0  0  0  0  0  0
  -20.5728  -26.2287   23.3666 H   0  0  0  0  0  0
  -21.6632  -26.7470   22.1198 H   0  0  0  0  0  0
  -19.6896  -25.6294   21.1264 H   0  0  0  0  0  0
  -19.6643  -27.3238   20.6819 H   0  0  0  0  0  0
  -17.4199  -26.6791   21.4030 H   0  0  0  0  0  0
  -18.0229  -26.0078   22.9023 H   0  0  0  0  0  0
  -19.7928  -30.7313   24.2266 H   0  0  0  0  0  0
  -17.4987  -31.6256   24.5160 H   0  0  0  0  0  0
  -15.5329  -30.2948   23.7637 H   0  0  0  0  0  0
  -15.8726  -28.0820   22.6984 H   0  0  0  0  0  0
  -24.6000  -30.6782   25.7801 H   0  0  0  0  0  0
  -24.8626  -32.2688   26.4834 H   0  0  0  0  0  0
  -25.8027  -30.8909   27.0296 H   0  0  0  0  0  0
  -26.2819  -29.6843   24.1149 H   0  0  0  0  0  0
  -27.4101  -29.7336   25.4484 H   0  0  0  0  0  0
  -27.8612  -30.4475   23.9206 H   0  0  0  0  0  0
  -27.2850  -33.3675   26.1919 H   0  0  0  0  0  0
  -28.3882  -32.6615   25.0201 H   0  0  0  0  0  0
  -28.0715  -31.8421   26.5366 H   0  0  0  0  0  0
  -28.2598  -38.0095   24.7557 H   0  0  0  0  0  0
  -28.1055  -36.2620   24.6293 H   0  0  0  0  0  0
  -27.2285  -37.1471   25.8861 H   0  0  0  0  0  0
  -20.9282  -29.8721   21.6914 H   0  0  0  0  0  0
  -26.0216  -38.2907   24.1440 H   0  0  0  0  0  0
  -30.8116  -21.9283   20.4989 H   0  0  0  0  0  0
  -32.5099  -20.9936   19.0075 H   0  0  0  0  0  0
  -28.9145  -18.0401   20.7733 H   0  0  0  0  0  0
  -33.7061  -19.0312   18.2473 H   0  0  0  0  0  0
  -32.4831  -18.8952   16.9909 H   0  0  0  0  0  0
  -32.9689  -17.4972   17.9287 H   0  0  0  0  0  0
  -30.3352  -17.2180   17.0201 H   0  0  0  0  0  0
  -28.8503  -16.6776   17.7799 H   0  0  0  0  0  0
  -30.1060  -15.5211   17.2961 H   0  0  0  0  0  0
  -26.1049  -22.2915   20.0679 H   0  0  0  0  0  0
  -26.7343  -20.6901   19.7502 H   0  0  0  0  0  0
  -27.4083  -22.0674   18.9067 H   0  0  0  0  0  0
  -28.9136  -20.8480   22.5365 H   0  0  0  0  0  0
  -27.7576  -19.9528   21.6174 H   0  0  0  0  0  0
  -26.7318  -24.4747   20.8977 H   0  0  0  0  0  0
  -27.9059  -24.2915   19.6103 H   0  0  0  0  0  0
  -29.5534  -25.6021   21.2510 H   0  0  0  0  0  0
  -28.0820  -26.1244   22.0170 H   0  0  0  0  0  0
  -31.6447  -16.3461   18.9427 H   0  0  0  0  0  0
  -29.0448  -15.5740   20.1226 H   0  0  0  0  0  0
  1 25  1  0  0  0
  1 30  2  0  0  0
  1 85  1  0  0  0
  2  3  1  0  0  0
  2 25  1  0  0  0
  2 88  1  0  0  0
  2 89  1  0  0  0
  3  4  1  0  0  0
  3 90  1  0  0  0
  3 91  1  0  0  0
  4  5  1  0  0  0
  4 92  1  0  0  0
  4 93  1  0  0  0
  5  6  1  0  0  0
  5 26  1  0  0  0
  5 94  1  0  0  0
  6 25  1  0  0  0
  6 95  1  0  0  0
  6 96  1  0  0  0
  7  8  2  0  0  0
  7 26  1  0  0  0
  7 29  1  0  0  0
  8  9  1  0  0  0
  8 22  1  0  0  0
  9 10  1  0  0  0
  9 27  2  0  0  0
 10 11  2  0  0  0
 10 15  1  0  0  0
 11 12  1  0  0  0
 11 97  1  0  0  0
 12 13  2  0  0  0
 12 98  1  0  0  0
 13 14  1  0  0  0
 13 31  1  0  0  0
 14 15  2  0  0  0
 14 99  1  0  0  0
 15100  1  0  0  0
 16 17  2  0  0  0
 16 21  1  0  0  0
 16 31  1  0  0  0
 17 18  1  0  0  0
 17101  1  0  0  0
 18 19  2  0  0  0
 18102  1  0  0  0
 19 20  1  0  0  0
 19 24  1  0  0  0
 20 21  2  0  0  0
 20103  1  0  0  0
 21 23  1  0  0  0
 22 28  1  0  0  0
 22 32  2  0  0  0
 26 27  1  0  0  0
 28104  1  0  0  0
 28105  1  0  0  0
 29106  1  0  0  0
 29107  1  0  0  0
 33 34  1  0  0  0
 33 66  1  0  0  0
 33 70  2  0  0  0
 34 36  1  0  0  0
 34 59  1  0  0  0
 34108  1  0  0  0
 35 44  2  0  0  0
 35 45  1  0  0  0
 35 68  1  0  0  0
 36 56  1  0  0  0
 36109  1  0  0  0
 37 39  1  0  0  0
 37 47  1  0  0  0
 37 66  1  0  0  0
 37110  1  0  0  0
 38 43  2  0  0  0
 38 46  1  0  0  0
 38 47  1  0  0  0
 39 64  1  0  0  0
 39 67  2  0  0  0
 40 52  1  0  0  0
 40 53  2  0  0  0
 40 58  1  0  0  0
 41111  1  0  0  0
 41112  1  0  0  0
 41113  1  0  0  0
 41 48  1  0  0  0
 42 43  1  0  0  0
 42 66  1  0  0  0
 42114  1  0  0  0
 42115  1  0  0  0
 43 44  1  0  0  0
 44116  1  0  0  0
 45 46  2  0  0  0
 45117  1  0  0  0
 46118  1  0  0  0
 47119  1  0  0  0
 47120  1  0  0  0
 48 56  1  0  0  0
 48 65  1  0  0  0
 48121  1  0  0  0
 49 50  1  0  0  0
 49 53  1  0  0  0
 49 64  1  0  0  0
 49122  1  0  0  0
 50 51  1  0  0  0
 50123  1  0  0  0
 50124  1  0  0  0
 51 52  1  0  0  0
 51125  1  0  0  0
 51126  1  0  0  0
 52127  1  0  0  0
 52128  1  0  0  0
 53 54  1  0  0  0
 54 55  2  0  0  0
 54129  1  0  0  0
 55 57  1  0  0  0
 55130  1  0  0  0
 56 69  2  0  0  0
 57 58  2  0  0  0
 57131  1  0  0  0
 58132  1  0  0  0
 59 60  1  0  0  0
 59 61  1  0  0  0
 59 62  1  0  0  0
 60133  1  0  0  0
 60134  1  0  0  0
 60135  1  0  0  0
 61136  1  0  0  0
 61137  1  0  0  0
 61138  1  0  0  0
 62139  1  0  0  0
 62140  1  0  0  0
 62141  1  0  0  0
 63 65  1  0  0  0
 63142  1  0  0  0
 63143  1  0  0  0
 63144  1  0  0  0
 64145  1  0  0  0
 65146  1  0  0  0
 68 83  1  0  0  0
 71 72  2  0  0  0
 71 74  1  0  0  0
 71147  1  0  0  0
 72 75  1  0  0  0
 72148  1  0  0  0
 73 74  2  0  0  0
 73 76  1  0  0  0
 73149  1  0  0  0
 74 81  1  0  0  0
 75 76  2  0  0  0
 75 78  1  0  0  0
 76 84  1  0  0  0
 77 82  1  0  0  0
 77 86  1  0  0  0
 77 87  2  0  0  0
 78150  1  0  0  0
 78151  1  0  0  0
 78152  1  0  0  0
 79153  1  0  0  0
 79154  1  0  0  0
 79155  1  0  0  0
 79 84  1  0  0  0
 80 86  1  0  0  0
 80156  1  0  0  0
 80157  1  0  0  0
 80158  1  0  0  0
 81 86  1  0  0  0
 81159  1  0  0  0
 81160  1  0  0  0
 82 83  1  0  0  0
 82161  1  0  0  0
 82162  1  0  0  0
 83163  1  0  0  0
 83164  1  0  0  0
 84 85  1  0  0  0
 84165  1  0  0  0
 85166  1  0  0  0
M  ISO  4   1 100  68 101  83 101  85 100
M  END
> <chiral flag>
0

> <version>
0

> <s_m_source_file>
/data/baiqing/PycharmProjects/Reinvent-master-3.2/result/LINK_invent/BTK/process_docking_weight1_custom_product_contain_oxygen_bond_distance_aromatic_linkinvent_7_9_3/rearranged_h_0051.sdf

> <i_m_source_file_index>
8

> <r_mmod_Potential_Energy-OPLS-2005>
-35.173526763916

> <r_mmod_Stretch_Energy-OPLS-2005>
43.711742401123

> <r_mmod_Bend_Energy-OPLS-2005>
103.817398071289

> <r_mmod_Torsional_Energy-OPLS-2005>
264.020324707031

> <r_mmod_Improper_Torsional_Energy-OPLS-2005>
15.9319343566895

> <r_mmod_Van_der_Waal_Energy-OPLS-2005>
162.849105834961

> <r_mmod_Electrostatic_Energy-OPLS-2005>
-430.211791992188

> <r_mmod_Solvation_Energy-OPLS-2005>
-229.3681640625

> <b_mmod_Minimization_Converged-OPLS-2005>
0

> <r_mmod_RMS_Derivative-OPLS-2005>
7.32014989852905

$$$$
8
                    3D
 Structure written by MMmdl.
156164  0  0  1  0            999 V2000
  -30.6001  -14.7497   20.4623 C   0  0  0  0  0  0
  -30.4338  -12.4628   19.4608 C   0  0  0  0  0  0
  -29.5068  -12.5102   18.2268 C   0  0  0  0  0  0
  -28.0324  -12.3332   18.6417 C   0  0  0  0  0  0
  -27.6385  -13.2297   19.8460 C   0  0  2  0  0  0
  -28.6848  -13.1596   20.9776 C   0  0  0  0  0  0
  -25.2499  -13.8185   20.5680 C   0  0  0  0  0  0
  -24.1797  -13.0432   20.9209 C   0  0  0  0  0  0
  -24.6383  -11.6911   20.8742 C   0  0  0  0  0  0
  -23.9060  -10.4292   21.0408 C   0  0  0  0  0  0
  -24.3618   -9.4207   21.9181 C   0  0  0  0  0  0
  -23.6296   -8.2241   22.0749 C   0  0  0  0  0  0
  -22.4278   -8.0278   21.3538 C   0  0  0  0  0  0
  -21.9911   -9.0251   20.4642 C   0  0  0  0  0  0
  -22.7236  -10.2130   20.3053 C   0  0  0  0  0  0
  -21.6857   -6.0735   22.5281 C   0  0  0  0  0  0
  -21.4015   -6.5640   23.8212 C   0  0  0  0  0  0
  -21.3656   -5.6793   24.9176 C   0  0  0  0  0  0
  -21.6044   -4.3055   24.7228 C   0  0  0  0  0  0
  -21.8817   -3.8147   23.4349 C   0  0  0  0  0  0
  -21.9195   -4.6963   22.3407 C   0  0  0  0  0  0
  -22.7818  -13.5217   21.1877 C   0  0  0  0  0  0
  -22.1664   -4.2152   21.0982 F   0  0  0  0  0  0
  -21.5627   -3.4539   25.7738 F   0  0  0  0  0  0
  -29.9804  -13.5222   20.3900 N   0  0  0  0  0  0
  -26.2920  -12.9386   20.3259 N   0  0  0  0  0  0
  -25.9311  -11.6531   20.5737 N   0  0  0  0  0  0
  -22.0470  -12.8204   22.0432 N   0  0  0  0  0  0
  -25.4167  -15.1906   20.4072 N   0  0  0  0  0  0
  -31.7980  -14.8490   20.1822 O   0  0  0  0  0  0
  -21.6638   -6.8878   21.4241 O   0  0  0  0  0  0
  -22.3502  -14.5525   20.6727 O   0  0  0  0  0  0
  -24.6314  -31.8557   23.1967 C   0  0  0  0  0  0
  -25.9144  -32.4754   23.8318 C   0  0  1  0  0  0
  -27.2197  -27.2662   20.1326 C   0  0  0  0  0  0
  -25.5938  -33.8556   24.2243 N   0  0  0  0  0  0
  -23.4285  -30.4767   21.5405 C   0  0  2  0  0  0
  -24.8776  -28.9180   20.1155 C   0  0  0  0  0  0
  -22.7505  -29.4608   22.4911 C   0  0  0  0  0  0
  -18.0301  -28.1390   22.8488 C   0  0  0  0  0  0
  -24.1487  -36.7272   23.2635 C   0  0  0  0  0  0
  -25.9734  -30.7700   21.3760 C   0  0  0  0  0  0
  -26.0494  -29.3906   20.7223 C   0  0  0  0  0  0
  -27.2290  -28.5771   20.7192 C   0  0  0  0  0  0
  -26.0278  -26.8535   19.5084 C   0  0  0  0  0  0
  -24.8705  -27.6578   19.4985 C   0  0  0  0  0  0
  -23.6488  -29.8074   20.1576 C   0  0  0  0  0  0
  -25.4114  -36.3063   24.0318 C   0  0  1  0  0  0
  -20.5905  -28.3704   23.1270 C   0  0  2  0  0  0
  -20.6789  -26.9418   22.5410 C   0  0  0  0  0  0
  -19.5756  -26.6391   21.5218 C   0  0  0  0  0  0
  -18.1941  -26.7934   22.1632 C   0  0  0  0  0  0
  -19.1552  -28.8864   23.2878 C   0  0  0  0  0  0
  -18.9469  -30.1469   23.8888 C   0  0  0  0  0  0
  -17.6465  -30.6591   24.0566 C   0  0  0  0  0  0
  -25.9050  -34.9439   23.5081 C   0  0  0  0  0  0
  -16.5359  -29.9082   23.6333 C   0  0  0  0  0  0
  -16.7291  -28.6504   23.0353 C   0  0  0  0  0  0
  -26.4506  -31.6574   25.0710 C   0  0  0  0  0  0
  -25.3731  -31.3743   26.1428 C   0  0  0  0  0  0
  -27.0333  -30.2983   24.6199 C   0  0  0  0  0  0
  -27.6051  -32.4310   25.7496 C   0  0  0  0  0  0
  -27.5575  -37.1798   24.8466 C   0  0  0  0  0  0
  -21.4213  -29.3047   22.3657 N   0  0  0  0  0  0
  -26.4286  -37.3765   23.9403 N   0  0  0  0  0  0
  -24.6964  -31.0517   22.0942 N   0  0  0  0  0  0
  -23.4211  -28.8144   23.3007 O   0  0  0  0  0  0
  -28.2845  -26.3357   20.1336 O   0  0  0  0  0  0
  -26.5623  -34.8915   22.4649 O   0  0  0  0  0  0
  -23.5466  -32.1376   23.7264 O   0  0  0  0  0  0
  -29.4941  -19.9235   20.8740 C   0  0  0  0  0  0
  -29.0834  -18.5324   18.9304 C   0  0  0  0  0  0
  -28.5299  -20.9454   18.8964 C   0  0  0  0  0  0
  -29.5640  -18.6072   20.2535 C   0  0  0  0  0  0
  -28.9755  -21.1197   20.2237 C   0  0  0  0  0  0
  -28.5823  -19.6779   18.2666 C   0  0  0  0  0  0
  -28.1658  -25.1237   20.8347 C   0  0  0  0  0  0
  -27.3537  -24.2977   23.1241 C   0  0  0  0  0  0
  -30.2387  -17.3279   20.9309 C   0  0  0  0  0  0
  -28.7955  -22.5242   20.9671 C   0  0  0  0  0  0
  -29.8191  -15.8801   20.6648 N   0  0  0  0  0  0
  -28.6396  -23.9140   20.2994 N   0  0  0  0  0  0
  -27.6227  -25.2766   22.0644 N   0  3  0  0  0  0
  -28.0208  -19.5265   16.6423 Cl  0  0  0  0  0  0
  -31.4719  -12.6006   19.1543 H   0  0  0  0  0  0
  -30.3891  -11.4857   19.9435 H   0  0  0  0  0  0
  -29.7894  -11.7387   17.5096 H   0  0  0  0  0  0
  -29.6293  -13.4649   17.7123 H   0  0  0  0  0  0
  -27.8870  -11.2836   18.8997 H   0  0  0  0  0  0
  -27.3754  -12.5301   17.7939 H   0  0  0  0  0  0
  -27.6327  -14.2520   19.4678 H   0  0  0  0  0  0
  -28.7259  -12.1577   21.4076 H   0  0  0  0  0  0
  -28.4201  -13.8333   21.7942 H   0  0  0  0  0  0
  -25.2763   -9.5688   22.4755 H   0  0  0  0  0  0
  -24.0013   -7.4629   22.7462 H   0  0  0  0  0  0
  -21.0846   -8.8761   19.8947 H   0  0  0  0  0  0
  -22.3689  -10.9666   19.6163 H   0  0  0  0  0  0
  -21.2006   -7.6148   23.9718 H   0  0  0  0  0  0
  -21.1480   -6.0522   25.9078 H   0  0  0  0  0  0
  -22.0599   -2.7611   23.2847 H   0  0  0  0  0  0
  -22.4094  -11.9866   22.4820 H   0  0  0  0  0  0
  -21.1080  -13.1212   22.2639 H   0  0  0  0  0  0
  -24.6418  -15.8376   20.5055 H   0  0  0  0  0  0
  -26.2522  -15.6303   20.0431 H   0  0  0  0  0  0
  -26.7210  -32.5404   23.1061 H   0  0  0  0  0  0
  -25.0118  -33.9695   25.0413 H   0  0  0  0  0  0
  -22.7253  -31.2990   21.3932 H   0  0  0  0  0  0
  -23.3745  -35.9609   23.3309 H   0  0  0  0  0  0
  -24.3579  -36.8880   22.2048 H   0  0  0  0  0  0
  -23.7248  -37.6478   23.6651 H   0  0  0  0  0  0
  -26.1117  -31.5294   20.6055 H   0  0  0  0  0  0
  -26.8499  -30.8214   22.0105 H   0  0  0  0  0  0
  -28.1288  -28.9359   21.1982 H   0  0  0  0  0  0
  -25.9848  -25.8801   19.0405 H   0  0  0  0  0  0
  -23.9718  -27.2898   19.0230 H   0  0  0  0  0  0
  -23.7778  -30.5820   19.4004 H   0  0  0  0  0  0
  -22.7668  -29.2433   19.8506 H   0  0  0  0  0  0
  -25.1310  -36.1898   25.0814 H   0  0  0  0  0  0
  -21.0018  -28.3276   24.1381 H   0  0  0  0  0  0
  -20.5685  -26.2313   23.3615 H   0  0  0  0  0  0
  -21.6659  -26.7440   22.1205 H   0  0  0  0  0  0
  -19.6905  -25.6303   21.1248 H   0  0  0  0  0  0
  -19.6679  -27.3187   20.6737 H   0  0  0  0  0  0
  -17.4211  -26.6687   21.4032 H   0  0  0  0  0  0
  -18.0343  -26.0077   22.9034 H   0  0  0  0  0  0
  -19.7943  -30.7307   24.2233 H   0  0  0  0  0  0
  -17.5012  -31.6268   24.5174 H   0  0  0  0  0  0
  -15.5356  -30.2981   23.7652 H   0  0  0  0  0  0
  -15.8700  -28.0824   22.7057 H   0  0  0  0  0  0
  -24.5921  -30.7070   25.7764 H   0  0  0  0  0  0
  -24.8914  -32.2924   26.4805 H   0  0  0  0  0  0
  -25.8056  -30.8967   27.0230 H   0  0  0  0  0  0
  -26.2912  -29.6753   24.1193 H   0  0  0  0  0  0
  -27.3966  -29.7235   25.4725 H   0  0  0  0  0  0
  -27.8819  -30.4237   23.9466 H   0  0  0  0  0  0
  -27.2653  -33.3622   26.2042 H   0  0  0  0  0  0
  -28.3887  -32.6845   25.0344 H   0  0  0  0  0  0
  -28.0683  -31.8453   26.5447 H   0  0  0  0  0  0
  -28.2593  -38.0096   24.7520 H   0  0  0  0  0  0
  -28.1079  -36.2634   24.6291 H   0  0  0  0  0  0
  -27.2303  -37.1444   25.8872 H   0  0  0  0  0  0
  -20.9390  -29.8768   21.6861 H   0  0  0  0  0  0
  -26.0159  -38.2833   24.1418 H   0  0  0  0  0  0
  -29.8488  -20.0165   21.8908 H   0  0  0  0  0  0
  -29.1212  -17.5905   18.4019 H   0  0  0  0  0  0
  -28.1182  -21.7825   18.3509 H   0  0  0  0  0  0
  -28.2521  -23.7378   23.3827 H   0  0  0  0  0  0
  -26.5662  -23.6068   22.8230 H   0  0  0  0  0  0
  -27.0200  -24.8078   24.0277 H   0  0  0  0  0  0
  -30.1626  -17.4678   22.0096 H   0  0  0  0  0  0
  -31.3048  -17.4068   20.7141 H   0  0  0  0  0  0
  -29.6154  -22.6118   21.6794 H   0  0  0  0  0  0
  -27.9024  -22.3655   21.5661 H   0  0  0  0  0  0
  -28.8368  -15.6931   20.7970 H   0  0  0  0  0  0
  -29.0235  -23.9713   19.3682 H   0  0  0  0  0  0
  -27.3609  -26.2224   22.3037 H   0  0  0  0  0  0
  1 25  1  0  0  0
  1 30  2  0  0  0
  1 81  1  0  0  0
  2  3  1  0  0  0
  2 25  1  0  0  0
  2 85  1  0  0  0
  2 86  1  0  0  0
  3  4  1  0  0  0
  3 87  1  0  0  0
  3 88  1  0  0  0
  4  5  1  0  0  0
  4 89  1  0  0  0
  4 90  1  0  0  0
  5  6  1  0  0  0
  5 26  1  0  0  0
  5 91  1  0  0  0
  6 25  1  0  0  0
  6 92  1  0  0  0
  6 93  1  0  0  0
  7  8  2  0  0  0
  7 26  1  0  0  0
  7 29  1  0  0  0
  8  9  1  0  0  0
  8 22  1  0  0  0
  9 10  1  0  0  0
  9 27  2  0  0  0
 10 11  2  0  0  0
 10 15  1  0  0  0
 11 12  1  0  0  0
 11 94  1  0  0  0
 12 13  2  0  0  0
 12 95  1  0  0  0
 13 14  1  0  0  0
 13 31  1  0  0  0
 14 15  2  0  0  0
 14 96  1  0  0  0
 15 97  1  0  0  0
 16 17  2  0  0  0
 16 21  1  0  0  0
 16 31  1  0  0  0
 17 18  1  0  0  0
 17 98  1  0  0  0
 18 19  2  0  0  0
 18 99  1  0  0  0
 19 20  1  0  0  0
 19 24  1  0  0  0
 20 21  2  0  0  0
 20100  1  0  0  0
 21 23  1  0  0  0
 22 28  1  0  0  0
 22 32  2  0  0  0
 26 27  1  0  0  0
 28101  1  0  0  0
 28102  1  0  0  0
 29103  1  0  0  0
 29104  1  0  0  0
 33 34  1  0  0  0
 33 66  1  0  0  0
 33 70  2  0  0  0
 34 36  1  0  0  0
 34 59  1  0  0  0
 34105  1  0  0  0
 35 44  2  0  0  0
 35 45  1  0  0  0
 35 68  1  0  0  0
 36 56  1  0  0  0
 36106  1  0  0  0
 37 39  1  0  0  0
 37 47  1  0  0  0
 37 66  1  0  0  0
 37107  1  0  0  0
 38 43  2  0  0  0
 38 46  1  0  0  0
 38 47  1  0  0  0
 39 64  1  0  0  0
 39 67  2  0  0  0
 40 52  1  0  0  0
 40 53  2  0  0  0
 40 58  1  0  0  0
 41108  1  0  0  0
 41109  1  0  0  0
 41110  1  0  0  0
 41 48  1  0  0  0
 42 43  1  0  0  0
 42 66  1  0  0  0
 42111  1  0  0  0
 42112  1  0  0  0
 43 44  1  0  0  0
 44113  1  0  0  0
 45 46  2  0  0  0
 45114  1  0  0  0
 46115  1  0  0  0
 47116  1  0  0  0
 47117  1  0  0  0
 48 56  1  0  0  0
 48 65  1  0  0  0
 48118  1  0  0  0
 49 50  1  0  0  0
 49 53  1  0  0  0
 49 64  1  0  0  0
 49119  1  0  0  0
 50 51  1  0  0  0
 50120  1  0  0  0
 50121  1  0  0  0
 51 52  1  0  0  0
 51122  1  0  0  0
 51123  1  0  0  0
 52124  1  0  0  0
 52125  1  0  0  0
 53 54  1  0  0  0
 54 55  2  0  0  0
 54126  1  0  0  0
 55 57  1  0  0  0
 55127  1  0  0  0
 56 69  2  0  0  0
 57 58  2  0  0  0
 57128  1  0  0  0
 58129  1  0  0  0
 59 60  1  0  0  0
 59 61  1  0  0  0
 59 62  1  0  0  0
 60130  1  0  0  0
 60131  1  0  0  0
 60132  1  0  0  0
 61133  1  0  0  0
 61134  1  0  0  0
 61135  1  0  0  0
 62136  1  0  0  0
 62137  1  0  0  0
 62138  1  0  0  0
 63 65  1  0  0  0
 63139  1  0  0  0
 63140  1  0  0  0
 63141  1  0  0  0
 64142  1  0  0  0
 65143  1  0  0  0
 68 77  1  0  0  0
 71 74  2  0  0  0
 71 75  1  0  0  0
 71144  1  0  0  0
 72 74  1  0  0  0
 72 76  2  0  0  0
 72145  1  0  0  0
 73 75  2  0  0  0
 73 76  1  0  0  0
 73146  1  0  0  0
 74 79  1  0  0  0
 75 80  1  0  0  0
 76 84  1  0  0  0
 77 82  1  0  0  0
 77 83  2  0  0  0
 78 83  1  0  0  0
 78147  1  0  0  0
 78148  1  0  0  0
 78149  1  0  0  0
 79 81  1  0  0  0
 79150  1  0  0  0
 79151  1  0  0  0
 80 82  1  0  0  0
 80152  1  0  0  0
 80153  1  0  0  0
 81154  1  0  0  0
 82155  1  0  0  0
 83156  1  0  0  0
M  CHG  1  83   1
M  ISO  4   1 100  68 101  77 101  81 100
M  END
> <chiral flag>
0

> <version>
0

> <s_m_source_file>
/data/baiqing/PycharmProjects/Reinvent-master-3.2/result/LINK_invent/BTK/process_docking_weight1_custom_product_contain_oxygen_bond_distance_aromatic_linkinvent_7_9_3/rearranged_h_0051.sdf

> <i_m_source_file_index>
9

> <r_mmod_Potential_Energy-OPLS-2005>
-17.096887588501

> <r_mmod_Stretch_Energy-OPLS-2005>
119.547065734863

> <r_mmod_Bend_Energy-OPLS-2005>
169.092300415039

> <r_mmod_Torsional_Energy-OPLS-2005>
220.256393432617

> <r_mmod_Improper_Torsional_Energy-OPLS-2005>
5.28722858428955

> <r_mmod_Van_der_Waal_Energy-OPLS-2005>
133.471160888672

> <r_mmod_Electrostatic_Energy-OPLS-2005>
-326.500579833984

> <r_mmod_Solvation_Energy-OPLS-2005>
-426.953216552734

> <b_mmod_Minimization_Converged-OPLS-2005>
0

> <r_mmod_RMS_Derivative-OPLS-2005>
1.57467842102051

$$$$
9
                    3D
 Structure written by MMmdl.
163171  0  0  1  0            999 V2000
  -30.6440  -14.5657   20.5271 C   0  0  0  0  0  0
  -30.4351  -12.3552   19.4213 C   0  0  0  0  0  0
  -29.4967  -12.4890   18.2020 C   0  0  0  0  0  0
  -28.0175  -12.3431   18.6208 C   0  0  0  0  0  0
  -27.6535  -13.2055   19.8584 C   0  0  2  0  0  0
  -28.7025  -13.0273   20.9774 C   0  0  0  0  0  0
  -25.2587  -13.8150   20.5672 C   0  0  0  0  0  0
  -24.1836  -13.0419   20.9172 C   0  0  0  0  0  0
  -24.6397  -11.6884   20.8739 C   0  0  0  0  0  0
  -23.9064  -10.4273   21.0402 C   0  0  0  0  0  0
  -24.3618   -9.4199   21.9186 C   0  0  0  0  0  0
  -23.6287   -8.2245   22.0766 C   0  0  0  0  0  0
  -22.4276   -8.0275   21.3555 C   0  0  0  0  0  0
  -21.9905   -9.0246   20.4653 C   0  0  0  0  0  0
  -22.7235  -10.2124   20.3061 C   0  0  0  0  0  0
  -21.6849   -6.0731   22.5274 C   0  0  0  0  0  0
  -21.4015   -6.5649   23.8209 C   0  0  0  0  0  0
  -21.3658   -5.6807   24.9175 C   0  0  0  0  0  0
  -21.6042   -4.3068   24.7231 C   0  0  0  0  0  0
  -21.8824   -3.8148   23.4352 C   0  0  0  0  0  0
  -21.9197   -4.6962   22.3406 C   0  0  0  0  0  0
  -22.7867  -13.5229   21.1803 C   0  0  0  0  0  0
  -22.1653   -4.2157   21.0980 F   0  0  0  0  0  0
  -21.5645   -3.4536   25.7734 F   0  0  0  0  0  0
  -30.0165  -13.3613   20.4081 N   0  0  0  0  0  0
  -26.2998  -12.9307   20.3306 N   0  0  0  0  0  0
  -25.9324  -11.6469   20.5767 N   0  0  0  0  0  0
  -22.0513  -12.8253   22.0392 N   0  0  0  0  0  0
  -25.4308  -15.1876   20.4082 N   0  0  0  0  0  0
  -31.8138  -14.7415   20.1716 O   0  0  0  0  0  0
  -21.6655   -6.8876   21.4228 O   0  0  0  0  0  0
  -22.3559  -14.5511   20.6595 O   0  0  0  0  0  0
  -24.6207  -31.8647   23.2072 C   0  0  0  0  0  0
  -25.9074  -32.4813   23.8379 C   0  0  1  0  0  0
  -27.2180  -27.3691   20.1091 C   0  0  0  0  0  0
  -25.5919  -33.8612   24.2317 N   0  0  0  0  0  0
  -23.4110  -30.4899   21.5494 C   0  0  2  0  0  0
  -24.8530  -28.9523   20.1150 C   0  0  0  0  0  0
  -22.7446  -29.4649   22.4974 C   0  0  0  0  0  0
  -18.0281  -28.1385   22.8493 C   0  0  0  0  0  0
  -24.1487  -36.7304   23.2636 C   0  0  0  0  0  0
  -25.9468  -30.8128   21.3685 C   0  0  0  0  0  0
  -26.0201  -29.4446   20.7116 C   0  0  0  0  0  0
  -27.2070  -28.6644   20.6968 C   0  0  0  0  0  0
  -26.0258  -26.9105   19.5024 C   0  0  0  0  0  0
  -24.8550  -27.6905   19.5023 C   0  0  0  0  0  0
  -23.6209  -29.8283   20.1630 C   0  0  0  0  0  0
  -25.4112  -36.3106   24.0336 C   0  0  1  0  0  0
  -20.5874  -28.3675   23.1312 C   0  0  2  0  0  0
  -20.6767  -26.9408   22.5422 C   0  0  0  0  0  0
  -19.5746  -26.6388   21.5214 C   0  0  0  0  0  0
  -18.1923  -26.7934   22.1621 C   0  0  0  0  0  0
  -19.1530  -28.8847   23.2900 C   0  0  0  0  0  0
  -18.9453  -30.1451   23.8917 C   0  0  0  0  0  0
  -17.6452  -30.6585   24.0570 C   0  0  0  0  0  0
  -25.9042  -34.9469   23.5123 C   0  0  0  0  0  0
  -16.5346  -29.9086   23.6328 C   0  0  0  0  0  0
  -16.7269  -28.6504   23.0350 C   0  0  0  0  0  0
  -26.4488  -31.6603   25.0726 C   0  0  0  0  0  0
  -25.3737  -31.3725   26.1461 C   0  0  0  0  0  0
  -27.0320  -30.3035   24.6140 C   0  0  0  0  0  0
  -27.6076  -32.4321   25.7478 C   0  0  0  0  0  0
  -27.5593  -37.1801   24.8464 C   0  0  0  0  0  0
  -21.4168  -29.3039   22.3715 N   0  0  0  0  0  0
  -26.4299  -37.3794   23.9420 N   0  0  0  0  0  0
  -24.6786  -31.0705   22.0998 N   0  0  0  0  0  0
  -23.4203  -28.8182   23.3019 O   0  0  0  0  0  0
  -28.3686  -26.5879   20.1290 O   0  0  0  0  0  0
  -26.5605  -34.8929   22.4683 O   0  0  0  0  0  0
  -23.5387  -32.1428   23.7435 O   0  0  0  0  0  0
  -28.8903  -18.9232   18.3542 C   0  0  0  0  0  0
  -28.7267  -20.2368   18.8169 C   0  0  0  0  0  0
  -29.3387  -17.9115   19.2192 C   0  0  0  0  0  0
  -29.0171  -20.5749   20.1530 C   0  0  0  0  0  0
  -29.6592  -18.1705   20.5729 C   0  0  0  0  0  0
  -29.5126  -19.5415   21.0306 C   0  0  0  0  0  0
  -29.6191  -24.4264   20.0718 C   0  0  0  0  0  0
  -29.8978  -19.9382   22.4499 C   0  0  0  0  0  0
  -31.1598  -22.5336   20.2065 C   0  0  0  0  0  0
  -28.7354  -22.0607   20.5649 C   0  0  0  0  0  0
  -28.2319  -25.1268   20.1177 C   0  0  0  0  0  0
  -30.1997  -16.9461   21.4162 C   0  0  1  0  0  0
  -29.7503  -16.9090   22.8992 C   0  0  0  0  0  0
  -29.8448  -15.5924   20.9075 N   0  0  0  0  0  0
  -29.7928  -23.0765   20.2822 N   0  0  0  0  0  0
  -30.5879  -25.1531   19.8148 O   0  0  0  0  0  0
  -30.1430  -15.7805   23.4947 F   0  0  0  0  0  0
  -28.4236  -17.0025   22.9902 F   0  0  0  0  0  0
  -31.4738  -12.4867   19.1121 H   0  0  0  0  0  0
  -30.3712  -11.3547   19.8525 H   0  0  0  0  0  0
  -29.7420  -11.7391   17.4492 H   0  0  0  0  0  0
  -29.6511  -13.4584   17.7270 H   0  0  0  0  0  0
  -27.8348  -11.2905   18.8394 H   0  0  0  0  0  0
  -27.3657  -12.5933   17.7817 H   0  0  0  0  0  0
  -27.6778  -14.2452   19.5301 H   0  0  0  0  0  0
  -28.7058  -11.9979   21.3401 H   0  0  0  0  0  0
  -28.4632  -13.6444   21.8451 H   0  0  0  0  0  0
  -25.2759   -9.5687   22.4766 H   0  0  0  0  0  0
  -23.9989   -7.4651   22.7506 H   0  0  0  0  0  0
  -21.0832   -8.8749   19.8968 H   0  0  0  0  0  0
  -22.3668  -10.9664   19.6184 H   0  0  0  0  0  0
  -21.2006   -7.6160   23.9708 H   0  0  0  0  0  0
  -21.1468   -6.0542   25.9081 H   0  0  0  0  0  0
  -22.0607   -2.7598   23.2861 H   0  0  0  0  0  0
  -22.4070  -11.9873   22.4750 H   0  0  0  0  0  0
  -21.1138  -13.1317   22.2589 H   0  0  0  0  0  0
  -24.6695  -15.8469   20.5335 H   0  0  0  0  0  0
  -26.2780  -15.6312   20.0801 H   0  0  0  0  0  0
  -26.7156  -32.5500   23.1140 H   0  0  0  0  0  0
  -25.0089  -33.9771   25.0475 H   0  0  0  0  0  0
  -22.7022  -31.3088   21.4111 H   0  0  0  0  0  0
  -23.3764  -35.9621   23.3289 H   0  0  0  0  0  0
  -24.3587  -36.8927   22.2055 H   0  0  0  0  0  0
  -23.7219  -37.6494   23.6658 H   0  0  0  0  0  0
  -26.0682  -31.5792   20.6023 H   0  0  0  0  0  0
  -26.8312  -30.8631   21.9908 H   0  0  0  0  0  0
  -28.1073  -29.0415   21.1617 H   0  0  0  0  0  0
  -25.9677  -25.9495   19.0167 H   0  0  0  0  0  0
  -23.9593  -27.3080   19.0319 H   0  0  0  0  0  0
  -23.7400  -30.6063   19.4081 H   0  0  0  0  0  0
  -22.7421  -29.2562   19.8608 H   0  0  0  0  0  0
  -25.1290  -36.1968   25.0828 H   0  0  0  0  0  0
  -20.9967  -28.3235   24.1428 H   0  0  0  0  0  0
  -20.5663  -26.2282   23.3614 H   0  0  0  0  0  0
  -21.6642  -26.7434   22.1214 H   0  0  0  0  0  0
  -19.6901  -25.6296   21.1247 H   0  0  0  0  0  0
  -19.6688  -27.3203   20.6752 H   0  0  0  0  0  0
  -17.4197  -26.6701   21.4018 H   0  0  0  0  0  0
  -18.0305  -26.0068   22.9008 H   0  0  0  0  0  0
  -19.7924  -30.7265   24.2300 H   0  0  0  0  0  0
  -17.4999  -31.6267   24.5167 H   0  0  0  0  0  0
  -15.5342  -30.2990   23.7635 H   0  0  0  0  0  0
  -15.8674  -28.0825   22.7054 H   0  0  0  0  0  0
  -24.5914  -30.7073   25.7790 H   0  0  0  0  0  0
  -24.8911  -32.2880   26.4897 H   0  0  0  0  0  0
  -25.8056  -30.8899   27.0232 H   0  0  0  0  0  0
  -26.2869  -29.6789   24.1198 H   0  0  0  0  0  0
  -27.4080  -29.7294   25.4618 H   0  0  0  0  0  0
  -27.8714  -30.4350   23.9308 H   0  0  0  0  0  0
  -27.2724  -33.3632   26.2068 H   0  0  0  0  0  0
  -28.3867  -32.6866   25.0277 H   0  0  0  0  0  0
  -28.0767  -31.8431   26.5372 H   0  0  0  0  0  0
  -28.2602  -38.0107   24.7535 H   0  0  0  0  0  0
  -28.1098  -36.2641   24.6256 H   0  0  0  0  0  0
  -27.2320  -37.1410   25.8868 H   0  0  0  0  0  0
  -20.9334  -29.8781   21.6949 H   0  0  0  0  0  0
  -26.0187  -38.2870   24.1431 H   0  0  0  0  0  0
  -28.6670  -18.6865   17.3232 H   0  0  0  0  0  0
  -28.3651  -20.9915   18.1318 H   0  0  0  0  0  0
  -29.4507  -16.9197   18.8073 H   0  0  0  0  0  0
  -30.0195  -21.0095   22.5860 H   0  0  0  0  0  0
  -30.8665  -19.5156   22.7143 H   0  0  0  0  0  0
  -29.1340  -19.6193   23.1590 H   0  0  0  0  0  0
  -31.3767  -22.2236   19.1857 H   0  0  0  0  0  0
  -31.3094  -21.6735   20.8538 H   0  0  0  0  0  0
  -31.9247  -23.2467   20.5127 H   0  0  0  0  0  0
  -28.4424  -22.1221   21.6130 H   0  0  0  0  0  0
  -27.8331  -22.3595   20.0289 H   0  0  0  0  0  0
  -27.6809  -24.7953   20.9983 H   0  0  0  0  0  0
  -27.6956  -24.7857   19.2345 H   0  0  0  0  0  0
  -31.2878  -17.0299   21.4053 H   0  0  0  0  0  0
  -30.1898  -17.6821   23.5207 H   0  0  0  0  0  0
  -28.8844  -15.3402   21.0719 H   0  0  0  0  0  0
  1 25  1  0  0  0
  1 30  2  0  0  0
  1 84  1  0  0  0
  2  3  1  0  0  0
  2 25  1  0  0  0
  2 89  1  0  0  0
  2 90  1  0  0  0
  3  4  1  0  0  0
  3 91  1  0  0  0
  3 92  1  0  0  0
  4  5  1  0  0  0
  4 93  1  0  0  0
  4 94  1  0  0  0
  5  6  1  0  0  0
  5 26  1  0  0  0
  5 95  1  0  0  0
  6 25  1  0  0  0
  6 96  1  0  0  0
  6 97  1  0  0  0
  7  8  2  0  0  0
  7 26  1  0  0  0
  7 29  1  0  0  0
  8  9  1  0  0  0
  8 22  1  0  0  0
  9 10  1  0  0  0
  9 27  2  0  0  0
 10 11  2  0  0  0
 10 15  1  0  0  0
 11 12  1  0  0  0
 11 98  1  0  0  0
 12 13  2  0  0  0
 12 99  1  0  0  0
 13 14  1  0  0  0
 13 31  1  0  0  0
 14 15  2  0  0  0
 14100  1  0  0  0
 15101  1  0  0  0
 16 17  2  0  0  0
 16 21  1  0  0  0
 16 31  1  0  0  0
 17 18  1  0  0  0
 17102  1  0  0  0
 18 19  2  0  0  0
 18103  1  0  0  0
 19 20  1  0  0  0
 19 24  1  0  0  0
 20 21  2  0  0  0
 20104  1  0  0  0
 21 23  1  0  0  0
 22 28  1  0  0  0
 22 32  2  0  0  0
 26 27  1  0  0  0
 28105  1  0  0  0
 28106  1  0  0  0
 29107  1  0  0  0
 29108  1  0  0  0
 33 34  1  0  0  0
 33 66  1  0  0  0
 33 70  2  0  0  0
 34 36  1  0  0  0
 34 59  1  0  0  0
 34109  1  0  0  0
 35 44  2  0  0  0
 35 45  1  0  0  0
 35 68  1  0  0  0
 36 56  1  0  0  0
 36110  1  0  0  0
 37 39  1  0  0  0
 37 47  1  0  0  0
 37 66  1  0  0  0
 37111  1  0  0  0
 38 43  2  0  0  0
 38 46  1  0  0  0
 38 47  1  0  0  0
 39 64  1  0  0  0
 39 67  2  0  0  0
 40 52  1  0  0  0
 40 53  2  0  0  0
 40 58  1  0  0  0
 41112  1  0  0  0
 41113  1  0  0  0
 41114  1  0  0  0
 41 48  1  0  0  0
 42 43  1  0  0  0
 42 66  1  0  0  0
 42115  1  0  0  0
 42116  1  0  0  0
 43 44  1  0  0  0
 44117  1  0  0  0
 45 46  2  0  0  0
 45118  1  0  0  0
 46119  1  0  0  0
 47120  1  0  0  0
 47121  1  0  0  0
 48 56  1  0  0  0
 48 65  1  0  0  0
 48122  1  0  0  0
 49 50  1  0  0  0
 49 53  1  0  0  0
 49 64  1  0  0  0
 49123  1  0  0  0
 50 51  1  0  0  0
 50124  1  0  0  0
 50125  1  0  0  0
 51 52  1  0  0  0
 51126  1  0  0  0
 51127  1  0  0  0
 52128  1  0  0  0
 52129  1  0  0  0
 53 54  1  0  0  0
 54 55  2  0  0  0
 54130  1  0  0  0
 55 57  1  0  0  0
 55131  1  0  0  0
 56 69  2  0  0  0
 57 58  2  0  0  0
 57132  1  0  0  0
 58133  1  0  0  0
 59 60  1  0  0  0
 59 61  1  0  0  0
 59 62  1  0  0  0
 60134  1  0  0  0
 60135  1  0  0  0
 60136  1  0  0  0
 61137  1  0  0  0
 61138  1  0  0  0
 61139  1  0  0  0
 62140  1  0  0  0
 62141  1  0  0  0
 62142  1  0  0  0
 63 65  1  0  0  0
 63143  1  0  0  0
 63144  1  0  0  0
 63145  1  0  0  0
 64146  1  0  0  0
 65147  1  0  0  0
 68 81  1  0  0  0
 71 72  2  0  0  0
 71 73  1  0  0  0
 71148  1  0  0  0
 72 74  1  0  0  0
 72149  1  0  0  0
 73 75  2  0  0  0
 73150  1  0  0  0
 74 76  2  0  0  0
 74 80  1  0  0  0
 75 76  1  0  0  0
 75 82  1  0  0  0
 76 78  1  0  0  0
 77 81  1  0  0  0
 77 85  1  0  0  0
 77 86  2  0  0  0
 78151  1  0  0  0
 78152  1  0  0  0
 78153  1  0  0  0
 79 85  1  0  0  0
 79154  1  0  0  0
 79155  1  0  0  0
 79156  1  0  0  0
 80 85  1  0  0  0
 80157  1  0  0  0
 80158  1  0  0  0
 81159  1  0  0  0
 81160  1  0  0  0
 82 83  1  0  0  0
 82 84  1  0  0  0
 82161  1  0  0  0
 83 87  1  0  0  0
 83 88  1  0  0  0
 83162  1  0  0  0
 84163  1  0  0  0
M  ISO  4   1 100  68 101  81 101  84 100
M  END
> <chiral flag>
0

> <version>
0

> <s_m_source_file>
/data/baiqing/PycharmProjects/Reinvent-master-3.2/result/LINK_invent/BTK/process_docking_weight1_custom_product_contain_oxygen_bond_distance_aromatic_linkinvent_7_9_3/rearranged_h_0051.sdf

> <i_m_source_file_index>
10

> <r_mmod_Potential_Energy-OPLS-2005>
-12.4093132019043

> <r_mmod_Stretch_Energy-OPLS-2005>
70.4538269042969

> <r_mmod_Bend_Energy-OPLS-2005>
130.408081054688

> <r_mmod_Torsional_Energy-OPLS-2005>
226.506439208984

> <r_mmod_Improper_Torsional_Energy-OPLS-2005>
4.11043691635132

> <r_mmod_Van_der_Waal_Energy-OPLS-2005>
170.113250732422

> <r_mmod_Electrostatic_Energy-OPLS-2005>
-410.842498779297

> <r_mmod_Solvation_Energy-OPLS-2005>
-232.360565185547

> <b_mmod_Minimization_Converged-OPLS-2005>
0

> <r_mmod_RMS_Derivative-OPLS-2005>
2.65082931518555

$$$$
10
                    3D
 Structure written by MMmdl.
172181  0  0  1  0            999 V2000
  -30.6501  -14.5904   20.5308 C   0  0  0  0  0  0
  -30.4336  -12.3660   19.4502 C   0  0  0  0  0  0
  -29.5063  -12.5129   18.2233 C   0  0  0  0  0  0
  -28.0281  -12.3550   18.6317 C   0  0  0  0  0  0
  -27.6575  -13.2138   19.8701 C   0  0  2  0  0  0
  -28.7001  -13.0429   20.9996 C   0  0  0  0  0  0
  -25.2562  -13.8152   20.5673 C   0  0  0  0  0  0
  -24.1828  -13.0429   20.9195 C   0  0  0  0  0  0
  -24.6397  -11.6904   20.8744 C   0  0  0  0  0  0
  -23.9072  -10.4283   21.0405 C   0  0  0  0  0  0
  -24.3622   -9.4197   21.9181 C   0  0  0  0  0  0
  -23.6291   -8.2240   22.0756 C   0  0  0  0  0  0
  -22.4274   -8.0281   21.3550 C   0  0  0  0  0  0
  -21.9912   -9.0258   20.4651 C   0  0  0  0  0  0
  -22.7246  -10.2129   20.3052 C   0  0  0  0  0  0
  -21.6847   -6.0735   22.5285 C   0  0  0  0  0  0
  -21.4016   -6.5645   23.8220 C   0  0  0  0  0  0
  -21.3652   -5.6796   24.9180 C   0  0  0  0  0  0
  -21.6040   -4.3056   24.7230 C   0  0  0  0  0  0
  -21.8817   -3.8149   23.4354 C   0  0  0  0  0  0
  -21.9189   -4.6966   22.3406 C   0  0  0  0  0  0
  -22.7855  -13.5232   21.1855 C   0  0  0  0  0  0
  -22.1660   -4.2155   21.0983 F   0  0  0  0  0  0
  -21.5625   -3.4540   25.7743 F   0  0  0  0  0  0
  -30.0240  -13.3758   20.4463 N   0  0  0  0  0  0
  -26.3003  -12.9342   20.3336 N   0  0  0  0  0  0
  -25.9330  -11.6499   20.5771 N   0  0  0  0  0  0
  -22.0490  -12.8229   22.0410 N   0  0  0  0  0  0
  -25.4242  -15.1866   20.4028 N   0  0  0  0  0  0
  -31.7838  -14.7557   20.0751 O   0  0  0  0  0  0
  -21.6632   -6.8880   21.4248 O   0  0  0  0  0  0
  -22.3561  -14.5547   20.6701 O   0  0  0  0  0  0
  -24.6245  -31.8620   23.2052 C   0  0  0  0  0  0
  -25.9110  -32.4787   23.8363 C   0  0  1  0  0  0
  -27.2245  -27.3403   20.0996 C   0  0  0  0  0  0
  -25.5934  -33.8589   24.2286 N   0  0  0  0  0  0
  -23.4156  -30.4880   21.5481 C   0  0  2  0  0  0
  -24.8587  -28.9466   20.1121 C   0  0  0  0  0  0
  -22.7459  -29.4645   22.4956 C   0  0  0  0  0  0
  -18.0282  -28.1385   22.8496 C   0  0  0  0  0  0
  -24.1489  -36.7297   23.2638 C   0  0  0  0  0  0
  -25.9558  -30.7965   21.3750 C   0  0  0  0  0  0
  -26.0271  -29.4260   20.7161 C   0  0  0  0  0  0
  -27.2093  -28.6319   20.7058 C   0  0  0  0  0  0
  -26.0248  -26.9059   19.4846 C   0  0  0  0  0  0
  -24.8580  -27.6892   19.4926 C   0  0  0  0  0  0
  -23.6272  -29.8253   20.1623 C   0  0  0  0  0  0
  -25.4116  -36.3091   24.0326 C   0  0  1  0  0  0
  -20.5881  -28.3691   23.1295 C   0  0  2  0  0  0
  -20.6773  -26.9414   22.5421 C   0  0  0  0  0  0
  -19.5743  -26.6384   21.5227 C   0  0  0  0  0  0
  -18.1922  -26.7930   22.1631 C   0  0  0  0  0  0
  -19.1534  -28.8853   23.2890 C   0  0  0  0  0  0
  -18.9461  -30.1457   23.8899 C   0  0  0  0  0  0
  -17.6460  -30.6586   24.0573 C   0  0  0  0  0  0
  -25.9055  -34.9459   23.5104 C   0  0  0  0  0  0
  -16.5352  -29.9087   23.6334 C   0  0  0  0  0  0
  -16.7271  -28.6505   23.0355 C   0  0  0  0  0  0
  -26.4497  -31.6590   25.0728 C   0  0  0  0  0  0
  -25.3731  -31.3729   26.1457 C   0  0  0  0  0  0
  -27.0334  -30.3012   24.6178 C   0  0  0  0  0  0
  -27.6062  -32.4325   25.7483 C   0  0  0  0  0  0
  -27.5585  -37.1803   24.8462 C   0  0  0  0  0  0
  -21.4175  -29.3052   22.3693 N   0  0  0  0  0  0
  -26.4296  -37.3788   23.9408 N   0  0  0  0  0  0
  -24.6840  -31.0653   22.0991 N   0  0  0  0  0  0
  -23.4190  -28.8184   23.3030 O   0  0  0  0  0  0
  -28.3697  -26.5302   20.1430 O   0  0  0  0  0  0
  -26.5626  -34.8919   22.4672 O   0  0  0  0  0  0
  -23.5416  -32.1414   23.7396 O   0  0  0  0  0  0
  -30.8162  -19.3202   20.4957 C   0  0  0  0  0  0
  -28.6196  -17.6195   20.4695 C   0  0  0  0  0  0
  -29.5596  -19.8912   20.1572 C   0  0  0  0  0  0
  -30.9853  -17.9370   20.8085 C   0  0  0  0  0  0
  -28.4479  -19.0011   20.1708 C   0  0  0  0  0  0
  -29.8802  -17.0371   20.7529 C   0  0  0  0  0  0
  -30.4618  -23.6801   20.1407 C   0  0  0  0  0  0
  -31.7286  -23.8329   20.5879 C   0  0  0  0  0  0
  -32.3898  -22.9329   21.5481 C   0  0  0  0  0  0
  -29.7798  -24.6527   19.1591 C   0  0  0  0  0  0
  -27.5356  -24.0614   20.2097 C   0  0  0  0  0  0
  -28.2987  -23.0698   21.1418 C   0  0  0  0  0  0
  -28.3689  -25.1918   19.5284 C   0  0  1  0  0  0
  -32.3688  -17.4729   21.2253 C   0  0  0  0  0  0
  -27.0507  -19.4778   19.8051 C   0  0  0  0  0  0
  -33.8835  -23.1118   21.7810 C   0  0  0  0  0  0
  -29.4628  -21.3682   19.6226 C   0  0  0  0  0  0
  -29.9030  -15.6092   21.0487 N   0  0  0  0  0  0
  -29.5699  -22.5360   20.5772 N   0  3  1  0  0  0
  -31.7853  -22.0541   22.1688 O   0  0  0  0  0  0
  -31.4785  -12.4739   19.1545 H   0  0  0  0  0  0
  -30.3503  -11.3647   19.8751 H   0  0  0  0  0  0
  -29.7651  -11.7721   17.4659 H   0  0  0  0  0  0
  -29.6573  -13.4887   17.7593 H   0  0  0  0  0  0
  -27.8587  -11.2997   18.8486 H   0  0  0  0  0  0
  -27.3760  -12.5993   17.7930 H   0  0  0  0  0  0
  -27.6829  -14.2546   19.5468 H   0  0  0  0  0  0
  -28.7006  -12.0139   21.3635 H   0  0  0  0  0  0
  -28.4463  -13.6573   21.8648 H   0  0  0  0  0  0
  -25.2767   -9.5676   22.4759 H   0  0  0  0  0  0
  -23.9992   -7.4639   22.7484 H   0  0  0  0  0  0
  -21.0834   -8.8782   19.8972 H   0  0  0  0  0  0
  -22.3709  -10.9670   19.6160 H   0  0  0  0  0  0
  -21.2018   -7.6153   23.9727 H   0  0  0  0  0  0
  -21.1471   -6.0528   25.9082 H   0  0  0  0  0  0
  -22.0600   -2.7616   23.2859 H   0  0  0  0  0  0
  -22.4075  -11.9864   22.4770 H   0  0  0  0  0  0
  -21.1122  -13.1290   22.2622 H   0  0  0  0  0  0
  -24.6476  -15.8326   20.4897 H   0  0  0  0  0  0
  -26.2449  -15.6078   19.9906 H   0  0  0  0  0  0
  -26.7176  -32.5452   23.1110 H   0  0  0  0  0  0
  -25.0083  -33.9733   25.0431 H   0  0  0  0  0  0
  -22.7092  -31.3088   21.4082 H   0  0  0  0  0  0
  -23.3760  -35.9622   23.3292 H   0  0  0  0  0  0
  -24.3589  -36.8929   22.2056 H   0  0  0  0  0  0
  -23.7228  -37.6488   23.6668 H   0  0  0  0  0  0
  -26.0906  -31.5625   20.6097 H   0  0  0  0  0  0
  -26.8352  -30.8395   22.0058 H   0  0  0  0  0  0
  -28.1069  -28.9980   21.1843 H   0  0  0  0  0  0
  -25.9421  -25.9451   19.0010 H   0  0  0  0  0  0
  -23.9591  -27.3133   19.0235 H   0  0  0  0  0  0
  -23.7464  -30.6027   19.4070 H   0  0  0  0  0  0
  -22.7464  -29.2561   19.8590 H   0  0  0  0  0  0
  -25.1299  -36.1945   25.0819 H   0  0  0  0  0  0
  -20.9978  -28.3270   24.1414 H   0  0  0  0  0  0
  -20.5690  -26.2302   23.3624 H   0  0  0  0  0  0
  -21.6642  -26.7454   22.1207 H   0  0  0  0  0  0
  -19.6910  -25.6299   21.1247 H   0  0  0  0  0  0
  -19.6677  -27.3208   20.6768 H   0  0  0  0  0  0
  -17.4202  -26.6702   21.4023 H   0  0  0  0  0  0
  -18.0305  -26.0060   22.9010 H   0  0  0  0  0  0
  -19.7932  -30.7280   24.2261 H   0  0  0  0  0  0
  -17.5011  -31.6263   24.5184 H   0  0  0  0  0  0
  -15.5353  -30.2994   23.7647 H   0  0  0  0  0  0
  -15.8673  -28.0828   22.7069 H   0  0  0  0  0  0
  -24.5920  -30.7057   25.7797 H   0  0  0  0  0  0
  -24.8907  -32.2888   26.4873 H   0  0  0  0  0  0
  -25.8059  -30.8923   27.0235 H   0  0  0  0  0  0
  -26.2899  -29.6766   24.1213 H   0  0  0  0  0  0
  -27.4039  -29.7276   25.4684 H   0  0  0  0  0  0
  -27.8768  -30.4302   23.9392 H   0  0  0  0  0  0
  -27.2680  -33.3626   26.2060 H   0  0  0  0  0  0
  -28.3857  -32.6883   25.0296 H   0  0  0  0  0  0
  -28.0740  -31.8450   26.5389 H   0  0  0  0  0  0
  -28.2601  -38.0105   24.7533 H   0  0  0  0  0  0
  -28.1078  -36.2641   24.6253 H   0  0  0  0  0  0
  -27.2303  -37.1411   25.8864 H   0  0  0  0  0  0
  -20.9350  -29.8772   21.6902 H   0  0  0  0  0  0
  -26.0174  -38.2857   24.1431 H   0  0  0  0  0  0
  -31.6916  -19.9548   20.4937 H   0  0  0  0  0  0
  -27.7492  -16.9794   20.4550 H   0  0  0  0  0  0
  -32.3115  -24.6708   20.2340 H   0  0  0  0  0  0
  -29.7032  -24.1154   18.2123 H   0  0  0  0  0  0
  -30.4426  -25.4935   18.9535 H   0  0  0  0  0  0
  -26.6970  -24.4888   20.7587 H   0  0  0  0  0  0
  -27.0797  -23.4683   19.4162 H   0  0  0  0  0  0
  -27.6506  -22.2478   21.4442 H   0  0  0  0  0  0
  -28.5527  -23.5952   22.0636 H   0  0  0  0  0  0
  -27.9244  -25.3594   18.5471 H   0  0  0  0  0  0
  -32.9434  -18.2918   21.6591 H   0  0  0  0  0  0
  -32.9205  -17.0989   20.3631 H   0  0  0  0  0  0
  -32.3116  -16.6853   21.9769 H   0  0  0  0  0  0
  -26.2959  -18.7458   20.0940 H   0  0  0  0  0  0
  -26.9687  -19.6254   18.7281 H   0  0  0  0  0  0
  -26.7970  -20.4119   20.3035 H   0  0  0  0  0  0
  -34.3596  -23.5624   20.9103 H   0  0  0  0  0  0
  -34.3575  -22.1482   21.9678 H   0  0  0  0  0  0
  -34.0550  -23.7577   22.6418 H   0  0  0  0  0  0
  -28.5787  -21.4966   19.0001 H   0  0  0  0  0  0
  -30.2906  -21.4588   18.9181 H   0  0  0  0  0  0
  -29.0290  -15.2585   21.4095 H   0  0  0  0  0  0
  -30.0456  -22.1165   21.3706 H   0  0  0  0  0  0
  1 25  1  0  0  0
  1 30  2  0  0  0
  1 88  1  0  0  0
  2  3  1  0  0  0
  2 25  1  0  0  0
  2 91  1  0  0  0
  2 92  1  0  0  0
  3  4  1  0  0  0
  3 93  1  0  0  0
  3 94  1  0  0  0
  4  5  1  0  0  0
  4 95  1  0  0  0
  4 96  1  0  0  0
  5  6  1  0  0  0
  5 26  1  0  0  0
  5 97  1  0  0  0
  6 25  1  0  0  0
  6 98  1  0  0  0
  6 99  1  0  0  0
  7  8  2  0  0  0
  7 26  1  0  0  0
  7 29  1  0  0  0
  8  9  1  0  0  0
  8 22  1  0  0  0
  9 10  1  0  0  0
  9 27  2  0  0  0
 10 11  2  0  0  0
 10 15  1  0  0  0
 11 12  1  0  0  0
 11100  1  0  0  0
 12 13  2  0  0  0
 12101  1  0  0  0
 13 14  1  0  0  0
 13 31  1  0  0  0
 14 15  2  0  0  0
 14102  1  0  0  0
 15103  1  0  0  0
 16 17  2  0  0  0
 16 21  1  0  0  0
 16 31  1  0  0  0
 17 18  1  0  0  0
 17104  1  0  0  0
 18 19  2  0  0  0
 18105  1  0  0  0
 19 20  1  0  0  0
 19 24  1  0  0  0
 20 21  2  0  0  0
 20106  1  0  0  0
 21 23  1  0  0  0
 22 28  1  0  0  0
 22 32  2  0  0  0
 26 27  1  0  0  0
 28107  1  0  0  0
 28108  1  0  0  0
 29109  1  0  0  0
 29110  1  0  0  0
 33 34  1  0  0  0
 33 66  1  0  0  0
 33 70  2  0  0  0
 34 36  1  0  0  0
 34 59  1  0  0  0
 34111  1  0  0  0
 35 44  2  0  0  0
 35 45  1  0  0  0
 35 68  1  0  0  0
 36 56  1  0  0  0
 36112  1  0  0  0
 37 39  1  0  0  0
 37 47  1  0  0  0
 37 66  1  0  0  0
 37113  1  0  0  0
 38 43  2  0  0  0
 38 46  1  0  0  0
 38 47  1  0  0  0
 39 64  1  0  0  0
 39 67  2  0  0  0
 40 52  1  0  0  0
 40 53  2  0  0  0
 40 58  1  0  0  0
 41114  1  0  0  0
 41115  1  0  0  0
 41116  1  0  0  0
 41 48  1  0  0  0
 42 43  1  0  0  0
 42 66  1  0  0  0
 42117  1  0  0  0
 42118  1  0  0  0
 43 44  1  0  0  0
 44119  1  0  0  0
 45 46  2  0  0  0
 45120  1  0  0  0
 46121  1  0  0  0
 47122  1  0  0  0
 47123  1  0  0  0
 48 56  1  0  0  0
 48 65  1  0  0  0
 48124  1  0  0  0
 49 50  1  0  0  0
 49 53  1  0  0  0
 49 64  1  0  0  0
 49125  1  0  0  0
 50 51  1  0  0  0
 50126  1  0  0  0
 50127  1  0  0  0
 51 52  1  0  0  0
 51128  1  0  0  0
 51129  1  0  0  0
 52130  1  0  0  0
 52131  1  0  0  0
 53 54  1  0  0  0
 54 55  2  0  0  0
 54132  1  0  0  0
 55 57  1  0  0  0
 55133  1  0  0  0
 56 69  2  0  0  0
 57 58  2  0  0  0
 57134  1  0  0  0
 58135  1  0  0  0
 59 60  1  0  0  0
 59 61  1  0  0  0
 59 62  1  0  0  0
 60136  1  0  0  0
 60137  1  0  0  0
 60138  1  0  0  0
 61139  1  0  0  0
 61140  1  0  0  0
 61141  1  0  0  0
 62142  1  0  0  0
 62143  1  0  0  0
 62144  1  0  0  0
 63 65  1  0  0  0
 63145  1  0  0  0
 63146  1  0  0  0
 63147  1  0  0  0
 64148  1  0  0  0
 65149  1  0  0  0
 68 83  1  0  0  0
 71 73  2  0  0  0
 71 74  1  0  0  0
 71150  1  0  0  0
 72 75  2  0  0  0
 72 76  1  0  0  0
 72151  1  0  0  0
 73 75  1  0  0  0
 73 87  1  0  0  0
 74 76  2  0  0  0
 74 84  1  0  0  0
 75 85  1  0  0  0
 76 88  1  0  0  0
 77 78  2  0  0  0
 77 80  1  0  0  0
 77 89  1  0  0  0
 78 79  1  0  0  0
 78152  1  0  0  0
 79 86  1  0  0  0
 79 90  2  0  0  0
 80 83  1  0  0  0
 80153  1  0  0  0
 80154  1  0  0  0
 81 82  1  0  0  0
 81 83  1  0  0  0
 81155  1  0  0  0
 81156  1  0  0  0
 82 89  1  0  0  0
 82157  1  0  0  0
 82158  1  0  0  0
 83159  1  0  0  0
 84160  1  0  0  0
 84161  1  0  0  0
 84162  1  0  0  0
 85163  1  0  0  0
 85164  1  0  0  0
 85165  1  0  0  0
 86166  1  0  0  0
 86167  1  0  0  0
 86168  1  0  0  0
 87169  1  0  0  0
 87170  1  0  0  0
 87 89  1  0  0  0
 88171  1  0  0  0
 89172  1  0  0  0
M  CHG  1  89   1
M  ISO  4   1 100  68 101  83 101  88 100
M  END
> <chiral flag>
0

> <version>
0

> <s_m_source_file>
/data/baiqing/PycharmProjects/Reinvent-master-3.2/result/LINK_invent/BTK/process_docking_weight1_custom_product_contain_oxygen_bond_distance_aromatic_linkinvent_7_9_3/rearranged_h_0051.sdf

> <i_m_source_file_index>
11

> <r_mmod_Potential_Energy-OPLS-2005>
-137.668182373047

> <r_mmod_Stretch_Energy-OPLS-2005>
70.277229309082

> <r_mmod_Bend_Energy-OPLS-2005>
165.42121887207

> <r_mmod_Torsional_Energy-OPLS-2005>
247.716461181641

> <r_mmod_Improper_Torsional_Energy-OPLS-2005>
5.73813676834106

> <r_mmod_Van_der_Waal_Energy-OPLS-2005>
148.090240478516

> <r_mmod_Electrostatic_Energy-OPLS-2005>
-385.468078613281

> <r_mmod_Solvation_Energy-OPLS-2005>
-424.070190429688

> <b_mmod_Minimization_Converged-OPLS-2005>
0

> <r_mmod_RMS_Derivative-OPLS-2005>
1.2956223487854

$$$$
11
                    3D
 Structure written by MMmdl.
157165  0  0  1  0            999 V2000
  -30.5434  -15.0379   20.4250 C   0  0  0  0  0  0
  -30.4323  -12.6531   19.5145 C   0  0  0  0  0  0
  -29.5246  -12.5522   18.2675 C   0  0  0  0  0  0
  -28.0614  -12.3216   18.6851 C   0  0  0  0  0  0
  -27.6237  -13.2656   19.8370 C   0  0  2  0  0  0
  -28.6628  -13.3464   20.9761 C   0  0  0  0  0  0
  -25.2427  -13.8257   20.5719 C   0  0  0  0  0  0
  -24.1766  -13.0449   20.9233 C   0  0  0  0  0  0
  -24.6411  -11.6941   20.8749 C   0  0  0  0  0  0
  -23.9111  -10.4299   21.0402 C   0  0  0  0  0  0
  -24.3656   -9.4216   21.9185 C   0  0  0  0  0  0
  -23.6318   -8.2255   22.0751 C   0  0  0  0  0  0
  -22.4294   -8.0300   21.3544 C   0  0  0  0  0  0
  -21.9939   -9.0276   20.4642 C   0  0  0  0  0  0
  -22.7275  -10.2149   20.3057 C   0  0  0  0  0  0
  -21.6869   -6.0732   22.5274 C   0  0  0  0  0  0
  -21.4018   -6.5633   23.8206 C   0  0  0  0  0  0
  -21.3673   -5.6789   24.9175 C   0  0  0  0  0  0
  -21.6064   -4.3053   24.7229 C   0  0  0  0  0  0
  -21.8820   -3.8141   23.4348 C   0  0  0  0  0  0
  -21.9199   -4.6957   22.3402 C   0  0  0  0  0  0
  -22.7784  -13.5204   21.1900 C   0  0  0  0  0  0
  -22.1664   -4.2135   21.0980 F   0  0  0  0  0  0
  -21.5642   -3.4543   25.7747 F   0  0  0  0  0  0
  -29.9288  -13.7773   20.3693 N   0  0  0  0  0  0
  -26.2862  -12.9517   20.3245 N   0  0  0  0  0  0
  -25.9350  -11.6625   20.5735 N   0  0  0  0  0  0
  -22.0440  -12.8165   22.0448 N   0  0  0  0  0  0
  -25.4064  -15.1987   20.4116 N   0  0  0  0  0  0
  -31.7437  -15.0388   20.1314 O   0  0  0  0  0  0
  -21.6659   -6.8887   21.4241 O   0  0  0  0  0  0
  -22.3458  -14.5510   20.6755 O   0  0  0  0  0  0
  -24.6481  -31.8399   23.1862 C   0  0  0  0  0  0
  -25.9231  -32.4683   23.8278 C   0  0  1  0  0  0
  -27.2207  -27.0904   20.1768 C   0  0  0  0  0  0
  -25.5967  -33.8494   24.2198 N   0  0  0  0  0  0
  -23.4569  -30.4571   21.5304 C   0  0  2  0  0  0
  -24.9102  -28.8786   20.1095 C   0  0  0  0  0  0
  -22.7598  -29.4515   22.4826 C   0  0  0  0  0  0
  -18.0312  -28.1384   22.8480 C   0  0  0  0  0  0
  -24.1493  -36.7251   23.2645 C   0  0  0  0  0  0
  -26.0150  -30.7009   21.3926 C   0  0  0  0  0  0
  -26.0866  -29.3082   20.7351 C   0  0  0  0  0  0
  -27.2426  -28.4315   20.7482 C   0  0  0  0  0  0
  -26.0198  -26.7787   19.4977 C   0  0  0  0  0  0
  -24.8931  -27.6312   19.4696 C   0  0  0  0  0  0
  -23.6879  -29.7860   20.1501 C   0  0  0  0  0  0
  -25.4124  -36.3029   24.0320 C   0  0  1  0  0  0
  -20.5934  -28.3721   23.1214 C   0  0  2  0  0  0
  -20.6794  -26.9416   22.5395 C   0  0  0  0  0  0
  -19.5768  -26.6372   21.5207 C   0  0  0  0  0  0
  -18.1952  -26.7925   22.1619 C   0  0  0  0  0  0
  -19.1575  -28.8871   23.2849 C   0  0  0  0  0  0
  -18.9478  -30.1469   23.8874 C   0  0  0  0  0  0
  -17.6473  -30.6588   24.0553 C   0  0  0  0  0  0
  -25.9076  -34.9401   23.5066 C   0  0  0  0  0  0
  -16.5366  -29.9071   23.6338 C   0  0  0  0  0  0
  -16.7294  -28.6489   23.0361 C   0  0  0  0  0  0
  -26.4530  -31.6570   25.0745 C   0  0  0  0  0  0
  -25.3697  -31.3751   26.1432 C   0  0  0  0  0  0
  -27.0411  -30.2964   24.6368 C   0  0  0  0  0  0
  -27.6071  -32.4333   25.7516 C   0  0  0  0  0  0
  -27.5577  -37.1785   24.8465 C   0  0  0  0  0  0
  -21.4288  -29.3052   22.3588 N   0  0  0  0  0  0
  -26.4287  -37.3741   23.9406 N   0  0  0  0  0  0
  -24.7266  -31.0215   22.0923 N   0  0  0  0  0  0
  -23.4203  -28.8057   23.3000 O   0  0  0  0  0  0
  -28.2462  -26.0635   20.2846 O   0  0  0  0  0  0
  -26.5661  -34.8898   22.4642 O   0  0  0  0  0  0
  -23.5581  -32.1291   23.7048 O   0  0  0  0  0  0
  -31.7867  -19.3934   19.0031 C   0  0  0  0  0  0
  -32.3891  -18.7756   20.1182 C   0  0  0  0  0  0
  -30.3778  -19.4810   18.9195 C   0  0  0  0  0  0
  -29.6225  -19.0495   20.0430 C   0  0  0  0  0  0
  -30.2374  -17.7850   20.6348 C   0  0  0  0  0  0
  -31.6043  -17.9692   20.9646 C   0  0  0  0  0  0
  -28.8824  -23.2315   20.5379 C   0  0  0  0  0  0
  -27.2042  -21.5689   19.8844 C   0  0  0  0  0  0
  -29.2525  -20.4644   20.8704 C   0  0  0  0  0  0
  -27.9144  -24.5324   20.0817 C   0  0  0  0  0  0
  -29.7740  -20.2806   17.7709 C   0  0  0  0  0  0
  -29.8110  -16.2808   20.5639 N   0  0  0  0  0  0
  -28.5639  -21.8309   20.3563 N   0  0  0  0  0  0
  -29.9466  -23.5217   21.0926 O   0  0  0  0  0  0
  -30.3031  -19.8706   16.6185 F   0  0  0  0  0  0
  -28.4566  -20.1088   17.6942 F   0  0  0  0  0  0
  -30.0432  -21.5789   17.9081 F   0  0  0  0  0  0
  -32.3623  -17.1181   22.2678 Cl  0  0  0  0  0  0
  -31.4673  -12.8046   19.2016 H   0  0  0  0  0  0
  -30.4283  -11.7144   20.0699 H   0  0  0  0  0  0
  -29.8606  -11.7445   17.6163 H   0  0  0  0  0  0
  -29.6021  -13.4714   17.6848 H   0  0  0  0  0  0
  -27.9694  -11.2824   19.0034 H   0  0  0  0  0  0
  -27.4024  -12.4379   17.8239 H   0  0  0  0  0  0
  -27.5697  -14.2576   19.3886 H   0  0  0  0  0  0
  -28.7723  -12.3880   21.4870 H   0  0  0  0  0  0
  -28.3434  -14.0666   21.7305 H   0  0  0  0  0  0
  -25.2803   -9.5695   22.4761 H   0  0  0  0  0  0
  -24.0030   -7.4652   22.7477 H   0  0  0  0  0  0
  -21.0872   -8.8814   19.8942 H   0  0  0  0  0  0
  -22.3749  -10.9701   19.6171 H   0  0  0  0  0  0
  -21.1991   -7.6136   23.9707 H   0  0  0  0  0  0
  -21.1501   -6.0514   25.9078 H   0  0  0  0  0  0
  -22.0580   -2.7595   23.2855 H   0  0  0  0  0  0
  -22.4075  -11.9828   22.4843 H   0  0  0  0  0  0
  -21.1052  -13.1177   22.2660 H   0  0  0  0  0  0
  -24.6335  -15.8475   20.5188 H   0  0  0  0  0  0
  -26.2424  -15.6391   20.0496 H   0  0  0  0  0  0
  -26.7313  -32.5269   23.1012 H   0  0  0  0  0  0
  -25.0102  -33.9610   25.0342 H   0  0  0  0  0  0
  -22.7637  -31.2861   21.3728 H   0  0  0  0  0  0
  -23.3772  -35.9566   23.3280 H   0  0  0  0  0  0
  -24.3578  -36.8908   22.2066 H   0  0  0  0  0  0
  -23.7235  -37.6436   23.6691 H   0  0  0  0  0  0
  -26.1779  -31.4541   20.6202 H   0  0  0  0  0  0
  -26.8834  -30.7524   22.0375 H   0  0  0  0  0  0
  -28.1365  -28.7551   21.2635 H   0  0  0  0  0  0
  -25.9133  -25.8248   19.0044 H   0  0  0  0  0  0
  -23.9981  -27.3019   18.9593 H   0  0  0  0  0  0
  -23.8272  -30.5625   19.3969 H   0  0  0  0  0  0
  -22.8035  -29.2298   19.8363 H   0  0  0  0  0  0
  -25.1307  -36.1865   25.0812 H   0  0  0  0  0  0
  -21.0036  -28.3319   24.1331 H   0  0  0  0  0  0
  -20.5674  -26.2337   23.3622 H   0  0  0  0  0  0
  -21.6656  -26.7393   22.1204 H   0  0  0  0  0  0
  -19.6917  -25.6276   21.1264 H   0  0  0  0  0  0
  -19.6707  -27.3167   20.6728 H   0  0  0  0  0  0
  -17.4216  -26.6683   21.4023 H   0  0  0  0  0  0
  -18.0339  -26.0062   22.9006 H   0  0  0  0  0  0
  -19.7949  -30.7298   24.2239 H   0  0  0  0  0  0
  -17.5014  -31.6267   24.5158 H   0  0  0  0  0  0
  -15.5366  -30.2957   23.7672 H   0  0  0  0  0  0
  -15.8693  -28.0793   22.7086 H   0  0  0  0  0  0
  -24.5909  -30.7061   25.7749 H   0  0  0  0  0  0
  -24.8837  -32.2914   26.4796 H   0  0  0  0  0  0
  -25.7975  -30.8977   27.0258 H   0  0  0  0  0  0
  -26.3045  -29.6674   24.1360 H   0  0  0  0  0  0
  -27.3989  -29.7289   25.4970 H   0  0  0  0  0  0
  -27.8959  -30.4201   23.9717 H   0  0  0  0  0  0
  -27.2700  -33.3670   26.2023 H   0  0  0  0  0  0
  -28.3908  -32.6837   25.0355 H   0  0  0  0  0  0
  -28.0706  -31.8503   26.5483 H   0  0  0  0  0  0
  -28.2587  -38.0093   24.7524 H   0  0  0  0  0  0
  -28.1084  -36.2624   24.6272 H   0  0  0  0  0  0
  -27.2295  -37.1412   25.8869 H   0  0  0  0  0  0
  -20.9498  -29.8772   21.6773 H   0  0  0  0  0  0
  -26.0160  -38.2808   24.1409 H   0  0  0  0  0  0
  -32.3957  -19.8820   18.2570 H   0  0  0  0  0  0
  -33.4598  -18.8274   20.2591 H   0  0  0  0  0  0
  -26.4803  -21.8923   20.6329 H   0  0  0  0  0  0
  -27.0254  -20.5074   19.7099 H   0  0  0  0  0  0
  -26.9917  -22.0951   18.9531 H   0  0  0  0  0  0
  -30.1874  -20.7751   21.3371 H   0  0  0  0  0  0
  -28.6402  -20.1389   21.7125 H   0  0  0  0  0  0
  -26.9540  -24.3560   20.5670 H   0  0  0  0  0  0
  -27.7358  -24.4016   19.0150 H   0  0  0  0  0  0
  -28.8149  -16.1389   20.6136 H   0  0  0  0  0  0
  1 25  1  0  0  0
  1 30  2  0  0  0
  1 82  1  0  0  0
  2  3  1  0  0  0
  2 25  1  0  0  0
  2 89  1  0  0  0
  2 90  1  0  0  0
  3  4  1  0  0  0
  3 91  1  0  0  0
  3 92  1  0  0  0
  4  5  1  0  0  0
  4 93  1  0  0  0
  4 94  1  0  0  0
  5  6  1  0  0  0
  5 26  1  0  0  0
  5 95  1  0  0  0
  6 25  1  0  0  0
  6 96  1  0  0  0
  6 97  1  0  0  0
  7  8  2  0  0  0
  7 26  1  0  0  0
  7 29  1  0  0  0
  8  9  1  0  0  0
  8 22  1  0  0  0
  9 10  1  0  0  0
  9 27  2  0  0  0
 10 11  2  0  0  0
 10 15  1  0  0  0
 11 12  1  0  0  0
 11 98  1  0  0  0
 12 13  2  0  0  0
 12 99  1  0  0  0
 13 14  1  0  0  0
 13 31  1  0  0  0
 14 15  2  0  0  0
 14100  1  0  0  0
 15101  1  0  0  0
 16 17  2  0  0  0
 16 21  1  0  0  0
 16 31  1  0  0  0
 17 18  1  0  0  0
 17102  1  0  0  0
 18 19  2  0  0  0
 18103  1  0  0  0
 19 20  1  0  0  0
 19 24  1  0  0  0
 20 21  2  0  0  0
 20104  1  0  0  0
 21 23  1  0  0  0
 22 28  1  0  0  0
 22 32  2  0  0  0
 26 27  1  0  0  0
 28105  1  0  0  0
 28106  1  0  0  0
 29107  1  0  0  0
 29108  1  0  0  0
 33 34  1  0  0  0
 33 66  1  0  0  0
 33 70  2  0  0  0
 34 36  1  0  0  0
 34 59  1  0  0  0
 34109  1  0  0  0
 35 44  2  0  0  0
 35 45  1  0  0  0
 35 68  1  0  0  0
 36 56  1  0  0  0
 36110  1  0  0  0
 37 39  1  0  0  0
 37 47  1  0  0  0
 37 66  1  0  0  0
 37111  1  0  0  0
 38 43  2  0  0  0
 38 46  1  0  0  0
 38 47  1  0  0  0
 39 64  1  0  0  0
 39 67  2  0  0  0
 40 52  1  0  0  0
 40 53  2  0  0  0
 40 58  1  0  0  0
 41112  1  0  0  0
 41113  1  0  0  0
 41114  1  0  0  0
 41 48  1  0  0  0
 42 43  1  0  0  0
 42 66  1  0  0  0
 42115  1  0  0  0
 42116  1  0  0  0
 43 44  1  0  0  0
 44117  1  0  0  0
 45 46  2  0  0  0
 45118  1  0  0  0
 46119  1  0  0  0
 47120  1  0  0  0
 47121  1  0  0  0
 48 56  1  0  0  0
 48 65  1  0  0  0
 48122  1  0  0  0
 49 50  1  0  0  0
 49 53  1  0  0  0
 49 64  1  0  0  0
 49123  1  0  0  0
 50 51  1  0  0  0
 50124  1  0  0  0
 50125  1  0  0  0
 51 52  1  0  0  0
 51126  1  0  0  0
 51127  1  0  0  0
 52128  1  0  0  0
 52129  1  0  0  0
 53 54  1  0  0  0
 54 55  2  0  0  0
 54130  1  0  0  0
 55 57  1  0  0  0
 55131  1  0  0  0
 56 69  2  0  0  0
 57 58  2  0  0  0
 57132  1  0  0  0
 58133  1  0  0  0
 59 60  1  0  0  0
 59 61  1  0  0  0
 59 62  1  0  0  0
 60134  1  0  0  0
 60135  1  0  0  0
 60136  1  0  0  0
 61137  1  0  0  0
 61138  1  0  0  0
 61139  1  0  0  0
 62140  1  0  0  0
 62141  1  0  0  0
 62142  1  0  0  0
 63 65  1  0  0  0
 63143  1  0  0  0
 63144  1  0  0  0
 63145  1  0  0  0
 64146  1  0  0  0
 65147  1  0  0  0
 68 80  1  0  0  0
 71 72  2  0  0  0
 71 73  1  0  0  0
 71148  1  0  0  0
 72 76  1  0  0  0
 72149  1  0  0  0
 73 74  2  0  0  0
 73 81  1  0  0  0
 74 75  1  0  0  0
 74 79  1  0  0  0
 75 76  2  0  0  0
 75 82  1  0  0  0
 76 88  1  0  0  0
 77 80  1  0  0  0
 77 83  1  0  0  0
 77 84  2  0  0  0
 78 83  1  0  0  0
 78150  1  0  0  0
 78151  1  0  0  0
 78152  1  0  0  0
 79 83  1  0  0  0
 79153  1  0  0  0
 79154  1  0  0  0
 80155  1  0  0  0
 80156  1  0  0  0
 81 85  1  0  0  0
 81 86  1  0  0  0
 81 87  1  0  0  0
 82157  1  0  0  0
M  ISO  4   1 100  68 101  80 101  82 100
M  END
> <chiral flag>
0

> <version>
0

> <s_m_source_file>
/data/baiqing/PycharmProjects/Reinvent-master-3.2/result/LINK_invent/BTK/process_docking_weight1_custom_product_contain_oxygen_bond_distance_aromatic_linkinvent_7_9_3/rearranged_h_0051.sdf

> <i_m_source_file_index>
12

> <r_mmod_Potential_Energy-OPLS-2005>
953.317626953125

> <r_mmod_Stretch_Energy-OPLS-2005>
348.751434326172

> <r_mmod_Bend_Energy-OPLS-2005>
307.245056152344

> <r_mmod_Torsional_Energy-OPLS-2005>
459.987579345703

> <r_mmod_Improper_Torsional_Energy-OPLS-2005>
32.495662689209

> <r_mmod_Van_der_Waal_Energy-OPLS-2005>
140.134063720703

> <r_mmod_Electrostatic_Energy-OPLS-2005>
-350.833343505859

> <r_mmod_Solvation_Energy-OPLS-2005>
-235.525421142578

> <b_mmod_Minimization_Converged-OPLS-2005>
0

> <r_mmod_RMS_Derivative-OPLS-2005>
2.32352089881897

$$$$
12
                    3D
 Structure written by MMmdl.
154162  0  0  1  0            999 V2000
  -30.6229  -14.7465   20.4275 C   0  0  0  0  0  0
  -30.4259  -12.4483   19.4741 C   0  0  0  0  0  0
  -29.5040  -12.4967   18.2366 C   0  0  0  0  0  0
  -28.0320  -12.3241   18.6544 C   0  0  0  0  0  0
  -27.6389  -13.2331   19.8485 C   0  0  2  0  0  0
  -28.6859  -13.1846   20.9826 C   0  0  0  0  0  0
  -25.2498  -13.8204   20.5701 C   0  0  0  0  0  0
  -24.1797  -13.0448   20.9228 C   0  0  0  0  0  0
  -24.6386  -11.6927   20.8764 C   0  0  0  0  0  0
  -23.9067  -10.4297   21.0412 C   0  0  0  0  0  0
  -24.3620   -9.4208   21.9187 C   0  0  0  0  0  0
  -23.6295   -8.2241   22.0752 C   0  0  0  0  0  0
  -22.4278   -8.0277   21.3541 C   0  0  0  0  0  0
  -21.9916   -9.0254   20.4646 C   0  0  0  0  0  0
  -22.7243  -10.2133   20.3058 C   0  0  0  0  0  0
  -21.6855   -6.0730   22.5273 C   0  0  0  0  0  0
  -21.4014   -6.5636   23.8204 C   0  0  0  0  0  0
  -21.3659   -5.6791   24.9171 C   0  0  0  0  0  0
  -21.6045   -4.3054   24.7223 C   0  0  0  0  0  0
  -21.8821   -3.8142   23.4345 C   0  0  0  0  0  0
  -21.9193   -4.6957   22.3400 C   0  0  0  0  0  0
  -22.7817  -13.5226   21.1879 C   0  0  0  0  0  0
  -22.1663   -4.2144   21.0979 F   0  0  0  0  0  0
  -21.5629   -3.4538   25.7735 F   0  0  0  0  0  0
  -29.9868  -13.5246   20.3934 N   0  0  0  0  0  0
  -26.2926  -12.9414   20.3296 N   0  0  0  0  0  0
  -25.9319  -11.6556   20.5785 N   0  0  0  0  0  0
  -22.0467  -12.8199   22.0423 N   0  0  0  0  0  0
  -25.4182  -15.1924   20.4061 N   0  0  0  0  0  0
  -31.8223  -14.7937   20.1470 O   0  0  0  0  0  0
  -21.6640   -6.8875   21.4236 O   0  0  0  0  0  0
  -22.3499  -14.5536   20.6731 O   0  0  0  0  0  0
  -24.6317  -31.8530   23.1970 C   0  0  0  0  0  0
  -25.9139  -32.4730   23.8325 C   0  0  1  0  0  0
  -27.2204  -27.2574   20.1197 C   0  0  0  0  0  0
  -25.5934  -33.8536   24.2249 N   0  0  0  0  0  0
  -23.4284  -30.4783   21.5374 C   0  0  2  0  0  0
  -24.8736  -28.9199   20.1057 C   0  0  0  0  0  0
  -22.7501  -29.4619   22.4877 C   0  0  0  0  0  0
  -18.0300  -28.1392   22.8464 C   0  0  0  0  0  0
  -24.1493  -36.7271   23.2646 C   0  0  0  0  0  0
  -25.9754  -30.7612   21.3800 C   0  0  0  0  0  0
  -26.0433  -29.3855   20.7169 C   0  0  0  0  0  0
  -27.2156  -28.5655   20.7132 C   0  0  0  0  0  0
  -26.0215  -26.8493   19.4942 C   0  0  0  0  0  0
  -24.8681  -27.6601   19.4852 C   0  0  0  0  0  0
  -23.6463  -29.8098   20.1538 C   0  0  0  0  0  0
  -25.4118  -36.3058   24.0340 C   0  0  1  0  0  0
  -20.5907  -28.3715   23.1229 C   0  0  2  0  0  0
  -20.6788  -26.9429   22.5382 C   0  0  0  0  0  0
  -19.5761  -26.6384   21.5188 C   0  0  0  0  0  0
  -18.1941  -26.7929   22.1603 C   0  0  0  0  0  0
  -19.1558  -28.8866   23.2840 C   0  0  0  0  0  0
  -18.9488  -30.1459   23.8875 C   0  0  0  0  0  0
  -17.6495  -30.6588   24.0566 C   0  0  0  0  0  0
  -25.9062  -34.9426   23.5097 C   0  0  0  0  0  0
  -16.5382  -29.9091   23.6339 C   0  0  0  0  0  0
  -16.7293  -28.6509   23.0350 C   0  0  0  0  0  0
  -26.4500  -31.6568   25.0728 C   0  0  0  0  0  0
  -25.3731  -31.3718   26.1460 C   0  0  0  0  0  0
  -27.0371  -30.2990   24.6235 C   0  0  0  0  0  0
  -27.6043  -32.4338   25.7495 C   0  0  0  0  0  0
  -27.5580  -37.1789   24.8471 C   0  0  0  0  0  0
  -21.4215  -29.3053   22.3605 N   0  0  0  0  0  0
  -26.4288  -37.3761   23.9420 N   0  0  0  0  0  0
  -24.6971  -31.0508   22.0931 N   0  0  0  0  0  0
  -23.4193  -28.8165   23.2993 O   0  0  0  0  0  0
  -28.3407  -26.3994   20.2045 O   0  0  0  0  0  0
  -26.5633  -34.8904   22.4668 O   0  0  0  0  0  0
  -23.5468  -32.1353   23.7272 O   0  0  0  0  0  0
  -31.7197  -19.1131   19.6022 C   0  0  0  0  0  0
  -30.7936  -20.1422   19.8506 C   0  0  0  0  0  0
  -31.4028  -17.7590   19.8357 C   0  0  0  0  0  0
  -29.5093  -19.8583   20.3478 C   0  0  0  0  0  0
  -29.2040  -18.4468   20.6087 C   0  0  0  0  0  0
  -30.1460  -17.3544   20.3520 C   0  0  0  0  0  0
  -28.3165  -23.7247   20.4668 C   0  0  0  0  0  0
  -27.8385  -18.1072   21.1872 C   0  0  0  0  0  0
  -28.5400  -21.0987   20.6290 C   0  0  0  0  0  0
  -28.4387  -25.0429   19.5599 C   0  0  0  0  0  0
  -29.8528  -15.9008   20.5788 N   0  0  0  0  0  0
  -28.7820  -22.4887   20.0328 N   0  0  0  0  0  0
  -27.7550  -23.8181   21.5600 O   0  0  0  0  0  0
  -31.4673  -12.5589   19.1679 H   0  0  0  0  0  0
  -30.3621  -11.4775   19.9681 H   0  0  0  0  0  0
  -29.7840  -11.7177   17.5263 H   0  0  0  0  0  0
  -29.6304  -13.4477   17.7170 H   0  0  0  0  0  0
  -27.8924  -11.2775   18.9273 H   0  0  0  0  0  0
  -27.3725  -12.5069   17.8056 H   0  0  0  0  0  0
  -27.6295  -14.2509   19.4586 H   0  0  0  0  0  0
  -28.7200  -12.1958   21.4425 H   0  0  0  0  0  0
  -28.4257  -13.8835   21.7789 H   0  0  0  0  0  0
  -25.2761   -9.5683   22.4768 H   0  0  0  0  0  0
  -24.0003   -7.4630   22.7467 H   0  0  0  0  0  0
  -21.0849   -8.8776   19.8944 H   0  0  0  0  0  0
  -22.3704  -10.9676   19.6170 H   0  0  0  0  0  0
  -21.2006   -7.6144   23.9710 H   0  0  0  0  0  0
  -21.1480   -6.0520   25.9075 H   0  0  0  0  0  0
  -22.0599   -2.7603   23.2847 H   0  0  0  0  0  0
  -22.4094  -11.9851   22.4784 H   0  0  0  0  0  0
  -21.1085  -13.1204   22.2647 H   0  0  0  0  0  0
  -24.6432  -15.8403   20.4975 H   0  0  0  0  0  0
  -26.2468  -15.6201   20.0152 H   0  0  0  0  0  0
  -26.7205  -32.5366   23.1062 H   0  0  0  0  0  0
  -25.0091  -33.9652   25.0405 H   0  0  0  0  0  0
  -22.7267  -31.3020   21.3889 H   0  0  0  0  0  0
  -23.3760  -35.9594   23.3292 H   0  0  0  0  0  0
  -24.3592  -36.8907   22.2063 H   0  0  0  0  0  0
  -23.7228  -37.6464   23.6676 H   0  0  0  0  0  0
  -26.1302  -31.5237   20.6160 H   0  0  0  0  0  0
  -26.8468  -30.7989   22.0222 H   0  0  0  0  0  0
  -28.1114  -28.9157   21.2064 H   0  0  0  0  0  0
  -25.9290  -25.8765   19.0370 H   0  0  0  0  0  0
  -23.9699  -27.2920   19.0090 H   0  0  0  0  0  0
  -23.7737  -30.5840   19.3967 H   0  0  0  0  0  0
  -22.7634  -29.2471   19.8467 H   0  0  0  0  0  0
  -25.1290  -36.1913   25.0833 H   0  0  0  0  0  0
  -21.0011  -28.3315   24.1347 H   0  0  0  0  0  0
  -20.5686  -26.2337   23.3597 H   0  0  0  0  0  0
  -21.6655  -26.7445   22.1177 H   0  0  0  0  0  0
  -19.6936  -25.6289   21.1224 H   0  0  0  0  0  0
  -19.6700  -27.3181   20.6707 H   0  0  0  0  0  0
  -17.4209  -26.6671   21.4007 H   0  0  0  0  0  0
  -18.0360  -26.0066   22.8999 H   0  0  0  0  0  0
  -19.7977  -30.7262   24.2235 H   0  0  0  0  0  0
  -17.5066  -31.6265   24.5174 H   0  0  0  0  0  0
  -15.5386  -30.2998   23.7677 H   0  0  0  0  0  0
  -15.8686  -28.0830   22.7085 H   0  0  0  0  0  0
  -24.5912  -30.7052   25.7805 H   0  0  0  0  0  0
  -24.8911  -32.2879   26.4882 H   0  0  0  0  0  0
  -25.8055  -30.8911   27.0246 H   0  0  0  0  0  0
  -26.2963  -29.6713   24.1271 H   0  0  0  0  0  0
  -27.4071  -29.7279   25.4760 H   0  0  0  0  0  0
  -27.8828  -30.4269   23.9478 H   0  0  0  0  0  0
  -27.2638  -33.3658   26.2020 H   0  0  0  0  0  0
  -28.3862  -32.6874   25.0324 H   0  0  0  0  0  0
  -28.0700  -31.8510   26.5451 H   0  0  0  0  0  0
  -28.2588  -38.0094   24.7521 H   0  0  0  0  0  0
  -28.1084  -36.2623   24.6290 H   0  0  0  0  0  0
  -27.2301  -37.1432   25.8874 H   0  0  0  0  0  0
  -20.9421  -29.8773   21.6790 H   0  0  0  0  0  0
  -26.0171  -38.2840   24.1407 H   0  0  0  0  0  0
  -32.7007  -19.3692   19.2256 H   0  0  0  0  0  0
  -31.0868  -21.1665   19.6671 H   0  0  0  0  0  0
  -32.1755  -17.0453   19.5992 H   0  0  0  0  0  0
  -27.5446  -18.8379   21.9406 H   0  0  0  0  0  0
  -27.8262  -17.1343   21.6774 H   0  0  0  0  0  0
  -27.0812  -18.1021   20.4029 H   0  0  0  0  0  0
  -28.4770  -21.2059   21.7126 H   0  0  0  0  0  0
  -27.5400  -20.8030   20.3104 H   0  0  0  0  0  0
  -27.7768  -24.9486   18.7019 H   0  0  0  0  0  0
  -29.4366  -25.0060   19.1233 H   0  0  0  0  0  0
  -28.8953  -15.6993   20.8179 H   0  0  0  0  0  0
  -29.2324  -22.4945   19.1274 H   0  0  0  0  0  0
  1 25  1  0  0  0
  1 30  2  0  0  0
  1 81  1  0  0  0
  2  3  1  0  0  0
  2 25  1  0  0  0
  2 84  1  0  0  0
  2 85  1  0  0  0
  3  4  1  0  0  0
  3 86  1  0  0  0
  3 87  1  0  0  0
  4  5  1  0  0  0
  4 88  1  0  0  0
  4 89  1  0  0  0
  5  6  1  0  0  0
  5 26  1  0  0  0
  5 90  1  0  0  0
  6 25  1  0  0  0
  6 91  1  0  0  0
  6 92  1  0  0  0
  7  8  2  0  0  0
  7 26  1  0  0  0
  7 29  1  0  0  0
  8  9  1  0  0  0
  8 22  1  0  0  0
  9 10  1  0  0  0
  9 27  2  0  0  0
 10 11  2  0  0  0
 10 15  1  0  0  0
 11 12  1  0  0  0
 11 93  1  0  0  0
 12 13  2  0  0  0
 12 94  1  0  0  0
 13 14  1  0  0  0
 13 31  1  0  0  0
 14 15  2  0  0  0
 14 95  1  0  0  0
 15 96  1  0  0  0
 16 17  2  0  0  0
 16 21  1  0  0  0
 16 31  1  0  0  0
 17 18  1  0  0  0
 17 97  1  0  0  0
 18 19  2  0  0  0
 18 98  1  0  0  0
 19 20  1  0  0  0
 19 24  1  0  0  0
 20 21  2  0  0  0
 20 99  1  0  0  0
 21 23  1  0  0  0
 22 28  1  0  0  0
 22 32  2  0  0  0
 26 27  1  0  0  0
 28100  1  0  0  0
 28101  1  0  0  0
 29102  1  0  0  0
 29103  1  0  0  0
 33 34  1  0  0  0
 33 66  1  0  0  0
 33 70  2  0  0  0
 34 36  1  0  0  0
 34 59  1  0  0  0
 34104  1  0  0  0
 35 44  2  0  0  0
 35 45  1  0  0  0
 35 68  1  0  0  0
 36 56  1  0  0  0
 36105  1  0  0  0
 37 39  1  0  0  0
 37 47  1  0  0  0
 37 66  1  0  0  0
 37106  1  0  0  0
 38 43  2  0  0  0
 38 46  1  0  0  0
 38 47  1  0  0  0
 39 64  1  0  0  0
 39 67  2  0  0  0
 40 52  1  0  0  0
 40 53  2  0  0  0
 40 58  1  0  0  0
 41107  1  0  0  0
 41108  1  0  0  0
 41109  1  0  0  0
 41 48  1  0  0  0
 42 43  1  0  0  0
 42 66  1  0  0  0
 42110  1  0  0  0
 42111  1  0  0  0
 43 44  1  0  0  0
 44112  1  0  0  0
 45 46  2  0  0  0
 45113  1  0  0  0
 46114  1  0  0  0
 47115  1  0  0  0
 47116  1  0  0  0
 48 56  1  0  0  0
 48 65  1  0  0  0
 48117  1  0  0  0
 49 50  1  0  0  0
 49 53  1  0  0  0
 49 64  1  0  0  0
 49118  1  0  0  0
 50 51  1  0  0  0
 50119  1  0  0  0
 50120  1  0  0  0
 51 52  1  0  0  0
 51121  1  0  0  0
 51122  1  0  0  0
 52123  1  0  0  0
 52124  1  0  0  0
 53 54  1  0  0  0
 54 55  2  0  0  0
 54125  1  0  0  0
 55 57  1  0  0  0
 55126  1  0  0  0
 56 69  2  0  0  0
 57 58  2  0  0  0
 57127  1  0  0  0
 58128  1  0  0  0
 59 60  1  0  0  0
 59 61  1  0  0  0
 59 62  1  0  0  0
 60129  1  0  0  0
 60130  1  0  0  0
 60131  1  0  0  0
 61132  1  0  0  0
 61133  1  0  0  0
 61134  1  0  0  0
 62135  1  0  0  0
 62136  1  0  0  0
 62137  1  0  0  0
 63 65  1  0  0  0
 63138  1  0  0  0
 63139  1  0  0  0
 63140  1  0  0  0
 64141  1  0  0  0
 65142  1  0  0  0
 68 80  1  0  0  0
 71 72  2  0  0  0
 71 73  1  0  0  0
 71143  1  0  0  0
 72 74  1  0  0  0
 72144  1  0  0  0
 73 76  2  0  0  0
 73145  1  0  0  0
 74 75  2  0  0  0
 74 79  1  0  0  0
 75 76  1  0  0  0
 75 78  1  0  0  0
 76 81  1  0  0  0
 77 80  1  0  0  0
 77 82  1  0  0  0
 77 83  2  0  0  0
 78146  1  0  0  0
 78147  1  0  0  0
 78148  1  0  0  0
 79 82  1  0  0  0
 79149  1  0  0  0
 79150  1  0  0  0
 80151  1  0  0  0
 80152  1  0  0  0
 81153  1  0  0  0
 82154  1  0  0  0
M  ISO  4   1 100  68 101  80 101  81 100
M  END
> <chiral flag>
0

> <version>
0

> <s_m_source_file>
/data/baiqing/PycharmProjects/Reinvent-master-3.2/result/LINK_invent/BTK/process_docking_weight1_custom_product_contain_oxygen_bond_distance_aromatic_linkinvent_7_9_3/rearranged_h_0051.sdf

> <i_m_source_file_index>
13

> <r_mmod_Potential_Energy-OPLS-2005>
69.156135559082

> <r_mmod_Stretch_Energy-OPLS-2005>
130.121948242188

> <r_mmod_Bend_Energy-OPLS-2005>
169.58366394043

> <r_mmod_Torsional_Energy-OPLS-2005>
204.204071044922

> <r_mmod_Improper_Torsional_Energy-OPLS-2005>
5.20302295684814

> <r_mmod_Van_der_Waal_Energy-OPLS-2005>
140.157577514648

> <r_mmod_Electrostatic_Energy-OPLS-2005>
-420.117126464844

> <r_mmod_Solvation_Energy-OPLS-2005>
-246.169830322266

> <b_mmod_Minimization_Converged-OPLS-2005>
0

> <r_mmod_RMS_Derivative-OPLS-2005>
1.53939998149872

$$$$
13
                    3D
 Structure written by MMmdl.
159167  0  0  1  0            999 V2000
  -30.6678  -14.5107   20.5633 C   0  0  0  0  0  0
  -30.4318  -12.3306   19.4211 C   0  0  0  0  0  0
  -29.4971  -12.5064   18.2049 C   0  0  0  0  0  0
  -28.0180  -12.3564   18.6184 C   0  0  0  0  0  0
  -27.6570  -13.2019   19.8679 C   0  0  2  0  0  0
  -28.7005  -12.9947   20.9887 C   0  0  0  0  0  0
  -25.2574  -13.8140   20.5664 C   0  0  0  0  0  0
  -24.1832  -13.0422   20.9179 C   0  0  0  0  0  0
  -24.6379  -11.6887   20.8730 C   0  0  0  0  0  0
  -23.9042  -10.4282   21.0411 C   0  0  0  0  0  0
  -24.3600   -9.4199   21.9184 C   0  0  0  0  0  0
  -23.6282   -8.2233   22.0748 C   0  0  0  0  0  0
  -22.4267   -8.0268   21.3535 C   0  0  0  0  0  0
  -21.9897   -9.0246   20.4643 C   0  0  0  0  0  0
  -22.7217  -10.2130   20.3056 C   0  0  0  0  0  0
  -21.6854   -6.0728   22.5278 C   0  0  0  0  0  0
  -21.4014   -6.5628   23.8210 C   0  0  0  0  0  0
  -21.3657   -5.6782   24.9169 C   0  0  0  0  0  0
  -21.6048   -4.3047   24.7227 C   0  0  0  0  0  0
  -21.8818   -3.8135   23.4344 C   0  0  0  0  0  0
  -21.9190   -4.6953   22.3397 C   0  0  0  0  0  0
  -22.7859  -13.5237   21.1841 C   0  0  0  0  0  0
  -22.1663   -4.2136   21.0977 F   0  0  0  0  0  0
  -21.5630   -3.4529   25.7738 F   0  0  0  0  0  0
  -30.0252  -13.3171   20.4332 N   0  0  0  0  0  0
  -26.2995  -12.9298   20.3312 N   0  0  0  0  0  0
  -25.9297  -11.6466   20.5739 N   0  0  0  0  0  0
  -22.0489  -12.8245   22.0401 N   0  0  0  0  0  0
  -25.4283  -15.1860   20.4054 N   0  0  0  0  0  0
  -31.8196  -14.6988   20.1598 O   0  0  0  0  0  0
  -21.6629   -6.8869   21.4237 O   0  0  0  0  0  0
  -22.3542  -14.5539   20.6677 O   0  0  0  0  0  0
  -24.6179  -31.8663   23.2082 C   0  0  0  0  0  0
  -25.9061  -32.4816   23.8384 C   0  0  1  0  0  0
  -27.2367  -27.4104   20.0885 C   0  0  0  0  0  0
  -25.5910  -33.8615   24.2315 N   0  0  0  0  0  0
  -23.4055  -30.4899   21.5498 C   0  0  2  0  0  0
  -24.8495  -28.9503   20.1148 C   0  0  0  0  0  0
  -22.7422  -29.4655   22.4985 C   0  0  0  0  0  0
  -18.0276  -28.1371   22.8497 C   0  0  0  0  0  0
  -24.1484  -36.7308   23.2641 C   0  0  0  0  0  0
  -25.9368  -30.8223   21.3654 C   0  0  0  0  0  0
  -26.0106  -29.4550   20.7109 C   0  0  0  0  0  0
  -27.2022  -28.6909   20.6952 C   0  0  0  0  0  0
  -26.0447  -26.9160   19.5077 C   0  0  0  0  0  0
  -24.8624  -27.6803   19.5138 C   0  0  0  0  0  0
  -23.6136  -29.8208   20.1648 C   0  0  0  0  0  0
  -25.4109  -36.3109   24.0339 C   0  0  1  0  0  0
  -20.5866  -28.3661   23.1318 C   0  0  2  0  0  0
  -20.6765  -26.9398   22.5414 C   0  0  0  0  0  0
  -19.5737  -26.6381   21.5216 C   0  0  0  0  0  0
  -18.1918  -26.7921   22.1626 C   0  0  0  0  0  0
  -19.1524  -28.8836   23.2904 C   0  0  0  0  0  0
  -18.9451  -30.1442   23.8911 C   0  0  0  0  0  0
  -17.6451  -30.6583   24.0564 C   0  0  0  0  0  0
  -25.9036  -34.9475   23.5123 C   0  0  0  0  0  0
  -16.5344  -29.9081   23.6327 C   0  0  0  0  0  0
  -16.7264  -28.6495   23.0359 C   0  0  0  0  0  0
  -26.4486  -31.6612   25.0724 C   0  0  0  0  0  0
  -25.3758  -31.3725   26.1481 C   0  0  0  0  0  0
  -27.0331  -30.3054   24.6122 C   0  0  0  0  0  0
  -27.6052  -32.4355   25.7479 C   0  0  0  0  0  0
  -27.5583  -37.1809   24.8465 C   0  0  0  0  0  0
  -21.4147  -29.3030   22.3726 N   0  0  0  0  0  0
  -26.4297  -37.3795   23.9408 N   0  0  0  0  0  0
  -24.6716  -31.0747   22.0991 N   0  0  0  0  0  0
  -23.4187  -28.8207   23.3042 O   0  0  0  0  0  0
  -28.4306  -26.7044   20.1064 O   0  0  0  0  0  0
  -26.5592  -34.8932   22.4680 O   0  0  0  0  0  0
  -23.5368  -32.1423   23.7473 O   0  0  0  0  0  0
  -31.1518  -17.2116   22.2093 C   0  0  0  0  0  0
  -31.4714  -18.5481   22.4960 C   0  0  0  0  0  0
  -30.0548  -19.3272   20.6460 C   0  0  0  0  0  0
  -29.6691  -17.9610   20.4026 C   0  0  0  0  0  0
  -30.2528  -16.9021   21.1689 C   0  0  0  0  0  0
  -30.9377  -19.5946   21.7231 C   0  0  0  0  0  0
  -29.6450  -20.4719   19.7779 C   0  0  0  0  0  0
  -28.6403  -17.5872   19.3360 C   0  0  0  0  0  0
  -28.6067  -24.1864   20.2704 C   0  0  0  0  0  0
  -28.9097  -22.8967   19.4523 C   0  0  0  0  0  0
  -28.5976  -25.4663   19.3831 C   0  0  0  0  0  0
  -29.7183  -20.3310   18.4524 N   0  0  0  0  0  0
  -29.8826  -15.5322   20.9747 N   0  0  0  0  0  0
  -29.2365  -21.6773   20.2520 N   0  3  0  0  0  0
  -31.3009  -20.8672   22.0231 F   0  0  0  0  0  0
  -31.4745  -12.4496   19.1206 H   0  0  0  0  0  0
  -30.3515  -11.3207   19.8267 H   0  0  0  0  0  0
  -29.7441  -11.7781   17.4317 H   0  0  0  0  0  0
  -29.6546  -13.4900   17.7589 H   0  0  0  0  0  0
  -27.8378  -11.3005   18.8231 H   0  0  0  0  0  0
  -27.3652  -12.6170   17.7844 H   0  0  0  0  0  0
  -27.6944  -14.2452   19.5563 H   0  0  0  0  0  0
  -28.6870  -11.9593   21.3327 H   0  0  0  0  0  0
  -28.4595  -13.5965   21.8669 H   0  0  0  0  0  0
  -25.2755   -9.5673   22.4745 H   0  0  0  0  0  0
  -23.9988   -7.4623   22.7465 H   0  0  0  0  0  0
  -21.0822   -8.8765   19.8957 H   0  0  0  0  0  0
  -22.3677  -10.9662   19.6156 H   0  0  0  0  0  0
  -21.2011   -7.6139   23.9710 H   0  0  0  0  0  0
  -21.1484   -6.0511   25.9073 H   0  0  0  0  0  0
  -22.0604   -2.7597   23.2846 H   0  0  0  0  0  0
  -22.4095  -11.9914   22.4825 H   0  0  0  0  0  0
  -21.1106  -13.1285   22.2588 H   0  0  0  0  0  0
  -24.6545  -15.8348   20.4992 H   0  0  0  0  0  0
  -26.2631  -15.6197   20.0362 H   0  0  0  0  0  0
  -26.7131  -32.5516   23.1144 H   0  0  0  0  0  0
  -25.0104  -33.9765   25.0493 H   0  0  0  0  0  0
  -22.6955  -31.3076   21.4106 H   0  0  0  0  0  0
  -23.3749  -35.9639   23.3314 H   0  0  0  0  0  0
  -24.3573  -36.8909   22.2051 H   0  0  0  0  0  0
  -23.7228  -37.6513   23.6649 H   0  0  0  0  0  0
  -26.0556  -31.5898   20.5990 H   0  0  0  0  0  0
  -26.8230  -30.8722   21.9871 H   0  0  0  0  0  0
  -28.1010  -29.0801   21.1525 H   0  0  0  0  0  0
  -25.9902  -25.9373   19.0575 H   0  0  0  0  0  0
  -23.9653  -27.2800   19.0615 H   0  0  0  0  0  0
  -23.7232  -30.5939   19.4035 H   0  0  0  0  0  0
  -22.7357  -29.2425   19.8710 H   0  0  0  0  0  0
  -25.1288  -36.1977   25.0834 H   0  0  0  0  0  0
  -20.9959  -28.3230   24.1437 H   0  0  0  0  0  0
  -20.5673  -26.2271   23.3602 H   0  0  0  0  0  0
  -21.6637  -26.7450   22.1202 H   0  0  0  0  0  0
  -19.6893  -25.6297   21.1235 H   0  0  0  0  0  0
  -19.6673  -27.3201   20.6755 H   0  0  0  0  0  0
  -17.4192  -26.6694   21.4021 H   0  0  0  0  0  0
  -18.0297  -26.0058   22.9013 H   0  0  0  0  0  0
  -19.7931  -30.7250   24.2290 H   0  0  0  0  0  0
  -17.5012  -31.6262   24.5159 H   0  0  0  0  0  0
  -15.5343  -30.2982   23.7642 H   0  0  0  0  0  0
  -15.8669  -28.0807   22.7074 H   0  0  0  0  0  0
  -24.5899  -30.7110   25.7819 H   0  0  0  0  0  0
  -24.8997  -32.2893   26.4974 H   0  0  0  0  0  0
  -25.8116  -30.8854   27.0214 H   0  0  0  0  0  0
  -26.2880  -29.6792   24.1205 H   0  0  0  0  0  0
  -27.4126  -29.7320   25.4588 H   0  0  0  0  0  0
  -27.8705  -30.4368   23.9263 H   0  0  0  0  0  0
  -27.2648  -33.3634   26.2094 H   0  0  0  0  0  0
  -28.3833  -32.6964   25.0291 H   0  0  0  0  0  0
  -28.0767  -31.8479   26.5366 H   0  0  0  0  0  0
  -28.2616  -38.0095   24.7513 H   0  0  0  0  0  0
  -28.1067  -36.2627   24.6296 H   0  0  0  0  0  0
  -27.2303  -37.1469   25.8869 H   0  0  0  0  0  0
  -20.9308  -29.8749   21.6945 H   0  0  0  0  0  0
  -26.0189  -38.2881   24.1398 H   0  0  0  0  0  0
  -31.5773  -16.4265   22.8173 H   0  0  0  0  0  0
  -32.1436  -18.7746   23.3101 H   0  0  0  0  0  0
  -27.9888  -18.4151   19.0619 H   0  0  0  0  0  0
  -27.9778  -16.7994   19.6913 H   0  0  0  0  0  0
  -29.1387  -17.2248   18.4371 H   0  0  0  0  0  0
  -29.3506  -24.3057   21.0579 H   0  0  0  0  0  0
  -27.6410  -24.0865   20.7663 H   0  0  0  0  0  0
  -29.7588  -23.1008   18.7979 H   0  0  0  0  0  0
  -28.0630  -22.6829   18.7974 H   0  0  0  0  0  0
  -27.9176  -25.3587   18.5394 H   0  0  0  0  0  0
  -29.5797  -25.5406   18.9146 H   0  0  0  0  0  0
  -30.0959  -19.4776   18.0698 H   0  0  0  0  0  0
  -29.4685  -21.0655   17.8125 H   0  0  0  0  0  0
  -28.9149  -15.2991   21.1320 H   0  0  0  0  0  0
  -29.2697  -21.7866   21.2593 H   0  0  0  0  0  0
  1 25  1  0  0  0
  1 30  2  0  0  0
  1 83  1  0  0  0
  2  3  1  0  0  0
  2 25  1  0  0  0
  2 86  1  0  0  0
  2 87  1  0  0  0
  3  4  1  0  0  0
  3 88  1  0  0  0
  3 89  1  0  0  0
  4  5  1  0  0  0
  4 90  1  0  0  0
  4 91  1  0  0  0
  5  6  1  0  0  0
  5 26  1  0  0  0
  5 92  1  0  0  0
  6 25  1  0  0  0
  6 93  1  0  0  0
  6 94  1  0  0  0
  7  8  2  0  0  0
  7 26  1  0  0  0
  7 29  1  0  0  0
  8  9  1  0  0  0
  8 22  1  0  0  0
  9 10  1  0  0  0
  9 27  2  0  0  0
 10 11  2  0  0  0
 10 15  1  0  0  0
 11 12  1  0  0  0
 11 95  1  0  0  0
 12 13  2  0  0  0
 12 96  1  0  0  0
 13 14  1  0  0  0
 13 31  1  0  0  0
 14 15  2  0  0  0
 14 97  1  0  0  0
 15 98  1  0  0  0
 16 17  2  0  0  0
 16 21  1  0  0  0
 16 31  1  0  0  0
 17 18  1  0  0  0
 17 99  1  0  0  0
 18 19  2  0  0  0
 18100  1  0  0  0
 19 20  1  0  0  0
 19 24  1  0  0  0
 20 21  2  0  0  0
 20101  1  0  0  0
 21 23  1  0  0  0
 22 28  1  0  0  0
 22 32  2  0  0  0
 26 27  1  0  0  0
 28102  1  0  0  0
 28103  1  0  0  0
 29104  1  0  0  0
 29105  1  0  0  0
 33 34  1  0  0  0
 33 66  1  0  0  0
 33 70  2  0  0  0
 34 36  1  0  0  0
 34 59  1  0  0  0
 34106  1  0  0  0
 35 44  2  0  0  0
 35 45  1  0  0  0
 35 68  1  0  0  0
 36 56  1  0  0  0
 36107  1  0  0  0
 37 39  1  0  0  0
 37 47  1  0  0  0
 37 66  1  0  0  0
 37108  1  0  0  0
 38 43  2  0  0  0
 38 46  1  0  0  0
 38 47  1  0  0  0
 39 64  1  0  0  0
 39 67  2  0  0  0
 40 52  1  0  0  0
 40 53  2  0  0  0
 40 58  1  0  0  0
 41109  1  0  0  0
 41110  1  0  0  0
 41111  1  0  0  0
 41 48  1  0  0  0
 42 43  1  0  0  0
 42 66  1  0  0  0
 42112  1  0  0  0
 42113  1  0  0  0
 43 44  1  0  0  0
 44114  1  0  0  0
 45 46  2  0  0  0
 45115  1  0  0  0
 46116  1  0  0  0
 47117  1  0  0  0
 47118  1  0  0  0
 48 56  1  0  0  0
 48 65  1  0  0  0
 48119  1  0  0  0
 49 50  1  0  0  0
 49 53  1  0  0  0
 49 64  1  0  0  0
 49120  1  0  0  0
 50 51  1  0  0  0
 50121  1  0  0  0
 50122  1  0  0  0
 51 52  1  0  0  0
 51123  1  0  0  0
 51124  1  0  0  0
 52125  1  0  0  0
 52126  1  0  0  0
 53 54  1  0  0  0
 54 55  2  0  0  0
 54127  1  0  0  0
 55 57  1  0  0  0
 55128  1  0  0  0
 56 69  2  0  0  0
 57 58  2  0  0  0
 57129  1  0  0  0
 58130  1  0  0  0
 59 60  1  0  0  0
 59 61  1  0  0  0
 59 62  1  0  0  0
 60131  1  0  0  0
 60132  1  0  0  0
 60133  1  0  0  0
 61134  1  0  0  0
 61135  1  0  0  0
 61136  1  0  0  0
 62137  1  0  0  0
 62138  1  0  0  0
 62139  1  0  0  0
 63 65  1  0  0  0
 63140  1  0  0  0
 63141  1  0  0  0
 63142  1  0  0  0
 64143  1  0  0  0
 65144  1  0  0  0
 68 81  1  0  0  0
 71 72  2  0  0  0
 71 75  1  0  0  0
 71145  1  0  0  0
 72 76  1  0  0  0
 72146  1  0  0  0
 73 74  1  0  0  0
 73 76  2  0  0  0
 73 77  1  0  0  0
 74 75  2  0  0  0
 74 78  1  0  0  0
 75 83  1  0  0  0
 76 85  1  0  0  0
 77 82  1  0  0  0
 77 84  2  0  0  0
 78147  1  0  0  0
 78148  1  0  0  0
 78149  1  0  0  0
 79 80  1  0  0  0
 79 81  1  0  0  0
 79150  1  0  0  0
 79151  1  0  0  0
 80 84  1  0  0  0
 80152  1  0  0  0
 80153  1  0  0  0
 81154  1  0  0  0
 81155  1  0  0  0
 82156  1  0  0  0
 82157  1  0  0  0
 83158  1  0  0  0
 84159  1  0  0  0
M  CHG  1  84   1
M  ISO  4   1 100  68 101  81 101  83 100
M  END
> <chiral flag>
0

> <version>
0

> <s_m_source_file>
/data/baiqing/PycharmProjects/Reinvent-master-3.2/result/LINK_invent/BTK/process_docking_weight1_custom_product_contain_oxygen_bond_distance_aromatic_linkinvent_7_9_3/rearranged_h_0051.sdf

> <i_m_source_file_index>
14

> <r_mmod_Potential_Energy-OPLS-2005>
-199.278060913086

> <r_mmod_Stretch_Energy-OPLS-2005>
47.0985488891602

> <r_mmod_Bend_Energy-OPLS-2005>
110.433029174805

> <r_mmod_Torsional_Energy-OPLS-2005>
227.368438720703

> <r_mmod_Improper_Torsional_Energy-OPLS-2005>
5.2775673866272

> <r_mmod_Van_der_Waal_Energy-OPLS-2005>
158.068008422852

> <r_mmod_Electrostatic_Energy-OPLS-2005>
-349.998382568359

> <r_mmod_Solvation_Energy-OPLS-2005>
-415.208892822266

> <b_mmod_Minimization_Converged-OPLS-2005>
0

> <r_mmod_RMS_Derivative-OPLS-2005>
1.37111496925354

$$$$
14
                    3D
 Structure written by MMmdl.
157165  0  0  1  0            999 V2000
  -30.5446  -15.0380   20.4309 C   0  0  0  0  0  0
  -30.4355  -12.6536   19.5211 C   0  0  0  0  0  0
  -29.5275  -12.5375   18.2739 C   0  0  0  0  0  0
  -28.0661  -12.3005   18.6968 C   0  0  0  0  0  0
  -27.6226  -13.2581   19.8337 C   0  0  2  0  0  0
  -28.6600  -13.3451   20.9752 C   0  0  0  0  0  0
  -25.2431  -13.8232   20.5727 C   0  0  0  0  0  0
  -24.1761  -13.0444   20.9248 C   0  0  0  0  0  0
  -24.6380  -11.6928   20.8758 C   0  0  0  0  0  0
  -23.9075  -10.4295   21.0410 C   0  0  0  0  0  0
  -24.3629   -9.4211   21.9183 C   0  0  0  0  0  0
  -23.6310   -8.2240   22.0743 C   0  0  0  0  0  0
  -22.4289   -8.0277   21.3540 C   0  0  0  0  0  0
  -21.9918   -9.0254   20.4651 C   0  0  0  0  0  0
  -22.7242  -10.2140   20.3063 C   0  0  0  0  0  0
  -21.6854   -6.0738   22.5290 C   0  0  0  0  0  0
  -21.4014   -6.5645   23.8222 C   0  0  0  0  0  0
  -21.3651   -5.6801   24.9186 C   0  0  0  0  0  0
  -21.6039   -4.3065   24.7234 C   0  0  0  0  0  0
  -21.8810   -3.8151   23.4359 C   0  0  0  0  0  0
  -21.9182   -4.6964   22.3417 C   0  0  0  0  0  0
  -22.7783  -13.5220   21.1882 C   0  0  0  0  0  0
  -22.1653   -4.2157   21.0988 F   0  0  0  0  0  0
  -21.5628   -3.4539   25.7746 F   0  0  0  0  0  0
  -29.9252  -13.7798   20.3704 N   0  0  0  0  0  0
  -26.2856  -12.9483   20.3242 N   0  0  0  0  0  0
  -25.9313  -11.6604   20.5739 N   0  0  0  0  0  0
  -22.0407  -12.8241   22.0445 N   0  0  0  0  0  0
  -25.4077  -15.1965   20.4136 N   0  0  0  0  0  0
  -31.7528  -15.0170   20.1728 O   0  0  0  0  0  0
  -21.6643   -6.8883   21.4250 O   0  0  0  0  0  0
  -22.3471  -14.5498   20.6681 O   0  0  0  0  0  0
  -24.6471  -31.8401   23.1872 C   0  0  0  0  0  0
  -25.9244  -32.4677   23.8251 C   0  0  1  0  0  0
  -27.2069  -27.0873   20.1711 C   0  0  0  0  0  0
  -25.5988  -33.8487   24.2169 N   0  0  0  0  0  0
  -23.4533  -30.4592   21.5314 C   0  0  2  0  0  0
  -24.9046  -28.8830   20.1075 C   0  0  0  0  0  0
  -22.7578  -29.4516   22.4826 C   0  0  0  0  0  0
  -18.0301  -28.1420   22.8488 C   0  0  0  0  0  0
  -24.1487  -36.7238   23.2632 C   0  0  0  0  0  0
  -26.0113  -30.7001   21.3942 C   0  0  0  0  0  0
  -26.0815  -29.3069   20.7358 C   0  0  0  0  0  0
  -27.2327  -28.4258   20.7515 C   0  0  0  0  0  0
  -26.0068  -26.7828   19.4906 C   0  0  0  0  0  0
  -24.8830  -27.6376   19.4642 C   0  0  0  0  0  0
  -23.6844  -29.7930   20.1492 C   0  0  0  0  0  0
  -25.4112  -36.3009   24.0312 C   0  0  1  0  0  0
  -20.5918  -28.3729   23.1253 C   0  0  2  0  0  0
  -20.6793  -26.9433   22.5424 C   0  0  0  0  0  0
  -19.5765  -26.6395   21.5232 C   0  0  0  0  0  0
  -18.1939  -26.7963   22.1630 C   0  0  0  0  0  0
  -19.1568  -28.8892   23.2866 C   0  0  0  0  0  0
  -18.9476  -30.1485   23.8887 C   0  0  0  0  0  0
  -17.6478  -30.6613   24.0561 C   0  0  0  0  0  0
  -25.9076  -34.9396   23.5035 C   0  0  0  0  0  0
  -16.5361  -29.9108   23.6347 C   0  0  0  0  0  0
  -16.7291  -28.6531   23.0367 C   0  0  0  0  0  0
  -26.4550  -31.6569   25.0716 C   0  0  0  0  0  0
  -25.3729  -31.3820   26.1417 C   0  0  0  0  0  0
  -27.0385  -30.2936   24.6340 C   0  0  0  0  0  0
  -27.6072  -32.4339   25.7504 C   0  0  0  0  0  0
  -27.5568  -37.1757   24.8450 C   0  0  0  0  0  0
  -21.4266  -29.3046   22.3607 N   0  0  0  0  0  0
  -26.4254  -37.3741   23.9430 N   0  0  0  0  0  0
  -24.7231  -31.0217   22.0922 N   0  0  0  0  0  0
  -23.4224  -28.8062   23.2984 O   0  0  0  0  0  0
  -28.2269  -26.0555   20.2705 O   0  0  0  0  0  0
  -26.5638  -34.8913   22.4598 O   0  0  0  0  0  0
  -23.5596  -32.1275   23.7086 O   0  0  0  0  0  0
  -32.2390  -18.7136   19.4197 C   0  0  0  0  0  0
  -31.4097  -19.3583   18.4856 C   0  0  0  0  0  0
  -31.6573  -17.9373   20.4369 C   0  0  0  0  0  0
  -30.0296  -19.4836   18.7407 C   0  0  0  0  0  0
  -29.5291  -19.0541   19.9990 C   0  0  0  0  0  0
  -30.2518  -17.7958   20.4772 C   0  0  0  0  0  0
  -28.8675  -23.2245   20.4757 C   0  0  0  0  0  0
  -29.2118  -20.3222   17.7760 C   0  0  0  0  0  0
  -27.1060  -21.5210   20.1339 C   0  0  0  0  0  0
  -29.2672  -20.4714   20.8569 C   0  0  0  0  0  0
  -27.8694  -24.5277   20.0981 C   0  0  0  0  0  0
  -29.8235  -16.2923   20.5655 N   0  0  0  0  0  0
  -28.5130  -21.8231   20.4039 N   0  0  0  0  0  0
  -30.0096  -23.5179   20.8406 O   0  0  0  0  0  0
  -31.4674  -12.8093   19.2032 H   0  0  0  0  0  0
  -30.4412  -11.7204   20.0857 H   0  0  0  0  0  0
  -29.8713  -11.7258   17.6296 H   0  0  0  0  0  0
  -29.5973  -13.4513   17.6809 H   0  0  0  0  0  0
  -27.9914  -11.2687   19.0419 H   0  0  0  0  0  0
  -27.3977  -12.3823   17.8386 H   0  0  0  0  0  0
  -27.5677  -14.2456   19.3742 H   0  0  0  0  0  0
  -28.7725  -12.3870   21.4851 H   0  0  0  0  0  0
  -28.3378  -14.0630   21.7314 H   0  0  0  0  0  0
  -25.2760   -9.5707   22.4761 H   0  0  0  0  0  0
  -24.0018   -7.4637   22.7469 H   0  0  0  0  0  0
  -21.0831   -8.8790   19.8977 H   0  0  0  0  0  0
  -22.3683  -10.9683   19.6191 H   0  0  0  0  0  0
  -21.2017   -7.6158   23.9739 H   0  0  0  0  0  0
  -21.1479   -6.0527   25.9093 H   0  0  0  0  0  0
  -22.0592   -2.7613   23.2859 H   0  0  0  0  0  0
  -22.4007  -11.9937   22.4928 H   0  0  0  0  0  0
  -21.1011  -13.1289   22.2579 H   0  0  0  0  0  0
  -24.6386  -15.8471   20.5257 H   0  0  0  0  0  0
  -26.2477  -15.6370   20.0584 H   0  0  0  0  0  0
  -26.7294  -32.5270   23.0966 H   0  0  0  0  0  0
  -25.0184  -33.9573   25.0350 H   0  0  0  0  0  0
  -22.7575  -31.2870   21.3782 H   0  0  0  0  0  0
  -23.3764  -35.9550   23.3249 H   0  0  0  0  0  0
  -24.3580  -36.8912   22.2054 H   0  0  0  0  0  0
  -23.7236  -37.6421   23.6693 H   0  0  0  0  0  0
  -26.1693  -31.4542   20.6223 H   0  0  0  0  0  0
  -26.8797  -30.7518   22.0387 H   0  0  0  0  0  0
  -28.1216  -28.7383   21.2816 H   0  0  0  0  0  0
  -25.8917  -25.8305   18.9950 H   0  0  0  0  0  0
  -23.9889  -27.3083   18.9527 H   0  0  0  0  0  0
  -23.8325  -30.5710   19.3991 H   0  0  0  0  0  0
  -22.7983  -29.2440   19.8283 H   0  0  0  0  0  0
  -25.1311  -36.1793   25.0801 H   0  0  0  0  0  0
  -21.0001  -28.3318   24.1382 H   0  0  0  0  0  0
  -20.5702  -26.2330   23.3638 H   0  0  0  0  0  0
  -21.6653  -26.7457   22.1206 H   0  0  0  0  0  0
  -19.6914  -25.6299   21.1281 H   0  0  0  0  0  0
  -19.6717  -27.3185   20.6748 H   0  0  0  0  0  0
  -17.4216  -26.6725   21.4022 H   0  0  0  0  0  0
  -18.0313  -26.0117   22.9036 H   0  0  0  0  0  0
  -19.7949  -30.7312   24.2250 H   0  0  0  0  0  0
  -17.5029  -31.6292   24.5171 H   0  0  0  0  0  0
  -15.5363  -30.3007   23.7683 H   0  0  0  0  0  0
  -15.8688  -28.0844   22.7094 H   0  0  0  0  0  0
  -24.5938  -30.7107   25.7797 H   0  0  0  0  0  0
  -24.8892  -32.3028   26.4680 H   0  0  0  0  0  0
  -25.8028  -30.9150   27.0286 H   0  0  0  0  0  0
  -26.2996  -29.6681   24.1319 H   0  0  0  0  0  0
  -27.3919  -29.7243   25.4946 H   0  0  0  0  0  0
  -27.8959  -30.4136   23.9714 H   0  0  0  0  0  0
  -27.2648  -33.3660   26.2009 H   0  0  0  0  0  0
  -28.3927  -32.6850   25.0367 H   0  0  0  0  0  0
  -28.0682  -31.8509   26.5485 H   0  0  0  0  0  0
  -28.2552  -38.0085   24.7536 H   0  0  0  0  0  0
  -28.1099  -36.2622   24.6209 H   0  0  0  0  0  0
  -27.2309  -37.1329   25.8857 H   0  0  0  0  0  0
  -20.9461  -29.8770   21.6796 H   0  0  0  0  0  0
  -26.0109  -38.2790   24.1491 H   0  0  0  0  0  0
  -33.3093  -18.6903   19.2659 H   0  0  0  0  0  0
  -31.8511  -19.8215   17.6129 H   0  0  0  0  0  0
  -32.3109  -17.2508   20.9551 H   0  0  0  0  0  0
  -29.5150  -20.1181   16.7497 H   0  0  0  0  0  0
  -29.3630  -21.3874   17.9488 H   0  0  0  0  0  0
  -28.1502  -20.0905   17.8527 H   0  0  0  0  0  0
  -26.5415  -21.5241   21.0675 H   0  0  0  0  0  0
  -26.9872  -20.5324   19.6938 H   0  0  0  0  0  0
  -26.6371  -22.2267   19.4486 H   0  0  0  0  0  0
  -30.2550  -20.7921   21.1916 H   0  0  0  0  0  0
  -28.7743  -20.1649   21.7804 H   0  0  0  0  0  0
  -26.9412  -24.3636   20.6445 H   0  0  0  0  0  0
  -27.6250  -24.3953   19.0451 H   0  0  0  0  0  0
  -28.8330  -16.1567   20.7003 H   0  0  0  0  0  0
  1 25  1  0  0  0
  1 30  2  0  0  0
  1 82  1  0  0  0
  2  3  1  0  0  0
  2 25  1  0  0  0
  2 85  1  0  0  0
  2 86  1  0  0  0
  3  4  1  0  0  0
  3 87  1  0  0  0
  3 88  1  0  0  0
  4  5  1  0  0  0
  4 89  1  0  0  0
  4 90  1  0  0  0
  5  6  1  0  0  0
  5 26  1  0  0  0
  5 91  1  0  0  0
  6 25  1  0  0  0
  6 92  1  0  0  0
  6 93  1  0  0  0
  7  8  2  0  0  0
  7 26  1  0  0  0
  7 29  1  0  0  0
  8  9  1  0  0  0
  8 22  1  0  0  0
  9 10  1  0  0  0
  9 27  2  0  0  0
 10 11  2  0  0  0
 10 15  1  0  0  0
 11 12  1  0  0  0
 11 94  1  0  0  0
 12 13  2  0  0  0
 12 95  1  0  0  0
 13 14  1  0  0  0
 13 31  1  0  0  0
 14 15  2  0  0  0
 14 96  1  0  0  0
 15 97  1  0  0  0
 16 17  2  0  0  0
 16 21  1  0  0  0
 16 31  1  0  0  0
 17 18  1  0  0  0
 17 98  1  0  0  0
 18 19  2  0  0  0
 18 99  1  0  0  0
 19 20  1  0  0  0
 19 24  1  0  0  0
 20 21  2  0  0  0
 20100  1  0  0  0
 21 23  1  0  0  0
 22 28  1  0  0  0
 22 32  2  0  0  0
 26 27  1  0  0  0
 28101  1  0  0  0
 28102  1  0  0  0
 29103  1  0  0  0
 29104  1  0  0  0
 33 34  1  0  0  0
 33 66  1  0  0  0
 33 70  2  0  0  0
 34 36  1  0  0  0
 34 59  1  0  0  0
 34105  1  0  0  0
 35 44  2  0  0  0
 35 45  1  0  0  0
 35 68  1  0  0  0
 36 56  1  0  0  0
 36106  1  0  0  0
 37 39  1  0  0  0
 37 47  1  0  0  0
 37 66  1  0  0  0
 37107  1  0  0  0
 38 43  2  0  0  0
 38 46  1  0  0  0
 38 47  1  0  0  0
 39 64  1  0  0  0
 39 67  2  0  0  0
 40 52  1  0  0  0
 40 53  2  0  0  0
 40 58  1  0  0  0
 41108  1  0  0  0
 41109  1  0  0  0
 41110  1  0  0  0
 41 48  1  0  0  0
 42 43  1  0  0  0
 42 66  1  0  0  0
 42111  1  0  0  0
 42112  1  0  0  0
 43 44  1  0  0  0
 44113  1  0  0  0
 45 46  2  0  0  0
 45114  1  0  0  0
 46115  1  0  0  0
 47116  1  0  0  0
 47117  1  0  0  0
 48 56  1  0  0  0
 48 65  1  0  0  0
 48118  1  0  0  0
 49 50  1  0  0  0
 49 53  1  0  0  0
 49 64  1  0  0  0
 49119  1  0  0  0
 50 51  1  0  0  0
 50120  1  0  0  0
 50121  1  0  0  0
 51 52  1  0  0  0
 51122  1  0  0  0
 51123  1  0  0  0
 52124  1  0  0  0
 52125  1  0  0  0
 53 54  1  0  0  0
 54 55  2  0  0  0
 54126  1  0  0  0
 55 57  1  0  0  0
 55127  1  0  0  0
 56 69  2  0  0  0
 57 58  2  0  0  0
 57128  1  0  0  0
 58129  1  0  0  0
 59 60  1  0  0  0
 59 61  1  0  0  0
 59 62  1  0  0  0
 60130  1  0  0  0
 60131  1  0  0  0
 60132  1  0  0  0
 61133  1  0  0  0
 61134  1  0  0  0
 61135  1  0  0  0
 62136  1  0  0  0
 62137  1  0  0  0
 62138  1  0  0  0
 63 65  1  0  0  0
 63139  1  0  0  0
 63140  1  0  0  0
 63141  1  0  0  0
 64142  1  0  0  0
 65143  1  0  0  0
 68 81  1  0  0  0
 71 72  2  0  0  0
 71 73  1  0  0  0
 71144  1  0  0  0
 72 74  1  0  0  0
 72145  1  0  0  0
 73 76  2  0  0  0
 73146  1  0  0  0
 74 75  2  0  0  0
 74 78  1  0  0  0
 75 76  1  0  0  0
 75 80  1  0  0  0
 76 82  1  0  0  0
 77 81  1  0  0  0
 77 83  1  0  0  0
 77 84  2  0  0  0
 78147  1  0  0  0
 78148  1  0  0  0
 78149  1  0  0  0
 79 83  1  0  0  0
 79150  1  0  0  0
 79151  1  0  0  0
 79152  1  0  0  0
 80 83  1  0  0  0
 80153  1  0  0  0
 80154  1  0  0  0
 81155  1  0  0  0
 81156  1  0  0  0
 82157  1  0  0  0
M  ISO  4   1 100  68 101  81 101  82 100
M  END
> <chiral flag>
0

> <version>
0

> <s_m_source_file>
/data/baiqing/PycharmProjects/Reinvent-master-3.2/result/LINK_invent/BTK/process_docking_weight1_custom_product_contain_oxygen_bond_distance_aromatic_linkinvent_7_9_3/rearranged_h_0051.sdf

> <i_m_source_file_index>
15

> <r_mmod_Potential_Energy-OPLS-2005>
938.00048828125

> <r_mmod_Stretch_Energy-OPLS-2005>
347.320739746094

> <r_mmod_Bend_Energy-OPLS-2005>
307.31201171875

> <r_mmod_Torsional_Energy-OPLS-2005>
439.370880126953

> <r_mmod_Improper_Torsional_Energy-OPLS-2005>
31.1646499633789

> <r_mmod_Van_der_Waal_Energy-OPLS-2005>
144.025680541992

> <r_mmod_Electrostatic_Energy-OPLS-2005>
-344.832763671875

> <r_mmod_Solvation_Energy-OPLS-2005>
-238.841369628906

> <b_mmod_Minimization_Converged-OPLS-2005>
0

> <r_mmod_RMS_Derivative-OPLS-2005>
2.87050342559814

$$$$
15
                    3D
 Structure written by MMmdl.
160168  0  0  1  0            999 V2000
  -30.6452  -14.6164   20.5093 C   0  0  0  0  0  0
  -30.4331  -12.3796   19.4546 C   0  0  0  0  0  0
  -29.5036  -12.5079   18.2269 C   0  0  0  0  0  0
  -28.0267  -12.3520   18.6386 C   0  0  0  0  0  0
  -27.6551  -13.2203   19.8700 C   0  0  2  0  0  0
  -28.7008  -13.0727   21.0001 C   0  0  0  0  0  0
  -25.2552  -13.8188   20.5713 C   0  0  0  0  0  0
  -24.1816  -13.0442   20.9209 C   0  0  0  0  0  0
  -24.6393  -11.6919   20.8749 C   0  0  0  0  0  0
  -23.9064  -10.4295   21.0404 C   0  0  0  0  0  0
  -24.3613   -9.4212   21.9183 C   0  0  0  0  0  0
  -23.6287   -8.2246   22.0750 C   0  0  0  0  0  0
  -22.4273   -8.0276   21.3540 C   0  0  0  0  0  0
  -21.9908   -9.0253   20.4648 C   0  0  0  0  0  0
  -22.7236  -10.2135   20.3057 C   0  0  0  0  0  0
  -21.6854   -6.0730   22.5279 C   0  0  0  0  0  0
  -21.4014   -6.5636   23.8210 C   0  0  0  0  0  0
  -21.3660   -5.6790   24.9174 C   0  0  0  0  0  0
  -21.6048   -4.3053   24.7226 C   0  0  0  0  0  0
  -21.8819   -3.8143   23.4347 C   0  0  0  0  0  0
  -21.9194   -4.6958   22.3402 C   0  0  0  0  0  0
  -22.7836  -13.5226   21.1867 C   0  0  0  0  0  0
  -22.1661   -4.2140   21.0981 F   0  0  0  0  0  0
  -21.5632   -3.4540   25.7741 F   0  0  0  0  0  0
  -30.0195  -13.4006   20.4373 N   0  0  0  0  0  0
  -26.2996  -12.9379   20.3373 N   0  0  0  0  0  0
  -25.9327  -11.6530   20.5787 N   0  0  0  0  0  0
  -22.0477  -12.8211   22.0425 N   0  0  0  0  0  0
  -25.4265  -15.1908   20.4131 N   0  0  0  0  0  0
  -31.7963  -14.7758   20.0950 O   0  0  0  0  0  0
  -21.6639   -6.8873   21.4238 O   0  0  0  0  0  0
  -22.3515  -14.5525   20.6714 O   0  0  0  0  0  0
  -24.6253  -31.8626   23.2059 C   0  0  0  0  0  0
  -25.9110  -32.4791   23.8380 C   0  0  1  0  0  0
  -27.2159  -27.3240   20.1115 C   0  0  0  0  0  0
  -25.5935  -33.8591   24.2303 N   0  0  0  0  0  0
  -23.4179  -30.4904   21.5487 C   0  0  2  0  0  0
  -24.8622  -28.9547   20.1065 C   0  0  0  0  0  0
  -22.7460  -29.4654   22.4936 C   0  0  0  0  0  0
  -18.0294  -28.1369   22.8502 C   0  0  0  0  0  0
  -24.1491  -36.7304   23.2640 C   0  0  0  0  0  0
  -25.9609  -30.7928   21.3803 C   0  0  0  0  0  0
  -26.0319  -29.4235   20.7178 C   0  0  0  0  0  0
  -27.2105  -28.6185   20.7156 C   0  0  0  0  0  0
  -26.0270  -26.9252   19.4523 C   0  0  0  0  0  0
  -24.8621  -27.7103   19.4630 C   0  0  0  0  0  0
  -23.6308  -29.8337   20.1612 C   0  0  0  0  0  0
  -25.4113  -36.3092   24.0332 C   0  0  1  0  0  0
  -20.5888  -28.3705   23.1280 C   0  0  2  0  0  0
  -20.6804  -26.9433   22.5402 C   0  0  0  0  0  0
  -19.5770  -26.6385   21.5220 C   0  0  0  0  0  0
  -18.1947  -26.7918   22.1640 C   0  0  0  0  0  0
  -19.1539  -28.8845   23.2888 C   0  0  0  0  0  0
  -18.9466  -30.1450   23.8899 C   0  0  0  0  0  0
  -17.6466  -30.6586   24.0550 C   0  0  0  0  0  0
  -25.9049  -34.9459   23.5115 C   0  0  0  0  0  0
  -16.5359  -29.9082   23.6315 C   0  0  0  0  0  0
  -16.7279  -28.6491   23.0359 C   0  0  0  0  0  0
  -26.4494  -31.6592   25.0742 C   0  0  0  0  0  0
  -25.3731  -31.3724   26.1472 C   0  0  0  0  0  0
  -27.0346  -30.3020   24.6192 C   0  0  0  0  0  0
  -27.6050  -32.4331   25.7517 C   0  0  0  0  0  0
  -27.5581  -37.1805   24.8462 C   0  0  0  0  0  0
  -21.4173  -29.3082   22.3688 N   0  0  0  0  0  0
  -26.4294  -37.3780   23.9407 N   0  0  0  0  0  0
  -24.6870  -31.0644   22.1017 N   0  0  0  0  0  0
  -23.4182  -28.8180   23.3009 O   0  0  0  0  0  0
  -28.3188  -26.4519   20.1897 O   0  0  0  0  0  0
  -26.5606  -34.8920   22.4676 O   0  0  0  0  0  0
  -23.5422  -32.1433   23.7389 O   0  0  0  0  0  0
  -30.8914  -17.5111   22.8775 C   0  0  0  0  0  0
  -31.2401  -18.2529   24.0169 C   0  0  0  0  0  0
  -30.5080  -20.2759   22.9035 C   0  0  0  0  0  0
  -30.3369  -18.1174   21.7224 C   0  0  0  0  0  0
  -30.1370  -19.5621   21.7373 C   0  0  0  0  0  0
  -31.0477  -19.6386   24.0305 C   0  0  0  0  0  0
  -28.2687  -22.6941   21.2435 C   0  0  0  0  0  0
  -27.2889  -20.4795   21.4924 C   0  0  0  0  0  0
  -30.0401  -17.1458   20.5430 C   0  0  0  0  0  0
  -29.5589  -20.4788   20.6104 C   0  0  0  0  0  0
  -29.0160  -23.8352   20.4616 C   0  0  0  0  0  0
  -28.0635  -25.0113   19.9417 C   0  0  0  0  0  0
  -29.8622  -15.6799   20.8516 N   0  0  0  0  0  0
  -28.4036  -21.3299   21.0438 N   0  0  0  0  0  0
  -27.4288  -23.0892   22.0601 O   0  0  0  0  0  0
  -31.4764  -20.5599   25.4240 Cl  0  0  0  0  0  0
  -31.4754  -12.4940   19.1515 H   0  0  0  0  0  0
  -30.3574  -11.3829   19.8921 H   0  0  0  0  0  0
  -29.7616  -11.7607   17.4758 H   0  0  0  0  0  0
  -29.6512  -13.4799   17.7534 H   0  0  0  0  0  0
  -27.8578  -11.2992   18.8665 H   0  0  0  0  0  0
  -27.3715  -12.5899   17.7997 H   0  0  0  0  0  0
  -27.6744  -14.2566   19.5314 H   0  0  0  0  0  0
  -28.7043  -12.0539   21.3899 H   0  0  0  0  0  0
  -28.4528  -13.7143   21.8473 H   0  0  0  0  0  0
  -25.2751   -9.5685   22.4769 H   0  0  0  0  0  0
  -23.9999   -7.4631   22.7463 H   0  0  0  0  0  0
  -21.0844   -8.8769   19.8949 H   0  0  0  0  0  0
  -22.3688  -10.9673   19.6171 H   0  0  0  0  0  0
  -21.2001   -7.6143   23.9710 H   0  0  0  0  0  0
  -21.1486   -6.0522   25.9076 H   0  0  0  0  0  0
  -22.0598   -2.7605   23.2853 H   0  0  0  0  0  0
  -22.4083  -11.9871   22.4817 H   0  0  0  0  0  0
  -21.1092  -13.1236   22.2630 H   0  0  0  0  0  0
  -24.6597  -15.8460   20.5212 H   0  0  0  0  0  0
  -26.2764  -15.6300   20.0836 H   0  0  0  0  0  0
  -26.7184  -32.5454   23.1137 H   0  0  0  0  0  0
  -25.0093  -33.9736   25.0457 H   0  0  0  0  0  0
  -22.7121  -31.3121   21.4109 H   0  0  0  0  0  0
  -23.3746  -35.9643   23.3304 H   0  0  0  0  0  0
  -24.3588  -36.8919   22.2054 H   0  0  0  0  0  0
  -23.7248  -37.6510   23.6659 H   0  0  0  0  0  0
  -26.0967  -31.5581   20.6145 H   0  0  0  0  0  0
  -26.8413  -30.8361   22.0098 H   0  0  0  0  0  0
  -28.1041  -28.9696   21.2123 H   0  0  0  0  0  0
  -25.9587  -25.9856   18.9254 H   0  0  0  0  0  0
  -23.9708  -27.3516   18.9657 H   0  0  0  0  0  0
  -23.7491  -30.6154   19.4102 H   0  0  0  0  0  0
  -22.7508  -29.2647   19.8559 H   0  0  0  0  0  0
  -25.1292  -36.1955   25.0824 H   0  0  0  0  0  0
  -20.9975  -28.3283   24.1400 H   0  0  0  0  0  0
  -20.5758  -26.2320   23.3609 H   0  0  0  0  0  0
  -21.6669  -26.7493   22.1175 H   0  0  0  0  0  0
  -19.6975  -25.6298   21.1264 H   0  0  0  0  0  0
  -19.6701  -27.3197   20.6752 H   0  0  0  0  0  0
  -17.4209  -26.6695   21.4044 H   0  0  0  0  0  0
  -18.0354  -26.0045   22.9024 H   0  0  0  0  0  0
  -19.7944  -30.7257   24.2266 H   0  0  0  0  0  0
  -17.5021  -31.6278   24.5116 H   0  0  0  0  0  0
  -15.5355  -30.2994   23.7609 H   0  0  0  0  0  0
  -15.8667  -28.0823   22.7076 H   0  0  0  0  0  0
  -24.5896  -30.7085   25.7805 H   0  0  0  0  0  0
  -24.8934  -32.2888   26.4916 H   0  0  0  0  0  0
  -25.8055  -30.8889   27.0241 H   0  0  0  0  0  0
  -26.2926  -29.6765   24.1216 H   0  0  0  0  0  0
  -27.4058  -29.7274   25.4691 H   0  0  0  0  0  0
  -27.8794  -30.4319   23.9423 H   0  0  0  0  0  0
  -27.2649  -33.3623   26.2110 H   0  0  0  0  0  0
  -28.3855  -32.6907   25.0343 H   0  0  0  0  0  0
  -28.0737  -31.8454   26.5423 H   0  0  0  0  0  0
  -28.2596  -38.0103   24.7509 H   0  0  0  0  0  0
  -28.1077  -36.2631   24.6293 H   0  0  0  0  0  0
  -27.2300  -37.1470   25.8864 H   0  0  0  0  0  0
  -20.9337  -29.8845   21.6945 H   0  0  0  0  0  0
  -26.0179  -38.2862   24.1389 H   0  0  0  0  0  0
  -31.0750  -16.4472   22.9102 H   0  0  0  0  0  0
  -31.6639  -17.7575   24.8788 H   0  0  0  0  0  0
  -30.3780  -21.3478   22.9470 H   0  0  0  0  0  0
  -27.4028  -19.4378   21.1895 H   0  0  0  0  0  0
  -26.3417  -20.8267   21.0757 H   0  0  0  0  0  0
  -27.2059  -20.4927   22.5800 H   0  0  0  0  0  0
  -29.1254  -17.4832   20.0545 H   0  0  0  0  0  0
  -30.8338  -17.2667   19.8043 H   0  0  0  0  0  0
  -29.2581  -19.8759   19.7529 H   0  0  0  0  0  0
  -30.3622  -21.1245   20.2524 H   0  0  0  0  0  0
  -29.7705  -24.2526   21.1282 H   0  0  0  0  0  0
  -29.5596  -23.3991   19.6237 H   0  0  0  0  0  0
  -27.0690  -24.7883   20.3272 H   0  0  0  0  0  0
  -27.9790  -24.8898   18.8606 H   0  0  0  0  0  0
  -28.9459  -15.4298   21.1904 H   0  0  0  0  0  0
  1 25  1  0  0  0
  1 30  2  0  0  0
  1 83  1  0  0  0
  2  3  1  0  0  0
  2 25  1  0  0  0
  2 87  1  0  0  0
  2 88  1  0  0  0
  3  4  1  0  0  0
  3 89  1  0  0  0
  3 90  1  0  0  0
  4  5  1  0  0  0
  4 91  1  0  0  0
  4 92  1  0  0  0
  5  6  1  0  0  0
  5 26  1  0  0  0
  5 93  1  0  0  0
  6 25  1  0  0  0
  6 94  1  0  0  0
  6 95  1  0  0  0
  7  8  2  0  0  0
  7 26  1  0  0  0
  7 29  1  0  0  0
  8  9  1  0  0  0
  8 22  1  0  0  0
  9 10  1  0  0  0
  9 27  2  0  0  0
 10 11  2  0  0  0
 10 15  1  0  0  0
 11 12  1  0  0  0
 11 96  1  0  0  0
 12 13  2  0  0  0
 12 97  1  0  0  0
 13 14  1  0  0  0
 13 31  1  0  0  0
 14 15  2  0  0  0
 14 98  1  0  0  0
 15 99  1  0  0  0
 16 17  2  0  0  0
 16 21  1  0  0  0
 16 31  1  0  0  0
 17 18  1  0  0  0
 17100  1  0  0  0
 18 19  2  0  0  0
 18101  1  0  0  0
 19 20  1  0  0  0
 19 24  1  0  0  0
 20 21  2  0  0  0
 20102  1  0  0  0
 21 23  1  0  0  0
 22 28  1  0  0  0
 22 32  2  0  0  0
 26 27  1  0  0  0
 28103  1  0  0  0
 28104  1  0  0  0
 29105  1  0  0  0
 29106  1  0  0  0
 33 34  1  0  0  0
 33 66  1  0  0  0
 33 70  2  0  0  0
 34 36  1  0  0  0
 34 59  1  0  0  0
 34107  1  0  0  0
 35 44  2  0  0  0
 35 45  1  0  0  0
 35 68  1  0  0  0
 36 56  1  0  0  0
 36108  1  0  0  0
 37 39  1  0  0  0
 37 47  1  0  0  0
 37 66  1  0  0  0
 37109  1  0  0  0
 38 43  2  0  0  0
 38 46  1  0  0  0
 38 47  1  0  0  0
 39 64  1  0  0  0
 39 67  2  0  0  0
 40 52  1  0  0  0
 40 53  2  0  0  0
 40 58  1  0  0  0
 41110  1  0  0  0
 41111  1  0  0  0
 41112  1  0  0  0
 41 48  1  0  0  0
 42 43  1  0  0  0
 42 66  1  0  0  0
 42113  1  0  0  0
 42114  1  0  0  0
 43 44  1  0  0  0
 44115  1  0  0  0
 45 46  2  0  0  0
 45116  1  0  0  0
 46117  1  0  0  0
 47118  1  0  0  0
 47119  1  0  0  0
 48 56  1  0  0  0
 48 65  1  0  0  0
 48120  1  0  0  0
 49 50  1  0  0  0
 49 53  1  0  0  0
 49 64  1  0  0  0
 49121  1  0  0  0
 50 51  1  0  0  0
 50122  1  0  0  0
 50123  1  0  0  0
 51 52  1  0  0  0
 51124  1  0  0  0
 51125  1  0  0  0
 52126  1  0  0  0
 52127  1  0  0  0
 53 54  1  0  0  0
 54 55  2  0  0  0
 54128  1  0  0  0
 55 57  1  0  0  0
 55129  1  0  0  0
 56 69  2  0  0  0
 57 58  2  0  0  0
 57130  1  0  0  0
 58131  1  0  0  0
 59 60  1  0  0  0
 59 61  1  0  0  0
 59 62  1  0  0  0
 60132  1  0  0  0
 60133  1  0  0  0
 60134  1  0  0  0
 61135  1  0  0  0
 61136  1  0  0  0
 61137  1  0  0  0
 62138  1  0  0  0
 62139  1  0  0  0
 62140  1  0  0  0
 63 65  1  0  0  0
 63141  1  0  0  0
 63142  1  0  0  0
 63143  1  0  0  0
 64144  1  0  0  0
 65145  1  0  0  0
 68 82  1  0  0  0
 71 72  2  0  0  0
 71 74  1  0  0  0
 71146  1  0  0  0
 72 76  1  0  0  0
 72147  1  0  0  0
 73 75  1  0  0  0
 73 76  2  0  0  0
 73148  1  0  0  0
 74 75  2  0  0  0
 74 79  1  0  0  0
 75 80  1  0  0  0
 76 86  1  0  0  0
 77 81  1  0  0  0
 77 84  1  0  0  0
 77 85  2  0  0  0
 78 84  1  0  0  0
 78149  1  0  0  0
 78150  1  0  0  0
 78151  1  0  0  0
 79 83  1  0  0  0
 79152  1  0  0  0
 79153  1  0  0  0
 80 84  1  0  0  0
 80154  1  0  0  0
 80155  1  0  0  0
 81 82  1  0  0  0
 81156  1  0  0  0
 81157  1  0  0  0
 82158  1  0  0  0
 82159  1  0  0  0
 83160  1  0  0  0
M  ISO  4   1 100  68 101  82 101  83 100
M  END
> <chiral flag>
0

> <version>
0

> <s_m_source_file>
/data/baiqing/PycharmProjects/Reinvent-master-3.2/result/LINK_invent/BTK/process_docking_weight1_custom_product_contain_oxygen_bond_distance_aromatic_linkinvent_7_9_3/rearranged_h_0051.sdf

> <i_m_source_file_index>
16

> <r_mmod_Potential_Energy-OPLS-2005>
22.095724105835

> <r_mmod_Stretch_Energy-OPLS-2005>
84.7038650512695

> <r_mmod_Bend_Energy-OPLS-2005>
158.784149169922

> <r_mmod_Torsional_Energy-OPLS-2005>
228.010986328125

> <r_mmod_Improper_Torsional_Energy-OPLS-2005>
6.22251605987549

> <r_mmod_Van_der_Waal_Energy-OPLS-2005>
160.880477905273

> <r_mmod_Electrostatic_Energy-OPLS-2005>
-421.130340576172

> <r_mmod_Solvation_Energy-OPLS-2005>
-242.034225463867

> <b_mmod_Minimization_Converged-OPLS-2005>
0

> <r_mmod_RMS_Derivative-OPLS-2005>
1.47607958316803

$$$$
16
                    3D
 Structure written by MMmdl.
162170  0  0  1  0            999 V2000
  -30.7336  -14.4744   20.5409 C   0  0  0  0  0  0
  -30.4092  -12.2970   19.4269 C   0  0  0  0  0  0
  -29.4891  -12.4995   18.2060 C   0  0  0  0  0  0
  -28.0109  -12.3709   18.6184 C   0  0  0  0  0  0
  -27.6600  -13.2140   19.8734 C   0  0  2  0  0  0
  -28.7073  -13.0246   20.9963 C   0  0  0  0  0  0
  -25.2561  -13.8164   20.5656 C   0  0  0  0  0  0
  -24.1844  -13.0433   20.9190 C   0  0  0  0  0  0
  -24.6423  -11.6907   20.8756 C   0  0  0  0  0  0
  -23.9097  -10.4282   21.0424 C   0  0  0  0  0  0
  -24.3632   -9.4194   21.9210 C   0  0  0  0  0  0
  -23.6289   -8.2238   22.0778 C   0  0  0  0  0  0
  -22.4277   -8.0280   21.3555 C   0  0  0  0  0  0
  -21.9925   -9.0264   20.4664 C   0  0  0  0  0  0
  -22.7269  -10.2130   20.3068 C   0  0  0  0  0  0
  -21.6845   -6.0728   22.5273 C   0  0  0  0  0  0
  -21.4017   -6.5641   23.8201 C   0  0  0  0  0  0
  -21.3652   -5.6795   24.9170 C   0  0  0  0  0  0
  -21.6044   -4.3064   24.7234 C   0  0  0  0  0  0
  -21.8818   -3.8139   23.4356 C   0  0  0  0  0  0
  -21.9196   -4.6948   22.3406 C   0  0  0  0  0  0
  -22.7866  -13.5225   21.1838 C   0  0  0  0  0  0
  -22.1663   -4.2142   21.0982 F   0  0  0  0  0  0
  -21.5626   -3.4552   25.7751 F   0  0  0  0  0  0
  -30.0367  -13.3072   20.4312 N   0  0  0  0  0  0
  -26.3023  -12.9357   20.3369 N   0  0  0  0  0  0
  -25.9366  -11.6517   20.5813 N   0  0  0  0  0  0
  -22.0509  -12.8207   22.0373 N   0  0  0  0  0  0
  -25.4202  -15.1873   20.3955 N   0  0  0  0  0  0
  -31.8626  -14.6040   20.0649 O   0  0  0  0  0  0
  -21.6634   -6.8875   21.4240 O   0  0  0  0  0  0
  -22.3546  -14.5532   20.6680 O   0  0  0  0  0  0
  -24.6146  -31.8682   23.2102 C   0  0  0  0  0  0
  -25.9043  -32.4806   23.8397 C   0  0  1  0  0  0
  -27.2281  -27.4332   20.1017 C   0  0  0  0  0  0
  -25.5917  -33.8611   24.2347 N   0  0  0  0  0  0
  -23.4017  -30.4896   21.5508 C   0  0  2  0  0  0
  -24.8510  -28.9589   20.1112 C   0  0  0  0  0  0
  -22.7407  -29.4643   22.4997 C   0  0  0  0  0  0
  -18.0266  -28.1352   22.8503 C   0  0  0  0  0  0
  -24.1473  -36.7288   23.2646 C   0  0  0  0  0  0
  -25.9286  -30.8354   21.3607 C   0  0  0  0  0  0
  -26.0106  -29.4699   20.7085 C   0  0  0  0  0  0
  -27.2064  -28.7140   20.7018 C   0  0  0  0  0  0
  -26.0573  -26.9421   19.4890 C   0  0  0  0  0  0
  -24.8675  -27.6931   19.4995 C   0  0  0  0  0  0
  -23.6112  -29.8237   20.1655 C   0  0  0  0  0  0
  -25.4096  -36.3097   24.0357 C   0  0  1  0  0  0
  -20.5858  -28.3651   23.1317 C   0  0  2  0  0  0
  -20.6755  -26.9385   22.5405 C   0  0  0  0  0  0
  -19.5716  -26.6361   21.5219 C   0  0  0  0  0  0
  -18.1891  -26.7901   22.1625 C   0  0  0  0  0  0
  -19.1516  -28.8812   23.2890 C   0  0  0  0  0  0
  -18.9455  -30.1411   23.8906 C   0  0  0  0  0  0
  -17.6468  -30.6573   24.0551 C   0  0  0  0  0  0
  -25.9046  -34.9472   23.5146 C   0  0  0  0  0  0
  -16.5349  -29.9069   23.6338 C   0  0  0  0  0  0
  -16.7262  -28.6478   23.0379 C   0  0  0  0  0  0
  -26.4498  -31.6581   25.0716 C   0  0  0  0  0  0
  -25.3780  -31.3641   26.1457 C   0  0  0  0  0  0
  -27.0404  -30.3071   24.6058 C   0  0  0  0  0  0
  -27.6043  -32.4332   25.7494 C   0  0  0  0  0  0
  -27.5556  -37.1780   24.8475 C   0  0  0  0  0  0
  -21.4145  -29.3019   22.3730 N   0  0  0  0  0  0
  -26.4280  -37.3780   23.9430 N   0  0  0  0  0  0
  -24.6670  -31.0761   22.1004 N   0  0  0  0  0  0
  -23.4172  -28.8204   23.3055 O   0  0  0  0  0  0
  -28.3569  -26.6441   20.1271 O   0  0  0  0  0  0
  -26.5572  -34.8921   22.4681 O   0  0  0  0  0  0
  -23.5332  -32.1478   23.7461 O   0  0  0  0  0  0
  -31.2681  -19.6314   21.3626 C   0  0  0  0  0  0
  -31.8349  -17.2693   21.2409 C   0  0  0  0  0  0
  -29.8931  -19.3248   21.2799 C   0  0  0  0  0  0
  -29.4865  -17.9569   21.1204 C   0  0  0  0  0  0
  -30.4666  -16.9126   21.1185 C   0  0  0  0  0  0
  -32.2307  -18.6128   21.3383 C   0  0  0  0  0  0
  -28.9654  -20.4636   21.4686 C   0  0  0  0  0  0
  -28.0128  -17.6012   20.9252 C   0  0  0  0  0  0
  -30.3975  -24.3357   20.2590 C   0  0  0  0  0  0
  -28.4661  -22.9357   21.1976 C   0  0  0  0  0  0
  -28.2056  -25.4521   20.9260 C   0  0  0  0  0  0
  -28.8711  -24.1722   20.3424 C   0  0  1  0  0  0
  -27.9544  -20.3385   22.3268 N   0  0  0  0  0  0
  -30.0590  -15.5277   21.0543 N   0  0  0  0  0  0
  -29.1561  -21.6585   20.8655 N   0  3  0  0  0  0
  -33.5457  -18.9266   21.4418 F   0  0  0  0  0  0
  -31.4573  -12.3589   19.1289 H   0  0  0  0  0  0
  -30.2777  -11.2937   19.8372 H   0  0  0  0  0  0
  -29.7242  -11.7701   17.4304 H   0  0  0  0  0  0
  -29.6637  -13.4827   17.7654 H   0  0  0  0  0  0
  -27.8108  -11.3168   18.8086 H   0  0  0  0  0  0
  -27.3651  -12.6559   17.7869 H   0  0  0  0  0  0
  -27.6953  -14.2570   19.5630 H   0  0  0  0  0  0
  -28.6824  -12.0015   21.3758 H   0  0  0  0  0  0
  -28.4778  -13.6595   21.8534 H   0  0  0  0  0  0
  -25.2776   -9.5648   22.4797 H   0  0  0  0  0  0
  -23.9980   -7.4626   22.7509 H   0  0  0  0  0  0
  -21.0855   -8.8796   19.8969 H   0  0  0  0  0  0
  -22.3753  -10.9674   19.6169 H   0  0  0  0  0  0
  -21.2007   -7.6148   23.9700 H   0  0  0  0  0  0
  -21.1481   -6.0537   25.9069 H   0  0  0  0  0  0
  -22.0608   -2.7606   23.2866 H   0  0  0  0  0  0
  -22.4119  -11.9839   22.4719 H   0  0  0  0  0  0
  -21.1133  -13.1236   22.2615 H   0  0  0  0  0  0
  -24.6377  -15.8266   20.4752 H   0  0  0  0  0  0
  -26.2381  -15.6146   19.9836 H   0  0  0  0  0  0
  -26.7103  -32.5563   23.1148 H   0  0  0  0  0  0
  -25.0131  -33.9772   25.0525 H   0  0  0  0  0  0
  -22.6910  -31.3065   21.4066 H   0  0  0  0  0  0
  -23.3753  -35.9598   23.3325 H   0  0  0  0  0  0
  -24.3575  -36.8916   22.2062 H   0  0  0  0  0  0
  -23.7208  -37.6488   23.6665 H   0  0  0  0  0  0
  -26.0356  -31.5997   20.5900 H   0  0  0  0  0  0
  -26.8155  -30.8948   21.9769 H   0  0  0  0  0  0
  -28.0989  -29.0967   21.1761 H   0  0  0  0  0  0
  -26.0696  -25.9683   19.0178 H   0  0  0  0  0  0
  -23.9765  -27.2911   19.0397 H   0  0  0  0  0  0
  -23.7109  -30.5998   19.4064 H   0  0  0  0  0  0
  -22.7394  -29.2373   19.8731 H   0  0  0  0  0  0
  -25.1253  -36.1982   25.0856 H   0  0  0  0  0  0
  -20.9915  -28.3214   24.1455 H   0  0  0  0  0  0
  -20.5680  -26.2260   23.3599 H   0  0  0  0  0  0
  -21.6623  -26.7425   22.1163 H   0  0  0  0  0  0
  -19.6888  -25.6287   21.1219 H   0  0  0  0  0  0
  -19.6662  -27.3193   20.6771 H   0  0  0  0  0  0
  -17.4165  -26.6700   21.4001 H   0  0  0  0  0  0
  -18.0245  -26.0010   22.8981 H   0  0  0  0  0  0
  -19.7950  -30.7176   24.2308 H   0  0  0  0  0  0
  -17.5043  -31.6278   24.5105 H   0  0  0  0  0  0
  -15.5353  -30.2950   23.7677 H   0  0  0  0  0  0
  -15.8666  -28.0773   22.7125 H   0  0  0  0  0  0
  -24.5967  -30.6976   25.7777 H   0  0  0  0  0  0
  -24.8925  -32.2762   26.4944 H   0  0  0  0  0  0
  -25.8124  -30.8787   27.0202 H   0  0  0  0  0  0
  -26.2955  -29.6730   24.1219 H   0  0  0  0  0  0
  -27.4396  -29.7397   25.4477 H   0  0  0  0  0  0
  -27.8669  -30.4479   23.9088 H   0  0  0  0  0  0
  -27.2660  -33.3653   26.2035 H   0  0  0  0  0  0
  -28.3869  -32.6872   25.0330 H   0  0  0  0  0  0
  -28.0689  -31.8503   26.5455 H   0  0  0  0  0  0
  -28.2549  -38.0090   24.7545 H   0  0  0  0  0  0
  -28.1085  -36.2629   24.6283 H   0  0  0  0  0  0
  -27.2278  -37.1416   25.8876 H   0  0  0  0  0  0
  -20.9309  -29.8795   21.6998 H   0  0  0  0  0  0
  -26.0192  -38.2872   24.1428 H   0  0  0  0  0  0
  -31.6003  -20.6504   21.4885 H   0  0  0  0  0  0
  -32.6174  -16.5295   21.2717 H   0  0  0  0  0  0
  -27.5242  -18.3134   20.2598 H   0  0  0  0  0  0
  -27.4811  -17.5952   21.8765 H   0  0  0  0  0  0
  -27.8765  -16.6266   20.4620 H   0  0  0  0  0  0
  -30.8375  -23.5760   19.6125 H   0  0  0  0  0  0
  -30.8624  -24.2492   21.2417 H   0  0  0  0  0  0
  -30.6693  -25.3079   19.8440 H   0  0  0  0  0  0
  -27.3880  -22.7929   21.1083 H   0  0  0  0  0  0
  -28.6619  -23.1514   22.2507 H   0  0  0  0  0  0
  -28.6293  -25.6694   21.9077 H   0  0  0  0  0  0
  -27.1528  -25.2267   21.1119 H   0  0  0  0  0  0
  -28.4749  -24.0345   19.3359 H   0  0  0  0  0  0
  -27.8764  -19.4939   22.8724 H   0  0  0  0  0  0
  -27.2700  -21.0599   22.4714 H   0  0  0  0  0  0
  -29.1083  -15.3292   21.3189 H   0  0  0  0  0  0
  -29.8963  -21.7060   20.1776 H   0  0  0  0  0  0
  1 25  1  0  0  0
  1 30  2  0  0  0
  1 84  1  0  0  0
  2  3  1  0  0  0
  2 25  1  0  0  0
  2 87  1  0  0  0
  2 88  1  0  0  0
  3  4  1  0  0  0
  3 89  1  0  0  0
  3 90  1  0  0  0
  4  5  1  0  0  0
  4 91  1  0  0  0
  4 92  1  0  0  0
  5  6  1  0  0  0
  5 26  1  0  0  0
  5 93  1  0  0  0
  6 25  1  0  0  0
  6 94  1  0  0  0
  6 95  1  0  0  0
  7  8  2  0  0  0
  7 26  1  0  0  0
  7 29  1  0  0  0
  8  9  1  0  0  0
  8 22  1  0  0  0
  9 10  1  0  0  0
  9 27  2  0  0  0
 10 11  2  0  0  0
 10 15  1  0  0  0
 11 12  1  0  0  0
 11 96  1  0  0  0
 12 13  2  0  0  0
 12 97  1  0  0  0
 13 14  1  0  0  0
 13 31  1  0  0  0
 14 15  2  0  0  0
 14 98  1  0  0  0
 15 99  1  0  0  0
 16 17  2  0  0  0
 16 21  1  0  0  0
 16 31  1  0  0  0
 17 18  1  0  0  0
 17100  1  0  0  0
 18 19  2  0  0  0
 18101  1  0  0  0
 19 20  1  0  0  0
 19 24  1  0  0  0
 20 21  2  0  0  0
 20102  1  0  0  0
 21 23  1  0  0  0
 22 28  1  0  0  0
 22 32  2  0  0  0
 26 27  1  0  0  0
 28103  1  0  0  0
 28104  1  0  0  0
 29105  1  0  0  0
 29106  1  0  0  0
 33 34  1  0  0  0
 33 66  1  0  0  0
 33 70  2  0  0  0
 34 36  1  0  0  0
 34 59  1  0  0  0
 34107  1  0  0  0
 35 44  2  0  0  0
 35 45  1  0  0  0
 35 68  1  0  0  0
 36 56  1  0  0  0
 36108  1  0  0  0
 37 39  1  0  0  0
 37 47  1  0  0  0
 37 66  1  0  0  0
 37109  1  0  0  0
 38 43  2  0  0  0
 38 46  1  0  0  0
 38 47  1  0  0  0
 39 64  1  0  0  0
 39 67  2  0  0  0
 40 52  1  0  0  0
 40 53  2  0  0  0
 40 58  1  0  0  0
 41110  1  0  0  0
 41111  1  0  0  0
 41112  1  0  0  0
 41 48  1  0  0  0
 42 43  1  0  0  0
 42 66  1  0  0  0
 42113  1  0  0  0
 42114  1  0  0  0
 43 44  1  0  0  0
 44115  1  0  0  0
 45 46  2  0  0  0
 45116  1  0  0  0
 46117  1  0  0  0
 47118  1  0  0  0
 47119  1  0  0  0
 48 56  1  0  0  0
 48 65  1  0  0  0
 48120  1  0  0  0
 49 50  1  0  0  0
 49 53  1  0  0  0
 49 64  1  0  0  0
 49121  1  0  0  0
 50 51  1  0  0  0
 50122  1  0  0  0
 50123  1  0  0  0
 51 52  1  0  0  0
 51124  1  0  0  0
 51125  1  0  0  0
 52126  1  0  0  0
 52127  1  0  0  0
 53 54  1  0  0  0
 54 55  2  0  0  0
 54128  1  0  0  0
 55 57  1  0  0  0
 55129  1  0  0  0
 56 69  2  0  0  0
 57 58  2  0  0  0
 57130  1  0  0  0
 58131  1  0  0  0
 59 60  1  0  0  0
 59 61  1  0  0  0
 59 62  1  0  0  0
 60132  1  0  0  0
 60133  1  0  0  0
 60134  1  0  0  0
 61135  1  0  0  0
 61136  1  0  0  0
 61137  1  0  0  0
 62138  1  0  0  0
 62139  1  0  0  0
 62140  1  0  0  0
 63 65  1  0  0  0
 63141  1  0  0  0
 63142  1  0  0  0
 63143  1  0  0  0
 64144  1  0  0  0
 65145  1  0  0  0
 68 81  1  0  0  0
 71 73  2  0  0  0
 71 76  1  0  0  0
 71146  1  0  0  0
 72 75  1  0  0  0
 72 76  2  0  0  0
 72147  1  0  0  0
 73 74  1  0  0  0
 73 77  1  0  0  0
 74 75  2  0  0  0
 74 78  1  0  0  0
 75 84  1  0  0  0
 76 86  1  0  0  0
 77 83  1  0  0  0
 77 85  2  0  0  0
 78148  1  0  0  0
 78149  1  0  0  0
 78150  1  0  0  0
 79151  1  0  0  0
 79152  1  0  0  0
 79153  1  0  0  0
 79 82  1  0  0  0
 80 82  1  0  0  0
 80 85  1  0  0  0
 80154  1  0  0  0
 80155  1  0  0  0
 81 82  1  0  0  0
 81156  1  0  0  0
 81157  1  0  0  0
 82158  1  0  0  0
 83159  1  0  0  0
 83160  1  0  0  0
 84161  1  0  0  0
 85162  1  0  0  0
M  CHG  1  85   1
M  ISO  4   1 100  68 101  81 101  84 100
M  END
> <chiral flag>
0

> <version>
0

> <s_m_source_file>
/data/baiqing/PycharmProjects/Reinvent-master-3.2/result/LINK_invent/BTK/process_docking_weight1_custom_product_contain_oxygen_bond_distance_aromatic_linkinvent_7_9_3/rearranged_h_0051.sdf

> <i_m_source_file_index>
17

> <r_mmod_Potential_Energy-OPLS-2005>
-272.517150878906

> <r_mmod_Stretch_Energy-OPLS-2005>
44.7889595031738

> <r_mmod_Bend_Energy-OPLS-2005>
99.7104644775391

> <r_mmod_Torsional_Energy-OPLS-2005>
250.677520751953

> <r_mmod_Improper_Torsional_Energy-OPLS-2005>
4.98572778701782

> <r_mmod_Van_der_Waal_Energy-OPLS-2005>
164.327041625977

> <r_mmod_Electrostatic_Energy-OPLS-2005>
-435.64794921875

> <r_mmod_Solvation_Energy-OPLS-2005>
-416.790222167969

> <b_mmod_Minimization_Converged-OPLS-2005>
0

> <r_mmod_RMS_Derivative-OPLS-2005>
3.13222885131836

$$$$
17
                    3D
 Structure written by MMmdl.
163171  0  0  1  0            999 V2000
  -30.6660  -14.5194   20.5139 C   0  0  0  0  0  0
  -30.4255  -12.3232   19.4252 C   0  0  0  0  0  0
  -29.4973  -12.4825   18.2002 C   0  0  0  0  0  0
  -28.0138  -12.3461   18.6059 C   0  0  0  0  0  0
  -27.6497  -13.2032   19.8484 C   0  0  2  0  0  0
  -28.6869  -13.0012   20.9679 C   0  0  0  0  0  0
  -25.2568  -13.8151   20.5676 C   0  0  0  0  0  0
  -24.1817  -13.0457   20.9194 C   0  0  0  0  0  0
  -24.6340  -11.6897   20.8698 C   0  0  0  0  0  0
  -23.9022  -10.4288   21.0391 C   0  0  0  0  0  0
  -24.3577   -9.4213   21.9172 C   0  0  0  0  0  0
  -23.6270   -8.2241   22.0744 C   0  0  0  0  0  0
  -22.4247   -8.0262   21.3544 C   0  0  0  0  0  0
  -21.9872   -9.0240   20.4645 C   0  0  0  0  0  0
  -22.7193  -10.2127   20.3057 C   0  0  0  0  0  0
  -21.6849   -6.0708   22.5275 C   0  0  0  0  0  0
  -21.4000   -6.5620   23.8202 C   0  0  0  0  0  0
  -21.3675   -5.6792   24.9174 C   0  0  0  0  0  0
  -21.6051   -4.3055   24.7235 C   0  0  0  0  0  0
  -21.8823   -3.8129   23.4365 C   0  0  0  0  0  0
  -21.9177   -4.6930   22.3407 C   0  0  0  0  0  0
  -22.7834  -13.5236   21.1896 C   0  0  0  0  0  0
  -22.1655   -4.2112   21.0992 F   0  0  0  0  0  0
  -21.5640   -3.4545   25.7757 F   0  0  0  0  0  0
  -30.0125  -13.3261   20.4201 N   0  0  0  0  0  0
  -26.2956  -12.9299   20.3221 N   0  0  0  0  0  0
  -25.9259  -11.6467   20.5673 N   0  0  0  0  0  0
  -22.0494  -12.8233   22.0452 N   0  0  0  0  0  0
  -25.4349  -15.1883   20.4113 N   0  0  0  0  0  0
  -31.8516  -14.6482   20.1961 O   0  0  0  0  0  0
  -21.6636   -6.8849   21.4234 O   0  0  0  0  0  0
  -22.3518  -14.5551   20.6745 O   0  0  0  0  0  0
  -24.6171  -31.8695   23.2168 C   0  0  0  0  0  0
  -25.9075  -32.4807   23.8436 C   0  0  1  0  0  0
  -27.2058  -27.4173   20.0903 C   0  0  0  0  0  0
  -25.5950  -33.8619   24.2344 N   0  0  0  0  0  0
  -23.3996  -30.5005   21.5593 C   0  0  2  0  0  0
  -24.8373  -28.9684   20.1206 C   0  0  0  0  0  0
  -22.7397  -29.4691   22.5033 C   0  0  0  0  0  0
  -18.0289  -28.1344   22.8500 C   0  0  0  0  0  0
  -24.1492  -36.7295   23.2637 C   0  0  0  0  0  0
  -25.9328  -30.8289   21.3718 C   0  0  0  0  0  0
  -26.0039  -29.4662   20.7117 C   0  0  0  0  0  0
  -27.1926  -28.7010   20.6907 C   0  0  0  0  0  0
  -26.0107  -26.9320   19.5084 C   0  0  0  0  0  0
  -24.8357  -27.7018   19.5204 C   0  0  0  0  0  0
  -23.6077  -29.8439   20.1701 C   0  0  0  0  0  0
  -25.4106  -36.3083   24.0329 C   0  0  1  0  0  0
  -20.5862  -28.3702   23.1364 C   0  0  2  0  0  0
  -20.6792  -26.9453   22.5434 C   0  0  0  0  0  0
  -19.5781  -26.6447   21.5221 C   0  0  0  0  0  0
  -18.1963  -26.7898   22.1652 C   0  0  0  0  0  0
  -19.1514  -28.8843   23.2931 C   0  0  0  0  0  0
  -18.9386  -30.1435   23.8934 C   0  0  0  0  0  0
  -17.6371  -30.6499   24.0607 C   0  0  0  0  0  0
  -25.9039  -34.9451   23.5095 C   0  0  0  0  0  0
  -16.5292  -29.8972   23.6341 C   0  0  0  0  0  0
  -16.7255  -28.6418   23.0302 C   0  0  0  0  0  0
  -26.4503  -31.6598   25.0753 C   0  0  0  0  0  0
  -25.3802  -31.3695   26.1511 C   0  0  0  0  0  0
  -27.0312  -30.3029   24.6147 C   0  0  0  0  0  0
  -27.6050  -32.4331   25.7523 C   0  0  0  0  0  0
  -27.5572  -37.1810   24.8465 C   0  0  0  0  0  0
  -21.4124  -29.3087   22.3795 N   0  0  0  0  0  0
  -26.4277  -37.3770   23.9416 N   0  0  0  0  0  0
  -24.6692  -31.0768   22.1104 N   0  0  0  0  0  0
  -23.4199  -28.8180   23.3010 O   0  0  0  0  0  0
  -28.3849  -26.6949   20.0831 O   0  0  0  0  0  0
  -26.5564  -34.8906   22.4638 O   0  0  0  0  0  0
  -23.5357  -32.1479   23.7550 O   0  0  0  0  0  0
  -28.4132  -16.6633   23.7339 C   0  0  0  0  0  0
  -28.0575  -17.9928   23.4628 C   0  0  0  0  0  0
  -29.1015  -15.9067   22.7782 C   0  0  0  0  0  0
  -28.3840  -18.6195   22.2341 C   0  0  0  0  0  0
  -29.0140  -17.8079   21.2322 C   0  0  0  0  0  0
  -29.3436  -16.4372   21.4960 C   0  0  0  0  0  0
  -27.7077  -21.8740   20.2666 C   0  0  0  0  0  0
  -29.3656  -18.4028   19.8737 C   0  0  0  0  0  0
  -27.1944  -20.7469   23.1795 C   0  0  0  0  0  0
  -28.5564  -22.9775   20.9484 C   0  0  0  0  0  0
  -27.9408  -24.4027   20.9170 C   0  0  0  0  0  0
  -28.3782  -25.2953   19.7346 C   0  0  0  0  0  0
  -28.1272  -20.1576   22.0926 C   0  0  2  0  0  0
  -29.8866  -15.6200   20.4537 N   0  0  0  0  0  0
  -27.6136  -20.6334   20.8001 N   0  0  0  0  0  0
  -27.1132  -22.1463   19.2236 O   0  0  0  0  0  0
  -31.4684  -12.4368   19.1221 H   0  0  0  0  0  0
  -30.3436  -11.3191   19.8446 H   0  0  0  0  0  0
  -29.7470  -11.7380   17.4415 H   0  0  0  0  0  0
  -29.6646  -13.4573   17.7383 H   0  0  0  0  0  0
  -27.8271  -11.2920   18.8168 H   0  0  0  0  0  0
  -27.3685  -12.6093   17.7663 H   0  0  0  0  0  0
  -27.6853  -14.2457   19.5345 H   0  0  0  0  0  0
  -28.6750  -11.9685   21.3209 H   0  0  0  0  0  0
  -28.4098  -13.6011   21.8244 H   0  0  0  0  0  0
  -25.2720   -9.5687   22.4740 H   0  0  0  0  0  0
  -23.9977   -7.4628   22.7458 H   0  0  0  0  0  0
  -21.0810   -8.8745   19.8956 H   0  0  0  0  0  0
  -22.3642  -10.9647   19.6157 H   0  0  0  0  0  0
  -21.1992   -7.6125   23.9691 H   0  0  0  0  0  0
  -21.1502   -6.0530   25.9081 H   0  0  0  0  0  0
  -22.0582   -2.7580   23.2885 H   0  0  0  0  0  0
  -22.4108  -11.9895   22.4842 H   0  0  0  0  0  0
  -21.1098  -13.1227   22.2648 H   0  0  0  0  0  0
  -24.6860  -15.8559   20.5534 H   0  0  0  0  0  0
  -26.3161  -15.6200   20.1632 H   0  0  0  0  0  0
  -26.7119  -32.5513   23.1182 H   0  0  0  0  0  0
  -25.0167  -33.9803   25.0534 H   0  0  0  0  0  0
  -22.6917  -31.3219   21.4289 H   0  0  0  0  0  0
  -23.3728  -35.9653   23.3294 H   0  0  0  0  0  0
  -24.3587  -36.8910   22.2051 H   0  0  0  0  0  0
  -23.7269  -37.6515   23.6653 H   0  0  0  0  0  0
  -26.0524  -31.6022   20.6113 H   0  0  0  0  0  0
  -26.8180  -30.8738   21.9952 H   0  0  0  0  0  0
  -28.0962  -29.0875   21.1452 H   0  0  0  0  0  0
  -25.9467  -25.9657   19.0314 H   0  0  0  0  0  0
  -23.9377  -27.3120   19.0613 H   0  0  0  0  0  0
  -23.7359  -30.6321   19.4267 H   0  0  0  0  0  0
  -22.7258  -29.2825   19.8533 H   0  0  0  0  0  0
  -25.1285  -36.1928   25.0816 H   0  0  0  0  0  0
  -20.9947  -28.3307   24.1492 H   0  0  0  0  0  0
  -20.5737  -26.2325   23.3629 H   0  0  0  0  0  0
  -21.6658  -26.7528   22.1197 H   0  0  0  0  0  0
  -19.7044  -25.6440   21.1094 H   0  0  0  0  0  0
  -19.6647  -27.3375   20.6830 H   0  0  0  0  0  0
  -17.4173  -26.6584   21.4128 H   0  0  0  0  0  0
  -18.0472  -26.0034   22.9059 H   0  0  0  0  0  0
  -19.7832  -30.7282   24.2344 H   0  0  0  0  0  0
  -17.4857  -31.6104   24.5319 H   0  0  0  0  0  0
  -15.5251  -30.2807   23.7636 H   0  0  0  0  0  0
  -15.8671  -28.0765   22.6945 H   0  0  0  0  0  0
  -24.5996  -30.6988   25.7905 H   0  0  0  0  0  0
  -24.8972  -32.2838   26.4969 H   0  0  0  0  0  0
  -25.8213  -30.8920   27.0262 H   0  0  0  0  0  0
  -26.2851  -29.6810   24.1171 H   0  0  0  0  0  0
  -27.4025  -29.7247   25.4617 H   0  0  0  0  0  0
  -27.8732  -30.4301   23.9327 H   0  0  0  0  0  0
  -27.2634  -33.3616   26.2100 H   0  0  0  0  0  0
  -28.3875  -32.6900   25.0378 H   0  0  0  0  0  0
  -28.0691  -31.8462   26.5457 H   0  0  0  0  0  0
  -28.2568  -38.0124   24.7484 H   0  0  0  0  0  0
  -28.1077  -36.2639   24.6299 H   0  0  0  0  0  0
  -27.2286  -37.1476   25.8869 H   0  0  0  0  0  0
  -20.9265  -29.8947   21.7150 H   0  0  0  0  0  0
  -26.0140  -38.2828   24.1450 H   0  0  0  0  0  0
  -28.1682  -16.2248   24.6894 H   0  0  0  0  0  0
  -27.5474  -18.5222   24.2510 H   0  0  0  0  0  0
  -29.4137  -14.9116   23.0496 H   0  0  0  0  0  0
  -28.4871  -18.4023   19.2311 H   0  0  0  0  0  0
  -30.1568  -17.8632   19.3562 H   0  0  0  0  0  0
  -29.7269  -19.4258   19.9693 H   0  0  0  0  0  0
  -26.9782  -21.8034   23.0097 H   0  0  0  0  0  0
  -27.6317  -20.6908   24.1740 H   0  0  0  0  0  0
  -26.2346  -20.2335   23.1876 H   0  0  0  0  0  0
  -29.5497  -22.9968   20.5014 H   0  0  0  0  0  0
  -28.7215  -22.7358   21.9947 H   0  0  0  0  0  0
  -28.2378  -24.9103   21.8351 H   0  0  0  0  0  0
  -26.8518  -24.3417   20.9539 H   0  0  0  0  0  0
  -27.8179  -25.0709   18.8297 H   0  0  0  0  0  0
  -29.4070  -25.0475   19.4815 H   0  0  0  0  0  0
  -29.1161  -20.5958   22.2347 H   0  0  0  0  0  0
  -30.1878  -16.1937   19.6798 H   0  0  0  0  0  0
  -27.0300  -19.9776   20.3022 H   0  0  0  0  0  0
  1 25  1  0  0  0
  1 30  2  0  0  0
  1 84  1  0  0  0
  2  3  1  0  0  0
  2 25  1  0  0  0
  2 87  1  0  0  0
  2 88  1  0  0  0
  3  4  1  0  0  0
  3 89  1  0  0  0
  3 90  1  0  0  0
  4  5  1  0  0  0
  4 91  1  0  0  0
  4 92  1  0  0  0
  5  6  1  0  0  0
  5 26  1  0  0  0
  5 93  1  0  0  0
  6 25  1  0  0  0
  6 94  1  0  0  0
  6 95  1  0  0  0
  7  8  2  0  0  0
  7 26  1  0  0  0
  7 29  1  0  0  0
  8  9  1  0  0  0
  8 22  1  0  0  0
  9 10  1  0  0  0
  9 27  2  0  0  0
 10 11  2  0  0  0
 10 15  1  0  0  0
 11 12  1  0  0  0
 11 96  1  0  0  0
 12 13  2  0  0  0
 12 97  1  0  0  0
 13 14  1  0  0  0
 13 31  1  0  0  0
 14 15  2  0  0  0
 14 98  1  0  0  0
 15 99  1  0  0  0
 16 17  2  0  0  0
 16 21  1  0  0  0
 16 31  1  0  0  0
 17 18  1  0  0  0
 17100  1  0  0  0
 18 19  2  0  0  0
 18101  1  0  0  0
 19 20  1  0  0  0
 19 24  1  0  0  0
 20 21  2  0  0  0
 20102  1  0  0  0
 21 23  1  0  0  0
 22 28  1  0  0  0
 22 32  2  0  0  0
 26 27  1  0  0  0
 28103  1  0  0  0
 28104  1  0  0  0
 29105  1  0  0  0
 29106  1  0  0  0
 33 34  1  0  0  0
 33 66  1  0  0  0
 33 70  2  0  0  0
 34 36  1  0  0  0
 34 59  1  0  0  0
 34107  1  0  0  0
 35 44  2  0  0  0
 35 45  1  0  0  0
 35 68  1  0  0  0
 36 56  1  0  0  0
 36108  1  0  0  0
 37 39  1  0  0  0
 37 47  1  0  0  0
 37 66  1  0  0  0
 37109  1  0  0  0
 38 43  2  0  0  0
 38 46  1  0  0  0
 38 47  1  0  0  0
 39 64  1  0  0  0
 39 67  2  0  0  0
 40 52  1  0  0  0
 40 53  2  0  0  0
 40 58  1  0  0  0
 41110  1  0  0  0
 41111  1  0  0  0
 41112  1  0  0  0
 41 48  1  0  0  0
 42 43  1  0  0  0
 42 66  1  0  0  0
 42113  1  0  0  0
 42114  1  0  0  0
 43 44  1  0  0  0
 44115  1  0  0  0
 45 46  2  0  0  0
 45116  1  0  0  0
 46117  1  0  0  0
 47118  1  0  0  0
 47119  1  0  0  0
 48 56  1  0  0  0
 48 65  1  0  0  0
 48120  1  0  0  0
 49 50  1  0  0  0
 49 53  1  0  0  0
 49 64  1  0  0  0
 49121  1  0  0  0
 50 51  1  0  0  0
 50122  1  0  0  0
 50123  1  0  0  0
 51 52  1  0  0  0
 51124  1  0  0  0
 51125  1  0  0  0
 52126  1  0  0  0
 52127  1  0  0  0
 53 54  1  0  0  0
 54 55  2  0  0  0
 54128  1  0  0  0
 55 57  1  0  0  0
 55129  1  0  0  0
 56 69  2  0  0  0
 57 58  2  0  0  0
 57130  1  0  0  0
 58131  1  0  0  0
 59 60  1  0  0  0
 59 61  1  0  0  0
 59 62  1  0  0  0
 60132  1  0  0  0
 60133  1  0  0  0
 60134  1  0  0  0
 61135  1  0  0  0
 61136  1  0  0  0
 61137  1  0  0  0
 62138  1  0  0  0
 62139  1  0  0  0
 62140  1  0  0  0
 63 65  1  0  0  0
 63141  1  0  0  0
 63142  1  0  0  0
 63143  1  0  0  0
 64144  1  0  0  0
 65145  1  0  0  0
 68 82  1  0  0  0
 71 72  2  0  0  0
 71 73  1  0  0  0
 71146  1  0  0  0
 72 74  1  0  0  0
 72147  1  0  0  0
 73 76  2  0  0  0
 73148  1  0  0  0
 74 75  2  0  0  0
 74 83  1  0  0  0
 75 76  1  0  0  0
 75 78  1  0  0  0
 76 84  1  0  0  0
 77 80  1  0  0  0
 77 85  1  0  0  0
 77 86  2  0  0  0
 78149  1  0  0  0
 78150  1  0  0  0
 78151  1  0  0  0
 79152  1  0  0  0
 79153  1  0  0  0
 79154  1  0  0  0
 79 83  1  0  0  0
 80 81  1  0  0  0
 80155  1  0  0  0
 80156  1  0  0  0
 81 82  1  0  0  0
 81157  1  0  0  0
 81158  1  0  0  0
 82159  1  0  0  0
 82160  1  0  0  0
 83 85  1  0  0  0
 83161  1  0  0  0
 84162  1  0  0  0
 85163  1  0  0  0
M  ISO  4   1 100  68 101  82 101  84 100
M  END
> <chiral flag>
0

> <version>
0

> <s_m_source_file>
/data/baiqing/PycharmProjects/Reinvent-master-3.2/result/LINK_invent/BTK/process_docking_weight1_custom_product_contain_oxygen_bond_distance_aromatic_linkinvent_7_9_3/rearranged_h_0051.sdf

> <i_m_source_file_index>
18

> <r_mmod_Potential_Energy-OPLS-2005>
-69.0950164794922

> <r_mmod_Stretch_Energy-OPLS-2005>
46.5070571899414

> <r_mmod_Bend_Energy-OPLS-2005>
132.268661499023

> <r_mmod_Torsional_Energy-OPLS-2005>
265.590972900391

> <r_mmod_Improper_Torsional_Energy-OPLS-2005>
19.8862190246582

> <r_mmod_Van_der_Waal_Energy-OPLS-2005>
167.842529296875

> <r_mmod_Electrostatic_Energy-OPLS-2005>
-508.470916748047

> <r_mmod_Solvation_Energy-OPLS-2005>
-214.243209838867

> <b_mmod_Minimization_Converged-OPLS-2005>
0

> <r_mmod_RMS_Derivative-OPLS-2005>
4.8639178276062

$$$$
18
                    3D
 Structure written by MMmdl.
160168  0  0  1  0            999 V2000
  -30.7435  -14.3838   20.6649 C   0  0  0  0  0  0
  -30.4213  -12.2892   19.3992 C   0  0  0  0  0  0
  -29.4852  -12.5054   18.1936 C   0  0  0  0  0  0
  -28.0101  -12.3625   18.6130 C   0  0  0  0  0  0
  -27.6645  -13.1964   19.8750 C   0  0  2  0  0  0
  -28.7011  -12.9397   20.9902 C   0  0  0  0  0  0
  -25.2610  -13.8135   20.5675 C   0  0  0  0  0  0
  -24.1845  -13.0430   20.9160 C   0  0  0  0  0  0
  -24.6375  -11.6893   20.8703 C   0  0  0  0  0  0
  -23.9040  -10.4286   21.0381 C   0  0  0  0  0  0
  -24.3598   -9.4207   21.9172 C   0  0  0  0  0  0
  -23.6279   -8.2241   22.0747 C   0  0  0  0  0  0
  -22.4263   -8.0264   21.3538 C   0  0  0  0  0  0
  -21.9893   -9.0236   20.4637 C   0  0  0  0  0  0
  -22.7214  -10.2122   20.3042 C   0  0  0  0  0  0
  -21.6853   -6.0726   22.5275 C   0  0  0  0  0  0
  -21.4006   -6.5633   23.8207 C   0  0  0  0  0  0
  -21.3653   -5.6786   24.9169 C   0  0  0  0  0  0
  -21.6045   -4.3053   24.7221 C   0  0  0  0  0  0
  -21.8821   -3.8142   23.4349 C   0  0  0  0  0  0
  -21.9195   -4.6955   22.3406 C   0  0  0  0  0  0
  -22.7872  -13.5240   21.1831 C   0  0  0  0  0  0
  -22.1666   -4.2141   21.0983 F   0  0  0  0  0  0
  -21.5631   -3.4538   25.7738 F   0  0  0  0  0  0
  -30.0404  -13.2412   20.4532 N   0  0  0  0  0  0
  -26.3032  -12.9290   20.3348 N   0  0  0  0  0  0
  -25.9297  -11.6460   20.5738 N   0  0  0  0  0  0
  -22.0508  -12.8227   22.0379 N   0  0  0  0  0  0
  -25.4388  -15.1850   20.4124 N   0  0  0  0  0  0
  -31.8171  -14.6244   20.1065 O   0  0  0  0  0  0
  -21.6632   -6.8861   21.4240 O   0  0  0  0  0  0
  -22.3564  -14.5556   20.6693 O   0  0  0  0  0  0
  -24.6127  -31.8693   23.2075 C   0  0  0  0  0  0
  -25.9040  -32.4822   23.8367 C   0  0  1  0  0  0
  -27.2400  -27.4547   20.1058 C   0  0  0  0  0  0
  -25.5900  -33.8613   24.2309 N   0  0  0  0  0  0
  -23.3999  -30.4881   21.5484 C   0  0  2  0  0  0
  -24.8502  -28.9550   20.1146 C   0  0  0  0  0  0
  -22.7404  -29.4641   22.5003 C   0  0  0  0  0  0
  -18.0261  -28.1380   22.8452 C   0  0  0  0  0  0
  -24.1488  -36.7300   23.2632 C   0  0  0  0  0  0
  -25.9250  -30.8419   21.3575 C   0  0  0  0  0  0
  -26.0074  -29.4772   20.7073 C   0  0  0  0  0  0
  -27.2079  -28.7363   20.6944 C   0  0  0  0  0  0
  -26.0710  -26.9391   19.5077 C   0  0  0  0  0  0
  -24.8766  -27.6851   19.5099 C   0  0  0  0  0  0
  -23.6086  -29.8150   20.1645 C   0  0  0  0  0  0
  -25.4107  -36.3105   24.0336 C   0  0  1  0  0  0
  -20.5849  -28.3654   23.1338 C   0  0  2  0  0  0
  -20.6764  -26.9392   22.5424 C   0  0  0  0  0  0
  -19.5756  -26.6382   21.5206 C   0  0  0  0  0  0
  -18.1923  -26.7924   22.1594 C   0  0  0  0  0  0
  -19.1509  -28.8831   23.2883 C   0  0  0  0  0  0
  -18.9453  -30.1442   23.8903 C   0  0  0  0  0  0
  -17.6461  -30.6580   24.0562 C   0  0  0  0  0  0
  -25.9041  -34.9475   23.5119 C   0  0  0  0  0  0
  -16.5342  -29.9081   23.6329 C   0  0  0  0  0  0
  -16.7253  -28.6519   23.0316 C   0  0  0  0  0  0
  -26.4460  -31.6594   25.0686 C   0  0  0  0  0  0
  -25.3702  -31.3734   26.1429 C   0  0  0  0  0  0
  -27.0252  -30.3026   24.6021 C   0  0  0  0  0  0
  -27.6034  -32.4314   25.7459 C   0  0  0  0  0  0
  -27.5591  -37.1779   24.8438 C   0  0  0  0  0  0
  -21.4131  -29.3019   22.3764 N   0  0  0  0  0  0
  -26.4281  -37.3798   23.9423 N   0  0  0  0  0  0
  -24.6640  -31.0798   22.0974 N   0  0  0  0  0  0
  -23.4195  -28.8201   23.3044 O   0  0  0  0  0  0
  -28.4036  -26.7252   20.1102 O   0  0  0  0  0  0
  -26.5592  -34.8928   22.4677 O   0  0  0  0  0  0
  -23.5323  -32.1439   23.7487 O   0  0  0  0  0  0
  -29.3187  -18.6184   21.0682 C   0  0  0  0  0  0
  -31.0015  -17.6877   19.5903 C   0  0  0  0  0  0
  -30.3167  -17.6541   20.8177 C   0  0  0  0  0  0
  -28.9919  -19.6058   20.1065 C   0  0  0  0  0  0
  -29.6509  -19.5863   18.8419 C   0  0  0  0  0  0
  -30.6726  -18.6322   18.6070 C   0  0  0  0  0  0
  -28.7709  -22.9626   20.7049 C   0  0  0  0  0  0
  -29.2726  -20.5549   17.7255 C   0  0  0  0  0  0
  -30.6641  -16.5895   21.8528 C   0  0  0  0  0  0
  -27.8959  -20.6158   20.4776 C   0  0  0  0  0  0
  -28.8681  -24.3254   20.0017 C   0  0  0  0  0  0
  -28.3477  -25.4993   20.8541 C   0  0  0  0  0  0
  -28.1181  -21.9962   20.0463 N   0  0  0  0  0  0
  -30.1696  -15.2594   21.5015 N   0  0  0  0  0  0
  -29.2896  -22.7874   21.8096 O   0  0  0  0  0  0
  -31.5513  -18.5796   17.1182 Cl  0  0  0  0  0  0
  -31.4630  -12.3963   19.0912 H   0  0  0  0  0  0
  -30.3308  -11.2692   19.7744 H   0  0  0  0  0  0
  -29.7178  -11.7852   17.4078 H   0  0  0  0  0  0
  -29.6535  -13.4938   17.7634 H   0  0  0  0  0  0
  -27.8246  -11.3051   18.8075 H   0  0  0  0  0  0
  -27.3536  -12.6364   17.7866 H   0  0  0  0  0  0
  -27.7229  -14.2478   19.5934 H   0  0  0  0  0  0
  -28.6683  -11.8919   21.2948 H   0  0  0  0  0  0
  -28.4490  -13.5035   21.8889 H   0  0  0  0  0  0
  -25.2747   -9.5692   22.4745 H   0  0  0  0  0  0
  -23.9994   -7.4633   22.7462 H   0  0  0  0  0  0
  -21.0832   -8.8736   19.8940 H   0  0  0  0  0  0
  -22.3664  -10.9651   19.6144 H   0  0  0  0  0  0
  -21.1988   -7.6139   23.9708 H   0  0  0  0  0  0
  -21.1473   -6.0516   25.9067 H   0  0  0  0  0  0
  -22.0608   -2.7601   23.2849 H   0  0  0  0  0  0
  -22.4132  -11.9883   22.4762 H   0  0  0  0  0  0
  -21.1118  -13.1242   22.2563 H   0  0  0  0  0  0
  -24.6824  -15.8492   20.5283 H   0  0  0  0  0  0
  -26.3059  -15.6202   20.1239 H   0  0  0  0  0  0
  -26.7114  -32.5539   23.1139 H   0  0  0  0  0  0
  -25.0067  -33.9796   25.0459 H   0  0  0  0  0  0
  -22.6840  -31.2996   21.4044 H   0  0  0  0  0  0
  -23.3766  -35.9611   23.3263 H   0  0  0  0  0  0
  -24.3591  -36.8935   22.2048 H   0  0  0  0  0  0
  -23.7212  -37.6480   23.6667 H   0  0  0  0  0  0
  -26.0264  -31.6064   20.5876 H   0  0  0  0  0  0
  -26.8192  -30.9027   21.9670 H   0  0  0  0  0  0
  -28.1079  -29.1339   21.1452 H   0  0  0  0  0  0
  -26.0886  -25.9630   19.0425 H   0  0  0  0  0  0
  -23.9880  -27.2751   19.0510 H   0  0  0  0  0  0
  -23.7058  -30.5864   19.4010 H   0  0  0  0  0  0
  -22.7353  -29.2263   19.8737 H   0  0  0  0  0  0
  -25.1272  -36.1961   25.0821 H   0  0  0  0  0  0
  -20.9907  -28.3240   24.1467 H   0  0  0  0  0  0
  -20.5676  -26.2258   23.3605 H   0  0  0  0  0  0
  -21.6647  -26.7445   22.1210 H   0  0  0  0  0  0
  -19.6934  -25.6294   21.1222 H   0  0  0  0  0  0
  -19.6740  -27.3208   20.6743 H   0  0  0  0  0  0
  -17.4194  -26.6669   21.3985 H   0  0  0  0  0  0
  -18.0312  -26.0064   22.8988 H   0  0  0  0  0  0
  -19.7940  -30.7235   24.2288 H   0  0  0  0  0  0
  -17.5014  -31.6255   24.5165 H   0  0  0  0  0  0
  -15.5349  -30.2984   23.7662 H   0  0  0  0  0  0
  -15.8650  -28.0855   22.7006 H   0  0  0  0  0  0
  -24.5927  -30.7011   25.7792 H   0  0  0  0  0  0
  -24.8827  -32.2895   26.4777 H   0  0  0  0  0  0
  -25.8043  -30.9006   27.0248 H   0  0  0  0  0  0
  -26.2768  -29.6846   24.1037 H   0  0  0  0  0  0
  -27.3986  -29.7209   25.4459 H   0  0  0  0  0  0
  -27.8632  -30.4326   23.9163 H   0  0  0  0  0  0
  -27.2647  -33.3635   26.2003 H   0  0  0  0  0  0
  -28.3877  -32.6835   25.0307 H   0  0  0  0  0  0
  -28.0647  -31.8432   26.5404 H   0  0  0  0  0  0
  -28.2543  -38.0136   24.7580 H   0  0  0  0  0  0
  -28.1158  -36.2674   24.6151 H   0  0  0  0  0  0
  -27.2326  -37.1284   25.8838 H   0  0  0  0  0  0
  -20.9316  -29.8725   21.6961 H   0  0  0  0  0  0
  -26.0171  -38.2863   24.1494 H   0  0  0  0  0  0
  -28.7934  -18.5975   22.0147 H   0  0  0  0  0  0
  -31.7881  -16.9778   19.3840 H   0  0  0  0  0  0
  -28.1982  -20.7275   17.7029 H   0  0  0  0  0  0
  -29.5278  -20.1783   16.7365 H   0  0  0  0  0  0
  -29.7844  -21.5078   17.8621 H   0  0  0  0  0  0
  -30.2423  -16.8683   22.8197 H   0  0  0  0  0  0
  -31.7453  -16.5636   21.9990 H   0  0  0  0  0  0
  -27.7201  -20.6011   21.5556 H   0  0  0  0  0  0
  -26.9639  -20.2716   20.0285 H   0  0  0  0  0  0
  -28.3129  -24.2883   19.0644 H   0  0  0  0  0  0
  -29.9116  -24.4968   19.7345 H   0  0  0  0  0  0
  -28.9736  -25.6222   21.7388 H   0  0  0  0  0  0
  -27.3446  -25.2806   21.2272 H   0  0  0  0  0  0
  -27.7154  -22.2487   19.1549 H   0  0  0  0  0  0
  -29.3055  -14.9695   21.9320 H   0  0  0  0  0  0
  1 25  1  0  0  0
  1 30  2  0  0  0
  1 84  1  0  0  0
  2  3  1  0  0  0
  2 25  1  0  0  0
  2 87  1  0  0  0
  2 88  1  0  0  0
  3  4  1  0  0  0
  3 89  1  0  0  0
  3 90  1  0  0  0
  4  5  1  0  0  0
  4 91  1  0  0  0
  4 92  1  0  0  0
  5  6  1  0  0  0
  5 26  1  0  0  0
  5 93  1  0  0  0
  6 25  1  0  0  0
  6 94  1  0  0  0
  6 95  1  0  0  0
  7  8  2  0  0  0
  7 26  1  0  0  0
  7 29  1  0  0  0
  8  9  1  0  0  0
  8 22  1  0  0  0
  9 10  1  0  0  0
  9 27  2  0  0  0
 10 11  2  0  0  0
 10 15  1  0  0  0
 11 12  1  0  0  0
 11 96  1  0  0  0
 12 13  2  0  0  0
 12 97  1  0  0  0
 13 14  1  0  0  0
 13 31  1  0  0  0
 14 15  2  0  0  0
 14 98  1  0  0  0
 15 99  1  0  0  0
 16 17  2  0  0  0
 16 21  1  0  0  0
 16 31  1  0  0  0
 17 18  1  0  0  0
 17100  1  0  0  0
 18 19  2  0  0  0
 18101  1  0  0  0
 19 20  1  0  0  0
 19 24  1  0  0  0
 20 21  2  0  0  0
 20102  1  0  0  0
 21 23  1  0  0  0
 22 28  1  0  0  0
 22 32  2  0  0  0
 26 27  1  0  0  0
 28103  1  0  0  0
 28104  1  0  0  0
 29105  1  0  0  0
 29106  1  0  0  0
 33 34  1  0  0  0
 33 66  1  0  0  0
 33 70  2  0  0  0
 34 36  1  0  0  0
 34 59  1  0  0  0
 34107  1  0  0  0
 35 44  2  0  0  0
 35 45  1  0  0  0
 35 68  1  0  0  0
 36 56  1  0  0  0
 36108  1  0  0  0
 37 39  1  0  0  0
 37 47  1  0  0  0
 37 66  1  0  0  0
 37109  1  0  0  0
 38 43  2  0  0  0
 38 46  1  0  0  0
 38 47  1  0  0  0
 39 64  1  0  0  0
 39 67  2  0  0  0
 40 52  1  0  0  0
 40 53  2  0  0  0
 40 58  1  0  0  0
 41110  1  0  0  0
 41111  1  0  0  0
 41112  1  0  0  0
 41 48  1  0  0  0
 42 43  1  0  0  0
 42 66  1  0  0  0
 42113  1  0  0  0
 42114  1  0  0  0
 43 44  1  0  0  0
 44115  1  0  0  0
 45 46  2  0  0  0
 45116  1  0  0  0
 46117  1  0  0  0
 47118  1  0  0  0
 47119  1  0  0  0
 48 56  1  0  0  0
 48 65  1  0  0  0
 48120  1  0  0  0
 49 50  1  0  0  0
 49 53  1  0  0  0
 49 64  1  0  0  0
 49121  1  0  0  0
 50 51  1  0  0  0
 50122  1  0  0  0
 50123  1  0  0  0
 51 52  1  0  0  0
 51124  1  0  0  0
 51125  1  0  0  0
 52126  1  0  0  0
 52127  1  0  0  0
 53 54  1  0  0  0
 54 55  2  0  0  0
 54128  1  0  0  0
 55 57  1  0  0  0
 55129  1  0  0  0
 56 69  2  0  0  0
 57 58  2  0  0  0
 57130  1  0  0  0
 58131  1  0  0  0
 59 60  1  0  0  0
 59 61  1  0  0  0
 59 62  1  0  0  0
 60132  1  0  0  0
 60133  1  0  0  0
 60134  1  0  0  0
 61135  1  0  0  0
 61136  1  0  0  0
 61137  1  0  0  0
 62138  1  0  0  0
 62139  1  0  0  0
 62140  1  0  0  0
 63 65  1  0  0  0
 63141  1  0  0  0
 63142  1  0  0  0
 63143  1  0  0  0
 64144  1  0  0  0
 65145  1  0  0  0
 68 82  1  0  0  0
 71 73  2  0  0  0
 71 74  1  0  0  0
 71146  1  0  0  0
 72 73  1  0  0  0
 72 76  2  0  0  0
 72147  1  0  0  0
 73 79  1  0  0  0
 74 75  2  0  0  0
 74 80  1  0  0  0
 75 76  1  0  0  0
 75 78  1  0  0  0
 76 86  1  0  0  0
 77 81  1  0  0  0
 77 83  1  0  0  0
 77 85  2  0  0  0
 78148  1  0  0  0
 78149  1  0  0  0
 78150  1  0  0  0
 79 84  1  0  0  0
 79151  1  0  0  0
 79152  1  0  0  0
 80 83  1  0  0  0
 80153  1  0  0  0
 80154  1  0  0  0
 81 82  1  0  0  0
 81155  1  0  0  0
 81156  1  0  0  0
 82157  1  0  0  0
 82158  1  0  0  0
 83159  1  0  0  0
 84160  1  0  0  0
M  ISO  4   1 100  68 101  82 101  84 100
M  END
> <chiral flag>
0

> <version>
0

> <s_m_source_file>
/data/baiqing/PycharmProjects/Reinvent-master-3.2/result/LINK_invent/BTK/process_docking_weight1_custom_product_contain_oxygen_bond_distance_aromatic_linkinvent_7_9_3/rearranged_h_0051.sdf

> <i_m_source_file_index>
19

> <r_mmod_Potential_Energy-OPLS-2005>
-219.00813293457

> <r_mmod_Stretch_Energy-OPLS-2005>
34.8243217468262

> <r_mmod_Bend_Energy-OPLS-2005>
90.9295196533203

> <r_mmod_Torsional_Energy-OPLS-2005>
211.008483886719

> <r_mmod_Improper_Torsional_Energy-OPLS-2005>
1.76697969436646

> <r_mmod_Van_der_Waal_Energy-OPLS-2005>
155.827117919922

> <r_mmod_Electrostatic_Energy-OPLS-2005>
-481.400177001953

> <r_mmod_Solvation_Energy-OPLS-2005>
-240.383163452148

> <b_mmod_Minimization_Converged-OPLS-2005>
0

> <r_mmod_RMS_Derivative-OPLS-2005>
2.45907735824585

$$$$
19
                    3D
 Structure written by MMmdl.
151159  0  0  1  0            999 V2000
  -30.5832  -14.7890   20.4404 C   0  0  0  0  0  0
  -30.4349  -12.4888   19.4725 C   0  0  0  0  0  0
  -29.5080  -12.5173   18.2364 C   0  0  0  0  0  0
  -28.0374  -12.3308   18.6562 C   0  0  0  0  0  0
  -27.6391  -13.2338   19.8529 C   0  0  2  0  0  0
  -28.6859  -13.1802   20.9858 C   0  0  0  0  0  0
  -25.2464  -13.8174   20.5697 C   0  0  0  0  0  0
  -24.1791  -13.0434   20.9272 C   0  0  0  0  0  0
  -24.6393  -11.6909   20.8784 C   0  0  0  0  0  0
  -23.9077  -10.4291   21.0417 C   0  0  0  0  0  0
  -24.3618   -9.4200   21.9194 C   0  0  0  0  0  0
  -23.6298   -8.2232   22.0748 C   0  0  0  0  0  0
  -22.4278   -8.0283   21.3535 C   0  0  0  0  0  0
  -21.9929   -9.0265   20.4637 C   0  0  0  0  0  0
  -22.7253  -10.2145   20.3060 C   0  0  0  0  0  0
  -21.6851   -6.0733   22.5283 C   0  0  0  0  0  0
  -21.4000   -6.5635   23.8222 C   0  0  0  0  0  0
  -21.3667   -5.6786   24.9189 C   0  0  0  0  0  0
  -21.6053   -4.3052   24.7232 C   0  0  0  0  0  0
  -21.8819   -3.8145   23.4352 C   0  0  0  0  0  0
  -21.9192   -4.6962   22.3410 C   0  0  0  0  0  0
  -22.7809  -13.5212   21.1909 C   0  0  0  0  0  0
  -22.1659   -4.2157   21.0985 F   0  0  0  0  0  0
  -21.5650   -3.4540   25.7743 F   0  0  0  0  0  0
  -29.9768  -13.5520   20.3984 N   0  0  0  0  0  0
  -26.2918  -12.9400   20.3314 N   0  0  0  0  0  0
  -25.9317  -11.6527   20.5760 N   0  0  0  0  0  0
  -22.0428  -12.8236   22.0462 N   0  0  0  0  0  0
  -25.4084  -15.1888   20.3948 N   0  0  0  0  0  0
  -31.7735  -14.8854   20.1273 O   0  0  0  0  0  0
  -21.6641   -6.8884   21.4243 O   0  0  0  0  0  0
  -22.3517  -14.5515   20.6729 O   0  0  0  0  0  0
  -24.6285  -31.8589   23.1957 C   0  0  0  0  0  0
  -25.9121  -32.4781   23.8313 C   0  0  1  0  0  0
  -27.2271  -27.2754   20.1370 C   0  0  0  0  0  0
  -25.5927  -33.8583   24.2258 N   0  0  0  0  0  0
  -23.4250  -30.4780   21.5388 C   0  0  2  0  0  0
  -24.8736  -28.9167   20.1208 C   0  0  0  0  0  0
  -22.7490  -29.4605   22.4886 C   0  0  0  0  0  0
  -18.0311  -28.1411   22.8361 C   0  0  0  0  0  0
  -24.1490  -36.7299   23.2637 C   0  0  0  0  0  0
  -25.9667  -30.7789   21.3689 C   0  0  0  0  0  0
  -26.0447  -29.3946   20.7234 C   0  0  0  0  0  0
  -27.2300  -28.5903   20.7131 C   0  0  0  0  0  0
  -26.0338  -26.8543   19.5206 C   0  0  0  0  0  0
  -24.8726  -27.6521   19.5096 C   0  0  0  0  0  0
  -23.6451  -29.8064   20.1593 C   0  0  0  0  0  0
  -25.4118  -36.3092   24.0331 C   0  0  1  0  0  0
  -20.5903  -28.3652   23.1248 C   0  0  2  0  0  0
  -20.6741  -26.9317   22.5509 C   0  0  0  0  0  0
  -19.5843  -26.6278   21.5194 C   0  0  0  0  0  0
  -18.1934  -26.8020   22.1363 C   0  0  0  0  0  0
  -19.1560  -28.8843   23.2852 C   0  0  0  0  0  0
  -18.9464  -30.1415   23.8942 C   0  0  0  0  0  0
  -17.6453  -30.6541   24.0606 C   0  0  0  0  0  0
  -25.9059  -34.9452   23.5094 C   0  0  0  0  0  0
  -16.5365  -29.9072   23.6282 C   0  0  0  0  0  0
  -16.7294  -28.6531   23.0228 C   0  0  0  0  0  0
  -26.4492  -31.6587   25.0691 C   0  0  0  0  0  0
  -25.3696  -31.3693   26.1387 C   0  0  0  0  0  0
  -27.0323  -30.3010   24.6135 C   0  0  0  0  0  0
  -27.6038  -32.4314   25.7492 C   0  0  0  0  0  0
  -27.5582  -37.1805   24.8471 C   0  0  0  0  0  0
  -21.4219  -29.2929   22.3543 N   0  0  0  0  0  0
  -26.4297  -37.3784   23.9413 N   0  0  0  0  0  0
  -24.6924  -31.0556   22.0925 N   0  0  0  0  0  0
  -23.4176  -28.8240   23.3075 O   0  0  0  0  0  0
  -28.3453  -26.4228   20.0631 O   0  0  0  0  0  0
  -26.5632  -34.8929   22.4661 O   0  0  0  0  0  0
  -23.5435  -32.1398   23.7265 O   0  0  0  0  0  0
  -29.4889  -20.0341   20.4008 C   0  0  0  0  0  0
  -27.7894  -18.3215   20.1056 C   0  0  0  0  0  0
  -27.1918  -20.7136   20.0035 C   0  0  0  0  0  0
  -29.1506  -18.6129   20.3310 C   0  0  0  0  0  0
  -28.5233  -21.1220   20.2530 C   0  0  0  0  0  0
  -26.8336  -19.3487   19.9412 C   0  0  0  0  0  0
  -28.1327  -23.7240   20.0923 C   0  0  0  0  0  0
  -30.2056  -17.4081   20.4538 C   0  0  0  0  0  0
  -28.4036  -25.1283   20.8217 C   0  0  0  0  0  0
  -28.8269  -22.5700   20.4540 N   0  0  0  0  0  0
  -29.8056  -15.9289   20.6210 N   0  0  0  0  0  0
  -27.2728  -23.6963   19.2096 O   0  0  0  0  0  0
  -25.1814  -18.9304   19.6633 Cl  0  0  0  0  0  0
  -31.4734  -12.6280   19.1621 H   0  0  0  0  0  0
  -30.4013  -11.5160   19.9666 H   0  0  0  0  0  0
  -29.7966  -11.7362   17.5332 H   0  0  0  0  0  0
  -29.6277  -13.4648   17.7074 H   0  0  0  0  0  0
  -27.9072  -11.2847   18.9316 H   0  0  0  0  0  0
  -27.3737  -12.5094   17.8104 H   0  0  0  0  0  0
  -27.6291  -14.2542   19.4688 H   0  0  0  0  0  0
  -28.7400  -12.1817   21.4204 H   0  0  0  0  0  0
  -28.4198  -13.8547   21.7999 H   0  0  0  0  0  0
  -25.2737   -9.5712   22.4802 H   0  0  0  0  0  0
  -24.0015   -7.4620   22.7454 H   0  0  0  0  0  0
  -21.0876   -8.8791   19.8926 H   0  0  0  0  0  0
  -22.3701  -10.9704   19.6201 H   0  0  0  0  0  0
  -21.1968   -7.6139   23.9738 H   0  0  0  0  0  0
  -21.1488   -6.0510   25.9103 H   0  0  0  0  0  0
  -22.0581   -2.7606   23.2854 H   0  0  0  0  0  0
  -22.4003  -11.9926   22.4946 H   0  0  0  0  0  0
  -21.1004  -13.1236   22.2529 H   0  0  0  0  0  0
  -24.6122  -15.8148   20.4455 H   0  0  0  0  0  0
  -26.2141  -15.6060   19.9539 H   0  0  0  0  0  0
  -26.7190  -32.5445   23.1059 H   0  0  0  0  0  0
  -25.0058  -33.9736   25.0395 H   0  0  0  0  0  0
  -22.7202  -31.2983   21.3904 H   0  0  0  0  0  0
  -23.3761  -35.9623   23.3300 H   0  0  0  0  0  0
  -24.3562  -36.8928   22.2049 H   0  0  0  0  0  0
  -23.7241  -37.6496   23.6665 H   0  0  0  0  0  0
  -26.0891  -31.5372   20.5931 H   0  0  0  0  0  0
  -26.8495  -30.8421   21.9937 H   0  0  0  0  0  0
  -28.1354  -28.9678   21.1682 H   0  0  0  0  0  0
  -26.0001  -25.8895   19.0355 H   0  0  0  0  0  0
  -23.9799  -27.2811   19.0260 H   0  0  0  0  0  0
  -23.7725  -30.5789   19.4006 H   0  0  0  0  0  0
  -22.7676  -29.2397   19.8491 H   0  0  0  0  0  0
  -25.1297  -36.1935   25.0824 H   0  0  0  0  0  0
  -21.0013  -28.3275   24.1368 H   0  0  0  0  0  0
  -20.5377  -26.2307   23.3762 H   0  0  0  0  0  0
  -21.6645  -26.7190   22.1476 H   0  0  0  0  0  0
  -19.6954  -25.6135   21.1330 H   0  0  0  0  0  0
  -19.7001  -27.2966   20.6629 H   0  0  0  0  0  0
  -17.4392  -26.7030   21.3527 H   0  0  0  0  0  0
  -18.0014  -26.0102   22.8617 H   0  0  0  0  0  0
  -19.7918  -30.7220   24.2383 H   0  0  0  0  0  0
  -17.4965  -31.6211   24.5242 H   0  0  0  0  0  0
  -15.5355  -30.2973   23.7518 H   0  0  0  0  0  0
  -15.8718  -28.0889   22.6826 H   0  0  0  0  0  0
  -24.5905  -30.7047   25.7648 H   0  0  0  0  0  0
  -24.8860  -32.2838   26.4818 H   0  0  0  0  0  0
  -25.7999  -30.8826   27.0147 H   0  0  0  0  0  0
  -26.2875  -29.6781   24.1172 H   0  0  0  0  0  0
  -27.4023  -29.7265   25.4634 H   0  0  0  0  0  0
  -27.8747  -30.4293   23.9337 H   0  0  0  0  0  0
  -27.2652  -33.3618   26.2059 H   0  0  0  0  0  0
  -28.3867  -32.6868   25.0344 H   0  0  0  0  0  0
  -28.0677  -31.8433   26.5421 H   0  0  0  0  0  0
  -28.2599  -38.0102   24.7509 H   0  0  0  0  0  0
  -28.1081  -36.2631   24.6311 H   0  0  0  0  0  0
  -27.2288  -37.1462   25.8869 H   0  0  0  0  0  0
  -20.9452  -29.8427   21.6510 H   0  0  0  0  0  0
  -26.0187  -38.2860   24.1414 H   0  0  0  0  0  0
  -30.5217  -20.2949   20.5744 H   0  0  0  0  0  0
  -27.4592  -17.2976   20.0422 H   0  0  0  0  0  0
  -26.3983  -21.4405   19.8844 H   0  0  0  0  0  0
  -30.8165  -17.4656   19.5521 H   0  0  0  0  0  0
  -30.8946  -17.6598   21.2608 H   0  0  0  0  0  0
  -27.7345  -25.1875   21.6837 H   0  0  0  0  0  0
  -29.4073  -25.0673   21.2402 H   0  0  0  0  0  0
  -29.6326  -22.7598   21.0352 H   0  0  0  0  0  0
  -28.8484  -15.7600   20.8879 H   0  0  0  0  0  0
  1 25  1  0  0  0
  1 30  2  0  0  0
  1 81  1  0  0  0
  2  3  1  0  0  0
  2 25  1  0  0  0
  2 84  1  0  0  0
  2 85  1  0  0  0
  3  4  1  0  0  0
  3 86  1  0  0  0
  3 87  1  0  0  0
  4  5  1  0  0  0
  4 88  1  0  0  0
  4 89  1  0  0  0
  5  6  1  0  0  0
  5 26  1  0  0  0
  5 90  1  0  0  0
  6 25  1  0  0  0
  6 91  1  0  0  0
  6 92  1  0  0  0
  7  8  2  0  0  0
  7 26  1  0  0  0
  7 29  1  0  0  0
  8  9  1  0  0  0
  8 22  1  0  0  0
  9 10  1  0  0  0
  9 27  2  0  0  0
 10 11  2  0  0  0
 10 15  1  0  0  0
 11 12  1  0  0  0
 11 93  1  0  0  0
 12 13  2  0  0  0
 12 94  1  0  0  0
 13 14  1  0  0  0
 13 31  1  0  0  0
 14 15  2  0  0  0
 14 95  1  0  0  0
 15 96  1  0  0  0
 16 17  2  0  0  0
 16 21  1  0  0  0
 16 31  1  0  0  0
 17 18  1  0  0  0
 17 97  1  0  0  0
 18 19  2  0  0  0
 18 98  1  0  0  0
 19 20  1  0  0  0
 19 24  1  0  0  0
 20 21  2  0  0  0
 20 99  1  0  0  0
 21 23  1  0  0  0
 22 28  1  0  0  0
 22 32  2  0  0  0
 26 27  1  0  0  0
 28100  1  0  0  0
 28101  1  0  0  0
 29102  1  0  0  0
 29103  1  0  0  0
 33 34  1  0  0  0
 33 66  1  0  0  0
 33 70  2  0  0  0
 34 36  1  0  0  0
 34 59  1  0  0  0
 34104  1  0  0  0
 35 44  2  0  0  0
 35 45  1  0  0  0
 35 68  1  0  0  0
 36 56  1  0  0  0
 36105  1  0  0  0
 37 39  1  0  0  0
 37 47  1  0  0  0
 37 66  1  0  0  0
 37106  1  0  0  0
 38 43  2  0  0  0
 38 46  1  0  0  0
 38 47  1  0  0  0
 39 64  1  0  0  0
 39 67  2  0  0  0
 40 52  1  0  0  0
 40 53  2  0  0  0
 40 58  1  0  0  0
 41107  1  0  0  0
 41108  1  0  0  0
 41109  1  0  0  0
 41 48  1  0  0  0
 42 43  1  0  0  0
 42 66  1  0  0  0
 42110  1  0  0  0
 42111  1  0  0  0
 43 44  1  0  0  0
 44112  1  0  0  0
 45 46  2  0  0  0
 45113  1  0  0  0
 46114  1  0  0  0
 47115  1  0  0  0
 47116  1  0  0  0
 48 56  1  0  0  0
 48 65  1  0  0  0
 48117  1  0  0  0
 49 50  1  0  0  0
 49 53  1  0  0  0
 49 64  1  0  0  0
 49118  1  0  0  0
 50 51  1  0  0  0
 50119  1  0  0  0
 50120  1  0  0  0
 51 52  1  0  0  0
 51121  1  0  0  0
 51122  1  0  0  0
 52123  1  0  0  0
 52124  1  0  0  0
 53 54  1  0  0  0
 54 55  2  0  0  0
 54125  1  0  0  0
 55 57  1  0  0  0
 55126  1  0  0  0
 56 69  2  0  0  0
 57 58  2  0  0  0
 57127  1  0  0  0
 58128  1  0  0  0
 59 60  1  0  0  0
 59 61  1  0  0  0
 59 62  1  0  0  0
 60129  1  0  0  0
 60130  1  0  0  0
 60131  1  0  0  0
 61132  1  0  0  0
 61133  1  0  0  0
 61134  1  0  0  0
 62135  1  0  0  0
 62136  1  0  0  0
 62137  1  0  0  0
 63 65  1  0  0  0
 63138  1  0  0  0
 63139  1  0  0  0
 63140  1  0  0  0
 64141  1  0  0  0
 65142  1  0  0  0
 68 79  1  0  0  0
 71 74  2  0  0  0
 71 75  1  0  0  0
 71143  1  0  0  0
 72 74  1  0  0  0
 72 76  2  0  0  0
 72144  1  0  0  0
 73 75  2  0  0  0
 73 76  1  0  0  0
 73145  1  0  0  0
 74 78  1  0  0  0
 75 80  1  0  0  0
 76 83  1  0  0  0
 77 79  1  0  0  0
 77 80  1  0  0  0
 77 82  2  0  0  0
 78 81  1  0  0  0
 78146  1  0  0  0
 78147  1  0  0  0
 79148  1  0  0  0
 79149  1  0  0  0
 80150  1  0  0  0
 81151  1  0  0  0
M  ISO  4   1 100  68 101  79 101  81 100
M  END
> <chiral flag>
0

> <version>
0

> <s_m_source_file>
/data/baiqing/PycharmProjects/Reinvent-master-3.2/result/LINK_invent/BTK/process_docking_weight1_custom_product_contain_oxygen_bond_distance_aromatic_linkinvent_7_9_3/rearranged_h_0051.sdf

> <i_m_source_file_index>
20

> <r_mmod_Potential_Energy-OPLS-2005>
106.162216186523

> <r_mmod_Stretch_Energy-OPLS-2005>
128.796264648438

> <r_mmod_Bend_Energy-OPLS-2005>
165.916732788086

> <r_mmod_Torsional_Energy-OPLS-2005>
240.835540771484

> <r_mmod_Improper_Torsional_Energy-OPLS-2005>
6.15863800048828

> <r_mmod_Van_der_Waal_Energy-OPLS-2005>
126.079849243164

> <r_mmod_Electrostatic_Energy-OPLS-2005>
-412.999450683594

> <r_mmod_Solvation_Energy-OPLS-2005>
-237.06787109375

> <b_mmod_Minimization_Converged-OPLS-2005>
0

> <r_mmod_RMS_Derivative-OPLS-2005>
4.58924674987793

$$$$
20
                    3D
 Structure written by MMmdl.
163171  0  0  1  0            999 V2000
  -30.6750  -14.4609   20.5767 C   0  0  0  0  0  0
  -30.4308  -12.3009   19.4154 C   0  0  0  0  0  0
  -29.4963  -12.5009   18.2023 C   0  0  0  0  0  0
  -28.0147  -12.3669   18.6116 C   0  0  0  0  0  0
  -27.6632  -13.1962   19.8755 C   0  0  2  0  0  0
  -28.7026  -12.9516   20.9929 C   0  0  0  0  0  0
  -25.2601  -13.8143   20.5655 C   0  0  0  0  0  0
  -24.1836  -13.0436   20.9161 C   0  0  0  0  0  0
  -24.6369  -11.6904   20.8711 C   0  0  0  0  0  0
  -23.9028  -10.4295   21.0394 C   0  0  0  0  0  0
  -24.3593   -9.4219   21.9170 C   0  0  0  0  0  0
  -23.6282   -8.2245   22.0746 C   0  0  0  0  0  0
  -22.4254   -8.0279   21.3548 C   0  0  0  0  0  0
  -21.9881   -9.0250   20.4646 C   0  0  0  0  0  0
  -22.7199  -10.2137   20.3051 C   0  0  0  0  0  0
  -21.6856   -6.0729   22.5278 C   0  0  0  0  0  0
  -21.4015   -6.5633   23.8211 C   0  0  0  0  0  0
  -21.3655   -5.6789   24.9170 C   0  0  0  0  0  0
  -21.6042   -4.3052   24.7229 C   0  0  0  0  0  0
  -21.8819   -3.8141   23.4350 C   0  0  0  0  0  0
  -21.9192   -4.6954   22.3403 C   0  0  0  0  0  0
  -22.7877  -13.5264   21.1836 C   0  0  0  0  0  0
  -22.1660   -4.2138   21.0983 F   0  0  0  0  0  0
  -21.5632   -3.4535   25.7742 F   0  0  0  0  0  0
  -30.0359  -13.2682   20.4475 N   0  0  0  0  0  0
  -26.3017  -12.9279   20.3338 N   0  0  0  0  0  0
  -25.9287  -11.6456   20.5741 N   0  0  0  0  0  0
  -22.0505  -12.8270   22.0399 N   0  0  0  0  0  0
  -25.4369  -15.1854   20.4058 N   0  0  0  0  0  0
  -31.7881  -14.6954   20.0966 O   0  0  0  0  0  0
  -21.6636   -6.8869   21.4235 O   0  0  0  0  0  0
  -22.3575  -14.5574   20.6687 O   0  0  0  0  0  0
  -24.6178  -31.8661   23.2114 C   0  0  0  0  0  0
  -25.9068  -32.4805   23.8407 C   0  0  1  0  0  0
  -27.2305  -27.4086   20.0908 C   0  0  0  0  0  0
  -25.5916  -33.8613   24.2321 N   0  0  0  0  0  0
  -23.4058  -30.4918   21.5502 C   0  0  2  0  0  0
  -24.8505  -28.9604   20.1116 C   0  0  0  0  0  0
  -22.7417  -29.4663   22.4985 C   0  0  0  0  0  0
  -18.0277  -28.1369   22.8494 C   0  0  0  0  0  0
  -24.1497  -36.7321   23.2632 C   0  0  0  0  0  0
  -25.9393  -30.8203   21.3742 C   0  0  0  0  0  0
  -26.0122  -29.4556   20.7158 C   0  0  0  0  0  0
  -27.2022  -28.6859   20.7058 C   0  0  0  0  0  0
  -26.0492  -26.9511   19.4577 C   0  0  0  0  0  0
  -24.8657  -27.7080   19.4808 C   0  0  0  0  0  0
  -23.6148  -29.8284   20.1638 C   0  0  0  0  0  0
  -25.4115  -36.3112   24.0334 C   0  0  1  0  0  0
  -20.5862  -28.3678   23.1301 C   0  0  2  0  0  0
  -20.6765  -26.9416   22.5391 C   0  0  0  0  0  0
  -19.5735  -26.6402   21.5189 C   0  0  0  0  0  0
  -18.1919  -26.7924   22.1604 C   0  0  0  0  0  0
  -19.1519  -28.8838   23.2895 C   0  0  0  0  0  0
  -18.9442  -30.1439   23.8916 C   0  0  0  0  0  0
  -17.6443  -30.6571   24.0571 C   0  0  0  0  0  0
  -25.9045  -34.9468   23.5127 C   0  0  0  0  0  0
  -16.5340  -29.9069   23.6330 C   0  0  0  0  0  0
  -16.7260  -28.6481   23.0357 C   0  0  0  0  0  0
  -26.4494  -31.6608   25.0754 C   0  0  0  0  0  0
  -25.3756  -31.3751   26.1507 C   0  0  0  0  0  0
  -27.0324  -30.3031   24.6190 C   0  0  0  0  0  0
  -27.6070  -32.4345   25.7493 C   0  0  0  0  0  0
  -27.5582  -37.1816   24.8459 C   0  0  0  0  0  0
  -21.4141  -29.3064   22.3727 N   0  0  0  0  0  0
  -26.4296  -37.3797   23.9407 N   0  0  0  0  0  0
  -24.6712  -31.0757   22.1017 N   0  0  0  0  0  0
  -23.4184  -28.8180   23.3010 O   0  0  0  0  0  0
  -28.3953  -26.6538   20.1349 O   0  0  0  0  0  0
  -26.5610  -34.8910   22.4688 O   0  0  0  0  0  0
  -23.5363  -32.1419   23.7500 O   0  0  0  0  0  0
  -28.5251  -19.6276   24.1886 C   0  0  0  0  0  0
  -28.8744  -20.0926   22.9130 C   0  0  0  0  0  0
  -28.6893  -18.2719   24.4975 C   0  0  0  0  0  0
  -29.3812  -19.2155   21.9266 C   0  0  0  0  0  0
  -29.5802  -17.8304   22.2408 C   0  0  0  0  0  0
  -29.2160  -17.3781   23.5491 C   0  0  0  0  0  0
  -28.4089  -21.9605   19.9111 C   0  0  0  0  0  0
  -27.3867  -19.7653   19.6137 C   0  0  0  0  0  0
  -29.6630  -19.8203   20.5415 C   0  0  0  0  0  0
  -30.1682  -16.8726   21.1772 C   0  0  0  0  0  0
  -29.5936  -22.9025   20.2427 C   0  0  0  0  0  0
  -29.2888  -24.3796   20.6807 C   0  0  0  0  0  0
  -28.3324  -25.2431   19.8153 C   0  0  0  0  0  0
  -29.9259  -15.4233   21.1377 N   0  0  0  0  0  0
  -28.5227  -20.6049   20.0179 N   0  0  0  0  0  0
  -27.3597  -22.4642   19.5012 O   0  0  0  0  0  0
  -29.3930  -15.7359   24.0684 Cl  0  0  0  0  0  0
  -31.4716  -12.4208   19.1104 H   0  0  0  0  0  0
  -30.3499  -11.2856   19.8074 H   0  0  0  0  0  0
  -29.7355  -11.7771   17.4222 H   0  0  0  0  0  0
  -29.6641  -13.4855   17.7627 H   0  0  0  0  0  0
  -27.8142  -11.3109   18.7971 H   0  0  0  0  0  0
  -27.3707  -12.6559   17.7806 H   0  0  0  0  0  0
  -27.7146  -14.2463   19.5881 H   0  0  0  0  0  0
  -28.6773  -11.9071   21.3091 H   0  0  0  0  0  0
  -28.4553  -13.5265   21.8863 H   0  0  0  0  0  0
  -25.2742   -9.5709   22.4737 H   0  0  0  0  0  0
  -24.0000   -7.4642   22.7467 H   0  0  0  0  0  0
  -21.0815   -8.8764   19.8966 H   0  0  0  0  0  0
  -22.3645  -10.9671   19.6166 H   0  0  0  0  0  0
  -21.2009   -7.6142   23.9712 H   0  0  0  0  0  0
  -21.1473   -6.0518   25.9075 H   0  0  0  0  0  0
  -22.0599   -2.7600   23.2857 H   0  0  0  0  0  0
  -22.4106  -11.9946   22.4820 H   0  0  0  0  0  0
  -21.1129  -13.1329   22.2583 H   0  0  0  0  0  0
  -24.6759  -15.8472   20.5130 H   0  0  0  0  0  0
  -26.2917  -15.6160   20.0772 H   0  0  0  0  0  0
  -26.7133  -32.5485   23.1157 H   0  0  0  0  0  0
  -25.0074  -33.9785   25.0470 H   0  0  0  0  0  0
  -22.6948  -31.3101   21.4144 H   0  0  0  0  0  0
  -23.3751  -35.9666   23.3310 H   0  0  0  0  0  0
  -24.3596  -36.8923   22.2046 H   0  0  0  0  0  0
  -23.7253  -37.6535   23.6630 H   0  0  0  0  0  0
  -26.0678  -31.5912   20.6134 H   0  0  0  0  0  0
  -26.8202  -30.8600   22.0033 H   0  0  0  0  0  0
  -28.0950  -29.0591   21.1881 H   0  0  0  0  0  0
  -26.0103  -26.0123   18.9259 H   0  0  0  0  0  0
  -23.9765  -27.3284   18.9965 H   0  0  0  0  0  0
  -22.7377  -29.2496   19.8688 H   0  0  0  0  0  0
  -23.7236  -30.6019   19.4034 H   0  0  0  0  0  0
  -25.1292  -36.1984   25.0827 H   0  0  0  0  0  0
  -20.9937  -28.3226   24.1426 H   0  0  0  0  0  0
  -20.5683  -26.2282   23.3574 H   0  0  0  0  0  0
  -21.6627  -26.7476   22.1167 H   0  0  0  0  0  0
  -19.6907  -25.6334   21.1163 H   0  0  0  0  0  0
  -19.6638  -27.3247   20.6740 H   0  0  0  0  0  0
  -17.4191  -26.6723   21.3993 H   0  0  0  0  0  0
  -18.0294  -26.0036   22.8961 H   0  0  0  0  0  0
  -19.7916  -30.7259   24.2288 H   0  0  0  0  0  0
  -17.4991  -31.6246   24.5183 H   0  0  0  0  0  0
  -15.5336  -30.2971   23.7640 H   0  0  0  0  0  0
  -15.8670  -28.0799   22.7063 H   0  0  0  0  0  0
  -24.5942  -30.7068   25.7872 H   0  0  0  0  0  0
  -24.8943  -32.2920   26.4906 H   0  0  0  0  0  0
  -25.8121  -30.8969   27.0288 H   0  0  0  0  0  0
  -26.2884  -29.6785   24.1231 H   0  0  0  0  0  0
  -27.4038  -29.7284   25.4695 H   0  0  0  0  0  0
  -27.8757  -30.4327   23.9402 H   0  0  0  0  0  0
  -27.2689  -33.3641   26.2085 H   0  0  0  0  0  0
  -28.3852  -32.6918   25.0292 H   0  0  0  0  0  0
  -28.0776  -31.8472   26.5384 H   0  0  0  0  0  0
  -28.2602  -38.0109   24.7498 H   0  0  0  0  0  0
  -28.1064  -36.2638   24.6283 H   0  0  0  0  0  0
  -27.2309  -37.1484   25.8864 H   0  0  0  0  0  0
  -20.9310  -29.8820   21.6975 H   0  0  0  0  0  0
  -26.0187  -38.2881   24.1388 H   0  0  0  0  0  0
  -28.1270  -20.3070   24.9290 H   0  0  0  0  0  0
  -28.7333  -21.1424   22.6926 H   0  0  0  0  0  0
  -28.4126  -17.9094   25.4766 H   0  0  0  0  0  0
  -27.1867  -19.8871   18.5482 H   0  0  0  0  0  0
  -26.4840  -20.0404   20.1632 H   0  0  0  0  0  0
  -27.5613  -18.7038   19.7932 H   0  0  0  0  0  0
  -29.8835  -19.0414   19.8106 H   0  0  0  0  0  0
  -30.5813  -20.4028   20.5952 H   0  0  0  0  0  0
  -29.0972  -16.7754   20.9919 H   0  0  0  0  0  0
  -30.8833  -16.6104   21.9596 H   0  0  0  0  0  0
  -30.2354  -22.9154   19.3609 H   0  0  0  0  0  0
  -30.1858  -22.4588   21.0418 H   0  0  0  0  0  0
  -28.9130  -24.3689   21.7046 H   0  0  0  0  0  0
  -30.2469  -24.8967   20.7298 H   0  0  0  0  0  0
  -27.3383  -24.8469   20.0017 H   0  0  0  0  0  0
  -28.5550  -25.1158   18.7554 H   0  0  0  0  0  0
  -29.0396  -15.1173   21.5103 H   0  0  0  0  0  0
  1 25  1  0  0  0
  1 30  2  0  0  0
  1 84  1  0  0  0
  2  3  1  0  0  0
  2 25  1  0  0  0
  2 88  1  0  0  0
  2 89  1  0  0  0
  3  4  1  0  0  0
  3 90  1  0  0  0
  3 91  1  0  0  0
  4  5  1  0  0  0
  4 92  1  0  0  0
  4 93  1  0  0  0
  5  6  1  0  0  0
  5 26  1  0  0  0
  5 94  1  0  0  0
  6 25  1  0  0  0
  6 95  1  0  0  0
  6 96  1  0  0  0
  7  8  2  0  0  0
  7 26  1  0  0  0
  7 29  1  0  0  0
  8  9  1  0  0  0
  8 22  1  0  0  0
  9 10  1  0  0  0
  9 27  2  0  0  0
 10 11  2  0  0  0
 10 15  1  0  0  0
 11 12  1  0  0  0
 11 97  1  0  0  0
 12 13  2  0  0  0
 12 98  1  0  0  0
 13 14  1  0  0  0
 13 31  1  0  0  0
 14 15  2  0  0  0
 14 99  1  0  0  0
 15100  1  0  0  0
 16 17  2  0  0  0
 16 21  1  0  0  0
 16 31  1  0  0  0
 17 18  1  0  0  0
 17101  1  0  0  0
 18 19  2  0  0  0
 18102  1  0  0  0
 19 20  1  0  0  0
 19 24  1  0  0  0
 20 21  2  0  0  0
 20103  1  0  0  0
 21 23  1  0  0  0
 22 28  1  0  0  0
 22 32  2  0  0  0
 26 27  1  0  0  0
 28104  1  0  0  0
 28105  1  0  0  0
 29106  1  0  0  0
 29107  1  0  0  0
 33 34  1  0  0  0
 33 66  1  0  0  0
 33 70  2  0  0  0
 34 36  1  0  0  0
 34 59  1  0  0  0
 34108  1  0  0  0
 35 44  2  0  0  0
 35 45  1  0  0  0
 35 68  1  0  0  0
 36 56  1  0  0  0
 36109  1  0  0  0
 37 39  1  0  0  0
 37 47  1  0  0  0
 37 66  1  0  0  0
 37110  1  0  0  0
 38 43  2  0  0  0
 38 46  1  0  0  0
 38 47  1  0  0  0
 39 64  1  0  0  0
 39 67  2  0  0  0
 40 52  1  0  0  0
 40 53  2  0  0  0
 40 58  1  0  0  0
 41111  1  0  0  0
 41112  1  0  0  0
 41113  1  0  0  0
 41 48  1  0  0  0
 42 43  1  0  0  0
 42 66  1  0  0  0
 42114  1  0  0  0
 42115  1  0  0  0
 43 44  1  0  0  0
 44116  1  0  0  0
 45 46  2  0  0  0
 45117  1  0  0  0
 46118  1  0  0  0
 47119  1  0  0  0
 47120  1  0  0  0
 48 56  1  0  0  0
 48 65  1  0  0  0
 48121  1  0  0  0
 49 50  1  0  0  0
 49 53  1  0  0  0
 49 64  1  0  0  0
 49122  1  0  0  0
 50 51  1  0  0  0
 50123  1  0  0  0
 50124  1  0  0  0
 51 52  1  0  0  0
 51125  1  0  0  0
 51126  1  0  0  0
 52127  1  0  0  0
 52128  1  0  0  0
 53 54  1  0  0  0
 54 55  2  0  0  0
 54129  1  0  0  0
 55 57  1  0  0  0
 55130  1  0  0  0
 56 69  2  0  0  0
 57 58  2  0  0  0
 57131  1  0  0  0
 58132  1  0  0  0
 59 60  1  0  0  0
 59 61  1  0  0  0
 59 62  1  0  0  0
 60133  1  0  0  0
 60134  1  0  0  0
 60135  1  0  0  0
 61136  1  0  0  0
 61137  1  0  0  0
 61138  1  0  0  0
 62139  1  0  0  0
 62140  1  0  0  0
 62141  1  0  0  0
 63 65  1  0  0  0
 63142  1  0  0  0
 63143  1  0  0  0
 63144  1  0  0  0
 64145  1  0  0  0
 65146  1  0  0  0
 68 83  1  0  0  0
 71 72  2  0  0  0
 71 73  1  0  0  0
 71147  1  0  0  0
 72 74  1  0  0  0
 72148  1  0  0  0
 73 76  2  0  0  0
 73149  1  0  0  0
 74 75  2  0  0  0
 74 79  1  0  0  0
 75 76  1  0  0  0
 75 80  1  0  0  0
 76 87  1  0  0  0
 77 81  1  0  0  0
 77 85  1  0  0  0
 77 86  2  0  0  0
 78 85  1  0  0  0
 78150  1  0  0  0
 78151  1  0  0  0
 78152  1  0  0  0
 79 85  1  0  0  0
 79153  1  0  0  0
 79154  1  0  0  0
 80 84  1  0  0  0
 80155  1  0  0  0
 80156  1  0  0  0
 81 82  1  0  0  0
 81157  1  0  0  0
 81158  1  0  0  0
 82 83  1  0  0  0
 82159  1  0  0  0
 82160  1  0  0  0
 83161  1  0  0  0
 83162  1  0  0  0
 84163  1  0  0  0
M  ISO  4   1 100  68 101  83 101  84 100
M  END
> <chiral flag>
0

> <version>
0

> <s_m_source_file>
/data/baiqing/PycharmProjects/Reinvent-master-3.2/result/LINK_invent/BTK/process_docking_weight1_custom_product_contain_oxygen_bond_distance_aromatic_linkinvent_7_9_3/rearranged_h_0051.sdf

> <i_m_source_file_index>
21

> <r_mmod_Potential_Energy-OPLS-2005>
116.059310913086

> <r_mmod_Stretch_Energy-OPLS-2005>
48.4174346923828

> <r_mmod_Bend_Energy-OPLS-2005>
322.087341308594

> <r_mmod_Torsional_Energy-OPLS-2005>
199.052749633789

> <r_mmod_Improper_Torsional_Energy-OPLS-2005>
3.78472924232483

> <r_mmod_Van_der_Waal_Energy-OPLS-2005>
175.147796630859

> <r_mmod_Electrostatic_Energy-OPLS-2005>
-423.370208740234

> <r_mmod_Solvation_Energy-OPLS-2005>
-223.868896484375

> <b_mmod_Minimization_Converged-OPLS-2005>
0

> <r_mmod_RMS_Derivative-OPLS-2005>
2.08378195762634

$$$$
21
                    3D
 Structure written by MMmdl.
157165  0  0  1  0            999 V2000
  -30.6164  -14.6263   20.4918 C   0  0  0  0  0  0
  -30.4395  -12.3772   19.4430 C   0  0  0  0  0  0
  -29.5061  -12.5038   18.2184 C   0  0  0  0  0  0
  -28.0268  -12.3523   18.6298 C   0  0  0  0  0  0
  -27.6568  -13.2123   19.8676 C   0  0  2  0  0  0
  -28.7045  -13.0463   20.9921 C   0  0  0  0  0  0
  -25.2578  -13.8165   20.5678 C   0  0  0  0  0  0
  -24.1833  -13.0445   20.9177 C   0  0  0  0  0  0
  -24.6396  -11.6911   20.8739 C   0  0  0  0  0  0
  -23.9061  -10.4294   21.0405 C   0  0  0  0  0  0
  -24.3613   -9.4211   21.9185 C   0  0  0  0  0  0
  -23.6289   -8.2242   22.0754 C   0  0  0  0  0  0
  -22.4272   -8.0277   21.3546 C   0  0  0  0  0  0
  -21.9907   -9.0249   20.4646 C   0  0  0  0  0  0
  -22.7230  -10.2132   20.3056 C   0  0  0  0  0  0
  -21.6854   -6.0737   22.5277 C   0  0  0  0  0  0
  -21.4010   -6.5643   23.8208 C   0  0  0  0  0  0
  -21.3663   -5.6797   24.9173 C   0  0  0  0  0  0
  -21.6043   -4.3058   24.7226 C   0  0  0  0  0  0
  -21.8819   -3.8148   23.4346 C   0  0  0  0  0  0
  -21.9193   -4.6965   22.3402 C   0  0  0  0  0  0
  -22.7854  -13.5235   21.1848 C   0  0  0  0  0  0
  -22.1661   -4.2150   21.0978 F   0  0  0  0  0  0
  -21.5638   -3.4539   25.7738 F   0  0  0  0  0  0
  -30.0206  -13.3927   20.4289 N   0  0  0  0  0  0
  -26.3006  -12.9335   20.3343 N   0  0  0  0  0  0
  -25.9327  -11.6493   20.5768 N   0  0  0  0  0  0
  -22.0504  -12.8219   22.0405 N   0  0  0  0  0  0
  -25.4316  -15.1876   20.4091 N   0  0  0  0  0  0
  -31.7671  -14.8095   20.0824 O   0  0  0  0  0  0
  -21.6641   -6.8873   21.4237 O   0  0  0  0  0  0
  -22.3539  -14.5550   20.6716 O   0  0  0  0  0  0
  -24.6282  -31.8589   23.2021 C   0  0  0  0  0  0
  -25.9120  -32.4775   23.8357 C   0  0  1  0  0  0
  -27.2260  -27.3107   20.1109 C   0  0  0  0  0  0
  -25.5931  -33.8574   24.2287 N   0  0  0  0  0  0
  -23.4232  -30.4840   21.5445 C   0  0  2  0  0  0
  -24.8694  -28.9407   20.1078 C   0  0  0  0  0  0
  -22.7504  -29.4621   22.4930 C   0  0  0  0  0  0
  -18.0296  -28.1399   22.8501 C   0  0  0  0  0  0
  -24.1490  -36.7277   23.2642 C   0  0  0  0  0  0
  -25.9661  -30.7866   21.3765 C   0  0  0  0  0  0
  -26.0387  -29.4144   20.7154 C   0  0  0  0  0  0
  -27.2201  -28.6115   20.7077 C   0  0  0  0  0  0
  -26.0313  -26.8968   19.4754 C   0  0  0  0  0  0
  -24.8674  -27.6861   19.4807 C   0  0  0  0  0  0
  -23.6380  -29.8209   20.1588 C   0  0  0  0  0  0
  -25.4110  -36.3074   24.0335 C   0  0  1  0  0  0
  -20.5899  -28.3689   23.1288 C   0  0  2  0  0  0
  -20.6788  -26.9409   22.5414 C   0  0  0  0  0  0
  -19.5752  -26.6381   21.5231 C   0  0  0  0  0  0
  -18.1933  -26.7943   22.1631 C   0  0  0  0  0  0
  -19.1554  -28.8858   23.2892 C   0  0  0  0  0  0
  -18.9471  -30.1471   23.8885 C   0  0  0  0  0  0
  -17.6471  -30.6591   24.0573 C   0  0  0  0  0  0
  -25.9048  -34.9446   23.5105 C   0  0  0  0  0  0
  -16.5363  -29.9096   23.6332 C   0  0  0  0  0  0
  -16.7281  -28.6518   23.0343 C   0  0  0  0  0  0
  -26.4492  -31.6595   25.0731 C   0  0  0  0  0  0
  -25.3717  -31.3763   26.1456 C   0  0  0  0  0  0
  -27.0323  -30.3005   24.6197 C   0  0  0  0  0  0
  -27.6054  -32.4332   25.7490 C   0  0  0  0  0  0
  -27.5585  -37.1787   24.8463 C   0  0  0  0  0  0
  -21.4214  -29.3043   22.3673 N   0  0  0  0  0  0
  -26.4288  -37.3769   23.9422 N   0  0  0  0  0  0
  -24.6919  -31.0608   22.0970 N   0  0  0  0  0  0
  -23.4230  -28.8163   23.3012 O   0  0  0  0  0  0
  -28.3387  -26.4508   20.1725 O   0  0  0  0  0  0
  -26.5608  -34.8921   22.4666 O   0  0  0  0  0  0
  -23.5443  -32.1381   23.7336 O   0  0  0  0  0  0
  -30.6360  -19.2822   19.8938 C   0  0  0  0  0  0
  -30.6815  -17.8543   19.9187 C   0  0  0  0  0  0
  -28.9832  -17.8664   21.6125 C   0  0  0  0  0  0
  -29.7953  -20.0534   20.7503 C   0  0  0  0  0  0
  -28.9472  -19.2969   21.6193 C   0  0  0  0  0  0
  -29.8601  -17.1045   20.7999 C   0  0  0  0  0  0
  -29.2248  -24.0040   20.4343 C   0  0  0  0  0  0
  -28.8157  -20.2050   23.9776 C   0  0  0  0  0  0
  -30.0179  -21.6148   20.8645 C   0  0  0  0  0  0
  -28.1221  -25.0025   19.9038 C   0  0  0  0  0  0
  -28.0562  -19.9663   22.6666 C   0  0  0  0  0  0
  -29.8034  -15.6460   20.9047 N   0  0  0  0  0  0
  -29.0535  -22.6416   20.3393 N   0  0  0  0  0  0
  -30.2489  -24.4699   20.9408 O   0  0  0  0  0  0
  -27.0194  -19.1765   22.9484 F   0  0  0  0  0  0
  -27.5505  -21.1151   22.2252 F   0  0  0  0  0  0
  -31.4802  -12.5004   19.1397 H   0  0  0  0  0  0
  -30.3730  -11.3779   19.8743 H   0  0  0  0  0  0
  -29.7606  -11.7539   17.4680 H   0  0  0  0  0  0
  -29.6552  -13.4741   17.7424 H   0  0  0  0  0  0
  -27.8512  -11.2982   18.8465 H   0  0  0  0  0  0
  -27.3747  -12.5995   17.7911 H   0  0  0  0  0  0
  -27.6811  -14.2518   19.5393 H   0  0  0  0  0  0
  -28.7122  -12.0186   21.3579 H   0  0  0  0  0  0
  -28.4533  -13.6623   21.8569 H   0  0  0  0  0  0
  -25.2764   -9.5692   22.4757 H   0  0  0  0  0  0
  -24.0009   -7.4634   22.7473 H   0  0  0  0  0  0
  -21.0844   -8.8759   19.8946 H   0  0  0  0  0  0
  -22.3686  -10.9670   19.6161 H   0  0  0  0  0  0
  -21.1995   -7.6150   23.9710 H   0  0  0  0  0  0
  -21.1489   -6.0530   25.9077 H   0  0  0  0  0  0
  -22.0596   -2.7608   23.2844 H   0  0  0  0  0  0
  -22.4116  -11.9858   22.4758 H   0  0  0  0  0  0
  -21.1132  -13.1248   22.2646 H   0  0  0  0  0  0
  -24.6687  -15.8465   20.5206 H   0  0  0  0  0  0
  -26.2835  -15.6241   20.0811 H   0  0  0  0  0  0
  -26.7186  -32.5424   23.1115 H   0  0  0  0  0  0
  -25.0108  -33.9717   25.0450 H   0  0  0  0  0  0
  -22.7178  -31.3051   21.4029 H   0  0  0  0  0  0
  -23.3765  -35.9590   23.3272 H   0  0  0  0  0  0
  -24.3600  -36.8904   22.2062 H   0  0  0  0  0  0
  -23.7228  -37.6465   23.6670 H   0  0  0  0  0  0
  -26.1061  -31.5522   20.6124 H   0  0  0  0  0  0
  -26.8450  -30.8292   22.0081 H   0  0  0  0  0  0
  -28.1178  -28.9701   21.1897 H   0  0  0  0  0  0
  -25.9601  -25.9438   18.9745 H   0  0  0  0  0  0
  -23.9723  -27.3167   19.0015 H   0  0  0  0  0  0
  -23.7605  -30.5992   19.4050 H   0  0  0  0  0  0
  -22.7577  -29.2528   19.8542 H   0  0  0  0  0  0
  -25.1300  -36.1904   25.0826 H   0  0  0  0  0  0
  -21.0004  -28.3242   24.1403 H   0  0  0  0  0  0
  -20.5701  -26.2293   23.3608 H   0  0  0  0  0  0
  -21.6653  -26.7438   22.1194 H   0  0  0  0  0  0
  -19.6904  -25.6294   21.1250 H   0  0  0  0  0  0
  -19.6691  -27.3199   20.6771 H   0  0  0  0  0  0
  -17.4217  -26.6704   21.4022 H   0  0  0  0  0  0
  -18.0303  -26.0102   22.9027 H   0  0  0  0  0  0
  -19.7946  -30.7311   24.2225 H   0  0  0  0  0  0
  -17.5017  -31.6263   24.5186 H   0  0  0  0  0  0
  -15.5361  -30.2988   23.7672 H   0  0  0  0  0  0
  -15.8684  -28.0845   22.7037 H   0  0  0  0  0  0
  -24.5866  -30.7150   25.7787 H   0  0  0  0  0  0
  -24.8960  -32.2953   26.4884 H   0  0  0  0  0  0
  -25.8022  -30.8928   27.0230 H   0  0  0  0  0  0
  -26.2895  -29.6768   24.1211 H   0  0  0  0  0  0
  -27.4004  -29.7259   25.4707 H   0  0  0  0  0  0
  -27.8778  -30.4296   23.9436 H   0  0  0  0  0  0
  -27.2674  -33.3663   26.2016 H   0  0  0  0  0  0
  -28.3880  -32.6823   25.0313 H   0  0  0  0  0  0
  -28.0690  -31.8480   26.5445 H   0  0  0  0  0  0
  -28.2572  -38.0120   24.7553 H   0  0  0  0  0  0
  -28.1116  -36.2649   24.6223 H   0  0  0  0  0  0
  -27.2318  -37.1346   25.8872 H   0  0  0  0  0  0
  -20.9377  -29.8775   21.6898 H   0  0  0  0  0  0
  -26.0156  -38.2828   24.1452 H   0  0  0  0  0  0
  -31.3167  -19.7986   19.2323 H   0  0  0  0  0  0
  -31.3647  -17.3440   19.2548 H   0  0  0  0  0  0
  -28.3415  -17.3299   22.2961 H   0  0  0  0  0  0
  -29.2053  -19.2664   24.3729 H   0  0  0  0  0  0
  -28.1660  -20.6404   24.7353 H   0  0  0  0  0  0
  -29.6633  -20.8752   23.8458 H   0  0  0  0  0  0
  -30.9929  -21.8351   20.4246 H   0  0  0  0  0  0
  -30.1509  -21.8369   21.9224 H   0  0  0  0  0  0
  -27.1831  -24.6720   20.3496 H   0  0  0  0  0  0
  -28.0393  -24.8586   18.8260 H   0  0  0  0  0  0
  -28.9492  -15.2965   21.3106 H   0  0  0  0  0  0
  -28.1987  -22.2979   19.9222 H   0  0  0  0  0  0
  1 25  1  0  0  0
  1 30  2  0  0  0
  1 82  1  0  0  0
  2  3  1  0  0  0
  2 25  1  0  0  0
  2 87  1  0  0  0
  2 88  1  0  0  0
  3  4  1  0  0  0
  3 89  1  0  0  0
  3 90  1  0  0  0
  4  5  1  0  0  0
  4 91  1  0  0  0
  4 92  1  0  0  0
  5  6  1  0  0  0
  5 26  1  0  0  0
  5 93  1  0  0  0
  6 25  1  0  0  0
  6 94  1  0  0  0
  6 95  1  0  0  0
  7  8  2  0  0  0
  7 26  1  0  0  0
  7 29  1  0  0  0
  8  9  1  0  0  0
  8 22  1  0  0  0
  9 10  1  0  0  0
  9 27  2  0  0  0
 10 11  2  0  0  0
 10 15  1  0  0  0
 11 12  1  0  0  0
 11 96  1  0  0  0
 12 13  2  0  0  0
 12 97  1  0  0  0
 13 14  1  0  0  0
 13 31  1  0  0  0
 14 15  2  0  0  0
 14 98  1  0  0  0
 15 99  1  0  0  0
 16 17  2  0  0  0
 16 21  1  0  0  0
 16 31  1  0  0  0
 17 18  1  0  0  0
 17100  1  0  0  0
 18 19  2  0  0  0
 18101  1  0  0  0
 19 20  1  0  0  0
 19 24  1  0  0  0
 20 21  2  0  0  0
 20102  1  0  0  0
 21 23  1  0  0  0
 22 28  1  0  0  0
 22 32  2  0  0  0
 26 27  1  0  0  0
 28103  1  0  0  0
 28104  1  0  0  0
 29105  1  0  0  0
 29106  1  0  0  0
 33 34  1  0  0  0
 33 66  1  0  0  0
 33 70  2  0  0  0
 34 36  1  0  0  0
 34 59  1  0  0  0
 34107  1  0  0  0
 35 44  2  0  0  0
 35 45  1  0  0  0
 35 68  1  0  0  0
 36 56  1  0  0  0
 36108  1  0  0  0
 37 39  1  0  0  0
 37 47  1  0  0  0
 37 66  1  0  0  0
 37109  1  0  0  0
 38 43  2  0  0  0
 38 46  1  0  0  0
 38 47  1  0  0  0
 39 64  1  0  0  0
 39 67  2  0  0  0
 40 52  1  0  0  0
 40 53  2  0  0  0
 40 58  1  0  0  0
 41110  1  0  0  0
 41111  1  0  0  0
 41112  1  0  0  0
 41 48  1  0  0  0
 42 43  1  0  0  0
 42 66  1  0  0  0
 42113  1  0  0  0
 42114  1  0  0  0
 43 44  1  0  0  0
 44115  1  0  0  0
 45 46  2  0  0  0
 45116  1  0  0  0
 46117  1  0  0  0
 47118  1  0  0  0
 47119  1  0  0  0
 48 56  1  0  0  0
 48 65  1  0  0  0
 48120  1  0  0  0
 49 50  1  0  0  0
 49 53  1  0  0  0
 49 64  1  0  0  0
 49121  1  0  0  0
 50 51  1  0  0  0
 50122  1  0  0  0
 50123  1  0  0  0
 51 52  1  0  0  0
 51124  1  0  0  0
 51125  1  0  0  0
 52126  1  0  0  0
 52127  1  0  0  0
 53 54  1  0  0  0
 54 55  2  0  0  0
 54128  1  0  0  0
 55 57  1  0  0  0
 55129  1  0  0  0
 56 69  2  0  0  0
 57 58  2  0  0  0
 57130  1  0  0  0
 58131  1  0  0  0
 59 60  1  0  0  0
 59 61  1  0  0  0
 59 62  1  0  0  0
 60132  1  0  0  0
 60133  1  0  0  0
 60134  1  0  0  0
 61135  1  0  0  0
 61136  1  0  0  0
 61137  1  0  0  0
 62138  1  0  0  0
 62139  1  0  0  0
 62140  1  0  0  0
 63 65  1  0  0  0
 63141  1  0  0  0
 63142  1  0  0  0
 63143  1  0  0  0
 64144  1  0  0  0
 65145  1  0  0  0
 68 80  1  0  0  0
 71 72  2  0  0  0
 71 74  1  0  0  0
 71146  1  0  0  0
 72 76  1  0  0  0
 72147  1  0  0  0
 73 75  1  0  0  0
 73 76  2  0  0  0
 73148  1  0  0  0
 74 75  2  0  0  0
 74 79  1  0  0  0
 75 81  1  0  0  0
 76 82  1  0  0  0
 77 80  1  0  0  0
 77 83  1  0  0  0
 77 84  2  0  0  0
 78149  1  0  0  0
 78150  1  0  0  0
 78151  1  0  0  0
 78 81  1  0  0  0
 79 83  1  0  0  0
 79152  1  0  0  0
 79153  1  0  0  0
 80154  1  0  0  0
 80155  1  0  0  0
 81 85  1  0  0  0
 81 86  1  0  0  0
 82156  1  0  0  0
 83157  1  0  0  0
M  ISO  4   1 100  68 101  80 101  82 100
M  END
> <chiral flag>
0

> <version>
0

> <s_m_source_file>
/data/baiqing/PycharmProjects/Reinvent-master-3.2/result/LINK_invent/BTK/process_docking_weight1_custom_product_contain_oxygen_bond_distance_aromatic_linkinvent_7_9_3/rearranged_h_0051.sdf

> <i_m_source_file_index>
22

> <r_mmod_Potential_Energy-OPLS-2005>
-27.9956741333008

> <r_mmod_Stretch_Energy-OPLS-2005>
81.9717254638672

> <r_mmod_Bend_Energy-OPLS-2005>
144.119979858398

> <r_mmod_Torsional_Energy-OPLS-2005>
218.114151000977

> <r_mmod_Improper_Torsional_Energy-OPLS-2005>
4.9656457901001

> <r_mmod_Van_der_Waal_Energy-OPLS-2005>
149.663711547852

> <r_mmod_Electrostatic_Energy-OPLS-2005>
-437.915222167969

> <r_mmod_Solvation_Energy-OPLS-2005>
-237.662719726562

> <b_mmod_Minimization_Converged-OPLS-2005>
0

> <r_mmod_RMS_Derivative-OPLS-2005>
2.40177178382874

$$$$
22
                    3D
 Structure written by MMmdl.
154162  0  0  1  0            999 V2000
  -30.6676  -14.5677   20.5233 C   0  0  0  0  0  0
  -30.4272  -12.3659   19.4370 C   0  0  0  0  0  0
  -29.4952  -12.5183   18.2144 C   0  0  0  0  0  0
  -28.0202  -12.3585   18.6315 C   0  0  0  0  0  0
  -27.6541  -13.2174   19.8707 C   0  0  2  0  0  0
  -28.7004  -13.0607   20.9996 C   0  0  0  0  0  0
  -25.2545  -13.8176   20.5690 C   0  0  0  0  0  0
  -24.1818  -13.0438   20.9193 C   0  0  0  0  0  0
  -24.6400  -11.6916   20.8746 C   0  0  0  0  0  0
  -23.9080  -10.4284   21.0400 C   0  0  0  0  0  0
  -24.3624   -9.4212   21.9193 C   0  0  0  0  0  0
  -23.6304   -8.2243   22.0760 C   0  0  0  0  0  0
  -22.4278   -8.0293   21.3556 C   0  0  0  0  0  0
  -21.9921   -9.0262   20.4648 C   0  0  0  0  0  0
  -22.7243  -10.2143   20.3065 C   0  0  0  0  0  0
  -21.6866   -6.0740   22.5272 C   0  0  0  0  0  0
  -21.4006   -6.5642   23.8204 C   0  0  0  0  0  0
  -21.3658   -5.6795   24.9167 C   0  0  0  0  0  0
  -21.6054   -4.3057   24.7216 C   0  0  0  0  0  0
  -21.8826   -3.8154   23.4338 C   0  0  0  0  0  0
  -21.9189   -4.6967   22.3393 C   0  0  0  0  0  0
  -22.7845  -13.5240   21.1848 C   0  0  0  0  0  0
  -22.1661   -4.2159   21.0973 F   0  0  0  0  0  0
  -21.5635   -3.4545   25.7728 F   0  0  0  0  0  0
  -30.0215  -13.3713   20.4337 N   0  0  0  0  0  0
  -26.2995  -12.9356   20.3374 N   0  0  0  0  0  0
  -25.9319  -11.6509   20.5782 N   0  0  0  0  0  0
  -22.0484  -12.8234   22.0406 N   0  0  0  0  0  0
  -25.4201  -15.1895   20.4074 N   0  0  0  0  0  0
  -31.8241  -14.7242   20.1222 O   0  0  0  0  0  0
  -21.6660   -6.8884   21.4238 O   0  0  0  0  0  0
  -22.3519  -14.5553   20.6716 O   0  0  0  0  0  0
  -24.6169  -31.8646   23.2077 C   0  0  0  0  0  0
  -25.9055  -32.4797   23.8389 C   0  0  1  0  0  0
  -27.2138  -27.3794   20.0889 C   0  0  0  0  0  0
  -25.5914  -33.8612   24.2318 N   0  0  0  0  0  0
  -23.4090  -30.4899   21.5456 C   0  0  2  0  0  0
  -24.8494  -28.9555   20.1069 C   0  0  0  0  0  0
  -22.7414  -29.4657   22.4922 C   0  0  0  0  0  0
  -18.0264  -28.1358   22.8543 C   0  0  0  0  0  0
  -24.1497  -36.7316   23.2642 C   0  0  0  0  0  0
  -25.9434  -30.8070   21.3758 C   0  0  0  0  0  0
  -26.0114  -29.4395   20.7195 C   0  0  0  0  0  0
  -27.1920  -28.6525   20.7190 C   0  0  0  0  0  0
  -26.0353  -26.9370   19.4466 C   0  0  0  0  0  0
  -24.8579  -27.7036   19.4726 C   0  0  0  0  0  0
  -23.6175  -29.8304   20.1586 C   0  0  0  0  0  0
  -25.4117  -36.3107   24.0334 C   0  0  1  0  0  0
  -20.5835  -28.3775   23.1312 C   0  0  2  0  0  0
  -20.6709  -26.9461   22.5546 C   0  0  0  0  0  0
  -19.5763  -26.6501   21.5246 C   0  0  0  0  0  0
  -18.1991  -26.7876   22.1763 C   0  0  0  0  0  0
  -19.1483  -28.8897   23.2892 C   0  0  0  0  0  0
  -18.9364  -30.1500   23.8867 C   0  0  0  0  0  0
  -17.6357  -30.6624   24.0481 C   0  0  0  0  0  0
  -25.9040  -34.9458   23.5121 C   0  0  0  0  0  0
  -16.5282  -29.9064   23.6288 C   0  0  0  0  0  0
  -16.7246  -28.6437   23.0392 C   0  0  0  0  0  0
  -26.4487  -31.6611   25.0735 C   0  0  0  0  0  0
  -25.3757  -31.3709   26.1482 C   0  0  0  0  0  0
  -27.0318  -30.3043   24.6152 C   0  0  0  0  0  0
  -27.6052  -32.4350   25.7522 C   0  0  0  0  0  0
  -27.5583  -37.1814   24.8460 C   0  0  0  0  0  0
  -21.4141  -29.3057   22.3646 N   0  0  0  0  0  0
  -26.4297  -37.3789   23.9398 N   0  0  0  0  0  0
  -24.6739  -31.0705   22.1001 N   0  0  0  0  0  0
  -23.4145  -28.8200   23.2998 O   0  0  0  0  0  0
  -28.3640  -26.6035   20.1577 O   0  0  0  0  0  0
  -26.5595  -34.8915   22.4680 O   0  0  0  0  0  0
  -23.5349  -32.1445   23.7410 O   0  0  0  0  0  0
  -28.2728  -17.9537   21.9335 C   0  0  0  0  0  0
  -27.3343  -18.9547   22.2385 C   0  0  0  0  0  0
  -29.1826  -19.3766   20.1779 C   0  0  0  0  0  0
  -29.2165  -18.1445   20.9017 C   0  0  0  0  0  0
  -28.2058  -20.3876   20.4494 C   0  0  0  0  0  0
  -27.2905  -20.1584   21.5090 C   0  0  0  0  0  0
  -27.9046  -24.0804   19.9467 C   0  0  0  0  0  0
  -30.2738  -17.0527   20.5996 C   0  0  0  0  0  0
  -28.0120  -21.5944   19.4954 C   0  0  0  0  0  0
  -28.5297  -25.3924   19.3639 C   0  0  0  0  0  0
  -28.6002  -22.9210   19.8156 N   0  0  0  0  0  0
  -29.9070  -15.6354   20.8589 N   0  0  0  0  0  0
  -26.7609  -24.0928   20.4015 O   0  0  0  0  0  0
  -26.0509  -21.2935   21.9076 Cl  0  0  0  0  0  0
  -31.4658  -12.4867   19.1259 H   0  0  0  0  0  0
  -30.3582  -11.3670   19.8653 H   0  0  0  0  0  0
  -29.7526  -11.7800   17.4540 H   0  0  0  0  0  0
  -29.6410  -13.4949   17.7500 H   0  0  0  0  0  0
  -27.8530  -11.3035   18.8469 H   0  0  0  0  0  0
  -27.3639  -12.6087   17.7966 H   0  0  0  0  0  0
  -27.6751  -14.2561   19.5425 H   0  0  0  0  0  0
  -28.6992  -12.0471   21.4003 H   0  0  0  0  0  0
  -28.4552  -13.7118   21.8395 H   0  0  0  0  0  0
  -25.2767   -9.5718   22.4763 H   0  0  0  0  0  0
  -24.0035   -7.4638   22.7474 H   0  0  0  0  0  0
  -21.0862   -8.8776   19.8941 H   0  0  0  0  0  0
  -22.3699  -10.9689   19.6183 H   0  0  0  0  0  0
  -21.1991   -7.6154   23.9706 H   0  0  0  0  0  0
  -21.1477   -6.0532   25.9073 H   0  0  0  0  0  0
  -22.0602   -2.7623   23.2833 H   0  0  0  0  0  0
  -22.4117  -11.9934   22.4839 H   0  0  0  0  0  0
  -21.1065  -13.1203   22.2528 H   0  0  0  0  0  0
  -24.6487  -15.8379   20.5235 H   0  0  0  0  0  0
  -26.2686  -15.6371   20.0860 H   0  0  0  0  0  0
  -26.7097  -32.5474   23.1124 H   0  0  0  0  0  0
  -25.0097  -33.9808   25.0486 H   0  0  0  0  0  0
  -22.6995  -31.3085   21.4050 H   0  0  0  0  0  0
  -23.3752  -35.9661   23.3320 H   0  0  0  0  0  0
  -24.3580  -36.8919   22.2051 H   0  0  0  0  0  0
  -23.7259  -37.6527   23.6654 H   0  0  0  0  0  0
  -26.0720  -31.5720   20.6096 H   0  0  0  0  0  0
  -26.8257  -30.8525   22.0020 H   0  0  0  0  0  0
  -28.0837  -29.0091   21.2187 H   0  0  0  0  0  0
  -25.9867  -25.9877   18.9378 H   0  0  0  0  0  0
  -23.9650  -27.3282   18.9933 H   0  0  0  0  0  0
  -23.7415  -30.6071   19.4013 H   0  0  0  0  0  0
  -22.7391  -29.2593   19.8498 H   0  0  0  0  0  0
  -25.1299  -36.1982   25.0826 H   0  0  0  0  0  0
  -20.9886  -28.3443   24.1439 H   0  0  0  0  0  0
  -20.5341  -26.2409   23.3755 H   0  0  0  0  0  0
  -21.6625  -26.7323   22.1566 H   0  0  0  0  0  0
  -19.6969  -25.6447   21.1220 H   0  0  0  0  0  0
  -19.6708  -27.3415   20.6861 H   0  0  0  0  0  0
  -17.4182  -26.6358   21.4308 H   0  0  0  0  0  0
  -18.0614  -26.0072   22.9275 H   0  0  0  0  0  0
  -19.7794  -30.7358   24.2222 H   0  0  0  0  0  0
  -17.4867  -31.6341   24.4993 H   0  0  0  0  0  0
  -15.5281  -30.2944   23.7534 H   0  0  0  0  0  0
  -15.8677  -28.0691   22.7130 H   0  0  0  0  0  0
  -24.5938  -30.7061   25.7806 H   0  0  0  0  0  0
  -24.8960  -32.2853   26.4973 H   0  0  0  0  0  0
  -25.8127  -30.8845   27.0213 H   0  0  0  0  0  0
  -26.2858  -29.6813   24.1208 H   0  0  0  0  0  0
  -27.4044  -29.7288   25.4638 H   0  0  0  0  0  0
  -27.8731  -30.4337   23.9346 H   0  0  0  0  0  0
  -27.2658  -33.3635   26.2136 H   0  0  0  0  0  0
  -28.3870  -32.6941   25.0370 H   0  0  0  0  0  0
  -28.0731  -31.8461   26.5424 H   0  0  0  0  0  0
  -28.2600  -38.0106   24.7489 H   0  0  0  0  0  0
  -28.1072  -36.2628   24.6321 H   0  0  0  0  0  0
  -27.2281  -37.1509   25.8857 H   0  0  0  0  0  0
  -20.9367  -29.8622   21.6712 H   0  0  0  0  0  0
  -26.0187  -38.2872   24.1391 H   0  0  0  0  0  0
  -28.2622  -17.0386   22.5059 H   0  0  0  0  0  0
  -26.6101  -18.7840   23.0241 H   0  0  0  0  0  0
  -29.8814  -19.5253   19.3653 H   0  0  0  0  0  0
  -31.1719  -17.2962   21.1716 H   0  0  0  0  0  0
  -30.5580  -17.1354   19.5499 H   0  0  0  0  0  0
  -26.9442  -21.6992   19.2935 H   0  0  0  0  0  0
  -28.4296  -21.3050   18.5295 H   0  0  0  0  0  0
  -28.1636  -25.5502   18.3475 H   0  0  0  0  0  0
  -29.6030  -25.2388   19.2587 H   0  0  0  0  0  0
  -29.5635  -23.0252   19.5329 H   0  0  0  0  0  0
  -28.9620  -15.4444   21.1451 H   0  0  0  0  0  0
  1 25  1  0  0  0
  1 30  2  0  0  0
  1 82  1  0  0  0
  2  3  1  0  0  0
  2 25  1  0  0  0
  2 85  1  0  0  0
  2 86  1  0  0  0
  3  4  1  0  0  0
  3 87  1  0  0  0
  3 88  1  0  0  0
  4  5  1  0  0  0
  4 89  1  0  0  0
  4 90  1  0  0  0
  5  6  1  0  0  0
  5 26  1  0  0  0
  5 91  1  0  0  0
  6 25  1  0  0  0
  6 92  1  0  0  0
  6 93  1  0  0  0
  7  8  2  0  0  0
  7 26  1  0  0  0
  7 29  1  0  0  0
  8  9  1  0  0  0
  8 22  1  0  0  0
  9 10  1  0  0  0
  9 27  2  0  0  0
 10 11  2  0  0  0
 10 15  1  0  0  0
 11 12  1  0  0  0
 11 94  1  0  0  0
 12 13  2  0  0  0
 12 95  1  0  0  0
 13 14  1  0  0  0
 13 31  1  0  0  0
 14 15  2  0  0  0
 14 96  1  0  0  0
 15 97  1  0  0  0
 16 17  2  0  0  0
 16 21  1  0  0  0
 16 31  1  0  0  0
 17 18  1  0  0  0
 17 98  1  0  0  0
 18 19  2  0  0  0
 18 99  1  0  0  0
 19 20  1  0  0  0
 19 24  1  0  0  0
 20 21  2  0  0  0
 20100  1  0  0  0
 21 23  1  0  0  0
 22 28  1  0  0  0
 22 32  2  0  0  0
 26 27  1  0  0  0
 28101  1  0  0  0
 28102  1  0  0  0
 29103  1  0  0  0
 29104  1  0  0  0
 33 34  1  0  0  0
 33 66  1  0  0  0
 33 70  2  0  0  0
 34 36  1  0  0  0
 34 59  1  0  0  0
 34105  1  0  0  0
 35 44  2  0  0  0
 35 45  1  0  0  0
 35 68  1  0  0  0
 36 56  1  0  0  0
 36106  1  0  0  0
 37 39  1  0  0  0
 37 47  1  0  0  0
 37 66  1  0  0  0
 37107  1  0  0  0
 38 43  2  0  0  0
 38 46  1  0  0  0
 38 47  1  0  0  0
 39 64  1  0  0  0
 39 67  2  0  0  0
 40 52  1  0  0  0
 40 53  2  0  0  0
 40 58  1  0  0  0
 41108  1  0  0  0
 41109  1  0  0  0
 41110  1  0  0  0
 41 48  1  0  0  0
 42 43  1  0  0  0
 42 66  1  0  0  0
 42111  1  0  0  0
 42112  1  0  0  0
 43 44  1  0  0  0
 44113  1  0  0  0
 45 46  2  0  0  0
 45114  1  0  0  0
 46115  1  0  0  0
 47116  1  0  0  0
 47117  1  0  0  0
 48 56  1  0  0  0
 48 65  1  0  0  0
 48118  1  0  0  0
 49 50  1  0  0  0
 49 53  1  0  0  0
 49 64  1  0  0  0
 49119  1  0  0  0
 50 51  1  0  0  0
 50120  1  0  0  0
 50121  1  0  0  0
 51 52  1  0  0  0
 51122  1  0  0  0
 51123  1  0  0  0
 52124  1  0  0  0
 52125  1  0  0  0
 53 54  1  0  0  0
 54 55  2  0  0  0
 54126  1  0  0  0
 55 57  1  0  0  0
 55127  1  0  0  0
 56 69  2  0  0  0
 57 58  2  0  0  0
 57128  1  0  0  0
 58129  1  0  0  0
 59 60  1  0  0  0
 59 61  1  0  0  0
 59 62  1  0  0  0
 60130  1  0  0  0
 60131  1  0  0  0
 60132  1  0  0  0
 61133  1  0  0  0
 61134  1  0  0  0
 61135  1  0  0  0
 62136  1  0  0  0
 62137  1  0  0  0
 62138  1  0  0  0
 63 65  1  0  0  0
 63139  1  0  0  0
 63140  1  0  0  0
 63141  1  0  0  0
 64142  1  0  0  0
 65143  1  0  0  0
 68 80  1  0  0  0
 71 72  2  0  0  0
 71 74  1  0  0  0
 71144  1  0  0  0
 72 76  1  0  0  0
 72145  1  0  0  0
 73 74  2  0  0  0
 73 75  1  0  0  0
 73146  1  0  0  0
 74 78  1  0  0  0
 75 76  2  0  0  0
 75 79  1  0  0  0
 76 84  1  0  0  0
 77 80  1  0  0  0
 77 81  1  0  0  0
 77 83  2  0  0  0
 78 82  1  0  0  0
 78147  1  0  0  0
 78148  1  0  0  0
 79 81  1  0  0  0
 79149  1  0  0  0
 79150  1  0  0  0
 80151  1  0  0  0
 80152  1  0  0  0
 81153  1  0  0  0
 82154  1  0  0  0
M  ISO  4   1 100  68 101  80 101  82 100
M  END
> <chiral flag>
0

> <version>
0

> <s_m_source_file>
/data/baiqing/PycharmProjects/Reinvent-master-3.2/result/LINK_invent/BTK/process_docking_weight1_custom_product_contain_oxygen_bond_distance_aromatic_linkinvent_7_9_3/rearranged_h_0051.sdf

> <i_m_source_file_index>
23

> <r_mmod_Potential_Energy-OPLS-2005>
-105.054550170898

> <r_mmod_Stretch_Energy-OPLS-2005>
51.7291030883789

> <r_mmod_Bend_Energy-OPLS-2005>
118.696029663086

> <r_mmod_Torsional_Energy-OPLS-2005>
214.512969970703

> <r_mmod_Improper_Torsional_Energy-OPLS-2005>
9.23788833618164

> <r_mmod_Van_der_Waal_Energy-OPLS-2005>
143.873733520508

> <r_mmod_Electrostatic_Energy-OPLS-2005>
-422.4013671875

> <r_mmod_Solvation_Energy-OPLS-2005>
-249.790374755859

> <b_mmod_Minimization_Converged-OPLS-2005>
0

> <r_mmod_RMS_Derivative-OPLS-2005>
4.19771003723145

$$$$
23
                    3D
 Structure written by MMmdl.
174183  0  0  1  0            999 V2000
  -30.8156  -14.2668   20.7792 C   0  0  0  0  0  0
  -30.4181  -12.2899   19.3584 C   0  0  0  0  0  0
  -29.4726  -12.5390   18.1725 C   0  0  0  0  0  0
  -28.0024  -12.3799   18.5997 C   0  0  0  0  0  0
  -27.6663  -13.1961   19.8725 C   0  0  2  0  0  0
  -28.7013  -12.9184   20.9815 C   0  0  0  0  0  0
  -25.2622  -13.8151   20.5660 C   0  0  0  0  0  0
  -24.1857  -13.0446   20.9162 C   0  0  0  0  0  0
  -24.6390  -11.6905   20.8721 C   0  0  0  0  0  0
  -23.9053  -10.4292   21.0403 C   0  0  0  0  0  0
  -24.3610   -9.4210   21.9183 C   0  0  0  0  0  0
  -23.6288   -8.2246   22.0757 C   0  0  0  0  0  0
  -22.4272   -8.0283   21.3546 C   0  0  0  0  0  0
  -21.9901   -9.0255   20.4649 C   0  0  0  0  0  0
  -22.7226  -10.2135   20.3054 C   0  0  0  0  0  0
  -21.6850   -6.0733   22.5279 C   0  0  0  0  0  0
  -21.4008   -6.5637   23.8212 C   0  0  0  0  0  0
  -21.3659   -5.6791   24.9177 C   0  0  0  0  0  0
  -21.6046   -4.3053   24.7226 C   0  0  0  0  0  0
  -21.8821   -3.8146   23.4347 C   0  0  0  0  0  0
  -21.9191   -4.6960   22.3402 C   0  0  0  0  0  0
  -22.7881  -13.5251   21.1836 C   0  0  0  0  0  0
  -22.1662   -4.2148   21.0979 F   0  0  0  0  0  0
  -21.5631   -3.4538   25.7738 F   0  0  0  0  0  0
  -30.0546  -13.1956   20.4541 N   0  0  0  0  0  0
  -26.3042  -12.9297   20.3328 N   0  0  0  0  0  0
  -25.9306  -11.6465   20.5723 N   0  0  0  0  0  0
  -22.0515  -12.8246   22.0391 N   0  0  0  0  0  0
  -25.4377  -15.1869   20.4088 N   0  0  0  0  0  0
  -31.7575  -14.6808   20.0927 O   0  0  0  0  0  0
  -21.6638   -6.8882   21.4243 O   0  0  0  0  0  0
  -22.3573  -14.5558   20.6692 O   0  0  0  0  0  0
  -24.6090  -31.8725   23.2120 C   0  0  0  0  0  0
  -25.9010  -32.4843   23.8408 C   0  0  1  0  0  0
  -27.2506  -27.4966   20.0787 C   0  0  0  0  0  0
  -25.5891  -33.8639   24.2345 N   0  0  0  0  0  0
  -23.3953  -30.4937   21.5526 C   0  0  2  0  0  0
  -24.8462  -28.9612   20.1218 C   0  0  0  0  0  0
  -22.7381  -29.4674   22.5019 C   0  0  0  0  0  0
  -18.0260  -28.1364   22.8502 C   0  0  0  0  0  0
  -24.1492  -36.7327   23.2614 C   0  0  0  0  0  0
  -25.9171  -30.8548   21.3577 C   0  0  0  0  0  0
  -26.0014  -29.4918   20.7102 C   0  0  0  0  0  0
  -27.2087  -28.7661   20.6913 C   0  0  0  0  0  0
  -26.0781  -26.9531   19.5201 C   0  0  0  0  0  0
  -24.8747  -27.6857   19.5283 C   0  0  0  0  0  0
  -23.6029  -29.8200   20.1691 C   0  0  0  0  0  0
  -25.4095  -36.3126   24.0341 C   0  0  1  0  0  0
  -20.5845  -28.3653   23.1326 C   0  0  2  0  0  0
  -20.6754  -26.9395   22.5415 C   0  0  0  0  0  0
  -19.5738  -26.6377   21.5203 C   0  0  0  0  0  0
  -18.1911  -26.7911   22.1619 C   0  0  0  0  0  0
  -19.1507  -28.8825   23.2914 C   0  0  0  0  0  0
  -18.9432  -30.1432   23.8921 C   0  0  0  0  0  0
  -17.6437  -30.6578   24.0564 C   0  0  0  0  0  0
  -25.9034  -34.9493   23.5140 C   0  0  0  0  0  0
  -16.5331  -29.9081   23.6321 C   0  0  0  0  0  0
  -16.7250  -28.6495   23.0353 C   0  0  0  0  0  0
  -26.4449  -31.6588   25.0709 C   0  0  0  0  0  0
  -25.3741  -31.3704   26.1483 C   0  0  0  0  0  0
  -27.0244  -30.3027   24.6033 C   0  0  0  0  0  0
  -27.6045  -32.4269   25.7471 C   0  0  0  0  0  0
  -27.5627  -37.1754   24.8408 C   0  0  0  0  0  0
  -21.4113  -29.3024   22.3747 N   0  0  0  0  0  0
  -26.4258  -37.3842   23.9481 N   0  0  0  0  0  0
  -24.6582  -31.0869   22.1001 N   0  0  0  0  0  0
  -23.4178  -28.8222   23.3045 O   0  0  0  0  0  0
  -28.4040  -26.7636   19.9994 O   0  0  0  0  0  0
  -26.5603  -34.8952   22.4703 O   0  0  0  0  0  0
  -23.5301  -32.1446   23.7557 O   0  0  0  0  0  0
  -27.8194  -22.5412   20.4829 C   0  0  0  0  0  0
  -33.0530  -16.9896   23.6107 C   0  0  0  0  0  0
  -28.3083  -21.5956   21.3966 C   0  0  0  0  0  0
  -32.2100  -17.9816   24.1435 C   0  0  0  0  0  0
  -28.7219  -23.2873   19.7115 C   0  0  0  0  0  0
  -32.5034  -15.9254   22.8727 C   0  0  0  0  0  0
  -29.6961  -21.3749   21.5392 C   0  0  0  0  0  0
  -30.8173  -17.9128   23.9467 C   0  0  0  0  0  0
  -30.1154  -23.1050   19.8495 C   0  0  0  0  0  0
  -30.6172  -22.1394   20.7640 C   0  0  0  0  0  0
  -30.2462  -16.8225   23.2317 C   0  0  0  0  0  0
  -31.1063  -15.8405   22.6804 C   0  0  0  0  0  0
  -30.1261  -20.3217   22.4801 C   0  0  0  0  0  0
  -29.9849  -19.0591   24.3961 C   0  0  0  0  0  0
  -30.4170  -26.4324   18.7879 C   0  0  0  0  0  0
  -32.1322  -21.9759   20.9228 C   0  0  0  0  0  0
  -28.7364  -16.6904   23.0041 C   0  0  0  0  0  0
  -31.0229  -24.0418   19.0585 C   0  0  0  0  0  0
  -29.5472  -27.4629   19.5051 C   0  0  0  0  0  0
  -29.6394  -20.1397   23.6502 N   0  0  0  0  0  0
  -30.5387  -14.7338   22.0030 N   0  0  0  0  0  0
  -30.7885  -25.3934   19.5375 N   0  0  0  0  0  0
  -29.5059  -19.0141   25.5954 N   0  3  0  0  0  0
  -30.6599  -26.5210   17.5815 O   0  0  0  0  0  0
  -31.4562  -12.4154   19.0447 H   0  0  0  0  0  0
  -30.3360  -11.2572   19.7018 H   0  0  0  0  0  0
  -29.7024  -11.8495   17.3594 H   0  0  0  0  0  0
  -29.6349  -13.5433   17.7784 H   0  0  0  0  0  0
  -27.8179  -11.3193   18.7790 H   0  0  0  0  0  0
  -27.3404  -12.6684   17.7822 H   0  0  0  0  0  0
  -27.7326  -14.2518   19.6092 H   0  0  0  0  0  0
  -28.6513  -11.8733   21.2913 H   0  0  0  0  0  0
  -28.4333  -13.4954   21.8663 H   0  0  0  0  0  0
  -25.2758   -9.5684   22.4752 H   0  0  0  0  0  0
  -23.9997   -7.4638   22.7475 H   0  0  0  0  0  0
  -21.0833   -8.8773   19.8953 H   0  0  0  0  0  0
  -22.3690  -10.9674   19.6161 H   0  0  0  0  0  0
  -21.1999   -7.6144   23.9716 H   0  0  0  0  0  0
  -21.1480   -6.0520   25.9081 H   0  0  0  0  0  0
  -22.0599   -2.7607   23.2848 H   0  0  0  0  0  0
  -22.4115  -11.9897   22.4770 H   0  0  0  0  0  0
  -21.1137  -13.1281   22.2597 H   0  0  0  0  0  0
  -24.6751  -15.8467   20.5182 H   0  0  0  0  0  0
  -26.2949  -15.6205   20.0890 H   0  0  0  0  0  0
  -26.7088  -32.5583   23.1190 H   0  0  0  0  0  0
  -25.0049  -33.9821   25.0494 H   0  0  0  0  0  0
  -22.6810  -31.3073   21.4116 H   0  0  0  0  0  0
  -23.3816  -35.9585   23.3118 H   0  0  0  0  0  0
  -24.3656  -36.9100   22.2065 H   0  0  0  0  0  0
  -23.7141  -37.6440   23.6727 H   0  0  0  0  0  0
  -26.0172  -31.6207   20.5877 H   0  0  0  0  0  0
  -26.8071  -30.9131   21.9721 H   0  0  0  0  0  0
  -28.0986  -29.1819   21.1428 H   0  0  0  0  0  0
  -26.1069  -25.9747   19.0607 H   0  0  0  0  0  0
  -23.9850  -27.2653   19.0799 H   0  0  0  0  0  0
  -23.7016  -30.5910   19.4038 H   0  0  0  0  0  0
  -22.7307  -29.2299   19.8812 H   0  0  0  0  0  0
  -25.1236  -36.1964   25.0821 H   0  0  0  0  0  0
  -20.9943  -28.3208   24.1447 H   0  0  0  0  0  0
  -20.5656  -26.2252   23.3593 H   0  0  0  0  0  0
  -21.6632  -26.7432   22.1211 H   0  0  0  0  0  0
  -19.6920  -25.6293   21.1225 H   0  0  0  0  0  0
  -19.6688  -27.3198   20.6745 H   0  0  0  0  0  0
  -17.4185  -26.6667   21.4010 H   0  0  0  0  0  0
  -18.0322  -26.0026   22.8990 H   0  0  0  0  0  0
  -19.7906  -30.7242   24.2308 H   0  0  0  0  0  0
  -17.4990  -31.6271   24.5152 H   0  0  0  0  0  0
  -15.5335  -30.2995   23.7629 H   0  0  0  0  0  0
  -15.8651  -28.0831   22.7052 H   0  0  0  0  0  0
  -24.5870  -30.7094   25.7831 H   0  0  0  0  0  0
  -24.8997  -32.2874   26.4984 H   0  0  0  0  0  0
  -25.8110  -30.8828   27.0203 H   0  0  0  0  0  0
  -26.2768  -29.6845   24.1045 H   0  0  0  0  0  0
  -27.3969  -29.7194   25.4460 H   0  0  0  0  0  0
  -27.8624  -30.4334   23.9183 H   0  0  0  0  0  0
  -27.2667  -33.3530   26.2127 H   0  0  0  0  0  0
  -28.3823  -32.6872   25.0282 H   0  0  0  0  0  0
  -28.0742  -31.8336   26.5328 H   0  0  0  0  0  0
  -28.2420  -38.0263   24.7804 H   0  0  0  0  0  0
  -28.1341  -36.2842   24.5771 H   0  0  0  0  0  0
  -27.2434  -37.0835   25.8802 H   0  0  0  0  0  0
  -20.9269  -29.8740   21.6968 H   0  0  0  0  0  0
  -26.0141  -38.2868   24.1690 H   0  0  0  0  0  0
  -26.7550  -22.6980   20.3780 H   0  0  0  0  0  0
  -34.1212  -17.0524   23.7591 H   0  0  0  0  0  0
  -27.6057  -21.0178   21.9819 H   0  0  0  0  0  0
  -32.6309  -18.8174   24.6802 H   0  0  0  0  0  0
  -28.3385  -24.0300   19.0255 H   0  0  0  0  0  0
  -33.1628  -15.1676   22.4704 H   0  0  0  0  0  0
  -30.9212  -19.6802   22.0870 H   0  0  0  0  0  0
  -32.4404  -21.2937   21.7124 H   0  0  0  0  0  0
  -32.5925  -22.9349   21.1648 H   0  0  0  0  0  0
  -32.5729  -21.6105   19.9948 H   0  0  0  0  0  0
  -28.1459  -17.5263   23.3751 H   0  0  0  0  0  0
  -28.3623  -15.7939   23.4979 H   0  0  0  0  0  0
  -28.5214  -16.6035   21.9391 H   0  0  0  0  0  0
  -30.7800  -23.9440   17.9980 H   0  0  0  0  0  0
  -32.0822  -23.8080   19.1426 H   0  0  0  0  0  0
  -29.2701  -28.2502   18.8002 H   0  0  0  0  0  0
  -30.1035  -27.9222   20.3238 H   0  0  0  0  0  0
  -29.7342  -14.3022   22.4318 H   0  0  0  0  0  0
  -30.5498  -25.4648   20.5171 H   0  0  0  0  0  0
  -29.6872  -18.2404   26.2312 H   0  0  0  0  0  0
  -28.9190  -19.7536   25.9689 H   0  0  0  0  0  0
  1 25  1  0  0  0
  1 30  2  0  0  0
  1 91  1  0  0  0
  2  3  1  0  0  0
  2 25  1  0  0  0
  2 95  1  0  0  0
  2 96  1  0  0  0
  3  4  1  0  0  0
  3 97  1  0  0  0
  3 98  1  0  0  0
  4  5  1  0  0  0
  4 99  1  0  0  0
  4100  1  0  0  0
  5  6  1  0  0  0
  5 26  1  0  0  0
  5101  1  0  0  0
  6 25  1  0  0  0
  6102  1  0  0  0
  6103  1  0  0  0
  7  8  2  0  0  0
  7 26  1  0  0  0
  7 29  1  0  0  0
  8  9  1  0  0  0
  8 22  1  0  0  0
  9 10  1  0  0  0
  9 27  2  0  0  0
 10 11  2  0  0  0
 10 15  1  0  0  0
 11 12  1  0  0  0
 11104  1  0  0  0
 12 13  2  0  0  0
 12105  1  0  0  0
 13 14  1  0  0  0
 13 31  1  0  0  0
 14 15  2  0  0  0
 14106  1  0  0  0
 15107  1  0  0  0
 16 17  2  0  0  0
 16 21  1  0  0  0
 16 31  1  0  0  0
 17 18  1  0  0  0
 17108  1  0  0  0
 18 19  2  0  0  0
 18109  1  0  0  0
 19 20  1  0  0  0
 19 24  1  0  0  0
 20 21  2  0  0  0
 20110  1  0  0  0
 21 23  1  0  0  0
 22 28  1  0  0  0
 22 32  2  0  0  0
 26 27  1  0  0  0
 28111  1  0  0  0
 28112  1  0  0  0
 29113  1  0  0  0
 29114  1  0  0  0
 33 34  1  0  0  0
 33 66  1  0  0  0
 33 70  2  0  0  0
 34 36  1  0  0  0
 34 59  1  0  0  0
 34115  1  0  0  0
 35 44  2  0  0  0
 35 45  1  0  0  0
 35 68  1  0  0  0
 36 56  1  0  0  0
 36116  1  0  0  0
 37 39  1  0  0  0
 37 47  1  0  0  0
 37 66  1  0  0  0
 37117  1  0  0  0
 38 43  2  0  0  0
 38 46  1  0  0  0
 38 47  1  0  0  0
 39 64  1  0  0  0
 39 67  2  0  0  0
 40 52  1  0  0  0
 40 53  2  0  0  0
 40 58  1  0  0  0
 41118  1  0  0  0
 41119  1  0  0  0
 41120  1  0  0  0
 41 48  1  0  0  0
 42 43  1  0  0  0
 42 66  1  0  0  0
 42121  1  0  0  0
 42122  1  0  0  0
 43 44  1  0  0  0
 44123  1  0  0  0
 45 46  2  0  0  0
 45124  1  0  0  0
 46125  1  0  0  0
 47126  1  0  0  0
 47127  1  0  0  0
 48 56  1  0  0  0
 48 65  1  0  0  0
 48128  1  0  0  0
 49 50  1  0  0  0
 49 53  1  0  0  0
 49 64  1  0  0  0
 49129  1  0  0  0
 50 51  1  0  0  0
 50130  1  0  0  0
 50131  1  0  0  0
 51 52  1  0  0  0
 51132  1  0  0  0
 51133  1  0  0  0
 52134  1  0  0  0
 52135  1  0  0  0
 53 54  1  0  0  0
 54 55  2  0  0  0
 54136  1  0  0  0
 55 57  1  0  0  0
 55137  1  0  0  0
 56 69  2  0  0  0
 57 58  2  0  0  0
 57138  1  0  0  0
 58139  1  0  0  0
 59 60  1  0  0  0
 59 61  1  0  0  0
 59 62  1  0  0  0
 60140  1  0  0  0
 60141  1  0  0  0
 60142  1  0  0  0
 61143  1  0  0  0
 61144  1  0  0  0
 61145  1  0  0  0
 62146  1  0  0  0
 62147  1  0  0  0
 62148  1  0  0  0
 63 65  1  0  0  0
 63149  1  0  0  0
 63150  1  0  0  0
 63151  1  0  0  0
 64152  1  0  0  0
 65153  1  0  0  0
 68 89  1  0  0  0
 71 73  2  0  0  0
 71 75  1  0  0  0
 71154  1  0  0  0
 72 74  2  0  0  0
 72 76  1  0  0  0
 72155  1  0  0  0
 73 77  1  0  0  0
 73156  1  0  0  0
 74 78  1  0  0  0
 74157  1  0  0  0
 75 79  2  0  0  0
 75158  1  0  0  0
 76 82  2  0  0  0
 76159  1  0  0  0
 77 80  2  0  0  0
 77 83  1  0  0  0
 78 81  2  0  0  0
 78 84  1  0  0  0
 79 80  1  0  0  0
 79 88  1  0  0  0
 80 86  1  0  0  0
 81 82  1  0  0  0
 81 87  1  0  0  0
 82 91  1  0  0  0
 83 90  2  0  0  0
 83160  1  0  0  0
 84 90  1  0  0  0
 84 93  2  0  0  0
 85 89  1  0  0  0
 85 92  1  0  0  0
 85 94  2  0  0  0
 86161  1  0  0  0
 86162  1  0  0  0
 86163  1  0  0  0
 87164  1  0  0  0
 87165  1  0  0  0
 87166  1  0  0  0
 88 92  1  0  0  0
 88167  1  0  0  0
 88168  1  0  0  0
 89169  1  0  0  0
 89170  1  0  0  0
 91171  1  0  0  0
 92172  1  0  0  0
 93173  1  0  0  0
 93174  1  0  0  0
M  CHG  1  93   1
M  ISO  4   1 100  68 101  89 101  91 100
M  END
> <chiral flag>
0

> <version>
0

> <s_m_source_file>
/data/baiqing/PycharmProjects/Reinvent-master-3.2/result/LINK_invent/BTK/process_docking_weight1_custom_product_contain_oxygen_bond_distance_aromatic_linkinvent_7_9_3/rearranged_h_0051.sdf

> <i_m_source_file_index>
24

> <r_mmod_Potential_Energy-OPLS-2005>
3.76852941513062

> <r_mmod_Stretch_Energy-OPLS-2005>
38.4820098876953

> <r_mmod_Bend_Energy-OPLS-2005>
102.254035949707

> <r_mmod_Torsional_Energy-OPLS-2005>
288.444854736328

> <r_mmod_Improper_Torsional_Energy-OPLS-2005>
6.0945520401001

> <r_mmod_Van_der_Waal_Energy-OPLS-2005>
188.703887939453

> <r_mmod_Electrostatic_Energy-OPLS-2005>
-145.283660888672

> <r_mmod_Solvation_Energy-OPLS-2005>
-483.746643066406

> <b_mmod_Minimization_Converged-OPLS-2005>
0

> <r_mmod_RMS_Derivative-OPLS-2005>
1.37153577804565

$$$$
24
                    3D
 Structure written by MMmdl.
154162  0  0  1  0            999 V2000
  -30.6238  -14.6427   20.5091 C   0  0  0  0  0  0
  -30.4394  -12.3944   19.4606 C   0  0  0  0  0  0
  -29.5114  -12.5084   18.2305 C   0  0  0  0  0  0
  -28.0344  -12.3428   18.6409 C   0  0  0  0  0  0
  -27.6549  -13.2156   19.8669 C   0  0  2  0  0  0
  -28.6967  -13.0724   20.9994 C   0  0  0  0  0  0
  -25.2566  -13.8169   20.5665 C   0  0  0  0  0  0
  -24.1829  -13.0442   20.9179 C   0  0  0  0  0  0
  -24.6393  -11.6907   20.8737 C   0  0  0  0  0  0
  -23.9060  -10.4289   21.0407 C   0  0  0  0  0  0
  -24.3618   -9.4210   21.9187 C   0  0  0  0  0  0
  -23.6294   -8.2246   22.0755 C   0  0  0  0  0  0
  -22.4279   -8.0282   21.3542 C   0  0  0  0  0  0
  -21.9912   -9.0252   20.4647 C   0  0  0  0  0  0
  -22.7234  -10.2133   20.3056 C   0  0  0  0  0  0
  -21.6851   -6.0743   22.5277 C   0  0  0  0  0  0
  -21.4013   -6.5645   23.8211 C   0  0  0  0  0  0
  -21.3660   -5.6796   24.9173 C   0  0  0  0  0  0
  -21.6047   -4.3056   24.7221 C   0  0  0  0  0  0
  -21.8818   -3.8151   23.4339 C   0  0  0  0  0  0
  -21.9193   -4.6973   22.3398 C   0  0  0  0  0  0
  -22.7853  -13.5239   21.1845 C   0  0  0  0  0  0
  -22.1662   -4.2159   21.0976 F   0  0  0  0  0  0
  -21.5632   -3.4537   25.7732 F   0  0  0  0  0  0
  -30.0145  -13.4155   20.4401 N   0  0  0  0  0  0
  -26.2995  -12.9347   20.3326 N   0  0  0  0  0  0
  -25.9324  -11.6501   20.5763 N   0  0  0  0  0  0
  -22.0494  -12.8224   22.0401 N   0  0  0  0  0  0
  -25.4300  -15.1885   20.4071 N   0  0  0  0  0  0
  -31.7756  -14.8047   20.0956 O   0  0  0  0  0  0
  -21.6640   -6.8884   21.4239 O   0  0  0  0  0  0
  -22.3539  -14.5553   20.6712 O   0  0  0  0  0  0
  -24.6272  -31.8590   23.2024 C   0  0  0  0  0  0
  -25.9111  -32.4783   23.8359 C   0  0  1  0  0  0
  -27.2318  -27.3239   20.1118 C   0  0  0  0  0  0
  -25.5923  -33.8578   24.2273 N   0  0  0  0  0  0
  -23.4208  -30.4849   21.5437 C   0  0  2  0  0  0
  -24.8692  -28.9430   20.1099 C   0  0  0  0  0  0
  -22.7489  -29.4627   22.4916 C   0  0  0  0  0  0
  -18.0288  -28.1394   22.8486 C   0  0  0  0  0  0
  -24.1489  -36.7296   23.2641 C   0  0  0  0  0  0
  -25.9628  -30.7960   21.3699 C   0  0  0  0  0  0
  -26.0397  -29.4236   20.7100 C   0  0  0  0  0  0
  -27.2250  -28.6281   20.6962 C   0  0  0  0  0  0
  -26.0333  -26.8978   19.4904 C   0  0  0  0  0  0
  -24.8681  -27.6859   19.4921 C   0  0  0  0  0  0
  -23.6371  -29.8213   20.1586 C   0  0  0  0  0  0
  -25.4110  -36.3075   24.0330 C   0  0  1  0  0  0
  -20.5893  -28.3688   23.1277 C   0  0  2  0  0  0
  -20.6778  -26.9410   22.5405 C   0  0  0  0  0  0
  -19.5749  -26.6376   21.5221 C   0  0  0  0  0  0
  -18.1930  -26.7936   22.1625 C   0  0  0  0  0  0
  -19.1544  -28.8851   23.2884 C   0  0  0  0  0  0
  -18.9476  -30.1457   23.8890 C   0  0  0  0  0  0
  -17.6476  -30.6592   24.0568 C   0  0  0  0  0  0
  -25.9040  -34.9455   23.5099 C   0  0  0  0  0  0
  -16.5367  -29.9096   23.6328 C   0  0  0  0  0  0
  -16.7275  -28.6521   23.0338 C   0  0  0  0  0  0
  -26.4489  -31.6595   25.0729 C   0  0  0  0  0  0
  -25.3723  -31.3763   26.1459 C   0  0  0  0  0  0
  -27.0320  -30.3015   24.6169 C   0  0  0  0  0  0
  -27.6038  -32.4329   25.7508 C   0  0  0  0  0  0
  -27.5573  -37.1803   24.8464 C   0  0  0  0  0  0
  -21.4194  -29.3056   22.3680 N   0  0  0  0  0  0
  -26.4284  -37.3773   23.9414 N   0  0  0  0  0  0
  -24.6892  -31.0624   22.0957 N   0  0  0  0  0  0
  -23.4227  -28.8149   23.2979 O   0  0  0  0  0  0
  -28.3496  -26.4708   20.1649 O   0  0  0  0  0  0
  -26.5606  -34.8919   22.4658 O   0  0  0  0  0  0
  -23.5422  -32.1374   23.7350 O   0  0  0  0  0  0
  -30.8469  -19.2425   19.8139 C   0  0  0  0  0  0
  -30.8352  -17.8198   19.9148 C   0  0  0  0  0  0
  -29.0344  -17.9858   21.4929 C   0  0  0  0  0  0
  -29.9717  -20.0892   20.5544 C   0  0  0  0  0  0
  -29.0446  -19.4185   21.4090 C   0  0  0  0  0  0
  -29.9315  -17.1444   20.7754 C   0  0  0  0  0  0
  -29.3109  -24.0425   20.3354 C   0  0  0  0  0  0
  -30.2158  -21.6523   20.5252 C   0  0  0  0  0  0
  -28.0979  -25.0113   20.0430 C   0  0  0  0  0  0
  -28.0814  -20.2219   22.2832 C   0  0  0  0  0  0
  -29.8395  -15.6860   20.9327 N   0  0  0  0  0  0
  -29.1324  -22.6783   20.3361 N   0  0  0  0  0  0
  -30.4252  -24.5304   20.5414 O   0  0  0  0  0  0
  -27.3209  -19.4372   23.0479 F   0  0  0  0  0  0
  -28.7660  -21.0320   23.0904 F   0  0  0  0  0  0
  -27.2692  -20.9557   21.5213 F   0  0  0  0  0  0
  -31.4806  -12.5185   19.1596 H   0  0  0  0  0  0
  -30.3747  -11.3978   19.9005 H   0  0  0  0  0  0
  -29.7779  -11.7568   17.4865 H   0  0  0  0  0  0
  -29.6523  -13.4787   17.7519 H   0  0  0  0  0  0
  -27.8748  -11.2894   18.8747 H   0  0  0  0  0  0
  -27.3800  -12.5683   17.7984 H   0  0  0  0  0  0
  -27.6751  -14.2511   19.5267 H   0  0  0  0  0  0
  -28.7046  -12.0512   21.3839 H   0  0  0  0  0  0
  -28.4340  -13.7042   21.8489 H   0  0  0  0  0  0
  -25.2767   -9.5689   22.4759 H   0  0  0  0  0  0
  -24.0008   -7.4635   22.7468 H   0  0  0  0  0  0
  -21.0851   -8.8771   19.8941 H   0  0  0  0  0  0
  -22.3700  -10.9678   19.6164 H   0  0  0  0  0  0
  -21.2000   -7.6152   23.9719 H   0  0  0  0  0  0
  -21.1486   -6.0525   25.9079 H   0  0  0  0  0  0
  -22.0597   -2.7614   23.2832 H   0  0  0  0  0  0
  -22.4106  -11.9871   22.4767 H   0  0  0  0  0  0
  -21.1119  -13.1261   22.2627 H   0  0  0  0  0  0
  -24.6610  -15.8431   20.4992 H   0  0  0  0  0  0
  -26.2797  -15.6217   20.0687 H   0  0  0  0  0  0
  -26.7173  -32.5444   23.1100 H   0  0  0  0  0  0
  -25.0084  -33.9723   25.0427 H   0  0  0  0  0  0
  -22.7164  -31.3061   21.3996 H   0  0  0  0  0  0
  -23.3750  -35.9627   23.3289 H   0  0  0  0  0  0
  -24.3586  -36.8915   22.2055 H   0  0  0  0  0  0
  -23.7251  -37.6498   23.6665 H   0  0  0  0  0  0
  -26.0916  -31.5646   20.6058 H   0  0  0  0  0  0
  -26.8439  -30.8434   21.9977 H   0  0  0  0  0  0
  -28.1248  -29.0003   21.1652 H   0  0  0  0  0  0
  -25.9586  -25.9403   19.0015 H   0  0  0  0  0  0
  -23.9713  -27.3093   19.0202 H   0  0  0  0  0  0
  -23.7621  -30.5985   19.4049 H   0  0  0  0  0  0
  -22.7599  -29.2506   19.8491 H   0  0  0  0  0  0
  -25.1296  -36.1913   25.0823 H   0  0  0  0  0  0
  -20.9976  -28.3238   24.1404 H   0  0  0  0  0  0
  -20.5673  -26.2301   23.3602 H   0  0  0  0  0  0
  -21.6647  -26.7431   22.1204 H   0  0  0  0  0  0
  -19.6914  -25.6285   21.1249 H   0  0  0  0  0  0
  -19.6688  -27.3181   20.6748 H   0  0  0  0  0  0
  -17.4206  -26.6672   21.4024 H   0  0  0  0  0  0
  -18.0325  -26.0088   22.9023 H   0  0  0  0  0  0
  -19.7960  -30.7277   24.2240 H   0  0  0  0  0  0
  -17.5047  -31.6269   24.5176 H   0  0  0  0  0  0
  -15.5376  -30.3010   23.7669 H   0  0  0  0  0  0
  -15.8675  -28.0860   22.7035 H   0  0  0  0  0  0
  -24.5907  -30.7091   25.7822 H   0  0  0  0  0  0
  -24.8931  -32.2954   26.4835 H   0  0  0  0  0  0
  -25.8059  -30.9003   27.0262 H   0  0  0  0  0  0
  -26.2890  -29.6780   24.1175 H   0  0  0  0  0  0
  -27.4011  -29.7245   25.4660 H   0  0  0  0  0  0
  -27.8763  -30.4308   23.9391 H   0  0  0  0  0  0
  -27.2633  -33.3646   26.2038 H   0  0  0  0  0  0
  -28.3883  -32.6838   25.0360 H   0  0  0  0  0  0
  -28.0651  -31.8480   26.5473 H   0  0  0  0  0  0
  -28.2577  -38.0109   24.7504 H   0  0  0  0  0  0
  -28.1076  -36.2637   24.6284 H   0  0  0  0  0  0
  -27.2298  -37.1439   25.8868 H   0  0  0  0  0  0
  -20.9356  -29.8847   21.6960 H   0  0  0  0  0  0
  -26.0155  -38.2838   24.1426 H   0  0  0  0  0  0
  -31.5859  -19.6933   19.1665 H   0  0  0  0  0  0
  -31.5418  -17.2547   19.3230 H   0  0  0  0  0  0
  -28.3231  -17.5170   22.1570 H   0  0  0  0  0  0
  -30.9536  -21.8498   19.7465 H   0  0  0  0  0  0
  -30.7282  -21.8951   21.4572 H   0  0  0  0  0  0
  -27.2863  -24.7297   20.7150 H   0  0  0  0  0  0
  -27.7751  -24.7913   19.0254 H   0  0  0  0  0  0
  -28.9835  -15.3675   21.3622 H   0  0  0  0  0  0
  -28.1945  -22.3275   20.1916 H   0  0  0  0  0  0
  1 25  1  0  0  0
  1 30  2  0  0  0
  1 81  1  0  0  0
  2  3  1  0  0  0
  2 25  1  0  0  0
  2 87  1  0  0  0
  2 88  1  0  0  0
  3  4  1  0  0  0
  3 89  1  0  0  0
  3 90  1  0  0  0
  4  5  1  0  0  0
  4 91  1  0  0  0
  4 92  1  0  0  0
  5  6  1  0  0  0
  5 26  1  0  0  0
  5 93  1  0  0  0
  6 25  1  0  0  0
  6 94  1  0  0  0
  6 95  1  0  0  0
  7  8  2  0  0  0
  7 26  1  0  0  0
  7 29  1  0  0  0
  8  9  1  0  0  0
  8 22  1  0  0  0
  9 10  1  0  0  0
  9 27  2  0  0  0
 10 11  2  0  0  0
 10 15  1  0  0  0
 11 12  1  0  0  0
 11 96  1  0  0  0
 12 13  2  0  0  0
 12 97  1  0  0  0
 13 14  1  0  0  0
 13 31  1  0  0  0
 14 15  2  0  0  0
 14 98  1  0  0  0
 15 99  1  0  0  0
 16 17  2  0  0  0
 16 21  1  0  0  0
 16 31  1  0  0  0
 17 18  1  0  0  0
 17100  1  0  0  0
 18 19  2  0  0  0
 18101  1  0  0  0
 19 20  1  0  0  0
 19 24  1  0  0  0
 20 21  2  0  0  0
 20102  1  0  0  0
 21 23  1  0  0  0
 22 28  1  0  0  0
 22 32  2  0  0  0
 26 27  1  0  0  0
 28103  1  0  0  0
 28104  1  0  0  0
 29105  1  0  0  0
 29106  1  0  0  0
 33 34  1  0  0  0
 33 66  1  0  0  0
 33 70  2  0  0  0
 34 36  1  0  0  0
 34 59  1  0  0  0
 34107  1  0  0  0
 35 44  2  0  0  0
 35 45  1  0  0  0
 35 68  1  0  0  0
 36 56  1  0  0  0
 36108  1  0  0  0
 37 39  1  0  0  0
 37 47  1  0  0  0
 37 66  1  0  0  0
 37109  1  0  0  0
 38 43  2  0  0  0
 38 46  1  0  0  0
 38 47  1  0  0  0
 39 64  1  0  0  0
 39 67  2  0  0  0
 40 52  1  0  0  0
 40 53  2  0  0  0
 40 58  1  0  0  0
 41110  1  0  0  0
 41111  1  0  0  0
 41112  1  0  0  0
 41 48  1  0  0  0
 42 43  1  0  0  0
 42 66  1  0  0  0
 42113  1  0  0  0
 42114  1  0  0  0
 43 44  1  0  0  0
 44115  1  0  0  0
 45 46  2  0  0  0
 45116  1  0  0  0
 46117  1  0  0  0
 47118  1  0  0  0
 47119  1  0  0  0
 48 56  1  0  0  0
 48 65  1  0  0  0
 48120  1  0  0  0
 49 50  1  0  0  0
 49 53  1  0  0  0
 49 64  1  0  0  0
 49121  1  0  0  0
 50 51  1  0  0  0
 50122  1  0  0  0
 50123  1  0  0  0
 51 52  1  0  0  0
 51124  1  0  0  0
 51125  1  0  0  0
 52126  1  0  0  0
 52127  1  0  0  0
 53 54  1  0  0  0
 54 55  2  0  0  0
 54128  1  0  0  0
 55 57  1  0  0  0
 55129  1  0  0  0
 56 69  2  0  0  0
 57 58  2  0  0  0
 57130  1  0  0  0
 58131  1  0  0  0
 59 60  1  0  0  0
 59 61  1  0  0  0
 59 62  1  0  0  0
 60132  1  0  0  0
 60133  1  0  0  0
 60134  1  0  0  0
 61135  1  0  0  0
 61136  1  0  0  0
 61137  1  0  0  0
 62138  1  0  0  0
 62139  1  0  0  0
 62140  1  0  0  0
 63 65  1  0  0  0
 63141  1  0  0  0
 63142  1  0  0  0
 63143  1  0  0  0
 64144  1  0  0  0
 65145  1  0  0  0
 68 79  1  0  0  0
 71 72  2  0  0  0
 71 74  1  0  0  0
 71146  1  0  0  0
 72 76  1  0  0  0
 72147  1  0  0  0
 73 75  1  0  0  0
 73 76  2  0  0  0
 73148  1  0  0  0
 74 75  2  0  0  0
 74 78  1  0  0  0
 75 80  1  0  0  0
 76 81  1  0  0  0
 77 79  1  0  0  0
 77 82  1  0  0  0
 77 83  2  0  0  0
 78 82  1  0  0  0
 78149  1  0  0  0
 78150  1  0  0  0
 79151  1  0  0  0
 79152  1  0  0  0
 80 84  1  0  0  0
 80 85  1  0  0  0
 80 86  1  0  0  0
 81153  1  0  0  0
 82154  1  0  0  0
M  ISO  4   1 100  68 101  79 101  81 100
M  END
> <chiral flag>
0

> <version>
0

> <s_m_source_file>
/data/baiqing/PycharmProjects/Reinvent-master-3.2/result/LINK_invent/BTK/process_docking_weight1_custom_product_contain_oxygen_bond_distance_aromatic_linkinvent_7_9_3/rearranged_h_0051.sdf

> <i_m_source_file_index>
25

> <r_mmod_Potential_Energy-OPLS-2005>
14.7556304931641

> <r_mmod_Stretch_Energy-OPLS-2005>
83.4133682250977

> <r_mmod_Bend_Energy-OPLS-2005>
141.16194152832

> <r_mmod_Torsional_Energy-OPLS-2005>
213.042770385742

> <r_mmod_Improper_Torsional_Energy-OPLS-2005>
4.24114274978638

> <r_mmod_Van_der_Waal_Energy-OPLS-2005>
149.847213745117

> <r_mmod_Electrostatic_Energy-OPLS-2005>
-387.640777587891

> <r_mmod_Solvation_Energy-OPLS-2005>
-237.318923950195

> <b_mmod_Minimization_Converged-OPLS-2005>
0

> <r_mmod_RMS_Derivative-OPLS-2005>
2.05578422546387

$$$$
25
                    3D
 Structure written by MMmdl.
181191  0  0  1  0            999 V2000
  -30.8918  -14.2893   20.7726 C   0  0  0  0  0  0
  -30.4063  -12.2765   19.4416 C   0  0  0  0  0  0
  -29.4980  -12.5261   18.2225 C   0  0  0  0  0  0
  -28.0240  -12.3596   18.6155 C   0  0  0  0  0  0
  -27.6684  -13.2014   19.8597 C   0  0  2  0  0  0
  -28.6873  -12.9929   20.9981 C   0  0  0  0  0  0
  -25.2627  -13.8163   20.5584 C   0  0  0  0  0  0
  -24.1865  -13.0455   20.9137 C   0  0  0  0  0  0
  -24.6412  -11.6922   20.8705 C   0  0  0  0  0  0
  -23.9070  -10.4318   21.0411 C   0  0  0  0  0  0
  -24.3625   -9.4232   21.9179 C   0  0  0  0  0  0
  -23.6299   -8.2261   22.0761 C   0  0  0  0  0  0
  -22.4286   -8.0286   21.3542 C   0  0  0  0  0  0
  -21.9917   -9.0265   20.4645 C   0  0  0  0  0  0
  -22.7248  -10.2145   20.3055 C   0  0  0  0  0  0
  -21.6858   -6.0732   22.5277 C   0  0  0  0  0  0
  -21.4011   -6.5640   23.8210 C   0  0  0  0  0  0
  -21.3663   -5.6794   24.9176 C   0  0  0  0  0  0
  -21.6053   -4.3056   24.7225 C   0  0  0  0  0  0
  -21.8818   -3.8146   23.4345 C   0  0  0  0  0  0
  -21.9192   -4.6960   22.3399 C   0  0  0  0  0  0
  -22.7904  -13.5283   21.1833 C   0  0  0  0  0  0
  -22.1660   -4.2150   21.0971 F   0  0  0  0  0  0
  -21.5639   -3.4535   25.7735 F   0  0  0  0  0  0
  -30.0751  -13.2159   20.5348 N   0  0  0  0  0  0
  -26.3039  -12.9313   20.3208 N   0  0  0  0  0  0
  -25.9327  -11.6493   20.5684 N   0  0  0  0  0  0
  -22.0543  -12.8245   22.0380 N   0  0  0  0  0  0
  -25.4386  -15.1861   20.3976 N   0  0  0  0  0  0
  -31.6930  -14.6489   19.9043 O   0  0  0  0  0  0
  -21.6648   -6.8876   21.4240 O   0  0  0  0  0  0
  -22.3573  -14.5581   20.6704 O   0  0  0  0  0  0
  -24.6138  -31.8738   23.2186 C   0  0  0  0  0  0
  -25.9038  -32.4857   23.8474 C   0  0  1  0  0  0
  -27.2164  -27.4808   20.0733 C   0  0  0  0  0  0
  -25.5921  -33.8656   24.2385 N   0  0  0  0  0  0
  -23.3973  -30.5050   21.5605 C   0  0  2  0  0  0
  -24.8385  -28.9967   20.1077 C   0  0  0  0  0  0
  -22.7417  -29.4682   22.5021 C   0  0  0  0  0  0
  -18.0283  -28.1356   22.8483 C   0  0  0  0  0  0
  -24.1471  -36.7269   23.2645 C   0  0  0  0  0  0
  -25.9296  -30.8580   21.3681 C   0  0  0  0  0  0
  -26.0021  -29.5021   20.7032 C   0  0  0  0  0  0
  -27.1989  -28.7506   20.6861 C   0  0  0  0  0  0
  -26.0377  -27.0054   19.4503 C   0  0  0  0  0  0
  -24.8482  -27.7421   19.4834 C   0  0  0  0  0  0
  -23.5977  -29.8514   20.1717 C   0  0  0  0  0  0
  -25.4090  -36.3098   24.0356 C   0  0  1  0  0  0
  -20.5863  -28.3636   23.1320 C   0  0  2  0  0  0
  -20.6762  -26.9368   22.5415 C   0  0  0  0  0  0
  -19.5726  -26.6363   21.5221 C   0  0  0  0  0  0
  -18.1903  -26.7912   22.1613 C   0  0  0  0  0  0
  -19.1535  -28.8805   23.2898 C   0  0  0  0  0  0
  -18.9460  -30.1413   23.8895 C   0  0  0  0  0  0
  -17.6465  -30.6552   24.0525 C   0  0  0  0  0  0
  -25.9056  -34.9481   23.5147 C   0  0  0  0  0  0
  -16.5351  -29.9024   23.6334 C   0  0  0  0  0  0
  -16.7282  -28.6443   23.0363 C   0  0  0  0  0  0
  -26.4465  -31.6640   25.0795 C   0  0  0  0  0  0
  -25.3735  -31.3703   26.1535 C   0  0  0  0  0  0
  -27.0328  -30.3112   24.6149 C   0  0  0  0  0  0
  -27.6040  -32.4378   25.7553 C   0  0  0  0  0  0
  -27.5551  -37.1769   24.8488 C   0  0  0  0  0  0
  -21.4144  -29.3033   22.3745 N   0  0  0  0  0  0
  -26.4252  -37.3797   23.9454 N   0  0  0  0  0  0
  -24.6653  -31.0935   22.1045 N   0  0  0  0  0  0
  -23.4234  -28.8189   23.3006 O   0  0  0  0  0  0
  -28.3498  -26.7012   20.1376 O   0  0  0  0  0  0
  -26.5588  -34.8917   22.4692 O   0  0  0  0  0  0
  -23.5339  -32.1421   23.7621 O   0  0  0  0  0  0
  -32.1105  -18.9397   20.7620 C   0  0  0  0  0  0
  -28.4960  -18.6375   21.7574 C   0  0  0  0  0  0
  -32.2649  -17.5544   20.9514 C   0  0  0  0  0  0
  -27.9330  -19.8018   21.2233 C   0  0  0  0  0  0
  -31.9301  -19.7830   21.8711 C   0  0  0  0  0  0
  -26.6324  -20.0914   23.2644 C   0  0  0  0  0  0
  -28.1563  -18.1963   23.0560 C   0  0  0  0  0  0
  -27.0140  -20.5433   21.9839 C   0  0  0  0  0  0
  -32.2363  -16.9850   22.2466 C   0  0  0  0  0  0
  -27.1944  -18.9134   23.8034 C   0  0  0  0  0  0
  -31.9332  -19.2404   23.1691 C   0  0  0  0  0  0
  -32.0998  -17.8509   23.3656 C   0  0  0  0  0  0
  -27.4853  -23.0813   19.5727 C   0  0  0  0  0  0
  -28.8413  -17.0076   23.5744 C   0  0  0  0  0  0
  -29.1591  -15.9711   22.7830 C   0  0  0  0  0  0
  -28.1714  -24.4026   19.2248 C   0  0  0  0  0  0
  -28.8866  -24.7457   21.5771 C   0  0  0  0  0  0
  -28.3974  -23.3032   21.8851 C   0  0  0  0  0  0
  -28.0582  -25.3348   20.4429 C   0  0  1  0  0  0
  -26.7575  -18.4374   25.1761 C   0  0  0  0  0  0
  -26.4428  -21.8220   21.4128 C   0  0  0  0  0  0
  -32.3430  -15.4577   22.3986 C   0  0  0  0  0  0
  -30.0956  -14.8343   23.1377 C   0  0  0  0  0  0
  -27.4724  -22.7223   20.8795 N   0  0  0  0  0  0
  -31.0993  -14.7120   22.0637 N   0  0  0  0  0  0
  -26.8920  -22.4616   18.6857 O   0  0  0  0  0  0
  -31.7766  -20.0663   24.2334 F   0  0  0  0  0  0
  -32.1283  -17.2485   24.9894 Cl  0  0  0  0  0  0
  -31.4556  -12.3360   19.1443 H   0  0  0  0  0  0
  -30.2761  -11.2553   19.8046 H   0  0  0  0  0  0
  -29.7492  -11.8302   17.4205 H   0  0  0  0  0  0
  -29.6693  -13.5291   17.8293 H   0  0  0  0  0  0
  -27.8471  -11.3030   18.8195 H   0  0  0  0  0  0
  -27.3755  -12.6228   17.7798 H   0  0  0  0  0  0
  -27.7211  -14.2477   19.5602 H   0  0  0  0  0  0
  -28.6084  -11.9878   21.4125 H   0  0  0  0  0  0
  -28.3515  -13.6639   21.7755 H   0  0  0  0  0  0
  -25.2779   -9.5706   22.4741 H   0  0  0  0  0  0
  -24.0010   -7.4660   22.7486 H   0  0  0  0  0  0
  -21.0852   -8.8796   19.8936 H   0  0  0  0  0  0
  -22.3726  -10.9685   19.6159 H   0  0  0  0  0  0
  -21.1998   -7.6145   23.9712 H   0  0  0  0  0  0
  -21.1491   -6.0522   25.9080 H   0  0  0  0  0  0
  -22.0589   -2.7603   23.2848 H   0  0  0  0  0  0
  -22.4165  -11.9889   22.4725 H   0  0  0  0  0  0
  -21.1178  -13.1271   22.2613 H   0  0  0  0  0  0
  -24.6838  -15.8518   20.5199 H   0  0  0  0  0  0
  -26.2983  -15.6166   20.0813 H   0  0  0  0  0  0
  -26.7120  -32.5592   23.1264 H   0  0  0  0  0  0
  -25.0193  -33.9870   25.0611 H   0  0  0  0  0  0
  -22.6836  -31.3211   21.4325 H   0  0  0  0  0  0
  -23.3760  -35.9576   23.3339 H   0  0  0  0  0  0
  -24.3570  -36.8860   22.2051 H   0  0  0  0  0  0
  -23.7182  -37.6457   23.6665 H   0  0  0  0  0  0
  -26.0613  -31.6350   20.6109 H   0  0  0  0  0  0
  -26.8128  -30.8920   21.9943 H   0  0  0  0  0  0
  -28.0916  -29.1261   21.1657 H   0  0  0  0  0  0
  -26.0067  -26.0481   18.9555 H   0  0  0  0  0  0
  -23.9534  -27.3444   19.0236 H   0  0  0  0  0  0
  -23.6910  -30.6316   19.4171 H   0  0  0  0  0  0
  -22.7209  -29.2645   19.8887 H   0  0  0  0  0  0
  -25.1249  -36.1958   25.0846 H   0  0  0  0  0  0
  -20.9991  -28.3184   24.1424 H   0  0  0  0  0  0
  -20.5692  -26.2232   23.3616 H   0  0  0  0  0  0
  -21.6615  -26.7399   22.1165 H   0  0  0  0  0  0
  -19.6888  -25.6288   21.1215 H   0  0  0  0  0  0
  -19.6652  -27.3177   20.6764 H   0  0  0  0  0  0
  -17.4189  -26.6712   21.3989 H   0  0  0  0  0  0
  -18.0214  -26.0063   22.9004 H   0  0  0  0  0  0
  -19.7951  -30.7208   24.2283 H   0  0  0  0  0  0
  -17.5023  -31.6254   24.5067 H   0  0  0  0  0  0
  -15.5337  -30.2885   23.7698 H   0  0  0  0  0  0
  -15.8704  -28.0733   22.7105 H   0  0  0  0  0  0
  -24.5904  -30.7069   25.7855 H   0  0  0  0  0  0
  -24.8911  -32.2823   26.5055 H   0  0  0  0  0  0
  -25.8046  -30.8812   27.0277 H   0  0  0  0  0  0
  -26.2867  -29.6839   24.1243 H   0  0  0  0  0  0
  -27.4183  -29.7371   25.4586 H   0  0  0  0  0  0
  -27.8673  -30.4509   23.9268 H   0  0  0  0  0  0
  -27.2691  -33.3717   26.2096 H   0  0  0  0  0  0
  -28.3846  -32.6886   25.0358 H   0  0  0  0  0  0
  -28.0714  -31.8540   26.5489 H   0  0  0  0  0  0
  -28.2572  -38.0066   24.7559 H   0  0  0  0  0  0
  -28.1019  -36.2590   24.6265 H   0  0  0  0  0  0
  -27.2294  -37.1385   25.8902 H   0  0  0  0  0  0
  -20.9292  -29.8804   21.7013 H   0  0  0  0  0  0
  -26.0128  -38.2874   24.1471 H   0  0  0  0  0  0
  -32.1270  -19.3545   19.7630 H   0  0  0  0  0  0
  -29.2341  -18.1100   21.1697 H   0  0  0  0  0  0
  -32.4073  -16.9352   20.0795 H   0  0  0  0  0  0
  -28.2172  -20.1272   20.2318 H   0  0  0  0  0  0
  -31.7947  -20.8448   21.7304 H   0  0  0  0  0  0
  -25.9131  -20.6579   23.8404 H   0  0  0  0  0  0
  -29.1693  -17.0313   24.6038 H   0  0  0  0  0  0
  -28.7595  -15.9568   21.7796 H   0  0  0  0  0  0
  -27.6909  -24.8317   18.3452 H   0  0  0  0  0  0
  -29.2102  -24.2268   18.9526 H   0  0  0  0  0  0
  -29.9409  -24.7494   21.3036 H   0  0  0  0  0  0
  -28.8022  -25.3675   22.4690 H   0  0  0  0  0  0
  -27.9012  -23.3045   22.8577 H   0  0  0  0  0  0
  -29.2567  -22.6389   21.9938 H   0  0  0  0  0  0
  -27.0466  -25.2725   20.8542 H   0  0  0  0  0  0
  -25.8954  -18.9985   25.5362 H   0  0  0  0  0  0
  -27.5652  -18.5569   25.8988 H   0  0  0  0  0  0
  -26.4701  -17.3862   25.1463 H   0  0  0  0  0  0
  -25.8798  -22.3582   22.1777 H   0  0  0  0  0  0
  -25.7067  -21.5410   20.6580 H   0  0  0  0  0  0
  -32.6673  -15.1955   23.4049 H   0  0  0  0  0  0
  -33.1798  -15.1163   21.7861 H   0  0  0  0  0  0
  -29.5898  -13.8969   23.3511 H   0  0  0  0  0  0
  -30.5680  -15.0744   24.0894 H   0  0  0  0  0  0
  1 25  1  0  0  0
  1 30  2  0  0  0
  1 95  1  0  0  0
  2  3  1  0  0  0
  2 25  1  0  0  0
  2 99  1  0  0  0
  2100  1  0  0  0
  3  4  1  0  0  0
  3101  1  0  0  0
  3102  1  0  0  0
  4  5  1  0  0  0
  4103  1  0  0  0
  4104  1  0  0  0
  5  6  1  0  0  0
  5 26  1  0  0  0
  5105  1  0  0  0
  6 25  1  0  0  0
  6106  1  0  0  0
  6107  1  0  0  0
  7  8  2  0  0  0
  7 26  1  0  0  0
  7 29  1  0  0  0
  8  9  1  0  0  0
  8 22  1  0  0  0
  9 10  1  0  0  0
  9 27  2  0  0  0
 10 11  2  0  0  0
 10 15  1  0  0  0
 11 12  1  0  0  0
 11108  1  0  0  0
 12 13  2  0  0  0
 12109  1  0  0  0
 13 14  1  0  0  0
 13 31  1  0  0  0
 14 15  2  0  0  0
 14110  1  0  0  0
 15111  1  0  0  0
 16 17  2  0  0  0
 16 21  1  0  0  0
 16 31  1  0  0  0
 17 18  1  0  0  0
 17112  1  0  0  0
 18 19  2  0  0  0
 18113  1  0  0  0
 19 20  1  0  0  0
 19 24  1  0  0  0
 20 21  2  0  0  0
 20114  1  0  0  0
 21 23  1  0  0  0
 22 28  1  0  0  0
 22 32  2  0  0  0
 26 27  1  0  0  0
 28115  1  0  0  0
 28116  1  0  0  0
 29117  1  0  0  0
 29118  1  0  0  0
 33 34  1  0  0  0
 33 66  1  0  0  0
 33 70  2  0  0  0
 34 36  1  0  0  0
 34 59  1  0  0  0
 34119  1  0  0  0
 35 44  2  0  0  0
 35 45  1  0  0  0
 35 68  1  0  0  0
 36 56  1  0  0  0
 36120  1  0  0  0
 37 39  1  0  0  0
 37 47  1  0  0  0
 37 66  1  0  0  0
 37121  1  0  0  0
 38 43  2  0  0  0
 38 46  1  0  0  0
 38 47  1  0  0  0
 39 64  1  0  0  0
 39 67  2  0  0  0
 40 52  1  0  0  0
 40 53  2  0  0  0
 40 58  1  0  0  0
 41122  1  0  0  0
 41123  1  0  0  0
 41124  1  0  0  0
 41 48  1  0  0  0
 42 43  1  0  0  0
 42 66  1  0  0  0
 42125  1  0  0  0
 42126  1  0  0  0
 43 44  1  0  0  0
 44127  1  0  0  0
 45 46  2  0  0  0
 45128  1  0  0  0
 46129  1  0  0  0
 47130  1  0  0  0
 47131  1  0  0  0
 48 56  1  0  0  0
 48 65  1  0  0  0
 48132  1  0  0  0
 49 50  1  0  0  0
 49 53  1  0  0  0
 49 64  1  0  0  0
 49133  1  0  0  0
 50 51  1  0  0  0
 50134  1  0  0  0
 50135  1  0  0  0
 51 52  1  0  0  0
 51136  1  0  0  0
 51137  1  0  0  0
 52138  1  0  0  0
 52139  1  0  0  0
 53 54  1  0  0  0
 54 55  2  0  0  0
 54140  1  0  0  0
 55 57  1  0  0  0
 55141  1  0  0  0
 56 69  2  0  0  0
 57 58  2  0  0  0
 57142  1  0  0  0
 58143  1  0  0  0
 59 60  1  0  0  0
 59 61  1  0  0  0
 59 62  1  0  0  0
 60144  1  0  0  0
 60145  1  0  0  0
 60146  1  0  0  0
 61147  1  0  0  0
 61148  1  0  0  0
 61149  1  0  0  0
 62150  1  0  0  0
 62151  1  0  0  0
 62152  1  0  0  0
 63 65  1  0  0  0
 63153  1  0  0  0
 63154  1  0  0  0
 63155  1  0  0  0
 64156  1  0  0  0
 65157  1  0  0  0
 68 89  1  0  0  0
 71 73  2  0  0  0
 71 75  1  0  0  0
 71158  1  0  0  0
 72 74  2  0  0  0
 72 77  1  0  0  0
 72159  1  0  0  0
 73 79  1  0  0  0
 73160  1  0  0  0
 74 78  1  0  0  0
 74161  1  0  0  0
 75 81  2  0  0  0
 75162  1  0  0  0
 76 78  2  0  0  0
 76 80  1  0  0  0
 76163  1  0  0  0
 77 80  2  0  0  0
 77 84  1  0  0  0
 78 91  1  0  0  0
 79 82  2  0  0  0
 79 92  1  0  0  0
 80 90  1  0  0  0
 81 82  1  0  0  0
 81 97  1  0  0  0
 82 98  1  0  0  0
 83 86  1  0  0  0
 83 94  1  0  0  0
 83 96  2  0  0  0
 84 85  2  0  0  0
 84164  1  0  0  0
 85 93  1  0  0  0
 85165  1  0  0  0
 86 89  1  0  0  0
 86166  1  0  0  0
 86167  1  0  0  0
 87 88  1  0  0  0
 87 89  1  0  0  0
 87168  1  0  0  0
 87169  1  0  0  0
 88 94  1  0  0  0
 88170  1  0  0  0
 88171  1  0  0  0
 89172  1  0  0  0
 90173  1  0  0  0
 90174  1  0  0  0
 90175  1  0  0  0
 91 94  1  0  0  0
 91176  1  0  0  0
 91177  1  0  0  0
 92 95  1  0  0  0
 92178  1  0  0  0
 92179  1  0  0  0
 93 95  1  0  0  0
 93180  1  0  0  0
 93181  1  0  0  0
M  ISO  4   1 100  68 101  89 101  95 100
M  END
> <chiral flag>
0

> <version>
0

> <s_m_source_file>
/data/baiqing/PycharmProjects/Reinvent-master-3.2/result/LINK_invent/BTK/process_docking_weight1_custom_product_contain_oxygen_bond_distance_aromatic_linkinvent_7_9_3/rearranged_h_0051.sdf

> <i_m_source_file_index>
26

> <r_mmod_Potential_Energy-OPLS-2005>
193.180908203125

> <r_mmod_Stretch_Energy-OPLS-2005>
45.9723930358887

> <r_mmod_Bend_Energy-OPLS-2005>
118.347610473633

> <r_mmod_Torsional_Energy-OPLS-2005>
311.66943359375

> <r_mmod_Improper_Torsional_Energy-OPLS-2005>
13.9333515167236

> <r_mmod_Van_der_Waal_Energy-OPLS-2005>
205.735900878906

> <r_mmod_Electrostatic_Energy-OPLS-2005>
-319.970092773438

> <r_mmod_Solvation_Energy-OPLS-2005>
-200.58772277832

> <b_mmod_Minimization_Converged-OPLS-2005>
0

> <r_mmod_RMS_Derivative-OPLS-2005>
3.68876075744629

$$$$
26
                    3D
 Structure written by MMmdl.
169178  0  0  1  0            999 V2000
  -30.6564  -14.4850   20.5786 C   0  0  0  0  0  0
  -30.4283  -12.3190   19.4208 C   0  0  0  0  0  0
  -29.4890  -12.4988   18.2083 C   0  0  0  0  0  0
  -28.0112  -12.3582   18.6228 C   0  0  0  0  0  0
  -27.6568  -13.1976   19.8783 C   0  0  2  0  0  0
  -28.6965  -12.9667   20.9976 C   0  0  0  0  0  0
  -25.2546  -13.8145   20.5661 C   0  0  0  0  0  0
  -24.1798  -13.0416   20.9177 C   0  0  0  0  0  0
  -24.6352  -11.6886   20.8738 C   0  0  0  0  0  0
  -23.9018  -10.4268   21.0421 C   0  0  0  0  0  0
  -24.3588   -9.4188   21.9186 C   0  0  0  0  0  0
  -23.6277   -8.2210   22.0754 C   0  0  0  0  0  0
  -22.4255   -8.0262   21.3553 C   0  0  0  0  0  0
  -21.9882   -9.0221   20.4640 C   0  0  0  0  0  0
  -22.7193  -10.2109   20.3057 C   0  0  0  0  0  0
  -21.6848   -6.0714   22.5270 C   0  0  0  0  0  0
  -21.4003   -6.5626   23.8199 C   0  0  0  0  0  0
  -21.3652   -5.6795   24.9167 C   0  0  0  0  0  0
  -21.6058   -4.3054   24.7236 C   0  0  0  0  0  0
  -21.8812   -3.8131   23.4353 C   0  0  0  0  0  0
  -21.9185   -4.6939   22.3407 C   0  0  0  0  0  0
  -22.7837  -13.5236   21.1831 C   0  0  0  0  0  0
  -22.1658   -4.2131   21.0980 F   0  0  0  0  0  0
  -21.5623   -3.4532   25.7740 F   0  0  0  0  0  0
  -30.0259  -13.2887   20.4497 N   0  0  0  0  0  0
  -26.2964  -12.9280   20.3367 N   0  0  0  0  0  0
  -25.9264  -11.6432   20.5756 N   0  0  0  0  0  0
  -22.0468  -12.8256   22.0412 N   0  0  0  0  0  0
  -25.4239  -15.1870   20.4058 N   0  0  0  0  0  0
  -31.7887  -14.7037   20.1334 O   0  0  0  0  0  0
  -21.6638   -6.8845   21.4236 O   0  0  0  0  0  0
  -22.3532  -14.5534   20.6688 O   0  0  0  0  0  0
  -24.6206  -31.8733   23.2114 C   0  0  0  0  0  0
  -25.9115  -32.4853   23.8412 C   0  0  1  0  0  0
  -27.1847  -27.3949   20.0622 C   0  0  0  0  0  0
  -25.5950  -33.8639   24.2332 N   0  0  0  0  0  0
  -23.4064  -30.5074   21.5548 C   0  0  2  0  0  0
  -24.8391  -28.9889   20.1116 C   0  0  0  0  0  0
  -22.7377  -29.4756   22.4927 C   0  0  0  0  0  0
  -18.0187  -28.1473   22.8197 C   0  0  0  0  0  0
  -24.1481  -36.7327   23.2638 C   0  0  0  0  0  0
  -25.9461  -30.8119   21.3873 C   0  0  0  0  0  0
  -26.0092  -29.4526   20.7219 C   0  0  0  0  0  0
  -27.1878  -28.6614   20.7047 C   0  0  0  0  0  0
  -26.0044  -27.0095   19.3831 C   0  0  0  0  0  0
  -24.8329  -27.7677   19.4363 C   0  0  0  0  0  0
  -23.6146  -29.8641   20.1650 C   0  0  0  0  0  0
  -25.4096  -36.3107   24.0337 C   0  0  1  0  0  0
  -20.5781  -28.3773   23.1251 C   0  0  2  0  0  0
  -20.6710  -26.9397   22.5692 C   0  0  0  0  0  0
  -19.5957  -26.6512   21.5129 C   0  0  0  0  0  0
  -18.1895  -26.8089   22.1124 C   0  0  0  0  0  0
  -19.1411  -28.8867   23.2778 C   0  0  0  0  0  0
  -18.9261  -30.1373   23.8968 C   0  0  0  0  0  0
  -17.6246  -30.6412   24.0737 C   0  0  0  0  0  0
  -25.9048  -34.9483   23.5105 C   0  0  0  0  0  0
  -16.5188  -29.9018   23.6270 C   0  0  0  0  0  0
  -16.7175  -28.6556   23.0035 C   0  0  0  0  0  0
  -26.4499  -31.6629   25.0763 C   0  0  0  0  0  0
  -25.3720  -31.3784   26.1487 C   0  0  0  0  0  0
  -27.0335  -30.3047   24.6215 C   0  0  0  0  0  0
  -27.6043  -32.4356   25.7556 C   0  0  0  0  0  0
  -27.5572  -37.1824   24.8462 C   0  0  0  0  0  0
  -21.4116  -29.3060   22.3562 N   0  0  0  0  0  0
  -26.4272  -37.3788   23.9400 N   0  0  0  0  0  0
  -24.6750  -31.0809   22.1072 N   0  0  0  0  0  0
  -23.4057  -28.8328   23.3058 O   0  0  0  0  0  0
  -28.2791  -26.5353   20.1009 O   0  0  0  0  0  0
  -26.5580  -34.8931   22.4652 O   0  0  0  0  0  0
  -23.5417  -32.1523   23.7506 O   0  0  0  0  0  0
  -28.6532  -18.9928   21.1123 C   0  0  0  0  0  0
  -28.4000  -17.3369   19.3356 C   0  0  0  0  0  0
  -26.9855  -19.3272   19.3638 C   0  0  0  0  0  0
  -29.0521  -17.7682   20.5124 C   0  0  0  0  0  0
  -27.6070  -19.7714   20.5543 C   0  0  0  0  0  0
  -27.3786  -18.1147   18.7580 C   0  0  0  0  0  0
  -28.9393  -24.0709   19.8175 C   0  0  0  0  0  0
  -27.5302  -24.8072   21.7125 C   0  0  0  0  0  0
  -28.2573  -22.6619   19.8545 C   0  0  0  0  0  0
  -27.9268  -25.1283   20.2629 C   0  0  1  0  0  0
  -26.8397  -23.4245   21.8056 C   0  0  1  0  0  0
  -24.3171  -22.9857   22.2762 C   0  0  0  0  0  0
  -30.1640  -16.9079   21.1258 C   0  0  0  0  0  0
  -27.0108  -20.9761   21.2991 C   0  0  0  0  0  0
  -25.3675  -23.5190   21.2846 C   0  0  0  0  0  0
  -29.8868  -15.4655   21.0843 N   0  0  0  0  0  0
  -27.6682  -22.3204   21.1873 N   0  3  1  0  0  0
  -26.5688  -17.5541   17.3435 Cl  0  0  0  0  0  0
  -31.4656  -12.4545   19.1082 H   0  0  0  0  0  0
  -30.3658  -11.3051   19.8184 H   0  0  0  0  0  0
  -29.7315  -11.7646   17.4405 H   0  0  0  0  0  0
  -29.6517  -13.4800   17.7592 H   0  0  0  0  0  0
  -27.8219  -11.3031   18.8189 H   0  0  0  0  0  0
  -27.3580  -12.6306   17.7948 H   0  0  0  0  0  0
  -27.6998  -14.2464   19.5851 H   0  0  0  0  0  0
  -28.6837  -11.9259   21.3242 H   0  0  0  0  0  0
  -28.4534  -13.5487   21.8865 H   0  0  0  0  0  0
  -25.2715   -9.5684   22.4791 H   0  0  0  0  0  0
  -23.9979   -7.4614   22.7497 H   0  0  0  0  0  0
  -21.0794   -8.8736   19.8962 H   0  0  0  0  0  0
  -22.3628  -10.9666   19.6195 H   0  0  0  0  0  0
  -21.2002   -7.6133   23.9707 H   0  0  0  0  0  0
  -21.1490   -6.0517   25.9077 H   0  0  0  0  0  0
  -22.0609   -2.7593   23.2859 H   0  0  0  0  0  0
  -22.4062  -11.9934   22.4818 H   0  0  0  0  0  0
  -21.1100  -13.1314   22.2605 H   0  0  0  0  0  0
  -24.6364  -15.8225   20.4698 H   0  0  0  0  0  0
  -26.2643  -15.6306   20.0589 H   0  0  0  0  0  0
  -26.7215  -32.5532   23.1197 H   0  0  0  0  0  0
  -25.0166  -33.9797   25.0531 H   0  0  0  0  0  0
  -22.6954  -31.3285   21.4308 H   0  0  0  0  0  0
  -23.3734  -35.9670   23.3310 H   0  0  0  0  0  0
  -24.3597  -36.8927   22.2050 H   0  0  0  0  0  0
  -23.7245  -37.6541   23.6646 H   0  0  0  0  0  0
  -26.0830  -31.5870   20.6327 H   0  0  0  0  0  0
  -26.8308  -30.8453   22.0107 H   0  0  0  0  0  0
  -28.0836  -28.9987   21.2081 H   0  0  0  0  0  0
  -25.9291  -26.1327   18.7609 H   0  0  0  0  0  0
  -23.9532  -27.4216   18.9182 H   0  0  0  0  0  0
  -23.7458  -30.6509   19.4247 H   0  0  0  0  0  0
  -22.7357  -29.2959   19.8611 H   0  0  0  0  0  0
  -25.1271  -36.1970   25.0834 H   0  0  0  0  0  0
  -20.9870  -28.3619   24.1379 H   0  0  0  0  0  0
  -20.5173  -26.2306   23.3898 H   0  0  0  0  0  0
  -21.6712  -26.7207   22.1993 H   0  0  0  0  0  0
  -19.7368  -25.6601   21.0891 H   0  0  0  0  0  0
  -19.7227  -27.3469   20.6828 H   0  0  0  0  0  0
  -17.4396  -26.6952   21.3239 H   0  0  0  0  0  0
  -18.0012  -26.0166   22.8347 H   0  0  0  0  0  0
  -19.7640  -30.7200   24.2474 H   0  0  0  0  0  0
  -17.4797  -31.5874   24.5693 H   0  0  0  0  0  0
  -15.5198  -30.2900   23.7679 H   0  0  0  0  0  0
  -15.8622  -28.0994   22.6485 H   0  0  0  0  0  0
  -24.5883  -30.7153   25.7825 H   0  0  0  0  0  0
  -24.8950  -32.2977   26.4892 H   0  0  0  0  0  0
  -25.8037  -30.8980   27.0278 H   0  0  0  0  0  0
  -26.2919  -29.6809   24.1231 H   0  0  0  0  0  0
  -27.4026  -29.7300   25.4717 H   0  0  0  0  0  0
  -27.8789  -30.4357   23.9463 H   0  0  0  0  0  0
  -27.2646  -33.3647   26.2158 H   0  0  0  0  0  0
  -28.3869  -32.6937   25.0406 H   0  0  0  0  0  0
  -28.0711  -31.8481   26.5473 H   0  0  0  0  0  0
  -28.2583  -38.0135   24.7491 H   0  0  0  0  0  0
  -28.1079  -36.2644   24.6293 H   0  0  0  0  0  0
  -27.2314  -37.1502   25.8885 H   0  0  0  0  0  0
  -20.9327  -29.8855   21.6803 H   0  0  0  0  0  0
  -26.0166  -38.2868   24.1404 H   0  0  0  0  0  0
  -29.1222  -19.3190   22.0328 H   0  0  0  0  0  0
  -28.6794  -16.4069   18.8622 H   0  0  0  0  0  0
  -26.1658  -19.8788   18.9268 H   0  0  0  0  0  0
  -29.2821  -24.2825   18.8052 H   0  0  0  0  0  0
  -29.8296  -24.0969   20.4422 H   0  0  0  0  0  0
  -26.8573  -25.5699   22.1058 H   0  0  0  0  0  0
  -28.4127  -24.8321   22.3574 H   0  0  0  0  0  0
  -29.0023  -21.9154   19.5698 H   0  0  0  0  0  0
  -27.4810  -22.5927   19.0918 H   0  0  0  0  0  0
  -27.0894  -24.8557   19.6330 H   0  0  0  0  0  0
  -26.7938  -23.1985   22.8689 H   0  0  0  0  0  0
  -24.4234  -21.9153   22.4533 H   0  0  0  0  0  0
  -23.3074  -23.1494   21.9062 H   0  0  0  0  0  0
  -24.3912  -23.4931   23.2377 H   0  0  0  0  0  0
  -30.3110  -17.1957   22.1670 H   0  0  0  0  0  0
  -31.0984  -17.1384   20.6116 H   0  0  0  0  0  0
  -26.9370  -20.7202   22.3553 H   0  0  0  0  0  0
  -25.9804  -21.0449   20.9601 H   0  0  0  0  0  0
  -25.2501  -23.0495   20.3013 H   0  0  0  0  0  0
  -25.1086  -24.5638   21.1124 H   0  0  0  0  0  0
  -28.9661  -15.1872   21.3896 H   0  0  0  0  0  0
  -28.4738  -22.2420   21.7918 H   0  0  0  0  0  0
  1 25  1  0  0  0
  1 30  2  0  0  0
  1 86  1  0  0  0
  2  3  1  0  0  0
  2 25  1  0  0  0
  2 89  1  0  0  0
  2 90  1  0  0  0
  3  4  1  0  0  0
  3 91  1  0  0  0
  3 92  1  0  0  0
  4  5  1  0  0  0
  4 93  1  0  0  0
  4 94  1  0  0  0
  5  6  1  0  0  0
  5 26  1  0  0  0
  5 95  1  0  0  0
  6 25  1  0  0  0
  6 96  1  0  0  0
  6 97  1  0  0  0
  7  8  2  0  0  0
  7 26  1  0  0  0
  7 29  1  0  0  0
  8  9  1  0  0  0
  8 22  1  0  0  0
  9 10  1  0  0  0
  9 27  2  0  0  0
 10 11  2  0  0  0
 10 15  1  0  0  0
 11 12  1  0  0  0
 11 98  1  0  0  0
 12 13  2  0  0  0
 12 99  1  0  0  0
 13 14  1  0  0  0
 13 31  1  0  0  0
 14 15  2  0  0  0
 14100  1  0  0  0
 15101  1  0  0  0
 16 17  2  0  0  0
 16 21  1  0  0  0
 16 31  1  0  0  0
 17 18  1  0  0  0
 17102  1  0  0  0
 18 19  2  0  0  0
 18103  1  0  0  0
 19 20  1  0  0  0
 19 24  1  0  0  0
 20 21  2  0  0  0
 20104  1  0  0  0
 21 23  1  0  0  0
 22 28  1  0  0  0
 22 32  2  0  0  0
 26 27  1  0  0  0
 28105  1  0  0  0
 28106  1  0  0  0
 29107  1  0  0  0
 29108  1  0  0  0
 33 34  1  0  0  0
 33 66  1  0  0  0
 33 70  2  0  0  0
 34 36  1  0  0  0
 34 59  1  0  0  0
 34109  1  0  0  0
 35 44  2  0  0  0
 35 45  1  0  0  0
 35 68  1  0  0  0
 36 56  1  0  0  0
 36110  1  0  0  0
 37 39  1  0  0  0
 37 47  1  0  0  0
 37 66  1  0  0  0
 37111  1  0  0  0
 38 43  2  0  0  0
 38 46  1  0  0  0
 38 47  1  0  0  0
 39 64  1  0  0  0
 39 67  2  0  0  0
 40 52  1  0  0  0
 40 53  2  0  0  0
 40 58  1  0  0  0
 41112  1  0  0  0
 41113  1  0  0  0
 41114  1  0  0  0
 41 48  1  0  0  0
 42 43  1  0  0  0
 42 66  1  0  0  0
 42115  1  0  0  0
 42116  1  0  0  0
 43 44  1  0  0  0
 44117  1  0  0  0
 45 46  2  0  0  0
 45118  1  0  0  0
 46119  1  0  0  0
 47120  1  0  0  0
 47121  1  0  0  0
 48 56  1  0  0  0
 48 65  1  0  0  0
 48122  1  0  0  0
 49 50  1  0  0  0
 49 53  1  0  0  0
 49 64  1  0  0  0
 49123  1  0  0  0
 50 51  1  0  0  0
 50124  1  0  0  0
 50125  1  0  0  0
 51 52  1  0  0  0
 51126  1  0  0  0
 51127  1  0  0  0
 52128  1  0  0  0
 52129  1  0  0  0
 53 54  1  0  0  0
 54 55  2  0  0  0
 54130  1  0  0  0
 55 57  1  0  0  0
 55131  1  0  0  0
 56 69  2  0  0  0
 57 58  2  0  0  0
 57132  1  0  0  0
 58133  1  0  0  0
 59 60  1  0  0  0
 59 61  1  0  0  0
 59 62  1  0  0  0
 60134  1  0  0  0
 60135  1  0  0  0
 60136  1  0  0  0
 61137  1  0  0  0
 61138  1  0  0  0
 61139  1  0  0  0
 62140  1  0  0  0
 62141  1  0  0  0
 62142  1  0  0  0
 63 65  1  0  0  0
 63143  1  0  0  0
 63144  1  0  0  0
 63145  1  0  0  0
 64146  1  0  0  0
 65147  1  0  0  0
 68 80  1  0  0  0
 71 74  2  0  0  0
 71 75  1  0  0  0
 71148  1  0  0  0
 72 74  1  0  0  0
 72 76  2  0  0  0
 72149  1  0  0  0
 73 75  2  0  0  0
 73 76  1  0  0  0
 73150  1  0  0  0
 74 83  1  0  0  0
 75 84  1  0  0  0
 76 88  1  0  0  0
 77 79  1  0  0  0
 77 80  1  0  0  0
 77151  1  0  0  0
 77152  1  0  0  0
 78 80  1  0  0  0
 78 81  1  0  0  0
 78153  1  0  0  0
 78154  1  0  0  0
 79 87  1  0  0  0
 79155  1  0  0  0
 79156  1  0  0  0
 80157  1  0  0  0
 81 85  1  0  0  0
 81 87  1  0  0  0
 81158  1  0  0  0
 82 85  1  0  0  0
 82159  1  0  0  0
 82160  1  0  0  0
 82161  1  0  0  0
 83 86  1  0  0  0
 83162  1  0  0  0
 83163  1  0  0  0
 84164  1  0  0  0
 84165  1  0  0  0
 84 87  1  0  0  0
 85166  1  0  0  0
 85167  1  0  0  0
 86168  1  0  0  0
 87169  1  0  0  0
M  CHG  1  87   1
M  ISO  4   1 100  68 101  80 101  86 100
M  END
> <chiral flag>
0

> <version>
0

> <s_m_source_file>
/data/baiqing/PycharmProjects/Reinvent-master-3.2/result/LINK_invent/BTK/process_docking_weight1_custom_product_contain_oxygen_bond_distance_aromatic_linkinvent_7_9_3/rearranged_h_0051.sdf

> <i_m_source_file_index>
27

> <r_mmod_Potential_Energy-OPLS-2005>
-141.003005981445

> <r_mmod_Stretch_Energy-OPLS-2005>
48.0715141296387

> <r_mmod_Bend_Energy-OPLS-2005>
122.705947875977

> <r_mmod_Torsional_Energy-OPLS-2005>
253.166961669922

> <r_mmod_Improper_Torsional_Energy-OPLS-2005>
4.81014776229858

> <r_mmod_Van_der_Waal_Energy-OPLS-2005>
161.498565673828

> <r_mmod_Electrostatic_Energy-OPLS-2005>
-314.690185546875

> <r_mmod_Solvation_Energy-OPLS-2005>
-444.386077880859

> <b_mmod_Minimization_Converged-OPLS-2005>
0

> <r_mmod_RMS_Derivative-OPLS-2005>
7.73370599746704

$$$$
27
                    3D
 Structure written by MMmdl.
168177  0  0  1  0            999 V2000
  -30.6554  -14.6255   20.5841 C   0  0  0  0  0  0
  -30.4296  -12.4196   19.4529 C   0  0  0  0  0  0
  -29.4976  -12.5260   18.2285 C   0  0  0  0  0  0
  -27.9973  -12.4192   18.5959 C   0  0  0  0  0  0
  -27.6538  -13.2421   19.8642 C   0  0  2  0  0  0
  -28.6813  -13.0485   20.9967 C   0  0  0  0  0  0
  -25.2558  -13.8259   20.5582 C   0  0  0  0  0  0
  -24.1866  -13.0440   20.9067 C   0  0  0  0  0  0
  -24.6419  -11.7018   20.8629 C   0  0  0  0  0  0
  -23.9119  -10.4378   21.0345 C   0  0  0  0  0  0
  -24.3796   -9.4370   21.9128 C   0  0  0  0  0  0
  -23.6562   -8.2349   22.0670 C   0  0  0  0  0  0
  -22.4476   -8.0389   21.3519 C   0  0  0  0  0  0
  -22.0015   -9.0315   20.4538 C   0  0  0  0  0  0
  -22.7337  -10.2237   20.2946 C   0  0  0  0  0  0
  -21.7053   -6.0736   22.5309 C   0  0  0  0  0  0
  -21.4162   -6.5675   23.8202 C   0  0  0  0  0  0
  -21.3589   -5.6857   24.9185 C   0  0  0  0  0  0
  -21.6038   -4.3084   24.7261 C   0  0  0  0  0  0
  -21.8752   -3.8112   23.4404 C   0  0  0  0  0  0
  -21.9240   -4.6913   22.3447 C   0  0  0  0  0  0
  -22.7896  -13.5230   21.1789 C   0  0  0  0  0  0
  -22.1764   -4.2067   21.1023 F   0  0  0  0  0  0
  -21.5566   -3.4591   25.7728 F   0  0  0  0  0  0
  -30.0042  -13.4192   20.4704 N   0  0  0  0  0  0
  -26.2981  -12.9478   20.3230 N   0  0  0  0  0  0
  -25.9462  -11.6590   20.5742 N   0  0  0  0  0  0
  -22.0754  -12.8196   22.0434 N   0  0  0  0  0  0
  -25.4150  -15.1977   20.4065 N   0  0  0  0  0  0
  -31.8159  -14.7490   20.1812 O   0  0  0  0  0  0
  -21.6924   -6.8958   21.4256 O   0  0  0  0  0  0
  -22.3411  -14.5432   20.6595 O   0  0  0  0  0  0
  -24.6338  -31.8595   23.2007 C   0  0  0  0  0  0
  -25.9186  -32.4769   23.8337 C   0  0  1  0  0  0
  -27.1879  -27.2546   20.1649 C   0  0  0  0  0  0
  -25.5988  -33.8562   24.2243 N   0  0  0  0  0  0
  -23.4240  -30.4891   21.5426 C   0  0  2  0  0  0
  -24.8626  -28.9309   20.1091 C   0  0  0  0  0  0
  -22.7490  -29.4672   22.4919 C   0  0  0  0  0  0
  -18.0298  -28.1373   22.8489 C   0  0  0  0  0  0
  -24.1474  -36.7354   23.2647 C   0  0  0  0  0  0
  -25.9676  -30.7796   21.3636 C   0  0  0  0  0  0
  -26.0327  -29.3947   20.7207 C   0  0  0  0  0  0
  -27.2052  -28.5725   20.7321 C   0  0  0  0  0  0
  -26.0123  -26.8733   19.4946 C   0  0  0  0  0  0
  -24.8575  -27.6735   19.4808 C   0  0  0  0  0  0
  -23.6370  -29.8257   20.1545 C   0  0  0  0  0  0
  -25.4095  -36.3098   24.0315 C   0  0  1  0  0  0
  -20.5900  -28.3721   23.1256 C   0  0  2  0  0  0
  -20.6776  -26.9424   22.5433 C   0  0  0  0  0  0
  -19.5760  -26.6354   21.5224 C   0  0  0  0  0  0
  -18.1931  -26.7922   22.1618 C   0  0  0  0  0  0
  -19.1555  -28.8850   23.2871 C   0  0  0  0  0  0
  -18.9478  -30.1437   23.8908 C   0  0  0  0  0  0
  -17.6479  -30.6569   24.0567 C   0  0  0  0  0  0
  -25.9046  -34.9465   23.5058 C   0  0  0  0  0  0
  -16.5366  -29.9068   23.6314 C   0  0  0  0  0  0
  -16.7288  -28.6481   23.0339 C   0  0  0  0  0  0
  -26.4471  -31.6606   25.0747 C   0  0  0  0  0  0
  -25.3649  -31.3890   26.1465 C   0  0  0  0  0  0
  -27.0271  -30.3010   24.6190 C   0  0  0  0  0  0
  -27.6006  -32.4340   25.7584 C   0  0  0  0  0  0
  -27.5560  -37.1865   24.8441 C   0  0  0  0  0  0
  -21.4212  -29.3077   22.3661 N   0  0  0  0  0  0
  -26.4265  -37.3796   23.9383 N   0  0  0  0  0  0
  -24.6969  -31.0568   22.0951 N   0  0  0  0  0  0
  -23.4226  -28.8163   23.2990 O   0  0  0  0  0  0
  -28.2809  -26.3700   20.1752 O   0  0  0  0  0  0
  -26.5595  -34.8950   22.4621 O   0  0  0  0  0  0
  -23.5512  -32.1412   23.7330 O   0  0  0  0  0  0
  -29.3450  -18.2738   20.2258 C   0  0  0  0  0  0
  -29.7013  -16.4933   18.5911 C   0  0  0  0  0  0
  -29.0042  -19.2234   19.1602 C   0  0  0  0  0  0
  -29.0553  -18.7154   17.8143 C   0  0  0  0  0  0
  -29.6951  -16.8797   19.9456 C   0  0  0  0  0  0
  -29.4020  -17.3693   17.5487 C   0  0  0  0  0  0
  -29.7427  -22.6699   20.2515 C   0  0  0  0  0  0
  -33.4446  -22.3788   19.9281 C   0  0  0  0  0  0
  -30.9717  -22.1300   20.0793 C   0  0  0  0  0  0
  -32.2047  -22.9081   19.9761 C   0  0  0  0  0  0
  -29.5440  -24.2278   20.3293 C   0  0  0  0  0  0
  -27.1038  -23.9360   20.1317 C   0  0  0  0  0  0
  -27.2185  -22.4630   20.7284 C   0  0  0  0  0  0
  -28.1926  -24.9305   20.6317 C   0  0  2  0  0  0
  -28.7084  -19.5658   16.5916 C   0  0  0  0  0  0
  -28.3563  -20.6923   19.2807 C   0  0  0  0  0  0
  -29.9355  -15.7662   20.9026 N   0  0  0  0  0  0
  -28.5141  -21.7374   20.3870 N   0  3  1  0  0  0
  -29.4173  -16.7067   15.9475 Cl  0  0  0  0  0  0
  -31.4687  -12.5525   19.1322 H   0  0  0  0  0  0
  -30.3929  -11.4120   19.8695 H   0  0  0  0  0  0
  -29.7489  -11.7456   17.5080 H   0  0  0  0  0  0
  -29.6604  -13.4644   17.7080 H   0  0  0  0  0  0
  -27.7299  -11.3693   18.7174 H   0  0  0  0  0  0
  -27.3868  -12.7613   17.7559 H   0  0  0  0  0  0
  -27.6726  -14.2887   19.5719 H   0  0  0  0  0  0
  -28.6626  -12.0015   21.3028 H   0  0  0  0  0  0
  -28.4218  -13.6412   21.8781 H   0  0  0  0  0  0
  -25.2985   -9.5813   22.4699 H   0  0  0  0  0  0
  -24.0330   -7.4702   22.7371 H   0  0  0  0  0  0
  -21.0930   -8.8762   19.8957 H   0  0  0  0  0  0
  -22.3767  -10.9728   19.5967 H   0  0  0  0  0  0
  -21.2400   -7.6198   23.9713 H   0  0  0  0  0  0
  -21.1537   -6.0636   25.9096 H   0  0  0  0  0  0
  -22.0601   -2.7558   23.2980 H   0  0  0  0  0  0
  -22.4762  -11.9977   22.4686 H   0  0  0  0  0  0
  -21.1167  -13.0777   22.2508 H   0  0  0  0  0  0
  -24.6477  -15.8570   20.5043 H   0  0  0  0  0  0
  -26.2755  -15.6443   20.1127 H   0  0  0  0  0  0
  -26.7296  -32.5403   23.1147 H   0  0  0  0  0  0
  -25.0201  -33.9666   25.0428 H   0  0  0  0  0  0
  -22.7235  -31.3150   21.4018 H   0  0  0  0  0  0
  -23.3680  -35.9746   23.3323 H   0  0  0  0  0  0
  -24.3586  -36.8958   22.2063 H   0  0  0  0  0  0
  -23.7270  -37.6583   23.6660 H   0  0  0  0  0  0
  -26.0733  -31.5180   20.5695 H   0  0  0  0  0  0
  -26.8648  -30.8611   21.9674 H   0  0  0  0  0  0
  -28.1005  -28.9285   21.2202 H   0  0  0  0  0  0
  -25.9760  -25.9422   18.9583 H   0  0  0  0  0  0
  -23.9713  -27.3136   18.9762 H   0  0  0  0  0  0
  -23.7753  -30.6078   19.4062 H   0  0  0  0  0  0
  -22.7507  -29.2697   19.8430 H   0  0  0  0  0  0
  -25.1274  -36.1970   25.0803 H   0  0  0  0  0  0
  -21.0025  -28.3313   24.1364 H   0  0  0  0  0  0
  -20.5587  -26.2375   23.3671 H   0  0  0  0  0  0
  -21.6652  -26.7360   22.1289 H   0  0  0  0  0  0
  -19.6900  -25.6239   21.1291 H   0  0  0  0  0  0
  -19.6681  -27.3140   20.6724 H   0  0  0  0  0  0
  -17.4214  -26.6712   21.3997 H   0  0  0  0  0  0
  -18.0281  -26.0042   22.8986 H   0  0  0  0  0  0
  -19.7940  -30.7249   24.2311 H   0  0  0  0  0  0
  -17.5005  -31.6248   24.5176 H   0  0  0  0  0  0
  -15.5351  -30.2963   23.7585 H   0  0  0  0  0  0
  -15.8704  -28.0774   22.7038 H   0  0  0  0  0  0
  -24.5946  -30.7019   25.7959 H   0  0  0  0  0  0
  -24.8681  -32.3097   26.4545 H   0  0  0  0  0  0
  -25.7959  -30.9472   27.0454 H   0  0  0  0  0  0
  -26.2858  -29.6850   24.1090 H   0  0  0  0  0  0
  -27.3842  -29.7188   25.4694 H   0  0  0  0  0  0
  -27.8776  -30.4294   23.9488 H   0  0  0  0  0  0
  -27.2612  -33.3740   26.1955 H   0  0  0  0  0  0
  -28.3986  -32.6689   25.0535 H   0  0  0  0  0  0
  -28.0438  -31.8556   26.5701 H   0  0  0  0  0  0
  -28.2569  -38.0164   24.7423 H   0  0  0  0  0  0
  -28.1048  -36.2681   24.6303 H   0  0  0  0  0  0
  -27.2311  -37.1598   25.8857 H   0  0  0  0  0  0
  -20.9391  -29.8973   21.7018 H   0  0  0  0  0  0
  -26.0140  -38.2884   24.1312 H   0  0  0  0  0  0
  -29.3097  -18.6142   21.2580 H   0  0  0  0  0  0
  -29.9146  -15.4816   18.3080 H   0  0  0  0  0  0
  -34.3164  -23.0140   19.8927 H   0  0  0  0  0  0
  -33.6307  -21.3155   19.9419 H   0  0  0  0  0  0
  -31.0590  -21.0550   20.0040 H   0  0  0  0  0  0
  -32.1589  -23.9912   19.9436 H   0  0  0  0  0  0
  -29.9091  -24.6274   19.3855 H   0  0  0  0  0  0
  -30.2598  -24.5796   21.0716 H   0  0  0  0  0  0
  -26.1232  -24.3404   20.3858 H   0  0  0  0  0  0
  -27.1356  -23.8745   19.0492 H   0  0  0  0  0  0
  -26.3146  -21.8647   20.4936 H   0  0  0  0  0  0
  -27.1285  -22.5159   21.8269 H   0  0  0  0  0  0
  -28.1020  -24.9892   21.7153 H   0  0  0  0  0  0
  -29.6193  -20.0131   16.1830 H   0  0  0  0  0  0
  -27.9570  -20.3361   16.7809 H   0  0  0  0  0  0
  -28.2568  -18.9918   15.7829 H   0  0  0  0  0  0
  -27.3011  -20.4692   19.1116 H   0  0  0  0  0  0
  -28.6575  -21.2871   18.4197 H   0  0  0  0  0  0
  -29.3098  -15.6775   21.7010 H   0  0  0  0  0  0
  -28.6644  -21.1578   21.2032 H   0  0  0  0  0  0
  1 25  1  0  0  0
  1 30  2  0  0  0
  1 87  1  0  0  0
  2  3  1  0  0  0
  2 25  1  0  0  0
  2 90  1  0  0  0
  2 91  1  0  0  0
  3  4  1  0  0  0
  3 92  1  0  0  0
  3 93  1  0  0  0
  4  5  1  0  0  0
  4 94  1  0  0  0
  4 95  1  0  0  0
  5  6  1  0  0  0
  5 26  1  0  0  0
  5 96  1  0  0  0
  6 25  1  0  0  0
  6 97  1  0  0  0
  6 98  1  0  0  0
  7  8  2  0  0  0
  7 26  1  0  0  0
  7 29  1  0  0  0
  8  9  1  0  0  0
  8 22  1  0  0  0
  9 10  1  0  0  0
  9 27  2  0  0  0
 10 11  2  0  0  0
 10 15  1  0  0  0
 11 12  1  0  0  0
 11 99  1  0  0  0
 12 13  2  0  0  0
 12100  1  0  0  0
 13 14  1  0  0  0
 13 31  1  0  0  0
 14 15  2  0  0  0
 14101  1  0  0  0
 15102  1  0  0  0
 16 17  2  0  0  0
 16 21  1  0  0  0
 16 31  1  0  0  0
 17 18  1  0  0  0
 17103  1  0  0  0
 18 19  2  0  0  0
 18104  1  0  0  0
 19 20  1  0  0  0
 19 24  1  0  0  0
 20 21  2  0  0  0
 20105  1  0  0  0
 21 23  1  0  0  0
 22 28  1  0  0  0
 22 32  2  0  0  0
 26 27  1  0  0  0
 28106  1  0  0  0
 28107  1  0  0  0
 29108  1  0  0  0
 29109  1  0  0  0
 33 34  1  0  0  0
 33 66  1  0  0  0
 33 70  2  0  0  0
 34 36  1  0  0  0
 34 59  1  0  0  0
 34110  1  0  0  0
 35 44  2  0  0  0
 35 45  1  0  0  0
 35 68  1  0  0  0
 36 56  1  0  0  0
 36111  1  0  0  0
 37 39  1  0  0  0
 37 47  1  0  0  0
 37 66  1  0  0  0
 37112  1  0  0  0
 38 43  2  0  0  0
 38 46  1  0  0  0
 38 47  1  0  0  0
 39 64  1  0  0  0
 39 67  2  0  0  0
 40 52  1  0  0  0
 40 53  2  0  0  0
 40 58  1  0  0  0
 41113  1  0  0  0
 41114  1  0  0  0
 41115  1  0  0  0
 41 48  1  0  0  0
 42 43  1  0  0  0
 42 66  1  0  0  0
 42116  1  0  0  0
 42117  1  0  0  0
 43 44  1  0  0  0
 44118  1  0  0  0
 45 46  2  0  0  0
 45119  1  0  0  0
 46120  1  0  0  0
 47121  1  0  0  0
 47122  1  0  0  0
 48 56  1  0  0  0
 48 65  1  0  0  0
 48123  1  0  0  0
 49 50  1  0  0  0
 49 53  1  0  0  0
 49 64  1  0  0  0
 49124  1  0  0  0
 50 51  1  0  0  0
 50125  1  0  0  0
 50126  1  0  0  0
 51 52  1  0  0  0
 51127  1  0  0  0
 51128  1  0  0  0
 52129  1  0  0  0
 52130  1  0  0  0
 53 54  1  0  0  0
 54 55  2  0  0  0
 54131  1  0  0  0
 55 57  1  0  0  0
 55132  1  0  0  0
 56 69  2  0  0  0
 57 58  2  0  0  0
 57133  1  0  0  0
 58134  1  0  0  0
 59 60  1  0  0  0
 59 61  1  0  0  0
 59 62  1  0  0  0
 60135  1  0  0  0
 60136  1  0  0  0
 60137  1  0  0  0
 61138  1  0  0  0
 61139  1  0  0  0
 61140  1  0  0  0
 62141  1  0  0  0
 62142  1  0  0  0
 62143  1  0  0  0
 63 65  1  0  0  0
 63144  1  0  0  0
 63145  1  0  0  0
 63146  1  0  0  0
 64147  1  0  0  0
 65148  1  0  0  0
 68 84  1  0  0  0
 71 73  2  0  0  0
 71 75  1  0  0  0
 71149  1  0  0  0
 72 75  2  0  0  0
 72 76  1  0  0  0
 72150  1  0  0  0
 73 74  1  0  0  0
 73 86  1  0  0  0
 74 76  2  0  0  0
 74 85  1  0  0  0
 75 87  1  0  0  0
 76 89  1  0  0  0
 77 79  2  0  0  0
 77 81  1  0  0  0
 77 88  1  0  0  0
 78 80  2  0  0  0
 78151  1  0  0  0
 78152  1  0  0  0
 79 80  1  0  0  0
 79153  1  0  0  0
 80154  1  0  0  0
 81 84  1  0  0  0
 81155  1  0  0  0
 81156  1  0  0  0
 82 83  1  0  0  0
 82 84  1  0  0  0
 82157  1  0  0  0
 82158  1  0  0  0
 83 88  1  0  0  0
 83159  1  0  0  0
 83160  1  0  0  0
 84161  1  0  0  0
 85162  1  0  0  0
 85163  1  0  0  0
 85164  1  0  0  0
 86165  1  0  0  0
 86166  1  0  0  0
 86 88  1  0  0  0
 87167  1  0  0  0
 88168  1  0  0  0
M  CHG  1  88   1
M  ISO  4   1 100  68 101  84 101  87 100
M  END
> <chiral flag>
0

> <version>
0

> <s_m_source_file>
/data/baiqing/PycharmProjects/Reinvent-master-3.2/result/LINK_invent/BTK/process_docking_weight1_custom_product_contain_oxygen_bond_distance_aromatic_linkinvent_7_9_3/rearranged_h_0051.sdf

> <i_m_source_file_index>
28

> <r_mmod_Potential_Energy-OPLS-2005>
189.857711791992

> <r_mmod_Stretch_Energy-OPLS-2005>
137.81217956543

> <r_mmod_Bend_Energy-OPLS-2005>
245.942626953125

> <r_mmod_Torsional_Energy-OPLS-2005>
296.886932373047

> <r_mmod_Improper_Torsional_Energy-OPLS-2005>
8.80572509765625

> <r_mmod_Van_der_Waal_Energy-OPLS-2005>
160.896743774414

> <r_mmod_Electrostatic_Energy-OPLS-2005>
-252.983154296875

> <r_mmod_Solvation_Energy-OPLS-2005>
-467.980590820312

> <b_mmod_Minimization_Converged-OPLS-2005>
0

> <r_mmod_RMS_Derivative-OPLS-2005>
18.4475021362305

$$$$
28
                    3D
 Structure written by MMmdl.
161170  0  0  1  0            999 V2000
  -30.5437  -15.0412   20.3282 C   0  0  0  0  0  0
  -30.4369  -12.6446   19.4973 C   0  0  0  0  0  0
  -29.5337  -12.5774   18.2469 C   0  0  0  0  0  0
  -28.0694  -12.3485   18.6681 C   0  0  0  0  0  0
  -27.6338  -13.2707   19.8364 C   0  0  2  0  0  0
  -28.6796  -13.3629   20.9686 C   0  0  0  0  0  0
  -25.2489  -13.8263   20.5772 C   0  0  0  0  0  0
  -24.1802  -13.0465   20.9189 C   0  0  0  0  0  0
  -24.6432  -11.6955   20.8691 C   0  0  0  0  0  0
  -23.9053  -10.4320   21.0384 C   0  0  0  0  0  0
  -24.3606   -9.4231   21.9184 C   0  0  0  0  0  0
  -23.6275   -8.2280   22.0777 C   0  0  0  0  0  0
  -22.4235   -8.0335   21.3576 C   0  0  0  0  0  0
  -21.9853   -9.0280   20.4682 C   0  0  0  0  0  0
  -22.7218  -10.2146   20.3060 C   0  0  0  0  0  0
  -21.6876   -6.0729   22.5244 C   0  0  0  0  0  0
  -21.4058   -6.5608   23.8200 C   0  0  0  0  0  0
  -21.3663   -5.6760   24.9127 C   0  0  0  0  0  0
  -21.6009   -4.3005   24.7192 C   0  0  0  0  0  0
  -21.8822   -3.8141   23.4329 C   0  0  0  0  0  0
  -21.9214   -4.6970   22.3387 C   0  0  0  0  0  0
  -22.7814  -13.5266   21.1823 C   0  0  0  0  0  0
  -22.1656   -4.2149   21.0979 F   0  0  0  0  0  0
  -21.5626   -3.4507   25.7701 F   0  0  0  0  0  0
  -29.9480  -13.7742   20.3505 N   0  0  0  0  0  0
  -26.2943  -12.9516   20.3293 N   0  0  0  0  0  0
  -25.9361  -11.6623   20.5658 N   0  0  0  0  0  0
  -22.0410  -12.8307   22.0371 N   0  0  0  0  0  0
  -25.4129  -15.2007   20.4313 N   0  0  0  0  0  0
  -31.7497  -15.0573   20.0722 O   0  0  0  0  0  0
  -21.6655   -6.8894   21.4217 O   0  0  0  0  0  0
  -22.3538  -14.5594   20.6680 O   0  0  0  0  0  0
  -24.6542  -31.8338   23.1793 C   0  0  0  0  0  0
  -25.9271  -32.4626   23.8255 C   0  0  1  0  0  0
  -27.2264  -27.0335   20.1522 C   0  0  0  0  0  0
  -25.5988  -33.8441   24.2166 N   0  0  0  0  0  0
  -23.4661  -30.4509   21.5226 C   0  0  2  0  0  0
  -24.9180  -28.8524   20.1225 C   0  0  0  0  0  0
  -22.7622  -29.4520   22.4773 C   0  0  0  0  0  0
  -18.0333  -28.1440   22.8418 C   0  0  0  0  0  0
  -24.1518  -36.7208   23.2641 C   0  0  0  0  0  0
  -26.0320  -30.6722   21.3938 C   0  0  0  0  0  0
  -26.1037  -29.2696   20.7391 C   0  0  0  0  0  0
  -27.2583  -28.3809   20.7312 C   0  0  0  0  0  0
  -26.0059  -26.7370   19.5070 C   0  0  0  0  0  0
  -24.8836  -27.5979   19.4985 C   0  0  0  0  0  0
  -23.7044  -29.7729   20.1499 C   0  0  0  0  0  0
  -25.4143  -36.2962   24.0300 C   0  0  1  0  0  0
  -20.5948  -28.3792   23.1147 C   0  0  2  0  0  0
  -20.6829  -26.9473   22.5370 C   0  0  0  0  0  0
  -19.5809  -26.6391   21.5181 C   0  0  0  0  0  0
  -18.1984  -26.7972   22.1586 C   0  0  0  0  0  0
  -19.1584  -28.8923   23.2791 C   0  0  0  0  0  0
  -18.9522  -30.1508   23.8849 C   0  0  0  0  0  0
  -17.6516  -30.6614   24.0569 C   0  0  0  0  0  0
  -25.9106  -34.9331   23.5041 C   0  0  0  0  0  0
  -16.5399  -29.9121   23.6326 C   0  0  0  0  0  0
  -16.7326  -28.6553   23.0319 C   0  0  0  0  0  0
  -26.4559  -31.6523   25.0728 C   0  0  0  0  0  0
  -25.3708  -31.3758   26.1407 C   0  0  0  0  0  0
  -27.0395  -30.2880   24.6388 C   0  0  0  0  0  0
  -27.6126  -32.4246   25.7501 C   0  0  0  0  0  0
  -27.5589  -37.1750   24.8453 C   0  0  0  0  0  0
  -21.4299  -29.3068   22.3478 N   0  0  0  0  0  0
  -26.4289  -37.3676   23.9417 N   0  0  0  0  0  0
  -24.7372  -31.0099   22.0862 N   0  0  0  0  0  0
  -23.4206  -28.8052   23.2965 O   0  0  0  0  0  0
  -28.2682  -25.9999   20.1331 O   0  0  0  0  0  0
  -26.5688  -34.8857   22.4631 O   0  0  0  0  0  0
  -23.5622  -32.1259   23.6934 O   0  0  0  0  0  0
  -30.7784  -17.8605   18.7454 C   0  0  0  0  0  0
  -29.4245  -19.0471   20.3425 C   0  0  0  0  0  0
  -31.0245  -19.0938   18.0971 C   0  0  0  0  0  0
  -30.5906  -20.3528   18.6524 C   0  0  0  0  0  0
  -29.6607  -20.4234   19.7593 C   0  0  0  0  0  0
  -30.0042  -17.7270   19.9082 C   0  0  0  0  0  0
  -28.8092  -23.1266   19.6932 C   0  0  0  0  0  0
  -28.7620  -23.0486   22.5052 C   0  0  0  0  0  0
  -27.9244  -24.2198   21.9468 C   0  0  0  0  0  0
  -28.6299  -21.7326   21.6990 C   0  0  0  0  0  0
  -28.0156  -24.4388   20.4221 C   0  0  1  0  0  0
  -31.2635  -21.5881   18.0637 C   0  0  0  0  0  0
  -31.8007  -18.9991   16.7651 C   0  0  0  0  0  0
  -29.0641  -21.8102   20.2914 N   0  0  0  0  0  0
  -29.7903  -16.2706   20.4316 N   0  0  0  0  0  0
  -29.0883  -23.3367   18.5103 O   0  0  0  0  0  0
  -31.5522  -17.8328   16.1589 F   0  0  0  0  0  0
  -31.4631  -19.9337   15.8812 F   0  0  0  0  0  0
  -33.1128  -19.0722   16.9900 F   0  0  0  0  0  0
  -31.4769  -12.7738   19.1978 H   0  0  0  0  0  0
  -30.3991  -11.7060   20.0504 H   0  0  0  0  0  0
  -29.8627  -11.7823   17.5722 H   0  0  0  0  0  0
  -29.6144  -13.5133   17.6865 H   0  0  0  0  0  0
  -27.9675  -11.3060   18.9689 H   0  0  0  0  0  0
  -27.4178  -12.4961   17.8076 H   0  0  0  0  0  0
  -27.5725  -14.2604   19.3864 H   0  0  0  0  0  0
  -28.7833  -12.4169   21.5005 H   0  0  0  0  0  0
  -28.3735  -14.0986   21.7128 H   0  0  0  0  0  0
  -25.2759   -9.5711   22.4754 H   0  0  0  0  0  0
  -23.9994   -7.4659   22.7489 H   0  0  0  0  0  0
  -21.0779   -8.8805   19.9003 H   0  0  0  0  0  0
  -22.3679  -10.9670   19.6174 H   0  0  0  0  0  0
  -21.2062   -7.6105   23.9682 H   0  0  0  0  0  0
  -21.1472   -6.0490   25.9031 H   0  0  0  0  0  0
  -22.0608   -2.7595   23.2827 H   0  0  0  0  0  0
  -22.3952  -11.9992   22.4865 H   0  0  0  0  0  0
  -21.1070  -13.1466   22.2573 H   0  0  0  0  0  0
  -24.6459  -15.8519   20.5588 H   0  0  0  0  0  0
  -26.2670  -15.6527   20.1314 H   0  0  0  0  0  0
  -26.7335  -32.5200   23.0975 H   0  0  0  0  0  0
  -25.0078  -33.9542   25.0277 H   0  0  0  0  0  0
  -22.7764  -31.2804   21.3484 H   0  0  0  0  0  0
  -23.3764  -35.9548   23.3242 H   0  0  0  0  0  0
  -24.3614  -36.8911   22.2069 H   0  0  0  0  0  0
  -23.7288  -37.6392   23.6730 H   0  0  0  0  0  0
  -26.1988  -31.4204   20.6179 H   0  0  0  0  0  0
  -26.8980  -30.7334   22.0417 H   0  0  0  0  0  0
  -28.1653  -28.7008   21.2224 H   0  0  0  0  0  0
  -25.9011  -25.7878   19.0014 H   0  0  0  0  0  0
  -23.9741  -27.2607   19.0161 H   0  0  0  0  0  0
  -23.8775  -30.5395   19.3935 H   0  0  0  0  0  0
  -22.8181  -29.2279   19.8209 H   0  0  0  0  0  0
  -25.1310  -36.1755   25.0774 H   0  0  0  0  0  0
  -21.0063  -28.3446   24.1267 H   0  0  0  0  0  0
  -20.5664  -26.2445   23.3626 H   0  0  0  0  0  0
  -21.6721  -26.7441   22.1219 H   0  0  0  0  0  0
  -19.6983  -25.6267   21.1316 H   0  0  0  0  0  0
  -19.6754  -27.3112   20.6643 H   0  0  0  0  0  0
  -17.4226  -26.6644   21.4029 H   0  0  0  0  0  0
  -18.0440  -26.0162   22.9037 H   0  0  0  0  0  0
  -19.7996  -30.7327   24.2243 H   0  0  0  0  0  0
  -17.5070  -31.6294   24.5170 H   0  0  0  0  0  0
  -15.5404  -30.3017   23.7667 H   0  0  0  0  0  0
  -15.8740  -28.0869   22.7060 H   0  0  0  0  0  0
  -24.5847  -30.7170   25.7703 H   0  0  0  0  0  0
  -24.8962  -32.2963   26.4801 H   0  0  0  0  0  0
  -25.7933  -30.8905   27.0212 H   0  0  0  0  0  0
  -26.3007  -29.6577   24.1425 H   0  0  0  0  0  0
  -27.3976  -29.7211   25.4995 H   0  0  0  0  0  0
  -27.8947  -30.4053   23.9731 H   0  0  0  0  0  0
  -27.2819  -33.3611   26.1998 H   0  0  0  0  0  0
  -28.3996  -32.6679   25.0346 H   0  0  0  0  0  0
  -28.0728  -31.8401   26.5479 H   0  0  0  0  0  0
  -28.2524  -38.0113   24.7499 H   0  0  0  0  0  0
  -28.1156  -36.2626   24.6237 H   0  0  0  0  0  0
  -27.2315  -37.1344   25.8856 H   0  0  0  0  0  0
  -20.9538  -29.8818   21.6646 H   0  0  0  0  0  0
  -26.0118  -38.2728   24.1432 H   0  0  0  0  0  0
  -31.2000  -16.9688   18.2968 H   0  0  0  0  0  0
  -28.7642  -18.9791   21.1953 H   0  0  0  0  0  0
  -28.4560  -22.8606   23.5372 H   0  0  0  0  0  0
  -29.8160  -23.3343   22.5547 H   0  0  0  0  0  0
  -28.2262  -25.1320   22.4633 H   0  0  0  0  0  0
  -26.8794  -24.0582   22.2092 H   0  0  0  0  0  0
  -27.6057  -21.3537   21.7309 H   0  0  0  0  0  0
  -29.2530  -21.0041   22.2219 H   0  0  0  0  0  0
  -27.0052  -24.2524   20.0617 H   0  0  0  0  0  0
  -32.3058  -21.3853   17.8064 H   0  0  0  0  0  0
  -31.3193  -22.4230   18.7591 H   0  0  0  0  0  0
  -30.7440  -21.8893   17.1510 H   0  0  0  0  0  0
  -28.8694  -16.1168   20.8121 H   0  0  0  0  0  0
  1 25  1  0  0  0
  1 30  2  0  0  0
  1 85  1  0  0  0
  2  3  1  0  0  0
  2 25  1  0  0  0
  2 90  1  0  0  0
  2 91  1  0  0  0
  3  4  1  0  0  0
  3 92  1  0  0  0
  3 93  1  0  0  0
  4  5  1  0  0  0
  4 94  1  0  0  0
  4 95  1  0  0  0
  5  6  1  0  0  0
  5 26  1  0  0  0
  5 96  1  0  0  0
  6 25  1  0  0  0
  6 97  1  0  0  0
  6 98  1  0  0  0
  7  8  2  0  0  0
  7 26  1  0  0  0
  7 29  1  0  0  0
  8  9  1  0  0  0
  8 22  1  0  0  0
  9 10  1  0  0  0
  9 27  2  0  0  0
 10 11  2  0  0  0
 10 15  1  0  0  0
 11 12  1  0  0  0
 11 99  1  0  0  0
 12 13  2  0  0  0
 12100  1  0  0  0
 13 14  1  0  0  0
 13 31  1  0  0  0
 14 15  2  0  0  0
 14101  1  0  0  0
 15102  1  0  0  0
 16 17  2  0  0  0
 16 21  1  0  0  0
 16 31  1  0  0  0
 17 18  1  0  0  0
 17103  1  0  0  0
 18 19  2  0  0  0
 18104  1  0  0  0
 19 20  1  0  0  0
 19 24  1  0  0  0
 20 21  2  0  0  0
 20105  1  0  0  0
 21 23  1  0  0  0
 22 28  1  0  0  0
 22 32  2  0  0  0
 26 27  1  0  0  0
 28106  1  0  0  0
 28107  1  0  0  0
 29108  1  0  0  0
 29109  1  0  0  0
 33 34  1  0  0  0
 33 66  1  0  0  0
 33 70  2  0  0  0
 34 36  1  0  0  0
 34 59  1  0  0  0
 34110  1  0  0  0
 35 44  2  0  0  0
 35 45  1  0  0  0
 35 68  1  0  0  0
 36 56  1  0  0  0
 36111  1  0  0  0
 37 39  1  0  0  0
 37 47  1  0  0  0
 37 66  1  0  0  0
 37112  1  0  0  0
 38 43  2  0  0  0
 38 46  1  0  0  0
 38 47  1  0  0  0
 39 64  1  0  0  0
 39 67  2  0  0  0
 40 52  1  0  0  0
 40 53  2  0  0  0
 40 58  1  0  0  0
 41113  1  0  0  0
 41114  1  0  0  0
 41115  1  0  0  0
 41 48  1  0  0  0
 42 43  1  0  0  0
 42 66  1  0  0  0
 42116  1  0  0  0
 42117  1  0  0  0
 43 44  1  0  0  0
 44118  1  0  0  0
 45 46  2  0  0  0
 45119  1  0  0  0
 46120  1  0  0  0
 47121  1  0  0  0
 47122  1  0  0  0
 48 56  1  0  0  0
 48 65  1  0  0  0
 48123  1  0  0  0
 49 50  1  0  0  0
 49 53  1  0  0  0
 49 64  1  0  0  0
 49124  1  0  0  0
 50 51  1  0  0  0
 50125  1  0  0  0
 50126  1  0  0  0
 51 52  1  0  0  0
 51127  1  0  0  0
 51128  1  0  0  0
 52129  1  0  0  0
 52130  1  0  0  0
 53 54  1  0  0  0
 54 55  2  0  0  0
 54131  1  0  0  0
 55 57  1  0  0  0
 55132  1  0  0  0
 56 69  2  0  0  0
 57 58  2  0  0  0
 57133  1  0  0  0
 58134  1  0  0  0
 59 60  1  0  0  0
 59 61  1  0  0  0
 59 62  1  0  0  0
 60135  1  0  0  0
 60136  1  0  0  0
 60137  1  0  0  0
 61138  1  0  0  0
 61139  1  0  0  0
 61140  1  0  0  0
 62141  1  0  0  0
 62142  1  0  0  0
 62143  1  0  0  0
 63 65  1  0  0  0
 63144  1  0  0  0
 63145  1  0  0  0
 63146  1  0  0  0
 64147  1  0  0  0
 65148  1  0  0  0
 68 81  1  0  0  0
 71 73  2  0  0  0
 71 76  1  0  0  0
 71149  1  0  0  0
 72 75  1  0  0  0
 72 76  2  0  0  0
 72150  1  0  0  0
 73 74  1  0  0  0
 73 83  1  0  0  0
 74 75  2  0  0  0
 74 82  1  0  0  0
 75 84  1  0  0  0
 76 85  1  0  0  0
 77 81  1  0  0  0
 77 84  1  0  0  0
 77 86  2  0  0  0
 78 79  1  0  0  0
 78 80  1  0  0  0
 78151  1  0  0  0
 78152  1  0  0  0
 79 81  1  0  0  0
 79153  1  0  0  0
 79154  1  0  0  0
 80 84  1  0  0  0
 80155  1  0  0  0
 80156  1  0  0  0
 81157  1  0  0  0
 82158  1  0  0  0
 82159  1  0  0  0
 82160  1  0  0  0
 83 87  1  0  0  0
 83 88  1  0  0  0
 83 89  1  0  0  0
 85161  1  0  0  0
M  ISO  4   1 100  68 101  81 101  85 100
M  END
> <chiral flag>
0

> <version>
0

> <s_m_source_file>
/data/baiqing/PycharmProjects/Reinvent-master-3.2/result/LINK_invent/BTK/process_docking_weight1_custom_product_contain_oxygen_bond_distance_aromatic_linkinvent_7_9_3/rearranged_h_0051.sdf

> <i_m_source_file_index>
29

> <r_mmod_Potential_Energy-OPLS-2005>
937.994567871094

> <r_mmod_Stretch_Energy-OPLS-2005>
391.814758300781

> <r_mmod_Bend_Energy-OPLS-2005>
306.507720947266

> <r_mmod_Torsional_Energy-OPLS-2005>
296.840606689453

> <r_mmod_Improper_Torsional_Energy-OPLS-2005>
5.15773248672485

> <r_mmod_Van_der_Waal_Energy-OPLS-2005>
155.670104980469

> <r_mmod_Electrostatic_Energy-OPLS-2005>
-272.591217041016

> <r_mmod_Solvation_Energy-OPLS-2005>
-221.813781738281

> <b_mmod_Minimization_Converged-OPLS-2005>
0

> <r_mmod_RMS_Derivative-OPLS-2005>
8.04481220245361

$$$$
29
                    3D
 Structure written by MMmdl.
160168  0  0  1  0            999 V2000
  -30.5854  -14.7958   20.4530 C   0  0  0  0  0  0
  -30.4323  -12.4976   19.4438 C   0  0  0  0  0  0
  -29.4960  -12.5061   18.2150 C   0  0  0  0  0  0
  -28.0246  -12.3276   18.6396 C   0  0  0  0  0  0
  -27.6299  -13.2327   19.8352 C   0  0  2  0  0  0
  -28.6832  -13.1909   20.9572 C   0  0  0  0  0  0
  -25.2463  -13.8174   20.5691 C   0  0  0  0  0  0
  -24.1790  -13.0401   20.9208 C   0  0  0  0  0  0
  -24.6394  -11.6887   20.8741 C   0  0  0  0  0  0
  -23.9091  -10.4261   21.0409 C   0  0  0  0  0  0
  -24.3637   -9.4195   21.9196 C   0  0  0  0  0  0
  -23.6300   -8.2233   22.0754 C   0  0  0  0  0  0
  -22.4296   -8.0279   21.3534 C   0  0  0  0  0  0
  -21.9940   -9.0253   20.4636 C   0  0  0  0  0  0
  -22.7269  -10.2131   20.3039 C   0  0  0  0  0  0
  -21.6859   -6.0740   22.5280 C   0  0  0  0  0  0
  -21.4020   -6.5653   23.8207 C   0  0  0  0  0  0
  -21.3644   -5.6817   24.9176 C   0  0  0  0  0  0
  -21.6039   -4.3088   24.7244 C   0  0  0  0  0  0
  -21.8814   -3.8159   23.4376 C   0  0  0  0  0  0
  -21.9200   -4.6960   22.3415 C   0  0  0  0  0  0
  -22.7805  -13.5160   21.1882 C   0  0  0  0  0  0
  -22.1667   -4.2126   21.0998 F   0  0  0  0  0  0
  -21.5617   -3.4584   25.7766 F   0  0  0  0  0  0
  -29.9659  -13.5688   20.3497 N   0  0  0  0  0  0
  -26.2898  -12.9393   20.3262 N   0  0  0  0  0  0
  -25.9320  -11.6525   20.5753 N   0  0  0  0  0  0
  -22.0489  -12.8119   22.0476 N   0  0  0  0  0  0
  -25.4080  -15.1901   20.4091 N   0  0  0  0  0  0
  -31.8019  -14.8822   20.2685 O   0  0  0  0  0  0
  -21.6644   -6.8886   21.4242 O   0  0  0  0  0  0
  -22.3448  -14.5451   20.6719 O   0  0  0  0  0  0
  -24.6313  -31.8540   23.1976 C   0  0  0  0  0  0
  -25.9135  -32.4749   23.8320 C   0  0  1  0  0  0
  -27.2163  -27.2466   20.1301 C   0  0  0  0  0  0
  -25.5925  -33.8556   24.2226 N   0  0  0  0  0  0
  -23.4286  -30.4776   21.5398 C   0  0  2  0  0  0
  -24.8758  -28.9162   20.1165 C   0  0  0  0  0  0
  -22.7485  -29.4615   22.4898 C   0  0  0  0  0  0
  -18.0285  -28.1405   22.8462 C   0  0  0  0  0  0
  -24.1493  -36.7270   23.2634 C   0  0  0  0  0  0
  -25.9770  -30.7619   21.3818 C   0  0  0  0  0  0
  -26.0491  -29.3822   20.7239 C   0  0  0  0  0  0
  -27.2252  -28.5614   20.7151 C   0  0  0  0  0  0
  -26.0194  -26.8458   19.5033 C   0  0  0  0  0  0
  -24.8668  -27.6565   19.4955 C   0  0  0  0  0  0
  -23.6482  -29.8069   20.1584 C   0  0  0  0  0  0
  -25.4126  -36.3060   24.0310 C   0  0  1  0  0  0
  -20.5882  -28.3719   23.1251 C   0  0  2  0  0  0
  -20.6778  -26.9434   22.5403 C   0  0  0  0  0  0
  -19.5766  -26.6396   21.5199 C   0  0  0  0  0  0
  -18.1942  -26.7943   22.1608 C   0  0  0  0  0  0
  -19.1536  -28.8871   23.2857 C   0  0  0  0  0  0
  -18.9467  -30.1463   23.8889 C   0  0  0  0  0  0
  -17.6471  -30.6600   24.0560 C   0  0  0  0  0  0
  -25.9071  -34.9434   23.5072 C   0  0  0  0  0  0
  -16.5356  -29.9102   23.6336 C   0  0  0  0  0  0
  -16.7274  -28.6523   23.0350 C   0  0  0  0  0  0
  -26.4511  -31.6586   25.0718 C   0  0  0  0  0  0
  -25.3715  -31.3747   26.1420 C   0  0  0  0  0  0
  -27.0362  -30.2997   24.6228 C   0  0  0  0  0  0
  -27.6063  -32.4329   25.7488 C   0  0  0  0  0  0
  -27.5582  -37.1795   24.8459 C   0  0  0  0  0  0
  -21.4192  -29.3062   22.3635 N   0  0  0  0  0  0
  -26.4297  -37.3766   23.9399 N   0  0  0  0  0  0
  -24.6977  -31.0499   22.0952 N   0  0  0  0  0  0
  -23.4177  -28.8164   23.3017 O   0  0  0  0  0  0
  -28.3140  -26.3535   20.1194 O   0  0  0  0  0  0
  -26.5656  -34.8909   22.4652 O   0  0  0  0  0  0
  -23.5465  -32.1357   23.7271 O   0  0  0  0  0  0
  -28.1330  -17.2480   23.1971 C   0  0  0  0  0  0
  -27.7787  -18.8007   21.3773 C   0  0  0  0  0  0
  -27.3162  -18.1872   22.5504 C   0  0  0  0  0  0
  -29.3021  -16.7677   22.5743 C   0  0  0  0  0  0
  -29.0070  -18.4228   20.7948 C   0  0  0  0  0  0
  -29.6179  -17.1463   21.2380 C   0  0  0  0  0  0
  -29.1212  -22.2402   20.4046 C   0  0  0  0  0  0
  -26.0163  -18.6413   23.1801 C   0  0  0  0  0  0
  -30.1588  -15.7978   23.3680 C   0  0  0  0  0  0
  -29.7265  -19.6394   20.0620 C   0  0  0  0  0  0
  -28.6400  -23.6110   19.6959 C   0  0  0  0  0  0
  -28.1305  -24.9113   20.5468 C   0  0  0  0  0  0
  -29.7855  -15.9386   20.3759 N   0  0  0  0  0  0
  -29.0287  -20.9959   19.7914 N   0  0  0  0  0  0
  -29.6558  -22.3288   21.5107 O   0  0  0  0  0  0
  -31.4651  -12.6541   19.1303 H   0  0  0  0  0  0
  -30.4025  -11.5296   19.9456 H   0  0  0  0  0  0
  -29.7814  -11.7215   17.5123 H   0  0  0  0  0  0
  -29.6036  -13.4481   17.6774 H   0  0  0  0  0  0
  -27.8845  -11.2801   18.9045 H   0  0  0  0  0  0
  -27.3585  -12.5142   17.7958 H   0  0  0  0  0  0
  -27.6073  -14.2495   19.4444 H   0  0  0  0  0  0
  -28.7426  -12.1957   21.3987 H   0  0  0  0  0  0
  -28.4062  -13.8783   21.7569 H   0  0  0  0  0  0
  -25.2783   -9.5662   22.4776 H   0  0  0  0  0  0
  -23.9988   -7.4629   22.7473 H   0  0  0  0  0  0
  -21.0894   -8.8755   19.8912 H   0  0  0  0  0  0
  -22.3775  -10.9651   19.6110 H   0  0  0  0  0  0
  -21.2009   -7.6160   23.9691 H   0  0  0  0  0  0
  -21.1464   -6.0561   25.9066 H   0  0  0  0  0  0
  -22.0595   -2.7611   23.2901 H   0  0  0  0  0  0
  -22.4218  -11.9885   22.4969 H   0  0  0  0  0  0
  -21.1069  -13.1051   22.2650 H   0  0  0  0  0  0
  -26.2631  -15.6520   20.1289 H   0  0  0  0  0  0
  -24.6235  -15.8285   20.4944 H   0  0  0  0  0  0
  -26.7188  -32.5388   23.1048 H   0  0  0  0  0  0
  -25.0055  -33.9707   25.0357 H   0  0  0  0  0  0
  -22.7233  -31.2990   21.3920 H   0  0  0  0  0  0
  -23.3767  -35.9595   23.3300 H   0  0  0  0  0  0
  -24.3575  -36.8902   22.2049 H   0  0  0  0  0  0
  -23.7257  -37.6467   23.6675 H   0  0  0  0  0  0
  -26.1198  -31.5214   20.6120 H   0  0  0  0  0  0
  -26.8537  -30.8081   22.0174 H   0  0  0  0  0  0
  -28.1287  -28.9173   21.1910 H   0  0  0  0  0  0
  -25.9657  -25.8799   19.0210 H   0  0  0  0  0  0
  -23.9682  -27.2930   19.0155 H   0  0  0  0  0  0
  -23.7734  -30.5811   19.4009 H   0  0  0  0  0  0
  -22.7652  -29.2413   19.8556 H   0  0  0  0  0  0
  -25.1323  -36.1892   25.0808 H   0  0  0  0  0  0
  -20.9973  -28.3331   24.1372 H   0  0  0  0  0  0
  -20.5672  -26.2345   23.3625 H   0  0  0  0  0  0
  -21.6657  -26.7471   22.1206 H   0  0  0  0  0  0
  -19.6949  -25.6304   21.1251 H   0  0  0  0  0  0
  -19.6715  -27.3186   20.6713 H   0  0  0  0  0  0
  -17.4209  -26.6648   21.4019 H   0  0  0  0  0  0
  -18.0367  -26.0096   22.9020 H   0  0  0  0  0  0
  -19.7949  -30.7266   24.2269 H   0  0  0  0  0  0
  -17.5042  -31.6286   24.5160 H   0  0  0  0  0  0
  -15.5364  -30.3015   23.7682 H   0  0  0  0  0  0
  -15.8666  -28.0853   22.7081 H   0  0  0  0  0  0
  -24.5894  -30.7103   25.7734 H   0  0  0  0  0  0
  -24.8904  -32.2924   26.4810 H   0  0  0  0  0  0
  -25.8008  -30.8934   27.0212 H   0  0  0  0  0  0
  -26.2968  -29.6753   24.1205 H   0  0  0  0  0  0
  -27.3979  -29.7263   25.4772 H   0  0  0  0  0  0
  -27.8871  -30.4267   23.9533 H   0  0  0  0  0  0
  -27.2673  -33.3626   26.2066 H   0  0  0  0  0  0
  -28.3878  -32.6892   25.0326 H   0  0  0  0  0  0
  -28.0725  -31.8451   26.5399 H   0  0  0  0  0  0
  -28.2592  -38.0095   24.7511 H   0  0  0  0  0  0
  -28.1087  -36.2630   24.6285 H   0  0  0  0  0  0
  -27.2290  -37.1431   25.8857 H   0  0  0  0  0  0
  -20.9385  -29.8753   21.6803 H   0  0  0  0  0  0
  -26.0162  -38.2832   24.1421 H   0  0  0  0  0  0
  -27.8468  -16.8733   24.1713 H   0  0  0  0  0  0
  -27.2401  -19.6613   21.0063 H   0  0  0  0  0  0
  -26.2074  -19.1622   24.1185 H   0  0  0  0  0  0
  -25.3687  -17.7884   23.3827 H   0  0  0  0  0  0
  -25.4767  -19.3195   22.5179 H   0  0  0  0  0  0
  -29.7411  -14.7934   23.3605 H   0  0  0  0  0  0
  -30.2278  -16.1249   24.4065 H   0  0  0  0  0  0
  -31.1755  -15.7638   22.9788 H   0  0  0  0  0  0
  -30.0999  -19.2644   19.1096 H   0  0  0  0  0  0
  -30.6224  -19.8529   20.6479 H   0  0  0  0  0  0
  -27.8790  -23.3567   18.9572 H   0  0  0  0  0  0
  -29.5008  -23.9336   19.1089 H   0  0  0  0  0  0
  -28.6124  -24.8565   21.5229 H   0  0  0  0  0  0
  -27.0764  -24.7471   20.7758 H   0  0  0  0  0  0
  -28.9171  -15.7040   19.9214 H   0  0  0  0  0  0
  -28.5494  -21.0163   18.9006 H   0  0  0  0  0  0
  1 25  1  0  0  0
  1 30  2  0  0  0
  1 83  1  0  0  0
  2  3  1  0  0  0
  2 25  1  0  0  0
  2 86  1  0  0  0
  2 87  1  0  0  0
  3  4  1  0  0  0
  3 88  1  0  0  0
  3 89  1  0  0  0
  4  5  1  0  0  0
  4 90  1  0  0  0
  4 91  1  0  0  0
  5  6  1  0  0  0
  5 26  1  0  0  0
  5 92  1  0  0  0
  6 25  1  0  0  0
  6 93  1  0  0  0
  6 94  1  0  0  0
  7  8  2  0  0  0
  7 26  1  0  0  0
  7 29  1  0  0  0
  8  9  1  0  0  0
  8 22  1  0  0  0
  9 10  1  0  0  0
  9 27  2  0  0  0
 10 11  2  0  0  0
 10 15  1  0  0  0
 11 12  1  0  0  0
 11 95  1  0  0  0
 12 13  2  0  0  0
 12 96  1  0  0  0
 13 14  1  0  0  0
 13 31  1  0  0  0
 14 15  2  0  0  0
 14 97  1  0  0  0
 15 98  1  0  0  0
 16 17  2  0  0  0
 16 21  1  0  0  0
 16 31  1  0  0  0
 17 18  1  0  0  0
 17 99  1  0  0  0
 18 19  2  0  0  0
 18100  1  0  0  0
 19 20  1  0  0  0
 19 24  1  0  0  0
 20 21  2  0  0  0
 20101  1  0  0  0
 21 23  1  0  0  0
 22 28  1  0  0  0
 22 32  2  0  0  0
 26 27  1  0  0  0
 28102  1  0  0  0
 28103  1  0  0  0
 29104  1  0  0  0
 29105  1  0  0  0
 33 34  1  0  0  0
 33 66  1  0  0  0
 33 70  2  0  0  0
 34 36  1  0  0  0
 34 59  1  0  0  0
 34106  1  0  0  0
 35 44  2  0  0  0
 35 45  1  0  0  0
 35 68  1  0  0  0
 36 56  1  0  0  0
 36107  1  0  0  0
 37 39  1  0  0  0
 37 47  1  0  0  0
 37 66  1  0  0  0
 37108  1  0  0  0
 38 43  2  0  0  0
 38 46  1  0  0  0
 38 47  1  0  0  0
 39 64  1  0  0  0
 39 67  2  0  0  0
 40 52  1  0  0  0
 40 53  2  0  0  0
 40 58  1  0  0  0
 41109  1  0  0  0
 41110  1  0  0  0
 41111  1  0  0  0
 41 48  1  0  0  0
 42 43  1  0  0  0
 42 66  1  0  0  0
 42112  1  0  0  0
 42113  1  0  0  0
 43 44  1  0  0  0
 44114  1  0  0  0
 45 46  2  0  0  0
 45115  1  0  0  0
 46116  1  0  0  0
 47117  1  0  0  0
 47118  1  0  0  0
 48 56  1  0  0  0
 48 65  1  0  0  0
 48119  1  0  0  0
 49 50  1  0  0  0
 49 53  1  0  0  0
 49 64  1  0  0  0
 49120  1  0  0  0
 50 51  1  0  0  0
 50121  1  0  0  0
 50122  1  0  0  0
 51 52  1  0  0  0
 51123  1  0  0  0
 51124  1  0  0  0
 52125  1  0  0  0
 52126  1  0  0  0
 53 54  1  0  0  0
 54 55  2  0  0  0
 54127  1  0  0  0
 55 57  1  0  0  0
 55128  1  0  0  0
 56 69  2  0  0  0
 57 58  2  0  0  0
 57129  1  0  0  0
 58130  1  0  0  0
 59 60  1  0  0  0
 59 61  1  0  0  0
 59 62  1  0  0  0
 60131  1  0  0  0
 60132  1  0  0  0
 60133  1  0  0  0
 61134  1  0  0  0
 61135  1  0  0  0
 61136  1  0  0  0
 62137  1  0  0  0
 62138  1  0  0  0
 62139  1  0  0  0
 63 65  1  0  0  0
 63140  1  0  0  0
 63141  1  0  0  0
 63142  1  0  0  0
 64143  1  0  0  0
 65144  1  0  0  0
 68 82  1  0  0  0
 71 73  2  0  0  0
 71 74  1  0  0  0
 71145  1  0  0  0
 72 73  1  0  0  0
 72 75  2  0  0  0
 72146  1  0  0  0
 73 78  1  0  0  0
 74 76  2  0  0  0
 74 79  1  0  0  0
 75 76  1  0  0  0
 75 80  1  0  0  0
 76 83  1  0  0  0
 77 81  1  0  0  0
 77 84  1  0  0  0
 77 85  2  0  0  0
 78147  1  0  0  0
 78148  1  0  0  0
 78149  1  0  0  0
 79150  1  0  0  0
 79151  1  0  0  0
 79152  1  0  0  0
 80 84  1  0  0  0
 80153  1  0  0  0
 80154  1  0  0  0
 81 82  1  0  0  0
 81155  1  0  0  0
 81156  1  0  0  0
 82157  1  0  0  0
 82158  1  0  0  0
 83159  1  0  0  0
 84160  1  0  0  0
M  ISO  4   1 100  68 101  82 101  83 100
M  END
> <chiral flag>
0

> <version>
0

> <s_m_source_file>
/data/baiqing/PycharmProjects/Reinvent-master-3.2/result/LINK_invent/BTK/process_docking_weight1_custom_product_contain_oxygen_bond_distance_aromatic_linkinvent_7_9_3/rearranged_h_0051.sdf

> <i_m_source_file_index>
30

> <r_mmod_Potential_Energy-OPLS-2005>
340.784851074219

> <r_mmod_Stretch_Energy-OPLS-2005>
146.899719238281

> <r_mmod_Bend_Energy-OPLS-2005>
201.995132446289

> <r_mmod_Torsional_Energy-OPLS-2005>
415.222717285156

> <r_mmod_Improper_Torsional_Energy-OPLS-2005>
29.0663833618164

> <r_mmod_Van_der_Waal_Energy-OPLS-2005>
131.164932250977

> <r_mmod_Electrostatic_Energy-OPLS-2005>
-453.091064453125

> <r_mmod_Solvation_Energy-OPLS-2005>
-235.51611328125

> <b_mmod_Minimization_Converged-OPLS-2005>
0

> <r_mmod_RMS_Derivative-OPLS-2005>
3.10340738296509

$$$$
30
                    3D
 Structure written by MMmdl.
157165  0  0  1  0            999 V2000
  -30.6952  -14.4743   20.5161 C   0  0  0  0  0  0
  -30.4253  -12.2885   19.4398 C   0  0  0  0  0  0
  -29.5054  -12.4906   18.2159 C   0  0  0  0  0  0
  -28.0234  -12.3578   18.6219 C   0  0  0  0  0  0
  -27.6634  -13.2048   19.8733 C   0  0  2  0  0  0
  -28.7048  -13.0033   21.0014 C   0  0  0  0  0  0
  -25.2581  -13.8152   20.5660 C   0  0  0  0  0  0
  -24.1827  -13.0439   20.9163 C   0  0  0  0  0  0
  -24.6386  -11.6904   20.8725 C   0  0  0  0  0  0
  -23.9062  -10.4286   21.0410 C   0  0  0  0  0  0
  -24.3614   -9.4202   21.9188 C   0  0  0  0  0  0
  -23.6276   -8.2248   22.0769 C   0  0  0  0  0  0
  -22.4250   -8.0291   21.3567 C   0  0  0  0  0  0
  -21.9891   -9.0268   20.4675 C   0  0  0  0  0  0
  -22.7236  -10.2139   20.3070 C   0  0  0  0  0  0
  -21.6844   -6.0738   22.5284 C   0  0  0  0  0  0
  -21.4019   -6.5638   23.8217 C   0  0  0  0  0  0
  -21.3659   -5.6786   24.9176 C   0  0  0  0  0  0
  -21.6045   -4.3054   24.7221 C   0  0  0  0  0  0
  -21.8817   -3.8146   23.4337 C   0  0  0  0  0  0
  -21.9183   -4.6965   22.3401 C   0  0  0  0  0  0
  -22.7852  -13.5251   21.1813 C   0  0  0  0  0  0
  -22.1652   -4.2167   21.0970 F   0  0  0  0  0  0
  -21.5622   -3.4536   25.7732 F   0  0  0  0  0  0
  -30.0429  -13.2848   20.4518 N   0  0  0  0  0  0
  -26.3029  -12.9328   20.3338 N   0  0  0  0  0  0
  -25.9313  -11.6494   20.5751 N   0  0  0  0  0  0
  -22.0475  -12.8278   22.0392 N   0  0  0  0  0  0
  -25.4283  -15.1875   20.4068 N   0  0  0  0  0  0
  -31.8438  -14.6364   20.0938 O   0  0  0  0  0  0
  -21.6634   -6.8882   21.4244 O   0  0  0  0  0  0
  -22.3543  -14.5550   20.6637 O   0  0  0  0  0  0
  -24.6152  -31.8668   23.2092 C   0  0  0  0  0  0
  -25.9051  -32.4815   23.8381 C   0  0  1  0  0  0
  -27.2297  -27.4308   20.1048 C   0  0  0  0  0  0
  -25.5904  -33.8611   24.2312 N   0  0  0  0  0  0
  -23.4027  -30.4918   21.5490 C   0  0  2  0  0  0
  -24.8497  -28.9580   20.1120 C   0  0  0  0  0  0
  -22.7411  -29.4659   22.4975 C   0  0  0  0  0  0
  -18.0278  -28.1382   22.8487 C   0  0  0  0  0  0
  -24.1487  -36.7315   23.2631 C   0  0  0  0  0  0
  -25.9315  -30.8342   21.3609 C   0  0  0  0  0  0
  -26.0105  -29.4690   20.7077 C   0  0  0  0  0  0
  -27.2075  -28.7147   20.6972 C   0  0  0  0  0  0
  -26.0564  -26.9387   19.4926 C   0  0  0  0  0  0
  -24.8680  -27.6928   19.4994 C   0  0  0  0  0  0
  -23.6112  -29.8254   20.1630 C   0  0  0  0  0  0
  -25.4102  -36.3103   24.0331 C   0  0  1  0  0  0
  -20.5867  -28.3669   23.1312 C   0  0  2  0  0  0
  -20.6772  -26.9402   22.5415 C   0  0  0  0  0  0
  -19.5751  -26.6383   21.5215 C   0  0  0  0  0  0
  -18.1928  -26.7932   22.1617 C   0  0  0  0  0  0
  -19.1528  -28.8842   23.2899 C   0  0  0  0  0  0
  -18.9460  -30.1447   23.8912 C   0  0  0  0  0  0
  -17.6461  -30.6581   24.0573 C   0  0  0  0  0  0
  -25.9036  -34.9471   23.5117 C   0  0  0  0  0  0
  -16.5350  -29.9088   23.6328 C   0  0  0  0  0  0
  -16.7266  -28.6508   23.0341 C   0  0  0  0  0  0
  -26.4480  -31.6594   25.0706 C   0  0  0  0  0  0
  -25.3748  -31.3733   26.1463 C   0  0  0  0  0  0
  -27.0286  -30.3022   24.6081 C   0  0  0  0  0  0
  -27.6055  -32.4311   25.7466 C   0  0  0  0  0  0
  -27.5590  -37.1791   24.8450 C   0  0  0  0  0  0
  -21.4140  -29.3032   22.3710 N   0  0  0  0  0  0
  -26.4282  -37.3795   23.9426 N   0  0  0  0  0  0
  -24.6678  -31.0784   22.0983 N   0  0  0  0  0  0
  -23.4186  -28.8203   23.3014 O   0  0  0  0  0  0
  -28.3731  -26.6611   20.1220 O   0  0  0  0  0  0
  -26.5598  -34.8932   22.4679 O   0  0  0  0  0  0
  -23.5351  -32.1417   23.7494 O   0  0  0  0  0  0
  -30.6390  -18.2044   21.9812 C   0  0  0  0  0  0
  -30.8083  -19.4726   22.5734 C   0  0  0  0  0  0
  -29.6860  -19.2822   20.0190 C   0  0  0  0  0  0
  -30.0796  -18.0999   20.6913 C   0  0  0  0  0  0
  -29.8352  -20.5629   20.6093 C   0  0  0  0  0  0
  -30.4208  -20.6459   21.8941 C   0  0  0  0  0  0
  -28.9394  -24.2326   20.0667 C   0  0  0  0  0  0
  -27.8218  -22.6198   21.5740 C   0  0  0  0  0  0
  -29.9348  -16.7583   19.9696 C   0  0  0  0  0  0
  -29.4185  -21.8087   19.8035 C   0  0  0  0  0  0
  -28.2368  -25.3965   20.8135 C   0  0  0  0  0  0
  -29.9066  -15.5298   20.7804 N   0  0  0  0  0  0
  -28.7760  -22.9505   20.5064 N   0  0  0  0  0  0
  -29.6395  -24.5030   19.0837 O   0  0  0  0  0  0
  -30.6274  -21.8487   22.4824 F   0  0  0  0  0  0
  -31.4745  -12.3651   19.1492 H   0  0  0  0  0  0
  -30.3052  -11.2828   19.8467 H   0  0  0  0  0  0
  -29.7448  -11.7632   17.4388 H   0  0  0  0  0  0
  -29.6828  -13.4726   17.7739 H   0  0  0  0  0  0
  -27.8284  -11.3033   18.8207 H   0  0  0  0  0  0
  -27.3783  -12.6310   17.7867 H   0  0  0  0  0  0
  -27.7022  -14.2477   19.5617 H   0  0  0  0  0  0
  -28.6700  -11.9790   21.3703 H   0  0  0  0  0  0
  -28.4766  -13.6368   21.8605 H   0  0  0  0  0  0
  -25.2781   -9.5651   22.4740 H   0  0  0  0  0  0
  -23.9999   -7.4618   22.7458 H   0  0  0  0  0  0
  -21.0840   -8.8800   19.8955 H   0  0  0  0  0  0
  -22.3735  -10.9674   19.6161 H   0  0  0  0  0  0
  -21.2036   -7.6149   23.9728 H   0  0  0  0  0  0
  -21.1476   -6.0516   25.9077 H   0  0  0  0  0  0
  -22.0593   -2.7608   23.2837 H   0  0  0  0  0  0
  -22.4076  -11.9984   22.4878 H   0  0  0  0  0  0
  -21.1093  -13.1318   22.2548 H   0  0  0  0  0  0
  -24.6588  -15.8392   20.5150 H   0  0  0  0  0  0
  -26.2791  -15.6312   20.0868 H   0  0  0  0  0  0
  -26.7122  -32.5533   23.1147 H   0  0  0  0  0  0
  -25.0071  -33.9770   25.0470 H   0  0  0  0  0  0
  -22.6913  -31.3088   21.4105 H   0  0  0  0  0  0
  -23.3747  -35.9647   23.3272 H   0  0  0  0  0  0
  -24.3598  -36.8954   22.2049 H   0  0  0  0  0  0
  -23.7238  -37.6512   23.6661 H   0  0  0  0  0  0
  -26.0426  -31.5998   20.5917 H   0  0  0  0  0  0
  -26.8194  -30.8880   21.9783 H   0  0  0  0  0  0
  -28.1043  -29.1025   21.1607 H   0  0  0  0  0  0
  -26.0588  -25.9683   19.0157 H   0  0  0  0  0  0
  -23.9774  -27.2952   19.0323 H   0  0  0  0  0  0
  -23.7217  -30.6011   19.4041 H   0  0  0  0  0  0
  -22.7338  -29.2479   19.8660 H   0  0  0  0  0  0
  -25.1271  -36.1953   25.0822 H   0  0  0  0  0  0
  -20.9968  -28.3249   24.1426 H   0  0  0  0  0  0
  -20.5676  -26.2277   23.3608 H   0  0  0  0  0  0
  -21.6646  -26.7449   22.1210 H   0  0  0  0  0  0
  -19.6915  -25.6293   21.1240 H   0  0  0  0  0  0
  -19.6695  -27.3198   20.6747 H   0  0  0  0  0  0
  -17.4197  -26.6677   21.4021 H   0  0  0  0  0  0
  -18.0330  -26.0070   22.9010 H   0  0  0  0  0  0
  -19.7936  -30.7263   24.2287 H   0  0  0  0  0  0
  -17.5016  -31.6262   24.5170 H   0  0  0  0  0  0
  -15.5354  -30.2995   23.7642 H   0  0  0  0  0  0
  -15.8667  -28.0835   22.7042 H   0  0  0  0  0  0
  -24.5900  -30.7095   25.7826 H   0  0  0  0  0  0
  -24.8971  -32.2907   26.4910 H   0  0  0  0  0  0
  -25.8100  -30.8906   27.0218 H   0  0  0  0  0  0
  -26.2812  -29.6798   24.1140 H   0  0  0  0  0  0
  -27.4053  -29.7256   25.4538 H   0  0  0  0  0  0
  -27.8662  -30.4328   23.9222 H   0  0  0  0  0  0
  -27.2661  -33.3588   26.2091 H   0  0  0  0  0  0
  -28.3839  -32.6906   25.0276 H   0  0  0  0  0  0
  -28.0750  -31.8407   26.5344 H   0  0  0  0  0  0
  -28.2567  -38.0128   24.7558 H   0  0  0  0  0  0
  -28.1125  -36.2667   24.6178 H   0  0  0  0  0  0
  -27.2331  -37.1331   25.8857 H   0  0  0  0  0  0
  -20.9298  -29.8746   21.6927 H   0  0  0  0  0  0
  -26.0165  -38.2859   24.1473 H   0  0  0  0  0  0
  -30.9617  -17.3209   22.5141 H   0  0  0  0  0  0
  -31.2525  -19.5488   23.5550 H   0  0  0  0  0  0
  -29.2734  -19.2049   19.0224 H   0  0  0  0  0  0
  -26.8078  -22.9099   21.2963 H   0  0  0  0  0  0
  -28.0877  -23.1281   22.5016 H   0  0  0  0  0  0
  -27.7796  -21.5553   21.7996 H   0  0  0  0  0  0
  -30.7136  -16.7098   19.2059 H   0  0  0  0  0  0
  -28.9942  -16.7755   19.4165 H   0  0  0  0  0  0
  -28.7374  -21.4984   19.0099 H   0  0  0  0  0  0
  -30.3265  -22.1377   19.2967 H   0  0  0  0  0  0
  -28.6984  -25.4961   21.7963 H   0  0  0  0  0  0
  -27.1928  -25.1363   20.9898 H   0  0  0  0  0  0
  -29.0128  -15.3011   21.1866 H   0  0  0  0  0  0
  1 25  1  0  0  0
  1 30  2  0  0  0
  1 82  1  0  0  0
  2  3  1  0  0  0
  2 25  1  0  0  0
  2 86  1  0  0  0
  2 87  1  0  0  0
  3  4  1  0  0  0
  3 88  1  0  0  0
  3 89  1  0  0  0
  4  5  1  0  0  0
  4 90  1  0  0  0
  4 91  1  0  0  0
  5  6  1  0  0  0
  5 26  1  0  0  0
  5 92  1  0  0  0
  6 25  1  0  0  0
  6 93  1  0  0  0
  6 94  1  0  0  0
  7  8  2  0  0  0
  7 26  1  0  0  0
  7 29  1  0  0  0
  8  9  1  0  0  0
  8 22  1  0  0  0
  9 10  1  0  0  0
  9 27  2  0  0  0
 10 11  2  0  0  0
 10 15  1  0  0  0
 11 12  1  0  0  0
 11 95  1  0  0  0
 12 13  2  0  0  0
 12 96  1  0  0  0
 13 14  1  0  0  0
 13 31  1  0  0  0
 14 15  2  0  0  0
 14 97  1  0  0  0
 15 98  1  0  0  0
 16 17  2  0  0  0
 16 21  1  0  0  0
 16 31  1  0  0  0
 17 18  1  0  0  0
 17 99  1  0  0  0
 18 19  2  0  0  0
 18100  1  0  0  0
 19 20  1  0  0  0
 19 24  1  0  0  0
 20 21  2  0  0  0
 20101  1  0  0  0
 21 23  1  0  0  0
 22 28  1  0  0  0
 22 32  2  0  0  0
 26 27  1  0  0  0
 28102  1  0  0  0
 28103  1  0  0  0
 29104  1  0  0  0
 29105  1  0  0  0
 33 34  1  0  0  0
 33 66  1  0  0  0
 33 70  2  0  0  0
 34 36  1  0  0  0
 34 59  1  0  0  0
 34106  1  0  0  0
 35 44  2  0  0  0
 35 45  1  0  0  0
 35 68  1  0  0  0
 36 56  1  0  0  0
 36107  1  0  0  0
 37 39  1  0  0  0
 37 47  1  0  0  0
 37 66  1  0  0  0
 37108  1  0  0  0
 38 43  2  0  0  0
 38 46  1  0  0  0
 38 47  1  0  0  0
 39 64  1  0  0  0
 39 67  2  0  0  0
 40 52  1  0  0  0
 40 53  2  0  0  0
 40 58  1  0  0  0
 41109  1  0  0  0
 41110  1  0  0  0
 41111  1  0  0  0
 41 48  1  0  0  0
 42 43  1  0  0  0
 42 66  1  0  0  0
 42112  1  0  0  0
 42113  1  0  0  0
 43 44  1  0  0  0
 44114  1  0  0  0
 45 46  2  0  0  0
 45115  1  0  0  0
 46116  1  0  0  0
 47117  1  0  0  0
 47118  1  0  0  0
 48 56  1  0  0  0
 48 65  1  0  0  0
 48119  1  0  0  0
 49 50  1  0  0  0
 49 53  1  0  0  0
 49 64  1  0  0  0
 49120  1  0  0  0
 50 51  1  0  0  0
 50121  1  0  0  0
 50122  1  0  0  0
 51 52  1  0  0  0
 51123  1  0  0  0
 51124  1  0  0  0
 52125  1  0  0  0
 52126  1  0  0  0
 53 54  1  0  0  0
 54 55  2  0  0  0
 54127  1  0  0  0
 55 57  1  0  0  0
 55128  1  0  0  0
 56 69  2  0  0  0
 57 58  2  0  0  0
 57129  1  0  0  0
 58130  1  0  0  0
 59 60  1  0  0  0
 59 61  1  0  0  0
 59 62  1  0  0  0
 60131  1  0  0  0
 60132  1  0  0  0
 60133  1  0  0  0
 61134  1  0  0  0
 61135  1  0  0  0
 61136  1  0  0  0
 62137  1  0  0  0
 62138  1  0  0  0
 62139  1  0  0  0
 63 65  1  0  0  0
 63140  1  0  0  0
 63141  1  0  0  0
 63142  1  0  0  0
 64143  1  0  0  0
 65144  1  0  0  0
 68 81  1  0  0  0
 71 72  2  0  0  0
 71 74  1  0  0  0
 71145  1  0  0  0
 72 76  1  0  0  0
 72146  1  0  0  0
 73 74  2  0  0  0
 73 75  1  0  0  0
 73147  1  0  0  0
 74 79  1  0  0  0
 75 76  2  0  0  0
 75 80  1  0  0  0
 76 85  1  0  0  0
 77 81  1  0  0  0
 77 83  1  0  0  0
 77 84  2  0  0  0
 78 83  1  0  0  0
 78148  1  0  0  0
 78149  1  0  0  0
 78150  1  0  0  0
 79 82  1  0  0  0
 79151  1  0  0  0
 79152  1  0  0  0
 80 83  1  0  0  0
 80153  1  0  0  0
 80154  1  0  0  0
 81155  1  0  0  0
 81156  1  0  0  0
 82157  1  0  0  0
M  ISO  4   1 100  68 101  81 101  82 100
M  END
> <chiral flag>
0

> <version>
0

> <s_m_source_file>
/data/baiqing/PycharmProjects/Reinvent-master-3.2/result/LINK_invent/BTK/process_docking_weight1_custom_product_contain_oxygen_bond_distance_aromatic_linkinvent_7_9_3/rearranged_h_0051.sdf

> <i_m_source_file_index>
31

> <r_mmod_Potential_Energy-OPLS-2005>
-42.6013259887695

> <r_mmod_Stretch_Energy-OPLS-2005>
42.1095008850098

> <r_mmod_Bend_Energy-OPLS-2005>
96.9931182861328

> <r_mmod_Torsional_Energy-OPLS-2005>
247.485137939453

> <r_mmod_Improper_Torsional_Energy-OPLS-2005>
10.3142204284668

> <r_mmod_Van_der_Waal_Energy-OPLS-2005>
162.693984985352

> <r_mmod_Electrostatic_Energy-OPLS-2005>
-381.980560302734

> <r_mmod_Solvation_Energy-OPLS-2005>
-235.632049560547

> <b_mmod_Minimization_Converged-OPLS-2005>
0

> <r_mmod_RMS_Derivative-OPLS-2005>
2.28118562698364

$$$$
31
                    3D
 Structure written by MMmdl.
169177  0  0  1  0            999 V2000
  -30.7158  -14.6034   20.4969 C   0  0  0  0  0  0
  -30.4258  -12.3737   19.4511 C   0  0  0  0  0  0
  -29.5081  -12.4986   18.2196 C   0  0  0  0  0  0
  -28.0312  -12.3436   18.6327 C   0  0  0  0  0  0
  -27.6539  -13.2318   19.8489 C   0  0  2  0  0  0
  -28.7030  -13.1412   20.9818 C   0  0  0  0  0  0
  -25.2527  -13.8231   20.5670 C   0  0  0  0  0  0
  -24.1822  -13.0477   20.9172 C   0  0  0  0  0  0
  -24.6424  -11.6943   20.8754 C   0  0  0  0  0  0
  -23.9096  -10.4316   21.0417 C   0  0  0  0  0  0
  -24.3644   -9.4217   21.9183 C   0  0  0  0  0  0
  -23.6301   -8.2265   22.0781 C   0  0  0  0  0  0
  -22.4273   -8.0284   21.3584 C   0  0  0  0  0  0
  -21.9909   -9.0263   20.4688 C   0  0  0  0  0  0
  -22.7264  -10.2126   20.3067 C   0  0  0  0  0  0
  -21.6840   -6.0718   22.5300 C   0  0  0  0  0  0
  -21.4018   -6.5634   23.8230 C   0  0  0  0  0  0
  -21.3644   -5.6791   24.9187 C   0  0  0  0  0  0
  -21.6036   -4.3055   24.7258 C   0  0  0  0  0  0
  -21.8813   -3.8131   23.4387 C   0  0  0  0  0  0
  -21.9188   -4.6942   22.3425 C   0  0  0  0  0  0
  -22.7828  -13.5222   21.1828 C   0  0  0  0  0  0
  -22.1646   -4.2116   21.1007 F   0  0  0  0  0  0
  -21.5623   -3.4536   25.7774 F   0  0  0  0  0  0
  -30.0209  -13.4288   20.4017 N   0  0  0  0  0  0
  -26.3008  -12.9454   20.3263 N   0  0  0  0  0  0
  -25.9368  -11.6597   20.5773 N   0  0  0  0  0  0
  -22.0459  -12.8244   22.0391 N   0  0  0  0  0  0
  -25.4174  -15.1975   20.4075 N   0  0  0  0  0  0
  -31.8877  -14.6633   20.1183 O   0  0  0  0  0  0
  -21.6646   -6.8862   21.4259 O   0  0  0  0  0  0
  -22.3511  -14.5503   20.6607 O   0  0  0  0  0  0
  -24.6187  -31.8652   23.2106 C   0  0  0  0  0  0
  -25.9052  -32.4829   23.8409 C   0  0  1  0  0  0
  -27.2260  -27.3768   20.0919 C   0  0  0  0  0  0
  -25.5904  -33.8642   24.2332 N   0  0  0  0  0  0
  -23.4116  -30.4916   21.5516 C   0  0  2  0  0  0
  -24.8548  -28.9640   20.1147 C   0  0  0  0  0  0
  -22.7445  -29.4646   22.4969 C   0  0  0  0  0  0
  -18.0280  -28.1393   22.8490 C   0  0  0  0  0  0
  -24.1486  -36.7284   23.2645 C   0  0  0  0  0  0
  -25.9507  -30.8130   21.3758 C   0  0  0  0  0  0
  -26.0259  -29.4479   20.7146 C   0  0  0  0  0  0
  -27.2130  -28.6646   20.6989 C   0  0  0  0  0  0
  -26.0247  -26.9383   19.4776 C   0  0  0  0  0  0
  -24.8536  -27.7104   19.4941 C   0  0  0  0  0  0
  -23.6226  -29.8351   20.1635 C   0  0  0  0  0  0
  -25.4115  -36.3118   24.0346 C   0  0  1  0  0  0
  -20.5881  -28.3665   23.1297 C   0  0  2  0  0  0
  -20.6775  -26.9386   22.5413 C   0  0  0  0  0  0
  -19.5740  -26.6388   21.5216 C   0  0  0  0  0  0
  -18.1924  -26.7943   22.1625 C   0  0  0  0  0  0
  -19.1537  -28.8841   23.2898 C   0  0  0  0  0  0
  -18.9453  -30.1457   23.8879 C   0  0  0  0  0  0
  -17.6454  -30.6589   24.0564 C   0  0  0  0  0  0
  -25.9035  -34.9479   23.5137 C   0  0  0  0  0  0
  -16.5344  -29.9081   23.6347 C   0  0  0  0  0  0
  -16.7267  -28.6516   23.0338 C   0  0  0  0  0  0
  -26.4460  -31.6636   25.0757 C   0  0  0  0  0  0
  -25.3733  -31.3727   26.1501 C   0  0  0  0  0  0
  -27.0288  -30.3080   24.6163 C   0  0  0  0  0  0
  -27.6039  -32.4350   25.7502 C   0  0  0  0  0  0
  -27.5580  -37.1806   24.8468 C   0  0  0  0  0  0
  -21.4165  -29.3042   22.3707 N   0  0  0  0  0  0
  -26.4286  -37.3814   23.9422 N   0  0  0  0  0  0
  -24.6795  -31.0702   22.1034 N   0  0  0  0  0  0
  -23.4178  -28.8140   23.3004 O   0  0  0  0  0  0
  -28.3661  -26.5664   20.1109 O   0  0  0  0  0  0
  -26.5575  -34.8923   22.4681 O   0  0  0  0  0  0
  -23.5353  -32.1414   23.7446 O   0  0  0  0  0  0
  -29.8701  -18.2970   20.4931 C   0  0  0  0  0  0
  -31.8815  -17.3004   21.4052 C   0  0  0  0  0  0
  -30.4699  -19.6124   20.4959 C   0  0  0  0  0  0
  -31.8318  -19.7096   20.9110 C   0  0  0  0  0  0
  -30.5815  -17.1101   20.8890 C   0  0  0  0  0  0
  -32.4949  -18.5640   21.4046 C   0  0  0  0  0  0
  -29.2131  -23.2121   21.0638 C   0  0  0  0  0  0
  -28.3723  -21.1528   22.0398 C   0  0  0  0  0  0
  -33.2366  -21.6151   23.0499 C   0  0  0  0  0  0
  -33.0543  -23.3260   21.3042 C   0  0  0  0  0  0
  -29.6958  -20.8852   19.9775 C   0  0  0  0  0  0
  -32.6716  -20.9759   20.7144 C   0  0  0  0  0  0
  -29.3771  -24.1416   19.8290 C   0  0  0  0  0  0
  -28.2101  -25.1842   19.6557 C   0  0  0  0  0  0
  -30.0341  -15.7508   20.8106 N   0  0  0  0  0  0
  -29.1537  -21.8357   20.9992 N   0  0  0  0  0  0
  -32.5722  -22.0053   21.7843 N   0  3  0  0  0  0
  -29.0643  -23.7851   22.1470 O   0  0  0  0  0  0
  -33.7691  -18.6597   21.8552 F   0  0  0  0  0  0
  -31.4737  -12.4509   19.1476 H   0  0  0  0  0  0
  -30.3237  -11.3922   19.9120 H   0  0  0  0  0  0
  -29.7700  -11.7448   17.4754 H   0  0  0  0  0  0
  -29.6574  -13.4677   17.7376 H   0  0  0  0  0  0
  -27.8724  -11.2945   18.8814 H   0  0  0  0  0  0
  -27.3724  -12.5589   17.7889 H   0  0  0  0  0  0
  -27.6595  -14.2558   19.4775 H   0  0  0  0  0  0
  -28.7124  -12.1537   21.4436 H   0  0  0  0  0  0
  -28.4695  -13.8503   21.7783 H   0  0  0  0  0  0
  -25.2805   -9.5647   22.4735 H   0  0  0  0  0  0
  -23.9972   -7.4659   22.7520 H   0  0  0  0  0  0
  -21.0809   -8.8798   19.9040 H   0  0  0  0  0  0
  -22.3735  -10.9640   19.6149 H   0  0  0  0  0  0
  -21.2028   -7.6136   23.9726 H   0  0  0  0  0  0
  -21.1456   -6.0525   25.9087 H   0  0  0  0  0  0
  -22.0605   -2.7588   23.2922 H   0  0  0  0  0  0
  -22.4035  -11.9903   22.4810 H   0  0  0  0  0  0
  -21.1104  -13.1335   22.2611 H   0  0  0  0  0  0
  -24.6458  -15.8426   20.5373 H   0  0  0  0  0  0
  -26.2574  -15.6535   20.0743 H   0  0  0  0  0  0
  -26.7109  -32.5482   23.1158 H   0  0  0  0  0  0
  -25.0154  -33.9836   25.0539 H   0  0  0  0  0  0
  -22.7005  -31.3084   21.4157 H   0  0  0  0  0  0
  -23.3784  -35.9586   23.3318 H   0  0  0  0  0  0
  -24.3573  -36.8855   22.2054 H   0  0  0  0  0  0
  -23.7192  -37.6471   23.6645 H   0  0  0  0  0  0
  -26.0773  -31.5844   20.6156 H   0  0  0  0  0  0
  -26.8311  -30.8537   22.0049 H   0  0  0  0  0  0
  -28.1134  -29.0367   21.1691 H   0  0  0  0  0  0
  -25.9473  -25.9907   18.9682 H   0  0  0  0  0  0
  -23.9585  -27.3270   19.0234 H   0  0  0  0  0  0
  -23.7306  -30.6129   19.4064 H   0  0  0  0  0  0
  -22.7442  -29.2563   19.8685 H   0  0  0  0  0  0
  -25.1311  -36.2001   25.0845 H   0  0  0  0  0  0
  -20.9977  -28.3214   24.1412 H   0  0  0  0  0  0
  -20.5650  -26.2268   23.3607 H   0  0  0  0  0  0
  -21.6651  -26.7398   22.1208 H   0  0  0  0  0  0
  -19.6879  -25.6298   21.1231 H   0  0  0  0  0  0
  -19.6690  -27.3215   20.6758 H   0  0  0  0  0  0
  -17.4203  -26.6694   21.4027 H   0  0  0  0  0  0
  -18.0290  -26.0093   22.9018 H   0  0  0  0  0  0
  -19.7922  -30.7310   24.2214 H   0  0  0  0  0  0
  -17.5000  -31.6264   24.5168 H   0  0  0  0  0  0
  -15.5338  -30.2958   23.7723 H   0  0  0  0  0  0
  -15.8676  -28.0856   22.7005 H   0  0  0  0  0  0
  -24.5921  -30.7063   25.7827 H   0  0  0  0  0  0
  -24.8911  -32.2871   26.4966 H   0  0  0  0  0  0
  -25.8092  -30.8880   27.0254 H   0  0  0  0  0  0
  -26.2845  -29.6862   24.1179 H   0  0  0  0  0  0
  -27.4006  -29.7313   25.4640 H   0  0  0  0  0  0
  -27.8722  -30.4404   23.9385 H   0  0  0  0  0  0
  -27.2694  -33.3671   26.2084 H   0  0  0  0  0  0
  -28.3851  -32.6867   25.0316 H   0  0  0  0  0  0
  -28.0732  -31.8480   26.5399 H   0  0  0  0  0  0
  -28.2626  -38.0082   24.7528 H   0  0  0  0  0  0
  -28.1053  -36.2615   24.6320 H   0  0  0  0  0  0
  -27.2286  -37.1471   25.8865 H   0  0  0  0  0  0
  -20.9323  -29.8784   21.6953 H   0  0  0  0  0  0
  -26.0173  -38.2894   24.1441 H   0  0  0  0  0  0
  -28.8527  -18.1929   20.1445 H   0  0  0  0  0  0
  -32.4535  -16.4667   21.7803 H   0  0  0  0  0  0
  -27.8476  -20.2971   21.6173 H   0  0  0  0  0  0
  -27.5923  -21.7869   22.4730 H   0  0  0  0  0  0
  -29.0075  -20.7978   22.8469 H   0  0  0  0  0  0
  -33.1389  -22.4036   23.7973 H   0  0  0  0  0  0
  -34.3032  -21.4381   22.9012 H   0  0  0  0  0  0
  -32.7877  -20.7148   23.4693 H   0  0  0  0  0  0
  -32.9705  -24.0930   22.0774 H   0  0  0  0  0  0
  -32.4702  -23.6682   20.4493 H   0  0  0  0  0  0
  -34.0979  -23.2801   20.9893 H   0  0  0  0  0  0
  -28.8595  -20.5511   19.3643 H   0  0  0  0  0  0
  -30.3215  -21.4233   19.2667 H   0  0  0  0  0  0
  -32.4061  -21.4084   19.7509 H   0  0  0  0  0  0
  -33.7212  -20.7016   20.5836 H   0  0  0  0  0  0
  -29.4203  -23.5246   18.9320 H   0  0  0  0  0  0
  -30.3301  -24.6674   19.8798 H   0  0  0  0  0  0
  -27.3353  -24.7506   20.1451 H   0  0  0  0  0  0
  -27.9749  -25.2207   18.5921 H   0  0  0  0  0  0
  -29.0392  -15.6439   20.9472 H   0  0  0  0  0  0
  -31.5951  -22.1195   22.0067 H   0  0  0  0  0  0
  1 25  1  0  0  0
  1 30  2  0  0  0
  1 85  1  0  0  0
  2  3  1  0  0  0
  2 25  1  0  0  0
  2 90  1  0  0  0
  2 91  1  0  0  0
  3  4  1  0  0  0
  3 92  1  0  0  0
  3 93  1  0  0  0
  4  5  1  0  0  0
  4 94  1  0  0  0
  4 95  1  0  0  0
  5  6  1  0  0  0
  5 26  1  0  0  0
  5 96  1  0  0  0
  6 25  1  0  0  0
  6 97  1  0  0  0
  6 98  1  0  0  0
  7  8  2  0  0  0
  7 26  1  0  0  0
  7 29  1  0  0  0
  8  9  1  0  0  0
  8 22  1  0  0  0
  9 10  1  0  0  0
  9 27  2  0  0  0
 10 11  2  0  0  0
 10 15  1  0  0  0
 11 12  1  0  0  0
 11 99  1  0  0  0
 12 13  2  0  0  0
 12100  1  0  0  0
 13 14  1  0  0  0
 13 31  1  0  0  0
 14 15  2  0  0  0
 14101  1  0  0  0
 15102  1  0  0  0
 16 17  2  0  0  0
 16 21  1  0  0  0
 16 31  1  0  0  0
 17 18  1  0  0  0
 17103  1  0  0  0
 18 19  2  0  0  0
 18104  1  0  0  0
 19 20  1  0  0  0
 19 24  1  0  0  0
 20 21  2  0  0  0
 20105  1  0  0  0
 21 23  1  0  0  0
 22 28  1  0  0  0
 22 32  2  0  0  0
 26 27  1  0  0  0
 28106  1  0  0  0
 28107  1  0  0  0
 29108  1  0  0  0
 29109  1  0  0  0
 33 34  1  0  0  0
 33 66  1  0  0  0
 33 70  2  0  0  0
 34 36  1  0  0  0
 34 59  1  0  0  0
 34110  1  0  0  0
 35 44  2  0  0  0
 35 45  1  0  0  0
 35 68  1  0  0  0
 36 56  1  0  0  0
 36111  1  0  0  0
 37 39  1  0  0  0
 37 47  1  0  0  0
 37 66  1  0  0  0
 37112  1  0  0  0
 38 43  2  0  0  0
 38 46  1  0  0  0
 38 47  1  0  0  0
 39 64  1  0  0  0
 39 67  2  0  0  0
 40 52  1  0  0  0
 40 53  2  0  0  0
 40 58  1  0  0  0
 41113  1  0  0  0
 41114  1  0  0  0
 41115  1  0  0  0
 41 48  1  0  0  0
 42 43  1  0  0  0
 42 66  1  0  0  0
 42116  1  0  0  0
 42117  1  0  0  0
 43 44  1  0  0  0
 44118  1  0  0  0
 45 46  2  0  0  0
 45119  1  0  0  0
 46120  1  0  0  0
 47121  1  0  0  0
 47122  1  0  0  0
 48 56  1  0  0  0
 48 65  1  0  0  0
 48123  1  0  0  0
 49 50  1  0  0  0
 49 53  1  0  0  0
 49 64  1  0  0  0
 49124  1  0  0  0
 50 51  1  0  0  0
 50125  1  0  0  0
 50126  1  0  0  0
 51 52  1  0  0  0
 51127  1  0  0  0
 51128  1  0  0  0
 52129  1  0  0  0
 52130  1  0  0  0
 53 54  1  0  0  0
 54 55  2  0  0  0
 54131  1  0  0  0
 55 57  1  0  0  0
 55132  1  0  0  0
 56 69  2  0  0  0
 57 58  2  0  0  0
 57133  1  0  0  0
 58134  1  0  0  0
 59 60  1  0  0  0
 59 61  1  0  0  0
 59 62  1  0  0  0
 60135  1  0  0  0
 60136  1  0  0  0
 60137  1  0  0  0
 61138  1  0  0  0
 61139  1  0  0  0
 61140  1  0  0  0
 62141  1  0  0  0
 62142  1  0  0  0
 62143  1  0  0  0
 63 65  1  0  0  0
 63144  1  0  0  0
 63145  1  0  0  0
 63146  1  0  0  0
 64147  1  0  0  0
 65148  1  0  0  0
 68 84  1  0  0  0
 71 73  2  0  0  0
 71 75  1  0  0  0
 71149  1  0  0  0
 72 75  2  0  0  0
 72 76  1  0  0  0
 72150  1  0  0  0
 73 74  1  0  0  0
 73 81  1  0  0  0
 74 76  2  0  0  0
 74 82  1  0  0  0
 75 85  1  0  0  0
 76 89  1  0  0  0
 77 83  1  0  0  0
 77 86  1  0  0  0
 77 88  2  0  0  0
 78 86  1  0  0  0
 78151  1  0  0  0
 78152  1  0  0  0
 78153  1  0  0  0
 79154  1  0  0  0
 79155  1  0  0  0
 79156  1  0  0  0
 79 87  1  0  0  0
 80 87  1  0  0  0
 80157  1  0  0  0
 80158  1  0  0  0
 80159  1  0  0  0
 81 86  1  0  0  0
 81160  1  0  0  0
 81161  1  0  0  0
 82 87  1  0  0  0
 82162  1  0  0  0
 82163  1  0  0  0
 83 84  1  0  0  0
 83164  1  0  0  0
 83165  1  0  0  0
 84166  1  0  0  0
 84167  1  0  0  0
 85168  1  0  0  0
 87169  1  0  0  0
M  CHG  1  87   1
M  ISO  4   1 100  68 101  84 101  85 100
M  END
> <chiral flag>
0

> <version>
0

> <s_m_source_file>
/data/baiqing/PycharmProjects/Reinvent-master-3.2/result/LINK_invent/BTK/process_docking_weight1_custom_product_contain_oxygen_bond_distance_aromatic_linkinvent_7_9_3/rearranged_h_0051.sdf

> <i_m_source_file_index>
32

> <r_mmod_Potential_Energy-OPLS-2005>
-96.5734939575195

> <r_mmod_Stretch_Energy-OPLS-2005>
76.0961380004883

> <r_mmod_Bend_Energy-OPLS-2005>
139.312713623047

> <r_mmod_Torsional_Energy-OPLS-2005>
241.509231567383

> <r_mmod_Improper_Torsional_Energy-OPLS-2005>
5.55201053619385

> <r_mmod_Van_der_Waal_Energy-OPLS-2005>
158.004364013672

> <r_mmod_Electrostatic_Energy-OPLS-2005>
-292.521209716797

> <r_mmod_Solvation_Energy-OPLS-2005>
-461.531005859375

> <b_mmod_Minimization_Converged-OPLS-2005>
0

> <r_mmod_RMS_Derivative-OPLS-2005>
4.98351144790649

$$$$
32
                    3D
 Structure written by MMmdl.
158167  0  0  1  0            999 V2000
  -30.4441  -15.1791   20.3524 C   0  0  0  0  0  0
  -30.4274  -12.7255   19.5579 C   0  0  0  0  0  0
  -29.5434  -12.5860   18.2950 C   0  0  0  0  0  0
  -28.0797  -12.3282   18.6955 C   0  0  0  0  0  0
  -27.6161  -13.2788   19.8309 C   0  0  2  0  0  0
  -28.6419  -13.4056   20.9785 C   0  0  0  0  0  0
  -25.2382  -13.8253   20.5756 C   0  0  0  0  0  0
  -24.1746  -13.0427   20.9234 C   0  0  0  0  0  0
  -24.6403  -11.6934   20.8711 C   0  0  0  0  0  0
  -23.9099  -10.4292   21.0345 C   0  0  0  0  0  0
  -24.3645   -9.4213   21.9138 C   0  0  0  0  0  0
  -23.6327   -8.2241   22.0720 C   0  0  0  0  0  0
  -22.4301   -8.0289   21.3528 C   0  0  0  0  0  0
  -21.9923   -9.0252   20.4628 C   0  0  0  0  0  0
  -22.7246  -10.2136   20.3024 C   0  0  0  0  0  0
  -21.6869   -6.0741   22.5272 C   0  0  0  0  0  0
  -21.4041   -6.5636   23.8208 C   0  0  0  0  0  0
  -21.3677   -5.6776   24.9154 C   0  0  0  0  0  0
  -21.6043   -4.3036   24.7205 C   0  0  0  0  0  0
  -21.8812   -3.8147   23.4323 C   0  0  0  0  0  0
  -21.9182   -4.6967   22.3383 C   0  0  0  0  0  0
  -22.7761  -13.5167   21.1883 C   0  0  0  0  0  0
  -22.1640   -4.2144   21.0957 F   0  0  0  0  0  0
  -21.5635   -3.4523   25.7713 F   0  0  0  0  0  0
  -29.8987  -13.8711   20.3796 N   0  0  0  0  0  0
  -26.2821  -12.9544   20.3194 N   0  0  0  0  0  0
  -25.9340  -11.6638   20.5679 N   0  0  0  0  0  0
  -22.0400  -12.8191   22.0460 N   0  0  0  0  0  0
  -25.4003  -15.1998   20.4331 N   0  0  0  0  0  0
  -31.6423  -15.2024   20.0364 O   0  0  0  0  0  0
  -21.6655   -6.8909   21.4245 O   0  0  0  0  0  0
  -22.3414  -14.5436   20.6657 O   0  0  0  0  0  0
  -24.6616  -31.8244   23.1686 C   0  0  0  0  0  0
  -25.9315  -32.4605   23.8134 C   0  0  1  0  0  0
  -27.2115  -26.9183   20.2146 C   0  0  0  0  0  0
  -25.5994  -33.8418   24.2070 N   0  0  0  0  0  0
  -23.4737  -30.4346   21.5206 C   0  0  2  0  0  0
  -24.9250  -28.8138   20.1197 C   0  0  0  0  0  0
  -22.7647  -29.4449   22.4811 C   0  0  0  0  0  0
  -18.0309  -28.1393   22.8474 C   0  0  0  0  0  0
  -24.1514  -36.7239   23.2640 C   0  0  0  0  0  0
  -26.0406  -30.6337   21.3915 C   0  0  0  0  0  0
  -26.1094  -29.2172   20.7481 C   0  0  0  0  0  0
  -27.2471  -28.2953   20.7656 C   0  0  0  0  0  0
  -25.9961  -26.6593   19.5444 C   0  0  0  0  0  0
  -24.8937  -27.5529   19.4987 C   0  0  0  0  0  0
  -23.7112  -29.7427   20.1510 C   0  0  0  0  0  0
  -25.4149  -36.2971   24.0297 C   0  0  1  0  0  0
  -20.5926  -28.3755   23.1224 C   0  0  2  0  0  0
  -20.6798  -26.9444   22.5417 C   0  0  0  0  0  0
  -19.5776  -26.6358   21.5234 C   0  0  0  0  0  0
  -18.1961  -26.7925   22.1638 C   0  0  0  0  0  0
  -19.1564  -28.8895   23.2839 C   0  0  0  0  0  0
  -18.9473  -30.1487   23.8848 C   0  0  0  0  0  0
  -17.6465  -30.6593   24.0559 C   0  0  0  0  0  0
  -25.9104  -34.9355   23.5019 C   0  0  0  0  0  0
  -16.5359  -29.9076   23.6331 C   0  0  0  0  0  0
  -16.7291  -28.6502   23.0342 C   0  0  0  0  0  0
  -26.4531  -31.6530   25.0673 C   0  0  0  0  0  0
  -25.3658  -31.3809   26.1345 C   0  0  0  0  0  0
  -27.0393  -30.2891   24.6390 C   0  0  0  0  0  0
  -27.6014  -32.4313   25.7518 C   0  0  0  0  0  0
  -27.5589  -37.1774   24.8440 C   0  0  0  0  0  0
  -21.4322  -29.3047   22.3571 N   0  0  0  0  0  0
  -26.4283  -37.3718   23.9401 N   0  0  0  0  0  0
  -24.7476  -30.9901   22.0814 N   0  0  0  0  0  0
  -23.4204  -28.8040   23.3068 O   0  0  0  0  0  0
  -28.2388  -25.8402   20.2767 O   0  0  0  0  0  0
  -26.5704  -34.8869   22.4604 O   0  0  0  0  0  0
  -23.5698  -32.1218   23.6788 O   0  0  0  0  0  0
  -30.5864  -18.3906   17.7414 C   0  0  0  0  0  0
  -31.4126  -19.3035   18.4199 C   0  0  0  0  0  0
  -29.6710  -17.6336   18.4884 C   0  0  0  0  0  0
  -31.1181  -19.6804   19.7521 C   0  0  0  0  0  0
  -29.8566  -19.3191   20.3056 C   0  0  0  0  0  0
  -29.5757  -17.8491   19.8805 C   0  0  0  0  0  0
  -28.5971  -21.4835   19.2305 C   0  0  0  0  0  0
  -28.4134  -23.1373   19.1457 C   0  0  0  0  0  0
  -28.9342  -23.3169   21.4357 C   0  0  0  0  0  0
  -28.9045  -21.6520   21.5238 C   0  0  0  0  0  0
  -28.0867  -24.1888   20.3612 C   0  0  1  0  0  0
  -32.0701  -20.6404   20.4502 C   0  0  0  0  0  0
  -29.0518  -20.7268   20.3185 N   0  0  0  0  0  0
  -29.6891  -16.4232   20.5866 N   0  0  0  0  0  0
  -28.3012  -20.8752   18.1985 O   0  0  0  0  0  0
  -33.3288  -20.3526   20.1137 F   0  0  0  0  0  0
  -31.8169  -21.8980   20.0923 F   0  0  0  0  0  0
  -31.9710  -20.5289   21.7753 F   0  0  0  0  0  0
  -31.4702  -12.8806   19.2774 H   0  0  0  0  0  0
  -30.4255  -11.8015   20.1379 H   0  0  0  0  0  0
  -29.9141  -11.7839   17.6559 H   0  0  0  0  0  0
  -29.6072  -13.5036   17.7062 H   0  0  0  0  0  0
  -28.0033  -11.2943   19.0333 H   0  0  0  0  0  0
  -27.4242  -12.4174   17.8290 H   0  0  0  0  0  0
  -27.5493  -14.2622   19.3609 H   0  0  0  0  0  0
  -28.7680  -12.4622   21.5106 H   0  0  0  0  0  0
  -28.3018  -14.1321   21.7191 H   0  0  0  0  0  0
  -25.2781   -9.5722   22.4712 H   0  0  0  0  0  0
  -24.0035   -7.4659   22.7464 H   0  0  0  0  0  0
  -21.0830   -8.8790   19.8981 H   0  0  0  0  0  0
  -22.3673  -10.9676   19.6155 H   0  0  0  0  0  0
  -21.2058   -7.6149   23.9732 H   0  0  0  0  0  0
  -21.1506   -6.0485   25.9064 H   0  0  0  0  0  0
  -22.0582   -2.7616   23.2793 H   0  0  0  0  0  0
  -22.4023  -11.9923   22.4963 H   0  0  0  0  0  0
  -21.1017  -13.1265   22.2634 H   0  0  0  0  0  0
  -24.6346  -15.8481   20.5885 H   0  0  0  0  0  0
  -26.2537  -15.6599   20.1421 H   0  0  0  0  0  0
  -26.7418  -32.5160   23.0852 H   0  0  0  0  0  0
  -25.0048  -33.9479   25.0164 H   0  0  0  0  0  0
  -22.7883  -31.2686   21.3505 H   0  0  0  0  0  0
  -23.3771  -35.9577   23.3231 H   0  0  0  0  0  0
  -24.3570  -36.8951   22.2063 H   0  0  0  0  0  0
  -23.7284  -37.6426   23.6729 H   0  0  0  0  0  0
  -26.2029  -31.3681   20.6011 H   0  0  0  0  0  0
  -26.9064  -30.7033   22.0358 H   0  0  0  0  0  0
  -28.1468  -28.6065   21.2761 H   0  0  0  0  0  0
  -25.8706  -25.6882   19.0849 H   0  0  0  0  0  0
  -23.9876  -27.2315   19.0045 H   0  0  0  0  0  0
  -23.8675  -30.5053   19.3878 H   0  0  0  0  0  0
  -22.8197  -29.1939   19.8403 H   0  0  0  0  0  0
  -25.1345  -36.1752   25.0792 H   0  0  0  0  0  0
  -21.0014  -28.3356   24.1351 H   0  0  0  0  0  0
  -20.5728  -26.2366   23.3658 H   0  0  0  0  0  0
  -21.6674  -26.7458   22.1210 H   0  0  0  0  0  0
  -19.6958  -25.6251   21.1313 H   0  0  0  0  0  0
  -19.6722  -27.3130   20.6739 H   0  0  0  0  0  0
  -17.4248  -26.6653   21.4028 H   0  0  0  0  0  0
  -18.0357  -26.0072   22.9042 H   0  0  0  0  0  0
  -19.7945  -30.7328   24.2196 H   0  0  0  0  0  0
  -17.5007  -31.6255   24.5195 H   0  0  0  0  0  0
  -15.5358  -30.2953   23.7698 H   0  0  0  0  0  0
  -15.8685  -28.0818   22.7054 H   0  0  0  0  0  0
  -24.5722  -30.7330   25.7608 H   0  0  0  0  0  0
  -24.9000  -32.3056   26.4780 H   0  0  0  0  0  0
  -25.7828  -30.8880   27.0140 H   0  0  0  0  0  0
  -26.3010  -29.6575   24.1440 H   0  0  0  0  0  0
  -27.3962  -29.7254   25.5023 H   0  0  0  0  0  0
  -27.8939  -30.4037   23.9719 H   0  0  0  0  0  0
  -27.2513  -33.3530   26.2168 H   0  0  0  0  0  0
  -28.3792  -32.7040   25.0378 H   0  0  0  0  0  0
  -28.0739  -31.8444   26.5405 H   0  0  0  0  0  0
  -28.2566  -38.0108   24.7501 H   0  0  0  0  0  0
  -28.1113  -36.2630   24.6216 H   0  0  0  0  0  0
  -27.2293  -37.1368   25.8836 H   0  0  0  0  0  0
  -20.9583  -29.8744   21.6693 H   0  0  0  0  0  0
  -26.0125  -38.2786   24.1383 H   0  0  0  0  0  0
  -30.7841  -18.1396   16.7079 H   0  0  0  0  0  0
  -32.2569  -19.7416   17.9094 H   0  0  0  0  0  0
  -29.2988  -16.7228   18.0337 H   0  0  0  0  0  0
  -27.6729  -23.3193   18.3677 H   0  0  0  0  0  0
  -29.3540  -23.4645   18.7052 H   0  0  0  0  0  0
  -29.9817  -23.5971   21.3208 H   0  0  0  0  0  0
  -28.6674  -23.6839   22.4283 H   0  0  0  0  0  0
  -27.9535  -21.3614   21.9740 H   0  0  0  0  0  0
  -29.6456  -21.3335   22.2567 H   0  0  0  0  0  0
  -27.0363  -24.0323   20.6133 H   0  0  0  0  0  0
  -28.8787  -16.2276   21.1550 H   0  0  0  0  0  0
  1 25  1  0  0  0
  1 30  2  0  0  0
  1 84  1  0  0  0
  2  3  1  0  0  0
  2 25  1  0  0  0
  2 89  1  0  0  0
  2 90  1  0  0  0
  3  4  1  0  0  0
  3 91  1  0  0  0
  3 92  1  0  0  0
  4  5  1  0  0  0
  4 93  1  0  0  0
  4 94  1  0  0  0
  5  6  1  0  0  0
  5 26  1  0  0  0
  5 95  1  0  0  0
  6 25  1  0  0  0
  6 96  1  0  0  0
  6 97  1  0  0  0
  7  8  2  0  0  0
  7 26  1  0  0  0
  7 29  1  0  0  0
  8  9  1  0  0  0
  8 22  1  0  0  0
  9 10  1  0  0  0
  9 27  2  0  0  0
 10 11  2  0  0  0
 10 15  1  0  0  0
 11 12  1  0  0  0
 11 98  1  0  0  0
 12 13  2  0  0  0
 12 99  1  0  0  0
 13 14  1  0  0  0
 13 31  1  0  0  0
 14 15  2  0  0  0
 14100  1  0  0  0
 15101  1  0  0  0
 16 17  2  0  0  0
 16 21  1  0  0  0
 16 31  1  0  0  0
 17 18  1  0  0  0
 17102  1  0  0  0
 18 19  2  0  0  0
 18103  1  0  0  0
 19 20  1  0  0  0
 19 24  1  0  0  0
 20 21  2  0  0  0
 20104  1  0  0  0
 21 23  1  0  0  0
 22 28  1  0  0  0
 22 32  2  0  0  0
 26 27  1  0  0  0
 28105  1  0  0  0
 28106  1  0  0  0
 29107  1  0  0  0
 29108  1  0  0  0
 33 34  1  0  0  0
 33 66  1  0  0  0
 33 70  2  0  0  0
 34 36  1  0  0  0
 34 59  1  0  0  0
 34109  1  0  0  0
 35 44  2  0  0  0
 35 45  1  0  0  0
 35 68  1  0  0  0
 36 56  1  0  0  0
 36110  1  0  0  0
 37 39  1  0  0  0
 37 47  1  0  0  0
 37 66  1  0  0  0
 37111  1  0  0  0
 38 43  2  0  0  0
 38 46  1  0  0  0
 38 47  1  0  0  0
 39 64  1  0  0  0
 39 67  2  0  0  0
 40 52  1  0  0  0
 40 53  2  0  0  0
 40 58  1  0  0  0
 41112  1  0  0  0
 41113  1  0  0  0
 41114  1  0  0  0
 41 48  1  0  0  0
 42 43  1  0  0  0
 42 66  1  0  0  0
 42115  1  0  0  0
 42116  1  0  0  0
 43 44  1  0  0  0
 44117  1  0  0  0
 45 46  2  0  0  0
 45118  1  0  0  0
 46119  1  0  0  0
 47120  1  0  0  0
 47121  1  0  0  0
 48 56  1  0  0  0
 48 65  1  0  0  0
 48122  1  0  0  0
 49 50  1  0  0  0
 49 53  1  0  0  0
 49 64  1  0  0  0
 49123  1  0  0  0
 50 51  1  0  0  0
 50124  1  0  0  0
 50125  1  0  0  0
 51 52  1  0  0  0
 51126  1  0  0  0
 51127  1  0  0  0
 52128  1  0  0  0
 52129  1  0  0  0
 53 54  1  0  0  0
 54 55  2  0  0  0
 54130  1  0  0  0
 55 57  1  0  0  0
 55131  1  0  0  0
 56 69  2  0  0  0
 57 58  2  0  0  0
 57132  1  0  0  0
 58133  1  0  0  0
 59 60  1  0  0  0
 59 61  1  0  0  0
 59 62  1  0  0  0
 60134  1  0  0  0
 60135  1  0  0  0
 60136  1  0  0  0
 61137  1  0  0  0
 61138  1  0  0  0
 61139  1  0  0  0
 62140  1  0  0  0
 62141  1  0  0  0
 62142  1  0  0  0
 63 65  1  0  0  0
 63143  1  0  0  0
 63144  1  0  0  0
 63145  1  0  0  0
 64146  1  0  0  0
 65147  1  0  0  0
 68 81  1  0  0  0
 71 72  2  0  0  0
 71 73  1  0  0  0
 71148  1  0  0  0
 72 74  1  0  0  0
 72149  1  0  0  0
 73 76  2  0  0  0
 73150  1  0  0  0
 74 75  2  0  0  0
 74 82  1  0  0  0
 75 76  1  0  0  0
 75 83  1  0  0  0
 76 84  1  0  0  0
 77 78  1  0  0  0
 77 83  1  0  0  0
 77 85  2  0  0  0
 78 81  1  0  0  0
 78151  1  0  0  0
 78152  1  0  0  0
 79 80  1  0  0  0
 79 81  1  0  0  0
 79153  1  0  0  0
 79154  1  0  0  0
 80 83  1  0  0  0
 80155  1  0  0  0
 80156  1  0  0  0
 81157  1  0  0  0
 82 86  1  0  0  0
 82 87  1  0  0  0
 82 88  1  0  0  0
 84158  1  0  0  0
M  ISO  4   1 100  68 101  81 101  84 100
M  END
> <chiral flag>
0

> <version>
0

> <s_m_source_file>
/data/baiqing/PycharmProjects/Reinvent-master-3.2/result/LINK_invent/BTK/process_docking_weight1_custom_product_contain_oxygen_bond_distance_aromatic_linkinvent_7_9_3/rearranged_h_0051.sdf

> <i_m_source_file_index>
33

> <r_mmod_Potential_Energy-OPLS-2005>
1500.79638671875

> <r_mmod_Stretch_Energy-OPLS-2005>
496.846649169922

> <r_mmod_Bend_Energy-OPLS-2005>
472.661926269531

> <r_mmod_Torsional_Energy-OPLS-2005>
557.53173828125

> <r_mmod_Improper_Torsional_Energy-OPLS-2005>
29.1317710876465

> <r_mmod_Van_der_Waal_Energy-OPLS-2005>
130.986434936523

> <r_mmod_Electrostatic_Energy-OPLS-2005>
-372.841094970703

> <r_mmod_Solvation_Energy-OPLS-2005>
-223.390716552734

> <b_mmod_Minimization_Converged-OPLS-2005>
0

> <r_mmod_RMS_Derivative-OPLS-2005>
4.549729347229

$$$$
33
                    3D
 Structure written by MMmdl.
174183  0  0  1  0            999 V2000
  -30.7022  -14.5008   20.5095 C   0  0  0  0  0  0
  -30.4152  -12.3056   19.4394 C   0  0  0  0  0  0
  -29.4951  -12.4889   18.2145 C   0  0  0  0  0  0
  -28.0161  -12.3553   18.6257 C   0  0  0  0  0  0
  -27.6565  -13.2136   19.8689 C   0  0  2  0  0  0
  -28.6994  -13.0382   20.9966 C   0  0  0  0  0  0
  -25.2569  -13.8179   20.5690 C   0  0  0  0  0  0
  -24.1826  -13.0446   20.9184 C   0  0  0  0  0  0
  -24.6385  -11.6911   20.8740 C   0  0  0  0  0  0
  -23.9052  -10.4294   21.0399 C   0  0  0  0  0  0
  -24.3607   -9.4214   21.9180 C   0  0  0  0  0  0
  -23.6288   -8.2249   22.0754 C   0  0  0  0  0  0
  -22.4272   -8.0278   21.3543 C   0  0  0  0  0  0
  -21.9902   -9.0246   20.4647 C   0  0  0  0  0  0
  -22.7225  -10.2129   20.3051 C   0  0  0  0  0  0
  -21.6855   -6.0727   22.5272 C   0  0  0  0  0  0
  -21.4014   -6.5632   23.8202 C   0  0  0  0  0  0
  -21.3664   -5.6786   24.9167 C   0  0  0  0  0  0
  -21.6047   -4.3048   24.7219 C   0  0  0  0  0  0
  -21.8822   -3.8137   23.4342 C   0  0  0  0  0  0
  -21.9194   -4.6955   22.3399 C   0  0  0  0  0  0
  -22.7849  -13.5245   21.1844 C   0  0  0  0  0  0
  -22.1661   -4.2137   21.0978 F   0  0  0  0  0  0
  -21.5637   -3.4535   25.7735 F   0  0  0  0  0  0
  -30.0279  -13.3210   20.4328 N   0  0  0  0  0  0
  -26.2999  -12.9356   20.3351 N   0  0  0  0  0  0
  -25.9315  -11.6509   20.5775 N   0  0  0  0  0  0
  -22.0491  -12.8231   22.0396 N   0  0  0  0  0  0
  -25.4294  -15.1902   20.4092 N   0  0  0  0  0  0
  -31.8771  -14.5987   20.1473 O   0  0  0  0  0  0
  -21.6644   -6.8870   21.4231 O   0  0  0  0  0  0
  -22.3530  -14.5556   20.6705 O   0  0  0  0  0  0
  -24.6154  -31.8662   23.2113 C   0  0  0  0  0  0
  -25.9052  -32.4809   23.8402 C   0  0  1  0  0  0
  -27.2298  -27.4256   20.1111 C   0  0  0  0  0  0
  -25.5921  -33.8609   24.2342 N   0  0  0  0  0  0
  -23.4032  -30.4895   21.5504 C   0  0  2  0  0  0
  -24.8518  -28.9521   20.1175 C   0  0  0  0  0  0
  -22.7401  -29.4659   22.4999 C   0  0  0  0  0  0
  -18.0261  -28.1381   22.8492 C   0  0  0  0  0  0
  -24.1483  -36.7304   23.2643 C   0  0  0  0  0  0
  -25.9318  -30.8293   21.3662 C   0  0  0  0  0  0
  -26.0104  -29.4617   20.7178 C   0  0  0  0  0  0
  -27.2050  -28.7043   20.7144 C   0  0  0  0  0  0
  -26.0618  -26.9328   19.4976 C   0  0  0  0  0  0
  -24.8723  -27.6862   19.5044 C   0  0  0  0  0  0
  -23.6129  -29.8185   20.1656 C   0  0  0  0  0  0
  -25.4106  -36.3103   24.0343 C   0  0  1  0  0  0
  -20.5850  -28.3667   23.1317 C   0  0  2  0  0  0
  -20.6763  -26.9405   22.5419 C   0  0  0  0  0  0
  -19.5745  -26.6388   21.5215 C   0  0  0  0  0  0
  -18.1916  -26.7937   22.1611 C   0  0  0  0  0  0
  -19.1511  -28.8841   23.2901 C   0  0  0  0  0  0
  -18.9447  -30.1453   23.8904 C   0  0  0  0  0  0
  -17.6451  -30.6593   24.0564 C   0  0  0  0  0  0
  -25.9030  -34.9466   23.5133 C   0  0  0  0  0  0
  -16.5336  -29.9090   23.6341 C   0  0  0  0  0  0
  -16.7252  -28.6508   23.0359 C   0  0  0  0  0  0
  -26.4494  -31.6583   25.0723 C   0  0  0  0  0  0
  -25.3767  -31.3675   26.1474 C   0  0  0  0  0  0
  -27.0348  -30.3029   24.6114 C   0  0  0  0  0  0
  -27.6066  -32.4313   25.7479 C   0  0  0  0  0  0
  -27.5576  -37.1807   24.8470 C   0  0  0  0  0  0
  -21.4131  -29.3031   22.3726 N   0  0  0  0  0  0
  -26.4290  -37.3787   23.9413 N   0  0  0  0  0  0
  -24.6679  -31.0764   22.1010 N   0  0  0  0  0  0
  -23.4166  -28.8204   23.3048 O   0  0  0  0  0  0
  -28.3725  -26.6577   20.0931 O   0  0  0  0  0  0
  -26.5576  -34.8916   22.4684 O   0  0  0  0  0  0
  -23.5348  -32.1412   23.7510 O   0  0  0  0  0  0
  -30.8238  -19.6988   19.9462 C   0  0  0  0  0  0
  -31.1129  -17.3335   19.4790 C   0  0  0  0  0  0
  -31.4134  -18.6751   19.1908 C   0  0  0  0  0  0
  -29.8897  -19.4053   20.9600 C   0  0  0  0  0  0
  -29.5819  -18.0339   21.2518 C   0  0  0  0  0  0
  -30.2330  -16.9796   20.5342 C   0  0  0  0  0  0
  -28.4620  -22.0323   19.7634 C   0  0  0  0  0  0
  -27.5699  -19.6288   17.0914 C   0  0  0  0  0  0
  -28.2535  -21.4758   18.5529 C   0  0  0  0  0  0
  -27.7619  -20.1270   18.3220 C   0  0  0  0  0  0
  -28.9397  -23.4745   20.0001 C   0  0  0  0  0  0
  -27.8237  -23.4986   22.2310 C   0  0  0  0  0  0
  -27.2928  -22.0727   21.9649 C   0  0  0  0  0  0
  -28.0064  -24.2929   20.9230 C   0  0  1  0  0  0
  -32.3783  -19.0134   18.0714 C   0  0  0  0  0  0
  -28.5811  -17.6866   22.3501 C   0  0  0  0  0  0
  -29.3065  -20.6142   21.7231 C   0  0  0  0  0  0
  -28.5046  -25.7454   21.1968 C   0  0  0  0  0  0
  -29.9659  -15.5909   20.8392 N   0  0  0  0  0  0
  -28.1602  -21.2928   21.0411 N   0  3  1  0  0  0
  -31.4618  -12.3838   19.1401 H   0  0  0  0  0  0
  -30.3021  -11.3052   19.8597 H   0  0  0  0  0  0
  -29.7371  -11.7512   17.4479 H   0  0  0  0  0  0
  -29.6660  -13.4671   17.7627 H   0  0  0  0  0  0
  -27.8303  -11.3022   18.8371 H   0  0  0  0  0  0
  -27.3664  -12.6152   17.7888 H   0  0  0  0  0  0
  -27.6873  -14.2551   19.5479 H   0  0  0  0  0  0
  -28.6742  -12.0197   21.3873 H   0  0  0  0  0  0
  -28.4720  -13.6868   21.8439 H   0  0  0  0  0  0
  -25.2753   -9.5700   22.4747 H   0  0  0  0  0  0
  -24.0000   -7.4646   22.7475 H   0  0  0  0  0  0
  -21.0835   -8.8756   19.8949 H   0  0  0  0  0  0
  -22.3679  -10.9662   19.6157 H   0  0  0  0  0  0
  -21.2000   -7.6136   23.9703 H   0  0  0  0  0  0
  -21.1486   -6.0514   25.9069 H   0  0  0  0  0  0
  -22.0599   -2.7597   23.2842 H   0  0  0  0  0  0
  -22.4104  -11.9890   22.4783 H   0  0  0  0  0  0
  -21.1104  -13.1249   22.2599 H   0  0  0  0  0  0
  -24.6604  -15.8435   20.5104 H   0  0  0  0  0  0
  -26.2731  -15.6238   20.0572 H   0  0  0  0  0  0
  -26.7119  -32.5519   23.1161 H   0  0  0  0  0  0
  -25.0139  -33.9775   25.0534 H   0  0  0  0  0  0
  -22.6928  -31.3066   21.4094 H   0  0  0  0  0  0
  -23.3742  -35.9639   23.3311 H   0  0  0  0  0  0
  -24.3579  -36.8911   22.2056 H   0  0  0  0  0  0
  -23.7232  -37.6511   23.6650 H   0  0  0  0  0  0
  -26.0431  -31.5934   20.5956 H   0  0  0  0  0  0
  -26.8192  -30.8844   21.9847 H   0  0  0  0  0  0
  -28.1016  -29.0940   21.1761 H   0  0  0  0  0  0
  -26.0708  -25.9636   19.0194 H   0  0  0  0  0  0
  -23.9822  -27.2887   19.0360 H   0  0  0  0  0  0
  -23.7187  -30.5914   19.4038 H   0  0  0  0  0  0
  -22.7373  -29.2366   19.8708 H   0  0  0  0  0  0
  -25.1279  -36.1969   25.0838 H   0  0  0  0  0  0
  -20.9928  -28.3235   24.1442 H   0  0  0  0  0  0
  -20.5682  -26.2274   23.3608 H   0  0  0  0  0  0
  -21.6634  -26.7473   22.1194 H   0  0  0  0  0  0
  -19.6906  -25.6298   21.1248 H   0  0  0  0  0  0
  -19.6696  -27.3200   20.6751 H   0  0  0  0  0  0
  -17.4199  -26.6702   21.3997 H   0  0  0  0  0  0
  -18.0292  -26.0064   22.8986 H   0  0  0  0  0  0
  -19.7927  -30.7269   24.2265 H   0  0  0  0  0  0
  -17.5011  -31.6279   24.5158 H   0  0  0  0  0  0
  -15.5339  -30.2999   23.7682 H   0  0  0  0  0  0
  -15.8643  -28.0838   22.7075 H   0  0  0  0  0  0
  -24.5969  -30.6987   25.7814 H   0  0  0  0  0  0
  -24.8928  -32.2819   26.4915 H   0  0  0  0  0  0
  -25.8138  -30.8863   27.0231 H   0  0  0  0  0  0
  -26.2899  -29.6749   24.1216 H   0  0  0  0  0  0
  -27.4169  -29.7313   25.4582 H   0  0  0  0  0  0
  -27.8708  -30.4347   23.9239 H   0  0  0  0  0  0
  -27.2688  -33.3615   26.2060 H   0  0  0  0  0  0
  -28.3873  -32.6867   25.0300 H   0  0  0  0  0  0
  -28.0739  -31.8435   26.5388 H   0  0  0  0  0  0
  -28.2603  -38.0095   24.7510 H   0  0  0  0  0  0
  -28.1066  -36.2627   24.6308 H   0  0  0  0  0  0
  -27.2295  -37.1465   25.8874 H   0  0  0  0  0  0
  -20.9299  -29.8739   21.6930 H   0  0  0  0  0  0
  -26.0179  -38.2870   24.1404 H   0  0  0  0  0  0
  -31.0801  -20.7285   19.7317 H   0  0  0  0  0  0
  -31.5825  -16.5818   18.8621 H   0  0  0  0  0  0
  -27.2055  -18.6206   16.9521 H   0  0  0  0  0  0
  -27.7707  -20.2112   16.2031 H   0  0  0  0  0  0
  -28.4692  -22.0851   17.6860 H   0  0  0  0  0  0
  -27.5377  -19.4760   19.1551 H   0  0  0  0  0  0
  -29.0283  -23.9832   19.0389 H   0  0  0  0  0  0
  -29.9494  -23.4430   20.4110 H   0  0  0  0  0  0
  -28.7650  -23.4528   22.7803 H   0  0  0  0  0  0
  -27.1203  -24.0205   22.8815 H   0  0  0  0  0  0
  -26.3054  -22.1460   21.5077 H   0  0  0  0  0  0
  -27.1434  -21.5375   22.9034 H   0  0  0  0  0  0
  -27.0275  -24.3621   20.4477 H   0  0  0  0  0  0
  -32.3043  -20.0630   17.7836 H   0  0  0  0  0  0
  -32.1686  -18.4112   17.1872 H   0  0  0  0  0  0
  -33.4045  -18.8172   18.3833 H   0  0  0  0  0  0
  -27.7659  -18.4068   22.3970 H   0  0  0  0  0  0
  -29.0785  -17.6649   23.3204 H   0  0  0  0  0  0
  -28.1101  -16.7167   22.1938 H   0  0  0  0  0  0
  -30.0964  -21.3483   21.8893 H   0  0  0  0  0  0
  -29.0149  -20.2928   22.7221 H   0  0  0  0  0  0
  -29.5565  -25.7170   21.4827 H   0  0  0  0  0  0
  -27.9844  -26.1518   22.0678 H   0  0  0  0  0  0
  -29.0677  -15.3913   21.2494 H   0  0  0  0  0  0
  -27.5725  -20.5151   20.7840 H   0  0  0  0  0  0
  1 25  1  0  0  0
  1 30  2  0  0  0
  1 89  1  0  0  0
  2  3  1  0  0  0
  2 25  1  0  0  0
  2 91  1  0  0  0
  2 92  1  0  0  0
  3  4  1  0  0  0
  3 93  1  0  0  0
  3 94  1  0  0  0
  4  5  1  0  0  0
  4 95  1  0  0  0
  4 96  1  0  0  0
  5  6  1  0  0  0
  5 26  1  0  0  0
  5 97  1  0  0  0
  6 25  1  0  0  0
  6 98  1  0  0  0
  6 99  1  0  0  0
  7  8  2  0  0  0
  7 26  1  0  0  0
  7 29  1  0  0  0
  8  9  1  0  0  0
  8 22  1  0  0  0
  9 10  1  0  0  0
  9 27  2  0  0  0
 10 11  2  0  0  0
 10 15  1  0  0  0
 11 12  1  0  0  0
 11100  1  0  0  0
 12 13  2  0  0  0
 12101  1  0  0  0
 13 14  1  0  0  0
 13 31  1  0  0  0
 14 15  2  0  0  0
 14102  1  0  0  0
 15103  1  0  0  0
 16 17  2  0  0  0
 16 21  1  0  0  0
 16 31  1  0  0  0
 17 18  1  0  0  0
 17104  1  0  0  0
 18 19  2  0  0  0
 18105  1  0  0  0
 19 20  1  0  0  0
 19 24  1  0  0  0
 20 21  2  0  0  0
 20106  1  0  0  0
 21 23  1  0  0  0
 22 28  1  0  0  0
 22 32  2  0  0  0
 26 27  1  0  0  0
 28107  1  0  0  0
 28108  1  0  0  0
 29109  1  0  0  0
 29110  1  0  0  0
 33 34  1  0  0  0
 33 66  1  0  0  0
 33 70  2  0  0  0
 34 36  1  0  0  0
 34 59  1  0  0  0
 34111  1  0  0  0
 35 44  2  0  0  0
 35 45  1  0  0  0
 35 68  1  0  0  0
 36 56  1  0  0  0
 36112  1  0  0  0
 37 39  1  0  0  0
 37 47  1  0  0  0
 37 66  1  0  0  0
 37113  1  0  0  0
 38 43  2  0  0  0
 38 46  1  0  0  0
 38 47  1  0  0  0
 39 64  1  0  0  0
 39 67  2  0  0  0
 40 52  1  0  0  0
 40 53  2  0  0  0
 40 58  1  0  0  0
 41114  1  0  0  0
 41115  1  0  0  0
 41116  1  0  0  0
 41 48  1  0  0  0
 42 43  1  0  0  0
 42 66  1  0  0  0
 42117  1  0  0  0
 42118  1  0  0  0
 43 44  1  0  0  0
 44119  1  0  0  0
 45 46  2  0  0  0
 45120  1  0  0  0
 46121  1  0  0  0
 47122  1  0  0  0
 47123  1  0  0  0
 48 56  1  0  0  0
 48 65  1  0  0  0
 48124  1  0  0  0
 49 50  1  0  0  0
 49 53  1  0  0  0
 49 64  1  0  0  0
 49125  1  0  0  0
 50 51  1  0  0  0
 50126  1  0  0  0
 50127  1  0  0  0
 51 52  1  0  0  0
 51128  1  0  0  0
 51129  1  0  0  0
 52130  1  0  0  0
 52131  1  0  0  0
 53 54  1  0  0  0
 54 55  2  0  0  0
 54132  1  0  0  0
 55 57  1  0  0  0
 55133  1  0  0  0
 56 69  2  0  0  0
 57 58  2  0  0  0
 57134  1  0  0  0
 58135  1  0  0  0
 59 60  1  0  0  0
 59 61  1  0  0  0
 59 62  1  0  0  0
 60136  1  0  0  0
 60137  1  0  0  0
 60138  1  0  0  0
 61139  1  0  0  0
 61140  1  0  0  0
 61141  1  0  0  0
 62142  1  0  0  0
 62143  1  0  0  0
 62144  1  0  0  0
 63 65  1  0  0  0
 63145  1  0  0  0
 63146  1  0  0  0
 63147  1  0  0  0
 64148  1  0  0  0
 65149  1  0  0  0
 68 88  1  0  0  0
 71 73  2  0  0  0
 71 74  1  0  0  0
 71150  1  0  0  0
 72 73  1  0  0  0
 72 76  2  0  0  0
 72151  1  0  0  0
 73 85  1  0  0  0
 74 75  2  0  0  0
 74 87  1  0  0  0
 75 76  1  0  0  0
 75 86  1  0  0  0
 76 89  1  0  0  0
 77 79  2  0  0  0
 77 81  1  0  0  0
 77 90  1  0  0  0
 78 80  2  0  0  0
 78152  1  0  0  0
 78153  1  0  0  0
 79 80  1  0  0  0
 79154  1  0  0  0
 80155  1  0  0  0
 81 84  1  0  0  0
 81156  1  0  0  0
 81157  1  0  0  0
 82 83  1  0  0  0
 82 84  1  0  0  0
 82158  1  0  0  0
 82159  1  0  0  0
 83 90  1  0  0  0
 83160  1  0  0  0
 83161  1  0  0  0
 84 88  1  0  0  0
 84162  1  0  0  0
 85163  1  0  0  0
 85164  1  0  0  0
 85165  1  0  0  0
 86166  1  0  0  0
 86167  1  0  0  0
 86168  1  0  0  0
 87169  1  0  0  0
 87170  1  0  0  0
 87 90  1  0  0  0
 88171  1  0  0  0
 88172  1  0  0  0
 89173  1  0  0  0
 90174  1  0  0  0
M  CHG  1  90   1
M  ISO  4   1 100  68 101  88 101  89 100
M  END
> <chiral flag>
0

> <version>
0

> <s_m_source_file>
/data/baiqing/PycharmProjects/Reinvent-master-3.2/result/LINK_invent/BTK/process_docking_weight1_custom_product_contain_oxygen_bond_distance_aromatic_linkinvent_7_9_3/rearranged_h_0051.sdf

> <i_m_source_file_index>
34

> <r_mmod_Potential_Energy-OPLS-2005>
-127.429801940918

> <r_mmod_Stretch_Energy-OPLS-2005>
47.5101470947266

> <r_mmod_Bend_Energy-OPLS-2005>
110.958961486816

> <r_mmod_Torsional_Energy-OPLS-2005>
255.683929443359

> <r_mmod_Improper_Torsional_Energy-OPLS-2005>
4.19643306732178

> <r_mmod_Van_der_Waal_Energy-OPLS-2005>
146.90788269043

> <r_mmod_Electrostatic_Energy-OPLS-2005>
-276.904357910156

> <r_mmod_Solvation_Energy-OPLS-2005>
-434.433044433594

> <b_mmod_Minimization_Converged-OPLS-2005>
0

> <r_mmod_RMS_Derivative-OPLS-2005>
1.30958604812622

$$$$
34
                    3D
 Structure written by MMmdl.
154162  0  0  1  0            999 V2000
  -30.7129  -14.4797   20.4918 C   0  0  0  0  0  0
  -30.4175  -12.2918   19.4351 C   0  0  0  0  0  0
  -29.5025  -12.4958   18.2106 C   0  0  0  0  0  0
  -28.0212  -12.3622   18.6189 C   0  0  0  0  0  0
  -27.6609  -13.2137   19.8678 C   0  0  2  0  0  0
  -28.7053  -13.0321   20.9957 C   0  0  0  0  0  0
  -25.2557  -13.8174   20.5623 C   0  0  0  0  0  0
  -24.1822  -13.0437   20.9129 C   0  0  0  0  0  0
  -24.6413  -11.6920   20.8716 C   0  0  0  0  0  0
  -23.9090  -10.4296   21.0393 C   0  0  0  0  0  0
  -24.3628   -9.4199   21.9164 C   0  0  0  0  0  0
  -23.6280   -8.2259   22.0747 C   0  0  0  0  0  0
  -22.4257   -8.0309   21.3555 C   0  0  0  0  0  0
  -21.9923   -9.0278   20.4652 C   0  0  0  0  0  0
  -22.7281  -10.2131   20.3036 C   0  0  0  0  0  0
  -21.6850   -6.0740   22.5267 C   0  0  0  0  0  0
  -21.4021   -6.5633   23.8202 C   0  0  0  0  0  0
  -21.3651   -5.6779   24.9157 C   0  0  0  0  0  0
  -21.6044   -4.3050   24.7199 C   0  0  0  0  0  0
  -21.8820   -3.8142   23.4321 C   0  0  0  0  0  0
  -21.9183   -4.6963   22.3381 C   0  0  0  0  0  0
  -22.7852  -13.5218   21.1811 C   0  0  0  0  0  0
  -22.1649   -4.2174   21.0955 F   0  0  0  0  0  0
  -21.5625   -3.4511   25.7693 F   0  0  0  0  0  0
  -30.0373  -13.3025   20.4312 N   0  0  0  0  0  0
  -26.3026  -12.9375   20.3320 N   0  0  0  0  0  0
  -25.9338  -11.6527   20.5735 N   0  0  0  0  0  0
  -22.0508  -12.8215   22.0382 N   0  0  0  0  0  0
  -25.4259  -15.1882   20.4008 N   0  0  0  0  0  0
  -31.8846  -14.5912   20.1237 O   0  0  0  0  0  0
  -21.6641   -6.8893   21.4242 O   0  0  0  0  0  0
  -22.3537  -14.5530   20.6657 O   0  0  0  0  0  0
  -24.6112  -31.8657   23.2083 C   0  0  0  0  0  0
  -25.8995  -32.4802   23.8387 C   0  0  1  0  0  0
  -27.2404  -27.4354   20.1133 C   0  0  0  0  0  0
  -25.5857  -33.8607   24.2326 N   0  0  0  0  0  0
  -23.4018  -30.4843   21.5468 C   0  0  2  0  0  0
  -24.8545  -28.9477   20.1163 C   0  0  0  0  0  0
  -22.7405  -29.4613   22.4983 C   0  0  0  0  0  0
  -18.0275  -28.1353   22.8474 C   0  0  0  0  0  0
  -24.1487  -36.7311   23.2637 C   0  0  0  0  0  0
  -25.9278  -30.8322   21.3620 C   0  0  0  0  0  0
  -26.0098  -29.4646   20.7175 C   0  0  0  0  0  0
  -27.2070  -28.7139   20.7139 C   0  0  0  0  0  0
  -26.0723  -26.9295   19.5060 C   0  0  0  0  0  0
  -24.8804  -27.6803   19.5049 C   0  0  0  0  0  0
  -23.6136  -29.8094   20.1635 C   0  0  0  0  0  0
  -25.4098  -36.3094   24.0339 C   0  0  1  0  0  0
  -20.5858  -28.3624   23.1320 C   0  0  2  0  0  0
  -20.6759  -26.9362   22.5417 C   0  0  0  0  0  0
  -19.5748  -26.6367   21.5198 C   0  0  0  0  0  0
  -18.1923  -26.7909   22.1600 C   0  0  0  0  0  0
  -19.1522  -28.8809   23.2904 C   0  0  0  0  0  0
  -18.9452  -30.1411   23.8923 C   0  0  0  0  0  0
  -17.6456  -30.6544   24.0560 C   0  0  0  0  0  0
  -25.9012  -34.9454   23.5129 C   0  0  0  0  0  0
  -16.5351  -29.9053   23.6313 C   0  0  0  0  0  0
  -16.7261  -28.6469   23.0332 C   0  0  0  0  0  0
  -26.4455  -31.6577   25.0696 C   0  0  0  0  0  0
  -25.3746  -31.3666   26.1459 C   0  0  0  0  0  0
  -27.0260  -30.3024   24.6023 C   0  0  0  0  0  0
  -27.6032  -32.4286   25.7461 C   0  0  0  0  0  0
  -27.5591  -37.1786   24.8448 C   0  0  0  0  0  0
  -21.4133  -29.2991   22.3720 N   0  0  0  0  0  0
  -26.4277  -37.3786   23.9415 N   0  0  0  0  0  0
  -24.6648  -31.0759   22.0978 N   0  0  0  0  0  0
  -23.4178  -28.8147   23.3023 O   0  0  0  0  0  0
  -28.4070  -26.7060   20.1018 O   0  0  0  0  0  0
  -26.5588  -34.8918   22.4701 O   0  0  0  0  0  0
  -23.5302  -32.1392   23.7479 O   0  0  0  0  0  0
  -29.3148  -19.3754   22.8277 C   0  0  0  0  0  0
  -29.6634  -18.1691   22.1844 C   0  0  0  0  0  0
  -29.0937  -20.5512   22.0776 C   0  0  0  0  0  0
  -29.5797  -19.3163   20.0377 C   0  0  0  0  0  0
  -29.8090  -18.1329   20.7836 C   0  0  0  0  0  0
  -29.2184  -20.5341   20.6678 C   0  0  0  0  0  0
  -28.5421  -24.2407   19.9105 C   0  0  0  0  0  0
  -30.2871  -16.8726   20.0622 C   0  0  0  0  0  0
  -28.3770  -25.4662   20.8342 C   0  0  0  0  0  0
  -28.9705  -21.7757   19.7910 C   0  0  0  0  0  0
  -28.7593  -23.0461   20.4947 N   0  0  0  0  0  0
  -29.9559  -15.5748   20.6764 N   0  0  0  0  0  0
  -28.4779  -24.3819   18.6847 O   0  0  0  0  0  0
  -30.0226  -21.9033   18.9770 F   0  0  0  0  0  0
  -27.8911  -21.5146   19.0496 F   0  0  0  0  0  0
  -31.4679  -12.3593   19.1446 H   0  0  0  0  0  0
  -30.2861  -11.2933   19.8525 H   0  0  0  0  0  0
  -29.7418  -11.7693   17.4321 H   0  0  0  0  0  0
  -29.6810  -13.4771   17.7690 H   0  0  0  0  0  0
  -27.8267  -11.3080   18.8162 H   0  0  0  0  0  0
  -27.3826  -12.6388   17.7806 H   0  0  0  0  0  0
  -27.6920  -14.2553   19.5480 H   0  0  0  0  0  0
  -28.6757  -12.0151   21.3859 H   0  0  0  0  0  0
  -28.4886  -13.6884   21.8409 H   0  0  0  0  0  0
  -25.2783   -9.5627   22.4734 H   0  0  0  0  0  0
  -23.9969   -7.4615   22.7438 H   0  0  0  0  0  0
  -21.0866   -8.8790   19.8945 H   0  0  0  0  0  0
  -22.3763  -10.9640   19.6103 H   0  0  0  0  0  0
  -21.2058   -7.6144   23.9696 H   0  0  0  0  0  0
  -21.1472   -6.0523   25.9053 H   0  0  0  0  0  0
  -22.0627   -2.7611   23.2810 H   0  0  0  0  0  0
  -22.4116  -11.9878   22.4786 H   0  0  0  0  0  0
  -21.1126  -13.1244   22.2580 H   0  0  0  0  0  0
  -24.6614  -15.8441   20.5176 H   0  0  0  0  0  0
  -26.2768  -15.6309   20.0765 H   0  0  0  0  0  0
  -26.7056  -32.5542   23.1150 H   0  0  0  0  0  0
  -25.0044  -33.9791   25.0488 H   0  0  0  0  0  0
  -22.6883  -31.2980   21.4025 H   0  0  0  0  0  0
  -23.3749  -35.9643   23.3272 H   0  0  0  0  0  0
  -24.3602  -36.8954   22.2057 H   0  0  0  0  0  0
  -23.7244  -37.6506   23.6678 H   0  0  0  0  0  0
  -26.0350  -31.5935   20.5885 H   0  0  0  0  0  0
  -26.8168  -30.8951   21.9778 H   0  0  0  0  0  0
  -28.0999  -29.1034   21.1831 H   0  0  0  0  0  0
  -26.0893  -25.9622   19.0218 H   0  0  0  0  0  0
  -23.9958  -27.2805   19.0290 H   0  0  0  0  0  0
  -23.7157  -30.5770   19.3960 H   0  0  0  0  0  0
  -22.7426  -29.2184   19.8737 H   0  0  0  0  0  0
  -25.1270  -36.1952   25.0833 H   0  0  0  0  0  0
  -20.9960  -28.3191   24.1436 H   0  0  0  0  0  0
  -20.5636  -26.2228   23.3591 H   0  0  0  0  0  0
  -21.6638  -26.7392   22.1225 H   0  0  0  0  0  0
  -19.6907  -25.6283   21.1212 H   0  0  0  0  0  0
  -19.6692  -27.3193   20.6739 H   0  0  0  0  0  0
  -17.4193  -26.6651   21.4008 H   0  0  0  0  0  0
  -18.0329  -26.0043   22.8987 H   0  0  0  0  0  0
  -19.7924  -30.7229   24.2319 H   0  0  0  0  0  0
  -17.4998  -31.6230   24.5144 H   0  0  0  0  0  0
  -15.5349  -30.2957   23.7614 H   0  0  0  0  0  0
  -15.8665  -28.0794   22.7042 H   0  0  0  0  0  0
  -24.5910  -30.7016   25.7809 H   0  0  0  0  0  0
  -24.8954  -32.2817   26.4945 H   0  0  0  0  0  0
  -25.8135  -30.8815   27.0181 H   0  0  0  0  0  0
  -26.2753  -29.6798   24.1135 H   0  0  0  0  0  0
  -27.4107  -29.7248   25.4437 H   0  0  0  0  0  0
  -27.8572  -30.4351   23.9090 H   0  0  0  0  0  0
  -27.2640  -33.3567   26.2075 H   0  0  0  0  0  0
  -28.3828  -32.6861   25.0278 H   0  0  0  0  0  0
  -28.0701  -31.8375   26.5350 H   0  0  0  0  0  0
  -28.2547  -38.0144   24.7564 H   0  0  0  0  0  0
  -28.1147  -36.2678   24.6165 H   0  0  0  0  0  0
  -27.2331  -37.1302   25.8854 H   0  0  0  0  0  0
  -20.9281  -29.8719   21.6958 H   0  0  0  0  0  0
  -26.0163  -38.2849   24.1466 H   0  0  0  0  0  0
  -29.2270  -19.3983   23.9066 H   0  0  0  0  0  0
  -29.8414  -17.2805   22.7742 H   0  0  0  0  0  0
  -28.8282  -21.4568   22.6035 H   0  0  0  0  0  0
  -29.6977  -19.3002   18.9627 H   0  0  0  0  0  0
  -31.3663  -16.9879   19.9417 H   0  0  0  0  0  0
  -29.8743  -16.8674   19.0510 H   0  0  0  0  0  0
  -29.2122  -25.4800   21.5355 H   0  0  0  0  0  0
  -27.4705  -25.3562   21.4323 H   0  0  0  0  0  0
  -28.7957  -23.0179   21.5022 H   0  0  0  0  0  0
  -28.9945  -15.4289   20.9498 H   0  0  0  0  0  0
  1 25  1  0  0  0
  1 30  2  0  0  0
  1 82  1  0  0  0
  2  3  1  0  0  0
  2 25  1  0  0  0
  2 86  1  0  0  0
  2 87  1  0  0  0
  3  4  1  0  0  0
  3 88  1  0  0  0
  3 89  1  0  0  0
  4  5  1  0  0  0
  4 90  1  0  0  0
  4 91  1  0  0  0
  5  6  1  0  0  0
  5 26  1  0  0  0
  5 92  1  0  0  0
  6 25  1  0  0  0
  6 93  1  0  0  0
  6 94  1  0  0  0
  7  8  2  0  0  0
  7 26  1  0  0  0
  7 29  1  0  0  0
  8  9  1  0  0  0
  8 22  1  0  0  0
  9 10  1  0  0  0
  9 27  2  0  0  0
 10 11  2  0  0  0
 10 15  1  0  0  0
 11 12  1  0  0  0
 11 95  1  0  0  0
 12 13  2  0  0  0
 12 96  1  0  0  0
 13 14  1  0  0  0
 13 31  1  0  0  0
 14 15  2  0  0  0
 14 97  1  0  0  0
 15 98  1  0  0  0
 16 17  2  0  0  0
 16 21  1  0  0  0
 16 31  1  0  0  0
 17 18  1  0  0  0
 17 99  1  0  0  0
 18 19  2  0  0  0
 18100  1  0  0  0
 19 20  1  0  0  0
 19 24  1  0  0  0
 20 21  2  0  0  0
 20101  1  0  0  0
 21 23  1  0  0  0
 22 28  1  0  0  0
 22 32  2  0  0  0
 26 27  1  0  0  0
 28102  1  0  0  0
 28103  1  0  0  0
 29104  1  0  0  0
 29105  1  0  0  0
 33 34  1  0  0  0
 33 66  1  0  0  0
 33 70  2  0  0  0
 34 36  1  0  0  0
 34 59  1  0  0  0
 34106  1  0  0  0
 35 44  2  0  0  0
 35 45  1  0  0  0
 35 68  1  0  0  0
 36 56  1  0  0  0
 36107  1  0  0  0
 37 39  1  0  0  0
 37 47  1  0  0  0
 37 66  1  0  0  0
 37108  1  0  0  0
 38 43  2  0  0  0
 38 46  1  0  0  0
 38 47  1  0  0  0
 39 64  1  0  0  0
 39 67  2  0  0  0
 40 52  1  0  0  0
 40 53  2  0  0  0
 40 58  1  0  0  0
 41109  1  0  0  0
 41110  1  0  0  0
 41111  1  0  0  0
 41 48  1  0  0  0
 42 43  1  0  0  0
 42 66  1  0  0  0
 42112  1  0  0  0
 42113  1  0  0  0
 43 44  1  0  0  0
 44114  1  0  0  0
 45 46  2  0  0  0
 45115  1  0  0  0
 46116  1  0  0  0
 47117  1  0  0  0
 47118  1  0  0  0
 48 56  1  0  0  0
 48 65  1  0  0  0
 48119  1  0  0  0
 49 50  1  0  0  0
 49 53  1  0  0  0
 49 64  1  0  0  0
 49120  1  0  0  0
 50 51  1  0  0  0
 50121  1  0  0  0
 50122  1  0  0  0
 51 52  1  0  0  0
 51123  1  0  0  0
 51124  1  0  0  0
 52125  1  0  0  0
 52126  1  0  0  0
 53 54  1  0  0  0
 54 55  2  0  0  0
 54127  1  0  0  0
 55 57  1  0  0  0
 55128  1  0  0  0
 56 69  2  0  0  0
 57 58  2  0  0  0
 57129  1  0  0  0
 58130  1  0  0  0
 59 60  1  0  0  0
 59 61  1  0  0  0
 59 62  1  0  0  0
 60131  1  0  0  0
 60132  1  0  0  0
 60133  1  0  0  0
 61134  1  0  0  0
 61135  1  0  0  0
 61136  1  0  0  0
 62137  1  0  0  0
 62138  1  0  0  0
 62139  1  0  0  0
 63 65  1  0  0  0
 63140  1  0  0  0
 63141  1  0  0  0
 63142  1  0  0  0
 64143  1  0  0  0
 65144  1  0  0  0
 68 79  1  0  0  0
 71 72  2  0  0  0
 71 73  1  0  0  0
 71145  1  0  0  0
 72 75  1  0  0  0
 72146  1  0  0  0
 73 76  2  0  0  0
 73147  1  0  0  0
 74 75  2  0  0  0
 74 76  1  0  0  0
 74148  1  0  0  0
 75 78  1  0  0  0
 76 80  1  0  0  0
 77 79  1  0  0  0
 77 81  1  0  0  0
 77 83  2  0  0  0
 78 82  1  0  0  0
 78149  1  0  0  0
 78150  1  0  0  0
 79151  1  0  0  0
 79152  1  0  0  0
 80 81  1  0  0  0
 80 84  1  0  0  0
 80 85  1  0  0  0
 81153  1  0  0  0
 82154  1  0  0  0
M  ISO  4   1 100  68 101  79 101  82 100
M  END
> <chiral flag>
0

> <version>
0

> <s_m_source_file>
/data/baiqing/PycharmProjects/Reinvent-master-3.2/result/LINK_invent/BTK/process_docking_weight1_custom_product_contain_oxygen_bond_distance_aromatic_linkinvent_7_9_3/rearranged_h_0051.sdf

> <i_m_source_file_index>
35

> <r_mmod_Potential_Energy-OPLS-2005>
-178.903366088867

> <r_mmod_Stretch_Energy-OPLS-2005>
36.807804107666

> <r_mmod_Bend_Energy-OPLS-2005>
91.540283203125

> <r_mmod_Torsional_Energy-OPLS-2005>
219.113906860352

> <r_mmod_Improper_Torsional_Energy-OPLS-2005>
8.95444965362549

> <r_mmod_Van_der_Waal_Energy-OPLS-2005>
152.399826049805

> <r_mmod_Electrostatic_Energy-OPLS-2005>
-466.708435058594

> <r_mmod_Solvation_Energy-OPLS-2005>
-237.758911132812

> <b_mmod_Minimization_Converged-OPLS-2005>
0

> <r_mmod_RMS_Derivative-OPLS-2005>
3.67246341705322

$$$$
35
                    3D
 Structure written by MMmdl.
157165  0  0  1  0            999 V2000
  -30.6615  -14.5443   20.5585 C   0  0  0  0  0  0
  -30.4330  -12.3521   19.4222 C   0  0  0  0  0  0
  -29.4966  -12.5046   18.2049 C   0  0  0  0  0  0
  -28.0196  -12.3510   18.6222 C   0  0  0  0  0  0
  -27.6557  -13.2072   19.8647 C   0  0  2  0  0  0
  -28.7003  -13.0170   20.9858 C   0  0  0  0  0  0
  -25.2574  -13.8155   20.5673 C   0  0  0  0  0  0
  -24.1832  -13.0432   20.9182 C   0  0  0  0  0  0
  -24.6387  -11.6900   20.8736 C   0  0  0  0  0  0
  -23.9056  -10.4288   21.0407 C   0  0  0  0  0  0
  -24.3611   -9.4204   21.9185 C   0  0  0  0  0  0
  -23.6288   -8.2240   22.0754 C   0  0  0  0  0  0
  -22.4270   -8.0278   21.3544 C   0  0  0  0  0  0
  -21.9903   -9.0252   20.4647 C   0  0  0  0  0  0
  -22.7230  -10.2131   20.3056 C   0  0  0  0  0  0
  -21.6851   -6.0734   22.5280 C   0  0  0  0  0  0
  -21.4013   -6.5639   23.8213 C   0  0  0  0  0  0
  -21.3659   -5.6792   24.9176 C   0  0  0  0  0  0
  -21.6044   -4.3055   24.7226 C   0  0  0  0  0  0
  -21.8820   -3.8146   23.4348 C   0  0  0  0  0  0
  -21.9192   -4.6962   22.3403 C   0  0  0  0  0  0
  -22.7857  -13.5233   21.1851 C   0  0  0  0  0  0
  -22.1661   -4.2148   21.0981 F   0  0  0  0  0  0
  -21.5629   -3.4539   25.7739 F   0  0  0  0  0  0
  -30.0191  -13.3489   20.4231 N   0  0  0  0  0  0
  -26.2995  -12.9320   20.3319 N   0  0  0  0  0  0
  -25.9310  -11.6483   20.5750 N   0  0  0  0  0  0
  -22.0498  -12.8227   22.0408 N   0  0  0  0  0  0
  -25.4298  -15.1875   20.4085 N   0  0  0  0  0  0
  -31.8167  -14.7241   20.1638 O   0  0  0  0  0  0
  -21.6636   -6.8875   21.4240 O   0  0  0  0  0  0
  -22.3544  -14.5543   20.6703 O   0  0  0  0  0  0
  -24.6190  -31.8649   23.2065 C   0  0  0  0  0  0
  -25.9067  -32.4805   23.8376 C   0  0  1  0  0  0
  -27.2303  -27.3873   20.1107 C   0  0  0  0  0  0
  -25.5909  -33.8603   24.2308 N   0  0  0  0  0  0
  -23.4092  -30.4874   21.5486 C   0  0  2  0  0  0
  -24.8557  -28.9425   20.1215 C   0  0  0  0  0  0
  -22.7430  -29.4649   22.4981 C   0  0  0  0  0  0
  -18.0274  -28.1378   22.8492 C   0  0  0  0  0  0
  -24.1489  -36.7309   23.2639 C   0  0  0  0  0  0
  -25.9424  -30.8162   21.3662 C   0  0  0  0  0  0
  -26.0199  -29.4447   20.7179 C   0  0  0  0  0  0
  -27.2132  -28.6767   20.7045 C   0  0  0  0  0  0
  -26.0480  -26.9093   19.5108 C   0  0  0  0  0  0
  -24.8665  -27.6753   19.5142 C   0  0  0  0  0  0
  -23.6208  -29.8166   20.1656 C   0  0  0  0  0  0
  -25.4110  -36.3101   24.0334 C   0  0  1  0  0  0
  -20.5867  -28.3673   23.1307 C   0  0  2  0  0  0
  -20.6767  -26.9406   22.5416 C   0  0  0  0  0  0
  -19.5746  -26.6386   21.5213 C   0  0  0  0  0  0
  -18.1922  -26.7924   22.1624 C   0  0  0  0  0  0
  -19.1524  -28.8842   23.2896 C   0  0  0  0  0  0
  -18.9453  -30.1446   23.8909 C   0  0  0  0  0  0
  -17.6456  -30.6587   24.0565 C   0  0  0  0  0  0
  -25.9041  -34.9467   23.5121 C   0  0  0  0  0  0
  -16.5346  -29.9089   23.6327 C   0  0  0  0  0  0
  -16.7263  -28.6503   23.0352 C   0  0  0  0  0  0
  -26.4481  -31.6590   25.0715 C   0  0  0  0  0  0
  -25.3737  -31.3701   26.1457 C   0  0  0  0  0  0
  -27.0314  -30.3027   24.6109 C   0  0  0  0  0  0
  -27.6054  -32.4313   25.7480 C   0  0  0  0  0  0
  -27.5580  -37.1808   24.8465 C   0  0  0  0  0  0
  -21.4154  -29.3037   22.3714 N   0  0  0  0  0  0
  -26.4294  -37.3787   23.9407 N   0  0  0  0  0  0
  -24.6753  -31.0715   22.0984 N   0  0  0  0  0  0
  -23.4182  -28.8193   23.3041 O   0  0  0  0  0  0
  -28.3836  -26.6220   20.0480 O   0  0  0  0  0  0
  -26.5608  -34.8926   22.4685 O   0  0  0  0  0  0
  -23.5372  -32.1423   23.7433 O   0  0  0  0  0  0
  -30.8649  -18.1720   19.3506 C   0  0  0  0  0  0
  -30.8075  -19.3172   18.5322 C   0  0  0  0  0  0
  -29.3070  -19.2325   20.8909 C   0  0  0  0  0  0
  -30.1265  -18.1138   20.5478 C   0  0  0  0  0  0
  -29.2284  -20.3974   20.0648 C   0  0  0  0  0  0
  -30.0035  -20.4219   18.8800 C   0  0  0  0  0  0
  -28.2863  -24.0676   20.1663 C   0  0  0  0  0  0
  -29.6255  -22.9226   21.9119 C   0  0  0  0  0  0
  -30.3188  -16.9054   21.4932 C   0  0  0  0  0  0
  -28.2326  -21.5472   20.3837 C   0  0  0  0  0  0
  -28.4631  -25.4439   20.9008 C   0  0  0  0  0  0
  -29.9020  -15.5610   21.0315 N   0  0  0  0  0  0
  -28.7439  -22.9064   20.7423 N   0  0  0  0  0  0
  -27.6610  -24.0504   19.1021 O   0  0  0  0  0  0
  -29.9652  -21.7776   17.8099 Cl  0  0  0  0  0  0
  -31.4733  -12.4781   19.1168 H   0  0  0  0  0  0
  -30.3630  -11.3467   19.8401 H   0  0  0  0  0  0
  -29.7474  -11.7665   17.4418 H   0  0  0  0  0  0
  -29.6474  -13.4825   17.7450 H   0  0  0  0  0  0
  -27.8461  -11.2961   18.8384 H   0  0  0  0  0  0
  -27.3637  -12.6003   17.7873 H   0  0  0  0  0  0
  -27.6888  -14.2495   19.5468 H   0  0  0  0  0  0
  -28.6978  -11.9843   21.3376 H   0  0  0  0  0  0
  -28.4544  -13.6231   21.8589 H   0  0  0  0  0  0
  -25.2757   -9.5682   22.4756 H   0  0  0  0  0  0
  -23.9999   -7.4631   22.7472 H   0  0  0  0  0  0
  -21.0835   -8.8769   19.8953 H   0  0  0  0  0  0
  -22.3689  -10.9670   19.6164 H   0  0  0  0  0  0
  -21.2004   -7.6147   23.9716 H   0  0  0  0  0  0
  -21.1480   -6.0523   25.9079 H   0  0  0  0  0  0
  -22.0600   -2.7608   23.2849 H   0  0  0  0  0  0
  -22.4109  -11.9882   22.4790 H   0  0  0  0  0  0
  -21.1120  -13.1258   22.2621 H   0  0  0  0  0  0
  -24.6624  -15.8421   20.5158 H   0  0  0  0  0  0
  -26.2788  -15.6267   20.0750 H   0  0  0  0  0  0
  -26.7136  -32.5507   23.1136 H   0  0  0  0  0  0
  -25.0057  -33.9759   25.0452 H   0  0  0  0  0  0
  -22.6999  -31.3051   21.4058 H   0  0  0  0  0  0
  -23.3745  -35.9648   23.3313 H   0  0  0  0  0  0
  -24.3579  -36.8914   22.2051 H   0  0  0  0  0  0
  -23.7250  -37.6519   23.6649 H   0  0  0  0  0  0
  -26.0588  -31.5779   20.5941 H   0  0  0  0  0  0
  -26.8289  -30.8724   21.9864 H   0  0  0  0  0  0
  -28.1162  -29.0660   21.1540 H   0  0  0  0  0  0
  -26.0358  -25.9450   19.0256 H   0  0  0  0  0  0
  -23.9736  -27.2839   19.0465 H   0  0  0  0  0  0
  -23.7350  -30.5901   19.4050 H   0  0  0  0  0  0
  -22.7428  -29.2403   19.8681 H   0  0  0  0  0  0
  -25.1287  -36.1965   25.0827 H   0  0  0  0  0  0
  -20.9954  -28.3244   24.1430 H   0  0  0  0  0  0
  -20.5676  -26.2281   23.3606 H   0  0  0  0  0  0
  -21.6637  -26.7454   22.1205 H   0  0  0  0  0  0
  -19.6913  -25.6301   21.1236 H   0  0  0  0  0  0
  -19.6684  -27.3204   20.6748 H   0  0  0  0  0  0
  -17.4194  -26.6673   21.4025 H   0  0  0  0  0  0
  -18.0323  -26.0061   22.9015 H   0  0  0  0  0  0
  -19.7931  -30.7253   24.2288 H   0  0  0  0  0  0
  -17.5015  -31.6269   24.5162 H   0  0  0  0  0  0
  -15.5348  -30.2997   23.7645 H   0  0  0  0  0  0
  -15.8661  -28.0827   22.7065 H   0  0  0  0  0  0
  -24.5912  -30.7048   25.7790 H   0  0  0  0  0  0
  -24.8924  -32.2856   26.4909 H   0  0  0  0  0  0
  -25.8083  -30.8867   27.0215 H   0  0  0  0  0  0
  -26.2865  -29.6781   24.1164 H   0  0  0  0  0  0
  -27.4075  -29.7270   25.4577 H   0  0  0  0  0  0
  -27.8705  -30.4333   23.9270 H   0  0  0  0  0  0
  -27.2674  -33.3606   26.2077 H   0  0  0  0  0  0
  -28.3854  -32.6883   25.0300 H   0  0  0  0  0  0
  -28.0734  -31.8423   26.5378 H   0  0  0  0  0  0
  -28.2605  -38.0098   24.7507 H   0  0  0  0  0  0
  -28.1068  -36.2630   24.6300 H   0  0  0  0  0  0
  -27.2297  -37.1471   25.8869 H   0  0  0  0  0  0
  -20.9323  -29.8756   21.6928 H   0  0  0  0  0  0
  -26.0183  -38.2867   24.1401 H   0  0  0  0  0  0
  -31.5055  -17.3472   19.0704 H   0  0  0  0  0  0
  -31.3892  -19.3489   17.6220 H   0  0  0  0  0  0
  -28.7278  -19.1964   21.8031 H   0  0  0  0  0  0
  -29.1556  -23.4377   22.7508 H   0  0  0  0  0  0
  -30.5660  -23.4231   21.6784 H   0  0  0  0  0  0
  -29.8745  -21.9178   22.2541 H   0  0  0  0  0  0
  -29.7811  -17.1061   22.4206 H   0  0  0  0  0  0
  -31.3720  -16.8709   21.7779 H   0  0  0  0  0  0
  -27.5956  -21.2241   21.2080 H   0  0  0  0  0  0
  -27.5543  -21.6084   19.5315 H   0  0  0  0  0  0
  -29.4446  -25.4826   21.3709 H   0  0  0  0  0  0
  -27.7331  -25.5035   21.7096 H   0  0  0  0  0  0
  -28.9475  -15.3127   21.2407 H   0  0  0  0  0  0
  1 25  1  0  0  0
  1 30  2  0  0  0
  1 82  1  0  0  0
  2  3  1  0  0  0
  2 25  1  0  0  0
  2 86  1  0  0  0
  2 87  1  0  0  0
  3  4  1  0  0  0
  3 88  1  0  0  0
  3 89  1  0  0  0
  4  5  1  0  0  0
  4 90  1  0  0  0
  4 91  1  0  0  0
  5  6  1  0  0  0
  5 26  1  0  0  0
  5 92  1  0  0  0
  6 25  1  0  0  0
  6 93  1  0  0  0
  6 94  1  0  0  0
  7  8  2  0  0  0
  7 26  1  0  0  0
  7 29  1  0  0  0
  8  9  1  0  0  0
  8 22  1  0  0  0
  9 10  1  0  0  0
  9 27  2  0  0  0
 10 11  2  0  0  0
 10 15  1  0  0  0
 11 12  1  0  0  0
 11 95  1  0  0  0
 12 13  2  0  0  0
 12 96  1  0  0  0
 13 14  1  0  0  0
 13 31  1  0  0  0
 14 15  2  0  0  0
 14 97  1  0  0  0
 15 98  1  0  0  0
 16 17  2  0  0  0
 16 21  1  0  0  0
 16 31  1  0  0  0
 17 18  1  0  0  0
 17 99  1  0  0  0
 18 19  2  0  0  0
 18100  1  0  0  0
 19 20  1  0  0  0
 19 24  1  0  0  0
 20 21  2  0  0  0
 20101  1  0  0  0
 21 23  1  0  0  0
 22 28  1  0  0  0
 22 32  2  0  0  0
 26 27  1  0  0  0
 28102  1  0  0  0
 28103  1  0  0  0
 29104  1  0  0  0
 29105  1  0  0  0
 33 34  1  0  0  0
 33 66  1  0  0  0
 33 70  2  0  0  0
 34 36  1  0  0  0
 34 59  1  0  0  0
 34106  1  0  0  0
 35 44  2  0  0  0
 35 45  1  0  0  0
 35 68  1  0  0  0
 36 56  1  0  0  0
 36107  1  0  0  0
 37 39  1  0  0  0
 37 47  1  0  0  0
 37 66  1  0  0  0
 37108  1  0  0  0
 38 43  2  0  0  0
 38 46  1  0  0  0
 38 47  1  0  0  0
 39 64  1  0  0  0
 39 67  2  0  0  0
 40 52  1  0  0  0
 40 53  2  0  0  0
 40 58  1  0  0  0
 41109  1  0  0  0
 41110  1  0  0  0
 41111  1  0  0  0
 41 48  1  0  0  0
 42 43  1  0  0  0
 42 66  1  0  0  0
 42112  1  0  0  0
 42113  1  0  0  0
 43 44  1  0  0  0
 44114  1  0  0  0
 45 46  2  0  0  0
 45115  1  0  0  0
 46116  1  0  0  0
 47117  1  0  0  0
 47118  1  0  0  0
 48 56  1  0  0  0
 48 65  1  0  0  0
 48119  1  0  0  0
 49 50  1  0  0  0
 49 53  1  0  0  0
 49 64  1  0  0  0
 49120  1  0  0  0
 50 51  1  0  0  0
 50121  1  0  0  0
 50122  1  0  0  0
 51 52  1  0  0  0
 51123  1  0  0  0
 51124  1  0  0  0
 52125  1  0  0  0
 52126  1  0  0  0
 53 54  1  0  0  0
 54 55  2  0  0  0
 54127  1  0  0  0
 55 57  1  0  0  0
 55128  1  0  0  0
 56 69  2  0  0  0
 57 58  2  0  0  0
 57129  1  0  0  0
 58130  1  0  0  0
 59 60  1  0  0  0
 59 61  1  0  0  0
 59 62  1  0  0  0
 60131  1  0  0  0
 60132  1  0  0  0
 60133  1  0  0  0
 61134  1  0  0  0
 61135  1  0  0  0
 61136  1  0  0  0
 62137  1  0  0  0
 62138  1  0  0  0
 62139  1  0  0  0
 63 65  1  0  0  0
 63140  1  0  0  0
 63141  1  0  0  0
 63142  1  0  0  0
 64143  1  0  0  0
 65144  1  0  0  0
 68 81  1  0  0  0
 71 72  2  0  0  0
 71 74  1  0  0  0
 71145  1  0  0  0
 72 76  1  0  0  0
 72146  1  0  0  0
 73 74  2  0  0  0
 73 75  1  0  0  0
 73147  1  0  0  0
 74 79  1  0  0  0
 75 76  2  0  0  0
 75 80  1  0  0  0
 76 85  1  0  0  0
 77 81  1  0  0  0
 77 83  1  0  0  0
 77 84  2  0  0  0
 78 83  1  0  0  0
 78148  1  0  0  0
 78149  1  0  0  0
 78150  1  0  0  0
 79 82  1  0  0  0
 79151  1  0  0  0
 79152  1  0  0  0
 80 83  1  0  0  0
 80153  1  0  0  0
 80154  1  0  0  0
 81155  1  0  0  0
 81156  1  0  0  0
 82157  1  0  0  0
M  ISO  4   1 100  68 101  81 101  82 100
M  END
> <chiral flag>
0

> <version>
0

> <s_m_source_file>
/data/baiqing/PycharmProjects/Reinvent-master-3.2/result/LINK_invent/BTK/process_docking_weight1_custom_product_contain_oxygen_bond_distance_aromatic_linkinvent_7_9_3/rearranged_h_0051.sdf

> <i_m_source_file_index>
36

> <r_mmod_Potential_Energy-OPLS-2005>
-32.8085556030273

> <r_mmod_Stretch_Energy-OPLS-2005>
54.9209785461426

> <r_mmod_Bend_Energy-OPLS-2005>
111.819747924805

> <r_mmod_Torsional_Energy-OPLS-2005>
244.785583496094

> <r_mmod_Improper_Torsional_Energy-OPLS-2005>
4.63857555389404

> <r_mmod_Van_der_Waal_Energy-OPLS-2005>
143.171417236328

> <r_mmod_Electrostatic_Energy-OPLS-2005>
-381.316680908203

> <r_mmod_Solvation_Energy-OPLS-2005>
-233.035522460938

> <b_mmod_Minimization_Converged-OPLS-2005>
0

> <r_mmod_RMS_Derivative-OPLS-2005>
0.302566289901733

$$$$
36
                    3D
 Structure written by MMmdl.
164173  0  0  1  0            999 V2000
  -30.6098  -14.6467   20.5072 C   0  0  0  0  0  0
  -30.4439  -12.3961   19.4560 C   0  0  0  0  0  0
  -29.5123  -12.5082   18.2274 C   0  0  0  0  0  0
  -28.0336  -12.3462   18.6366 C   0  0  0  0  0  0
  -27.6548  -13.2144   19.8656 C   0  0  2  0  0  0
  -28.6988  -13.0620   20.9955 C   0  0  0  0  0  0
  -25.2561  -13.8161   20.5667 C   0  0  0  0  0  0
  -24.1836  -13.0433   20.9201 C   0  0  0  0  0  0
  -24.6402  -11.6903   20.8751 C   0  0  0  0  0  0
  -23.9067  -10.4289   21.0416 C   0  0  0  0  0  0
  -24.3617   -9.4200   21.9191 C   0  0  0  0  0  0
  -23.6287   -8.2239   22.0754 C   0  0  0  0  0  0
  -22.4271   -8.0280   21.3540 C   0  0  0  0  0  0
  -21.9907   -9.0258   20.4648 C   0  0  0  0  0  0
  -22.7239  -10.2137   20.3062 C   0  0  0  0  0  0
  -21.6853   -6.0736   22.5279 C   0  0  0  0  0  0
  -21.4018   -6.5640   23.8213 C   0  0  0  0  0  0
  -21.3655   -5.6791   24.9173 C   0  0  0  0  0  0
  -21.6041   -4.3053   24.7223 C   0  0  0  0  0  0
  -21.8821   -3.8145   23.4346 C   0  0  0  0  0  0
  -21.9192   -4.6964   22.3403 C   0  0  0  0  0  0
  -22.7858  -13.5230   21.1857 C   0  0  0  0  0  0
  -22.1662   -4.2149   21.0980 F   0  0  0  0  0  0
  -21.5621   -3.4537   25.7737 F   0  0  0  0  0  0
  -30.0144  -13.4132   20.4362 N   0  0  0  0  0  0
  -26.2993  -12.9339   20.3316 N   0  0  0  0  0  0
  -25.9330  -11.6498   20.5767 N   0  0  0  0  0  0
  -22.0491  -12.8232   22.0414 N   0  0  0  0  0  0
  -25.4251  -15.1873   20.4013 N   0  0  0  0  0  0
  -31.7734  -14.8198   20.1301 O   0  0  0  0  0  0
  -21.6632   -6.8880   21.4242 O   0  0  0  0  0  0
  -22.3545  -14.5531   20.6689 O   0  0  0  0  0  0
  -24.6251  -31.8601   23.2026 C   0  0  0  0  0  0
  -25.9104  -32.4776   23.8356 C   0  0  1  0  0  0
  -27.2260  -27.3248   20.1273 C   0  0  0  0  0  0
  -25.5925  -33.8577   24.2288 N   0  0  0  0  0  0
  -23.4196  -30.4829   21.5439 C   0  0  2  0  0  0
  -24.8685  -28.9372   20.1127 C   0  0  0  0  0  0
  -22.7469  -29.4624   22.4924 C   0  0  0  0  0  0
  -18.0291  -28.1381   22.8483 C   0  0  0  0  0  0
  -24.1486  -36.7291   23.2634 C   0  0  0  0  0  0
  -25.9597  -30.7924   21.3743 C   0  0  0  0  0  0
  -26.0358  -29.4192   20.7197 C   0  0  0  0  0  0
  -27.2198  -28.6245   20.7173 C   0  0  0  0  0  0
  -26.0430  -26.8980   19.4858 C   0  0  0  0  0  0
  -24.8732  -27.6809   19.4863 C   0  0  0  0  0  0
  -23.6361  -29.8171   20.1595 C   0  0  0  0  0  0
  -25.4108  -36.3080   24.0330 C   0  0  1  0  0  0
  -20.5889  -28.3689   23.1275 C   0  0  2  0  0  0
  -20.6778  -26.9411   22.5407 C   0  0  0  0  0  0
  -19.5755  -26.6380   21.5208 C   0  0  0  0  0  0
  -18.1936  -26.7922   22.1622 C   0  0  0  0  0  0
  -19.1544  -28.8848   23.2876 C   0  0  0  0  0  0
  -18.9465  -30.1449   23.8895 C   0  0  0  0  0  0
  -17.6467  -30.6578   24.0570 C   0  0  0  0  0  0
  -25.9049  -34.9448   23.5109 C   0  0  0  0  0  0
  -16.5358  -29.9083   23.6328 C   0  0  0  0  0  0
  -16.7281  -28.6502   23.0347 C   0  0  0  0  0  0
  -26.4493  -31.6574   25.0714 C   0  0  0  0  0  0
  -25.3736  -31.3724   26.1451 C   0  0  0  0  0  0
  -27.0325  -30.2991   24.6160 C   0  0  0  0  0  0
  -27.6056  -32.4302   25.7482 C   0  0  0  0  0  0
  -27.5585  -37.1787   24.8453 C   0  0  0  0  0  0
  -21.4187  -29.3041   22.3662 N   0  0  0  0  0  0
  -26.4283  -37.3778   23.9420 N   0  0  0  0  0  0
  -24.6867  -31.0615   22.0974 N   0  0  0  0  0  0
  -23.4194  -28.8171   23.3010 O   0  0  0  0  0  0
  -28.3366  -26.4705   20.1504 O   0  0  0  0  0  0
  -26.5616  -34.8915   22.4676 O   0  0  0  0  0  0
  -23.5416  -32.1401   23.7353 O   0  0  0  0  0  0
  -28.6034  -17.8453   20.5281 C   0  0  0  0  0  0
  -30.9994  -17.9163   20.5879 C   0  0  0  0  0  0
  -28.5438  -19.2528   20.2913 C   0  0  0  0  0  0
  -30.9571  -19.3325   20.3796 C   0  0  0  0  0  0
  -29.7254  -20.0414   20.1881 C   0  0  0  0  0  0
  -29.8233  -17.1272   20.6436 C   0  0  0  0  0  0
  -28.8476  -23.9289   19.8621 C   0  0  0  0  0  0
  -28.2534  -23.5931   22.6812 C   0  0  0  0  0  0
  -28.4687  -25.0185   22.1490 C   0  0  0  0  0  0
  -29.1188  -22.5601   21.9301 C   0  0  0  0  0  0
  -28.1198  -25.0886   20.6560 C   0  0  1  0  0  0
  -27.1809  -19.8965   20.0963 C   0  0  0  0  0  0
  -32.2837  -20.0721   20.3369 C   0  0  0  0  0  0
  -29.6872  -21.5476   19.6849 C   0  0  0  0  0  0
  -29.1103  -22.7071   20.4647 N   0  0  0  0  0  0
  -29.7759  -15.6782   20.8556 N   0  0  0  0  0  0
  -29.1112  -24.1247   18.6709 O   0  0  0  0  0  0
  -31.4841  -12.5304   19.1547 H   0  0  0  0  0  0
  -30.3863  -11.3989   19.8960 H   0  0  0  0  0  0
  -29.7772  -11.7542   17.4846 H   0  0  0  0  0  0
  -29.6559  -13.4762   17.7448 H   0  0  0  0  0  0
  -27.8688  -11.2929   18.8654 H   0  0  0  0  0  0
  -27.3813  -12.5789   17.7940 H   0  0  0  0  0  0
  -27.6738  -14.2506   19.5282 H   0  0  0  0  0  0
  -28.7124  -12.0364   21.3683 H   0  0  0  0  0  0
  -28.4422  -13.6843   21.8542 H   0  0  0  0  0  0
  -25.2768   -9.5667   22.4761 H   0  0  0  0  0  0
  -23.9992   -7.4630   22.7474 H   0  0  0  0  0  0
  -21.0834   -8.8783   19.8961 H   0  0  0  0  0  0
  -22.3700  -10.9678   19.6172 H   0  0  0  0  0  0
  -21.2018   -7.6150   23.9719 H   0  0  0  0  0  0
  -21.1471   -6.0519   25.9074 H   0  0  0  0  0  0
  -22.0602   -2.7607   23.2848 H   0  0  0  0  0  0
  -22.4101  -11.9898   22.4819 H   0  0  0  0  0  0
  -21.1113  -13.1274   22.2613 H   0  0  0  0  0  0
  -24.6459  -15.8317   20.4825 H   0  0  0  0  0  0
  -26.2463  -15.6106   19.9902 H   0  0  0  0  0  0
  -26.7169  -32.5456   23.1105 H   0  0  0  0  0  0
  -25.0069  -33.9724   25.0428 H   0  0  0  0  0  0
  -22.7136  -31.3030   21.4000 H   0  0  0  0  0  0
  -23.3749  -35.9621   23.3279 H   0  0  0  0  0  0
  -24.3586  -36.8930   22.2053 H   0  0  0  0  0  0
  -23.7230  -37.6485   23.6664 H   0  0  0  0  0  0
  -26.0891  -31.5547   20.6048 H   0  0  0  0  0  0
  -26.8407  -30.8427   22.0025 H   0  0  0  0  0  0
  -28.1155  -28.9877   21.2021 H   0  0  0  0  0  0
  -26.0128  -25.9414   18.9840 H   0  0  0  0  0  0
  -23.9816  -27.3088   19.0006 H   0  0  0  0  0  0
  -23.7573  -30.5942   19.4041 H   0  0  0  0  0  0
  -22.7564  -29.2472   19.8545 H   0  0  0  0  0  0
  -25.1280  -36.1932   25.0820 H   0  0  0  0  0  0
  -20.9987  -28.3272   24.1393 H   0  0  0  0  0  0
  -20.5675  -26.2302   23.3609 H   0  0  0  0  0  0
  -21.6649  -26.7433   22.1210 H   0  0  0  0  0  0
  -19.6922  -25.6294   21.1231 H   0  0  0  0  0  0
  -19.6689  -27.3199   20.6745 H   0  0  0  0  0  0
  -17.4203  -26.6662   21.4029 H   0  0  0  0  0  0
  -18.0346  -26.0063   22.9021 H   0  0  0  0  0  0
  -19.7940  -30.7264   24.2261 H   0  0  0  0  0  0
  -17.5022  -31.6254   24.5181 H   0  0  0  0  0  0
  -15.5359  -30.2991   23.7640 H   0  0  0  0  0  0
  -15.8683  -28.0826   22.7053 H   0  0  0  0  0  0
  -24.5903  -30.7076   25.7793 H   0  0  0  0  0  0
  -24.8939  -32.2899   26.4871 H   0  0  0  0  0  0
  -25.8068  -30.8909   27.0227 H   0  0  0  0  0  0
  -26.2894  -29.6743   24.1190 H   0  0  0  0  0  0
  -27.4028  -29.7239   25.4657 H   0  0  0  0  0  0
  -27.8764  -30.4263   23.9375 H   0  0  0  0  0  0
  -27.2668  -33.3599   26.2065 H   0  0  0  0  0  0
  -28.3867  -32.6867   25.0311 H   0  0  0  0  0  0
  -28.0723  -31.8423   26.5396 H   0  0  0  0  0  0
  -28.2567  -38.0119   24.7550 H   0  0  0  0  0  0
  -28.1114  -36.2654   24.6205 H   0  0  0  0  0  0
  -27.2315  -37.1348   25.8856 H   0  0  0  0  0  0
  -20.9358  -29.8762   21.6876 H   0  0  0  0  0  0
  -26.0160  -38.2842   24.1462 H   0  0  0  0  0  0
  -27.6747  -17.2957   20.5867 H   0  0  0  0  0  0
  -31.9579  -17.4287   20.7037 H   0  0  0  0  0  0
  -27.2002  -23.3238   22.5846 H   0  0  0  0  0  0
  -28.4764  -23.5533   23.7482 H   0  0  0  0  0  0
  -29.5022  -25.3279   22.3072 H   0  0  0  0  0  0
  -27.8443  -25.7168   22.7072 H   0  0  0  0  0  0
  -28.7978  -21.5583   22.2148 H   0  0  0  0  0  0
  -30.1540  -22.6503   22.2619 H   0  0  0  0  0  0
  -27.0654  -24.8264   20.5813 H   0  0  0  0  0  0
  -26.3718  -19.1918   20.2905 H   0  0  0  0  0  0
  -27.0689  -20.2558   19.0731 H   0  0  0  0  0  0
  -27.0474  -20.7410   20.7720 H   0  0  0  0  0  0
  -33.0941  -19.4603   20.7351 H   0  0  0  0  0  0
  -32.2396  -20.9811   20.9377 H   0  0  0  0  0  0
  -32.5420  -20.3407   19.3124 H   0  0  0  0  0  0
  -29.1444  -21.5076   18.7392 H   0  0  0  0  0  0
  -30.6883  -21.8556   19.3869 H   0  0  0  0  0  0
  -28.8689  -15.3354   21.1314 H   0  0  0  0  0  0
  1 25  1  0  0  0
  1 30  2  0  0  0
  1 86  1  0  0  0
  2  3  1  0  0  0
  2 25  1  0  0  0
  2 88  1  0  0  0
  2 89  1  0  0  0
  3  4  1  0  0  0
  3 90  1  0  0  0
  3 91  1  0  0  0
  4  5  1  0  0  0
  4 92  1  0  0  0
  4 93  1  0  0  0
  5  6  1  0  0  0
  5 26  1  0  0  0
  5 94  1  0  0  0
  6 25  1  0  0  0
  6 95  1  0  0  0
  6 96  1  0  0  0
  7  8  2  0  0  0
  7 26  1  0  0  0
  7 29  1  0  0  0
  8  9  1  0  0  0
  8 22  1  0  0  0
  9 10  1  0  0  0
  9 27  2  0  0  0
 10 11  2  0  0  0
 10 15  1  0  0  0
 11 12  1  0  0  0
 11 97  1  0  0  0
 12 13  2  0  0  0
 12 98  1  0  0  0
 13 14  1  0  0  0
 13 31  1  0  0  0
 14 15  2  0  0  0
 14 99  1  0  0  0
 15100  1  0  0  0
 16 17  2  0  0  0
 16 21  1  0  0  0
 16 31  1  0  0  0
 17 18  1  0  0  0
 17101  1  0  0  0
 18 19  2  0  0  0
 18102  1  0  0  0
 19 20  1  0  0  0
 19 24  1  0  0  0
 20 21  2  0  0  0
 20103  1  0  0  0
 21 23  1  0  0  0
 22 28  1  0  0  0
 22 32  2  0  0  0
 26 27  1  0  0  0
 28104  1  0  0  0
 28105  1  0  0  0
 29106  1  0  0  0
 29107  1  0  0  0
 33 34  1  0  0  0
 33 66  1  0  0  0
 33 70  2  0  0  0
 34 36  1  0  0  0
 34 59  1  0  0  0
 34108  1  0  0  0
 35 44  2  0  0  0
 35 45  1  0  0  0
 35 68  1  0  0  0
 36 56  1  0  0  0
 36109  1  0  0  0
 37 39  1  0  0  0
 37 47  1  0  0  0
 37 66  1  0  0  0
 37110  1  0  0  0
 38 43  2  0  0  0
 38 46  1  0  0  0
 38 47  1  0  0  0
 39 64  1  0  0  0
 39 67  2  0  0  0
 40 52  1  0  0  0
 40 53  2  0  0  0
 40 58  1  0  0  0
 41111  1  0  0  0
 41112  1  0  0  0
 41113  1  0  0  0
 41 48  1  0  0  0
 42 43  1  0  0  0
 42 66  1  0  0  0
 42114  1  0  0  0
 42115  1  0  0  0
 43 44  1  0  0  0
 44116  1  0  0  0
 45 46  2  0  0  0
 45117  1  0  0  0
 46118  1  0  0  0
 47119  1  0  0  0
 47120  1  0  0  0
 48 56  1  0  0  0
 48 65  1  0  0  0
 48121  1  0  0  0
 49 50  1  0  0  0
 49 53  1  0  0  0
 49 64  1  0  0  0
 49122  1  0  0  0
 50 51  1  0  0  0
 50123  1  0  0  0
 50124  1  0  0  0
 51 52  1  0  0  0
 51125  1  0  0  0
 51126  1  0  0  0
 52127  1  0  0  0
 52128  1  0  0  0
 53 54  1  0  0  0
 54 55  2  0  0  0
 54129  1  0  0  0
 55 57  1  0  0  0
 55130  1  0  0  0
 56 69  2  0  0  0
 57 58  2  0  0  0
 57131  1  0  0  0
 58132  1  0  0  0
 59 60  1  0  0  0
 59 61  1  0  0  0
 59 62  1  0  0  0
 60133  1  0  0  0
 60134  1  0  0  0
 60135  1  0  0  0
 61136  1  0  0  0
 61137  1  0  0  0
 61138  1  0  0  0
 62139  1  0  0  0
 62140  1  0  0  0
 62141  1  0  0  0
 63 65  1  0  0  0
 63142  1  0  0  0
 63143  1  0  0  0
 63144  1  0  0  0
 64145  1  0  0  0
 65146  1  0  0  0
 68 81  1  0  0  0
 71 73  2  0  0  0
 71 76  1  0  0  0
 71147  1  0  0  0
 72 74  1  0  0  0
 72 76  2  0  0  0
 72148  1  0  0  0
 73 75  1  0  0  0
 73 82  1  0  0  0
 74 75  2  0  0  0
 74 83  1  0  0  0
 75 84  1  0  0  0
 76 86  1  0  0  0
 77 81  1  0  0  0
 77 85  1  0  0  0
 77 87  2  0  0  0
 78 79  1  0  0  0
 78 80  1  0  0  0
 78149  1  0  0  0
 78150  1  0  0  0
 79 81  1  0  0  0
 79151  1  0  0  0
 79152  1  0  0  0
 80 85  1  0  0  0
 80153  1  0  0  0
 80154  1  0  0  0
 81155  1  0  0  0
 82156  1  0  0  0
 82157  1  0  0  0
 82158  1  0  0  0
 83159  1  0  0  0
 83160  1  0  0  0
 83161  1  0  0  0
 84 85  1  0  0  0
 84162  1  0  0  0
 84163  1  0  0  0
 86164  1  0  0  0
M  ISO  4   1 100  68 101  81 101  86 100
M  END
> <chiral flag>
0

> <version>
0

> <s_m_source_file>
/data/baiqing/PycharmProjects/Reinvent-master-3.2/result/LINK_invent/BTK/process_docking_weight1_custom_product_contain_oxygen_bond_distance_aromatic_linkinvent_7_9_3/rearranged_h_0051.sdf

> <i_m_source_file_index>
37

> <r_mmod_Potential_Energy-OPLS-2005>
128.016464233398

> <r_mmod_Stretch_Energy-OPLS-2005>
87.1905288696289

> <r_mmod_Bend_Energy-OPLS-2005>
143.072692871094

> <r_mmod_Torsional_Energy-OPLS-2005>
260.6640625

> <r_mmod_Improper_Torsional_Energy-OPLS-2005>
6.66220331192017

> <r_mmod_Van_der_Waal_Energy-OPLS-2005>
147.197494506836

> <r_mmod_Electrostatic_Energy-OPLS-2005>
-341.455017089844

> <r_mmod_Solvation_Energy-OPLS-2005>
-224.071090698242

> <b_mmod_Minimization_Converged-OPLS-2005>
0

> <r_mmod_RMS_Derivative-OPLS-2005>
0.906120777130127

$$$$
37
                    3D
 Structure written by MMmdl.
157165  0  0  1  0            999 V2000
  -30.6615  -14.5443   20.5585 C   0  0  0  0  0  0
  -30.4330  -12.3521   19.4222 C   0  0  0  0  0  0
  -29.4966  -12.5046   18.2049 C   0  0  0  0  0  0
  -28.0196  -12.3510   18.6222 C   0  0  0  0  0  0
  -27.6557  -13.2072   19.8647 C   0  0  2  0  0  0
  -28.7003  -13.0170   20.9858 C   0  0  0  0  0  0
  -25.2574  -13.8155   20.5673 C   0  0  0  0  0  0
  -24.1832  -13.0432   20.9182 C   0  0  0  0  0  0
  -24.6387  -11.6900   20.8736 C   0  0  0  0  0  0
  -23.9056  -10.4288   21.0407 C   0  0  0  0  0  0
  -24.3611   -9.4204   21.9185 C   0  0  0  0  0  0
  -23.6288   -8.2240   22.0754 C   0  0  0  0  0  0
  -22.4270   -8.0278   21.3544 C   0  0  0  0  0  0
  -21.9903   -9.0252   20.4647 C   0  0  0  0  0  0
  -22.7230  -10.2131   20.3056 C   0  0  0  0  0  0
  -21.6851   -6.0734   22.5280 C   0  0  0  0  0  0
  -21.4013   -6.5639   23.8213 C   0  0  0  0  0  0
  -21.3659   -5.6792   24.9176 C   0  0  0  0  0  0
  -21.6044   -4.3055   24.7226 C   0  0  0  0  0  0
  -21.8820   -3.8146   23.4348 C   0  0  0  0  0  0
  -21.9192   -4.6962   22.3403 C   0  0  0  0  0  0
  -22.7857  -13.5233   21.1851 C   0  0  0  0  0  0
  -22.1661   -4.2148   21.0981 F   0  0  0  0  0  0
  -21.5629   -3.4539   25.7739 F   0  0  0  0  0  0
  -30.0191  -13.3489   20.4231 N   0  0  0  0  0  0
  -26.2995  -12.9320   20.3319 N   0  0  0  0  0  0
  -25.9310  -11.6483   20.5750 N   0  0  0  0  0  0
  -22.0498  -12.8227   22.0408 N   0  0  0  0  0  0
  -25.4298  -15.1875   20.4085 N   0  0  0  0  0  0
  -31.8167  -14.7241   20.1638 O   0  0  0  0  0  0
  -21.6636   -6.8875   21.4240 O   0  0  0  0  0  0
  -22.3544  -14.5543   20.6703 O   0  0  0  0  0  0
  -24.6190  -31.8649   23.2065 C   0  0  0  0  0  0
  -25.9067  -32.4805   23.8376 C   0  0  1  0  0  0
  -27.2303  -27.3873   20.1107 C   0  0  0  0  0  0
  -25.5909  -33.8603   24.2308 N   0  0  0  0  0  0
  -23.4092  -30.4874   21.5486 C   0  0  2  0  0  0
  -24.8557  -28.9425   20.1215 C   0  0  0  0  0  0
  -22.7430  -29.4649   22.4981 C   0  0  0  0  0  0
  -18.0274  -28.1378   22.8492 C   0  0  0  0  0  0
  -24.1489  -36.7309   23.2639 C   0  0  0  0  0  0
  -25.9424  -30.8162   21.3662 C   0  0  0  0  0  0
  -26.0199  -29.4447   20.7179 C   0  0  0  0  0  0
  -27.2132  -28.6767   20.7045 C   0  0  0  0  0  0
  -26.0480  -26.9093   19.5108 C   0  0  0  0  0  0
  -24.8665  -27.6753   19.5142 C   0  0  0  0  0  0
  -23.6208  -29.8166   20.1656 C   0  0  0  0  0  0
  -25.4110  -36.3101   24.0334 C   0  0  1  0  0  0
  -20.5867  -28.3673   23.1307 C   0  0  2  0  0  0
  -20.6767  -26.9406   22.5416 C   0  0  0  0  0  0
  -19.5746  -26.6386   21.5213 C   0  0  0  0  0  0
  -18.1922  -26.7924   22.1624 C   0  0  0  0  0  0
  -19.1524  -28.8842   23.2896 C   0  0  0  0  0  0
  -18.9453  -30.1446   23.8909 C   0  0  0  0  0  0
  -17.6456  -30.6587   24.0565 C   0  0  0  0  0  0
  -25.9041  -34.9467   23.5121 C   0  0  0  0  0  0
  -16.5346  -29.9089   23.6327 C   0  0  0  0  0  0
  -16.7263  -28.6503   23.0352 C   0  0  0  0  0  0
  -26.4481  -31.6590   25.0715 C   0  0  0  0  0  0
  -25.3737  -31.3701   26.1457 C   0  0  0  0  0  0
  -27.0314  -30.3027   24.6109 C   0  0  0  0  0  0
  -27.6054  -32.4313   25.7480 C   0  0  0  0  0  0
  -27.5580  -37.1808   24.8465 C   0  0  0  0  0  0
  -21.4154  -29.3037   22.3714 N   0  0  0  0  0  0
  -26.4294  -37.3787   23.9407 N   0  0  0  0  0  0
  -24.6753  -31.0715   22.0984 N   0  0  0  0  0  0
  -23.4182  -28.8193   23.3041 O   0  0  0  0  0  0
  -28.3836  -26.6220   20.0480 O   0  0  0  0  0  0
  -26.5608  -34.8926   22.4685 O   0  0  0  0  0  0
  -23.5372  -32.1423   23.7433 O   0  0  0  0  0  0
  -30.8649  -18.1720   19.3506 C   0  0  0  0  0  0
  -30.8075  -19.3172   18.5322 C   0  0  0  0  0  0
  -29.3070  -19.2325   20.8909 C   0  0  0  0  0  0
  -30.1265  -18.1138   20.5478 C   0  0  0  0  0  0
  -29.2284  -20.3974   20.0648 C   0  0  0  0  0  0
  -30.0035  -20.4219   18.8800 C   0  0  0  0  0  0
  -28.2863  -24.0676   20.1663 C   0  0  0  0  0  0
  -29.6255  -22.9226   21.9119 C   0  0  0  0  0  0
  -30.3188  -16.9054   21.4932 C   0  0  0  0  0  0
  -28.2326  -21.5472   20.3837 C   0  0  0  0  0  0
  -28.4631  -25.4439   20.9008 C   0  0  0  0  0  0
  -29.9020  -15.5610   21.0315 N   0  0  0  0  0  0
  -28.7439  -22.9064   20.7423 N   0  0  0  0  0  0
  -27.6610  -24.0504   19.1021 O   0  0  0  0  0  0
  -29.9652  -21.7776   17.8099 Cl  0  0  0  0  0  0
  -31.4733  -12.4781   19.1168 H   0  0  0  0  0  0
  -30.3630  -11.3467   19.8401 H   0  0  0  0  0  0
  -29.7474  -11.7665   17.4418 H   0  0  0  0  0  0
  -29.6474  -13.4825   17.7450 H   0  0  0  0  0  0
  -27.8461  -11.2961   18.8384 H   0  0  0  0  0  0
  -27.3637  -12.6003   17.7873 H   0  0  0  0  0  0
  -27.6888  -14.2495   19.5468 H   0  0  0  0  0  0
  -28.6978  -11.9843   21.3376 H   0  0  0  0  0  0
  -28.4544  -13.6231   21.8589 H   0  0  0  0  0  0
  -25.2757   -9.5682   22.4756 H   0  0  0  0  0  0
  -23.9999   -7.4631   22.7472 H   0  0  0  0  0  0
  -21.0835   -8.8769   19.8953 H   0  0  0  0  0  0
  -22.3689  -10.9670   19.6164 H   0  0  0  0  0  0
  -21.2004   -7.6147   23.9716 H   0  0  0  0  0  0
  -21.1480   -6.0523   25.9079 H   0  0  0  0  0  0
  -22.0600   -2.7608   23.2849 H   0  0  0  0  0  0
  -22.4109  -11.9882   22.4790 H   0  0  0  0  0  0
  -21.1120  -13.1258   22.2621 H   0  0  0  0  0  0
  -24.6624  -15.8421   20.5158 H   0  0  0  0  0  0
  -26.2788  -15.6267   20.0750 H   0  0  0  0  0  0
  -26.7136  -32.5507   23.1136 H   0  0  0  0  0  0
  -25.0057  -33.9759   25.0452 H   0  0  0  0  0  0
  -22.6999  -31.3051   21.4058 H   0  0  0  0  0  0
  -23.3745  -35.9648   23.3313 H   0  0  0  0  0  0
  -24.3579  -36.8914   22.2051 H   0  0  0  0  0  0
  -23.7250  -37.6519   23.6649 H   0  0  0  0  0  0
  -26.0588  -31.5779   20.5941 H   0  0  0  0  0  0
  -26.8289  -30.8724   21.9864 H   0  0  0  0  0  0
  -28.1162  -29.0660   21.1540 H   0  0  0  0  0  0
  -26.0358  -25.9450   19.0256 H   0  0  0  0  0  0
  -23.9736  -27.2839   19.0465 H   0  0  0  0  0  0
  -23.7350  -30.5901   19.4050 H   0  0  0  0  0  0
  -22.7428  -29.2403   19.8681 H   0  0  0  0  0  0
  -25.1287  -36.1965   25.0827 H   0  0  0  0  0  0
  -20.9954  -28.3244   24.1430 H   0  0  0  0  0  0
  -20.5676  -26.2281   23.3606 H   0  0  0  0  0  0
  -21.6637  -26.7454   22.1205 H   0  0  0  0  0  0
  -19.6913  -25.6301   21.1236 H   0  0  0  0  0  0
  -19.6684  -27.3204   20.6748 H   0  0  0  0  0  0
  -17.4194  -26.6673   21.4025 H   0  0  0  0  0  0
  -18.0323  -26.0061   22.9015 H   0  0  0  0  0  0
  -19.7931  -30.7253   24.2288 H   0  0  0  0  0  0
  -17.5015  -31.6269   24.5162 H   0  0  0  0  0  0
  -15.5348  -30.2997   23.7645 H   0  0  0  0  0  0
  -15.8661  -28.0827   22.7065 H   0  0  0  0  0  0
  -24.5912  -30.7048   25.7790 H   0  0  0  0  0  0
  -24.8924  -32.2856   26.4909 H   0  0  0  0  0  0
  -25.8083  -30.8867   27.0215 H   0  0  0  0  0  0
  -26.2865  -29.6781   24.1164 H   0  0  0  0  0  0
  -27.4075  -29.7270   25.4577 H   0  0  0  0  0  0
  -27.8705  -30.4333   23.9270 H   0  0  0  0  0  0
  -27.2674  -33.3606   26.2077 H   0  0  0  0  0  0
  -28.3854  -32.6883   25.0300 H   0  0  0  0  0  0
  -28.0734  -31.8423   26.5378 H   0  0  0  0  0  0
  -28.2605  -38.0098   24.7507 H   0  0  0  0  0  0
  -28.1068  -36.2630   24.6300 H   0  0  0  0  0  0
  -27.2297  -37.1471   25.8869 H   0  0  0  0  0  0
  -20.9323  -29.8756   21.6928 H   0  0  0  0  0  0
  -26.0183  -38.2867   24.1401 H   0  0  0  0  0  0
  -31.5055  -17.3472   19.0704 H   0  0  0  0  0  0
  -31.3892  -19.3489   17.6220 H   0  0  0  0  0  0
  -28.7278  -19.1964   21.8031 H   0  0  0  0  0  0
  -29.1556  -23.4377   22.7508 H   0  0  0  0  0  0
  -30.5660  -23.4231   21.6784 H   0  0  0  0  0  0
  -29.8745  -21.9178   22.2541 H   0  0  0  0  0  0
  -29.7811  -17.1061   22.4206 H   0  0  0  0  0  0
  -31.3720  -16.8709   21.7779 H   0  0  0  0  0  0
  -27.5956  -21.2241   21.2080 H   0  0  0  0  0  0
  -27.5543  -21.6084   19.5315 H   0  0  0  0  0  0
  -29.4446  -25.4826   21.3709 H   0  0  0  0  0  0
  -27.7331  -25.5035   21.7096 H   0  0  0  0  0  0
  -28.9475  -15.3127   21.2407 H   0  0  0  0  0  0
  1 25  1  0  0  0
  1 30  2  0  0  0
  1 82  1  0  0  0
  2  3  1  0  0  0
  2 25  1  0  0  0
  2 86  1  0  0  0
  2 87  1  0  0  0
  3  4  1  0  0  0
  3 88  1  0  0  0
  3 89  1  0  0  0
  4  5  1  0  0  0
  4 90  1  0  0  0
  4 91  1  0  0  0
  5  6  1  0  0  0
  5 26  1  0  0  0
  5 92  1  0  0  0
  6 25  1  0  0  0
  6 93  1  0  0  0
  6 94  1  0  0  0
  7  8  2  0  0  0
  7 26  1  0  0  0
  7 29  1  0  0  0
  8  9  1  0  0  0
  8 22  1  0  0  0
  9 10  1  0  0  0
  9 27  2  0  0  0
 10 11  2  0  0  0
 10 15  1  0  0  0
 11 12  1  0  0  0
 11 95  1  0  0  0
 12 13  2  0  0  0
 12 96  1  0  0  0
 13 14  1  0  0  0
 13 31  1  0  0  0
 14 15  2  0  0  0
 14 97  1  0  0  0
 15 98  1  0  0  0
 16 17  2  0  0  0
 16 21  1  0  0  0
 16 31  1  0  0  0
 17 18  1  0  0  0
 17 99  1  0  0  0
 18 19  2  0  0  0
 18100  1  0  0  0
 19 20  1  0  0  0
 19 24  1  0  0  0
 20 21  2  0  0  0
 20101  1  0  0  0
 21 23  1  0  0  0
 22 28  1  0  0  0
 22 32  2  0  0  0
 26 27  1  0  0  0
 28102  1  0  0  0
 28103  1  0  0  0
 29104  1  0  0  0
 29105  1  0  0  0
 33 34  1  0  0  0
 33 66  1  0  0  0
 33 70  2  0  0  0
 34 36  1  0  0  0
 34 59  1  0  0  0
 34106  1  0  0  0
 35 44  2  0  0  0
 35 45  1  0  0  0
 35 68  1  0  0  0
 36 56  1  0  0  0
 36107  1  0  0  0
 37 39  1  0  0  0
 37 47  1  0  0  0
 37 66  1  0  0  0
 37108  1  0  0  0
 38 43  2  0  0  0
 38 46  1  0  0  0
 38 47  1  0  0  0
 39 64  1  0  0  0
 39 67  2  0  0  0
 40 52  1  0  0  0
 40 53  2  0  0  0
 40 58  1  0  0  0
 41109  1  0  0  0
 41110  1  0  0  0
 41111  1  0  0  0
 41 48  1  0  0  0
 42 43  1  0  0  0
 42 66  1  0  0  0
 42112  1  0  0  0
 42113  1  0  0  0
 43 44  1  0  0  0
 44114  1  0  0  0
 45 46  2  0  0  0
 45115  1  0  0  0
 46116  1  0  0  0
 47117  1  0  0  0
 47118  1  0  0  0
 48 56  1  0  0  0
 48 65  1  0  0  0
 48119  1  0  0  0
 49 50  1  0  0  0
 49 53  1  0  0  0
 49 64  1  0  0  0
 49120  1  0  0  0
 50 51  1  0  0  0
 50121  1  0  0  0
 50122  1  0  0  0
 51 52  1  0  0  0
 51123  1  0  0  0
 51124  1  0  0  0
 52125  1  0  0  0
 52126  1  0  0  0
 53 54  1  0  0  0
 54 55  2  0  0  0
 54127  1  0  0  0
 55 57  1  0  0  0
 55128  1  0  0  0
 56 69  2  0  0  0
 57 58  2  0  0  0
 57129  1  0  0  0
 58130  1  0  0  0
 59 60  1  0  0  0
 59 61  1  0  0  0
 59 62  1  0  0  0
 60131  1  0  0  0
 60132  1  0  0  0
 60133  1  0  0  0
 61134  1  0  0  0
 61135  1  0  0  0
 61136  1  0  0  0
 62137  1  0  0  0
 62138  1  0  0  0
 62139  1  0  0  0
 63 65  1  0  0  0
 63140  1  0  0  0
 63141  1  0  0  0
 63142  1  0  0  0
 64143  1  0  0  0
 65144  1  0  0  0
 68 81  1  0  0  0
 71 72  2  0  0  0
 71 74  1  0  0  0
 71145  1  0  0  0
 72 76  1  0  0  0
 72146  1  0  0  0
 73 74  2  0  0  0
 73 75  1  0  0  0
 73147  1  0  0  0
 74 79  1  0  0  0
 75 76  2  0  0  0
 75 80  1  0  0  0
 76 85  1  0  0  0
 77 81  1  0  0  0
 77 83  1  0  0  0
 77 84  2  0  0  0
 78 83  1  0  0  0
 78148  1  0  0  0
 78149  1  0  0  0
 78150  1  0  0  0
 79 82  1  0  0  0
 79151  1  0  0  0
 79152  1  0  0  0
 80 83  1  0  0  0
 80153  1  0  0  0
 80154  1  0  0  0
 81155  1  0  0  0
 81156  1  0  0  0
 82157  1  0  0  0
M  ISO  4   1 100  68 101  81 101  82 100
M  END
> <chiral flag>
0

> <version>
0

> <s_m_source_file>
/data/baiqing/PycharmProjects/Reinvent-master-3.2/result/LINK_invent/BTK/process_docking_weight1_custom_product_contain_oxygen_bond_distance_aromatic_linkinvent_7_9_3/rearranged_h_0051.sdf

> <i_m_source_file_index>
38

> <r_mmod_Potential_Energy-OPLS-2005>
-32.8085556030273

> <r_mmod_Stretch_Energy-OPLS-2005>
54.9209785461426

> <r_mmod_Bend_Energy-OPLS-2005>
111.819747924805

> <r_mmod_Torsional_Energy-OPLS-2005>
244.785583496094

> <r_mmod_Improper_Torsional_Energy-OPLS-2005>
4.63857555389404

> <r_mmod_Van_der_Waal_Energy-OPLS-2005>
143.171417236328

> <r_mmod_Electrostatic_Energy-OPLS-2005>
-381.316680908203

> <r_mmod_Solvation_Energy-OPLS-2005>
-233.035522460938

> <b_mmod_Minimization_Converged-OPLS-2005>
0

> <r_mmod_RMS_Derivative-OPLS-2005>
0.302566289901733

$$$$
38
                    3D
 Structure written by MMmdl.
171180  0  0  1  0            999 V2000
  -30.6610  -14.6156   20.4944 C   0  0  0  0  0  0
  -30.4215  -12.3749   19.4558 C   0  0  0  0  0  0
  -29.5024  -12.5078   18.2228 C   0  0  0  0  0  0
  -28.0235  -12.3546   18.6291 C   0  0  0  0  0  0
  -27.6483  -13.2236   19.8602 C   0  0  2  0  0  0
  -28.6933  -13.0931   20.9918 C   0  0  0  0  0  0
  -25.2500  -13.8148   20.5652 C   0  0  0  0  0  0
  -24.1798  -13.0413   20.9204 C   0  0  0  0  0  0
  -24.6391  -11.6895   20.8745 C   0  0  0  0  0  0
  -23.9071  -10.4275   21.0401 C   0  0  0  0  0  0
  -24.3620   -9.4194   21.9181 C   0  0  0  0  0  0
  -23.6293   -8.2230   22.0755 C   0  0  0  0  0  0
  -22.4278   -8.0270   21.3541 C   0  0  0  0  0  0
  -21.9913   -9.0242   20.4643 C   0  0  0  0  0  0
  -22.7241  -10.2119   20.3052 C   0  0  0  0  0  0
  -21.6853   -6.0734   22.5279 C   0  0  0  0  0  0
  -21.4009   -6.5637   23.8210 C   0  0  0  0  0  0
  -21.3658   -5.6790   24.9173 C   0  0  0  0  0  0
  -21.6048   -4.3055   24.7226 C   0  0  0  0  0  0
  -21.8819   -3.8148   23.4345 C   0  0  0  0  0  0
  -21.9192   -4.6962   22.3401 C   0  0  0  0  0  0
  -22.7822  -13.5211   21.1857 C   0  0  0  0  0  0
  -22.1664   -4.2150   21.0978 F   0  0  0  0  0  0
  -21.5629   -3.4539   25.7737 F   0  0  0  0  0  0
  -30.0113  -13.4117   20.4241 N   0  0  0  0  0  0
  -26.2957  -12.9367   20.3305 N   0  0  0  0  0  0
  -25.9324  -11.6516   20.5762 N   0  0  0  0  0  0
  -22.0466  -12.8202   22.0410 N   0  0  0  0  0  0
  -25.4105  -15.1852   20.3967 N   0  0  0  0  0  0
  -31.8317  -14.7115   20.1189 O   0  0  0  0  0  0
  -21.6638   -6.8872   21.4240 O   0  0  0  0  0  0
  -22.3509  -14.5517   20.6704 O   0  0  0  0  0  0
  -24.6247  -31.8583   23.1994 C   0  0  0  0  0  0
  -25.9106  -32.4766   23.8318 C   0  0  1  0  0  0
  -27.2332  -27.3313   20.1219 C   0  0  0  0  0  0
  -25.5923  -33.8566   24.2261 N   0  0  0  0  0  0
  -23.4161  -30.4780   21.5426 C   0  0  2  0  0  0
  -24.8606  -28.9204   20.1190 C   0  0  0  0  0  0
  -22.7449  -29.4625   22.4962 C   0  0  0  0  0  0
  -18.0272  -28.1391   22.8486 C   0  0  0  0  0  0
  -24.1479  -36.7281   23.2631 C   0  0  0  0  0  0
  -25.9517  -30.7953   21.3613 C   0  0  0  0  0  0
  -26.0264  -29.4194   20.7111 C   0  0  0  0  0  0
  -27.2141  -28.6377   20.6940 C   0  0  0  0  0  0
  -26.0410  -26.8620   19.5321 C   0  0  0  0  0  0
  -24.8679  -27.6462   19.5239 C   0  0  0  0  0  0
  -23.6281  -29.8005   20.1617 C   0  0  0  0  0  0
  -25.4101  -36.3074   24.0329 C   0  0  1  0  0  0
  -20.5868  -28.3691   23.1293 C   0  0  2  0  0  0
  -20.6768  -26.9419   22.5413 C   0  0  0  0  0  0
  -19.5747  -26.6388   21.5215 C   0  0  0  0  0  0
  -18.1921  -26.7934   22.1619 C   0  0  0  0  0  0
  -19.1524  -28.8857   23.2883 C   0  0  0  0  0  0
  -18.9458  -30.1461   23.8900 C   0  0  0  0  0  0
  -17.6460  -30.6598   24.0569 C   0  0  0  0  0  0
  -25.9050  -34.9446   23.5099 C   0  0  0  0  0  0
  -16.5347  -29.9099   23.6338 C   0  0  0  0  0  0
  -16.7261  -28.6516   23.0355 C   0  0  0  0  0  0
  -26.4509  -31.6570   25.0683 C   0  0  0  0  0  0
  -25.3760  -31.3695   26.1426 C   0  0  0  0  0  0
  -27.0344  -30.2998   24.6110 C   0  0  0  0  0  0
  -27.6064  -32.4301   25.7462 C   0  0  0  0  0  0
  -27.5592  -37.1763   24.8448 C   0  0  0  0  0  0
  -21.4164  -29.3045   22.3697 N   0  0  0  0  0  0
  -26.4266  -37.3788   23.9448 N   0  0  0  0  0  0
  -24.6832  -31.0604   22.0927 N   0  0  0  0  0  0
  -23.4175  -28.8179   23.3051 O   0  0  0  0  0  0
  -28.4111  -26.5803   20.1290 O   0  0  0  0  0  0
  -26.5620  -34.8926   22.4667 O   0  0  0  0  0  0
  -23.5422  -32.1377   23.7342 O   0  0  0  0  0  0
  -30.6914  -19.9669   20.3471 C   0  0  0  0  0  0
  -31.4816  -17.6508   20.5270 C   0  0  0  0  0  0
  -31.7426  -19.0276   20.3685 C   0  0  0  0  0  0
  -29.3510  -19.5545   20.4991 C   0  0  0  0  0  0
  -29.1029  -18.1364   20.6717 C   0  0  0  0  0  0
  -30.1633  -17.1539   20.6657 C   0  0  0  0  0  0
  -27.2661  -22.9783   21.1094 C   0  0  0  0  0  0
  -23.9580  -21.2576   21.3443 C   0  0  0  0  0  0
  -25.9590  -22.6629   21.2968 C   0  0  0  0  0  0
  -25.2091  -21.4780   20.9117 C   0  0  0  0  0  0
  -27.7850  -24.4071   21.4122 C   0  0  0  0  0  0
  -28.3481  -24.2353   18.9369 C   0  0  0  0  0  0
  -28.7733  -22.7274   19.1480 C   0  0  0  0  0  0
  -28.4956  -25.1046   20.2168 C   0  0  1  0  0  0
  -33.1740  -19.5030   20.2068 C   0  0  0  0  0  0
  -27.6644  -17.6652   20.8507 C   0  0  0  0  0  0
  -28.1732  -20.6012   20.4526 C   0  0  0  0  0  0
  -29.9010  -15.7146   20.8110 N   0  0  0  0  0  0
  -28.3599  -22.1200   20.4591 N   0  3  2  0  0  0
  -31.4667  -12.4690   19.1573 H   0  0  0  0  0  0
  -30.3298  -11.3826   19.9004 H   0  0  0  0  0  0
  -29.7635  -11.7608   17.4721 H   0  0  0  0  0  0
  -29.6542  -13.4802   17.7507 H   0  0  0  0  0  0
  -27.8503  -11.3008   18.8504 H   0  0  0  0  0  0
  -27.3754  -12.5985   17.7863 H   0  0  0  0  0  0
  -27.6609  -14.2581   19.5178 H   0  0  0  0  0  0
  -28.6953  -12.0803   21.3976 H   0  0  0  0  0  0
  -28.4470  -13.7493   21.8277 H   0  0  0  0  0  0
  -25.2763   -9.5675   22.4756 H   0  0  0  0  0  0
  -24.0006   -7.4626   22.7475 H   0  0  0  0  0  0
  -21.0848   -8.8756   19.8945 H   0  0  0  0  0  0
  -22.3702  -10.9659   19.6159 H   0  0  0  0  0  0
  -21.1993   -7.6145   23.9715 H   0  0  0  0  0  0
  -21.1483   -6.0520   25.9075 H   0  0  0  0  0  0
  -22.0601   -2.7611   23.2846 H   0  0  0  0  0  0
  -22.4094  -11.9871   22.4798 H   0  0  0  0  0  0
  -21.1081  -13.1214   22.2602 H   0  0  0  0  0  0
  -24.6309  -15.8275   20.4881 H   0  0  0  0  0  0
  -26.2342  -15.6137   19.9987 H   0  0  0  0  0  0
  -26.7171  -32.5443   23.1061 H   0  0  0  0  0  0
  -25.0087  -33.9705   25.0419 H   0  0  0  0  0  0
  -22.7101  -31.2976   21.3937 H   0  0  0  0  0  0
  -23.3772  -35.9578   23.3221 H   0  0  0  0  0  0
  -24.3596  -36.8981   22.2065 H   0  0  0  0  0  0
  -23.7183  -37.6436   23.6703 H   0  0  0  0  0  0
  -26.0700  -31.5532   20.5862 H   0  0  0  0  0  0
  -26.8379  -30.8532   21.9816 H   0  0  0  0  0  0
  -28.1176  -29.0239   21.1448 H   0  0  0  0  0  0
  -26.0007  -25.8868   19.0766 H   0  0  0  0  0  0
  -23.9697  -27.2520   19.0685 H   0  0  0  0  0  0
  -23.7450  -30.5691   19.3969 H   0  0  0  0  0  0
  -22.7490  -29.2251   19.8665 H   0  0  0  0  0  0
  -25.1266  -36.1905   25.0815 H   0  0  0  0  0  0
  -20.9949  -28.3272   24.1417 H   0  0  0  0  0  0
  -20.5680  -26.2304   23.3612 H   0  0  0  0  0  0
  -21.6640  -26.7464   22.1202 H   0  0  0  0  0  0
  -19.6913  -25.6297   21.1252 H   0  0  0  0  0  0
  -19.6687  -27.3196   20.6744 H   0  0  0  0  0  0
  -17.4192  -26.6683   21.4021 H   0  0  0  0  0  0
  -18.0314  -26.0074   22.9013 H   0  0  0  0  0  0
  -19.7934  -30.7274   24.2268 H   0  0  0  0  0  0
  -17.5019  -31.6283   24.5166 H   0  0  0  0  0  0
  -15.5353  -30.3010   23.7670 H   0  0  0  0  0  0
  -15.8653  -28.0849   22.7068 H   0  0  0  0  0  0
  -24.5918  -30.7065   25.7761 H   0  0  0  0  0  0
  -24.8981  -32.2860   26.4897 H   0  0  0  0  0  0
  -25.8105  -30.8837   27.0173 H   0  0  0  0  0  0
  -26.2894  -29.6729   24.1198 H   0  0  0  0  0  0
  -27.4129  -29.7274   25.4590 H   0  0  0  0  0  0
  -27.8724  -30.4293   23.9256 H   0  0  0  0  0  0
  -27.2674  -33.3605   26.2031 H   0  0  0  0  0  0
  -28.3889  -32.6851   25.0301 H   0  0  0  0  0  0
  -28.0713  -31.8425   26.5391 H   0  0  0  0  0  0
  -28.2515  -38.0154   24.7644 H   0  0  0  0  0  0
  -28.1180  -36.2698   24.6070 H   0  0  0  0  0  0
  -27.2339  -37.1165   25.8850 H   0  0  0  0  0  0
  -20.9346  -29.8757   21.6894 H   0  0  0  0  0  0
  -26.0135  -38.2833   24.1555 H   0  0  0  0  0  0
  -30.9401  -21.0086   20.2127 H   0  0  0  0  0  0
  -32.3310  -16.9846   20.5420 H   0  0  0  0  0  0
  -23.4090  -20.3782   21.0363 H   0  0  0  0  0  0
  -23.4556  -21.9453   22.0110 H   0  0  0  0  0  0
  -25.3586  -23.4447   21.7410 H   0  0  0  0  0  0
  -25.6112  -20.7421   20.2380 H   0  0  0  0  0  0
  -28.4487  -24.3700   22.2778 H   0  0  0  0  0  0
  -26.9430  -25.0242   21.7257 H   0  0  0  0  0  0
  -27.3168  -24.2552   18.5898 H   0  0  0  0  0  0
  -28.9395  -24.6629   18.1269 H   0  0  0  0  0  0
  -29.8548  -22.6382   19.0554 H   0  0  0  0  0  0
  -28.3561  -22.1394   18.3300 H   0  0  0  0  0  0
  -29.5559  -24.9949   20.4512 H   0  0  0  0  0  0
  -33.3038  -20.5070   20.6119 H   0  0  0  0  0  0
  -33.4499  -19.5255   19.1521 H   0  0  0  0  0  0
  -33.8703  -18.8443   20.7271 H   0  0  0  0  0  0
  -27.1654  -18.2179   21.6454 H   0  0  0  0  0  0
  -27.5917  -16.6182   21.1342 H   0  0  0  0  0  0
  -27.1016  -17.7997   19.9269 H   0  0  0  0  0  0
  -27.5954  -20.3797   21.3477 H   0  0  0  0  0  0
  -27.5636  -20.3303   19.5917 H   0  0  0  0  0  0
  -28.9562  -15.4777   21.0701 H   0  0  0  0  0  0
  -29.1652  -22.2295   21.0563 H   0  0  0  0  0  0
  1 25  1  0  0  0
  1 30  2  0  0  0
  1 88  1  0  0  0
  2  3  1  0  0  0
  2 25  1  0  0  0
  2 90  1  0  0  0
  2 91  1  0  0  0
  3  4  1  0  0  0
  3 92  1  0  0  0
  3 93  1  0  0  0
  4  5  1  0  0  0
  4 94  1  0  0  0
  4 95  1  0  0  0
  5  6  1  0  0  0
  5 26  1  0  0  0
  5 96  1  0  0  0
  6 25  1  0  0  0
  6 97  1  0  0  0
  6 98  1  0  0  0
  7  8  2  0  0  0
  7 26  1  0  0  0
  7 29  1  0  0  0
  8  9  1  0  0  0
  8 22  1  0  0  0
  9 10  1  0  0  0
  9 27  2  0  0  0
 10 11  2  0  0  0
 10 15  1  0  0  0
 11 12  1  0  0  0
 11 99  1  0  0  0
 12 13  2  0  0  0
 12100  1  0  0  0
 13 14  1  0  0  0
 13 31  1  0  0  0
 14 15  2  0  0  0
 14101  1  0  0  0
 15102  1  0  0  0
 16 17  2  0  0  0
 16 21  1  0  0  0
 16 31  1  0  0  0
 17 18  1  0  0  0
 17103  1  0  0  0
 18 19  2  0  0  0
 18104  1  0  0  0
 19 20  1  0  0  0
 19 24  1  0  0  0
 20 21  2  0  0  0
 20105  1  0  0  0
 21 23  1  0  0  0
 22 28  1  0  0  0
 22 32  2  0  0  0
 26 27  1  0  0  0
 28106  1  0  0  0
 28107  1  0  0  0
 29108  1  0  0  0
 29109  1  0  0  0
 33 34  1  0  0  0
 33 66  1  0  0  0
 33 70  2  0  0  0
 34 36  1  0  0  0
 34 59  1  0  0  0
 34110  1  0  0  0
 35 44  2  0  0  0
 35 45  1  0  0  0
 35 68  1  0  0  0
 36 56  1  0  0  0
 36111  1  0  0  0
 37 39  1  0  0  0
 37 47  1  0  0  0
 37 66  1  0  0  0
 37112  1  0  0  0
 38 43  2  0  0  0
 38 46  1  0  0  0
 38 47  1  0  0  0
 39 64  1  0  0  0
 39 67  2  0  0  0
 40 52  1  0  0  0
 40 53  2  0  0  0
 40 58  1  0  0  0
 41113  1  0  0  0
 41114  1  0  0  0
 41115  1  0  0  0
 41 48  1  0  0  0
 42 43  1  0  0  0
 42 66  1  0  0  0
 42116  1  0  0  0
 42117  1  0  0  0
 43 44  1  0  0  0
 44118  1  0  0  0
 45 46  2  0  0  0
 45119  1  0  0  0
 46120  1  0  0  0
 47121  1  0  0  0
 47122  1  0  0  0
 48 56  1  0  0  0
 48 65  1  0  0  0
 48123  1  0  0  0
 49 50  1  0  0  0
 49 53  1  0  0  0
 49 64  1  0  0  0
 49124  1  0  0  0
 50 51  1  0  0  0
 50125  1  0  0  0
 50126  1  0  0  0
 51 52  1  0  0  0
 51127  1  0  0  0
 51128  1  0  0  0
 52129  1  0  0  0
 52130  1  0  0  0
 53 54  1  0  0  0
 54 55  2  0  0  0
 54131  1  0  0  0
 55 57  1  0  0  0
 55132  1  0  0  0
 56 69  2  0  0  0
 57 58  2  0  0  0
 57133  1  0  0  0
 58134  1  0  0  0
 59 60  1  0  0  0
 59 61  1  0  0  0
 59 62  1  0  0  0
 60135  1  0  0  0
 60136  1  0  0  0
 60137  1  0  0  0
 61138  1  0  0  0
 61139  1  0  0  0
 61140  1  0  0  0
 62141  1  0  0  0
 62142  1  0  0  0
 62143  1  0  0  0
 63 65  1  0  0  0
 63144  1  0  0  0
 63145  1  0  0  0
 63146  1  0  0  0
 64147  1  0  0  0
 65148  1  0  0  0
 68 84  1  0  0  0
 71 73  2  0  0  0
 71 74  1  0  0  0
 71149  1  0  0  0
 72 73  1  0  0  0
 72 76  2  0  0  0
 72150  1  0  0  0
 73 85  1  0  0  0
 74 75  2  0  0  0
 74 87  1  0  0  0
 75 76  1  0  0  0
 75 86  1  0  0  0
 76 88  1  0  0  0
 77 79  2  0  0  0
 77 81  1  0  0  0
 77 89  1  0  0  0
 78 80  2  0  0  0
 78151  1  0  0  0
 78152  1  0  0  0
 79 80  1  0  0  0
 79153  1  0  0  0
 80154  1  0  0  0
 81 84  1  0  0  0
 81155  1  0  0  0
 81156  1  0  0  0
 82 83  1  0  0  0
 82 84  1  0  0  0
 82157  1  0  0  0
 82158  1  0  0  0
 83 89  1  0  0  0
 83159  1  0  0  0
 83160  1  0  0  0
 84161  1  0  0  0
 85162  1  0  0  0
 85163  1  0  0  0
 85164  1  0  0  0
 86165  1  0  0  0
 86166  1  0  0  0
 86167  1  0  0  0
 87168  1  0  0  0
 87169  1  0  0  0
 87 89  1  0  0  0
 88170  1  0  0  0
 89171  1  0  0  0
M  CHG  1  89   1
M  ISO  4   1 100  68 101  84 101  88 100
M  END
> <chiral flag>
0

> <version>
0

> <s_m_source_file>
/data/baiqing/PycharmProjects/Reinvent-master-3.2/result/LINK_invent/BTK/process_docking_weight1_custom_product_contain_oxygen_bond_distance_aromatic_linkinvent_7_9_3/rearranged_h_0051.sdf

> <i_m_source_file_index>
39

> <r_mmod_Potential_Energy-OPLS-2005>
-1.52901303768158

> <r_mmod_Stretch_Energy-OPLS-2005>
87.0294494628906

> <r_mmod_Bend_Energy-OPLS-2005>
193.227142333984

> <r_mmod_Torsional_Energy-OPLS-2005>
243.489028930664

> <r_mmod_Improper_Torsional_Energy-OPLS-2005>
5.07422876358032

> <r_mmod_Van_der_Waal_Energy-OPLS-2005>
156.748016357422

> <r_mmod_Electrostatic_Energy-OPLS-2005>
-287.705902099609

> <r_mmod_Solvation_Energy-OPLS-2005>
-437.966125488281

> <b_mmod_Minimization_Converged-OPLS-2005>
0

> <r_mmod_RMS_Derivative-OPLS-2005>
1.20728135108948

$$$$
39
                    3D
 Structure written by MMmdl.
157165  0  0  1  0            999 V2000
  -30.6983  -14.4495   20.5864 C   0  0  0  0  0  0
  -30.4204  -12.2974   19.4145 C   0  0  0  0  0  0
  -29.4926  -12.5068   18.2003 C   0  0  0  0  0  0
  -28.0116  -12.3700   18.6096 C   0  0  0  0  0  0
  -27.6608  -13.2021   19.8725 C   0  0  2  0  0  0
  -28.7001  -12.9638   20.9896 C   0  0  0  0  0  0
  -25.2589  -13.8133   20.5679 C   0  0  0  0  0  0
  -24.1842  -13.0420   20.9143 C   0  0  0  0  0  0
  -24.6395  -11.6880   20.8708 C   0  0  0  0  0  0
  -23.9045  -10.4273   21.0394 C   0  0  0  0  0  0
  -24.3610   -9.4199   21.9170 C   0  0  0  0  0  0
  -23.6291   -8.2242   22.0761 C   0  0  0  0  0  0
  -22.4277   -8.0269   21.3547 C   0  0  0  0  0  0
  -21.9899   -9.0234   20.4653 C   0  0  0  0  0  0
  -22.7219  -10.2112   20.3043 C   0  0  0  0  0  0
  -21.6845   -6.0732   22.5283 C   0  0  0  0  0  0
  -21.4012   -6.5644   23.8213 C   0  0  0  0  0  0
  -21.3656   -5.6801   24.9179 C   0  0  0  0  0  0
  -21.6044   -4.3061   24.7225 C   0  0  0  0  0  0
  -21.8819   -3.8148   23.4345 C   0  0  0  0  0  0
  -21.9194   -4.6965   22.3403 C   0  0  0  0  0  0
  -22.7873  -13.5233   21.1804 C   0  0  0  0  0  0
  -22.1670   -4.2158   21.0976 F   0  0  0  0  0  0
  -21.5620   -3.4538   25.7730 F   0  0  0  0  0  0
  -30.0290  -13.2744   20.4429 N   0  0  0  0  0  0
  -26.3015  -12.9308   20.3349 N   0  0  0  0  0  0
  -25.9320  -11.6463   20.5728 N   0  0  0  0  0  0
  -22.0524  -12.8242   22.0375 N   0  0  0  0  0  0
  -25.4317  -15.1857   20.4155 N   0  0  0  0  0  0
  -31.8238  -14.6426   20.1242 O   0  0  0  0  0  0
  -21.6634   -6.8872   21.4248 O   0  0  0  0  0  0
  -22.3566  -14.5535   20.6629 O   0  0  0  0  0  0
  -24.6117  -31.8682   23.2111 C   0  0  0  0  0  0
  -25.9010  -32.4832   23.8403 C   0  0  1  0  0  0
  -27.2327  -27.4394   20.1145 C   0  0  0  0  0  0
  -25.5880  -33.8640   24.2325 N   0  0  0  0  0  0
  -23.4009  -30.4904   21.5497 C   0  0  2  0  0  0
  -24.8496  -28.9542   20.1193 C   0  0  0  0  0  0
  -22.7368  -29.4696   22.5011 C   0  0  0  0  0  0
  -18.0278  -28.1384   22.8452 C   0  0  0  0  0  0
  -24.1485  -36.7320   23.2637 C   0  0  0  0  0  0
  -25.9288  -30.8389   21.3634 C   0  0  0  0  0  0
  -26.0076  -29.4712   20.7160 C   0  0  0  0  0  0
  -27.2052  -28.7208   20.7067 C   0  0  0  0  0  0
  -26.0648  -26.9379   19.5034 C   0  0  0  0  0  0
  -24.8729  -27.6873   19.5087 C   0  0  0  0  0  0
  -23.6108  -29.8186   20.1655 C   0  0  0  0  0  0
  -25.4109  -36.3128   24.0336 C   0  0  1  0  0  0
  -20.5839  -28.3723   23.1334 C   0  0  2  0  0  0
  -20.6777  -26.9458   22.5404 C   0  0  0  0  0  0
  -19.5786  -26.6456   21.5154 C   0  0  0  0  0  0
  -18.1975  -26.7902   22.1601 C   0  0  0  0  0  0
  -19.1497  -28.8851   23.2934 C   0  0  0  0  0  0
  -18.9415  -30.1454   23.8956 C   0  0  0  0  0  0
  -17.6413  -30.6581   24.0565 C   0  0  0  0  0  0
  -25.9029  -34.9495   23.5133 C   0  0  0  0  0  0
  -16.5316  -29.9087   23.6243 C   0  0  0  0  0  0
  -16.7253  -28.6522   23.0229 C   0  0  0  0  0  0
  -26.4459  -31.6599   25.0712 C   0  0  0  0  0  0
  -25.3726  -31.3699   26.1449 C   0  0  0  0  0  0
  -27.0297  -30.3058   24.6071 C   0  0  0  0  0  0
  -27.6034  -32.4309   25.7461 C   0  0  0  0  0  0
  -27.5582  -37.1813   24.8468 C   0  0  0  0  0  0
  -21.4098  -29.3100   22.3763 N   0  0  0  0  0  0
  -26.4303  -37.3793   23.9403 N   0  0  0  0  0  0
  -24.6655  -31.0817   22.0994 N   0  0  0  0  0  0
  -23.4144  -28.8226   23.3040 O   0  0  0  0  0  0
  -28.4005  -26.7144   20.0951 O   0  0  0  0  0  0
  -26.5588  -34.8948   22.4694 O   0  0  0  0  0  0
  -23.5306  -32.1418   23.7499 O   0  0  0  0  0  0
  -29.0572  -18.2759   21.3073 C   0  0  0  0  0  0
  -28.2767  -20.0635   22.7773 C   0  0  0  0  0  0
  -28.9827  -17.9237   23.7122 C   0  0  0  0  0  0
  -28.5595  -19.5943   21.4761 C   0  0  0  0  0  0
  -29.2764  -17.4288   22.4242 C   0  0  0  0  0  0
  -28.4858  -19.2293   23.8903 C   0  0  0  0  0  0
  -28.5819  -22.9424   20.4253 C   0  0  0  0  0  0
  -28.3253  -20.4596   20.2359 C   0  0  0  0  0  0
  -29.8269  -16.0016   22.3012 C   0  0  0  0  0  0
  -27.8488  -24.2753   20.1694 C   0  0  0  0  0  0
  -28.4191  -25.5229   20.8972 C   0  0  0  0  0  0
  -27.8333  -21.8263   20.4463 N   0  0  0  0  0  0
  -29.9503  -15.5077   20.9305 N   0  0  0  0  0  0
  -29.8098  -22.9095   20.5172 O   0  0  0  0  0  0
  -28.2071  -19.6841   25.1345 F   0  0  0  0  0  0
  -31.4652  -12.3974   19.1178 H   0  0  0  0  0  0
  -30.3196  -11.2839   19.8044 H   0  0  0  0  0  0
  -29.7302  -11.7894   17.4132 H   0  0  0  0  0  0
  -29.6614  -13.4956   17.7716 H   0  0  0  0  0  0
  -27.8157  -11.3122   18.7948 H   0  0  0  0  0  0
  -27.3625  -12.6514   17.7784 H   0  0  0  0  0  0
  -27.7097  -14.2522   19.5845 H   0  0  0  0  0  0
  -28.6774  -11.9233   21.3175 H   0  0  0  0  0  0
  -28.4615  -13.5522   21.8710 H   0  0  0  0  0  0
  -25.2759   -9.5684   22.4738 H   0  0  0  0  0  0
  -23.9998   -7.4642   22.7499 H   0  0  0  0  0  0
  -21.0819   -8.8729   19.8978 H   0  0  0  0  0  0
  -22.3658  -10.9640   19.6144 H   0  0  0  0  0  0
  -21.2008   -7.6154   23.9712 H   0  0  0  0  0  0
  -21.1483   -6.0535   25.9078 H   0  0  0  0  0  0
  -22.0604   -2.7612   23.2832 H   0  0  0  0  0  0
  -22.4144  -11.9912   22.4770 H   0  0  0  0  0  0
  -21.1141  -13.1264   22.2561 H   0  0  0  0  0  0
  -24.6676  -15.8402   20.5438 H   0  0  0  0  0  0
  -26.3028  -15.6349   20.1598 H   0  0  0  0  0  0
  -26.7060  -32.5549   23.1137 H   0  0  0  0  0  0
  -25.0034  -33.9795   25.0469 H   0  0  0  0  0  0
  -22.6910  -31.3062   21.4059 H   0  0  0  0  0  0
  -23.3741  -35.9654   23.3320 H   0  0  0  0  0  0
  -24.3577  -36.8913   22.2050 H   0  0  0  0  0  0
  -23.7247  -37.6533   23.6643 H   0  0  0  0  0  0
  -26.0322  -31.6036   20.5927 H   0  0  0  0  0  0
  -26.8178  -30.8958   21.9797 H   0  0  0  0  0  0
  -28.1050  -29.1179   21.1568 H   0  0  0  0  0  0
  -26.0743  -25.9769   19.0133 H   0  0  0  0  0  0
  -23.9853  -27.2848   19.0388 H   0  0  0  0  0  0
  -23.7189  -30.5901   19.4038 H   0  0  0  0  0  0
  -22.7352  -29.2366   19.8699 H   0  0  0  0  0  0
  -25.1285  -36.1986   25.0828 H   0  0  0  0  0  0
  -20.9938  -28.3280   24.1460 H   0  0  0  0  0  0
  -20.5737  -26.2307   23.3579 H   0  0  0  0  0  0
  -21.6649  -26.7516   22.1215 H   0  0  0  0  0  0
  -19.7013  -25.6447   21.1017 H   0  0  0  0  0  0
  -19.6710  -27.3389   20.6791 H   0  0  0  0  0  0
  -17.4240  -26.6592   21.4032 H   0  0  0  0  0  0
  -18.0449  -25.9995   22.8986 H   0  0  0  0  0  0
  -19.7909  -30.7238   24.2344 H   0  0  0  0  0  0
  -17.4947  -31.6287   24.5109 H   0  0  0  0  0  0
  -15.5304  -30.2995   23.7475 H   0  0  0  0  0  0
  -15.8647  -28.0908   22.6813 H   0  0  0  0  0  0
  -24.5875  -30.7072   25.7780 H   0  0  0  0  0  0
  -24.8928  -32.2854   26.4933 H   0  0  0  0  0  0
  -25.8068  -30.8833   27.0185 H   0  0  0  0  0  0
  -26.2852  -29.6799   24.1143 H   0  0  0  0  0  0
  -27.4098  -29.7308   25.4519 H   0  0  0  0  0  0
  -27.8659  -30.4386   23.9200 H   0  0  0  0  0  0
  -27.2661  -33.3588   26.2088 H   0  0  0  0  0  0
  -28.3823  -32.6901   25.0275 H   0  0  0  0  0  0
  -28.0722  -31.8399   26.5328 H   0  0  0  0  0  0
  -28.2613  -38.0096   24.7504 H   0  0  0  0  0  0
  -28.1073  -36.2634   24.6316 H   0  0  0  0  0  0
  -27.2307  -37.1484   25.8872 H   0  0  0  0  0  0
  -20.9238  -29.8822   21.6998 H   0  0  0  0  0  0
  -26.0201  -38.2874   24.1385 H   0  0  0  0  0  0
  -29.2672  -17.9298   20.3027 H   0  0  0  0  0  0
  -27.8981  -21.0604   22.9422 H   0  0  0  0  0  0
  -29.1348  -17.2986   24.5802 H   0  0  0  0  0  0
  -27.5838  -19.9509   19.6182 H   0  0  0  0  0  0
  -29.2392  -20.4795   19.6391 H   0  0  0  0  0  0
  -29.1894  -15.3348   22.8815 H   0  0  0  0  0  0
  -30.8069  -15.9750   22.7814 H   0  0  0  0  0  0
  -26.7869  -24.1733   20.3913 H   0  0  0  0  0  0
  -27.9219  -24.4404   19.0935 H   0  0  0  0  0  0
  -29.4596  -25.3596   21.1785 H   0  0  0  0  0  0
  -27.8885  -25.6863   21.8362 H   0  0  0  0  0  0
  -26.8304  -21.9443   20.3994 H   0  0  0  0  0  0
  -30.1863  -16.2880   20.3383 H   0  0  0  0  0  0
  1 25  1  0  0  0
  1 30  2  0  0  0
  1 83  1  0  0  0
  2  3  1  0  0  0
  2 25  1  0  0  0
  2 86  1  0  0  0
  2 87  1  0  0  0
  3  4  1  0  0  0
  3 88  1  0  0  0
  3 89  1  0  0  0
  4  5  1  0  0  0
  4 90  1  0  0  0
  4 91  1  0  0  0
  5  6  1  0  0  0
  5 26  1  0  0  0
  5 92  1  0  0  0
  6 25  1  0  0  0
  6 93  1  0  0  0
  6 94  1  0  0  0
  7  8  2  0  0  0
  7 26  1  0  0  0
  7 29  1  0  0  0
  8  9  1  0  0  0
  8 22  1  0  0  0
  9 10  1  0  0  0
  9 27  2  0  0  0
 10 11  2  0  0  0
 10 15  1  0  0  0
 11 12  1  0  0  0
 11 95  1  0  0  0
 12 13  2  0  0  0
 12 96  1  0  0  0
 13 14  1  0  0  0
 13 31  1  0  0  0
 14 15  2  0  0  0
 14 97  1  0  0  0
 15 98  1  0  0  0
 16 17  2  0  0  0
 16 21  1  0  0  0
 16 31  1  0  0  0
 17 18  1  0  0  0
 17 99  1  0  0  0
 18 19  2  0  0  0
 18100  1  0  0  0
 19 20  1  0  0  0
 19 24  1  0  0  0
 20 21  2  0  0  0
 20101  1  0  0  0
 21 23  1  0  0  0
 22 28  1  0  0  0
 22 32  2  0  0  0
 26 27  1  0  0  0
 28102  1  0  0  0
 28103  1  0  0  0
 29104  1  0  0  0
 29105  1  0  0  0
 33 34  1  0  0  0
 33 66  1  0  0  0
 33 70  2  0  0  0
 34 36  1  0  0  0
 34 59  1  0  0  0
 34106  1  0  0  0
 35 44  2  0  0  0
 35 45  1  0  0  0
 35 68  1  0  0  0
 36 56  1  0  0  0
 36107  1  0  0  0
 37 39  1  0  0  0
 37 47  1  0  0  0
 37 66  1  0  0  0
 37108  1  0  0  0
 38 43  2  0  0  0
 38 46  1  0  0  0
 38 47  1  0  0  0
 39 64  1  0  0  0
 39 67  2  0  0  0
 40 52  1  0  0  0
 40 53  2  0  0  0
 40 58  1  0  0  0
 41109  1  0  0  0
 41110  1  0  0  0
 41111  1  0  0  0
 41 48  1  0  0  0
 42 43  1  0  0  0
 42 66  1  0  0  0
 42112  1  0  0  0
 42113  1  0  0  0
 43 44  1  0  0  0
 44114  1  0  0  0
 45 46  2  0  0  0
 45115  1  0  0  0
 46116  1  0  0  0
 47117  1  0  0  0
 47118  1  0  0  0
 48 56  1  0  0  0
 48 65  1  0  0  0
 48119  1  0  0  0
 49 50  1  0  0  0
 49 53  1  0  0  0
 49 64  1  0  0  0
 49120  1  0  0  0
 50 51  1  0  0  0
 50121  1  0  0  0
 50122  1  0  0  0
 51 52  1  0  0  0
 51123  1  0  0  0
 51124  1  0  0  0
 52125  1  0  0  0
 52126  1  0  0  0
 53 54  1  0  0  0
 54 55  2  0  0  0
 54127  1  0  0  0
 55 57  1  0  0  0
 55128  1  0  0  0
 56 69  2  0  0  0
 57 58  2  0  0  0
 57129  1  0  0  0
 58130  1  0  0  0
 59 60  1  0  0  0
 59 61  1  0  0  0
 59 62  1  0  0  0
 60131  1  0  0  0
 60132  1  0  0  0
 60133  1  0  0  0
 61134  1  0  0  0
 61135  1  0  0  0
 61136  1  0  0  0
 62137  1  0  0  0
 62138  1  0  0  0
 62139  1  0  0  0
 63 65  1  0  0  0
 63140  1  0  0  0
 63141  1  0  0  0
 63142  1  0  0  0
 64143  1  0  0  0
 65144  1  0  0  0
 68 81  1  0  0  0
 71 74  2  0  0  0
 71 75  1  0  0  0
 71145  1  0  0  0
 72 74  1  0  0  0
 72 76  2  0  0  0
 72146  1  0  0  0
 73 75  2  0  0  0
 73 76  1  0  0  0
 73147  1  0  0  0
 74 78  1  0  0  0
 75 79  1  0  0  0
 76 85  1  0  0  0
 77 80  1  0  0  0
 77 82  1  0  0  0
 77 84  2  0  0  0
 78 82  1  0  0  0
 78148  1  0  0  0
 78149  1  0  0  0
 79 83  1  0  0  0
 79150  1  0  0  0
 79151  1  0  0  0
 80 81  1  0  0  0
 80152  1  0  0  0
 80153  1  0  0  0
 81154  1  0  0  0
 81155  1  0  0  0
 82156  1  0  0  0
 83157  1  0  0  0
M  ISO  4   1 100  68 101  81 101  83 100
M  END
> <chiral flag>
0

> <version>
0

> <s_m_source_file>
/data/baiqing/PycharmProjects/Reinvent-master-3.2/result/LINK_invent/BTK/process_docking_weight1_custom_product_contain_oxygen_bond_distance_aromatic_linkinvent_7_9_3/rearranged_h_0051.sdf

> <i_m_source_file_index>
40

> <r_mmod_Potential_Energy-OPLS-2005>
-137.219085693359

> <r_mmod_Stretch_Energy-OPLS-2005>
35.4154472351074

> <r_mmod_Bend_Energy-OPLS-2005>
104.654174804688

> <r_mmod_Torsional_Energy-OPLS-2005>
273.683563232422

> <r_mmod_Improper_Torsional_Energy-OPLS-2005>
15.3801326751709

> <r_mmod_Van_der_Waal_Energy-OPLS-2005>
149.009323120117

> <r_mmod_Electrostatic_Energy-OPLS-2005>
-489.304107666016

> <r_mmod_Solvation_Energy-OPLS-2005>
-236.794311523438

> <b_mmod_Minimization_Converged-OPLS-2005>
0

> <r_mmod_RMS_Derivative-OPLS-2005>
3.641756772995

$$$$
40
                    3D
 Structure written by MMmdl.
171180  0  0  1  0            999 V2000
  -30.7031  -14.6276   20.4738 C   0  0  0  0  0  0
  -30.4023  -12.3808   19.4630 C   0  0  0  0  0  0
  -29.4927  -12.5018   18.2244 C   0  0  0  0  0  0
  -28.0176  -12.3511   18.6370 C   0  0  0  0  0  0
  -27.6432  -13.2364   19.8564 C   0  0  2  0  0  0
  -28.6911  -13.1503   20.9893 C   0  0  0  0  0  0
  -25.2515  -13.8219   20.5716 C   0  0  0  0  0  0
  -24.1806  -13.0446   20.9216 C   0  0  0  0  0  0
  -24.6403  -11.6928   20.8760 C   0  0  0  0  0  0
  -23.9080  -10.4295   21.0412 C   0  0  0  0  0  0
  -24.3626   -9.4211   21.9189 C   0  0  0  0  0  0
  -23.6299   -8.2247   22.0758 C   0  0  0  0  0  0
  -22.4283   -8.0283   21.3543 C   0  0  0  0  0  0
  -21.9927   -9.0258   20.4645 C   0  0  0  0  0  0
  -22.7253  -10.2138   20.3057 C   0  0  0  0  0  0
  -21.6857   -6.0741   22.5281 C   0  0  0  0  0  0
  -21.4018   -6.5647   23.8214 C   0  0  0  0  0  0
  -21.3659   -5.6797   24.9175 C   0  0  0  0  0  0
  -21.6045   -4.3060   24.7224 C   0  0  0  0  0  0
  -21.8817   -3.8151   23.4347 C   0  0  0  0  0  0
  -21.9195   -4.6968   22.3404 C   0  0  0  0  0  0
  -22.7832  -13.5224   21.1868 C   0  0  0  0  0  0
  -22.1665   -4.2156   21.0982 F   0  0  0  0  0  0
  -21.5625   -3.4540   25.7738 F   0  0  0  0  0  0
  -30.0027  -13.4500   20.4042 N   0  0  0  0  0  0
  -26.2952  -12.9437   20.3339 N   0  0  0  0  0  0
  -25.9341  -11.6569   20.5788 N   0  0  0  0  0  0
  -22.0495  -12.8183   22.0416 N   0  0  0  0  0  0
  -25.4190  -15.1937   20.4129 N   0  0  0  0  0  0
  -31.8904  -14.6274   20.1526 O   0  0  0  0  0  0
  -21.6643   -6.8883   21.4238 O   0  0  0  0  0  0
  -22.3517  -14.5532   20.6728 O   0  0  0  0  0  0
  -24.6234  -31.8624   23.2073 C   0  0  0  0  0  0
  -25.9096  -32.4793   23.8383 C   0  0  1  0  0  0
  -27.2135  -27.3202   20.1279 C   0  0  0  0  0  0
  -25.5926  -33.8593   24.2300 N   0  0  0  0  0  0
  -23.4160  -30.4895   21.5477 C   0  0  2  0  0  0
  -24.8623  -28.9467   20.1166 C   0  0  0  0  0  0
  -22.7450  -29.4647   22.4927 C   0  0  0  0  0  0
  -18.0285  -28.1392   22.8491 C   0  0  0  0  0  0
  -24.1486  -36.7296   23.2629 C   0  0  0  0  0  0
  -25.9573  -30.7929   21.3815 C   0  0  0  0  0  0
  -26.0290  -29.4180   20.7316 C   0  0  0  0  0  0
  -27.2070  -28.6135   20.7345 C   0  0  0  0  0  0
  -26.0360  -26.9238   19.4578 C   0  0  0  0  0  0
  -24.8670  -27.7032   19.4713 C   0  0  0  0  0  0
  -23.6325  -29.8281   20.1618 C   0  0  0  0  0  0
  -25.4109  -36.3086   24.0323 C   0  0  1  0  0  0
  -20.5881  -28.3701   23.1284 C   0  0  2  0  0  0
  -20.6763  -26.9421   22.5415 C   0  0  0  0  0  0
  -19.5741  -26.6393   21.5211 C   0  0  0  0  0  0
  -18.1924  -26.7941   22.1624 C   0  0  0  0  0  0
  -19.1534  -28.8856   23.2893 C   0  0  0  0  0  0
  -18.9457  -30.1459   23.8912 C   0  0  0  0  0  0
  -17.6457  -30.6595   24.0573 C   0  0  0  0  0  0
  -25.9052  -34.9456   23.5112 C   0  0  0  0  0  0
  -16.5350  -29.9099   23.6327 C   0  0  0  0  0  0
  -16.7274  -28.6514   23.0356 C   0  0  0  0  0  0
  -26.4492  -31.6585   25.0732 C   0  0  0  0  0  0
  -25.3738  -31.3709   26.1467 C   0  0  0  0  0  0
  -27.0340  -30.3014   24.6168 C   0  0  0  0  0  0
  -27.6050  -32.4316   25.7503 C   0  0  0  0  0  0
  -27.5594  -37.1785   24.8446 C   0  0  0  0  0  0
  -21.4164  -29.3065   22.3674 N   0  0  0  0  0  0
  -26.4276  -37.3792   23.9434 N   0  0  0  0  0  0
  -24.6843  -31.0645   22.1030 N   0  0  0  0  0  0
  -23.4189  -28.8166   23.2978 O   0  0  0  0  0  0
  -28.3472  -26.4952   20.1047 O   0  0  0  0  0  0
  -26.5614  -34.8917   22.4676 O   0  0  0  0  0  0
  -23.5401  -32.1421   23.7406 O   0  0  0  0  0  0
  -32.2539  -18.8293   20.1500 C   0  0  0  0  0  0
  -31.7619  -17.5238   20.1432 C   0  0  0  0  0  0
  -31.4693  -19.9173   20.5589 C   0  0  0  0  0  0
  -30.0820  -19.7471   20.8614 C   0  0  0  0  0  0
  -29.6193  -18.3541   20.9400 C   0  0  0  0  0  0
  -30.4602  -17.2176   20.5980 C   0  0  0  0  0  0
  -27.2937  -22.6078   20.3602 C   0  0  0  0  0  0
  -24.9040  -19.8145   20.8666 C   0  0  0  0  0  0
  -26.1650  -21.8846   20.5369 C   0  0  0  0  0  0
  -26.0362  -20.4431   20.5142 C   0  0  0  0  0  0
  -27.1949  -24.1393   20.0974 C   0  0  0  0  0  0
  -29.6745  -24.3647   20.4280 C   0  0  0  0  0  0
  -29.6246  -23.0219   19.6177 C   0  0  0  0  0  0
  -28.3099  -25.0952   20.6133 C   0  0  1  0  0  0
  -32.2566  -21.2137   20.7160 C   0  0  0  0  0  0
  -28.2245  -18.0054   21.4473 C   0  0  0  0  0  0
  -29.2186  -21.0421   21.2336 C   0  0  0  0  0  0
  -30.0182  -15.8049   20.7045 N   0  0  0  0  0  0
  -28.6814  -21.9843   20.1479 N   0  3  1  0  0  0
  -31.4504  -12.4380   19.1673 H   0  0  0  0  0  0
  -30.2803  -11.4023   19.9312 H   0  0  0  0  0  0
  -29.7520  -11.7446   17.4840 H   0  0  0  0  0  0
  -29.6461  -13.4687   17.7418 H   0  0  0  0  0  0
  -27.8483  -11.3005   18.8759 H   0  0  0  0  0  0
  -27.3639  -12.5793   17.7939 H   0  0  0  0  0  0
  -27.6460  -14.2642   19.4928 H   0  0  0  0  0  0
  -28.6981  -12.1554   21.4378 H   0  0  0  0  0  0
  -28.4499  -13.8458   21.7948 H   0  0  0  0  0  0
  -25.2774   -9.5688   22.4765 H   0  0  0  0  0  0
  -24.0012   -7.4639   22.7480 H   0  0  0  0  0  0
  -21.0863   -8.8769   19.8946 H   0  0  0  0  0  0
  -22.3708  -10.9676   19.6169 H   0  0  0  0  0  0
  -21.2018   -7.6161   23.9717 H   0  0  0  0  0  0
  -21.1482   -6.0532   25.9077 H   0  0  0  0  0  0
  -22.0600   -2.7616   23.2842 H   0  0  0  0  0  0
  -22.4135  -11.9827   22.4746 H   0  0  0  0  0  0
  -21.1121  -13.1192   22.2666 H   0  0  0  0  0  0
  -24.6391  -15.8354   20.5004 H   0  0  0  0  0  0
  -26.2526  -15.6287   20.0414 H   0  0  0  0  0  0
  -26.7151  -32.5482   23.1125 H   0  0  0  0  0  0
  -25.0076  -33.9745   25.0447 H   0  0  0  0  0  0
  -22.7088  -31.3099   21.4060 H   0  0  0  0  0  0
  -23.3767  -35.9605   23.3238 H   0  0  0  0  0  0
  -24.3597  -36.8986   22.2062 H   0  0  0  0  0  0
  -23.7201  -37.6462   23.6695 H   0  0  0  0  0  0
  -26.0817  -31.5520   20.6087 H   0  0  0  0  0  0
  -26.8415  -30.8476   22.0051 H   0  0  0  0  0  0
  -28.1027  -28.9723   21.2229 H   0  0  0  0  0  0
  -25.9970  -26.0148   18.8845 H   0  0  0  0  0  0
  -23.9818  -27.3505   18.9598 H   0  0  0  0  0  0
  -23.7551  -30.6060   19.4070 H   0  0  0  0  0  0
  -22.7529  -29.2585   19.8572 H   0  0  0  0  0  0
  -25.1274  -36.1931   25.0808 H   0  0  0  0  0  0
  -20.9990  -28.3286   24.1396 H   0  0  0  0  0  0
  -20.5653  -26.2315   23.3620 H   0  0  0  0  0  0
  -21.6636  -26.7444   22.1221 H   0  0  0  0  0  0
  -19.6899  -25.6304   21.1246 H   0  0  0  0  0  0
  -19.6679  -27.3193   20.6733 H   0  0  0  0  0  0
  -17.4197  -26.6705   21.4024 H   0  0  0  0  0  0
  -18.0316  -26.0075   22.9010 H   0  0  0  0  0  0
  -19.7933  -30.7262   24.2298 H   0  0  0  0  0  0
  -17.5019  -31.6275   24.5180 H   0  0  0  0  0  0
  -15.5354  -30.3008   23.7638 H   0  0  0  0  0  0
  -15.8679  -28.0838   22.7064 H   0  0  0  0  0  0
  -24.5921  -30.7038   25.7811 H   0  0  0  0  0  0
  -24.8913  -32.2869   26.4883 H   0  0  0  0  0  0
  -25.8083  -30.8907   27.0244 H   0  0  0  0  0  0
  -26.2914  -29.6758   24.1199 H   0  0  0  0  0  0
  -27.4061  -29.7262   25.4658 H   0  0  0  0  0  0
  -27.8772  -30.4306   23.9376 H   0  0  0  0  0  0
  -27.2657  -33.3615   26.2076 H   0  0  0  0  0  0
  -28.3867  -32.6881   25.0341 H   0  0  0  0  0  0
  -28.0705  -31.8443   26.5429 H   0  0  0  0  0  0
  -28.2533  -38.0163   24.7622 H   0  0  0  0  0  0
  -28.1172  -36.2704   24.6107 H   0  0  0  0  0  0
  -27.2336  -37.1236   25.8848 H   0  0  0  0  0  0
  -20.9317  -29.8836   21.6942 H   0  0  0  0  0  0
  -26.0150  -38.2841   24.1537 H   0  0  0  0  0  0
  -33.2876  -18.9862   19.8719 H   0  0  0  0  0  0
  -32.4694  -16.7821   19.8175 H   0  0  0  0  0  0
  -24.8266  -18.7364   20.8297 H   0  0  0  0  0  0
  -24.0316  -20.3612   21.1981 H   0  0  0  0  0  0
  -25.2383  -22.4405   20.5954 H   0  0  0  0  0  0
  -26.8626  -19.8442   20.1735 H   0  0  0  0  0  0
  -26.2433  -24.4754   20.5097 H   0  0  0  0  0  0
  -27.1207  -24.2369   19.0153 H   0  0  0  0  0  0
  -30.3705  -25.0405   19.9302 H   0  0  0  0  0  0
  -30.1180  -24.1758   21.4058 H   0  0  0  0  0  0
  -30.6135  -22.6189   19.4564 H   0  0  0  0  0  0
  -29.2932  -23.2617   18.6070 H   0  0  0  0  0  0
  -28.1582  -25.1964   21.6892 H   0  0  0  0  0  0
  -33.1873  -21.0048   21.2476 H   0  0  0  0  0  0
  -31.7651  -21.9927   21.2925 H   0  0  0  0  0  0
  -32.5467  -21.6069   19.7408 H   0  0  0  0  0  0
  -27.7810  -18.7585   22.0920 H   0  0  0  0  0  0
  -28.2463  -17.1020   22.0569 H   0  0  0  0  0  0
  -27.5592  -17.8121   20.6063 H   0  0  0  0  0  0
  -29.7706  -21.6449   21.9524 H   0  0  0  0  0  0
  -28.3734  -20.7303   21.8351 H   0  0  0  0  0  0
  -29.0483  -15.6750   20.9438 H   0  0  0  0  0  0
  -28.5818  -21.3471   19.3720 H   0  0  0  0  0  0
  1 25  1  0  0  0
  1 30  2  0  0  0
  1 88  1  0  0  0
  2  3  1  0  0  0
  2 25  1  0  0  0
  2 90  1  0  0  0
  2 91  1  0  0  0
  3  4  1  0  0  0
  3 92  1  0  0  0
  3 93  1  0  0  0
  4  5  1  0  0  0
  4 94  1  0  0  0
  4 95  1  0  0  0
  5  6  1  0  0  0
  5 26  1  0  0  0
  5 96  1  0  0  0
  6 25  1  0  0  0
  6 97  1  0  0  0
  6 98  1  0  0  0
  7  8  2  0  0  0
  7 26  1  0  0  0
  7 29  1  0  0  0
  8  9  1  0  0  0
  8 22  1  0  0  0
  9 10  1  0  0  0
  9 27  2  0  0  0
 10 11  2  0  0  0
 10 15  1  0  0  0
 11 12  1  0  0  0
 11 99  1  0  0  0
 12 13  2  0  0  0
 12100  1  0  0  0
 13 14  1  0  0  0
 13 31  1  0  0  0
 14 15  2  0  0  0
 14101  1  0  0  0
 15102  1  0  0  0
 16 17  2  0  0  0
 16 21  1  0  0  0
 16 31  1  0  0  0
 17 18  1  0  0  0
 17103  1  0  0  0
 18 19  2  0  0  0
 18104  1  0  0  0
 19 20  1  0  0  0
 19 24  1  0  0  0
 20 21  2  0  0  0
 20105  1  0  0  0
 21 23  1  0  0  0
 22 28  1  0  0  0
 22 32  2  0  0  0
 26 27  1  0  0  0
 28106  1  0  0  0
 28107  1  0  0  0
 29108  1  0  0  0
 29109  1  0  0  0
 33 34  1  0  0  0
 33 66  1  0  0  0
 33 70  2  0  0  0
 34 36  1  0  0  0
 34 59  1  0  0  0
 34110  1  0  0  0
 35 44  2  0  0  0
 35 45  1  0  0  0
 35 68  1  0  0  0
 36 56  1  0  0  0
 36111  1  0  0  0
 37 39  1  0  0  0
 37 47  1  0  0  0
 37 66  1  0  0  0
 37112  1  0  0  0
 38 43  2  0  0  0
 38 46  1  0  0  0
 38 47  1  0  0  0
 39 64  1  0  0  0
 39 67  2  0  0  0
 40 52  1  0  0  0
 40 53  2  0  0  0
 40 58  1  0  0  0
 41113  1  0  0  0
 41114  1  0  0  0
 41115  1  0  0  0
 41 48  1  0  0  0
 42 43  1  0  0  0
 42 66  1  0  0  0
 42116  1  0  0  0
 42117  1  0  0  0
 43 44  1  0  0  0
 44118  1  0  0  0
 45 46  2  0  0  0
 45119  1  0  0  0
 46120  1  0  0  0
 47121  1  0  0  0
 47122  1  0  0  0
 48 56  1  0  0  0
 48 65  1  0  0  0
 48123  1  0  0  0
 49 50  1  0  0  0
 49 53  1  0  0  0
 49 64  1  0  0  0
 49124  1  0  0  0
 50 51  1  0  0  0
 50125  1  0  0  0
 50126  1  0  0  0
 51 52  1  0  0  0
 51127  1  0  0  0
 51128  1  0  0  0
 52129  1  0  0  0
 52130  1  0  0  0
 53 54  1  0  0  0
 54 55  2  0  0  0
 54131  1  0  0  0
 55 57  1  0  0  0
 55132  1  0  0  0
 56 69  2  0  0  0
 57 58  2  0  0  0
 57133  1  0  0  0
 58134  1  0  0  0
 59 60  1  0  0  0
 59 61  1  0  0  0
 59 62  1  0  0  0
 60135  1  0  0  0
 60136  1  0  0  0
 60137  1  0  0  0
 61138  1  0  0  0
 61139  1  0  0  0
 61140  1  0  0  0
 62141  1  0  0  0
 62142  1  0  0  0
 62143  1  0  0  0
 63 65  1  0  0  0
 63144  1  0  0  0
 63145  1  0  0  0
 63146  1  0  0  0
 64147  1  0  0  0
 65148  1  0  0  0
 68 84  1  0  0  0
 71 72  2  0  0  0
 71 73  1  0  0  0
 71149  1  0  0  0
 72 76  1  0  0  0
 72150  1  0  0  0
 73 74  2  0  0  0
 73 85  1  0  0  0
 74 75  1  0  0  0
 74 87  1  0  0  0
 75 76  2  0  0  0
 75 86  1  0  0  0
 76 88  1  0  0  0
 77 79  2  0  0  0
 77 81  1  0  0  0
 77 89  1  0  0  0
 78 80  2  0  0  0
 78151  1  0  0  0
 78152  1  0  0  0
 79 80  1  0  0  0
 79153  1  0  0  0
 80154  1  0  0  0
 81 84  1  0  0  0
 81155  1  0  0  0
 81156  1  0  0  0
 82 83  1  0  0  0
 82 84  1  0  0  0
 82157  1  0  0  0
 82158  1  0  0  0
 83 89  1  0  0  0
 83159  1  0  0  0
 83160  1  0  0  0
 84161  1  0  0  0
 85162  1  0  0  0
 85163  1  0  0  0
 85164  1  0  0  0
 86165  1  0  0  0
 86166  1  0  0  0
 86167  1  0  0  0
 87168  1  0  0  0
 87169  1  0  0  0
 87 89  1  0  0  0
 88170  1  0  0  0
 89171  1  0  0  0
M  CHG  1  89   1
M  ISO  4   1 100  68 101  84 101  88 100
M  END
> <chiral flag>
0

> <version>
0

> <s_m_source_file>
/data/baiqing/PycharmProjects/Reinvent-master-3.2/result/LINK_invent/BTK/process_docking_weight1_custom_product_contain_oxygen_bond_distance_aromatic_linkinvent_7_9_3/rearranged_h_0051.sdf

> <i_m_source_file_index>
41

> <r_mmod_Potential_Energy-OPLS-2005>
57.430793762207

> <r_mmod_Stretch_Energy-OPLS-2005>
107.287452697754

> <r_mmod_Bend_Energy-OPLS-2005>
192.592010498047

> <r_mmod_Torsional_Energy-OPLS-2005>
265.171813964844

> <r_mmod_Improper_Torsional_Energy-OPLS-2005>
6.01366949081421

> <r_mmod_Van_der_Waal_Energy-OPLS-2005>
174.300842285156

> <r_mmod_Electrostatic_Energy-OPLS-2005>
-302.665161132812

> <r_mmod_Solvation_Energy-OPLS-2005>
-433.89501953125

> <b_mmod_Minimization_Converged-OPLS-2005>
0

> <r_mmod_RMS_Derivative-OPLS-2005>
1.6999534368515

$$$$
41
                    3D
 Structure written by MMmdl.
154162  0  0  1  0            999 V2000
  -30.6572  -14.5528   20.5392 C   0  0  0  0  0  0
  -30.4359  -12.3459   19.4344 C   0  0  0  0  0  0
  -29.5032  -12.4917   18.2130 C   0  0  0  0  0  0
  -28.0248  -12.3392   18.6270 C   0  0  0  0  0  0
  -27.6558  -13.2041   19.8619 C   0  0  2  0  0  0
  -28.7005  -13.0287   20.9872 C   0  0  0  0  0  0
  -25.2577  -13.8149   20.5674 C   0  0  0  0  0  0
  -24.1829  -13.0434   20.9190 C   0  0  0  0  0  0
  -24.6372  -11.6899   20.8730 C   0  0  0  0  0  0
  -23.9030  -10.4294   21.0398 C   0  0  0  0  0  0
  -24.3594   -9.4215   21.9175 C   0  0  0  0  0  0
  -23.6283   -8.2243   22.0745 C   0  0  0  0  0  0
  -22.4266   -8.0270   21.3538 C   0  0  0  0  0  0
  -21.9886   -9.0238   20.4641 C   0  0  0  0  0  0
  -22.7201  -10.2126   20.3047 C   0  0  0  0  0  0
  -21.6846   -6.0720   22.5274 C   0  0  0  0  0  0
  -21.4013   -6.5626   23.8206 C   0  0  0  0  0  0
  -21.3662   -5.6781   24.9172 C   0  0  0  0  0  0
  -21.6046   -4.3044   24.7223 C   0  0  0  0  0  0
  -21.8822   -3.8129   23.4342 C   0  0  0  0  0  0
  -21.9193   -4.6948   22.3399 C   0  0  0  0  0  0
  -22.7856  -13.5244   21.1841 C   0  0  0  0  0  0
  -22.1662   -4.2129   21.0974 F   0  0  0  0  0  0
  -21.5638   -3.4529   25.7738 F   0  0  0  0  0  0
  -30.0217  -13.3515   20.4257 N   0  0  0  0  0  0
  -26.2989  -12.9303   20.3298 N   0  0  0  0  0  0
  -25.9293  -11.6474   20.5744 N   0  0  0  0  0  0
  -22.0477  -12.8264   22.0403 N   0  0  0  0  0  0
  -25.4289  -15.1874   20.4086 N   0  0  0  0  0  0
  -31.8204  -14.7229   20.1636 O   0  0  0  0  0  0
  -21.6634   -6.8867   21.4240 O   0  0  0  0  0  0
  -22.3551  -14.5547   20.6667 O   0  0  0  0  0  0
  -24.6180  -31.8652   23.2067 C   0  0  0  0  0  0
  -25.9060  -32.4808   23.8377 C   0  0  1  0  0  0
  -27.2316  -27.3940   20.1118 C   0  0  0  0  0  0
  -25.5897  -33.8606   24.2309 N   0  0  0  0  0  0
  -23.4085  -30.4873   21.5477 C   0  0  2  0  0  0
  -24.8568  -28.9445   20.1185 C   0  0  0  0  0  0
  -22.7427  -29.4647   22.4973 C   0  0  0  0  0  0
  -18.0278  -28.1372   22.8492 C   0  0  0  0  0  0
  -24.1484  -36.7309   23.2636 C   0  0  0  0  0  0
  -25.9409  -30.8177   21.3672 C   0  0  0  0  0  0
  -26.0187  -29.4470   20.7190 C   0  0  0  0  0  0
  -27.2118  -28.6802   20.7107 C   0  0  0  0  0  0
  -26.0562  -26.9175   19.4989 C   0  0  0  0  0  0
  -24.8719  -27.6806   19.5035 C   0  0  0  0  0  0
  -23.6204  -29.8159   20.1647 C   0  0  0  0  0  0
  -25.4102  -36.3102   24.0342 C   0  0  1  0  0  0
  -20.5867  -28.3669   23.1304 C   0  0  2  0  0  0
  -20.6766  -26.9400   22.5414 C   0  0  0  0  0  0
  -19.5749  -26.6381   21.5208 C   0  0  0  0  0  0
  -18.1927  -26.7921   22.1616 C   0  0  0  0  0  0
  -19.1525  -28.8838   23.2896 C   0  0  0  0  0  0
  -18.9451  -30.1440   23.8912 C   0  0  0  0  0  0
  -17.6454  -30.6581   24.0558 C   0  0  0  0  0  0
  -25.9036  -34.9470   23.5123 C   0  0  0  0  0  0
  -16.5346  -29.9081   23.6318 C   0  0  0  0  0  0
  -16.7266  -28.6490   23.0354 C   0  0  0  0  0  0
  -26.4474  -31.6602   25.0723 C   0  0  0  0  0  0
  -25.3732  -31.3722   26.1468 C   0  0  0  0  0  0
  -27.0314  -30.3042   24.6126 C   0  0  0  0  0  0
  -27.6054  -32.4323   25.7466 C   0  0  0  0  0  0
  -27.5596  -37.1780   24.8447 C   0  0  0  0  0  0
  -21.4151  -29.3035   22.3711 N   0  0  0  0  0  0
  -26.4280  -37.3800   23.9431 N   0  0  0  0  0  0
  -24.6741  -31.0724   22.0984 N   0  0  0  0  0  0
  -23.4181  -28.8195   23.3035 O   0  0  0  0  0  0
  -28.3768  -26.6186   20.0662 O   0  0  0  0  0  0
  -26.5604  -34.8927   22.4688 O   0  0  0  0  0  0
  -23.5362  -32.1414   23.7442 O   0  0  0  0  0  0
  -30.7195  -19.6930   21.7274 C   0  0  0  0  0  0
  -31.3283  -18.6510   22.4583 C   0  0  0  0  0  0
  -29.5701  -18.0303   20.3683 C   0  0  0  0  0  0
  -29.8412  -19.4005   20.6639 C   0  0  0  0  0  0
  -30.1908  -16.9690   21.0915 C   0  0  0  0  0  0
  -31.0737  -17.2997   22.1449 C   0  0  0  0  0  0
  -28.9376  -23.0385   20.1333 C   0  0  0  0  0  0
  -29.2769  -20.5454   19.7918 C   0  0  0  0  0  0
  -27.9252  -24.1107   20.6287 C   0  0  0  0  0  0
  -28.4683  -25.5321   21.0240 C   0  0  0  0  0  0
  -29.8445  -15.5964   20.8406 N   0  0  0  0  0  0
  -28.7276  -21.7418   20.4765 N   0  0  0  0  0  0
  -29.8615  -23.3724   19.3896 O   0  0  0  0  0  0
  -31.6495  -16.3237   22.8885 F   0  0  0  0  0  0
  -31.4779  -12.4670   19.1325 H   0  0  0  0  0  0
  -30.3625  -11.3442   19.8617 H   0  0  0  0  0  0
  -29.7592  -11.7479   17.4568 H   0  0  0  0  0  0
  -29.6553  -13.4660   17.7470 H   0  0  0  0  0  0
  -27.8553  -11.2866   18.8539 H   0  0  0  0  0  0
  -27.3694  -12.5757   17.7881 H   0  0  0  0  0  0
  -27.6825  -14.2417   19.5288 H   0  0  0  0  0  0
  -28.6968  -12.0025   21.3566 H   0  0  0  0  0  0
  -28.4573  -13.6542   21.8475 H   0  0  0  0  0  0
  -25.2735   -9.5708   22.4750 H   0  0  0  0  0  0
  -23.9990   -7.4641   22.7467 H   0  0  0  0  0  0
  -21.0809   -8.8754   19.8958 H   0  0  0  0  0  0
  -22.3642  -10.9666   19.6159 H   0  0  0  0  0  0
  -21.2000   -7.6132   23.9708 H   0  0  0  0  0  0
  -21.1487   -6.0506   25.9078 H   0  0  0  0  0  0
  -22.0599   -2.7590   23.2843 H   0  0  0  0  0  0
  -22.4065  -11.9937   22.4838 H   0  0  0  0  0  0
  -21.1095  -13.1322   22.2575 H   0  0  0  0  0  0
  -24.6585  -15.8382   20.5175 H   0  0  0  0  0  0
  -26.2692  -15.6286   20.0584 H   0  0  0  0  0  0
  -26.7128  -32.5511   23.1136 H   0  0  0  0  0  0
  -25.0045  -33.9762   25.0453 H   0  0  0  0  0  0
  -22.6989  -31.3051   21.4052 H   0  0  0  0  0  0
  -23.3762  -35.9622   23.3254 H   0  0  0  0  0  0
  -24.3598  -36.8969   22.2060 H   0  0  0  0  0  0
  -23.7207  -37.6488   23.6679 H   0  0  0  0  0  0
  -26.0596  -31.5804   20.5964 H   0  0  0  0  0  0
  -26.8263  -30.8716   21.9891 H   0  0  0  0  0  0
  -28.1116  -29.0681   21.1678 H   0  0  0  0  0  0
  -26.0548  -25.9568   19.0057 H   0  0  0  0  0  0
  -23.9824  -27.2924   19.0263 H   0  0  0  0  0  0
  -23.7296  -30.5877   19.4020 H   0  0  0  0  0  0
  -22.7440  -29.2358   19.8701 H   0  0  0  0  0  0
  -25.1268  -36.1951   25.0833 H   0  0  0  0  0  0
  -20.9965  -28.3236   24.1421 H   0  0  0  0  0  0
  -20.5657  -26.2276   23.3604 H   0  0  0  0  0  0
  -21.6639  -26.7435   22.1209 H   0  0  0  0  0  0
  -19.6909  -25.6292   21.1233 H   0  0  0  0  0  0
  -19.6691  -27.3191   20.6738 H   0  0  0  0  0  0
  -17.4197  -26.6672   21.4015 H   0  0  0  0  0  0
  -18.0327  -26.0054   22.9003 H   0  0  0  0  0  0
  -19.7927  -30.7246   24.2292 H   0  0  0  0  0  0
  -17.5009  -31.6264   24.5152 H   0  0  0  0  0  0
  -15.5344  -30.2988   23.7635 H   0  0  0  0  0  0
  -15.8665  -28.0810   22.7075 H   0  0  0  0  0  0
  -24.5885  -30.7097   25.7793 H   0  0  0  0  0  0
  -24.8947  -32.2887   26.4932 H   0  0  0  0  0  0
  -25.8073  -30.8862   27.0217 H   0  0  0  0  0  0
  -26.2870  -29.6782   24.1194 H   0  0  0  0  0  0
  -27.4090  -29.7299   25.4596 H   0  0  0  0  0  0
  -27.8699  -30.4352   23.9283 H   0  0  0  0  0  0
  -27.2690  -33.3619   26.2066 H   0  0  0  0  0  0
  -28.3841  -32.6891   25.0274 H   0  0  0  0  0  0
  -28.0753  -31.8439   26.5357 H   0  0  0  0  0  0
  -28.2548  -38.0143   24.7605 H   0  0  0  0  0  0
  -28.1157  -36.2686   24.6120 H   0  0  0  0  0  0
  -27.2343  -37.1244   25.8852 H   0  0  0  0  0  0
  -20.9318  -29.8747   21.6920 H   0  0  0  0  0  0
  -26.0166  -38.2862   24.1492 H   0  0  0  0  0  0
  -30.9495  -20.7207   21.9723 H   0  0  0  0  0  0
  -31.9984  -18.8898   23.2706 H   0  0  0  0  0  0
  -28.8915  -17.7889   19.5619 H   0  0  0  0  0  0
  -28.4878  -20.1442   19.1543 H   0  0  0  0  0  0
  -30.0741  -20.8431   19.1084 H   0  0  0  0  0  0
  -27.4307  -23.6940   21.5072 H   0  0  0  0  0  0
  -27.1403  -24.2033   19.8805 H   0  0  0  0  0  0
  -29.5192  -25.4411   21.2997 H   0  0  0  0  0  0
  -27.9735  -25.8455   21.9459 H   0  0  0  0  0  0
  -28.8663  -15.3707   20.9166 H   0  0  0  0  0  0
  -27.9682  -21.5606   21.1195 H   0  0  0  0  0  0
  1 25  1  0  0  0
  1 30  2  0  0  0
  1 81  1  0  0  0
  2  3  1  0  0  0
  2 25  1  0  0  0
  2 85  1  0  0  0
  2 86  1  0  0  0
  3  4  1  0  0  0
  3 87  1  0  0  0
  3 88  1  0  0  0
  4  5  1  0  0  0
  4 89  1  0  0  0
  4 90  1  0  0  0
  5  6  1  0  0  0
  5 26  1  0  0  0
  5 91  1  0  0  0
  6 25  1  0  0  0
  6 92  1  0  0  0
  6 93  1  0  0  0
  7  8  2  0  0  0
  7 26  1  0  0  0
  7 29  1  0  0  0
  8  9  1  0  0  0
  8 22  1  0  0  0
  9 10  1  0  0  0
  9 27  2  0  0  0
 10 11  2  0  0  0
 10 15  1  0  0  0
 11 12  1  0  0  0
 11 94  1  0  0  0
 12 13  2  0  0  0
 12 95  1  0  0  0
 13 14  1  0  0  0
 13 31  1  0  0  0
 14 15  2  0  0  0
 14 96  1  0  0  0
 15 97  1  0  0  0
 16 17  2  0  0  0
 16 21  1  0  0  0
 16 31  1  0  0  0
 17 18  1  0  0  0
 17 98  1  0  0  0
 18 19  2  0  0  0
 18 99  1  0  0  0
 19 20  1  0  0  0
 19 24  1  0  0  0
 20 21  2  0  0  0
 20100  1  0  0  0
 21 23  1  0  0  0
 22 28  1  0  0  0
 22 32  2  0  0  0
 26 27  1  0  0  0
 28101  1  0  0  0
 28102  1  0  0  0
 29103  1  0  0  0
 29104  1  0  0  0
 33 34  1  0  0  0
 33 66  1  0  0  0
 33 70  2  0  0  0
 34 36  1  0  0  0
 34 59  1  0  0  0
 34105  1  0  0  0
 35 44  2  0  0  0
 35 45  1  0  0  0
 35 68  1  0  0  0
 36 56  1  0  0  0
 36106  1  0  0  0
 37 39  1  0  0  0
 37 47  1  0  0  0
 37 66  1  0  0  0
 37107  1  0  0  0
 38 43  2  0  0  0
 38 46  1  0  0  0
 38 47  1  0  0  0
 39 64  1  0  0  0
 39 67  2  0  0  0
 40 52  1  0  0  0
 40 53  2  0  0  0
 40 58  1  0  0  0
 41108  1  0  0  0
 41109  1  0  0  0
 41110  1  0  0  0
 41 48  1  0  0  0
 42 43  1  0  0  0
 42 66  1  0  0  0
 42111  1  0  0  0
 42112  1  0  0  0
 43 44  1  0  0  0
 44113  1  0  0  0
 45 46  2  0  0  0
 45114  1  0  0  0
 46115  1  0  0  0
 47116  1  0  0  0
 47117  1  0  0  0
 48 56  1  0  0  0
 48 65  1  0  0  0
 48118  1  0  0  0
 49 50  1  0  0  0
 49 53  1  0  0  0
 49 64  1  0  0  0
 49119  1  0  0  0
 50 51  1  0  0  0
 50120  1  0  0  0
 50121  1  0  0  0
 51 52  1  0  0  0
 51122  1  0  0  0
 51123  1  0  0  0
 52124  1  0  0  0
 52125  1  0  0  0
 53 54  1  0  0  0
 54 55  2  0  0  0
 54126  1  0  0  0
 55 57  1  0  0  0
 55127  1  0  0  0
 56 69  2  0  0  0
 57 58  2  0  0  0
 57128  1  0  0  0
 58129  1  0  0  0
 59 60  1  0  0  0
 59 61  1  0  0  0
 59 62  1  0  0  0
 60130  1  0  0  0
 60131  1  0  0  0
 60132  1  0  0  0
 61133  1  0  0  0
 61134  1  0  0  0
 61135  1  0  0  0
 62136  1  0  0  0
 62137  1  0  0  0
 62138  1  0  0  0
 63 65  1  0  0  0
 63139  1  0  0  0
 63140  1  0  0  0
 63141  1  0  0  0
 64142  1  0  0  0
 65143  1  0  0  0
 68 80  1  0  0  0
 71 72  2  0  0  0
 71 74  1  0  0  0
 71144  1  0  0  0
 72 76  1  0  0  0
 72145  1  0  0  0
 73 74  2  0  0  0
 73 75  1  0  0  0
 73146  1  0  0  0
 74 78  1  0  0  0
 75 76  2  0  0  0
 75 81  1  0  0  0
 76 84  1  0  0  0
 77 79  1  0  0  0
 77 82  1  0  0  0
 77 83  2  0  0  0
 78 82  1  0  0  0
 78147  1  0  0  0
 78148  1  0  0  0
 79 80  1  0  0  0
 79149  1  0  0  0
 79150  1  0  0  0
 80151  1  0  0  0
 80152  1  0  0  0
 81153  1  0  0  0
 82154  1  0  0  0
M  ISO  4   1 100  68 101  80 101  81 100
M  END
> <chiral flag>
0

> <version>
0

> <s_m_source_file>
/data/baiqing/PycharmProjects/Reinvent-master-3.2/result/LINK_invent/BTK/process_docking_weight1_custom_product_contain_oxygen_bond_distance_aromatic_linkinvent_7_9_3/rearranged_h_0051.sdf

> <i_m_source_file_index>
42

> <r_mmod_Potential_Energy-OPLS-2005>
-121.65502166748

> <r_mmod_Stretch_Energy-OPLS-2005>
48.0175361633301

> <r_mmod_Bend_Energy-OPLS-2005>
106.645545959473

> <r_mmod_Torsional_Energy-OPLS-2005>
254.664825439453

> <r_mmod_Improper_Torsional_Energy-OPLS-2005>
7.55859661102295

> <r_mmod_Van_der_Waal_Energy-OPLS-2005>
141.132659912109

> <r_mmod_Electrostatic_Energy-OPLS-2005>
-457.271423339844

> <r_mmod_Solvation_Energy-OPLS-2005>
-245.900604248047

> <b_mmod_Minimization_Converged-OPLS-2005>
0

> <r_mmod_RMS_Derivative-OPLS-2005>
1.39741086959839

$$$$
42
                    3D
 Structure written by MMmdl.
171180  0  0  1  0            999 V2000
  -30.6818  -14.5078   20.5727 C   0  0  0  0  0  0
  -30.4350  -12.3230   19.4392 C   0  0  0  0  0  0
  -29.5063  -12.5059   18.2193 C   0  0  0  0  0  0
  -28.0248  -12.3727   18.6266 C   0  0  0  0  0  0
  -27.6666  -13.2106   19.8827 C   0  0  2  0  0  0
  -28.7076  -12.9899   21.0048 C   0  0  0  0  0  0
  -25.2603  -13.8176   20.5724 C   0  0  0  0  0  0
  -24.1847  -13.0445   20.9166 C   0  0  0  0  0  0
  -24.6404  -11.6910   20.8719 C   0  0  0  0  0  0
  -23.9067  -10.4296   21.0394 C   0  0  0  0  0  0
  -24.3616   -9.4210   21.9176 C   0  0  0  0  0  0
  -23.6292   -8.2245   22.0757 C   0  0  0  0  0  0
  -22.4274   -8.0284   21.3551 C   0  0  0  0  0  0
  -21.9906   -9.0253   20.4648 C   0  0  0  0  0  0
  -22.7237  -10.2130   20.3051 C   0  0  0  0  0  0
  -21.6851   -6.0735   22.5281 C   0  0  0  0  0  0
  -21.4014   -6.5637   23.8215 C   0  0  0  0  0  0
  -21.3665   -5.6788   24.9177 C   0  0  0  0  0  0
  -21.6041   -4.3054   24.7226 C   0  0  0  0  0  0
  -21.8815   -3.8151   23.4348 C   0  0  0  0  0  0
  -21.9194   -4.6964   22.3403 C   0  0  0  0  0  0
  -22.7864  -13.5237   21.1837 C   0  0  0  0  0  0
  -22.1659   -4.2149   21.0979 F   0  0  0  0  0  0
  -21.5631   -3.4545   25.7745 F   0  0  0  0  0  0
  -30.0420  -13.3072   20.4629 N   0  0  0  0  0  0
  -26.3055  -12.9358   20.3405 N   0  0  0  0  0  0
  -25.9336  -11.6512   20.5761 N   0  0  0  0  0  0
  -22.0506  -12.8230   22.0396 N   0  0  0  0  0  0
  -25.4340  -15.1906   20.4213 N   0  0  0  0  0  0
  -31.7945  -14.7167   20.0819 O   0  0  0  0  0  0
  -21.6643   -6.8876   21.4244 O   0  0  0  0  0  0
  -22.3534  -14.5535   20.6682 O   0  0  0  0  0  0
  -24.6206  -31.8661   23.2099 C   0  0  0  0  0  0
  -25.9078  -32.4809   23.8407 C   0  0  1  0  0  0
  -27.2296  -27.3908   20.0898 C   0  0  0  0  0  0
  -25.5920  -33.8611   24.2323 N   0  0  0  0  0  0
  -23.4103  -30.4929   21.5531 C   0  0  2  0  0  0
  -24.8530  -28.9616   20.1143 C   0  0  0  0  0  0
  -22.7456  -29.4654   22.4987 C   0  0  0  0  0  0
  -18.0283  -28.1389   22.8491 C   0  0  0  0  0  0
  -24.1489  -36.7310   23.2639 C   0  0  0  0  0  0
  -25.9465  -30.8179   21.3711 C   0  0  0  0  0  0
  -26.0205  -29.4522   20.7118 C   0  0  0  0  0  0
  -27.2103  -28.6767   20.6936 C   0  0  0  0  0  0
  -26.0334  -26.9397   19.4758 C   0  0  0  0  0  0
  -24.8568  -27.7060   19.4933 C   0  0  0  0  0  0
  -23.6192  -29.8329   20.1666 C   0  0  0  0  0  0
  -25.4110  -36.3105   24.0336 C   0  0  1  0  0  0
  -20.5877  -28.3678   23.1308 C   0  0  2  0  0  0
  -20.6777  -26.9410   22.5415 C   0  0  0  0  0  0
  -19.5751  -26.6382   21.5224 C   0  0  0  0  0  0
  -18.1927  -26.7933   22.1631 C   0  0  0  0  0  0
  -19.1534  -28.8857   23.2890 C   0  0  0  0  0  0
  -18.9458  -30.1464   23.8897 C   0  0  0  0  0  0
  -17.6456  -30.6586   24.0575 C   0  0  0  0  0  0
  -25.9041  -34.9472   23.5124 C   0  0  0  0  0  0
  -16.5348  -29.9087   23.6331 C   0  0  0  0  0  0
  -16.7273  -28.6512   23.0341 C   0  0  0  0  0  0
  -26.4488  -31.6599   25.0750 C   0  0  0  0  0  0
  -25.3741  -31.3686   26.1483 C   0  0  0  0  0  0
  -27.0340  -30.3046   24.6145 C   0  0  0  0  0  0
  -27.6069  -32.4320   25.7505 C   0  0  0  0  0  0
  -27.5577  -37.1813   24.8466 C   0  0  0  0  0  0
  -21.4179  -29.3040   22.3722 N   0  0  0  0  0  0
  -26.4293  -37.3792   23.9407 N   0  0  0  0  0  0
  -24.6777  -31.0740   22.1018 N   0  0  0  0  0  0
  -23.4210  -28.8169   23.3022 O   0  0  0  0  0  0
  -28.3813  -26.6019   20.1334 O   0  0  0  0  0  0
  -26.5608  -34.8932   22.4686 O   0  0  0  0  0  0
  -23.5389  -32.1427   23.7473 O   0  0  0  0  0  0
  -29.2697  -18.7743   19.4341 C   0  0  0  0  0  0
  -29.5586  -17.7393   22.0058 C   0  0  0  0  0  0
  -28.8773  -19.5837   20.5274 C   0  0  0  0  0  0
  -29.7045  -17.4340   19.6013 C   0  0  0  0  0  0
  -29.0841  -19.0670   21.8342 C   0  0  0  0  0  0
  -29.8210  -16.8812   20.9100 C   0  0  0  0  0  0
  -27.0003  -23.1143   20.7067 C   0  0  0  0  0  0
  -23.6533  -21.5556   20.0831 C   0  0  0  0  0  0
  -25.6803  -22.8605   20.4942 C   0  0  0  0  0  0
  -24.9831  -21.6958   19.9687 C   0  0  0  0  0  0
  -27.4458  -24.5139   21.1151 C   0  0  0  0  0  0
  -29.5342  -24.3353   19.8696 C   0  0  0  0  0  0
  -29.2388  -22.8136   19.6102 C   0  0  0  0  0  0
  -28.2325  -25.1618   19.9594 C   0  0  1  0  0  0
  -29.8957  -16.6039   18.3423 C   0  0  0  0  0  0
  -28.6986  -19.8681   23.0680 C   0  0  0  0  0  0
  -27.9165  -20.7689   20.2447 C   0  0  0  0  0  0
  -29.9809  -15.4774   21.2036 N   0  0  0  0  0  0
  -28.2293  -22.2083   20.5405 N   0  3  2  0  0  0
  -31.4799  -12.4297   19.1413 H   0  0  0  0  0  0
  -30.3420  -11.3121   19.8400 H   0  0  0  0  0  0
  -29.7466  -11.7707   17.4496 H   0  0  0  0  0  0
  -29.6814  -13.4821   17.7664 H   0  0  0  0  0  0
  -27.8318  -11.3172   18.8219 H   0  0  0  0  0  0
  -27.3790  -12.6492   17.7929 H   0  0  0  0  0  0
  -27.7079  -14.2595   19.5884 H   0  0  0  0  0  0
  -28.6876  -11.9520   21.3400 H   0  0  0  0  0  0
  -28.4593  -13.5791   21.8877 H   0  0  0  0  0  0
  -25.2764   -9.5694   22.4741 H   0  0  0  0  0  0
  -24.0005   -7.4640   22.7479 H   0  0  0  0  0  0
  -21.0839   -8.8761   19.8958 H   0  0  0  0  0  0
  -22.3689  -10.9657   19.6154 H   0  0  0  0  0  0
  -21.1995   -7.6144   23.9716 H   0  0  0  0  0  0
  -21.1500   -6.0524   25.9079 H   0  0  0  0  0  0
  -22.0592   -2.7615   23.2846 H   0  0  0  0  0  0
  -22.4117  -11.9877   22.4758 H   0  0  0  0  0  0
  -21.1121  -13.1262   22.2606 H   0  0  0  0  0  0
  -24.6756  -15.8520   20.5487 H   0  0  0  0  0  0
  -26.3057  -15.6331   20.1603 H   0  0  0  0  0  0
  -26.7150  -32.5503   23.1175 H   0  0  0  0  0  0
  -25.0096  -33.9764   25.0487 H   0  0  0  0  0  0
  -22.7011  -31.3113   21.4154 H   0  0  0  0  0  0
  -23.3754  -35.9639   23.3306 H   0  0  0  0  0  0
  -24.3568  -36.8924   22.2048 H   0  0  0  0  0  0
  -23.7252  -37.6521   23.6654 H   0  0  0  0  0  0
  -26.0691  -31.5848   20.6048 H   0  0  0  0  0  0
  -26.8316  -30.8649   21.9933 H   0  0  0  0  0  0
  -28.1083  -29.0495   21.1675 H   0  0  0  0  0  0
  -25.9604  -25.9862   18.9794 H   0  0  0  0  0  0
  -23.9603  -27.3229   19.0246 H   0  0  0  0  0  0
  -23.7356  -30.6111   19.4118 H   0  0  0  0  0  0
  -22.7411  -29.2578   19.8652 H   0  0  0  0  0  0
  -25.1291  -36.1968   25.0831 H   0  0  0  0  0  0
  -20.9967  -28.3250   24.1431 H   0  0  0  0  0  0
  -20.5708  -26.2289   23.3609 H   0  0  0  0  0  0
  -21.6642  -26.7461   22.1195 H   0  0  0  0  0  0
  -19.6916  -25.6295   21.1243 H   0  0  0  0  0  0
  -19.6688  -27.3203   20.6762 H   0  0  0  0  0  0
  -17.4202  -26.6705   21.4020 H   0  0  0  0  0  0
  -18.0302  -26.0070   22.9019 H   0  0  0  0  0  0
  -19.7927  -30.7291   24.2259 H   0  0  0  0  0  0
  -17.5001  -31.6263   24.5184 H   0  0  0  0  0  0
  -15.5347  -30.2989   23.7650 H   0  0  0  0  0  0
  -15.8676  -28.0844   22.7037 H   0  0  0  0  0  0
  -24.5937  -30.7014   25.7802 H   0  0  0  0  0  0
  -24.8908  -32.2828   26.4940 H   0  0  0  0  0  0
  -25.8089  -30.8850   27.0240 H   0  0  0  0  0  0
  -26.2903  -29.6788   24.1196 H   0  0  0  0  0  0
  -27.4114  -29.7296   25.4613 H   0  0  0  0  0  0
  -27.8731  -30.4377   23.9311 H   0  0  0  0  0  0
  -27.2704  -33.3615   26.2105 H   0  0  0  0  0  0
  -28.3860  -32.6879   25.0311 H   0  0  0  0  0  0
  -28.0760  -31.8431   26.5396 H   0  0  0  0  0  0
  -28.2604  -38.0103   24.7513 H   0  0  0  0  0  0
  -28.1070  -36.2638   24.6297 H   0  0  0  0  0  0
  -27.2289  -37.1465   25.8868 H   0  0  0  0  0  0
  -20.9358  -29.8767   21.6935 H   0  0  0  0  0  0
  -26.0185  -38.2873   24.1403 H   0  0  0  0  0  0
  -29.0959  -19.1355   18.4289 H   0  0  0  0  0  0
  -29.6392  -17.3415   23.0088 H   0  0  0  0  0  0
  -23.1465  -20.6934   19.6723 H   0  0  0  0  0  0
  -23.0451  -22.2931   20.5887 H   0  0  0  0  0  0
  -25.0278  -23.7010   20.6867 H   0  0  0  0  0  0
  -25.4897  -20.9120   19.4331 H   0  0  0  0  0  0
  -28.0441  -24.4726   22.0256 H   0  0  0  0  0  0
  -26.5724  -25.1080   21.3812 H   0  0  0  0  0  0
  -30.1654  -24.7234   19.0693 H   0  0  0  0  0  0
  -30.1101  -24.4530   20.7881 H   0  0  0  0  0  0
  -30.1687  -22.2461   19.6695 H   0  0  0  0  0  0
  -28.8752  -22.6979   18.5881 H   0  0  0  0  0  0
  -27.7368  -24.9855   19.0049 H   0  0  0  0  0  0
  -29.6137  -17.1558   17.4458 H   0  0  0  0  0  0
  -29.2739  -15.7104   18.3746 H   0  0  0  0  0  0
  -30.9381  -16.3104   18.2243 H   0  0  0  0  0  0
  -29.0098  -19.3654   23.9844 H   0  0  0  0  0  0
  -27.6180  -20.0056   23.1245 H   0  0  0  0  0  0
  -29.1769  -20.8474   23.0603 H   0  0  0  0  0  0
  -27.0593  -20.4993   20.8577 H   0  0  0  0  0  0
  -27.5933  -20.7057   19.2057 H   0  0  0  0  0  0
  -29.2710  -15.1079   21.8172 H   0  0  0  0  0  0
  -28.6861  -22.1750   21.4387 H   0  0  0  0  0  0
  1 25  1  0  0  0
  1 30  2  0  0  0
  1 88  1  0  0  0
  2  3  1  0  0  0
  2 25  1  0  0  0
  2 90  1  0  0  0
  2 91  1  0  0  0
  3  4  1  0  0  0
  3 92  1  0  0  0
  3 93  1  0  0  0
  4  5  1  0  0  0
  4 94  1  0  0  0
  4 95  1  0  0  0
  5  6  1  0  0  0
  5 26  1  0  0  0
  5 96  1  0  0  0
  6 25  1  0  0  0
  6 97  1  0  0  0
  6 98  1  0  0  0
  7  8  2  0  0  0
  7 26  1  0  0  0
  7 29  1  0  0  0
  8  9  1  0  0  0
  8 22  1  0  0  0
  9 10  1  0  0  0
  9 27  2  0  0  0
 10 11  2  0  0  0
 10 15  1  0  0  0
 11 12  1  0  0  0
 11 99  1  0  0  0
 12 13  2  0  0  0
 12100  1  0  0  0
 13 14  1  0  0  0
 13 31  1  0  0  0
 14 15  2  0  0  0
 14101  1  0  0  0
 15102  1  0  0  0
 16 17  2  0  0  0
 16 21  1  0  0  0
 16 31  1  0  0  0
 17 18  1  0  0  0
 17103  1  0  0  0
 18 19  2  0  0  0
 18104  1  0  0  0
 19 20  1  0  0  0
 19 24  1  0  0  0
 20 21  2  0  0  0
 20105  1  0  0  0
 21 23  1  0  0  0
 22 28  1  0  0  0
 22 32  2  0  0  0
 26 27  1  0  0  0
 28106  1  0  0  0
 28107  1  0  0  0
 29108  1  0  0  0
 29109  1  0  0  0
 33 34  1  0  0  0
 33 66  1  0  0  0
 33 70  2  0  0  0
 34 36  1  0  0  0
 34 59  1  0  0  0
 34110  1  0  0  0
 35 44  2  0  0  0
 35 45  1  0  0  0
 35 68  1  0  0  0
 36 56  1  0  0  0
 36111  1  0  0  0
 37 39  1  0  0  0
 37 47  1  0  0  0
 37 66  1  0  0  0
 37112  1  0  0  0
 38 43  2  0  0  0
 38 46  1  0  0  0
 38 47  1  0  0  0
 39 64  1  0  0  0
 39 67  2  0  0  0
 40 52  1  0  0  0
 40 53  2  0  0  0
 40 58  1  0  0  0
 41113  1  0  0  0
 41114  1  0  0  0
 41115  1  0  0  0
 41 48  1  0  0  0
 42 43  1  0  0  0
 42 66  1  0  0  0
 42116  1  0  0  0
 42117  1  0  0  0
 43 44  1  0  0  0
 44118  1  0  0  0
 45 46  2  0  0  0
 45119  1  0  0  0
 46120  1  0  0  0
 47121  1  0  0  0
 47122  1  0  0  0
 48 56  1  0  0  0
 48 65  1  0  0  0
 48123  1  0  0  0
 49 50  1  0  0  0
 49 53  1  0  0  0
 49 64  1  0  0  0
 49124  1  0  0  0
 50 51  1  0  0  0
 50125  1  0  0  0
 50126  1  0  0  0
 51 52  1  0  0  0
 51127  1  0  0  0
 51128  1  0  0  0
 52129  1  0  0  0
 52130  1  0  0  0
 53 54  1  0  0  0
 54 55  2  0  0  0
 54131  1  0  0  0
 55 57  1  0  0  0
 55132  1  0  0  0
 56 69  2  0  0  0
 57 58  2  0  0  0
 57133  1  0  0  0
 58134  1  0  0  0
 59 60  1  0  0  0
 59 61  1  0  0  0
 59 62  1  0  0  0
 60135  1  0  0  0
 60136  1  0  0  0
 60137  1  0  0  0
 61138  1  0  0  0
 61139  1  0  0  0
 61140  1  0  0  0
 62141  1  0  0  0
 62142  1  0  0  0
 62143  1  0  0  0
 63 65  1  0  0  0
 63144  1  0  0  0
 63145  1  0  0  0
 63146  1  0  0  0
 64147  1  0  0  0
 65148  1  0  0  0
 68 84  1  0  0  0
 71 73  2  0  0  0
 71 74  1  0  0  0
 71149  1  0  0  0
 72 75  2  0  0  0
 72 76  1  0  0  0
 72150  1  0  0  0
 73 75  1  0  0  0
 73 87  1  0  0  0
 74 76  2  0  0  0
 74 85  1  0  0  0
 75 86  1  0  0  0
 76 88  1  0  0  0
 77 79  2  0  0  0
 77 81  1  0  0  0
 77 89  1  0  0  0
 78 80  2  0  0  0
 78151  1  0  0  0
 78152  1  0  0  0
 79 80  1  0  0  0
 79153  1  0  0  0
 80154  1  0  0  0
 81 84  1  0  0  0
 81155  1  0  0  0
 81156  1  0  0  0
 82 83  1  0  0  0
 82 84  1  0  0  0
 82157  1  0  0  0
 82158  1  0  0  0
 83 89  1  0  0  0
 83159  1  0  0  0
 83160  1  0  0  0
 84161  1  0  0  0
 85162  1  0  0  0
 85163  1  0  0  0
 85164  1  0  0  0
 86165  1  0  0  0
 86166  1  0  0  0
 86167  1  0  0  0
 87168  1  0  0  0
 87169  1  0  0  0
 87 89  1  0  0  0
 88170  1  0  0  0
 89171  1  0  0  0
M  CHG  1  89   1
M  ISO  4   1 100  68 101  84 101  88 100
M  END
> <chiral flag>
0

> <version>
0

> <s_m_source_file>
/data/baiqing/PycharmProjects/Reinvent-master-3.2/result/LINK_invent/BTK/process_docking_weight1_custom_product_contain_oxygen_bond_distance_aromatic_linkinvent_7_9_3/rearranged_h_0051.sdf

> <i_m_source_file_index>
43

> <r_mmod_Potential_Energy-OPLS-2005>
-46.8693084716797

> <r_mmod_Stretch_Energy-OPLS-2005>
58.1513404846191

> <r_mmod_Bend_Energy-OPLS-2005>
169.193115234375

> <r_mmod_Torsional_Energy-OPLS-2005>
258.198028564453

> <r_mmod_Improper_Torsional_Energy-OPLS-2005>
8.23015213012695

> <r_mmod_Van_der_Waal_Energy-OPLS-2005>
165.729278564453

> <r_mmod_Electrostatic_Energy-OPLS-2005>
-291.386657714844

> <r_mmod_Solvation_Energy-OPLS-2005>
-434.2861328125

> <b_mmod_Minimization_Converged-OPLS-2005>
0

> <r_mmod_RMS_Derivative-OPLS-2005>
1.46566665172577

$$$$
43
                    3D
 Structure written by MMmdl.
160168  0  0  1  0            999 V2000
  -30.6969  -14.4783   20.5614 C   0  0  0  0  0  0
  -30.4246  -12.3061   19.4271 C   0  0  0  0  0  0
  -29.4980  -12.5035   18.2090 C   0  0  0  0  0  0
  -28.0177  -12.3656   18.6189 C   0  0  0  0  0  0
  -27.6625  -13.2058   19.8749 C   0  0  2  0  0  0
  -28.7037  -12.9890   20.9970 C   0  0  0  0  0  0
  -25.2588  -13.8155   20.5669 C   0  0  0  0  0  0
  -24.1836  -13.0439   20.9172 C   0  0  0  0  0  0
  -24.6383  -11.6902   20.8722 C   0  0  0  0  0  0
  -23.9042  -10.4295   21.0394 C   0  0  0  0  0  0
  -24.3594   -9.4214   21.9178 C   0  0  0  0  0  0
  -23.6284   -8.2243   22.0749 C   0  0  0  0  0  0
  -22.4269   -8.0274   21.3540 C   0  0  0  0  0  0
  -21.9892   -9.0241   20.4641 C   0  0  0  0  0  0
  -22.7208  -10.2127   20.3049 C   0  0  0  0  0  0
  -21.6851   -6.0725   22.5276 C   0  0  0  0  0  0
  -21.4011   -6.5628   23.8207 C   0  0  0  0  0  0
  -21.3662   -5.6786   24.9173 C   0  0  0  0  0  0
  -21.6047   -4.3048   24.7223 C   0  0  0  0  0  0
  -21.8822   -3.8137   23.4345 C   0  0  0  0  0  0
  -21.9192   -4.6952   22.3400 C   0  0  0  0  0  0
  -22.7860  -13.5243   21.1841 C   0  0  0  0  0  0
  -22.1665   -4.2138   21.0978 F   0  0  0  0  0  0
  -21.5629   -3.4535   25.7738 F   0  0  0  0  0  0
  -30.0362  -13.2932   20.4472 N   0  0  0  0  0  0
  -26.3025  -12.9321   20.3354 N   0  0  0  0  0  0
  -25.9312  -11.6480   20.5748 N   0  0  0  0  0  0
  -22.0487  -12.8245   22.0395 N   0  0  0  0  0  0
  -25.4325  -15.1867   20.4059 N   0  0  0  0  0  0
  -31.8273  -14.6464   20.0953 O   0  0  0  0  0  0
  -21.6636   -6.8867   21.4238 O   0  0  0  0  0  0
  -22.3558  -14.5557   20.6696 O   0  0  0  0  0  0
  -24.6146  -31.8678   23.2095 C   0  0  0  0  0  0
  -25.9036  -32.4823   23.8388 C   0  0  1  0  0  0
  -27.2354  -27.4266   20.0843 C   0  0  0  0  0  0
  -25.5891  -33.8621   24.2318 N   0  0  0  0  0  0
  -23.4020  -30.4923   21.5501 C   0  0  2  0  0  0
  -24.8462  -28.9551   20.1156 C   0  0  0  0  0  0
  -22.7402  -29.4664   22.4985 C   0  0  0  0  0  0
  -18.0271  -28.1378   22.8496 C   0  0  0  0  0  0
  -24.1486  -36.7317   23.2637 C   0  0  0  0  0  0
  -25.9319  -30.8275   21.3652 C   0  0  0  0  0  0
  -26.0063  -29.4604   20.7136 C   0  0  0  0  0  0
  -27.1985  -28.7007   20.7006 C   0  0  0  0  0  0
  -26.0489  -26.9333   19.4914 C   0  0  0  0  0  0
  -24.8618  -27.6895   19.5061 C   0  0  0  0  0  0
  -23.6099  -29.8242   20.1650 C   0  0  0  0  0  0
  -25.4106  -36.3113   24.0338 C   0  0  1  0  0  0
  -20.5861  -28.3663   23.1318 C   0  0  2  0  0  0
  -20.6759  -26.9401   22.5413 C   0  0  0  0  0  0
  -19.5738  -26.6388   21.5207 C   0  0  0  0  0  0
  -18.1921  -26.7924   22.1626 C   0  0  0  0  0  0
  -19.1521  -28.8833   23.2908 C   0  0  0  0  0  0
  -18.9450  -30.1441   23.8918 C   0  0  0  0  0  0
  -17.6453  -30.6586   24.0567 C   0  0  0  0  0  0
  -25.9033  -34.9478   23.5128 C   0  0  0  0  0  0
  -16.5345  -29.9093   23.6325 C   0  0  0  0  0  0
  -16.7261  -28.6509   23.0348 C   0  0  0  0  0  0
  -26.4459  -31.6605   25.0721 C   0  0  0  0  0  0
  -25.3721  -31.3719   26.1470 C   0  0  0  0  0  0
  -27.0285  -30.3046   24.6103 C   0  0  0  0  0  0
  -27.6043  -32.4319   25.7478 C   0  0  0  0  0  0
  -27.5585  -37.1805   24.8458 C   0  0  0  0  0  0
  -21.4131  -29.3035   22.3723 N   0  0  0  0  0  0
  -26.4290  -37.3800   23.9415 N   0  0  0  0  0  0
  -24.6678  -31.0772   22.0999 N   0  0  0  0  0  0
  -23.4174  -28.8206   23.3026 O   0  0  0  0  0  0
  -28.4255  -26.7193   20.0924 O   0  0  0  0  0  0
  -26.5603  -34.8930   22.4692 O   0  0  0  0  0  0
  -23.5337  -32.1433   23.7490 O   0  0  0  0  0  0
  -29.1268  -19.1391   20.8800 C   0  0  0  0  0  0
  -29.0147  -17.7361   21.0222 C   0  0  0  0  0  0
  -31.4157  -17.5186   20.7932 C   0  0  0  0  0  0
  -30.3842  -19.7531   20.6765 C   0  0  0  0  0  0
  -31.5356  -18.9204   20.6506 C   0  0  0  0  0  0
  -30.1540  -16.9013   20.9620 C   0  0  0  0  0  0
  -29.0988  -23.3069   20.6750 C   0  0  0  0  0  0
  -32.9273  -19.5089   20.4777 C   0  0  0  0  0  0
  -28.7706  -21.6751   18.8350 C   0  0  0  0  0  0
  -30.5373  -21.2856   20.5484 C   0  0  0  0  0  0
  -27.9959  -24.2287   20.0998 C   0  0  0  0  0  0
  -28.5387  -25.4851   19.3601 C   0  0  0  0  0  0
  -29.9743  -15.4848   21.1018 N   0  0  0  0  0  0
  -29.3844  -22.1036   20.0972 N   0  0  0  0  0  0
  -29.7028  -23.7120   21.6729 O   0  0  0  0  0  0
  -31.4692  -12.4019   19.1258 H   0  0  0  0  0  0
  -30.3249  -11.2955   19.8261 H   0  0  0  0  0  0
  -29.7413  -11.7769   17.4324 H   0  0  0  0  0  0
  -29.6678  -13.4881   17.7708 H   0  0  0  0  0  0
  -27.8274  -11.3102   18.8155 H   0  0  0  0  0  0
  -27.3685  -12.6402   17.7865 H   0  0  0  0  0  0
  -27.7077  -14.2532   19.5760 H   0  0  0  0  0  0
  -28.6793  -11.9538   21.3413 H   0  0  0  0  0  0
  -28.4636  -13.5898   21.8750 H   0  0  0  0  0  0
  -25.2735   -9.5701   22.4753 H   0  0  0  0  0  0
  -23.9996   -7.4637   22.7468 H   0  0  0  0  0  0
  -21.0820   -8.8748   19.8949 H   0  0  0  0  0  0
  -22.3654  -10.9660   19.6158 H   0  0  0  0  0  0
  -21.2003   -7.6140   23.9708 H   0  0  0  0  0  0
  -21.1484   -6.0516   25.9078 H   0  0  0  0  0  0
  -22.0601   -2.7601   23.2843 H   0  0  0  0  0  0
  -22.4094  -11.9907   22.4791 H   0  0  0  0  0  0
  -21.1103  -13.1278   22.2583 H   0  0  0  0  0  0
  -24.6626  -15.8401   20.5017 H   0  0  0  0  0  0
  -26.2746  -15.6167   20.0442 H   0  0  0  0  0  0
  -26.7105  -32.5527   23.1149 H   0  0  0  0  0  0
  -25.0028  -33.9782   25.0453 H   0  0  0  0  0  0
  -22.6914  -31.3096   21.4111 H   0  0  0  0  0  0
  -23.3749  -35.9647   23.3298 H   0  0  0  0  0  0
  -24.3583  -36.8932   22.2052 H   0  0  0  0  0  0
  -23.7230  -37.6519   23.6650 H   0  0  0  0  0  0
  -26.0453  -31.5918   20.5952 H   0  0  0  0  0  0
  -26.8198  -30.8811   21.9835 H   0  0  0  0  0  0
  -28.0949  -29.0895   21.1632 H   0  0  0  0  0  0
  -26.0117  -25.9643   19.0170 H   0  0  0  0  0  0
  -23.9675  -27.2923   19.0462 H   0  0  0  0  0  0
  -23.7192  -30.5979   19.4043 H   0  0  0  0  0  0
  -22.7330  -29.2452   19.8702 H   0  0  0  0  0  0
  -25.1279  -36.1979   25.0831 H   0  0  0  0  0  0
  -20.9960  -28.3223   24.1433 H   0  0  0  0  0  0
  -20.5656  -26.2267   23.3595 H   0  0  0  0  0  0
  -21.6631  -26.7441   22.1205 H   0  0  0  0  0  0
  -19.6899  -25.6302   21.1227 H   0  0  0  0  0  0
  -19.6681  -27.3206   20.6744 H   0  0  0  0  0  0
  -17.4186  -26.6665   21.4036 H   0  0  0  0  0  0
  -18.0338  -26.0065   22.9024 H   0  0  0  0  0  0
  -19.7928  -30.7248   24.2299 H   0  0  0  0  0  0
  -17.5014  -31.6269   24.5163 H   0  0  0  0  0  0
  -15.5348  -30.3003   23.7636 H   0  0  0  0  0  0
  -15.8660  -28.0835   22.7050 H   0  0  0  0  0  0
  -24.5890  -30.7073   25.7802 H   0  0  0  0  0  0
  -24.8915  -32.2878   26.4920 H   0  0  0  0  0  0
  -25.8067  -30.8881   27.0225 H   0  0  0  0  0  0
  -26.2829  -29.6822   24.1144 H   0  0  0  0  0  0
  -27.4033  -29.7275   25.4564 H   0  0  0  0  0  0
  -27.8673  -30.4362   23.9265 H   0  0  0  0  0  0
  -27.2674  -33.3612   26.2083 H   0  0  0  0  0  0
  -28.3836  -32.6889   25.0291 H   0  0  0  0  0  0
  -28.0729  -31.8423   26.5368 H   0  0  0  0  0  0
  -28.2590  -38.0118   24.7539 H   0  0  0  0  0  0
  -28.1097  -36.2653   24.6240 H   0  0  0  0  0  0
  -27.2312  -37.1402   25.8863 H   0  0  0  0  0  0
  -20.9280  -29.8761   21.6956 H   0  0  0  0  0  0
  -26.0183  -38.2876   24.1433 H   0  0  0  0  0  0
  -28.2320  -19.7427   20.9348 H   0  0  0  0  0  0
  -28.0346  -17.3048   21.1724 H   0  0  0  0  0  0
  -32.3168  -16.9229   20.7778 H   0  0  0  0  0  0
  -33.7033  -18.7573   20.6271 H   0  0  0  0  0  0
  -33.1049  -20.3079   21.1979 H   0  0  0  0  0  0
  -33.0500  -19.9128   19.4725 H   0  0  0  0  0  0
  -27.7315  -21.3825   18.9902 H   0  0  0  0  0  0
  -29.2880  -20.8224   18.3948 H   0  0  0  0  0  0
  -28.7989  -22.4717   18.0897 H   0  0  0  0  0  0
  -31.3369  -21.5068   19.8416 H   0  0  0  0  0  0
  -30.9082  -21.6208   21.5176 H   0  0  0  0  0  0
  -27.3650  -24.5454   20.9303 H   0  0  0  0  0  0
  -27.3232  -23.6809   19.4429 H   0  0  0  0  0  0
  -28.0850  -25.5782   18.3729 H   0  0  0  0  0  0
  -29.6004  -25.3512   19.1465 H   0  0  0  0  0  0
  -29.0711  -15.1915   21.4417 H   0  0  0  0  0  0
  1 25  1  0  0  0
  1 30  2  0  0  0
  1 83  1  0  0  0
  2  3  1  0  0  0
  2 25  1  0  0  0
  2 86  1  0  0  0
  2 87  1  0  0  0
  3  4  1  0  0  0
  3 88  1  0  0  0
  3 89  1  0  0  0
  4  5  1  0  0  0
  4 90  1  0  0  0
  4 91  1  0  0  0
  5  6  1  0  0  0
  5 26  1  0  0  0
  5 92  1  0  0  0
  6 25  1  0  0  0
  6 93  1  0  0  0
  6 94  1  0  0  0
  7  8  2  0  0  0
  7 26  1  0  0  0
  7 29  1  0  0  0
  8  9  1  0  0  0
  8 22  1  0  0  0
  9 10  1  0  0  0
  9 27  2  0  0  0
 10 11  2  0  0  0
 10 15  1  0  0  0
 11 12  1  0  0  0
 11 95  1  0  0  0
 12 13  2  0  0  0
 12 96  1  0  0  0
 13 14  1  0  0  0
 13 31  1  0  0  0
 14 15  2  0  0  0
 14 97  1  0  0  0
 15 98  1  0  0  0
 16 17  2  0  0  0
 16 21  1  0  0  0
 16 31  1  0  0  0
 17 18  1  0  0  0
 17 99  1  0  0  0
 18 19  2  0  0  0
 18100  1  0  0  0
 19 20  1  0  0  0
 19 24  1  0  0  0
 20 21  2  0  0  0
 20101  1  0  0  0
 21 23  1  0  0  0
 22 28  1  0  0  0
 22 32  2  0  0  0
 26 27  1  0  0  0
 28102  1  0  0  0
 28103  1  0  0  0
 29104  1  0  0  0
 29105  1  0  0  0
 33 34  1  0  0  0
 33 66  1  0  0  0
 33 70  2  0  0  0
 34 36  1  0  0  0
 34 59  1  0  0  0
 34106  1  0  0  0
 35 44  2  0  0  0
 35 45  1  0  0  0
 35 68  1  0  0  0
 36 56  1  0  0  0
 36107  1  0  0  0
 37 39  1  0  0  0
 37 47  1  0  0  0
 37 66  1  0  0  0
 37108  1  0  0  0
 38 43  2  0  0  0
 38 46  1  0  0  0
 38 47  1  0  0  0
 39 64  1  0  0  0
 39 67  2  0  0  0
 40 52  1  0  0  0
 40 53  2  0  0  0
 40 58  1  0  0  0
 41109  1  0  0  0
 41110  1  0  0  0
 41111  1  0  0  0
 41 48  1  0  0  0
 42 43  1  0  0  0
 42 66  1  0  0  0
 42112  1  0  0  0
 42113  1  0  0  0
 43 44  1  0  0  0
 44114  1  0  0  0
 45 46  2  0  0  0
 45115  1  0  0  0
 46116  1  0  0  0
 47117  1  0  0  0
 47118  1  0  0  0
 48 56  1  0  0  0
 48 65  1  0  0  0
 48119  1  0  0  0
 49 50  1  0  0  0
 49 53  1  0  0  0
 49 64  1  0  0  0
 49120  1  0  0  0
 50 51  1  0  0  0
 50121  1  0  0  0
 50122  1  0  0  0
 51 52  1  0  0  0
 51123  1  0  0  0
 51124  1  0  0  0
 52125  1  0  0  0
 52126  1  0  0  0
 53 54  1  0  0  0
 54 55  2  0  0  0
 54127  1  0  0  0
 55 57  1  0  0  0
 55128  1  0  0  0
 56 69  2  0  0  0
 57 58  2  0  0  0
 57129  1  0  0  0
 58130  1  0  0  0
 59 60  1  0  0  0
 59 61  1  0  0  0
 59 62  1  0  0  0
 60131  1  0  0  0
 60132  1  0  0  0
 60133  1  0  0  0
 61134  1  0  0  0
 61135  1  0  0  0
 61136  1  0  0  0
 62137  1  0  0  0
 62138  1  0  0  0
 62139  1  0  0  0
 63 65  1  0  0  0
 63140  1  0  0  0
 63141  1  0  0  0
 63142  1  0  0  0
 64143  1  0  0  0
 65144  1  0  0  0
 68 82  1  0  0  0
 71 72  2  0  0  0
 71 74  1  0  0  0
 71145  1  0  0  0
 72 76  1  0  0  0
 72146  1  0  0  0
 73 75  1  0  0  0
 73 76  2  0  0  0
 73147  1  0  0  0
 74 75  2  0  0  0
 74 80  1  0  0  0
 75 78  1  0  0  0
 76 83  1  0  0  0
 77 81  1  0  0  0
 77 84  1  0  0  0
 77 85  2  0  0  0
 78148  1  0  0  0
 78149  1  0  0  0
 78150  1  0  0  0
 79 84  1  0  0  0
 79151  1  0  0  0
 79152  1  0  0  0
 79153  1  0  0  0
 80 84  1  0  0  0
 80154  1  0  0  0
 80155  1  0  0  0
 81 82  1  0  0  0
 81156  1  0  0  0
 81157  1  0  0  0
 82158  1  0  0  0
 82159  1  0  0  0
 83160  1  0  0  0
M  ISO  4   1 100  68 101  82 101  83 100
M  END
> <chiral flag>
0

> <version>
0

> <s_m_source_file>
/data/baiqing/PycharmProjects/Reinvent-master-3.2/result/LINK_invent/BTK/process_docking_weight1_custom_product_contain_oxygen_bond_distance_aromatic_linkinvent_7_9_3/rearranged_h_0051.sdf

> <i_m_source_file_index>
44

> <r_mmod_Potential_Energy-OPLS-2005>
-61.6434440612793

> <r_mmod_Stretch_Energy-OPLS-2005>
44.0801048278809

> <r_mmod_Bend_Energy-OPLS-2005>
112.701805114746

> <r_mmod_Torsional_Energy-OPLS-2005>
216.700393676758

> <r_mmod_Improper_Torsional_Energy-OPLS-2005>
4.44401359558105

> <r_mmod_Van_der_Waal_Energy-OPLS-2005>
169.006652832031

> <r_mmod_Electrostatic_Energy-OPLS-2005>
-388.841766357422

> <r_mmod_Solvation_Energy-OPLS-2005>
-233.102905273438

> <b_mmod_Minimization_Converged-OPLS-2005>
0

> <r_mmod_RMS_Derivative-OPLS-2005>
0.993808567523956

$$$$
44
                    3D
 Structure written by MMmdl.
162170  0  0  1  0            999 V2000
  -30.7273  -14.3867   20.6317 C   0  0  0  0  0  0
  -30.4175  -12.2816   19.3888 C   0  0  0  0  0  0
  -29.4828  -12.5081   18.1853 C   0  0  0  0  0  0
  -28.0057  -12.3677   18.6034 C   0  0  0  0  0  0
  -27.6623  -13.1952   19.8717 C   0  0  2  0  0  0
  -28.7015  -12.9306   20.9828 C   0  0  0  0  0  0
  -25.2599  -13.8144   20.5635 C   0  0  0  0  0  0
  -24.1840  -13.0430   20.9178 C   0  0  0  0  0  0
  -24.6380  -11.6898   20.8736 C   0  0  0  0  0  0
  -23.9046  -10.4282   21.0405 C   0  0  0  0  0  0
  -24.3601   -9.4204   21.9186 C   0  0  0  0  0  0
  -23.6279   -8.2240   22.0755 C   0  0  0  0  0  0
  -22.4261   -8.0279   21.3550 C   0  0  0  0  0  0
  -21.9898   -9.0247   20.4646 C   0  0  0  0  0  0
  -22.7222  -10.2125   20.3056 C   0  0  0  0  0  0
  -21.6857   -6.0740   22.5272 C   0  0  0  0  0  0
  -21.4008   -6.5637   23.8208 C   0  0  0  0  0  0
  -21.3656   -5.6788   24.9173 C   0  0  0  0  0  0
  -21.6047   -4.3050   24.7220 C   0  0  0  0  0  0
  -21.8821   -3.8142   23.4338 C   0  0  0  0  0  0
  -21.9191   -4.6965   22.3398 C   0  0  0  0  0  0
  -22.7869  -13.5254   21.1840 C   0  0  0  0  0  0
  -22.1661   -4.2145   21.0977 F   0  0  0  0  0  0
  -21.5629   -3.4534   25.7740 F   0  0  0  0  0  0
  -30.0368  -13.2363   20.4369 N   0  0  0  0  0  0
  -26.3017  -12.9281   20.3325 N   0  0  0  0  0  0
  -25.9298  -11.6455   20.5745 N   0  0  0  0  0  0
  -22.0501  -12.8236   22.0386 N   0  0  0  0  0  0
  -25.4332  -15.1846   20.3983 N   0  0  0  0  0  0
  -31.8180  -14.6220   20.0988 O   0  0  0  0  0  0
  -21.6636   -6.8873   21.4235 O   0  0  0  0  0  0
  -22.3565  -14.5566   20.6703 O   0  0  0  0  0  0
  -24.6143  -31.8719   23.2212 C   0  0  0  0  0  0
  -25.9082  -32.4819   23.8472 C   0  0  1  0  0  0
  -27.2159  -27.4554   20.0727 C   0  0  0  0  0  0
  -25.5974  -33.8633   24.2381 N   0  0  0  0  0  0
  -23.3970  -30.5026   21.5604 C   0  0  2  0  0  0
  -24.8313  -28.9754   20.1207 C   0  0  0  0  0  0
  -22.7379  -29.4690   22.5025 C   0  0  0  0  0  0
  -18.0256  -28.1379   22.8492 C   0  0  0  0  0  0
  -24.1484  -36.7275   23.2629 C   0  0  0  0  0  0
  -25.9323  -30.8333   21.3870 C   0  0  0  0  0  0
  -25.9953  -29.4819   20.7089 C   0  0  0  0  0  0
  -27.1870  -28.7274   20.6840 C   0  0  0  0  0  0
  -26.0179  -26.9442   19.5179 C   0  0  0  0  0  0
  -24.8331  -27.7007   19.5332 C   0  0  0  0  0  0
  -23.5990  -29.8471   20.1717 C   0  0  0  0  0  0
  -25.4103  -36.3100   24.0335 C   0  0  1  0  0  0
  -20.5851  -28.3639   23.1324 C   0  0  2  0  0  0
  -20.6756  -26.9387   22.5403 C   0  0  0  0  0  0
  -19.5732  -26.6385   21.5214 C   0  0  0  0  0  0
  -18.1906  -26.7938   22.1606 C   0  0  0  0  0  0
  -19.1512  -28.8819   23.2910 C   0  0  0  0  0  0
  -18.9446  -30.1435   23.8897 C   0  0  0  0  0  0
  -17.6453  -30.6589   24.0556 C   0  0  0  0  0  0
  -25.9036  -34.9467   23.5135 C   0  0  0  0  0  0
  -16.5339  -29.9075   23.6368 C   0  0  0  0  0  0
  -16.7246  -28.6497   23.0377 C   0  0  0  0  0  0
  -26.4488  -31.6641   25.0845 C   0  0  0  0  0  0
  -25.3736  -31.3840   26.1594 C   0  0  0  0  0  0
  -27.0366  -30.3058   24.6386 C   0  0  0  0  0  0
  -27.6046  -32.4409   25.7589 C   0  0  0  0  0  0
  -27.5590  -37.1776   24.8432 C   0  0  0  0  0  0
  -21.4110  -29.3036   22.3743 N   0  0  0  0  0  0
  -26.4273  -37.3803   23.9422 N   0  0  0  0  0  0
  -24.6640  -31.0848   22.1100 N   0  0  0  0  0  0
  -23.4159  -28.8209   23.3040 O   0  0  0  0  0  0
  -28.4177  -26.7794   20.0421 O   0  0  0  0  0  0
  -26.5569  -34.8910   22.4680 O   0  0  0  0  0  0
  -23.5350  -32.1459   23.7617 O   0  0  0  0  0  0
  -31.4743  -19.0858   22.6781 C   0  0  0  0  0  0
  -31.8999  -16.7435   22.2021 C   0  0  0  0  0  0
  -30.1290  -18.9318   22.2821 C   0  0  0  0  0  0
  -29.6520  -17.6654   21.8383 C   0  0  0  0  0  0
  -30.5579  -16.5731   21.7851 C   0  0  0  0  0  0
  -32.3549  -17.9948   22.6452 C   0  0  0  0  0  0
  -28.9820  -23.4318   20.6746 C   0  0  0  0  0  0
  -28.1191  -24.3752   20.2530 C   0  0  0  0  0  0
  -29.2782  -20.1202   22.3931 C   0  0  0  0  0  0
  -28.5425  -22.3564   21.5491 C   0  0  0  0  0  0
  -28.2026  -17.4475   21.3952 C   0  0  0  0  0  0
  -30.0471  -20.8000   20.1858 C   0  0  0  0  0  0
  -28.5076  -25.5337   19.3545 C   0  0  0  0  0  0
  -30.0835  -15.3003   21.3712 N   0  0  0  0  0  0
  -29.2856  -21.0996   21.4380 N   0  0  0  0  0  0
  -28.5325  -20.1859   23.4964 N   0  3  0  0  0  0
  -27.6553  -22.5002   22.3999 O   0  0  0  0  0  0
  -33.6372  -18.1482   23.0535 F   0  0  0  0  0  0
  -31.4608  -12.3849   19.0854 H   0  0  0  0  0  0
  -30.3189  -11.2612   19.7614 H   0  0  0  0  0  0
  -29.7148  -11.7940   17.3940 H   0  0  0  0  0  0
  -29.6525  -13.4998   17.7632 H   0  0  0  0  0  0
  -27.8133  -11.3098   18.7860 H   0  0  0  0  0  0
  -27.3519  -12.6523   17.7773 H   0  0  0  0  0  0
  -27.7210  -14.2484   19.5972 H   0  0  0  0  0  0
  -28.6689  -11.8821   21.2812 H   0  0  0  0  0  0
  -28.4560  -13.4892   21.8870 H   0  0  0  0  0  0
  -25.2754   -9.5682   22.4752 H   0  0  0  0  0  0
  -23.9991   -7.4633   22.7471 H   0  0  0  0  0  0
  -21.0840   -8.8759   19.8946 H   0  0  0  0  0  0
  -22.3687  -10.9663   19.6150 H   0  0  0  0  0  0
  -21.1993   -7.6145   23.9709 H   0  0  0  0  0  0
  -21.1476   -6.0521   25.9075 H   0  0  0  0  0  0
  -22.0602   -2.7603   23.2841 H   0  0  0  0  0  0
  -22.4090  -11.9870   22.4749 H   0  0  0  0  0  0
  -21.1117  -13.1252   22.2576 H   0  0  0  0  0  0
  -24.6566  -15.8325   20.4752 H   0  0  0  0  0  0
  -26.2636  -15.6088   20.0056 H   0  0  0  0  0  0
  -26.7143  -32.5485   23.1209 H   0  0  0  0  0  0
  -25.0243  -33.9814   25.0608 H   0  0  0  0  0  0
  -22.6874  -31.3221   21.4293 H   0  0  0  0  0  0
  -23.3788  -35.9570   23.3271 H   0  0  0  0  0  0
  -24.3581  -36.8926   22.2054 H   0  0  0  0  0  0
  -23.7193  -37.6460   23.6634 H   0  0  0  0  0  0
  -26.0996  -31.6236   20.6551 H   0  0  0  0  0  0
  -26.7975  -30.8308   22.0400 H   0  0  0  0  0  0
  -28.0901  -29.1240   21.1241 H   0  0  0  0  0  0
  -25.9613  -25.9635   19.0726 H   0  0  0  0  0  0
  -23.9254  -27.2938   19.1087 H   0  0  0  0  0  0
  -23.7113  -30.6282   19.4186 H   0  0  0  0  0  0
  -22.7197  -29.2763   19.8697 H   0  0  0  0  0  0
  -25.1284  -36.1943   25.0827 H   0  0  0  0  0  0
  -20.9918  -28.3182   24.1455 H   0  0  0  0  0  0
  -20.5719  -26.2233   23.3567 H   0  0  0  0  0  0
  -21.6610  -26.7473   22.1144 H   0  0  0  0  0  0
  -19.6900  -25.6317   21.1201 H   0  0  0  0  0  0
  -19.6698  -27.3222   20.6776 H   0  0  0  0  0  0
  -17.4193  -26.6725   21.3980 H   0  0  0  0  0  0
  -18.0274  -26.0071   22.8974 H   0  0  0  0  0  0
  -19.7938  -30.7252   24.2242 H   0  0  0  0  0  0
  -17.5029  -31.6278   24.5150 H   0  0  0  0  0  0
  -15.5347  -30.2974   23.7750 H   0  0  0  0  0  0
  -15.8632  -28.0814   22.7119 H   0  0  0  0  0  0
  -24.5801  -30.7299   25.7961 H   0  0  0  0  0  0
  -24.9037  -32.3046   26.5071 H   0  0  0  0  0  0
  -25.8040  -30.8956   27.0342 H   0  0  0  0  0  0
  -26.3005  -29.6804   24.1315 H   0  0  0  0  0  0
  -27.3935  -29.7345   25.4975 H   0  0  0  0  0  0
  -27.8919  -30.4365   23.9755 H   0  0  0  0  0  0
  -27.2621  -33.3676   26.2213 H   0  0  0  0  0  0
  -28.3804  -32.7060   25.0391 H   0  0  0  0  0  0
  -28.0773  -31.8541   26.5480 H   0  0  0  0  0  0
  -28.2517  -38.0165   24.7603 H   0  0  0  0  0  0
  -28.1189  -36.2703   24.6082 H   0  0  0  0  0  0
  -27.2312  -37.1193   25.8832 H   0  0  0  0  0  0
  -20.9243  -29.8777   21.6990 H   0  0  0  0  0  0
  -26.0161  -38.2864   24.1525 H   0  0  0  0  0  0
  -31.8361  -20.0421   23.0283 H   0  0  0  0  0  0
  -32.5941  -15.9172   22.2026 H   0  0  0  0  0  0
  -30.0212  -23.4897   20.3820 H   0  0  0  0  0  0
  -27.0772  -24.3335   20.5507 H   0  0  0  0  0  0
  -27.5806  -18.3403   21.4326 H   0  0  0  0  0  0
  -27.7274  -16.6979   22.0296 H   0  0  0  0  0  0
  -28.1726  -17.0879   20.3652 H   0  0  0  0  0  0
  -29.7191  -19.8425   19.7750 H   0  0  0  0  0  0
  -31.1224  -20.7295   20.3623 H   0  0  0  0  0  0
  -29.9011  -21.5035   19.3694 H   0  0  0  0  0  0
  -27.9329  -25.5145   18.4284 H   0  0  0  0  0  0
  -29.5434  -25.4160   19.0343 H   0  0  0  0  0  0
  -29.1305  -15.0702   21.6052 H   0  0  0  0  0  0
  -28.5765  -19.4606   24.1951 H   0  0  0  0  0  0
  -27.9193  -20.9854   23.6162 H   0  0  0  0  0  0
  1 25  1  0  0  0
  1 30  2  0  0  0
  1 84  1  0  0  0
  2  3  1  0  0  0
  2 25  1  0  0  0
  2 89  1  0  0  0
  2 90  1  0  0  0
  3  4  1  0  0  0
  3 91  1  0  0  0
  3 92  1  0  0  0
  4  5  1  0  0  0
  4 93  1  0  0  0
  4 94  1  0  0  0
  5  6  1  0  0  0
  5 26  1  0  0  0
  5 95  1  0  0  0
  6 25  1  0  0  0
  6 96  1  0  0  0
  6 97  1  0  0  0
  7  8  2  0  0  0
  7 26  1  0  0  0
  7 29  1  0  0  0
  8  9  1  0  0  0
  8 22  1  0  0  0
  9 10  1  0  0  0
  9 27  2  0  0  0
 10 11  2  0  0  0
 10 15  1  0  0  0
 11 12  1  0  0  0
 11 98  1  0  0  0
 12 13  2  0  0  0
 12 99  1  0  0  0
 13 14  1  0  0  0
 13 31  1  0  0  0
 14 15  2  0  0  0
 14100  1  0  0  0
 15101  1  0  0  0
 16 17  2  0  0  0
 16 21  1  0  0  0
 16 31  1  0  0  0
 17 18  1  0  0  0
 17102  1  0  0  0
 18 19  2  0  0  0
 18103  1  0  0  0
 19 20  1  0  0  0
 19 24  1  0  0  0
 20 21  2  0  0  0
 20104  1  0  0  0
 21 23  1  0  0  0
 22 28  1  0  0  0
 22 32  2  0  0  0
 26 27  1  0  0  0
 28105  1  0  0  0
 28106  1  0  0  0
 29107  1  0  0  0
 29108  1  0  0  0
 33 34  1  0  0  0
 33 66  1  0  0  0
 33 70  2  0  0  0
 34 36  1  0  0  0
 34 59  1  0  0  0
 34109  1  0  0  0
 35 44  2  0  0  0
 35 45  1  0  0  0
 35 68  1  0  0  0
 36 56  1  0  0  0
 36110  1  0  0  0
 37 39  1  0  0  0
 37 47  1  0  0  0
 37 66  1  0  0  0
 37111  1  0  0  0
 38 43  2  0  0  0
 38 46  1  0  0  0
 38 47  1  0  0  0
 39 64  1  0  0  0
 39 67  2  0  0  0
 40 52  1  0  0  0
 40 53  2  0  0  0
 40 58  1  0  0  0
 41112  1  0  0  0
 41113  1  0  0  0
 41114  1  0  0  0
 41 48  1  0  0  0
 42 43  1  0  0  0
 42 66  1  0  0  0
 42115  1  0  0  0
 42116  1  0  0  0
 43 44  1  0  0  0
 44117  1  0  0  0
 45 46  2  0  0  0
 45118  1  0  0  0
 46119  1  0  0  0
 47120  1  0  0  0
 47121  1  0  0  0
 48 56  1  0  0  0
 48 65  1  0  0  0
 48122  1  0  0  0
 49 50  1  0  0  0
 49 53  1  0  0  0
 49 64  1  0  0  0
 49123  1  0  0  0
 50 51  1  0  0  0
 50124  1  0  0  0
 50125  1  0  0  0
 51 52  1  0  0  0
 51126  1  0  0  0
 51127  1  0  0  0
 52128  1  0  0  0
 52129  1  0  0  0
 53 54  1  0  0  0
 54 55  2  0  0  0
 54130  1  0  0  0
 55 57  1  0  0  0
 55131  1  0  0  0
 56 69  2  0  0  0
 57 58  2  0  0  0
 57132  1  0  0  0
 58133  1  0  0  0
 59 60  1  0  0  0
 59 61  1  0  0  0
 59 62  1  0  0  0
 60134  1  0  0  0
 60135  1  0  0  0
 60136  1  0  0  0
 61137  1  0  0  0
 61138  1  0  0  0
 61139  1  0  0  0
 62140  1  0  0  0
 62141  1  0  0  0
 62142  1  0  0  0
 63 65  1  0  0  0
 63143  1  0  0  0
 63144  1  0  0  0
 63145  1  0  0  0
 64146  1  0  0  0
 65147  1  0  0  0
 68 83  1  0  0  0
 71 73  2  0  0  0
 71 76  1  0  0  0
 71148  1  0  0  0
 72 75  1  0  0  0
 72 76  2  0  0  0
 72149  1  0  0  0
 73 74  1  0  0  0
 73 79  1  0  0  0
 74 75  2  0  0  0
 74 81  1  0  0  0
 75 84  1  0  0  0
 76 88  1  0  0  0
 77 78  2  0  0  0
 77 80  1  0  0  0
 77150  1  0  0  0
 78 83  1  0  0  0
 78151  1  0  0  0
 79 85  1  0  0  0
 79 86  2  0  0  0
 80 85  1  0  0  0
 80 87  2  0  0  0
 81152  1  0  0  0
 81153  1  0  0  0
 81154  1  0  0  0
 82 85  1  0  0  0
 82155  1  0  0  0
 82156  1  0  0  0
 82157  1  0  0  0
 83158  1  0  0  0
 83159  1  0  0  0
 84160  1  0  0  0
 86161  1  0  0  0
 86162  1  0  0  0
M  CHG  1  86   1
M  ISO  4   1 100  68 101  83 101  84 100
M  END
> <chiral flag>
0

> <version>
0

> <s_m_source_file>
/data/baiqing/PycharmProjects/Reinvent-master-3.2/result/LINK_invent/BTK/process_docking_weight1_custom_product_contain_oxygen_bond_distance_aromatic_linkinvent_7_9_3/rearranged_h_0051.sdf

> <i_m_source_file_index>
45

> <r_mmod_Potential_Energy-OPLS-2005>
-279.469940185547

> <r_mmod_Stretch_Energy-OPLS-2005>
39.0078239440918

> <r_mmod_Bend_Energy-OPLS-2005>
108.443641662598

> <r_mmod_Torsional_Energy-OPLS-2005>
244.610122680664

> <r_mmod_Improper_Torsional_Energy-OPLS-2005>
3.65594792366028

> <r_mmod_Van_der_Waal_Energy-OPLS-2005>
197.343383789062

> <r_mmod_Electrostatic_Energy-OPLS-2005>
-469.566680908203

> <r_mmod_Solvation_Energy-OPLS-2005>
-413.096466064453

> <b_mmod_Minimization_Converged-OPLS-2005>
0

> <r_mmod_RMS_Derivative-OPLS-2005>
3.69446897506714

$$$$
45
                    3D
 Structure written by MMmdl.
157165  0  0  1  0            999 V2000
  -30.7029  -14.5046   20.5127 C   0  0  0  0  0  0
  -30.4156  -12.3116   19.4304 C   0  0  0  0  0  0
  -29.4839  -12.4762   18.2118 C   0  0  0  0  0  0
  -28.0086  -12.3395   18.6343 C   0  0  0  0  0  0
  -27.6542  -13.1986   19.8761 C   0  0  2  0  0  0
  -28.7047  -13.0354   20.9973 C   0  0  0  0  0  0
  -25.2562  -13.8121   20.5695 C   0  0  0  0  0  0
  -24.1813  -13.0414   20.9206 C   0  0  0  0  0  0
  -24.6366  -11.6883   20.8796 C   0  0  0  0  0  0
  -23.9034  -10.4279   21.0453 C   0  0  0  0  0  0
  -24.3592   -9.4187   21.9218 C   0  0  0  0  0  0
  -23.6281   -8.2212   22.0761 C   0  0  0  0  0  0
  -22.4265   -8.0255   21.3543 C   0  0  0  0  0  0
  -21.9891   -9.0238   20.4659 C   0  0  0  0  0  0
  -22.7212  -10.2124   20.3097 C   0  0  0  0  0  0
  -21.6842   -6.0718   22.5281 C   0  0  0  0  0  0
  -21.3993   -6.5626   23.8205 C   0  0  0  0  0  0
  -21.3655   -5.6790   24.9177 C   0  0  0  0  0  0
  -21.6050   -4.3058   24.7235 C   0  0  0  0  0  0
  -21.8823   -3.8136   23.4360 C   0  0  0  0  0  0
  -21.9191   -4.6945   22.3415 C   0  0  0  0  0  0
  -22.7840  -13.5219   21.1860 C   0  0  0  0  0  0
  -22.1666   -4.2129   21.0994 F   0  0  0  0  0  0
  -21.5642   -3.4548   25.7751 F   0  0  0  0  0  0
  -30.0261  -13.3275   20.4219 N   0  0  0  0  0  0
  -26.2992  -12.9274   20.3427 N   0  0  0  0  0  0
  -25.9290  -11.6453   20.5862 N   0  0  0  0  0  0
  -22.0489  -12.8214   22.0428 N   0  0  0  0  0  0
  -25.4292  -15.1832   20.4038 N   0  0  0  0  0  0
  -31.8630  -14.6281   20.1127 O   0  0  0  0  0  0
  -21.6630   -6.8849   21.4236 O   0  0  0  0  0  0
  -22.3517  -14.5524   20.6702 O   0  0  0  0  0  0
  -24.6153  -31.8663   23.2106 C   0  0  0  0  0  0
  -25.9052  -32.4817   23.8390 C   0  0  1  0  0  0
  -27.2181  -27.4127   20.0931 C   0  0  0  0  0  0
  -25.5908  -33.8614   24.2331 N   0  0  0  0  0  0
  -23.4025  -30.4949   21.5511 C   0  0  2  0  0  0
  -24.8445  -28.9659   20.1075 C   0  0  0  0  0  0
  -22.7419  -29.4656   22.4967 C   0  0  0  0  0  0
  -18.0280  -28.1372   22.8489 C   0  0  0  0  0  0
  -24.1491  -36.7306   23.2647 C   0  0  0  0  0  0
  -25.9336  -30.8290   21.3627 C   0  0  0  0  0  0
  -26.0062  -29.4626   20.7089 C   0  0  0  0  0  0
  -27.1947  -28.6930   20.6987 C   0  0  0  0  0  0
  -26.0384  -26.9487   19.4633 C   0  0  0  0  0  0
  -24.8562  -27.7104   19.4802 C   0  0  0  0  0  0
  -23.6095  -29.8360   20.1621 C   0  0  0  0  0  0
  -25.4099  -36.3089   24.0349 C   0  0  1  0  0  0
  -20.5868  -28.3645   23.1318 C   0  0  2  0  0  0
  -20.6766  -26.9387   22.5407 C   0  0  0  0  0  0
  -19.5747  -26.6377   21.5210 C   0  0  0  0  0  0
  -18.1924  -26.7918   22.1623 C   0  0  0  0  0  0
  -19.1524  -28.8828   23.2902 C   0  0  0  0  0  0
  -18.9469  -30.1448   23.8893 C   0  0  0  0  0  0
  -17.6476  -30.6578   24.0581 C   0  0  0  0  0  0
  -25.9020  -34.9468   23.5128 C   0  0  0  0  0  0
  -16.5363  -29.9087   23.6328 C   0  0  0  0  0  0
  -16.7268  -28.6517   23.0320 C   0  0  0  0  0  0
  -26.4464  -31.6587   25.0711 C   0  0  0  0  0  0
  -25.3747  -31.3692   26.1475 C   0  0  0  0  0  0
  -27.0293  -30.3043   24.6046 C   0  0  0  0  0  0
  -27.6051  -32.4284   25.7475 C   0  0  0  0  0  0
  -27.5572  -37.1798   24.8474 C   0  0  0  0  0  0
  -21.4142  -29.3027   22.3735 N   0  0  0  0  0  0
  -26.4280  -37.3777   23.9426 N   0  0  0  0  0  0
  -24.6703  -31.0766   22.1007 N   0  0  0  0  0  0
  -23.4213  -28.8173   23.2974 O   0  0  0  0  0  0
  -28.3799  -26.6588   20.1453 O   0  0  0  0  0  0
  -26.5593  -34.8933   22.4693 O   0  0  0  0  0  0
  -23.5348  -32.1409   23.7498 O   0  0  0  0  0  0
  -27.9543  -20.3754   19.6311 C   0  0  0  0  0  0
  -27.7349  -19.1148   19.0469 C   0  0  0  0  0  0
  -29.7577  -19.4124   20.9506 C   0  0  0  0  0  0
  -29.0007  -20.5476   20.5585 C   0  0  0  0  0  0
  -29.5371  -18.1256   20.3884 C   0  0  0  0  0  0
  -28.5350  -18.0034   19.3878 C   0  0  0  0  0  0
  -30.1666  -22.7934   18.9403 C   0  0  0  0  0  0
  -29.3296  -21.9510   21.1039 C   0  0  0  0  0  0
  -30.4905  -16.9823   20.8072 C   0  0  0  0  0  0
  -29.3779  -24.4326   20.5852 C   0  0  0  0  0  0
  -28.3104  -25.2545   19.8207 C   0  0  0  0  0  0
  -29.9893  -15.5895   20.8839 N   0  0  0  0  0  0
  -29.5342  -23.0351   20.1102 N   0  0  0  0  0  0
  -30.5404  -23.6695   18.1546 O   0  0  0  0  0  0
  -28.2939  -16.5523   18.4864 Cl  0  0  0  0  0  0
  -31.4590  -12.4011   19.1212 H   0  0  0  0  0  0
  -30.3180  -11.3134   19.8592 H   0  0  0  0  0  0
  -29.7189  -11.7267   17.4548 H   0  0  0  0  0  0
  -29.6459  -13.4486   17.7451 H   0  0  0  0  0  0
  -27.8268  -11.2867   18.8534 H   0  0  0  0  0  0
  -27.3508  -12.5951   17.8032 H   0  0  0  0  0  0
  -27.6782  -14.2326   19.5525 H   0  0  0  0  0  0
  -28.6910  -12.0172   21.3891 H   0  0  0  0  0  0
  -28.4775  -13.6838   21.8444 H   0  0  0  0  0  0
  -25.2731   -9.5650   22.4808 H   0  0  0  0  0  0
  -23.9995   -7.4580   22.7457 H   0  0  0  0  0  0
  -21.0828   -8.8756   19.8954 H   0  0  0  0  0  0
  -22.3672  -10.9675   19.6227 H   0  0  0  0  0  0
  -21.1966   -7.6134   23.9695 H   0  0  0  0  0  0
  -21.1479   -6.0532   25.9074 H   0  0  0  0  0  0
  -22.0609   -2.7601   23.2877 H   0  0  0  0  0  0
  -22.4112  -11.9876   22.4809 H   0  0  0  0  0  0
  -21.1124  -13.1257   22.2685 H   0  0  0  0  0  0
  -24.6601  -15.8385   20.4925 H   0  0  0  0  0  0
  -26.2716  -15.6077   20.0361 H   0  0  0  0  0  0
  -26.7118  -32.5520   23.1142 H   0  0  0  0  0  0
  -25.0070  -33.9775   25.0487 H   0  0  0  0  0  0
  -22.6904  -31.3125   21.4169 H   0  0  0  0  0  0
  -23.3737  -35.9659   23.3314 H   0  0  0  0  0  0
  -24.3577  -36.8878   22.2054 H   0  0  0  0  0  0
  -23.7259  -37.6532   23.6629 H   0  0  0  0  0  0
  -26.0407  -31.5942   20.5920 H   0  0  0  0  0  0
  -26.8263  -30.8837   21.9747 H   0  0  0  0  0  0
  -28.0903  -29.0721   21.1684 H   0  0  0  0  0  0
  -26.0013  -26.0023   18.9436 H   0  0  0  0  0  0
  -23.9661  -27.3295   19.0000 H   0  0  0  0  0  0
  -23.7217  -30.6180   19.4105 H   0  0  0  0  0  0
  -22.7314  -29.2630   19.8614 H   0  0  0  0  0  0
  -25.1260  -36.1946   25.0844 H   0  0  0  0  0  0
  -20.9965  -28.3198   24.1434 H   0  0  0  0  0  0
  -20.5643  -26.2262   23.3587 H   0  0  0  0  0  0
  -21.6634  -26.7403   22.1212 H   0  0  0  0  0  0
  -19.6908  -25.6297   21.1215 H   0  0  0  0  0  0
  -19.6686  -27.3213   20.6762 H   0  0  0  0  0  0
  -17.4185  -26.6670   21.4028 H   0  0  0  0  0  0
  -18.0325  -26.0052   22.9011 H   0  0  0  0  0  0
  -19.7952  -30.7275   24.2222 H   0  0  0  0  0  0
  -17.5034  -31.6244   24.5201 H   0  0  0  0  0  0
  -15.5361  -30.3003   23.7650 H   0  0  0  0  0  0
  -15.8669  -28.0872   22.6978 H   0  0  0  0  0  0
  -24.5948  -30.6983   25.7844 H   0  0  0  0  0  0
  -24.8923  -32.2858   26.4896 H   0  0  0  0  0  0
  -25.8131  -30.8911   27.0251 H   0  0  0  0  0  0
  -26.2832  -29.6807   24.1109 H   0  0  0  0  0  0
  -27.4118  -29.7238   25.4449 H   0  0  0  0  0  0
  -27.8630  -30.4380   23.9148 H   0  0  0  0  0  0
  -27.2683  -33.3581   26.2068 H   0  0  0  0  0  0
  -28.3867  -32.6824   25.0305 H   0  0  0  0  0  0
  -28.0715  -31.8393   26.5374 H   0  0  0  0  0  0
  -28.2583  -38.0104   24.7487 H   0  0  0  0  0  0
  -28.1060  -36.2619   24.6299 H   0  0  0  0  0  0
  -27.2301  -37.1448   25.8885 H   0  0  0  0  0  0
  -20.9277  -29.8809   21.7023 H   0  0  0  0  0  0
  -26.0159  -38.2853   24.1426 H   0  0  0  0  0  0
  -27.3446  -21.2190   19.3322 H   0  0  0  0  0  0
  -26.9645  -19.0101   18.2967 H   0  0  0  0  0  0
  -30.5565  -19.5386   21.6689 H   0  0  0  0  0  0
  -30.3022  -21.7171   18.7547 H   0  0  0  0  0  0
  -30.2327  -21.8932   21.7138 H   0  0  0  0  0  0
  -28.5258  -22.2309   21.7867 H   0  0  0  0  0  0
  -30.9078  -17.2252   21.7848 H   0  0  0  0  0  0
  -31.3314  -17.0420   20.1132 H   0  0  0  0  0  0
  -29.1403  -24.4439   21.6500 H   0  0  0  0  0  0
  -30.3408  -24.9366   20.4994 H   0  0  0  0  0  0
  -27.3490  -24.8140   20.0822 H   0  0  0  0  0  0
  -28.4259  -25.1567   18.7412 H   0  0  0  0  0  0
  -29.0381  -15.4462   21.1831 H   0  0  0  0  0  0
  1 25  1  0  0  0
  1 30  2  0  0  0
  1 82  1  0  0  0
  2  3  1  0  0  0
  2 25  1  0  0  0
  2 86  1  0  0  0
  2 87  1  0  0  0
  3  4  1  0  0  0
  3 88  1  0  0  0
  3 89  1  0  0  0
  4  5  1  0  0  0
  4 90  1  0  0  0
  4 91  1  0  0  0
  5  6  1  0  0  0
  5 26  1  0  0  0
  5 92  1  0  0  0
  6 25  1  0  0  0
  6 93  1  0  0  0
  6 94  1  0  0  0
  7  8  2  0  0  0
  7 26  1  0  0  0
  7 29  1  0  0  0
  8  9  1  0  0  0
  8 22  1  0  0  0
  9 10  1  0  0  0
  9 27  2  0  0  0
 10 11  2  0  0  0
 10 15  1  0  0  0
 11 12  1  0  0  0
 11 95  1  0  0  0
 12 13  2  0  0  0
 12 96  1  0  0  0
 13 14  1  0  0  0
 13 31  1  0  0  0
 14 15  2  0  0  0
 14 97  1  0  0  0
 15 98  1  0  0  0
 16 17  2  0  0  0
 16 21  1  0  0  0
 16 31  1  0  0  0
 17 18  1  0  0  0
 17 99  1  0  0  0
 18 19  2  0  0  0
 18100  1  0  0  0
 19 20  1  0  0  0
 19 24  1  0  0  0
 20 21  2  0  0  0
 20101  1  0  0  0
 21 23  1  0  0  0
 22 28  1  0  0  0
 22 32  2  0  0  0
 26 27  1  0  0  0
 28102  1  0  0  0
 28103  1  0  0  0
 29104  1  0  0  0
 29105  1  0  0  0
 33 34  1  0  0  0
 33 66  1  0  0  0
 33 70  2  0  0  0
 34 36  1  0  0  0
 34 59  1  0  0  0
 34106  1  0  0  0
 35 44  2  0  0  0
 35 45  1  0  0  0
 35 68  1  0  0  0
 36 56  1  0  0  0
 36107  1  0  0  0
 37 39  1  0  0  0
 37 47  1  0  0  0
 37 66  1  0  0  0
 37108  1  0  0  0
 38 43  2  0  0  0
 38 46  1  0  0  0
 38 47  1  0  0  0
 39 64  1  0  0  0
 39 67  2  0  0  0
 40 52  1  0  0  0
 40 53  2  0  0  0
 40 58  1  0  0  0
 41109  1  0  0  0
 41110  1  0  0  0
 41111  1  0  0  0
 41 48  1  0  0  0
 42 43  1  0  0  0
 42 66  1  0  0  0
 42112  1  0  0  0
 42113  1  0  0  0
 43 44  1  0  0  0
 44114  1  0  0  0
 45 46  2  0  0  0
 45115  1  0  0  0
 46116  1  0  0  0
 47117  1  0  0  0
 47118  1  0  0  0
 48 56  1  0  0  0
 48 65  1  0  0  0
 48119  1  0  0  0
 49 50  1  0  0  0
 49 53  1  0  0  0
 49 64  1  0  0  0
 49120  1  0  0  0
 50 51  1  0  0  0
 50121  1  0  0  0
 50122  1  0  0  0
 51 52  1  0  0  0
 51123  1  0  0  0
 51124  1  0  0  0
 52125  1  0  0  0
 52126  1  0  0  0
 53 54  1  0  0  0
 54 55  2  0  0  0
 54127  1  0  0  0
 55 57  1  0  0  0
 55128  1  0  0  0
 56 69  2  0  0  0
 57 58  2  0  0  0
 57129  1  0  0  0
 58130  1  0  0  0
 59 60  1  0  0  0
 59 61  1  0  0  0
 59 62  1  0  0  0
 60131  1  0  0  0
 60132  1  0  0  0
 60133  1  0  0  0
 61134  1  0  0  0
 61135  1  0  0  0
 61136  1  0  0  0
 62137  1  0  0  0
 62138  1  0  0  0
 62139  1  0  0  0
 63 65  1  0  0  0
 63140  1  0  0  0
 63141  1  0  0  0
 63142  1  0  0  0
 64143  1  0  0  0
 65144  1  0  0  0
 68 81  1  0  0  0
 71 72  2  0  0  0
 71 74  1  0  0  0
 71145  1  0  0  0
 72 76  1  0  0  0
 72146  1  0  0  0
 73 74  2  0  0  0
 73 75  1  0  0  0
 73147  1  0  0  0
 74 78  1  0  0  0
 75 76  2  0  0  0
 75 79  1  0  0  0
 76 85  1  0  0  0
 77 83  1  0  0  0
 77 84  2  0  0  0
 77148  1  0  0  0
 78 83  1  0  0  0
 78149  1  0  0  0
 78150  1  0  0  0
 79 82  1  0  0  0
 79151  1  0  0  0
 79152  1  0  0  0
 80 81  1  0  0  0
 80 83  1  0  0  0
 80153  1  0  0  0
 80154  1  0  0  0
 81155  1  0  0  0
 81156  1  0  0  0
 82157  1  0  0  0
M  ISO  4   1 100  68 101  81 101  82 100
M  END
> <chiral flag>
0

> <version>
0

> <s_m_source_file>
/data/baiqing/PycharmProjects/Reinvent-master-3.2/result/LINK_invent/BTK/process_docking_weight1_custom_product_contain_oxygen_bond_distance_aromatic_linkinvent_7_9_3/rearranged_h_0051.sdf

> <i_m_source_file_index>
46

> <r_mmod_Potential_Energy-OPLS-2005>
-96.5525054931641

> <r_mmod_Stretch_Energy-OPLS-2005>
44.2609672546387

> <r_mmod_Bend_Energy-OPLS-2005>
105.582275390625

> <r_mmod_Torsional_Energy-OPLS-2005>
207.085388183594

> <r_mmod_Improper_Torsional_Energy-OPLS-2005>
5.54259395599365

> <r_mmod_Van_der_Waal_Energy-OPLS-2005>
162.373321533203

> <r_mmod_Electrostatic_Energy-OPLS-2005>
-413.419586181641

> <r_mmod_Solvation_Energy-OPLS-2005>
-228.574890136719

> <b_mmod_Minimization_Converged-OPLS-2005>
0

> <r_mmod_RMS_Derivative-OPLS-2005>
2.40058994293213

$$$$
46
                    3D
 Structure written by MMmdl.
158167  0  0  1  0            999 V2000
  -30.5457  -14.7788   20.4697 C   0  0  0  0  0  0
  -30.4507  -12.4780   19.4706 C   0  0  0  0  0  0
  -29.5188  -12.5238   18.2366 C   0  0  0  0  0  0
  -28.0435  -12.3365   18.6473 C   0  0  0  0  0  0
  -27.6448  -13.2241   19.8551 C   0  0  2  0  0  0
  -28.6899  -13.1313   20.9891 C   0  0  0  0  0  0
  -25.2526  -13.8171   20.5694 C   0  0  0  0  0  0
  -24.1807  -13.0438   20.9219 C   0  0  0  0  0  0
  -24.6385  -11.6906   20.8748 C   0  0  0  0  0  0
  -23.9053  -10.4297   21.0413 C   0  0  0  0  0  0
  -24.3599   -9.4213   21.9189 C   0  0  0  0  0  0
  -23.6278   -8.2247   22.0762 C   0  0  0  0  0  0
  -22.4255   -8.0289   21.3560 C   0  0  0  0  0  0
  -21.9891   -9.0259   20.4661 C   0  0  0  0  0  0
  -22.7225  -10.2136   20.3070 C   0  0  0  0  0  0
  -21.6852   -6.0731   22.5280 C   0  0  0  0  0  0
  -21.4012   -6.5628   23.8211 C   0  0  0  0  0  0
  -21.3662   -5.6782   24.9173 C   0  0  0  0  0  0
  -21.6044   -4.3046   24.7224 C   0  0  0  0  0  0
  -21.8818   -3.8143   23.4342 C   0  0  0  0  0  0
  -21.9191   -4.6961   22.3400 C   0  0  0  0  0  0
  -22.7827  -13.5240   21.1862 C   0  0  0  0  0  0
  -22.1662   -4.2150   21.0975 F   0  0  0  0  0  0
  -21.5626   -3.4526   25.7737 F   0  0  0  0  0  0
  -29.9889  -13.5187   20.4180 N   0  0  0  0  0  0
  -26.2942  -12.9360   20.3276 N   0  0  0  0  0  0
  -25.9310  -11.6508   20.5727 N   0  0  0  0  0  0
  -22.0451  -12.8255   22.0415 N   0  0  0  0  0  0
  -25.4200  -15.1887   20.4094 N   0  0  0  0  0  0
  -31.7304  -14.9438   20.1551 O   0  0  0  0  0  0
  -21.6636   -6.8877   21.4246 O   0  0  0  0  0  0
  -22.3525  -14.5546   20.6702 O   0  0  0  0  0  0
  -24.6317  -31.8527   23.1945 C   0  0  0  0  0  0
  -25.9134  -32.4743   23.8303 C   0  0  1  0  0  0
  -27.2375  -27.2453   20.1427 C   0  0  0  0  0  0
  -25.5924  -33.8542   24.2230 N   0  0  0  0  0  0
  -23.4305  -30.4702   21.5387 C   0  0  2  0  0  0
  -24.8803  -28.9018   20.1207 C   0  0  0  0  0  0
  -22.7502  -29.4578   22.4917 C   0  0  0  0  0  0
  -18.0287  -28.1389   22.8474 C   0  0  0  0  0  0
  -24.1486  -36.7279   23.2637 C   0  0  0  0  0  0
  -25.9745  -30.7597   21.3752 C   0  0  0  0  0  0
  -26.0495  -29.3750   20.7295 C   0  0  0  0  0  0
  -27.2297  -28.5621   20.7215 C   0  0  0  0  0  0
  -26.0454  -26.8371   19.5101 C   0  0  0  0  0  0
  -24.8843  -27.6412   19.4997 C   0  0  0  0  0  0
  -23.6518  -29.7936   20.1589 C   0  0  0  0  0  0
  -25.4110  -36.3057   24.0319 C   0  0  1  0  0  0
  -20.5886  -28.3697   23.1273 C   0  0  2  0  0  0
  -20.6771  -26.9414   22.5410 C   0  0  0  0  0  0
  -19.5750  -26.6385   21.5207 C   0  0  0  0  0  0
  -18.1928  -26.7933   22.1616 C   0  0  0  0  0  0
  -19.1537  -28.8862   23.2869 C   0  0  0  0  0  0
  -18.9461  -30.1462   23.8888 C   0  0  0  0  0  0
  -17.6460  -30.6588   24.0558 C   0  0  0  0  0  0
  -25.9055  -34.9435   23.5081 C   0  0  0  0  0  0
  -16.5350  -29.9086   23.6323 C   0  0  0  0  0  0
  -16.7270  -28.6504   23.0339 C   0  0  0  0  0  0
  -26.4493  -31.6568   25.0696 C   0  0  0  0  0  0
  -25.3713  -31.3728   26.1416 C   0  0  0  0  0  0
  -27.0331  -30.2977   24.6191 C   0  0  0  0  0  0
  -27.6044  -32.4305   25.7480 C   0  0  0  0  0  0
  -27.5574  -37.1787   24.8451 C   0  0  0  0  0  0
  -21.4207  -29.3051   22.3673 N   0  0  0  0  0  0
  -26.4279  -37.3765   23.9413 N   0  0  0  0  0  0
  -24.6978  -31.0468   22.0927 N   0  0  0  0  0  0
  -23.4194  -28.8121   23.3026 O   0  0  0  0  0  0
  -28.3891  -26.4244   20.0726 O   0  0  0  0  0  0
  -26.5636  -34.8918   22.4658 O   0  0  0  0  0  0
  -23.5464  -32.1355   23.7234 O   0  0  0  0  0  0
  -28.3640  -19.4176   20.0125 C   0  0  0  0  0  0
  -28.5029  -17.9890   20.0623 C   0  0  0  0  0  0
  -30.6646  -18.2135   21.0157 C   0  0  0  0  0  0
  -30.5183  -19.6554   21.0083 C   0  0  0  0  0  0
  -29.3582  -20.3366   20.4674 C   0  0  0  0  0  0
  -29.6609  -17.3159   20.5505 C   0  0  0  0  0  0
  -30.0711  -22.7547   19.9686 C   0  0  0  0  0  0
  -29.8333  -24.3249   19.9638 C   0  0  0  0  0  0
  -27.4436  -23.8789   20.1214 C   0  0  0  0  0  0
  -27.7957  -22.4414   20.7108 C   0  0  0  0  0  0
  -28.4932  -24.9658   20.4818 C   0  0  2  0  0  0
  -31.6389  -20.4286   21.6854 C   0  0  0  0  0  0
  -29.1323  -21.8395   20.3893 N   0  0  0  0  0  0
  -29.6566  -15.8275   20.6845 N   0  0  0  0  0  0
  -31.1586  -22.3878   19.5116 O   0  0  0  0  0  0
  -31.4871  -12.6372   19.1669 H   0  0  0  0  0  0
  -30.4239  -11.4946   19.9409 H   0  0  0  0  0  0
  -29.8059  -11.7605   17.5129 H   0  0  0  0  0  0
  -29.6366  -13.4817   17.7284 H   0  0  0  0  0  0
  -27.8971  -11.2852   18.8987 H   0  0  0  0  0  0
  -27.3892  -12.5402   17.7989 H   0  0  0  0  0  0
  -27.6429  -14.2482   19.4825 H   0  0  0  0  0  0
  -28.7367  -12.1184   21.3896 H   0  0  0  0  0  0
  -28.4171  -13.7746   21.8278 H   0  0  0  0  0  0
  -25.2737   -9.5686   22.4766 H   0  0  0  0  0  0
  -23.9994   -7.4629   22.7469 H   0  0  0  0  0  0
  -21.0822   -8.8776   19.8958 H   0  0  0  0  0  0
  -22.3683  -10.9671   19.6183 H   0  0  0  0  0  0
  -21.2007   -7.6137   23.9711 H   0  0  0  0  0  0
  -21.1484   -6.0513   25.9073 H   0  0  0  0  0  0
  -22.0596   -2.7608   23.2840 H   0  0  0  0  0  0
  -22.4022  -11.9909   22.4828 H   0  0  0  0  0  0
  -21.1084  -13.1324   22.2611 H   0  0  0  0  0  0
  -24.6452  -15.8358   20.5095 H   0  0  0  0  0  0
  -26.2462  -15.6224   20.0215 H   0  0  0  0  0  0
  -26.7203  -32.5388   23.1042 H   0  0  0  0  0  0
  -25.0042  -33.9674   25.0359 H   0  0  0  0  0  0
  -22.7267  -31.2911   21.3872 H   0  0  0  0  0  0
  -23.3751  -35.9606   23.3280 H   0  0  0  0  0  0
  -24.3580  -36.8930   22.2056 H   0  0  0  0  0  0
  -23.7238  -37.6471   23.6684 H   0  0  0  0  0  0
  -26.1095  -31.5133   20.5979 H   0  0  0  0  0  0
  -26.8523  -30.8177   22.0070 H   0  0  0  0  0  0
  -28.1338  -28.9342   21.1826 H   0  0  0  0  0  0
  -26.0110  -25.8879   18.9966 H   0  0  0  0  0  0
  -23.9948  -27.2799   19.0017 H   0  0  0  0  0  0
  -23.7796  -30.5639   19.3975 H   0  0  0  0  0  0
  -22.7700  -29.2263   19.8559 H   0  0  0  0  0  0
  -25.1293  -36.1887   25.0809 H   0  0  0  0  0  0
  -20.9971  -28.3273   24.1395 H   0  0  0  0  0  0
  -20.5659  -26.2306   23.3613 H   0  0  0  0  0  0
  -21.6645  -26.7427   22.1220 H   0  0  0  0  0  0
  -19.6911  -25.6291   21.1250 H   0  0  0  0  0  0
  -19.6688  -27.3186   20.6730 H   0  0  0  0  0  0
  -17.4196  -26.6669   21.4019 H   0  0  0  0  0  0
  -18.0329  -26.0079   22.9016 H   0  0  0  0  0  0
  -19.7938  -30.7280   24.2254 H   0  0  0  0  0  0
  -17.5013  -31.6268   24.5160 H   0  0  0  0  0  0
  -15.5351  -30.2984   23.7653 H   0  0  0  0  0  0
  -15.8674  -28.0827   22.7049 H   0  0  0  0  0  0
  -24.5891  -30.7073   25.7745 H   0  0  0  0  0  0
  -24.8898  -32.2899   26.4818 H   0  0  0  0  0  0
  -25.8024  -30.8919   27.0205 H   0  0  0  0  0  0
  -26.2906  -29.6736   24.1201 H   0  0  0  0  0  0
  -27.3983  -29.7232   25.4713 H   0  0  0  0  0  0
  -27.8802  -30.4233   23.9444 H   0  0  0  0  0  0
  -27.2646  -33.3606   26.2047 H   0  0  0  0  0  0
  -28.3864  -32.6861   25.0319 H   0  0  0  0  0  0
  -28.0702  -31.8437   26.5406 H   0  0  0  0  0  0
  -28.2565  -38.0112   24.7533 H   0  0  0  0  0  0
  -28.1098  -36.2644   24.6221 H   0  0  0  0  0  0
  -27.2305  -37.1378   25.8857 H   0  0  0  0  0  0
  -20.9391  -29.8781   21.6883 H   0  0  0  0  0  0
  -26.0144  -38.2831   24.1432 H   0  0  0  0  0  0
  -27.4428  -19.8029   19.6014 H   0  0  0  0  0  0
  -27.6708  -17.3976   19.7079 H   0  0  0  0  0  0
  -31.5557  -17.7843   21.4512 H   0  0  0  0  0  0
  -29.9432  -24.6192   18.9193 H   0  0  0  0  0  0
  -30.6701  -24.7924   20.4831 H   0  0  0  0  0  0
  -26.4652  -24.1743   20.4982 H   0  0  0  0  0  0
  -27.3468  -23.8108   19.0368 H   0  0  0  0  0  0
  -26.9987  -21.7593   20.4237 H   0  0  0  0  0  0
  -27.7417  -22.5028   21.7983 H   0  0  0  0  0  0
  -28.5445  -24.9941   21.5706 H   0  0  0  0  0  0
  -32.0940  -19.8385   22.4821 H   0  0  0  0  0  0
  -31.2761  -21.3476   22.1452 H   0  0  0  0  0  0
  -32.4253  -20.6738   20.9712 H   0  0  0  0  0  0
  -28.7333  -15.4567   20.8465 H   0  0  0  0  0  0
  1 25  1  0  0  0
  1 30  2  0  0  0
  1 84  1  0  0  0
  2  3  1  0  0  0
  2 25  1  0  0  0
  2 86  1  0  0  0
  2 87  1  0  0  0
  3  4  1  0  0  0
  3 88  1  0  0  0
  3 89  1  0  0  0
  4  5  1  0  0  0
  4 90  1  0  0  0
  4 91  1  0  0  0
  5  6  1  0  0  0
  5 26  1  0  0  0
  5 92  1  0  0  0
  6 25  1  0  0  0
  6 93  1  0  0  0
  6 94  1  0  0  0
  7  8  2  0  0  0
  7 26  1  0  0  0
  7 29  1  0  0  0
  8  9  1  0  0  0
  8 22  1  0  0  0
  9 10  1  0  0  0
  9 27  2  0  0  0
 10 11  2  0  0  0
 10 15  1  0  0  0
 11 12  1  0  0  0
 11 95  1  0  0  0
 12 13  2  0  0  0
 12 96  1  0  0  0
 13 14  1  0  0  0
 13 31  1  0  0  0
 14 15  2  0  0  0
 14 97  1  0  0  0
 15 98  1  0  0  0
 16 17  2  0  0  0
 16 21  1  0  0  0
 16 31  1  0  0  0
 17 18  1  0  0  0
 17 99  1  0  0  0
 18 19  2  0  0  0
 18100  1  0  0  0
 19 20  1  0  0  0
 19 24  1  0  0  0
 20 21  2  0  0  0
 20101  1  0  0  0
 21 23  1  0  0  0
 22 28  1  0  0  0
 22 32  2  0  0  0
 26 27  1  0  0  0
 28102  1  0  0  0
 28103  1  0  0  0
 29104  1  0  0  0
 29105  1  0  0  0
 33 34  1  0  0  0
 33 66  1  0  0  0
 33 70  2  0  0  0
 34 36  1  0  0  0
 34 59  1  0  0  0
 34106  1  0  0  0
 35 44  2  0  0  0
 35 45  1  0  0  0
 35 68  1  0  0  0
 36 56  1  0  0  0
 36107  1  0  0  0
 37 39  1  0  0  0
 37 47  1  0  0  0
 37 66  1  0  0  0
 37108  1  0  0  0
 38 43  2  0  0  0
 38 46  1  0  0  0
 38 47  1  0  0  0
 39 64  1  0  0  0
 39 67  2  0  0  0
 40 52  1  0  0  0
 40 53  2  0  0  0
 40 58  1  0  0  0
 41109  1  0  0  0
 41110  1  0  0  0
 41111  1  0  0  0
 41 48  1  0  0  0
 42 43  1  0  0  0
 42 66  1  0  0  0
 42112  1  0  0  0
 42113  1  0  0  0
 43 44  1  0  0  0
 44114  1  0  0  0
 45 46  2  0  0  0
 45115  1  0  0  0
 46116  1  0  0  0
 47117  1  0  0  0
 47118  1  0  0  0
 48 56  1  0  0  0
 48 65  1  0  0  0
 48119  1  0  0  0
 49 50  1  0  0  0
 49 53  1  0  0  0
 49 64  1  0  0  0
 49120  1  0  0  0
 50 51  1  0  0  0
 50121  1  0  0  0
 50122  1  0  0  0
 51 52  1  0  0  0
 51123  1  0  0  0
 51124  1  0  0  0
 52125  1  0  0  0
 52126  1  0  0  0
 53 54  1  0  0  0
 54 55  2  0  0  0
 54127  1  0  0  0
 55 57  1  0  0  0
 55128  1  0  0  0
 56 69  2  0  0  0
 57 58  2  0  0  0
 57129  1  0  0  0
 58130  1  0  0  0
 59 60  1  0  0  0
 59 61  1  0  0  0
 59 62  1  0  0  0
 60131  1  0  0  0
 60132  1  0  0  0
 60133  1  0  0  0
 61134  1  0  0  0
 61135  1  0  0  0
 61136  1  0  0  0
 62137  1  0  0  0
 62138  1  0  0  0
 62139  1  0  0  0
 63 65  1  0  0  0
 63140  1  0  0  0
 63141  1  0  0  0
 63142  1  0  0  0
 64143  1  0  0  0
 65144  1  0  0  0
 68 81  1  0  0  0
 71 72  2  0  0  0
 71 75  1  0  0  0
 71145  1  0  0  0
 72 76  1  0  0  0
 72146  1  0  0  0
 73 74  1  0  0  0
 73 76  2  0  0  0
 73147  1  0  0  0
 74 75  2  0  0  0
 74 82  1  0  0  0
 75 83  1  0  0  0
 76 84  1  0  0  0
 77 78  1  0  0  0
 77 83  1  0  0  0
 77 85  2  0  0  0
 78 81  1  0  0  0
 78148  1  0  0  0
 78149  1  0  0  0
 79 80  1  0  0  0
 79 81  1  0  0  0
 79150  1  0  0  0
 79151  1  0  0  0
 80 83  1  0  0  0
 80152  1  0  0  0
 80153  1  0  0  0
 81154  1  0  0  0
 82155  1  0  0  0
 82156  1  0  0  0
 82157  1  0  0  0
 84158  1  0  0  0
M  ISO  4   1 100  68 101  81 101  84 100
M  END
> <chiral flag>
0

> <version>
0

> <s_m_source_file>
/data/baiqing/PycharmProjects/Reinvent-master-3.2/result/LINK_invent/BTK/process_docking_weight1_custom_product_contain_oxygen_bond_distance_aromatic_linkinvent_7_9_3/rearranged_h_0051.sdf

> <i_m_source_file_index>
47

> <r_mmod_Potential_Energy-OPLS-2005>
302.363464355469

> <r_mmod_Stretch_Energy-OPLS-2005>
136.849029541016

> <r_mmod_Bend_Energy-OPLS-2005>
218.335174560547

> <r_mmod_Torsional_Energy-OPLS-2005>
290.510192871094

> <r_mmod_Improper_Torsional_Energy-OPLS-2005>
6.65835475921631

> <r_mmod_Van_der_Waal_Energy-OPLS-2005>
144.866363525391

> <r_mmod_Electrostatic_Energy-OPLS-2005>
-358.984222412109

> <r_mmod_Solvation_Energy-OPLS-2005>
-226.021865844727

> <b_mmod_Minimization_Converged-OPLS-2005>
0

> <r_mmod_RMS_Derivative-OPLS-2005>
1.80986833572388

$$$$
47
                    3D
 Structure written by MMmdl.
165174  0  0  1  0            999 V2000
  -30.6370  -14.5856   20.5280 C   0  0  0  0  0  0
  -30.4378  -12.3651   19.4419 C   0  0  0  0  0  0
  -29.5040  -12.5162   18.2203 C   0  0  0  0  0  0
  -28.0266  -12.3569   18.6319 C   0  0  0  0  0  0
  -27.6593  -13.2107   19.8743 C   0  0  2  0  0  0
  -28.7034  -13.0254   20.9992 C   0  0  0  0  0  0
  -25.2588  -13.8166   20.5701 C   0  0  0  0  0  0
  -24.1839  -13.0437   20.9181 C   0  0  0  0  0  0
  -24.6395  -11.6905   20.8736 C   0  0  0  0  0  0
  -23.9056  -10.4295   21.0411 C   0  0  0  0  0  0
  -24.3609   -9.4207   21.9185 C   0  0  0  0  0  0
  -23.6289   -8.2242   22.0753 C   0  0  0  0  0  0
  -22.4268   -8.0282   21.3548 C   0  0  0  0  0  0
  -21.9910   -9.0252   20.4642 C   0  0  0  0  0  0
  -22.7232  -10.2136   20.3056 C   0  0  0  0  0  0
  -21.6852   -6.0738   22.5281 C   0  0  0  0  0  0
  -21.4014   -6.5639   23.8218 C   0  0  0  0  0  0
  -21.3659   -5.6791   24.9176 C   0  0  0  0  0  0
  -21.6045   -4.3055   24.7227 C   0  0  0  0  0  0
  -21.8817   -3.8149   23.4347 C   0  0  0  0  0  0
  -21.9193   -4.6965   22.3403 C   0  0  0  0  0  0
  -22.7862  -13.5232   21.1848 C   0  0  0  0  0  0
  -22.1660   -4.2153   21.0978 F   0  0  0  0  0  0
  -21.5629   -3.4540   25.7740 F   0  0  0  0  0  0
  -30.0266  -13.3637   20.4467 N   0  0  0  0  0  0
  -26.3021  -12.9337   20.3373 N   0  0  0  0  0  0
  -25.9325  -11.6497   20.5768 N   0  0  0  0  0  0
  -22.0503  -12.8224   22.0405 N   0  0  0  0  0  0
  -25.4321  -15.1884   20.4126 N   0  0  0  0  0  0
  -31.7770  -14.7730   20.0932 O   0  0  0  0  0  0
  -21.6629   -6.8881   21.4245 O   0  0  0  0  0  0
  -22.3552  -14.5544   20.6707 O   0  0  0  0  0  0
  -24.6231  -31.8625   23.2055 C   0  0  0  0  0  0
  -25.9093  -32.4790   23.8369 C   0  0  1  0  0  0
  -27.2270  -27.3530   20.0968 C   0  0  0  0  0  0
  -25.5923  -33.8593   24.2297 N   0  0  0  0  0  0
  -23.4135  -30.4875   21.5495 C   0  0  2  0  0  0
  -24.8574  -28.9478   20.1133 C   0  0  0  0  0  0
  -22.7446  -29.4643   22.4972 C   0  0  0  0  0  0
  -18.0270  -28.1378   22.8497 C   0  0  0  0  0  0
  -24.1491  -36.7300   23.2637 C   0  0  0  0  0  0
  -25.9527  -30.8018   21.3726 C   0  0  0  0  0  0
  -26.0252  -29.4324   20.7150 C   0  0  0  0  0  0
  -27.2095  -28.6438   20.7023 C   0  0  0  0  0  0
  -26.0287  -26.9113   19.4846 C   0  0  0  0  0  0
  -24.8586  -27.6904   19.4944 C   0  0  0  0  0  0
  -23.6238  -29.8230   20.1645 C   0  0  0  0  0  0
  -25.4115  -36.3097   24.0334 C   0  0  1  0  0  0
  -20.5868  -28.3683   23.1303 C   0  0  2  0  0  0
  -20.6765  -26.9414   22.5416 C   0  0  0  0  0  0
  -19.5741  -26.6385   21.5217 C   0  0  0  0  0  0
  -18.1917  -26.7925   22.1627 C   0  0  0  0  0  0
  -19.1523  -28.8846   23.2894 C   0  0  0  0  0  0
  -18.9452  -30.1450   23.8906 C   0  0  0  0  0  0
  -17.6455  -30.6589   24.0561 C   0  0  0  0  0  0
  -25.9053  -34.9464   23.5116 C   0  0  0  0  0  0
  -16.5343  -29.9091   23.6329 C   0  0  0  0  0  0
  -16.7261  -28.6504   23.0361 C   0  0  0  0  0  0
  -26.4488  -31.6585   25.0726 C   0  0  0  0  0  0
  -25.3732  -31.3702   26.1458 C   0  0  0  0  0  0
  -27.0330  -30.3015   24.6159 C   0  0  0  0  0  0
  -27.6053  -32.4312   25.7494 C   0  0  0  0  0  0
  -27.5593  -37.1794   24.8457 C   0  0  0  0  0  0
  -21.4164  -29.3045   22.3708 N   0  0  0  0  0  0
  -26.4292  -37.3794   23.9423 N   0  0  0  0  0  0
  -24.6820  -31.0660   22.0999 N   0  0  0  0  0  0
  -23.4185  -28.8181   23.3039 O   0  0  0  0  0  0
  -28.3790  -26.5551   20.1373 O   0  0  0  0  0  0
  -26.5622  -34.8926   22.4681 O   0  0  0  0  0  0
  -23.5403  -32.1417   23.7400 O   0  0  0  0  0  0
  -30.5648  -19.1341   19.6927 C   0  0  0  0  0  0
  -28.5619  -19.1483   21.0346 C   0  0  0  0  0  0
  -30.7520  -17.7481   19.9701 C   0  0  0  0  0  0
  -28.7492  -17.7671   21.3125 C   0  0  0  0  0  0
  -29.4492  -19.8605   20.1918 C   0  0  0  0  0  0
  -29.8255  -17.0228   20.7654 C   0  0  0  0  0  0
  -30.4304  -23.4866   19.9653 C   0  0  0  0  0  0
  -33.7509  -22.1674   20.9379 C   0  0  0  0  0  0
  -31.7611  -23.3393   20.1255 C   0  0  0  0  0  0
  -32.4161  -22.2463   20.8221 C   0  0  0  0  0  0
  -29.7961  -24.6712   19.1948 C   0  0  0  0  0  0
  -27.5336  -24.1262   20.2976 C   0  0  0  0  0  0
  -28.3221  -23.1654   21.2223 C   0  0  0  0  0  0
  -28.3772  -25.2031   19.5621 C   0  0  1  0  0  0
  -29.1106  -21.3027   19.6865 C   0  0  0  0  0  0
  -29.8587  -15.5909   21.0192 N   0  0  0  0  0  0
  -29.4635  -22.4875   20.5508 N   0  3  1  0  0  0
  -31.4793  -12.4860   19.1383 H   0  0  0  0  0  0
  -30.3639  -11.3594   19.8597 H   0  0  0  0  0  0
  -29.7589  -11.7822   17.4551 H   0  0  0  0  0  0
  -29.6534  -13.4966   17.7651 H   0  0  0  0  0  0
  -27.8539  -11.3014   18.8453 H   0  0  0  0  0  0
  -27.3726  -12.6066   17.7957 H   0  0  0  0  0  0
  -27.6898  -14.2532   19.5568 H   0  0  0  0  0  0
  -28.7023  -11.9926   21.3508 H   0  0  0  0  0  0
  -28.4508  -13.6291   21.8718 H   0  0  0  0  0  0
  -25.2760   -9.5681   22.4751 H   0  0  0  0  0  0
  -24.0000   -7.4634   22.7469 H   0  0  0  0  0  0
  -21.0846   -8.8767   19.8942 H   0  0  0  0  0  0
  -22.3696  -10.9671   19.6159 H   0  0  0  0  0  0
  -21.2005   -7.6148   23.9722 H   0  0  0  0  0  0
  -21.1484   -6.0521   25.9077 H   0  0  0  0  0  0
  -22.0596   -2.7611   23.2848 H   0  0  0  0  0  0
  -22.4110  -11.9868   22.4771 H   0  0  0  0  0  0
  -21.1123  -13.1259   22.2616 H   0  0  0  0  0  0
  -24.6664  -15.8453   20.5161 H   0  0  0  0  0  0
  -26.2866  -15.6261   20.0928 H   0  0  0  0  0  0
  -26.7160  -32.5467   23.1119 H   0  0  0  0  0  0
  -25.0067  -33.9746   25.0441 H   0  0  0  0  0  0
  -22.7068  -31.3079   21.4090 H   0  0  0  0  0  0
  -23.3768  -35.9614   23.3268 H   0  0  0  0  0  0
  -24.3589  -36.8953   22.2058 H   0  0  0  0  0  0
  -23.7221  -37.6484   23.6676 H   0  0  0  0  0  0
  -26.0807  -31.5665   20.6053 H   0  0  0  0  0  0
  -26.8355  -30.8496   21.9988 H   0  0  0  0  0  0
  -28.1086  -29.0143   21.1745 H   0  0  0  0  0  0
  -25.9505  -25.9499   19.0018 H   0  0  0  0  0  0
  -23.9609  -27.3112   19.0255 H   0  0  0  0  0  0
  -23.7362  -30.5984   19.4062 H   0  0  0  0  0  0
  -22.7449  -29.2481   19.8665 H   0  0  0  0  0  0
  -25.1285  -36.1955   25.0824 H   0  0  0  0  0  0
  -20.9954  -28.3253   24.1426 H   0  0  0  0  0  0
  -20.5671  -26.2294   23.3608 H   0  0  0  0  0  0
  -21.6636  -26.7448   22.1212 H   0  0  0  0  0  0
  -19.6908  -25.6299   21.1240 H   0  0  0  0  0  0
  -19.6677  -27.3203   20.6750 H   0  0  0  0  0  0
  -17.4189  -26.6682   21.4021 H   0  0  0  0  0  0
  -18.0309  -26.0056   22.9010 H   0  0  0  0  0  0
  -19.7927  -30.7261   24.2286 H   0  0  0  0  0  0
  -17.5009  -31.6269   24.5162 H   0  0  0  0  0  0
  -15.5346  -30.3001   23.7646 H   0  0  0  0  0  0
  -15.8657  -28.0822   22.7091 H   0  0  0  0  0  0
  -24.5920  -30.7034   25.7791 H   0  0  0  0  0  0
  -24.8905  -32.2856   26.4889 H   0  0  0  0  0  0
  -25.8073  -30.8884   27.0229 H   0  0  0  0  0  0
  -26.2898  -29.6765   24.1194 H   0  0  0  0  0  0
  -27.4053  -29.7268   25.4652 H   0  0  0  0  0  0
  -27.8755  -30.4314   23.9364 H   0  0  0  0  0  0
  -27.2672  -33.3614   26.2073 H   0  0  0  0  0  0
  -28.3861  -32.6864   25.0318 H   0  0  0  0  0  0
  -28.0721  -31.8431   26.5407 H   0  0  0  0  0  0
  -28.2573  -38.0131   24.7566 H   0  0  0  0  0  0
  -28.1127  -36.2662   24.6203 H   0  0  0  0  0  0
  -27.2311  -37.1350   25.8858 H   0  0  0  0  0  0
  -20.9339  -29.8777   21.6930 H   0  0  0  0  0  0
  -26.0172  -38.2864   24.1450 H   0  0  0  0  0  0
  -31.2674  -19.6255   19.0329 H   0  0  0  0  0  0
  -27.6871  -19.6433   21.4342 H   0  0  0  0  0  0
  -31.5990  -17.2456   19.5247 H   0  0  0  0  0  0
  -28.0170  -17.2690   21.9324 H   0  0  0  0  0  0
  -34.2164  -21.3407   21.4564 H   0  0  0  0  0  0
  -34.4056  -22.9202   20.5198 H   0  0  0  0  0  0
  -32.3951  -24.0974   19.6855 H   0  0  0  0  0  0
  -31.8329  -21.4528   21.2678 H   0  0  0  0  0  0
  -29.7761  -24.3514   18.1518 H   0  0  0  0  0  0
  -30.4931  -25.5098   19.2122 H   0  0  0  0  0  0
  -26.7371  -24.5980   20.8722 H   0  0  0  0  0  0
  -27.0238  -23.5237   19.5449 H   0  0  0  0  0  0
  -27.6533  -22.4212   21.6556 H   0  0  0  0  0  0
  -28.7192  -23.7369   22.0622 H   0  0  0  0  0  0
  -27.9219  -25.3375   18.5803 H   0  0  0  0  0  0
  -28.0444  -21.3305   19.4608 H   0  0  0  0  0  0
  -29.5928  -21.4311   18.7165 H   0  0  0  0  0  0
  -29.0301  -15.2365   21.4718 H   0  0  0  0  0  0
  -29.9509  -22.0477   21.3164 H   0  0  0  0  0  0
  1 25  1  0  0  0
  1 30  2  0  0  0
  1 86  1  0  0  0
  2  3  1  0  0  0
  2 25  1  0  0  0
  2 88  1  0  0  0
  2 89  1  0  0  0
  3  4  1  0  0  0
  3 90  1  0  0  0
  3 91  1  0  0  0
  4  5  1  0  0  0
  4 92  1  0  0  0
  4 93  1  0  0  0
  5  6  1  0  0  0
  5 26  1  0  0  0
  5 94  1  0  0  0
  6 25  1  0  0  0
  6 95  1  0  0  0
  6 96  1  0  0  0
  7  8  2  0  0  0
  7 26  1  0  0  0
  7 29  1  0  0  0
  8  9  1  0  0  0
  8 22  1  0  0  0
  9 10  1  0  0  0
  9 27  2  0  0  0
 10 11  2  0  0  0
 10 15  1  0  0  0
 11 12  1  0  0  0
 11 97  1  0  0  0
 12 13  2  0  0  0
 12 98  1  0  0  0
 13 14  1  0  0  0
 13 31  1  0  0  0
 14 15  2  0  0  0
 14 99  1  0  0  0
 15100  1  0  0  0
 16 17  2  0  0  0
 16 21  1  0  0  0
 16 31  1  0  0  0
 17 18  1  0  0  0
 17101  1  0  0  0
 18 19  2  0  0  0
 18102  1  0  0  0
 19 20  1  0  0  0
 19 24  1  0  0  0
 20 21  2  0  0  0
 20103  1  0  0  0
 21 23  1  0  0  0
 22 28  1  0  0  0
 22 32  2  0  0  0
 26 27  1  0  0  0
 28104  1  0  0  0
 28105  1  0  0  0
 29106  1  0  0  0
 29107  1  0  0  0
 33 34  1  0  0  0
 33 66  1  0  0  0
 33 70  2  0  0  0
 34 36  1  0  0  0
 34 59  1  0  0  0
 34108  1  0  0  0
 35 44  2  0  0  0
 35 45  1  0  0  0
 35 68  1  0  0  0
 36 56  1  0  0  0
 36109  1  0  0  0
 37 39  1  0  0  0
 37 47  1  0  0  0
 37 66  1  0  0  0
 37110  1  0  0  0
 38 43  2  0  0  0
 38 46  1  0  0  0
 38 47  1  0  0  0
 39 64  1  0  0  0
 39 67  2  0  0  0
 40 52  1  0  0  0
 40 53  2  0  0  0
 40 58  1  0  0  0
 41111  1  0  0  0
 41112  1  0  0  0
 41113  1  0  0  0
 41 48  1  0  0  0
 42 43  1  0  0  0
 42 66  1  0  0  0
 42114  1  0  0  0
 42115  1  0  0  0
 43 44  1  0  0  0
 44116  1  0  0  0
 45 46  2  0  0  0
 45117  1  0  0  0
 46118  1  0  0  0
 47119  1  0  0  0
 47120  1  0  0  0
 48 56  1  0  0  0
 48 65  1  0  0  0
 48121  1  0  0  0
 49 50  1  0  0  0
 49 53  1  0  0  0
 49 64  1  0  0  0
 49122  1  0  0  0
 50 51  1  0  0  0
 50123  1  0  0  0
 50124  1  0  0  0
 51 52  1  0  0  0
 51125  1  0  0  0
 51126  1  0  0  0
 52127  1  0  0  0
 52128  1  0  0  0
 53 54  1  0  0  0
 54 55  2  0  0  0
 54129  1  0  0  0
 55 57  1  0  0  0
 55130  1  0  0  0
 56 69  2  0  0  0
 57 58  2  0  0  0
 57131  1  0  0  0
 58132  1  0  0  0
 59 60  1  0  0  0
 59 61  1  0  0  0
 59 62  1  0  0  0
 60133  1  0  0  0
 60134  1  0  0  0
 60135  1  0  0  0
 61136  1  0  0  0
 61137  1  0  0  0
 61138  1  0  0  0
 62139  1  0  0  0
 62140  1  0  0  0
 62141  1  0  0  0
 63 65  1  0  0  0
 63142  1  0  0  0
 63143  1  0  0  0
 63144  1  0  0  0
 64145  1  0  0  0
 65146  1  0  0  0
 68 84  1  0  0  0
 71 73  2  0  0  0
 71 75  1  0  0  0
 71147  1  0  0  0
 72 74  1  0  0  0
 72 75  2  0  0  0
 72148  1  0  0  0
 73 76  1  0  0  0
 73149  1  0  0  0
 74 76  2  0  0  0
 74150  1  0  0  0
 75 85  1  0  0  0
 76 86  1  0  0  0
 77 79  2  0  0  0
 77 81  1  0  0  0
 77 87  1  0  0  0
 78 80  2  0  0  0
 78151  1  0  0  0
 78152  1  0  0  0
 79 80  1  0  0  0
 79153  1  0  0  0
 80154  1  0  0  0
 81 84  1  0  0  0
 81155  1  0  0  0
 81156  1  0  0  0
 82 83  1  0  0  0
 82 84  1  0  0  0
 82157  1  0  0  0
 82158  1  0  0  0
 83 87  1  0  0  0
 83159  1  0  0  0
 83160  1  0  0  0
 84161  1  0  0  0
 85162  1  0  0  0
 85163  1  0  0  0
 85 87  1  0  0  0
 86164  1  0  0  0
 87165  1  0  0  0
M  CHG  1  87   1
M  ISO  4   1 100  68 101  84 101  86 100
M  END
> <chiral flag>
0

> <version>
0

> <s_m_source_file>
/data/baiqing/PycharmProjects/Reinvent-master-3.2/result/LINK_invent/BTK/process_docking_weight1_custom_product_contain_oxygen_bond_distance_aromatic_linkinvent_7_9_3/rearranged_h_0051.sdf

> <i_m_source_file_index>
48

> <r_mmod_Potential_Energy-OPLS-2005>
-75.0774383544922

> <r_mmod_Stretch_Energy-OPLS-2005>
63.3428993225098

> <r_mmod_Bend_Energy-OPLS-2005>
157.021011352539

> <r_mmod_Torsional_Energy-OPLS-2005>
238.721038818359

> <r_mmod_Improper_Torsional_Energy-OPLS-2005>
4.38677072525024

> <r_mmod_Van_der_Waal_Energy-OPLS-2005>
146.687347412109

> <r_mmod_Electrostatic_Energy-OPLS-2005>
-277.735961914062

> <r_mmod_Solvation_Energy-OPLS-2005>
-439.497222900391

> <b_mmod_Minimization_Converged-OPLS-2005>
0

> <r_mmod_RMS_Derivative-OPLS-2005>
1.02675688266754

$$$$
48
                    3D
 Structure written by MMmdl.
160168  0  0  1  0            999 V2000
  -29.8096  -14.8891   19.7826 C   0  0  0  0  0  0
  -30.8772  -12.7206   19.2259 C   0  0  0  0  0  0
  -29.8519  -12.1763   18.2091 C   0  0  0  0  0  0
  -28.7715  -11.5332   19.1136 C   0  0  0  0  0  0
  -28.4022  -12.4810   20.3539 C   0  0  2  0  0  0
  -29.5267  -12.8821   21.1868 C   0  0  0  0  0  0
  -25.3148  -13.7808   20.5267 C   0  0  0  0  0  0
  -23.9225  -13.3345   20.9315 C   0  0  0  0  0  0
  -24.0041  -12.1720   20.3672 C   0  0  0  0  0  0
  -23.6581  -10.6974   20.8389 C   0  0  0  0  0  0
  -24.2061   -9.7408   21.7912 C   0  0  0  0  0  0
  -23.6182   -8.4541   22.0178 C   0  0  0  0  0  0
  -22.4323   -8.0962   21.3323 C   0  0  0  0  0  0
  -21.9073   -9.0078   20.4100 C   0  0  0  0  0  0
  -22.5041  -10.2560   20.1761 C   0  0  0  0  0  0
  -21.7401   -6.0981   22.5363 C   0  0  0  0  0  0
  -21.4476   -6.5872   23.8281 C   0  0  0  0  0  0
  -21.3788   -5.6960   24.9191 C   0  0  0  0  0  0
  -21.5982   -4.3184   24.7261 C   0  0  0  0  0  0
  -21.8761   -3.8286   23.4375 C   0  0  0  0  0  0
  -21.9365   -4.7140   22.3472 C   0  0  0  0  0  0
  -22.5677  -13.8699   21.2311 C   0  0  0  0  0  0
  -22.1714   -4.2244   21.1046 F   0  0  0  0  0  0
  -21.5438   -3.4641   25.7765 F   0  0  0  0  0  0
  -30.2111  -13.6358   20.1969 N   0  0  0  0  0  0
  -26.8178  -13.5148   20.8651 N   0  0  0  0  0  0
  -24.9739  -13.2835   20.3973 N   0  0  0  0  0  0
  -21.8536  -13.0886   22.0413 N   0  0  0  0  0  0
  -27.0133  -13.9238   21.1707 N   0  0  0  0  0  0
  -30.8777  -15.5342   19.7458 O   0  0  0  0  0  0
  -21.7510   -6.8981   21.4208 O   0  0  0  0  0  0
  -22.1579  -14.8866   20.7001 O   0  0  0  0  0  0
  -24.6595  -31.8242   23.1822 C   0  0  0  0  0  0
  -25.9319  -32.4550   23.8172 C   0  0  1  0  0  0
  -26.9681  -26.7944   20.2583 C   0  0  0  0  0  0
  -25.5991  -33.8371   24.1997 N   0  0  0  0  0  0
  -23.4641  -30.4575   21.5331 C   0  0  2  0  0  0
  -24.8792  -28.8473   20.1047 C   0  0  0  0  0  0
  -22.7616  -29.4503   22.4792 C   0  0  0  0  0  0
  -18.0356  -28.1411   22.8500 C   0  0  0  0  0  0
  -24.1523  -36.7189   23.2632 C   0  0  0  0  0  0
  -26.0377  -30.5907   21.4303 C   0  0  0  0  0  0
  -26.0662  -29.1797   20.7655 C   0  0  0  0  0  0
  -27.1323  -28.1653   20.8226 C   0  0  0  0  0  0
  -25.8210  -26.6713   19.4748 C   0  0  0  0  0  0
  -24.7908  -27.6255   19.4270 C   0  0  0  0  0  0
  -23.6946  -29.8069   20.1449 C   0  0  0  0  0  0
  -25.4170  -36.2885   24.0231 C   0  0  1  0  0  0
  -20.5986  -28.3763   23.1183 C   0  0  2  0  0  0
  -20.6829  -26.9434   22.5418 C   0  0  0  0  0  0
  -19.5764  -26.6374   21.5262 C   0  0  0  0  0  0
  -18.1963  -26.7960   22.1664 C   0  0  0  0  0  0
  -19.1617  -28.8910   23.2832 C   0  0  0  0  0  0
  -18.9508  -30.1520   23.8828 C   0  0  0  0  0  0
  -17.6483  -30.6590   24.0571 C   0  0  0  0  0  0
  -25.9133  -34.9301   23.4920 C   0  0  0  0  0  0
  -16.5382  -29.9073   23.6349 C   0  0  0  0  0  0
  -16.7337  -28.6509   23.0354 C   0  0  0  0  0  0
  -26.4564  -31.6568   25.0751 C   0  0  0  0  0  0
  -25.3643  -31.3968   26.1392 C   0  0  0  0  0  0
  -27.0482  -30.2882   24.6672 C   0  0  0  0  0  0
  -27.6025  -32.4490   25.7505 C   0  0  0  0  0  0
  -27.5567  -37.1748   24.8410 C   0  0  0  0  0  0
  -21.4308  -29.3049   22.3525 N   0  0  0  0  0  0
  -26.4270  -37.3646   23.9372 N   0  0  0  0  0  0
  -24.7442  -30.9868   22.0991 N   0  0  0  0  0  0
  -23.4193  -28.8034   23.2990 O   0  0  0  0  0  0
  -27.7347  -25.5219   20.3536 O   0  0  0  0  0  0
  -26.5747  -34.8825   22.4522 O   0  0  0  0  0  0
  -23.5685  -32.1280   23.6922 O   0  0  0  0  0  0
  -26.2680  -11.4285   20.5681 C   0  0  0  0  0  0
  -25.7128  -12.4507   22.4992 C   0  0  0  0  0  0
  -26.5364  -12.8107   18.7681 C   0  0  0  0  0  0
  -25.4960  -14.6629   22.6167 C   0  0  0  0  0  0
  -26.0442  -15.9372   20.8769 C   0  0  0  0  0  0
  -26.7836  -14.9476   19.1004 C   0  0  0  0  0  0
  -26.7745  -20.6139   20.9042 C   0  0  0  0  0  0
  -25.1396  -15.3004   23.9439 C   0  0  0  0  0  0
  -26.0291  -19.1542   18.9836 C   0  0  0  0  0  0
  -26.3844  -17.6886   21.1605 C   0  0  0  0  0  0
  -26.9459  -22.2414   20.1572 C   0  0  0  0  0  0
  -27.1708  -23.9745   20.7891 C   0  0  0  0  0  0
  -28.4361  -15.3070   19.2020 N   0  0  0  0  0  0
  -26.4263  -19.2230   20.3987 N   0  0  0  0  0  0
  -27.0309  -20.6471   22.1105 O   0  0  0  0  0  0
  -31.6571  -13.2642   18.6922 H   0  0  0  0  0  0
  -31.3987  -11.9103   19.7373 H   0  0  0  0  0  0
  -30.3152  -11.4341   17.5584 H   0  0  0  0  0  0
  -29.4538  -12.9653   17.5616 H   0  0  0  0  0  0
  -29.2607  -10.6748   19.5776 H   0  0  0  0  0  0
  -28.0134  -11.0028   18.5424 H   0  0  0  0  0  0
  -28.4496  -13.0459   19.4983 H   0  0  0  0  0  0
  -30.0986  -12.0229   21.5343 H   0  0  0  0  0  0
  -29.2919  -13.4891   22.0583 H   0  0  0  0  0  0
  -25.0906   -9.9724   22.3586 H   0  0  0  0  0  0
  -24.0797   -7.7692   22.7149 H   0  0  0  0  0  0
  -21.0144   -8.7419   19.8608 H   0  0  0  0  0  0
  -22.0203  -10.9135   19.4648 H   0  0  0  0  0  0
  -21.2738   -7.6403   23.9852 H   0  0  0  0  0  0
  -21.1545   -6.0669   25.9059 H   0  0  0  0  0  0
  -22.0358   -2.7709   23.2866 H   0  0  0  0  0  0
  -22.2737  -12.2529   22.4214 H   0  0  0  0  0  0
  -20.8987  -13.3277   22.2761 H   0  0  0  0  0  0
  -26.8570  -13.4677   22.0656 H   0  0  0  0  0  0
  -26.9822  -14.9157   21.3612 H   0  0  0  0  0  0
  -26.7370  -32.5004   23.0852 H   0  0  0  0  0  0
  -25.0040  -33.9487   25.0072 H   0  0  0  0  0  0
  -22.7798  -31.2987   21.3847 H   0  0  0  0  0  0
  -23.3762  -35.9530   23.3184 H   0  0  0  0  0  0
  -24.3593  -36.8993   22.2069 H   0  0  0  0  0  0
  -23.7333  -37.6347   23.6813 H   0  0  0  0  0  0
  -26.2597  -31.3396   20.6673 H   0  0  0  0  0  0
  -26.8797  -30.6072   22.1113 H   0  0  0  0  0  0
  -28.0212  -28.3823   21.4033 H   0  0  0  0  0  0
  -25.6595  -25.7347   18.9585 H   0  0  0  0  0  0
  -23.8920  -27.3839   18.8805 H   0  0  0  0  0  0
  -23.8788  -30.5929   19.4105 H   0  0  0  0  0  0
  -22.7889  -29.3027   19.8014 H   0  0  0  0  0  0
  -25.1407  -36.1609   25.0715 H   0  0  0  0  0  0
  -21.0098  -28.3392   24.1294 H   0  0  0  0  0  0
  -20.5772  -26.2388   23.3680 H   0  0  0  0  0  0
  -21.6695  -26.7432   22.1188 H   0  0  0  0  0  0
  -19.6897  -25.6269   21.1326 H   0  0  0  0  0  0
  -19.6689  -27.3165   20.6774 H   0  0  0  0  0  0
  -17.4254  -26.6786   21.4039 H   0  0  0  0  0  0
  -18.0268  -26.0116   22.9044 H   0  0  0  0  0  0
  -19.7971  -30.7403   24.2126 H   0  0  0  0  0  0
  -17.5010  -31.6252   24.5196 H   0  0  0  0  0  0
  -15.5365  -30.2901   23.7714 H   0  0  0  0  0  0
  -15.8779  -28.0783   22.7043 H   0  0  0  0  0  0
  -24.5766  -30.7392   25.7705 H   0  0  0  0  0  0
  -24.8918  -32.3257   26.4585 H   0  0  0  0  0  0
  -25.7753  -30.9250   27.0322 H   0  0  0  0  0  0
  -26.3157  -29.6494   24.1727 H   0  0  0  0  0  0
  -27.3955  -29.7357   25.5416 H   0  0  0  0  0  0
  -27.9138  -30.3979   24.0148 H   0  0  0  0  0  0
  -27.2549  -33.3918   26.1755 H   0  0  0  0  0  0
  -28.3926  -32.6887   25.0372 H   0  0  0  0  0  0
  -28.0570  -31.8878   26.5682 H   0  0  0  0  0  0
  -28.2457  -38.0156   24.7499 H   0  0  0  0  0  0
  -28.1186  -36.2664   24.6166 H   0  0  0  0  0  0
  -27.2265  -37.1299   25.8802 H   0  0  0  0  0  0
  -20.9553  -29.8749   21.6662 H   0  0  0  0  0  0
  -26.0051  -38.2653   24.1451 H   0  0  0  0  0  0
  -26.3498  -10.3544   20.4620 H   0  0  0  0  0  0
  -25.5239  -11.8685   23.3900 H   0  0  0  0  0  0
  -26.7442  -12.4300   17.7790 H   0  0  0  0  0  0
  -24.9280  -14.5259   24.6795 H   0  0  0  0  0  0
  -24.2533  -15.9262   23.8332 H   0  0  0  0  0  0
  -25.9593  -15.9116   24.3203 H   0  0  0  0  0  0
  -26.7224  -19.6890   18.3308 H   0  0  0  0  0  0
  -25.0406  -19.5938   18.8302 H   0  0  0  0  0  0
  -25.9732  -18.1285   18.6056 H   0  0  0  0  0  0
  -27.4305  -17.6257   21.4644 H   0  0  0  0  0  0
  -25.8551  -17.8888   22.0954 H   0  0  0  0  0  0
  -26.0922  -22.3054   19.4814 H   0  0  0  0  0  0
  -27.7928  -22.0876   19.4894 H   0  0  0  0  0  0
  -27.8441  -23.7800   21.6240 H   0  0  0  0  0  0
  -26.2347  -24.1934   21.3015 H   0  0  0  0  0  0
  -28.5731  -16.2431   18.8534 H   0  0  0  0  0  0
  1 25  1  0  0  0
  1 30  2  0  0  0
  1 83  1  0  0  0
  2  3  1  0  0  0
  2 25  1  0  0  0
  2 86  1  0  0  0
  2 87  1  0  0  0
  3  4  1  0  0  0
  3 88  1  0  0  0
  3 89  1  0  0  0
  4  5  1  0  0  0
  4 90  1  0  0  0
  4 91  1  0  0  0
  5  6  1  0  0  0
  5 26  1  0  0  0
  5 92  1  0  0  0
  6 25  1  0  0  0
  6 93  1  0  0  0
  6 94  1  0  0  0
  7  8  2  0  0  0
  7 26  1  0  0  0
  7 29  1  0  0  0
  8  9  1  0  0  0
  8 22  1  0  0  0
  9 10  1  0  0  0
  9 27  2  0  0  0
 10 11  2  0  0  0
 10 15  1  0  0  0
 11 12  1  0  0  0
 11 95  1  0  0  0
 12 13  2  0  0  0
 12 96  1  0  0  0
 13 14  1  0  0  0
 13 31  1  0  0  0
 14 15  2  0  0  0
 14 97  1  0  0  0
 15 98  1  0  0  0
 16 17  2  0  0  0
 16 21  1  0  0  0
 16 31  1  0  0  0
 17 18  1  0  0  0
 17 99  1  0  0  0
 18 19  2  0  0  0
 18100  1  0  0  0
 19 20  1  0  0  0
 19 24  1  0  0  0
 20 21  2  0  0  0
 20101  1  0  0  0
 21 23  1  0  0  0
 22 28  1  0  0  0
 22 32  2  0  0  0
 26 27  1  0  0  0
 28102  1  0  0  0
 28103  1  0  0  0
 29104  1  0  0  0
 29105  1  0  0  0
 33 34  1  0  0  0
 33 66  1  0  0  0
 33 70  2  0  0  0
 34 36  1  0  0  0
 34 59  1  0  0  0
 34106  1  0  0  0
 35 44  2  0  0  0
 35 45  1  0  0  0
 35 68  1  0  0  0
 36 56  1  0  0  0
 36107  1  0  0  0
 37 39  1  0  0  0
 37 47  1  0  0  0
 37 66  1  0  0  0
 37108  1  0  0  0
 38 43  2  0  0  0
 38 46  1  0  0  0
 38 47  1  0  0  0
 39 64  1  0  0  0
 39 67  2  0  0  0
 40 52  1  0  0  0
 40 53  2  0  0  0
 40 58  1  0  0  0
 41109  1  0  0  0
 41110  1  0  0  0
 41111  1  0  0  0
 41 48  1  0  0  0
 42 43  1  0  0  0
 42 66  1  0  0  0
 42112  1  0  0  0
 42113  1  0  0  0
 43 44  1  0  0  0
 44114  1  0  0  0
 45 46  2  0  0  0
 45115  1  0  0  0
 46116  1  0  0  0
 47117  1  0  0  0
 47118  1  0  0  0
 48 56  1  0  0  0
 48 65  1  0  0  0
 48119  1  0  0  0
 49 50  1  0  0  0
 49 53  1  0  0  0
 49 64  1  0  0  0
 49120  1  0  0  0
 50 51  1  0  0  0
 50121  1  0  0  0
 50122  1  0  0  0
 51 52  1  0  0  0
 51123  1  0  0  0
 51124  1  0  0  0
 52125  1  0  0  0
 52126  1  0  0  0
 53 54  1  0  0  0
 54 55  2  0  0  0
 54127  1  0  0  0
 55 57  1  0  0  0
 55128  1  0  0  0
 56 69  2  0  0  0
 57 58  2  0  0  0
 57129  1  0  0  0
 58130  1  0  0  0
 59 60  1  0  0  0
 59 61  1  0  0  0
 59 62  1  0  0  0
 60131  1  0  0  0
 60132  1  0  0  0
 60133  1  0  0  0
 61134  1  0  0  0
 61135  1  0  0  0
 61136  1  0  0  0
 62137  1  0  0  0
 62138  1  0  0  0
 62139  1  0  0  0
 63 65  1  0  0  0
 63140  1  0  0  0
 63141  1  0  0  0
 63142  1  0  0  0
 64143  1  0  0  0
 65144  1  0  0  0
 68 82  1  0  0  0
 71 72  2  0  0  0
 71 73  1  0  0  0
 71145  1  0  0  0
 72 74  1  0  0  0
 72146  1  0  0  0
 73 76  2  0  0  0
 73147  1  0  0  0
 74 75  2  0  0  0
 74 78  1  0  0  0
 75 76  1  0  0  0
 75 80  1  0  0  0
 76 83  1  0  0  0
 77 81  1  0  0  0
 77 84  1  0  0  0
 77 85  2  0  0  0
 78148  1  0  0  0
 78149  1  0  0  0
 78150  1  0  0  0
 79 84  1  0  0  0
 79151  1  0  0  0
 79152  1  0  0  0
 79153  1  0  0  0
 80 84  1  0  0  0
 80154  1  0  0  0
 80155  1  0  0  0
 81 82  1  0  0  0
 81156  1  0  0  0
 81157  1  0  0  0
 82158  1  0  0  0
 82159  1  0  0  0
 83160  1  0  0  0
M  ISO  4   1 100  68 101  82 101  83 100
M  END
> <chiral flag>
0

> <version>
0

> <s_m_source_file>
/data/baiqing/PycharmProjects/Reinvent-master-3.2/result/LINK_invent/BTK/process_docking_weight1_custom_product_contain_oxygen_bond_distance_aromatic_linkinvent_7_9_3/rearranged_h_0051.sdf

> <i_m_source_file_index>
49

> <r_mmod_Potential_Energy-OPLS-2005>
20794.3984375

> <r_mmod_Stretch_Energy-OPLS-2005>
10375.7509765625

> <r_mmod_Bend_Energy-OPLS-2005>
3236.26489257812

> <r_mmod_Torsional_Energy-OPLS-2005>
716.934631347656

> <r_mmod_Improper_Torsional_Energy-OPLS-2005>
124.101387023926

> <r_mmod_Van_der_Waal_Energy-OPLS-2005>
4656.90771484375

> <r_mmod_Electrostatic_Energy-OPLS-2005>
-388.165710449219

> <r_mmod_Solvation_Energy-OPLS-2005>
-226.300323486328

> <b_mmod_Minimization_Converged-OPLS-2005>
0

> <r_mmod_RMS_Derivative-OPLS-2005>
9.74636840820312

$$$$
49
                    3D
 Structure written by MMmdl.
157165  0  0  1  0            999 V2000
  -30.6181  -14.5085   20.5451 C   0  0  0  0  0  0
  -30.4298  -12.3109   19.4246 C   0  0  0  0  0  0
  -29.4995  -12.5069   18.2059 C   0  0  0  0  0  0
  -28.0122  -12.3895   18.6045 C   0  0  0  0  0  0
  -27.6596  -13.2059   19.8788 C   0  0  2  0  0  0
  -28.7013  -12.9566   20.9944 C   0  0  0  0  0  0
  -25.2529  -13.8185   20.5599 C   0  0  0  0  0  0
  -24.1802  -13.0479   20.9158 C   0  0  0  0  0  0
  -24.6353  -11.6949   20.8749 C   0  0  0  0  0  0
  -23.9028  -10.4334   21.0411 C   0  0  0  0  0  0
  -24.3593   -9.4249   21.9193 C   0  0  0  0  0  0
  -23.6283   -8.2263   22.0767 C   0  0  0  0  0  0
  -22.4269   -8.0287   21.3544 C   0  0  0  0  0  0
  -21.9884   -9.0258   20.4651 C   0  0  0  0  0  0
  -22.7199  -10.2152   20.3057 C   0  0  0  0  0  0
  -21.6860   -6.0744   22.5266 C   0  0  0  0  0  0
  -21.4033   -6.5654   23.8195 C   0  0  0  0  0  0
  -21.3642   -5.6803   24.9144 C   0  0  0  0  0  0
  -21.6010   -4.3063   24.7210 C   0  0  0  0  0  0
  -21.8821   -3.8154   23.4338 C   0  0  0  0  0  0
  -21.9199   -4.6968   22.3390 C   0  0  0  0  0  0
  -22.7816  -13.5258   21.1826 C   0  0  0  0  0  0
  -22.1672   -4.2156   21.0972 F   0  0  0  0  0  0
  -21.5589   -3.4541   25.7725 F   0  0  0  0  0  0
  -30.0189  -13.2922   20.4433 N   0  0  0  0  0  0
  -26.2990  -12.9356   20.3350 N   0  0  0  0  0  0
  -25.9295  -11.6530   20.5803 N   0  0  0  0  0  0
  -22.0453  -12.8289   22.0421 N   0  0  0  0  0  0
  -25.4203  -15.1919   20.3939 N   0  0  0  0  0  0
  -31.7612  -14.7214   20.1269 O   0  0  0  0  0  0
  -21.6639   -6.8891   21.4235 O   0  0  0  0  0  0
  -22.3479  -14.5536   20.6624 O   0  0  0  0  0  0
  -24.6201  -31.8628   23.2019 C   0  0  0  0  0  0
  -25.9063  -32.4764   23.8347 C   0  0  1  0  0  0
  -27.2204  -27.3573   20.1156 C   0  0  0  0  0  0
  -25.5900  -33.8570   24.2301 N   0  0  0  0  0  0
  -23.4113  -30.4867   21.5429 C   0  0  2  0  0  0
  -24.8563  -28.9401   20.1083 C   0  0  0  0  0  0
  -22.7414  -29.4699   22.4979 C   0  0  0  0  0  0
  -18.0304  -28.1400   22.8456 C   0  0  0  0  0  0
  -24.1480  -36.7306   23.2644 C   0  0  0  0  0  0
  -25.9455  -30.8055   21.3650 C   0  0  0  0  0  0
  -26.0178  -29.4335   20.7148 C   0  0  0  0  0  0
  -27.2008  -28.6494   20.7103 C   0  0  0  0  0  0
  -26.0414  -26.9007   19.4843 C   0  0  0  0  0  0
  -24.8666  -27.6790   19.4857 C   0  0  0  0  0  0
  -23.6217  -29.8135   20.1589 C   0  0  0  0  0  0
  -25.4106  -36.3084   24.0339 C   0  0  1  0  0  0
  -20.5890  -28.3721   23.1296 C   0  0  2  0  0  0
  -20.6829  -26.9421   22.5482 C   0  0  0  0  0  0
  -19.5812  -26.6263   21.5309 C   0  0  0  0  0  0
  -18.1906  -26.7979   22.1500 C   0  0  0  0  0  0
  -19.1565  -28.8858   23.2848 C   0  0  0  0  0  0
  -18.9510  -30.1479   23.8849 C   0  0  0  0  0  0
  -17.6527  -30.6619   24.0515 C   0  0  0  0  0  0
  -25.9043  -34.9438   23.5122 C   0  0  0  0  0  0
  -16.5420  -29.9147   23.6287 C   0  0  0  0  0  0
  -16.7304  -28.6547   23.0351 C   0  0  0  0  0  0
  -26.4476  -31.6571   25.0711 C   0  0  0  0  0  0
  -25.3725  -31.3669   26.1449 C   0  0  0  0  0  0
  -27.0320  -30.3019   24.6091 C   0  0  0  0  0  0
  -27.6044  -32.4303   25.7477 C   0  0  0  0  0  0
  -27.5586  -37.1798   24.8475 C   0  0  0  0  0  0
  -21.4142  -29.3086   22.3650 N   0  0  0  0  0  0
  -26.4302  -37.3772   23.9404 N   0  0  0  0  0  0
  -24.6771  -31.0675   22.0949 N   0  0  0  0  0  0
  -23.4134  -28.8263   23.3061 O   0  0  0  0  0  0
  -28.3692  -26.5757   20.2064 O   0  0  0  0  0  0
  -26.5612  -34.8914   22.4691 O   0  0  0  0  0  0
  -23.5373  -32.1415   23.7370 O   0  0  0  0  0  0
  -28.9694  -19.2486   20.5946 C   0  0  0  0  0  0
  -27.4744  -18.9373   22.9273 C   0  0  0  0  0  0
  -29.0736  -18.0181   21.3154 C   0  0  0  0  0  0
  -28.1168  -20.3166   20.9999 C   0  0  0  0  0  0
  -28.2887  -17.8663   22.4933 C   0  0  0  0  0  0
  -27.3791  -20.1414   22.1964 C   0  0  0  0  0  0
  -27.8940  -24.0367   20.3537 C   0  0  0  0  0  0
  -28.2763  -16.5824   23.3135 C   0  0  0  0  0  0
  -30.0976  -16.9624   20.8198 C   0  0  0  0  0  0
  -27.8430  -21.5214   20.0547 C   0  0  0  0  0  0
  -28.4942  -25.2596   19.5798 C   0  0  0  0  0  0
  -28.5209  -22.8375   20.2233 N   0  0  0  0  0  0
  -29.8040  -15.5188   20.9442 N   0  0  0  0  0  0
  -26.8272  -24.1450   20.9602 O   0  0  0  0  0  0
  -26.2885  -21.3540   22.7597 Cl  0  0  0  0  0  0
  -31.4768  -12.4196   19.1262 H   0  0  0  0  0  0
  -30.3409  -11.2939   19.8114 H   0  0  0  0  0  0
  -29.7377  -11.7846   17.4233 H   0  0  0  0  0  0
  -29.6838  -13.4901   17.7766 H   0  0  0  0  0  0
  -27.7906  -11.3346   18.7620 H   0  0  0  0  0  0
  -27.3809  -12.7072   17.7755 H   0  0  0  0  0  0
  -27.7063  -14.2593   19.6010 H   0  0  0  0  0  0
  -28.6853  -11.9096   21.2969 H   0  0  0  0  0  0
  -28.4751  -13.5260   21.8972 H   0  0  0  0  0  0
  -25.2752   -9.5722   22.4754 H   0  0  0  0  0  0
  -23.9983   -7.4672   22.7528 H   0  0  0  0  0  0
  -21.0771   -8.8726   19.9024 H   0  0  0  0  0  0
  -22.3610  -10.9640   19.6129 H   0  0  0  0  0  0
  -21.2069   -7.6176   23.9661 H   0  0  0  0  0  0
  -21.1447   -6.0572   25.9032 H   0  0  0  0  0  0
  -22.0632   -2.7621   23.2822 H   0  0  0  0  0  0
  -22.4023  -11.9953   22.4857 H   0  0  0  0  0  0
  -21.1054  -13.1292   22.2551 H   0  0  0  0  0  0
  -24.6382  -15.8360   20.4330 H   0  0  0  0  0  0
  -26.2623  -15.6214   20.0325 H   0  0  0  0  0  0
  -26.7163  -32.5440   23.1121 H   0  0  0  0  0  0
  -24.9978  -33.9718   25.0398 H   0  0  0  0  0  0
  -22.7040  -31.3070   21.3965 H   0  0  0  0  0  0
  -23.3730  -35.9651   23.3308 H   0  0  0  0  0  0
  -24.3576  -36.8925   22.2060 H   0  0  0  0  0  0
  -23.7253  -37.6520   23.6666 H   0  0  0  0  0  0
  -26.0677  -31.5624   20.5895 H   0  0  0  0  0  0
  -26.8325  -30.8563   21.9851 H   0  0  0  0  0  0
  -28.0965  -29.0186   21.1882 H   0  0  0  0  0  0
  -25.9991  -25.9294   19.0165 H   0  0  0  0  0  0
  -23.9727  -27.2947   19.0116 H   0  0  0  0  0  0
  -23.7329  -30.5890   19.3984 H   0  0  0  0  0  0
  -22.7455  -29.2296   19.8650 H   0  0  0  0  0  0
  -25.1281  -36.1937   25.0837 H   0  0  0  0  0  0
  -20.9988  -28.3337   24.1424 H   0  0  0  0  0  0
  -20.5728  -26.2402   23.3764 H   0  0  0  0  0  0
  -21.6736  -26.7471   22.1330 H   0  0  0  0  0  0
  -19.6968  -25.6086   21.1613 H   0  0  0  0  0  0
  -19.6866  -27.2837   20.6667 H   0  0  0  0  0  0
  -17.4360  -26.7040   21.3654 H   0  0  0  0  0  0
  -17.9948  -25.9994   22.8661 H   0  0  0  0  0  0
  -19.8039  -30.7298   24.2145 H   0  0  0  0  0  0
  -17.5113  -31.6304   24.5116 H   0  0  0  0  0  0
  -15.5418  -30.3072   23.7577 H   0  0  0  0  0  0
  -15.8650  -28.0929   22.7026 H   0  0  0  0  0  0
  -24.5897  -30.7031   25.7767 H   0  0  0  0  0  0
  -24.8911  -32.2819   26.4906 H   0  0  0  0  0  0
  -25.8047  -30.8823   27.0205 H   0  0  0  0  0  0
  -26.2880  -29.6767   24.1143 H   0  0  0  0  0  0
  -27.4126  -29.7249   25.4518 H   0  0  0  0  0  0
  -27.8685  -30.4371   23.9230 H   0  0  0  0  0  0
  -27.2666  -33.3592   26.2078 H   0  0  0  0  0  0
  -28.3821  -32.6880   25.0280 H   0  0  0  0  0  0
  -28.0748  -31.8416   26.5359 H   0  0  0  0  0  0
  -28.2597  -38.0097   24.7505 H   0  0  0  0  0  0
  -28.1077  -36.2617   24.6298 H   0  0  0  0  0  0
  -27.2304  -37.1468   25.8884 H   0  0  0  0  0  0
  -20.9297  -29.8740   21.6797 H   0  0  0  0  0  0
  -26.0172  -38.2856   24.1374 H   0  0  0  0  0  0
  -29.5284  -19.3622   19.6772 H   0  0  0  0  0  0
  -26.8853  -18.8339   23.8275 H   0  0  0  0  0  0
  -27.8411  -15.7678   22.7344 H   0  0  0  0  0  0
  -29.2799  -16.2962   23.6283 H   0  0  0  0  0  0
  -27.6693  -16.6800   24.2158 H   0  0  0  0  0  0
  -31.0323  -17.1504   21.3472 H   0  0  0  0  0  0
  -30.3042  -17.1749   19.7682 H   0  0  0  0  0  0
  -26.7649  -21.6625   19.9967 H   0  0  0  0  0  0
  -28.1222  -21.1873   19.0530 H   0  0  0  0  0  0
  -28.0934  -25.2700   18.5660 H   0  0  0  0  0  0
  -29.5633  -25.0693   19.4691 H   0  0  0  0  0  0
  -29.4289  -22.8927   19.7815 H   0  0  0  0  0  0
  -28.8731  -15.2624   21.2390 H   0  0  0  0  0  0
  1 25  1  0  0  0
  1 30  2  0  0  0
  1 83  1  0  0  0
  2  3  1  0  0  0
  2 25  1  0  0  0
  2 86  1  0  0  0
  2 87  1  0  0  0
  3  4  1  0  0  0
  3 88  1  0  0  0
  3 89  1  0  0  0
  4  5  1  0  0  0
  4 90  1  0  0  0
  4 91  1  0  0  0
  5  6  1  0  0  0
  5 26  1  0  0  0
  5 92  1  0  0  0
  6 25  1  0  0  0
  6 93  1  0  0  0
  6 94  1  0  0  0
  7  8  2  0  0  0
  7 26  1  0  0  0
  7 29  1  0  0  0
  8  9  1  0  0  0
  8 22  1  0  0  0
  9 10  1  0  0  0
  9 27  2  0  0  0
 10 11  2  0  0  0
 10 15  1  0  0  0
 11 12  1  0  0  0
 11 95  1  0  0  0
 12 13  2  0  0  0
 12 96  1  0  0  0
 13 14  1  0  0  0
 13 31  1  0  0  0
 14 15  2  0  0  0
 14 97  1  0  0  0
 15 98  1  0  0  0
 16 17  2  0  0  0
 16 21  1  0  0  0
 16 31  1  0  0  0
 17 18  1  0  0  0
 17 99  1  0  0  0
 18 19  2  0  0  0
 18100  1  0  0  0
 19 20  1  0  0  0
 19 24  1  0  0  0
 20 21  2  0  0  0
 20101  1  0  0  0
 21 23  1  0  0  0
 22 28  1  0  0  0
 22 32  2  0  0  0
 26 27  1  0  0  0
 28102  1  0  0  0
 28103  1  0  0  0
 29104  1  0  0  0
 29105  1  0  0  0
 33 34  1  0  0  0
 33 66  1  0  0  0
 33 70  2  0  0  0
 34 36  1  0  0  0
 34 59  1  0  0  0
 34106  1  0  0  0
 35 44  2  0  0  0
 35 45  1  0  0  0
 35 68  1  0  0  0
 36 56  1  0  0  0
 36107  1  0  0  0
 37 39  1  0  0  0
 37 47  1  0  0  0
 37 66  1  0  0  0
 37108  1  0  0  0
 38 43  2  0  0  0
 38 46  1  0  0  0
 38 47  1  0  0  0
 39 64  1  0  0  0
 39 67  2  0  0  0
 40 52  1  0  0  0
 40 53  2  0  0  0
 40 58  1  0  0  0
 41109  1  0  0  0
 41110  1  0  0  0
 41111  1  0  0  0
 41 48  1  0  0  0
 42 43  1  0  0  0
 42 66  1  0  0  0
 42112  1  0  0  0
 42113  1  0  0  0
 43 44  1  0  0  0
 44114  1  0  0  0
 45 46  2  0  0  0
 45115  1  0  0  0
 46116  1  0  0  0
 47117  1  0  0  0
 47118  1  0  0  0
 48 56  1  0  0  0
 48 65  1  0  0  0
 48119  1  0  0  0
 49 50  1  0  0  0
 49 53  1  0  0  0
 49 64  1  0  0  0
 49120  1  0  0  0
 50 51  1  0  0  0
 50121  1  0  0  0
 50122  1  0  0  0
 51 52  1  0  0  0
 51123  1  0  0  0
 51124  1  0  0  0
 52125  1  0  0  0
 52126  1  0  0  0
 53 54  1  0  0  0
 54 55  2  0  0  0
 54127  1  0  0  0
 55 57  1  0  0  0
 55128  1  0  0  0
 56 69  2  0  0  0
 57 58  2  0  0  0
 57129  1  0  0  0
 58130  1  0  0  0
 59 60  1  0  0  0
 59 61  1  0  0  0
 59 62  1  0  0  0
 60131  1  0  0  0
 60132  1  0  0  0
 60133  1  0  0  0
 61134  1  0  0  0
 61135  1  0  0  0
 61136  1  0  0  0
 62137  1  0  0  0
 62138  1  0  0  0
 62139  1  0  0  0
 63 65  1  0  0  0
 63140  1  0  0  0
 63141  1  0  0  0
 63142  1  0  0  0
 64143  1  0  0  0
 65144  1  0  0  0
 68 81  1  0  0  0
 71 73  2  0  0  0
 71 74  1  0  0  0
 71145  1  0  0  0
 72 75  2  0  0  0
 72 76  1  0  0  0
 72146  1  0  0  0
 73 75  1  0  0  0
 73 79  1  0  0  0
 74 76  2  0  0  0
 74 80  1  0  0  0
 75 78  1  0  0  0
 76 85  1  0  0  0
 77 81  1  0  0  0
 77 82  1  0  0  0
 77 84  2  0  0  0
 78147  1  0  0  0
 78148  1  0  0  0
 78149  1  0  0  0
 79 83  1  0  0  0
 79150  1  0  0  0
 79151  1  0  0  0
 80 82  1  0  0  0
 80152  1  0  0  0
 80153  1  0  0  0
 81154  1  0  0  0
 81155  1  0  0  0
 82156  1  0  0  0
 83157  1  0  0  0
M  ISO  4   1 100  68 101  81 101  83 100
M  END
> <chiral flag>
0

> <version>
0

> <s_m_source_file>
/data/baiqing/PycharmProjects/Reinvent-master-3.2/result/LINK_invent/BTK/process_docking_weight1_custom_product_contain_oxygen_bond_distance_aromatic_linkinvent_7_9_3/rearranged_h_0051.sdf

> <i_m_source_file_index>
50

> <r_mmod_Potential_Energy-OPLS-2005>
-86.1976318359375

> <r_mmod_Stretch_Energy-OPLS-2005>
55.6574821472168

> <r_mmod_Bend_Energy-OPLS-2005>
132.19255065918

> <r_mmod_Torsional_Energy-OPLS-2005>
215.820617675781

> <r_mmod_Improper_Torsional_Energy-OPLS-2005>
9.642653465271

> <r_mmod_Van_der_Waal_Energy-OPLS-2005>
141.045700073242

> <r_mmod_Electrostatic_Energy-OPLS-2005>
-417.766571044922

> <r_mmod_Solvation_Energy-OPLS-2005>
-249.293548583984

> <b_mmod_Minimization_Converged-OPLS-2005>
0

> <r_mmod_RMS_Derivative-OPLS-2005>
6.47144412994385

$$$$
50
                    3D
 Structure written by MMmdl.
160168  0  0  1  0            999 V2000
  -30.6055  -14.6580   20.4982 C   0  0  0  0  0  0
  -30.4403  -12.4026   19.4598 C   0  0  0  0  0  0
  -29.5101  -12.5108   18.2302 C   0  0  0  0  0  0
  -28.0321  -12.3486   18.6385 C   0  0  0  0  0  0
  -27.6535  -13.2172   19.8671 C   0  0  2  0  0  0
  -28.6964  -13.0698   20.9981 C   0  0  0  0  0  0
  -25.2529  -13.8157   20.5634 C   0  0  0  0  0  0
  -24.1816  -13.0426   20.9191 C   0  0  0  0  0  0
  -24.6393  -11.6902   20.8749 C   0  0  0  0  0  0
  -23.9063  -10.4286   21.0412 C   0  0  0  0  0  0
  -24.3614   -9.4203   21.9189 C   0  0  0  0  0  0
  -23.6289   -8.2239   22.0757 C   0  0  0  0  0  0
  -22.4271   -8.0276   21.3542 C   0  0  0  0  0  0
  -21.9908   -9.0252   20.4646 C   0  0  0  0  0  0
  -22.7237  -10.2132   20.3060 C   0  0  0  0  0  0
  -21.6854   -6.0733   22.5277 C   0  0  0  0  0  0
  -21.4015   -6.5635   23.8208 C   0  0  0  0  0  0
  -21.3658   -5.6788   24.9170 C   0  0  0  0  0  0
  -21.6046   -4.3053   24.7220 C   0  0  0  0  0  0
  -21.8820   -3.8144   23.4341 C   0  0  0  0  0  0
  -21.9191   -4.6960   22.3398 C   0  0  0  0  0  0
  -22.7840  -13.5221   21.1850 C   0  0  0  0  0  0
  -22.1660   -4.2149   21.0975 F   0  0  0  0  0  0
  -21.5628   -3.4538   25.7734 F   0  0  0  0  0  0
  -30.0116  -13.4223   20.4399 N   0  0  0  0  0  0
  -26.2983  -12.9353   20.3324 N   0  0  0  0  0  0
  -25.9326  -11.6509   20.5783 N   0  0  0  0  0  0
  -22.0480  -12.8223   22.0412 N   0  0  0  0  0  0
  -25.4182  -15.1860   20.3922 N   0  0  0  0  0  0
  -31.7582  -14.8271   20.0886 O   0  0  0  0  0  0
  -21.6635   -6.8875   21.4240 O   0  0  0  0  0  0
  -22.3526  -14.5524   20.6691 O   0  0  0  0  0  0
  -24.6250  -31.8572   23.1994 C   0  0  0  0  0  0
  -25.9095  -32.4761   23.8327 C   0  0  1  0  0  0
  -27.2326  -27.3139   20.1308 C   0  0  0  0  0  0
  -25.5916  -33.8560   24.2266 N   0  0  0  0  0  0
  -23.4205  -30.4760   21.5424 C   0  0  2  0  0  0
  -24.8688  -28.9207   20.1144 C   0  0  0  0  0  0
  -22.7471  -29.4602   22.4951 C   0  0  0  0  0  0
  -18.0284  -28.1383   22.8471 C   0  0  0  0  0  0
  -24.1492  -36.7285   23.2638 C   0  0  0  0  0  0
  -25.9583  -30.7874   21.3681 C   0  0  0  0  0  0
  -26.0347  -29.4113   20.7159 C   0  0  0  0  0  0
  -27.2199  -28.6203   20.7087 C   0  0  0  0  0  0
  -26.0489  -26.8682   19.5082 C   0  0  0  0  0  0
  -24.8773  -27.6549   19.5015 C   0  0  0  0  0  0
  -23.6355  -29.8012   20.1605 C   0  0  0  0  0  0
  -25.4112  -36.3074   24.0340 C   0  0  1  0  0  0
  -20.5881  -28.3677   23.1292 C   0  0  2  0  0  0
  -20.6784  -26.9405   22.5415 C   0  0  0  0  0  0
  -19.5766  -26.6376   21.5213 C   0  0  0  0  0  0
  -18.1937  -26.7919   22.1615 C   0  0  0  0  0  0
  -19.1535  -28.8848   23.2872 C   0  0  0  0  0  0
  -18.9462  -30.1449   23.8892 C   0  0  0  0  0  0
  -17.6466  -30.6584   24.0559 C   0  0  0  0  0  0
  -25.9053  -34.9444   23.5109 C   0  0  0  0  0  0
  -16.5355  -29.9084   23.6329 C   0  0  0  0  0  0
  -16.7273  -28.6507   23.0337 C   0  0  0  0  0  0
  -26.4487  -31.6569   25.0694 C   0  0  0  0  0  0
  -25.3727  -31.3711   26.1424 C   0  0  0  0  0  0
  -27.0328  -30.3003   24.6122 C   0  0  0  0  0  0
  -27.6053  -32.4295   25.7462 C   0  0  0  0  0  0
  -27.5591  -37.1780   24.8456 C   0  0  0  0  0  0
  -21.4186  -29.3027   22.3690 N   0  0  0  0  0  0
  -26.4285  -37.3772   23.9426 N   0  0  0  0  0  0
  -24.6867  -31.0574   22.0942 N   0  0  0  0  0  0
  -23.4188  -28.8162   23.3047 O   0  0  0  0  0  0
  -28.3768  -26.5054   20.1346 O   0  0  0  0  0  0
  -26.5616  -34.8920   22.4674 O   0  0  0  0  0  0
  -23.5416  -32.1365   23.7323 O   0  0  0  0  0  0
  -28.6558  -19.3583   20.9198 C   0  0  0  0  0  0
  -30.6647  -17.8000   19.7507 C   0  0  0  0  0  0
  -29.4890  -20.0094   19.9719 C   0  0  0  0  0  0
  -28.8014  -17.9724   21.2568 C   0  0  0  0  0  0
  -30.5343  -19.1873   19.4242 C   0  0  0  0  0  0
  -29.7886  -17.1387   20.6476 C   0  0  0  0  0  0
  -29.1695  -21.4318   19.4249 C   0  0  0  0  0  0
  -27.8549  -17.3780   22.2857 C   0  0  0  0  0  0
  -31.5529  -19.7489   18.4411 C   0  0  0  0  0  0
  -27.3248  -24.8779   21.7619 C   0  0  0  0  0  0
  -28.4953  -23.8831   19.6630 C   0  0  0  0  0  0
  -28.3844  -25.1135   20.6700 C   0  0  1  0  0  0
  -29.8067  -15.6930   20.9219 N   0  0  0  0  0  0
  -28.8313  -22.5040   20.2091 N   0  0  0  0  0  0
  -29.2294  -21.5936   18.2045 O   0  0  0  0  0  0
  -31.4808  -12.5333   19.1584 H   0  0  0  0  0  0
  -30.3829  -11.4071   19.9028 H   0  0  0  0  0  0
  -29.7778  -11.7571   17.4882 H   0  0  0  0  0  0
  -29.6511  -13.4792   17.7471 H   0  0  0  0  0  0
  -27.8669  -11.2954   18.8669 H   0  0  0  0  0  0
  -27.3804  -12.5822   17.7960 H   0  0  0  0  0  0
  -27.6729  -14.2540   19.5297 H   0  0  0  0  0  0
  -28.7119  -12.0459   21.3745 H   0  0  0  0  0  0
  -28.4370  -13.6951   21.8535 H   0  0  0  0  0  0
  -25.2759   -9.5682   22.4760 H   0  0  0  0  0  0
  -23.9997   -7.4635   22.7482 H   0  0  0  0  0  0
  -21.0839   -8.8774   19.8953 H   0  0  0  0  0  0
  -22.3697  -10.9671   19.6169 H   0  0  0  0  0  0
  -21.2011   -7.6144   23.9714 H   0  0  0  0  0  0
  -21.1478   -6.0516   25.9072 H   0  0  0  0  0  0
  -22.0598   -2.7609   23.2839 H   0  0  0  0  0  0
  -22.4099  -11.9886   22.4802 H   0  0  0  0  0  0
  -21.1101  -13.1251   22.2613 H   0  0  0  0  0  0
  -24.6421  -15.8324   20.4803 H   0  0  0  0  0  0
  -26.2496  -15.6180   20.0101 H   0  0  0  0  0  0
  -26.7158  -32.5437   23.1074 H   0  0  0  0  0  0
  -25.0079  -33.9700   25.0422 H   0  0  0  0  0  0
  -22.7155  -31.2968   21.3946 H   0  0  0  0  0  0
  -23.3773  -35.9597   23.3260 H   0  0  0  0  0  0
  -24.3607  -36.8942   22.2063 H   0  0  0  0  0  0
  -23.7216  -37.6468   23.6683 H   0  0  0  0  0  0
  -26.0829  -31.5482   20.5961 H   0  0  0  0  0  0
  -26.8412  -30.8427   21.9936 H   0  0  0  0  0  0
  -28.1193  -28.9946   21.1774 H   0  0  0  0  0  0
  -26.0278  -25.8974   19.0337 H   0  0  0  0  0  0
  -23.9837  -27.2737   19.0272 H   0  0  0  0  0  0
  -23.7554  -30.5737   19.4004 H   0  0  0  0  0  0
  -22.7560  -29.2292   19.8598 H   0  0  0  0  0  0
  -25.1286  -36.1926   25.0834 H   0  0  0  0  0  0
  -20.9961  -28.3250   24.1419 H   0  0  0  0  0  0
  -20.5709  -26.2279   23.3610 H   0  0  0  0  0  0
  -21.6650  -26.7452   22.1197 H   0  0  0  0  0  0
  -19.6946  -25.6291   21.1241 H   0  0  0  0  0  0
  -19.6721  -27.3190   20.6751 H   0  0  0  0  0  0
  -17.4212  -26.6656   21.4009 H   0  0  0  0  0  0
  -18.0340  -26.0065   22.9021 H   0  0  0  0  0  0
  -19.7944  -30.7256   24.2262 H   0  0  0  0  0  0
  -17.5027  -31.6269   24.5154 H   0  0  0  0  0  0
  -15.5357  -30.2988   23.7668 H   0  0  0  0  0  0
  -15.8668  -28.0840   22.7042 H   0  0  0  0  0  0
  -24.5911  -30.7045   25.7758 H   0  0  0  0  0  0
  -24.8904  -32.2878   26.4831 H   0  0  0  0  0  0
  -25.8047  -30.8906   27.0210 H   0  0  0  0  0  0
  -26.2886  -29.6752   24.1171 H   0  0  0  0  0  0
  -27.4078  -29.7252   25.4598 H   0  0  0  0  0  0
  -27.8732  -30.4310   23.9297 H   0  0  0  0  0  0
  -27.2687  -33.3620   26.2000 H   0  0  0  0  0  0
  -28.3884  -32.6799   25.0294 H   0  0  0  0  0  0
  -28.0692  -31.8432   26.5407 H   0  0  0  0  0  0
  -28.2549  -38.0132   24.7576 H   0  0  0  0  0  0
  -28.1144  -36.2667   24.6185 H   0  0  0  0  0  0
  -27.2323  -37.1306   25.8857 H   0  0  0  0  0  0
  -20.9376  -29.8730   21.6875 H   0  0  0  0  0  0
  -26.0171  -38.2843   24.1464 H   0  0  0  0  0  0
  -27.8489  -19.9245   21.3637 H   0  0  0  0  0  0
  -31.4455  -17.2298   19.2683 H   0  0  0  0  0  0
  -27.1697  -18.1264   22.6840 H   0  0  0  0  0  0
  -28.4198  -16.9671   23.1230 H   0  0  0  0  0  0
  -27.2585  -16.5784   21.8505 H   0  0  0  0  0  0
  -32.4511  -19.1316   18.4061 H   0  0  0  0  0  0
  -31.8686  -20.7530   18.7240 H   0  0  0  0  0  0
  -31.1354  -19.7845   17.4351 H   0  0  0  0  0  0
  -27.5006  -23.9370   22.2833 H   0  0  0  0  0  0
  -26.3183  -24.8313   21.3481 H   0  0  0  0  0  0
  -27.3462  -25.6703   22.5104 H   0  0  0  0  0  0
  -29.2535  -24.1375   18.9210 H   0  0  0  0  0  0
  -27.5609  -23.8040   19.1064 H   0  0  0  0  0  0
  -29.3365  -25.0959   21.2017 H   0  0  0  0  0  0
  -28.9698  -15.3575   21.3716 H   0  0  0  0  0  0
  -28.7959  -22.3676   21.2096 H   0  0  0  0  0  0
  1 25  1  0  0  0
  1 30  2  0  0  0
  1 83  1  0  0  0
  2  3  1  0  0  0
  2 25  1  0  0  0
  2 86  1  0  0  0
  2 87  1  0  0  0
  3  4  1  0  0  0
  3 88  1  0  0  0
  3 89  1  0  0  0
  4  5  1  0  0  0
  4 90  1  0  0  0
  4 91  1  0  0  0
  5  6  1  0  0  0
  5 26  1  0  0  0
  5 92  1  0  0  0
  6 25  1  0  0  0
  6 93  1  0  0  0
  6 94  1  0  0  0
  7  8  2  0  0  0
  7 26  1  0  0  0
  7 29  1  0  0  0
  8  9  1  0  0  0
  8 22  1  0  0  0
  9 10  1  0  0  0
  9 27  2  0  0  0
 10 11  2  0  0  0
 10 15  1  0  0  0
 11 12  1  0  0  0
 11 95  1  0  0  0
 12 13  2  0  0  0
 12 96  1  0  0  0
 13 14  1  0  0  0
 13 31  1  0  0  0
 14 15  2  0  0  0
 14 97  1  0  0  0
 15 98  1  0  0  0
 16 17  2  0  0  0
 16 21  1  0  0  0
 16 31  1  0  0  0
 17 18  1  0  0  0
 17 99  1  0  0  0
 18 19  2  0  0  0
 18100  1  0  0  0
 19 20  1  0  0  0
 19 24  1  0  0  0
 20 21  2  0  0  0
 20101  1  0  0  0
 21 23  1  0  0  0
 22 28  1  0  0  0
 22 32  2  0  0  0
 26 27  1  0  0  0
 28102  1  0  0  0
 28103  1  0  0  0
 29104  1  0  0  0
 29105  1  0  0  0
 33 34  1  0  0  0
 33 66  1  0  0  0
 33 70  2  0  0  0
 34 36  1  0  0  0
 34 59  1  0  0  0
 34106  1  0  0  0
 35 44  2  0  0  0
 35 45  1  0  0  0
 35 68  1  0  0  0
 36 56  1  0  0  0
 36107  1  0  0  0
 37 39  1  0  0  0
 37 47  1  0  0  0
 37 66  1  0  0  0
 37108  1  0  0  0
 38 43  2  0  0  0
 38 46  1  0  0  0
 38 47  1  0  0  0
 39 64  1  0  0  0
 39 67  2  0  0  0
 40 52  1  0  0  0
 40 53  2  0  0  0
 40 58  1  0  0  0
 41109  1  0  0  0
 41110  1  0  0  0
 41111  1  0  0  0
 41 48  1  0  0  0
 42 43  1  0  0  0
 42 66  1  0  0  0
 42112  1  0  0  0
 42113  1  0  0  0
 43 44  1  0  0  0
 44114  1  0  0  0
 45 46  2  0  0  0
 45115  1  0  0  0
 46116  1  0  0  0
 47117  1  0  0  0
 47118  1  0  0  0
 48 56  1  0  0  0
 48 65  1  0  0  0
 48119  1  0  0  0
 49 50  1  0  0  0
 49 53  1  0  0  0
 49 64  1  0  0  0
 49120  1  0  0  0
 50 51  1  0  0  0
 50121  1  0  0  0
 50122  1  0  0  0
 51 52  1  0  0  0
 51123  1  0  0  0
 51124  1  0  0  0
 52125  1  0  0  0
 52126  1  0  0  0
 53 54  1  0  0  0
 54 55  2  0  0  0
 54127  1  0  0  0
 55 57  1  0  0  0
 55128  1  0  0  0
 56 69  2  0  0  0
 57 58  2  0  0  0
 57129  1  0  0  0
 58130  1  0  0  0
 59 60  1  0  0  0
 59 61  1  0  0  0
 59 62  1  0  0  0
 60131  1  0  0  0
 60132  1  0  0  0
 60133  1  0  0  0
 61134  1  0  0  0
 61135  1  0  0  0
 61136  1  0  0  0
 62137  1  0  0  0
 62138  1  0  0  0
 62139  1  0  0  0
 63 65  1  0  0  0
 63140  1  0  0  0
 63141  1  0  0  0
 63142  1  0  0  0
 64143  1  0  0  0
 65144  1  0  0  0
 68 82  1  0  0  0
 71 73  2  0  0  0
 71 74  1  0  0  0
 71145  1  0  0  0
 72 75  2  0  0  0
 72 76  1  0  0  0
 72146  1  0  0  0
 73 75  1  0  0  0
 73 77  1  0  0  0
 74 76  2  0  0  0
 74 78  1  0  0  0
 75 79  1  0  0  0
 76 83  1  0  0  0
 77 84  1  0  0  0
 77 85  2  0  0  0
 78147  1  0  0  0
 78148  1  0  0  0
 78149  1  0  0  0
 79150  1  0  0  0
 79151  1  0  0  0
 79152  1  0  0  0
 80153  1  0  0  0
 80154  1  0  0  0
 80155  1  0  0  0
 80 82  1  0  0  0
 81 82  1  0  0  0
 81 84  1  0  0  0
 81156  1  0  0  0
 81157  1  0  0  0
 82158  1  0  0  0
 83159  1  0  0  0
 84160  1  0  0  0
M  ISO  4   1 100  68 101  82 101  83 100
M  END
> <chiral flag>
0

> <version>
0

> <s_m_source_file>
/data/baiqing/PycharmProjects/Reinvent-master-3.2/result/LINK_invent/BTK/process_docking_weight1_custom_product_contain_oxygen_bond_distance_aromatic_linkinvent_7_9_3/rearranged_h_0051.sdf

> <i_m_source_file_index>
51

> <r_mmod_Potential_Energy-OPLS-2005>
15.0543689727783

> <r_mmod_Stretch_Energy-OPLS-2005>
88.6071319580078

> <r_mmod_Bend_Energy-OPLS-2005>
157.003204345703

> <r_mmod_Torsional_Energy-OPLS-2005>
251.08610534668

> <r_mmod_Improper_Torsional_Energy-OPLS-2005>
4.60363483428955

> <r_mmod_Van_der_Waal_Energy-OPLS-2005>
140.951629638672

> <r_mmod_Electrostatic_Energy-OPLS-2005>
-451.368591308594

> <r_mmod_Solvation_Energy-OPLS-2005>
-225.102828979492

> <b_mmod_Minimization_Converged-OPLS-2005>
0

> <r_mmod_RMS_Derivative-OPLS-2005>
1.06883239746094

$$$$
51
                    3D
 Structure written by MMmdl.
155163  0  0  1  0            999 V2000
  -30.6460  -14.5476   20.6069 C   0  0  0  0  0  0
  -30.4412  -12.3679   19.4227 C   0  0  0  0  0  0
  -29.5051  -12.5493   18.2069 C   0  0  0  0  0  0
  -28.0249  -12.3844   18.6124 C   0  0  0  0  0  0
  -27.6652  -13.2079   19.8791 C   0  0  2  0  0  0
  -28.7079  -12.9669   20.9942 C   0  0  0  0  0  0
  -25.2541  -13.8108   20.5520 C   0  0  0  0  0  0
  -24.1827  -13.0401   20.9119 C   0  0  0  0  0  0
  -24.6402  -11.6878   20.8695 C   0  0  0  0  0  0
  -23.9050  -10.4284   21.0363 C   0  0  0  0  0  0
  -24.3610   -9.4211   21.9146 C   0  0  0  0  0  0
  -23.6294   -8.2245   22.0732 C   0  0  0  0  0  0
  -22.4270   -8.0271   21.3537 C   0  0  0  0  0  0
  -21.9896   -9.0229   20.4626 C   0  0  0  0  0  0
  -22.7215  -10.2120   20.3017 C   0  0  0  0  0  0
  -21.6856   -6.0728   22.5280 C   0  0  0  0  0  0
  -21.4016   -6.5632   23.8212 C   0  0  0  0  0  0
  -21.3666   -5.6779   24.9173 C   0  0  0  0  0  0
  -21.6045   -4.3048   24.7224 C   0  0  0  0  0  0
  -21.8822   -3.8136   23.4350 C   0  0  0  0  0  0
  -21.9202   -4.6953   22.3408 C   0  0  0  0  0  0
  -22.7866  -13.5215   21.1812 C   0  0  0  0  0  0
  -22.1655   -4.2144   21.0986 F   0  0  0  0  0  0
  -21.5641   -3.4532   25.7739 F   0  0  0  0  0  0
  -30.0380  -13.3290   20.4670 N   0  0  0  0  0  0
  -26.3042  -12.9316   20.3332 N   0  0  0  0  0  0
  -25.9349  -11.6477   20.5762 N   0  0  0  0  0  0
  -22.0515  -12.8229   22.0392 N   0  0  0  0  0  0
  -25.4104  -15.1798   20.3748 N   0  0  0  0  0  0
  -31.7049  -14.8288   20.0360 O   0  0  0  0  0  0
  -21.6644   -6.8866   21.4237 O   0  0  0  0  0  0
  -22.3560  -14.5533   20.6667 O   0  0  0  0  0  0
  -24.6216  -31.8613   23.2049 C   0  0  0  0  0  0
  -25.9087  -32.4789   23.8349 C   0  0  1  0  0  0
  -27.2229  -27.3512   20.0997 C   0  0  0  0  0  0
  -25.5917  -33.8593   24.2253 N   0  0  0  0  0  0
  -23.4126  -30.4829   21.5526 C   0  0  2  0  0  0
  -24.8557  -28.9408   20.1143 C   0  0  0  0  0  0
  -22.7453  -29.4607   22.5030 C   0  0  0  0  0  0
  -18.0270  -28.1382   22.8526 C   0  0  0  0  0  0
  -24.1490  -36.7277   23.2630 C   0  0  0  0  0  0
  -25.9515  -30.8000   21.3743 C   0  0  0  0  0  0
  -26.0239  -29.4330   20.7078 C   0  0  0  0  0  0
  -27.2113  -28.6494   20.6875 C   0  0  0  0  0  0
  -26.0251  -26.8935   19.5035 C   0  0  0  0  0  0
  -24.8538  -27.6742   19.5099 C   0  0  0  0  0  0
  -23.6211  -29.8151   20.1684 C   0  0  0  0  0  0
  -25.4123  -36.3088   24.0310 C   0  0  1  0  0  0
  -20.5864  -28.3644   23.1362 C   0  0  2  0  0  0
  -20.6778  -26.9389   22.5444 C   0  0  0  0  0  0
  -19.5754  -26.6383   21.5255 C   0  0  0  0  0  0
  -18.1923  -26.7936   22.1649 C   0  0  0  0  0  0
  -19.1520  -28.8844   23.2932 C   0  0  0  0  0  0
  -18.9439  -30.1461   23.8918 C   0  0  0  0  0  0
  -17.6434  -30.6596   24.0565 C   0  0  0  0  0  0
  -25.9059  -34.9460   23.5081 C   0  0  0  0  0  0
  -16.5328  -29.9078   23.6350 C   0  0  0  0  0  0
  -16.7252  -28.6496   23.0377 C   0  0  0  0  0  0
  -26.4478  -31.6632   25.0741 C   0  0  0  0  0  0
  -25.3711  -31.3769   26.1468 C   0  0  0  0  0  0
  -27.0303  -30.3048   24.6223 C   0  0  0  0  0  0
  -27.6040  -32.4378   25.7508 C   0  0  0  0  0  0
  -27.5589  -37.1787   24.8454 C   0  0  0  0  0  0
  -21.4176  -29.2987   22.3763 N   0  0  0  0  0  0
  -26.4298  -37.3787   23.9408 N   0  0  0  0  0  0
  -24.6807  -31.0637   22.1004 N   0  0  0  0  0  0
  -23.4194  -28.8176   23.3118 O   0  0  0  0  0  0
  -28.3673  -26.5517   20.1556 O   0  0  0  0  0  0
  -26.5644  -34.8925   22.4654 O   0  0  0  0  0  0
  -23.5399  -32.1401   23.7408 O   0  0  0  0  0  0
  -27.3078  -17.9483   21.3994 C   0  0  0  0  0  0
  -27.9380  -19.1247   20.9602 C   0  0  0  0  0  0
  -28.0407  -16.7564   21.5415 C   0  0  0  0  0  0
  -30.0478  -17.8978   20.7689 C   0  0  0  0  0  0
  -29.3155  -19.1348   20.6631 C   0  0  0  0  0  0
  -29.4090  -16.6888   21.2026 C   0  0  0  0  0  0
  -28.8569  -24.1595   20.4447 C   0  0  0  0  0  0
  -28.3612  -25.2158   19.7326 C   0  0  0  0  0  0
  -28.9266  -22.7778   19.8933 C   0  0  0  0  0  0
  -29.5634  -21.9424   22.1591 C   0  0  0  0  0  0
  -29.9648  -20.4684   20.1946 C   0  0  0  0  0  0
  -30.0266  -15.4055   21.4562 N   0  0  0  0  0  0
  -29.4219  -21.7800   20.7068 N   0  0  0  0  0  0
  -28.6322  -22.5320   18.7200 O   0  0  0  0  0  0
  -31.4817  -12.5048   19.1246 H   0  0  0  0  0  0
  -30.3765  -11.3487   19.8042 H   0  0  0  0  0  0
  -29.7662  -11.8376   17.4222 H   0  0  0  0  0  0
  -29.6538  -13.5412   17.7767 H   0  0  0  0  0  0
  -27.8430  -11.3251   18.7936 H   0  0  0  0  0  0
  -27.3741  -12.6646   17.7831 H   0  0  0  0  0  0
  -27.7105  -14.2610   19.6022 H   0  0  0  0  0  0
  -28.7048  -11.9136   21.2809 H   0  0  0  0  0  0
  -28.4379  -13.5081   21.9002 H   0  0  0  0  0  0
  -25.2748   -9.5732   22.4720 H   0  0  0  0  0  0
  -24.0017   -7.4659   22.7471 H   0  0  0  0  0  0
  -21.0816   -8.8724   19.8956 H   0  0  0  0  0  0
  -22.3622  -10.9644   19.6133 H   0  0  0  0  0  0
  -21.1986   -7.6135   23.9716 H   0  0  0  0  0  0
  -21.1483   -6.0507   25.9082 H   0  0  0  0  0  0
  -22.0601   -2.7597   23.2846 H   0  0  0  0  0  0
  -22.4121  -11.9902   22.4793 H   0  0  0  0  0  0
  -21.1124  -13.1248   22.2561 H   0  0  0  0  0  0
  -24.6238  -15.8153   20.4509 H   0  0  0  0  0  0
  -26.2488  -15.6294   20.0298 H   0  0  0  0  0  0
  -26.7155  -32.5447   23.1090 H   0  0  0  0  0  0
  -25.0054  -33.9759   25.0394 H   0  0  0  0  0  0
  -22.7026  -31.3012   21.4137 H   0  0  0  0  0  0
  -23.3777  -35.9586   23.3290 H   0  0  0  0  0  0
  -24.3566  -36.8907   22.2043 H   0  0  0  0  0  0
  -23.7224  -37.6459   23.6669 H   0  0  0  0  0  0
  -26.0906  -31.5740   20.6180 H   0  0  0  0  0  0
  -26.8266  -30.8321   22.0121 H   0  0  0  0  0  0
  -28.1157  -29.0267   21.1444 H   0  0  0  0  0  0
  -25.9601  -25.9169   19.0500 H   0  0  0  0  0  0
  -23.9511  -27.2811   19.0626 H   0  0  0  0  0  0
  -23.7339  -30.5888   19.4086 H   0  0  0  0  0  0
  -22.7419  -29.2379   19.8748 H   0  0  0  0  0  0
  -25.1319  -36.1914   25.0806 H   0  0  0  0  0  0
  -20.9933  -28.3189   24.1496 H   0  0  0  0  0  0
  -20.5748  -26.2223   23.3612 H   0  0  0  0  0  0
  -21.6639  -26.7495   22.1181 H   0  0  0  0  0  0
  -19.6901  -25.6300   21.1276 H   0  0  0  0  0  0
  -19.6701  -27.3212   20.6806 H   0  0  0  0  0  0
  -17.4206  -26.6724   21.4030 H   0  0  0  0  0  0
  -18.0281  -26.0064   22.9027 H   0  0  0  0  0  0
  -19.7903  -30.7299   24.2279 H   0  0  0  0  0  0
  -17.4970  -31.6292   24.5134 H   0  0  0  0  0  0
  -15.5321  -30.2969   23.7682 H   0  0  0  0  0  0
  -15.8653  -28.0809   22.7095 H   0  0  0  0  0  0
  -24.5846  -30.7185   25.7767 H   0  0  0  0  0  0
  -24.8958  -32.2940   26.4958 H   0  0  0  0  0  0
  -25.8012  -30.8864   27.0207 H   0  0  0  0  0  0
  -26.2874  -29.6833   24.1212 H   0  0  0  0  0  0
  -27.3920  -29.7293   25.4752 H   0  0  0  0  0  0
  -27.8786  -30.4301   23.9490 H   0  0  0  0  0  0
  -27.2633  -33.3645   26.2134 H   0  0  0  0  0  0
  -28.3819  -32.7004   25.0329 H   0  0  0  0  0  0
  -28.0757  -31.8496   26.5387 H   0  0  0  0  0  0
  -28.2586  -38.0110   24.7564 H   0  0  0  0  0  0
  -28.1115  -36.2647   24.6220 H   0  0  0  0  0  0
  -27.2306  -37.1343   25.8855 H   0  0  0  0  0  0
  -20.9358  -29.8616   21.6898 H   0  0  0  0  0  0
  -26.0170  -38.2845   24.1475 H   0  0  0  0  0  0
  -26.2527  -17.9616   21.6373 H   0  0  0  0  0  0
  -27.3538  -20.0282   20.8491 H   0  0  0  0  0  0
  -27.5265  -15.8821   21.9192 H   0  0  0  0  0  0
  -31.1042  -17.8872   20.5424 H   0  0  0  0  0  0
  -29.2346  -24.3687   21.4326 H   0  0  0  0  0  0
  -27.9511  -25.1006   18.7374 H   0  0  0  0  0  0
  -28.6181  -22.2546   22.6052 H   0  0  0  0  0  0
  -30.3249  -22.6833   22.4063 H   0  0  0  0  0  0
  -29.8563  -21.0134   22.6498 H   0  0  0  0  0  0
  -29.9565  -20.4539   19.1038 H   0  0  0  0  0  0
  -31.0221  -20.4327   20.4617 H   0  0  0  0  0  0
  -29.4570  -14.8525   22.0767 H   0  0  0  0  0  0
  1 25  1  0  0  0
  1 30  2  0  0  0
  1 82  1  0  0  0
  2  3  1  0  0  0
  2 25  1  0  0  0
  2 85  1  0  0  0
  2 86  1  0  0  0
  3  4  1  0  0  0
  3 87  1  0  0  0
  3 88  1  0  0  0
  4  5  1  0  0  0
  4 89  1  0  0  0
  4 90  1  0  0  0
  5  6  1  0  0  0
  5 26  1  0  0  0
  5 91  1  0  0  0
  6 25  1  0  0  0
  6 92  1  0  0  0
  6 93  1  0  0  0
  7  8  2  0  0  0
  7 26  1  0  0  0
  7 29  1  0  0  0
  8  9  1  0  0  0
  8 22  1  0  0  0
  9 10  1  0  0  0
  9 27  2  0  0  0
 10 11  2  0  0  0
 10 15  1  0  0  0
 11 12  1  0  0  0
 11 94  1  0  0  0
 12 13  2  0  0  0
 12 95  1  0  0  0
 13 14  1  0  0  0
 13 31  1  0  0  0
 14 15  2  0  0  0
 14 96  1  0  0  0
 15 97  1  0  0  0
 16 17  2  0  0  0
 16 21  1  0  0  0
 16 31  1  0  0  0
 17 18  1  0  0  0
 17 98  1  0  0  0
 18 19  2  0  0  0
 18 99  1  0  0  0
 19 20  1  0  0  0
 19 24  1  0  0  0
 20 21  2  0  0  0
 20100  1  0  0  0
 21 23  1  0  0  0
 22 28  1  0  0  0
 22 32  2  0  0  0
 26 27  1  0  0  0
 28101  1  0  0  0
 28102  1  0  0  0
 29103  1  0  0  0
 29104  1  0  0  0
 33 34  1  0  0  0
 33 66  1  0  0  0
 33 70  2  0  0  0
 34 36  1  0  0  0
 34 59  1  0  0  0
 34105  1  0  0  0
 35 44  2  0  0  0
 35 45  1  0  0  0
 35 68  1  0  0  0
 36 56  1  0  0  0
 36106  1  0  0  0
 37 39  1  0  0  0
 37 47  1  0  0  0
 37 66  1  0  0  0
 37107  1  0  0  0
 38 43  2  0  0  0
 38 46  1  0  0  0
 38 47  1  0  0  0
 39 64  1  0  0  0
 39 67  2  0  0  0
 40 52  1  0  0  0
 40 53  2  0  0  0
 40 58  1  0  0  0
 41108  1  0  0  0
 41109  1  0  0  0
 41110  1  0  0  0
 41 48  1  0  0  0
 42 43  1  0  0  0
 42 66  1  0  0  0
 42111  1  0  0  0
 42112  1  0  0  0
 43 44  1  0  0  0
 44113  1  0  0  0
 45 46  2  0  0  0
 45114  1  0  0  0
 46115  1  0  0  0
 47116  1  0  0  0
 47117  1  0  0  0
 48 56  1  0  0  0
 48 65  1  0  0  0
 48118  1  0  0  0
 49 50  1  0  0  0
 49 53  1  0  0  0
 49 64  1  0  0  0
 49119  1  0  0  0
 50 51  1  0  0  0
 50120  1  0  0  0
 50121  1  0  0  0
 51 52  1  0  0  0
 51122  1  0  0  0
 51123  1  0  0  0
 52124  1  0  0  0
 52125  1  0  0  0
 53 54  1  0  0  0
 54 55  2  0  0  0
 54126  1  0  0  0
 55 57  1  0  0  0
 55127  1  0  0  0
 56 69  2  0  0  0
 57 58  2  0  0  0
 57128  1  0  0  0
 58129  1  0  0  0
 59 60  1  0  0  0
 59 61  1  0  0  0
 59 62  1  0  0  0
 60130  1  0  0  0
 60131  1  0  0  0
 60132  1  0  0  0
 61133  1  0  0  0
 61134  1  0  0  0
 61135  1  0  0  0
 62136  1  0  0  0
 62137  1  0  0  0
 62138  1  0  0  0
 63 65  1  0  0  0
 63139  1  0  0  0
 63140  1  0  0  0
 63141  1  0  0  0
 64142  1  0  0  0
 65143  1  0  0  0
 68 78  1  0  0  0
 71 72  2  0  0  0
 71 73  1  0  0  0
 71144  1  0  0  0
 72 75  1  0  0  0
 72145  1  0  0  0
 73 76  2  0  0  0
 73146  1  0  0  0
 74 75  2  0  0  0
 74 76  1  0  0  0
 74147  1  0  0  0
 75 81  1  0  0  0
 76 82  1  0  0  0
 77 78  2  0  0  0
 77 79  1  0  0  0
 77148  1  0  0  0
 78149  1  0  0  0
 79 83  1  0  0  0
 79 84  2  0  0  0
 80 83  1  0  0  0
 80150  1  0  0  0
 80151  1  0  0  0
 80152  1  0  0  0
 81 83  1  0  0  0
 81153  1  0  0  0
 81154  1  0  0  0
 82155  1  0  0  0
M  ISO  4   1 100  68 101  78 101  82 100
M  END
> <chiral flag>
0

> <version>
0

> <s_m_source_file>
/data/baiqing/PycharmProjects/Reinvent-master-3.2/result/LINK_invent/BTK/process_docking_weight1_custom_product_contain_oxygen_bond_distance_aromatic_linkinvent_7_9_3/rearranged_h_0051.sdf

> <i_m_source_file_index>
52

> <r_mmod_Potential_Energy-OPLS-2005>
27.3350639343262

> <r_mmod_Stretch_Energy-OPLS-2005>
65.9502944946289

> <r_mmod_Bend_Energy-OPLS-2005>
131.641845703125

> <r_mmod_Torsional_Energy-OPLS-2005>
249.603530883789

> <r_mmod_Improper_Torsional_Energy-OPLS-2005>
7.52802848815918

> <r_mmod_Van_der_Waal_Energy-OPLS-2005>
150.721420288086

> <r_mmod_Electrostatic_Energy-OPLS-2005>
-386.795806884766

> <r_mmod_Solvation_Energy-OPLS-2005>
-221.561828613281

> <b_mmod_Minimization_Converged-OPLS-2005>
0

> <r_mmod_RMS_Derivative-OPLS-2005>
2.6815242767334

$$$$
52
                    3D
 Structure written by MMmdl.
164173  0  0  1  0            999 V2000
  -30.6715  -14.5137   20.5171 C   0  0  0  0  0  0
  -30.4162  -12.3102   19.4403 C   0  0  0  0  0  0
  -29.5017  -12.4984   18.2131 C   0  0  0  0  0  0
  -28.0204  -12.3578   18.6159 C   0  0  0  0  0  0
  -27.6540  -13.2077   19.8643 C   0  0  2  0  0  0
  -28.6932  -13.0154   20.9937 C   0  0  0  0  0  0
  -25.2570  -13.8176   20.5671 C   0  0  0  0  0  0
  -24.1827  -13.0443   20.9176 C   0  0  0  0  0  0
  -24.6395  -11.6925   20.8732 C   0  0  0  0  0  0
  -23.9055  -10.4304   21.0417 C   0  0  0  0  0  0
  -24.3607   -9.4205   21.9189 C   0  0  0  0  0  0
  -23.6277   -8.2242   22.0766 C   0  0  0  0  0  0
  -22.4252   -8.0291   21.3562 C   0  0  0  0  0  0
  -21.9901   -9.0265   20.4658 C   0  0  0  0  0  0
  -22.7228  -10.2142   20.3063 C   0  0  0  0  0  0
  -21.6853   -6.0736   22.5284 C   0  0  0  0  0  0
  -21.4011   -6.5636   23.8218 C   0  0  0  0  0  0
  -21.3659   -5.6787   24.9185 C   0  0  0  0  0  0
  -21.6040   -4.3055   24.7229 C   0  0  0  0  0  0
  -21.8811   -3.8143   23.4351 C   0  0  0  0  0  0
  -21.9191   -4.6968   22.3399 C   0  0  0  0  0  0
  -22.7845  -13.5258   21.1822 C   0  0  0  0  0  0
  -22.1654   -4.2156   21.0986 F   0  0  0  0  0  0
  -21.5639   -3.4532   25.7740 F   0  0  0  0  0  0
  -30.0245  -13.3168   20.4416 N   0  0  0  0  0  0
  -26.2975  -12.9331   20.3290 N   0  0  0  0  0  0
  -25.9305  -11.6491   20.5707 N   0  0  0  0  0  0
  -22.0460  -12.8283   22.0393 N   0  0  0  0  0  0
  -25.4315  -15.1890   20.4139 N   0  0  0  0  0  0
  -31.8387  -14.6455   20.1347 O   0  0  0  0  0  0
  -21.6634   -6.8871   21.4246 O   0  0  0  0  0  0
  -22.3549  -14.5566   20.6674 O   0  0  0  0  0  0
  -24.6212  -31.8638   23.2058 C   0  0  0  0  0  0
  -25.9115  -32.4776   23.8321 C   0  0  1  0  0  0
  -27.2169  -27.3894   20.0982 C   0  0  0  0  0  0
  -25.5958  -33.8578   24.2257 N   0  0  0  0  0  0
  -23.4078  -30.4969   21.5406 C   0  0  2  0  0  0
  -24.8493  -28.9600   20.1107 C   0  0  0  0  0  0
  -22.7416  -29.4707   22.4879 C   0  0  0  0  0  0
  -18.0314  -28.1393   22.8510 C   0  0  0  0  0  0
  -24.1515  -36.7319   23.2624 C   0  0  0  0  0  0
  -25.9385  -30.8188   21.3669 C   0  0  0  0  0  0
  -26.0111  -29.4495   20.7177 C   0  0  0  0  0  0
  -27.1938  -28.6654   20.7203 C   0  0  0  0  0  0
  -26.0419  -26.9482   19.4522 C   0  0  0  0  0  0
  -24.8612  -27.7099   19.4766 C   0  0  0  0  0  0
  -23.6174  -29.8329   20.1558 C   0  0  0  0  0  0
  -25.4125  -36.3063   24.0295 C   0  0  1  0  0  0
  -20.5899  -28.3740   23.1273 C   0  0  2  0  0  0
  -20.6813  -26.9460   22.5422 C   0  0  0  0  0  0
  -19.5794  -26.6354   21.5244 C   0  0  0  0  0  0
  -18.1988  -26.7910   22.1679 C   0  0  0  0  0  0
  -19.1550  -28.8877   23.2893 C   0  0  0  0  0  0
  -18.9461  -30.1477   23.8905 C   0  0  0  0  0  0
  -17.6456  -30.6613   24.0546 C   0  0  0  0  0  0
  -25.9056  -34.9440   23.5050 C   0  0  0  0  0  0
  -16.5369  -29.9105   23.6310 C   0  0  0  0  0  0
  -16.7292  -28.6522   23.0335 C   0  0  0  0  0  0
  -26.4521  -31.6565   25.0674 C   0  0  0  0  0  0
  -25.3769  -31.3731   26.1412 C   0  0  0  0  0  0
  -27.0350  -30.2978   24.6105 C   0  0  0  0  0  0
  -27.6080  -32.4286   25.7482 C   0  0  0  0  0  0
  -27.5568  -37.1812   24.8440 C   0  0  0  0  0  0
  -21.4135  -29.3097   22.3621 N   0  0  0  0  0  0
  -26.4289  -37.3755   23.9388 N   0  0  0  0  0  0
  -24.6729  -31.0752   22.0952 N   0  0  0  0  0  0
  -23.4184  -28.8232   23.2915 O   0  0  0  0  0  0
  -28.3714  -26.6217   20.1482 O   0  0  0  0  0  0
  -26.5591  -34.8901   22.4601 O   0  0  0  0  0  0
  -23.5405  -32.1385   23.7445 O   0  0  0  0  0  0
  -30.9498  -18.6914   19.0171 C   0  0  0  0  0  0
  -30.2891  -19.6993   19.7387 C   0  0  0  0  0  0
  -30.8263  -17.3456   19.3982 C   0  0  0  0  0  0
  -29.5030  -19.3754   20.8637 C   0  0  0  0  0  0
  -29.3918  -18.0002   21.2647 C   0  0  0  0  0  0
  -30.0586  -16.9660   20.5287 C   0  0  0  0  0  0
  -28.7253  -22.9046   20.8591 C   0  0  0  0  0  0
  -25.8672  -22.3964   20.7380 C   0  0  0  0  0  0
  -26.3462  -23.7253   20.1548 C   0  0  0  0  0  0
  -26.8813  -21.3020   20.4108 C   0  0  0  0  0  0
  -27.7827  -24.1303   20.5787 C   0  0  2  0  0  0
  -28.5596  -17.6532   22.4951 C   0  0  0  0  0  0
  -28.8672  -20.5317   21.6715 C   0  0  0  0  0  0
  -28.3947  -25.2550   19.6536 C   0  0  0  0  0  0
  -28.2146  -21.6369   20.9227 N   0  0  0  0  0  0
  -29.9123  -15.5733   20.8913 N   0  0  0  0  0  0
  -29.9101  -23.1245   21.1284 O   0  0  0  0  0  0
  -31.4658  -12.3914   19.1557 H   0  0  0  0  0  0
  -30.2990  -11.3081   19.8535 H   0  0  0  0  0  0
  -29.7519  -11.7711   17.4410 H   0  0  0  0  0  0
  -29.6705  -13.4809   17.7715 H   0  0  0  0  0  0
  -27.8337  -11.3024   18.8178 H   0  0  0  0  0  0
  -27.3761  -12.6233   17.7772 H   0  0  0  0  0  0
  -27.6904  -14.2522   19.5496 H   0  0  0  0  0  0
  -28.6712  -11.9858   21.3571 H   0  0  0  0  0  0
  -28.4524  -13.6389   21.8567 H   0  0  0  0  0  0
  -25.2762   -9.5694   22.4759 H   0  0  0  0  0  0
  -23.9994   -7.4646   22.7503 H   0  0  0  0  0  0
  -21.0815   -8.8777   19.8967 H   0  0  0  0  0  0
  -22.3678  -10.9686   19.6166 H   0  0  0  0  0  0
  -21.1998   -7.6151   23.9722 H   0  0  0  0  0  0
  -21.1489   -6.0526   25.9086 H   0  0  0  0  0  0
  -22.0588   -2.7613   23.2852 H   0  0  0  0  0  0
  -22.4045  -11.9950   22.4801 H   0  0  0  0  0  0
  -21.1097  -13.1372   22.2564 H   0  0  0  0  0  0
  -24.6677  -15.8452   20.5337 H   0  0  0  0  0  0
  -26.2822  -15.6305   20.0878 H   0  0  0  0  0  0
  -26.7172  -32.5490   23.1077 H   0  0  0  0  0  0
  -25.0175  -33.9720   25.0431 H   0  0  0  0  0  0
  -22.6993  -31.3150   21.3982 H   0  0  0  0  0  0
  -23.3729  -35.9701   23.3277 H   0  0  0  0  0  0
  -24.3606  -36.8955   22.2040 H   0  0  0  0  0  0
  -23.7331  -37.6540   23.6653 H   0  0  0  0  0  0
  -26.0438  -31.5829   20.5964 H   0  0  0  0  0  0
  -26.8283  -30.8735   21.9801 H   0  0  0  0  0  0
  -28.0851  -29.0285   21.2111 H   0  0  0  0  0  0
  -26.0063  -26.0190   18.9106 H   0  0  0  0  0  0
  -23.9712  -27.3360   18.9913 H   0  0  0  0  0  0
  -23.7286  -30.6015   19.3885 H   0  0  0  0  0  0
  -22.7399  -29.2540   19.8632 H   0  0  0  0  0  0
  -25.1313  -36.1877   25.0774 H   0  0  0  0  0  0
  -21.0018  -28.3362   24.1386 H   0  0  0  0  0  0
  -20.5755  -26.2381   23.3665 H   0  0  0  0  0  0
  -21.6691  -26.7486   22.1224 H   0  0  0  0  0  0
  -19.6972  -25.6242   21.1351 H   0  0  0  0  0  0
  -19.6725  -27.3103   20.6737 H   0  0  0  0  0  0
  -17.4220  -26.6590   21.4132 H   0  0  0  0  0  0
  -18.0420  -26.0088   22.9114 H   0  0  0  0  0  0
  -19.7932  -30.7297   24.2261 H   0  0  0  0  0  0
  -17.5028  -31.6298   24.5143 H   0  0  0  0  0  0
  -15.5376  -30.3007   23.7612 H   0  0  0  0  0  0
  -15.8706  -28.0833   22.7021 H   0  0  0  0  0  0
  -24.5950  -30.7065   25.7746 H   0  0  0  0  0  0
  -24.8989  -32.2933   26.4779 H   0  0  0  0  0  0
  -25.8122  -30.8951   27.0199 H   0  0  0  0  0  0
  -26.2896  -29.6738   24.1166 H   0  0  0  0  0  0
  -27.4058  -29.7231   25.4598 H   0  0  0  0  0  0
  -27.8755  -30.4225   23.9287 H   0  0  0  0  0  0
  -27.2662  -33.3555   26.2107 H   0  0  0  0  0  0
  -28.3926  -32.6898   25.0364 H   0  0  0  0  0  0
  -28.0721  -31.8381   26.5398 H   0  0  0  0  0  0
  -28.2565  -38.0127   24.7460 H   0  0  0  0  0  0
  -28.1085  -36.2641   24.6291 H   0  0  0  0  0  0
  -27.2274  -37.1479   25.8843 H   0  0  0  0  0  0
  -20.9253  -29.8859   21.6894 H   0  0  0  0  0  0
  -26.0151  -38.2816   24.1391 H   0  0  0  0  0  0
  -31.5623  -18.9537   18.1634 H   0  0  0  0  0  0
  -30.4165  -20.7307   19.4358 H   0  0  0  0  0  0
  -31.3390  -16.6139   18.7907 H   0  0  0  0  0  0
  -24.8959  -22.1328   20.3205 H   0  0  0  0  0  0
  -25.7288  -22.4785   21.8181 H   0  0  0  0  0  0
  -25.6421  -24.4939   20.4692 H   0  0  0  0  0  0
  -26.2888  -23.6639   19.0685 H   0  0  0  0  0  0
  -26.9453  -21.1611   19.3312 H   0  0  0  0  0  0
  -26.5176  -20.3529   20.8095 H   0  0  0  0  0  0
  -27.6914  -24.5756   21.5701 H   0  0  0  0  0  0
  -27.5039  -17.8451   22.2984 H   0  0  0  0  0  0
  -28.8631  -18.2720   23.3405 H   0  0  0  0  0  0
  -28.6550  -16.6184   22.8163 H   0  0  0  0  0  0
  -29.6314  -20.9245   22.3445 H   0  0  0  0  0  0
  -28.1104  -20.1491   22.3530 H   0  0  0  0  0  0
  -29.4500  -25.0449   19.4877 H   0  0  0  0  0  0
  -27.9821  -25.2039   18.6467 H   0  0  0  0  0  0
  -29.0424  -15.3298   21.3400 H   0  0  0  0  0  0
  1 25  1  0  0  0
  1 30  2  0  0  0
  1 86  1  0  0  0
  2  3  1  0  0  0
  2 25  1  0  0  0
  2 88  1  0  0  0
  2 89  1  0  0  0
  3  4  1  0  0  0
  3 90  1  0  0  0
  3 91  1  0  0  0
  4  5  1  0  0  0
  4 92  1  0  0  0
  4 93  1  0  0  0
  5  6  1  0  0  0
  5 26  1  0  0  0
  5 94  1  0  0  0
  6 25  1  0  0  0
  6 95  1  0  0  0
  6 96  1  0  0  0
  7  8  2  0  0  0
  7 26  1  0  0  0
  7 29  1  0  0  0
  8  9  1  0  0  0
  8 22  1  0  0  0
  9 10  1  0  0  0
  9 27  2  0  0  0
 10 11  2  0  0  0
 10 15  1  0  0  0
 11 12  1  0  0  0
 11 97  1  0  0  0
 12 13  2  0  0  0
 12 98  1  0  0  0
 13 14  1  0  0  0
 13 31  1  0  0  0
 14 15  2  0  0  0
 14 99  1  0  0  0
 15100  1  0  0  0
 16 17  2  0  0  0
 16 21  1  0  0  0
 16 31  1  0  0  0
 17 18  1  0  0  0
 17101  1  0  0  0
 18 19  2  0  0  0
 18102  1  0  0  0
 19 20  1  0  0  0
 19 24  1  0  0  0
 20 21  2  0  0  0
 20103  1  0  0  0
 21 23  1  0  0  0
 22 28  1  0  0  0
 22 32  2  0  0  0
 26 27  1  0  0  0
 28104  1  0  0  0
 28105  1  0  0  0
 29106  1  0  0  0
 29107  1  0  0  0
 33 34  1  0  0  0
 33 66  1  0  0  0
 33 70  2  0  0  0
 34 36  1  0  0  0
 34 59  1  0  0  0
 34108  1  0  0  0
 35 44  2  0  0  0
 35 45  1  0  0  0
 35 68  1  0  0  0
 36 56  1  0  0  0
 36109  1  0  0  0
 37 39  1  0  0  0
 37 47  1  0  0  0
 37 66  1  0  0  0
 37110  1  0  0  0
 38 43  2  0  0  0
 38 46  1  0  0  0
 38 47  1  0  0  0
 39 64  1  0  0  0
 39 67  2  0  0  0
 40 52  1  0  0  0
 40 53  2  0  0  0
 40 58  1  0  0  0
 41111  1  0  0  0
 41112  1  0  0  0
 41113  1  0  0  0
 41 48  1  0  0  0
 42 43  1  0  0  0
 42 66  1  0  0  0
 42114  1  0  0  0
 42115  1  0  0  0
 43 44  1  0  0  0
 44116  1  0  0  0
 45 46  2  0  0  0
 45117  1  0  0  0
 46118  1  0  0  0
 47119  1  0  0  0
 47120  1  0  0  0
 48 56  1  0  0  0
 48 65  1  0  0  0
 48121  1  0  0  0
 49 50  1  0  0  0
 49 53  1  0  0  0
 49 64  1  0  0  0
 49122  1  0  0  0
 50 51  1  0  0  0
 50123  1  0  0  0
 50124  1  0  0  0
 51 52  1  0  0  0
 51125  1  0  0  0
 51126  1  0  0  0
 52127  1  0  0  0
 52128  1  0  0  0
 53 54  1  0  0  0
 54 55  2  0  0  0
 54129  1  0  0  0
 55 57  1  0  0  0
 55130  1  0  0  0
 56 69  2  0  0  0
 57 58  2  0  0  0
 57131  1  0  0  0
 58132  1  0  0  0
 59 60  1  0  0  0
 59 61  1  0  0  0
 59 62  1  0  0  0
 60133  1  0  0  0
 60134  1  0  0  0
 60135  1  0  0  0
 61136  1  0  0  0
 61137  1  0  0  0
 61138  1  0  0  0
 62139  1  0  0  0
 62140  1  0  0  0
 62141  1  0  0  0
 63 65  1  0  0  0
 63142  1  0  0  0
 63143  1  0  0  0
 63144  1  0  0  0
 64145  1  0  0  0
 65146  1  0  0  0
 68 84  1  0  0  0
 71 72  2  0  0  0
 71 73  1  0  0  0
 71147  1  0  0  0
 72 74  1  0  0  0
 72148  1  0  0  0
 73 76  2  0  0  0
 73149  1  0  0  0
 74 75  2  0  0  0
 74 83  1  0  0  0
 75 76  1  0  0  0
 75 82  1  0  0  0
 76 86  1  0  0  0
 77 81  1  0  0  0
 77 85  1  0  0  0
 77 87  2  0  0  0
 78 79  1  0  0  0
 78 80  1  0  0  0
 78150  1  0  0  0
 78151  1  0  0  0
 79 81  1  0  0  0
 79152  1  0  0  0
 79153  1  0  0  0
 80 85  1  0  0  0
 80154  1  0  0  0
 80155  1  0  0  0
 81 84  1  0  0  0
 81156  1  0  0  0
 82157  1  0  0  0
 82158  1  0  0  0
 82159  1  0  0  0
 83 85  1  0  0  0
 83160  1  0  0  0
 83161  1  0  0  0
 84162  1  0  0  0
 84163  1  0  0  0
 86164  1  0  0  0
M  ISO  4   1 100  68 101  84 101  86 100
M  END
> <chiral flag>
0

> <version>
0

> <s_m_source_file>
/data/baiqing/PycharmProjects/Reinvent-master-3.2/result/LINK_invent/BTK/process_docking_weight1_custom_product_contain_oxygen_bond_distance_aromatic_linkinvent_7_9_3/rearranged_h_0051.sdf

> <i_m_source_file_index>
53

> <r_mmod_Potential_Energy-OPLS-2005>
18.1315670013428

> <r_mmod_Stretch_Energy-OPLS-2005>
56.5560989379883

> <r_mmod_Bend_Energy-OPLS-2005>
122.861175537109

> <r_mmod_Torsional_Energy-OPLS-2005>
241.167419433594

> <r_mmod_Improper_Torsional_Energy-OPLS-2005>
5.3214259147644

> <r_mmod_Van_der_Waal_Energy-OPLS-2005>
171.265884399414

> <r_mmod_Electrostatic_Energy-OPLS-2005>
-375.763458251953

> <r_mmod_Solvation_Energy-OPLS-2005>
-225.708938598633

> <b_mmod_Minimization_Converged-OPLS-2005>
0

> <r_mmod_RMS_Derivative-OPLS-2005>
4.53924131393433

$$$$
53
                    3D
 Structure written by MMmdl.
157165  0  0  1  0            999 V2000
  -30.6325  -14.7599   20.4075 C   0  0  0  0  0  0
  -30.4378  -12.4363   19.5129 C   0  0  0  0  0  0
  -29.5301  -12.4254   18.2644 C   0  0  0  0  0  0
  -28.0366  -12.3539   18.6421 C   0  0  0  0  0  0
  -27.6449  -13.2502   19.8518 C   0  0  2  0  0  0
  -28.6889  -13.2024   20.9894 C   0  0  0  0  0  0
  -25.2483  -13.8256   20.5696 C   0  0  0  0  0  0
  -24.1816  -13.0461   20.9204 C   0  0  0  0  0  0
  -24.6417  -11.6951   20.8719 C   0  0  0  0  0  0
  -23.9105  -10.4308   21.0363 C   0  0  0  0  0  0
  -24.3669   -9.4227   21.9147 C   0  0  0  0  0  0
  -23.6335   -8.2267   22.0758 C   0  0  0  0  0  0
  -22.4312   -8.0306   21.3548 C   0  0  0  0  0  0
  -21.9937   -9.0264   20.4636 C   0  0  0  0  0  0
  -22.7270  -10.2131   20.3022 C   0  0  0  0  0  0
  -21.6861   -6.0754   22.5281 C   0  0  0  0  0  0
  -21.4026   -6.5657   23.8212 C   0  0  0  0  0  0
  -21.3655   -5.6811   24.9179 C   0  0  0  0  0  0
  -21.6035   -4.3069   24.7225 C   0  0  0  0  0  0
  -21.8810   -3.8161   23.4347 C   0  0  0  0  0  0
  -21.9199   -4.6983   22.3404 C   0  0  0  0  0  0
  -22.7817  -13.5186   21.1887 C   0  0  0  0  0  0
  -22.1665   -4.2168   21.0976 F   0  0  0  0  0  0
  -21.5620   -3.4546   25.7727 F   0  0  0  0  0  0
  -29.9949  -13.5350   20.4027 N   0  0  0  0  0  0
  -26.2958  -12.9510   20.3287 N   0  0  0  0  0  0
  -25.9352  -11.6626   20.5765 N   0  0  0  0  0  0
  -22.0501  -12.8123   22.0420 N   0  0  0  0  0  0
  -25.4121  -15.2006   20.4133 N   0  0  0  0  0  0
  -31.8234  -14.8255   20.0927 O   0  0  0  0  0  0
  -21.6669   -6.8901   21.4242 O   0  0  0  0  0  0
  -22.3471  -14.5529   20.6797 O   0  0  0  0  0  0
  -24.6299  -31.8565   23.2020 C   0  0  0  0  0  0
  -25.9126  -32.4762   23.8355 C   0  0  1  0  0  0
  -27.2178  -27.2666   20.1097 C   0  0  0  0  0  0
  -25.5901  -33.8565   24.2239 N   0  0  0  0  0  0
  -23.4254  -30.4806   21.5480 C   0  0  2  0  0  0
  -24.8704  -28.9339   20.1069 C   0  0  0  0  0  0
  -22.7492  -29.4608   22.4961 C   0  0  0  0  0  0
  -18.0271  -28.1418   22.8466 C   0  0  0  0  0  0
  -24.1492  -36.7280   23.2655 C   0  0  0  0  0  0
  -25.9733  -30.7700   21.3817 C   0  0  0  0  0  0
  -26.0461  -29.3957   20.7143 C   0  0  0  0  0  0
  -27.2216  -28.5747   20.7041 C   0  0  0  0  0  0
  -26.0154  -26.8781   19.4715 C   0  0  0  0  0  0
  -24.8594  -27.6829   19.4770 C   0  0  0  0  0  0
  -23.6395  -29.8190   20.1616 C   0  0  0  0  0  0
  -25.4128  -36.3069   24.0322 C   0  0  1  0  0  0
  -20.5869  -28.3708   23.1268 C   0  0  2  0  0  0
  -20.6761  -26.9435   22.5402 C   0  0  0  0  0  0
  -19.5750  -26.6399   21.5204 C   0  0  0  0  0  0
  -18.1918  -26.7949   22.1608 C   0  0  0  0  0  0
  -19.1528  -28.8889   23.2831 C   0  0  0  0  0  0
  -18.9464  -30.1491   23.8859 C   0  0  0  0  0  0
  -17.6457  -30.6606   24.0577 C   0  0  0  0  0  0
  -25.9076  -34.9447   23.5092 C   0  0  0  0  0  0
  -16.5345  -29.9108   23.6346 C   0  0  0  0  0  0
  -16.7250  -28.6534   23.0343 C   0  0  0  0  0  0
  -26.4489  -31.6603   25.0748 C   0  0  0  0  0  0
  -25.3695  -31.3698   26.1431 C   0  0  0  0  0  0
  -27.0389  -30.3034   24.6258 C   0  0  0  0  0  0
  -27.6048  -32.4374   25.7505 C   0  0  0  0  0  0
  -27.5574  -37.1788   24.8455 C   0  0  0  0  0  0
  -21.4207  -29.3024   22.3672 N   0  0  0  0  0  0
  -26.4285  -37.3775   23.9416 N   0  0  0  0  0  0
  -24.6964  -31.0519   22.1001 N   0  0  0  0  0  0
  -23.4181  -28.8144   23.3064 O   0  0  0  0  0  0
  -28.3099  -26.3633   20.1729 O   0  0  0  0  0  0
  -26.5658  -34.8911   22.4665 O   0  0  0  0  0  0
  -23.5452  -32.1407   23.7301 O   0  0  0  0  0  0
  -30.1080  -18.5856   17.8520 C   0  0  0  0  0  0
  -29.7941  -18.5369   20.5987 C   0  0  0  0  0  0
  -29.9602  -19.8147   18.5293 C   0  0  0  0  0  0
  -30.0846  -17.3358   18.5077 C   0  0  0  0  0  0
  -29.7669  -19.8384   19.9331 C   0  0  0  0  0  0
  -29.9687  -17.2544   19.9239 C   0  0  0  0  0  0
  -29.1013  -23.8056   20.4059 C   0  0  0  0  0  0
  -30.0300  -21.0855   17.6941 C   0  0  0  0  0  0
  -30.1181  -16.1021   17.6229 C   0  0  0  0  0  0
  -29.6404  -21.2337   20.7110 C   0  0  0  0  0  0
  -28.0560  -24.9049   19.8910 C   0  0  0  0  0  0
  -29.8863  -15.9192   20.5943 N   0  0  0  0  0  0
  -28.9075  -22.4540   20.1521 N   0  0  0  0  0  0
  -30.0728  -24.1808   21.0661 O   0  0  0  0  0  0
  -31.4828  -12.5389   19.2143 H   0  0  0  0  0  0
  -30.3743  -11.4827   20.0404 H   0  0  0  0  0  0
  -29.7874  -11.5632   17.6463 H   0  0  0  0  0  0
  -29.7291  -13.2968   17.6447 H   0  0  0  0  0  0
  -27.8054  -11.3116   18.8616 H   0  0  0  0  0  0
  -27.4301  -12.6208   17.7762 H   0  0  0  0  0  0
  -27.6348  -14.2744   19.4782 H   0  0  0  0  0  0
  -28.7138  -12.2160   21.4531 H   0  0  0  0  0  0
  -28.4299  -13.9063   21.7813 H   0  0  0  0  0  0
  -25.2811   -9.5712   22.4704 H   0  0  0  0  0  0
  -24.0029   -7.4657   22.7490 H   0  0  0  0  0  0
  -21.0856   -8.8763   19.8961 H   0  0  0  0  0  0
  -22.3710  -10.9658   19.6125 H   0  0  0  0  0  0
  -21.2037   -7.6162   23.9724 H   0  0  0  0  0  0
  -21.1473   -6.0554   25.9086 H   0  0  0  0  0  0
  -22.0594   -2.7624   23.2849 H   0  0  0  0  0  0
  -22.4184  -11.9786   22.4750 H   0  0  0  0  0  0
  -21.1115  -13.1106   22.2702 H   0  0  0  0  0  0
  -24.6591  -15.8556   20.5881 H   0  0  0  0  0  0
  -26.2431  -15.6469   20.0464 H   0  0  0  0  0  0
  -26.7168  -32.5395   23.1086 H   0  0  0  0  0  0
  -25.0002  -33.9714   25.0342 H   0  0  0  0  0  0
  -22.7210  -31.3045   21.4066 H   0  0  0  0  0  0
  -23.3771  -35.9584   23.3304 H   0  0  0  0  0  0
  -24.3569  -36.8948   22.2066 H   0  0  0  0  0  0
  -23.7238  -37.6467   23.6713 H   0  0  0  0  0  0
  -26.1106  -31.5407   20.6214 H   0  0  0  0  0  0
  -26.8485  -30.8115   22.0171 H   0  0  0  0  0  0
  -28.1233  -28.9214   21.1909 H   0  0  0  0  0  0
  -25.9251  -25.9274   18.9682 H   0  0  0  0  0  0
  -23.9586  -27.3308   18.9955 H   0  0  0  0  0  0
  -23.7577  -30.5996   19.4096 H   0  0  0  0  0  0
  -22.7537  -29.2553   19.8620 H   0  0  0  0  0  0
  -25.1324  -36.1922   25.0818 H   0  0  0  0  0  0
  -20.9904  -28.3295   24.1413 H   0  0  0  0  0  0
  -20.5688  -26.2323   23.3611 H   0  0  0  0  0  0
  -21.6632  -26.7489   22.1204 H   0  0  0  0  0  0
  -19.6930  -25.6304   21.1269 H   0  0  0  0  0  0
  -19.6707  -27.3184   20.6724 H   0  0  0  0  0  0
  -17.4185  -26.6672   21.4007 H   0  0  0  0  0  0
  -18.0314  -26.0117   22.9040 H   0  0  0  0  0  0
  -19.7950  -30.7305   24.2217 H   0  0  0  0  0  0
  -17.5030  -31.6291   24.5183 H   0  0  0  0  0  0
  -15.5350  -30.3004   23.7735 H   0  0  0  0  0  0
  -15.8644  -28.0872   22.7068 H   0  0  0  0  0  0
  -24.5897  -30.7043   25.7690 H   0  0  0  0  0  0
  -24.8833  -32.2837   26.4870 H   0  0  0  0  0  0
  -25.7987  -30.8844   27.0209 H   0  0  0  0  0  0
  -26.2996  -29.6708   24.1306 H   0  0  0  0  0  0
  -27.4108  -29.7363   25.4812 H   0  0  0  0  0  0
  -27.8847  -30.4331   23.9490 H   0  0  0  0  0  0
  -27.2673  -33.3712   26.2011 H   0  0  0  0  0  0
  -28.3856  -32.6887   25.0312 H   0  0  0  0  0  0
  -28.0695  -31.8550   26.5464 H   0  0  0  0  0  0
  -28.2571  -38.0105   24.7556 H   0  0  0  0  0  0
  -28.1110  -36.2651   24.6259 H   0  0  0  0  0  0
  -27.2277  -37.1375   25.8847 H   0  0  0  0  0  0
  -20.9430  -29.8720   21.6839 H   0  0  0  0  0  0
  -26.0177  -38.2844   24.1461 H   0  0  0  0  0  0
  -30.2171  -18.6027   16.7749 H   0  0  0  0  0  0
  -29.6834  -18.5266   21.6727 H   0  0  0  0  0  0
  -30.4052  -20.8859   16.6884 H   0  0  0  0  0  0
  -30.6956  -21.8219   18.1446 H   0  0  0  0  0  0
  -29.0383  -21.5256   17.5863 H   0  0  0  0  0  0
  -29.9484  -16.3454   16.5730 H   0  0  0  0  0  0
  -29.3276  -15.4189   17.9245 H   0  0  0  0  0  0
  -31.0809  -15.5974   17.6928 H   0  0  0  0  0  0
  -30.6635  -21.5452   20.9303 H   0  0  0  0  0  0
  -29.1956  -21.0172   21.6832 H   0  0  0  0  0  0
  -27.1112  -24.6226   20.3565 H   0  0  0  0  0  0
  -27.9352  -24.7727   18.8144 H   0  0  0  0  0  0
  -29.0218  -15.7599   21.0874 H   0  0  0  0  0  0
  -28.0961  -22.2334   19.5911 H   0  0  0  0  0  0
  1 25  1  0  0  0
  1 30  2  0  0  0
  1 82  1  0  0  0
  2  3  1  0  0  0
  2 25  1  0  0  0
  2 85  1  0  0  0
  2 86  1  0  0  0
  3  4  1  0  0  0
  3 87  1  0  0  0
  3 88  1  0  0  0
  4  5  1  0  0  0
  4 89  1  0  0  0
  4 90  1  0  0  0
  5  6  1  0  0  0
  5 26  1  0  0  0
  5 91  1  0  0  0
  6 25  1  0  0  0
  6 92  1  0  0  0
  6 93  1  0  0  0
  7  8  2  0  0  0
  7 26  1  0  0  0
  7 29  1  0  0  0
  8  9  1  0  0  0
  8 22  1  0  0  0
  9 10  1  0  0  0
  9 27  2  0  0  0
 10 11  2  0  0  0
 10 15  1  0  0  0
 11 12  1  0  0  0
 11 94  1  0  0  0
 12 13  2  0  0  0
 12 95  1  0  0  0
 13 14  1  0  0  0
 13 31  1  0  0  0
 14 15  2  0  0  0
 14 96  1  0  0  0
 15 97  1  0  0  0
 16 17  2  0  0  0
 16 21  1  0  0  0
 16 31  1  0  0  0
 17 18  1  0  0  0
 17 98  1  0  0  0
 18 19  2  0  0  0
 18 99  1  0  0  0
 19 20  1  0  0  0
 19 24  1  0  0  0
 20 21  2  0  0  0
 20100  1  0  0  0
 21 23  1  0  0  0
 22 28  1  0  0  0
 22 32  2  0  0  0
 26 27  1  0  0  0
 28101  1  0  0  0
 28102  1  0  0  0
 29103  1  0  0  0
 29104  1  0  0  0
 33 34  1  0  0  0
 33 66  1  0  0  0
 33 70  2  0  0  0
 34 36  1  0  0  0
 34 59  1  0  0  0
 34105  1  0  0  0
 35 44  2  0  0  0
 35 45  1  0  0  0
 35 68  1  0  0  0
 36 56  1  0  0  0
 36106  1  0  0  0
 37 39  1  0  0  0
 37 47  1  0  0  0
 37 66  1  0  0  0
 37107  1  0  0  0
 38 43  2  0  0  0
 38 46  1  0  0  0
 38 47  1  0  0  0
 39 64  1  0  0  0
 39 67  2  0  0  0
 40 52  1  0  0  0
 40 53  2  0  0  0
 40 58  1  0  0  0
 41108  1  0  0  0
 41109  1  0  0  0
 41110  1  0  0  0
 41 48  1  0  0  0
 42 43  1  0  0  0
 42 66  1  0  0  0
 42111  1  0  0  0
 42112  1  0  0  0
 43 44  1  0  0  0
 44113  1  0  0  0
 45 46  2  0  0  0
 45114  1  0  0  0
 46115  1  0  0  0
 47116  1  0  0  0
 47117  1  0  0  0
 48 56  1  0  0  0
 48 65  1  0  0  0
 48118  1  0  0  0
 49 50  1  0  0  0
 49 53  1  0  0  0
 49 64  1  0  0  0
 49119  1  0  0  0
 50 51  1  0  0  0
 50120  1  0  0  0
 50121  1  0  0  0
 51 52  1  0  0  0
 51122  1  0  0  0
 51123  1  0  0  0
 52124  1  0  0  0
 52125  1  0  0  0
 53 54  1  0  0  0
 54 55  2  0  0  0
 54126  1  0  0  0
 55 57  1  0  0  0
 55127  1  0  0  0
 56 69  2  0  0  0
 57 58  2  0  0  0
 57128  1  0  0  0
 58129  1  0  0  0
 59 60  1  0  0  0
 59 61  1  0  0  0
 59 62  1  0  0  0
 60130  1  0  0  0
 60131  1  0  0  0
 60132  1  0  0  0
 61133  1  0  0  0
 61134  1  0  0  0
 61135  1  0  0  0
 62136  1  0  0  0
 62137  1  0  0  0
 62138  1  0  0  0
 63 65  1  0  0  0
 63139  1  0  0  0
 63140  1  0  0  0
 63141  1  0  0  0
 64142  1  0  0  0
 65143  1  0  0  0
 68 81  1  0  0  0
 71 73  2  0  0  0
 71 74  1  0  0  0
 71144  1  0  0  0
 72 75  2  0  0  0
 72 76  1  0  0  0
 72145  1  0  0  0
 73 75  1  0  0  0
 73 78  1  0  0  0
 74 76  2  0  0  0
 74 79  1  0  0  0
 75 80  1  0  0  0
 76 82  1  0  0  0
 77 81  1  0  0  0
 77 83  1  0  0  0
 77 84  2  0  0  0
 78146  1  0  0  0
 78147  1  0  0  0
 78148  1  0  0  0
 79149  1  0  0  0
 79150  1  0  0  0
 79151  1  0  0  0
 80 83  1  0  0  0
 80152  1  0  0  0
 80153  1  0  0  0
 81154  1  0  0  0
 81155  1  0  0  0
 82156  1  0  0  0
 83157  1  0  0  0
M  ISO  4   1 100  68 101  81 101  82 100
M  END
> <chiral flag>
0

> <version>
0

> <s_m_source_file>
/data/baiqing/PycharmProjects/Reinvent-master-3.2/result/LINK_invent/BTK/process_docking_weight1_custom_product_contain_oxygen_bond_distance_aromatic_linkinvent_7_9_3/rearranged_h_0051.sdf

> <i_m_source_file_index>
54

> <r_mmod_Potential_Energy-OPLS-2005>
96.185676574707

> <r_mmod_Stretch_Energy-OPLS-2005>
128.919418334961

> <r_mmod_Bend_Energy-OPLS-2005>
159.672241210938

> <r_mmod_Torsional_Energy-OPLS-2005>
241.265930175781

> <r_mmod_Improper_Torsional_Energy-OPLS-2005>
5.46713304519653

> <r_mmod_Van_der_Waal_Energy-OPLS-2005>
145.652069091797

> <r_mmod_Electrostatic_Energy-OPLS-2005>
-426.270172119141

> <r_mmod_Solvation_Energy-OPLS-2005>
-249.556640625

> <b_mmod_Minimization_Converged-OPLS-2005>
0

> <r_mmod_RMS_Derivative-OPLS-2005>
3.87692546844482

$$$$
54
                    3D
 Structure written by MMmdl.
167176  0  0  1  0            999 V2000
  -30.6501  -14.6354   20.4813 C   0  0  0  0  0  0
  -30.4240  -12.3853   19.4570 C   0  0  0  0  0  0
  -29.5020  -12.5034   18.2249 C   0  0  0  0  0  0
  -28.0241  -12.3508   18.6349 C   0  0  0  0  0  0
  -27.6463  -13.2268   19.8601 C   0  0  2  0  0  0
  -28.6926  -13.1063   20.9902 C   0  0  0  0  0  0
  -25.2480  -13.8149   20.5666 C   0  0  0  0  0  0
  -24.1784  -13.0401   20.9187 C   0  0  0  0  0  0
  -24.6403  -11.6893   20.8759 C   0  0  0  0  0  0
  -23.9090  -10.4273   21.0419 C   0  0  0  0  0  0
  -24.3634   -9.4191   21.9199 C   0  0  0  0  0  0
  -23.6300   -8.2234   22.0765 C   0  0  0  0  0  0
  -22.4283   -8.0282   21.3552 C   0  0  0  0  0  0
  -21.9930   -9.0259   20.4648 C   0  0  0  0  0  0
  -22.7270  -10.2128   20.3060 C   0  0  0  0  0  0
  -21.6847   -6.0745   22.5287 C   0  0  0  0  0  0
  -21.4009   -6.5646   23.8224 C   0  0  0  0  0  0
  -21.3660   -5.6795   24.9183 C   0  0  0  0  0  0
  -21.6044   -4.3058   24.7228 C   0  0  0  0  0  0
  -21.8819   -3.8154   23.4346 C   0  0  0  0  0  0
  -21.9191   -4.6975   22.3405 C   0  0  0  0  0  0
  -22.7808  -13.5190   21.1856 C   0  0  0  0  0  0
  -22.1657   -4.2162   21.0980 F   0  0  0  0  0  0
  -21.5632   -3.4538   25.7738 F   0  0  0  0  0  0
  -30.0061  -13.4278   20.4167 N   0  0  0  0  0  0
  -26.2955  -12.9387   20.3331 N   0  0  0  0  0  0
  -25.9339  -11.6528   20.5792 N   0  0  0  0  0  0
  -22.0456  -12.8182   22.0415 N   0  0  0  0  0  0
  -25.4055  -15.1857   20.4053 N   0  0  0  0  0  0
  -31.8301  -14.7280   20.1358 O   0  0  0  0  0  0
  -21.6633   -6.8890   21.4249 O   0  0  0  0  0  0
  -22.3493  -14.5508   20.6727 O   0  0  0  0  0  0
  -24.6233  -31.8596   23.2005 C   0  0  0  0  0  0
  -25.9084  -32.4779   23.8341 C   0  0  1  0  0  0
  -27.2351  -27.3357   20.1233 C   0  0  0  0  0  0
  -25.5909  -33.8582   24.2275 N   0  0  0  0  0  0
  -23.4158  -30.4792   21.5427 C   0  0  2  0  0  0
  -24.8621  -28.9229   20.1193 C   0  0  0  0  0  0
  -22.7455  -29.4620   22.4954 C   0  0  0  0  0  0
  -18.0281  -28.1395   22.8484 C   0  0  0  0  0  0
  -24.1485  -36.7298   23.2640 C   0  0  0  0  0  0
  -25.9514  -30.7969   21.3641 C   0  0  0  0  0  0
  -26.0267  -29.4212   20.7145 C   0  0  0  0  0  0
  -27.2139  -28.6398   20.6997 C   0  0  0  0  0  0
  -26.0450  -26.8675   19.5278 C   0  0  0  0  0  0
  -24.8711  -27.6509   19.5197 C   0  0  0  0  0  0
  -23.6300  -29.8030   20.1611 C   0  0  0  0  0  0
  -25.4110  -36.3089   24.0331 C   0  0  1  0  0  0
  -20.5875  -28.3692   23.1294 C   0  0  2  0  0  0
  -20.6774  -26.9418   22.5418 C   0  0  0  0  0  0
  -19.5752  -26.6388   21.5218 C   0  0  0  0  0  0
  -18.1926  -26.7940   22.1620 C   0  0  0  0  0  0
  -19.1532  -28.8860   23.2885 C   0  0  0  0  0  0
  -18.9458  -30.1463   23.8904 C   0  0  0  0  0  0
  -17.6461  -30.6598   24.0564 C   0  0  0  0  0  0
  -25.9043  -34.9455   23.5104 C   0  0  0  0  0  0
  -16.5351  -29.9100   23.6329 C   0  0  0  0  0  0
  -16.7271  -28.6518   23.0346 C   0  0  0  0  0  0
  -26.4483  -31.6590   25.0708 C   0  0  0  0  0  0
  -25.3731  -31.3716   26.1446 C   0  0  0  0  0  0
  -27.0330  -30.3024   24.6144 C   0  0  0  0  0  0
  -27.6046  -32.4319   25.7485 C   0  0  0  0  0  0
  -27.5582  -37.1803   24.8460 C   0  0  0  0  0  0
  -21.4171  -29.3050   22.3699 N   0  0  0  0  0  0
  -26.4288  -37.3781   23.9412 N   0  0  0  0  0  0
  -24.6824  -31.0620   22.0941 N   0  0  0  0  0  0
  -23.4188  -28.8173   23.3037 O   0  0  0  0  0  0
  -28.4152  -26.5881   20.1302 O   0  0  0  0  0  0
  -26.5612  -34.8921   22.4672 O   0  0  0  0  0  0
  -23.5401  -32.1395   23.7343 O   0  0  0  0  0  0
  -31.7627  -19.0588   20.4962 C   0  0  0  0  0  0
  -30.7192  -20.0069   20.4725 C   0  0  0  0  0  0
  -31.5006  -17.6748   20.5817 C   0  0  0  0  0  0
  -29.3729  -19.5898   20.5350 C   0  0  0  0  0  0
  -30.1755  -17.1802   20.6346 C   0  0  0  0  0  0
  -29.1257  -18.1668   20.6156 C   0  0  0  0  0  0
  -27.2525  -23.0095   21.1674 C   0  0  0  0  0  0
  -25.9446  -22.6665   21.3502 C   0  0  0  0  0  0
  -27.7986  -24.4394   21.4495 C   0  0  0  0  0  0
  -28.3327  -24.2354   18.9695 C   0  0  0  0  0  0
  -28.7577  -22.7316   19.1934 C   0  0  0  0  0  0
  -28.5031  -25.1151   20.2378 C   0  0  1  0  0  0
  -25.2644  -21.4022   20.8448 C   0  0  0  0  0  0
  -24.9566  -23.5813   22.0639 C   0  0  0  0  0  0
  -28.1823  -20.6185   20.5377 C   0  0  0  0  0  0
  -29.8769  -15.7433   20.7326 N   0  0  0  0  0  0
  -28.3441  -22.1437   20.5115 N   0  3  2  0  0  0
  -27.4936  -17.6093   20.6950 Cl  0  0  0  0  0  0
  -31.4682  -12.4877   19.1560 H   0  0  0  0  0  0
  -30.3408  -11.3960   19.9103 H   0  0  0  0  0  0
  -29.7626  -11.7493   17.4811 H   0  0  0  0  0  0
  -29.6519  -13.4719   17.7452 H   0  0  0  0  0  0
  -27.8546  -11.2984   18.8651 H   0  0  0  0  0  0
  -27.3733  -12.5861   17.7919 H   0  0  0  0  0  0
  -27.6541  -14.2594   19.5103 H   0  0  0  0  0  0
  -28.6997  -12.0964   21.4023 H   0  0  0  0  0  0
  -28.4477  -13.7700   21.8210 H   0  0  0  0  0  0
  -25.2778   -9.5658   22.4775 H   0  0  0  0  0  0
  -24.0004   -7.4618   22.7483 H   0  0  0  0  0  0
  -21.0867   -8.8789   19.8944 H   0  0  0  0  0  0
  -22.3751  -10.9674   19.6164 H   0  0  0  0  0  0
  -21.1998   -7.6153   23.9733 H   0  0  0  0  0  0
  -21.1479   -6.0521   25.9087 H   0  0  0  0  0  0
  -22.0596   -2.7617   23.2845 H   0  0  0  0  0  0
  -22.4064  -11.9824   22.4768 H   0  0  0  0  0  0
  -21.1084  -13.1221   22.2644 H   0  0  0  0  0  0
  -24.6338  -15.8294   20.5355 H   0  0  0  0  0  0
  -26.2624  -15.6547   20.1407 H   0  0  0  0  0  0
  -26.7155  -32.5459   23.1097 H   0  0  0  0  0  0
  -25.0064  -33.9737   25.0424 H   0  0  0  0  0  0
  -22.7089  -31.2979   21.3942 H   0  0  0  0  0  0
  -23.3755  -35.9619   23.3279 H   0  0  0  0  0  0
  -24.3575  -36.8949   22.2059 H   0  0  0  0  0  0
  -23.7224  -37.6486   23.6680 H   0  0  0  0  0  0
  -26.0697  -31.5560   20.5894 H   0  0  0  0  0  0
  -26.8360  -30.8546   21.9869 H   0  0  0  0  0  0
  -28.1155  -29.0248   21.1554 H   0  0  0  0  0  0
  -26.0076  -25.8964   19.0632 H   0  0  0  0  0  0
  -23.9749  -27.2615   19.0566 H   0  0  0  0  0  0
  -23.7501  -30.5736   19.3985 H   0  0  0  0  0  0
  -22.7512  -29.2293   19.8609 H   0  0  0  0  0  0
  -25.1288  -36.1941   25.0823 H   0  0  0  0  0  0
  -20.9961  -28.3274   24.1415 H   0  0  0  0  0  0
  -20.5675  -26.2307   23.3618 H   0  0  0  0  0  0
  -21.6644  -26.7449   22.1214 H   0  0  0  0  0  0
  -19.6909  -25.6293   21.1261 H   0  0  0  0  0  0
  -19.6695  -27.3189   20.6736 H   0  0  0  0  0  0
  -17.4198  -26.6690   21.4019 H   0  0  0  0  0  0
  -18.0317  -26.0086   22.9016 H   0  0  0  0  0  0
  -19.7934  -30.7275   24.2281 H   0  0  0  0  0  0
  -17.5016  -31.6277   24.5165 H   0  0  0  0  0  0
  -15.5354  -30.3006   23.7653 H   0  0  0  0  0  0
  -15.8668  -28.0847   22.7051 H   0  0  0  0  0  0
  -24.5896  -30.7077   25.7775 H   0  0  0  0  0  0
  -24.8932  -32.2879   26.4896 H   0  0  0  0  0  0
  -25.8065  -30.8878   27.0209 H   0  0  0  0  0  0
  -26.2901  -29.6770   24.1184 H   0  0  0  0  0  0
  -27.4062  -29.7281   25.4634 H   0  0  0  0  0  0
  -27.8746  -30.4322   23.9335 H   0  0  0  0  0  0
  -27.2669  -33.3638   26.2033 H   0  0  0  0  0  0
  -28.3880  -32.6849   25.0329 H   0  0  0  0  0  0
  -28.0682  -31.8456   26.5431 H   0  0  0  0  0  0
  -28.2579  -38.0119   24.7529 H   0  0  0  0  0  0
  -28.1100  -36.2651   24.6260 H   0  0  0  0  0  0
  -27.2302  -37.1421   25.8862 H   0  0  0  0  0  0
  -20.9350  -29.8795   21.6925 H   0  0  0  0  0  0
  -26.0172  -38.2854   24.1424 H   0  0  0  0  0  0
  -32.7893  -19.3974   20.4564 H   0  0  0  0  0  0
  -30.9801  -21.0526   20.4129 H   0  0  0  0  0  0
  -32.3507  -17.0106   20.6124 H   0  0  0  0  0  0
  -28.4676  -24.4079   22.3101 H   0  0  0  0  0  0
  -26.9911  -25.1029   21.7453 H   0  0  0  0  0  0
  -27.2958  -24.2531   18.6386 H   0  0  0  0  0  0
  -28.9104  -24.6545   18.1454 H   0  0  0  0  0  0
  -29.8403  -22.6405   19.1072 H   0  0  0  0  0  0
  -28.3432  -22.1340   18.3813 H   0  0  0  0  0  0
  -29.5652  -25.0054   20.4625 H   0  0  0  0  0  0
  -25.5930  -21.1318   19.8442 H   0  0  0  0  0  0
  -24.1895  -21.5605   20.7496 H   0  0  0  0  0  0
  -25.4036  -20.5679   21.5326 H   0  0  0  0  0  0
  -25.4276  -24.1772   22.8450 H   0  0  0  0  0  0
  -24.1831  -22.9997   22.5661 H   0  0  0  0  0  0
  -24.4705  -24.2512   21.3541 H   0  0  0  0  0  0
  -27.6570  -20.3841   21.4626 H   0  0  0  0  0  0
  -27.5369  -20.3203   19.7145 H   0  0  0  0  0  0
  -28.9085  -15.5355   20.9215 H   0  0  0  0  0  0
  -29.1522  -22.2730   21.1005 H   0  0  0  0  0  0
  1 25  1  0  0  0
  1 30  2  0  0  0
  1 86  1  0  0  0
  2  3  1  0  0  0
  2 25  1  0  0  0
  2 89  1  0  0  0
  2 90  1  0  0  0
  3  4  1  0  0  0
  3 91  1  0  0  0
  3 92  1  0  0  0
  4  5  1  0  0  0
  4 93  1  0  0  0
  4 94  1  0  0  0
  5  6  1  0  0  0
  5 26  1  0  0  0
  5 95  1  0  0  0
  6 25  1  0  0  0
  6 96  1  0  0  0
  6 97  1  0  0  0
  7  8  2  0  0  0
  7 26  1  0  0  0
  7 29  1  0  0  0
  8  9  1  0  0  0
  8 22  1  0  0  0
  9 10  1  0  0  0
  9 27  2  0  0  0
 10 11  2  0  0  0
 10 15  1  0  0  0
 11 12  1  0  0  0
 11 98  1  0  0  0
 12 13  2  0  0  0
 12 99  1  0  0  0
 13 14  1  0  0  0
 13 31  1  0  0  0
 14 15  2  0  0  0
 14100  1  0  0  0
 15101  1  0  0  0
 16 17  2  0  0  0
 16 21  1  0  0  0
 16 31  1  0  0  0
 17 18  1  0  0  0
 17102  1  0  0  0
 18 19  2  0  0  0
 18103  1  0  0  0
 19 20  1  0  0  0
 19 24  1  0  0  0
 20 21  2  0  0  0
 20104  1  0  0  0
 21 23  1  0  0  0
 22 28  1  0  0  0
 22 32  2  0  0  0
 26 27  1  0  0  0
 28105  1  0  0  0
 28106  1  0  0  0
 29107  1  0  0  0
 29108  1  0  0  0
 33 34  1  0  0  0
 33 66  1  0  0  0
 33 70  2  0  0  0
 34 36  1  0  0  0
 34 59  1  0  0  0
 34109  1  0  0  0
 35 44  2  0  0  0
 35 45  1  0  0  0
 35 68  1  0  0  0
 36 56  1  0  0  0
 36110  1  0  0  0
 37 39  1  0  0  0
 37 47  1  0  0  0
 37 66  1  0  0  0
 37111  1  0  0  0
 38 43  2  0  0  0
 38 46  1  0  0  0
 38 47  1  0  0  0
 39 64  1  0  0  0
 39 67  2  0  0  0
 40 52  1  0  0  0
 40 53  2  0  0  0
 40 58  1  0  0  0
 41112  1  0  0  0
 41113  1  0  0  0
 41114  1  0  0  0
 41 48  1  0  0  0
 42 43  1  0  0  0
 42 66  1  0  0  0
 42115  1  0  0  0
 42116  1  0  0  0
 43 44  1  0  0  0
 44117  1  0  0  0
 45 46  2  0  0  0
 45118  1  0  0  0
 46119  1  0  0  0
 47120  1  0  0  0
 47121  1  0  0  0
 48 56  1  0  0  0
 48 65  1  0  0  0
 48122  1  0  0  0
 49 50  1  0  0  0
 49 53  1  0  0  0
 49 64  1  0  0  0
 49123  1  0  0  0
 50 51  1  0  0  0
 50124  1  0  0  0
 50125  1  0  0  0
 51 52  1  0  0  0
 51126  1  0  0  0
 51127  1  0  0  0
 52128  1  0  0  0
 52129  1  0  0  0
 53 54  1  0  0  0
 54 55  2  0  0  0
 54130  1  0  0  0
 55 57  1  0  0  0
 55131  1  0  0  0
 56 69  2  0  0  0
 57 58  2  0  0  0
 57132  1  0  0  0
 58133  1  0  0  0
 59 60  1  0  0  0
 59 61  1  0  0  0
 59 62  1  0  0  0
 60134  1  0  0  0
 60135  1  0  0  0
 60136  1  0  0  0
 61137  1  0  0  0
 61138  1  0  0  0
 61139  1  0  0  0
 62140  1  0  0  0
 62141  1  0  0  0
 62142  1  0  0  0
 63 65  1  0  0  0
 63143  1  0  0  0
 63144  1  0  0  0
 63145  1  0  0  0
 64146  1  0  0  0
 65147  1  0  0  0
 68 82  1  0  0  0
 71 72  2  0  0  0
 71 73  1  0  0  0
 71148  1  0  0  0
 72 74  1  0  0  0
 72149  1  0  0  0
 73 75  2  0  0  0
 73150  1  0  0  0
 74 76  2  0  0  0
 74 85  1  0  0  0
 75 76  1  0  0  0
 75 86  1  0  0  0
 76 88  1  0  0  0
 77 78  2  0  0  0
 77 79  1  0  0  0
 77 87  1  0  0  0
 78 83  1  0  0  0
 78 84  1  0  0  0
 79 82  1  0  0  0
 79151  1  0  0  0
 79152  1  0  0  0
 80 81  1  0  0  0
 80 82  1  0  0  0
 80153  1  0  0  0
 80154  1  0  0  0
 81 87  1  0  0  0
 81155  1  0  0  0
 81156  1  0  0  0
 82157  1  0  0  0
 83158  1  0  0  0
 83159  1  0  0  0
 83160  1  0  0  0
 84161  1  0  0  0
 84162  1  0  0  0
 84163  1  0  0  0
 85164  1  0  0  0
 85165  1  0  0  0
 85 87  1  0  0  0
 86166  1  0  0  0
 87167  1  0  0  0
M  CHG  1  87   1
M  ISO  4   1 100  68 101  82 101  86 100
M  END
> <chiral flag>
0

> <version>
0

> <s_m_source_file>
/data/baiqing/PycharmProjects/Reinvent-master-3.2/result/LINK_invent/BTK/process_docking_weight1_custom_product_contain_oxygen_bond_distance_aromatic_linkinvent_7_9_3/rearranged_h_0051.sdf

> <i_m_source_file_index>
55

> <r_mmod_Potential_Energy-OPLS-2005>
-47.9914703369141

> <r_mmod_Stretch_Energy-OPLS-2005>
87.2236480712891

> <r_mmod_Bend_Energy-OPLS-2005>
188.083511352539

> <r_mmod_Torsional_Energy-OPLS-2005>
258.123352050781

> <r_mmod_Improper_Torsional_Energy-OPLS-2005>
4.90713214874268

> <r_mmod_Van_der_Waal_Energy-OPLS-2005>
156.904647827148

> <r_mmod_Electrostatic_Energy-OPLS-2005>
-343.300994873047

> <r_mmod_Solvation_Energy-OPLS-2005>
-441.427703857422

> <b_mmod_Minimization_Converged-OPLS-2005>
0

> <r_mmod_RMS_Derivative-OPLS-2005>
1.1285924911499

$$$$
55
                    3D
 Structure written by MMmdl.
155163  0  0  1  0            999 V2000
  -30.6657  -14.5910   20.5635 C   0  0  0  0  0  0
  -30.4367  -12.3792   19.4438 C   0  0  0  0  0  0
  -29.5062  -12.5184   18.2186 C   0  0  0  0  0  0
  -28.0315  -12.3360   18.6277 C   0  0  0  0  0  0
  -27.6544  -13.1991   19.8584 C   0  0  2  0  0  0
  -28.6983  -13.0425   20.9917 C   0  0  0  0  0  0
  -25.2428  -13.7977   20.5559 C   0  0  0  0  0  0
  -24.1774  -13.0283   20.9221 C   0  0  0  0  0  0
  -24.6383  -11.6792   20.8763 C   0  0  0  0  0  0
  -23.9054  -10.4212   21.0411 C   0  0  0  0  0  0
  -24.3611   -9.4143   21.9189 C   0  0  0  0  0  0
  -23.6280   -8.2190   22.0753 C   0  0  0  0  0  0
  -22.4259   -8.0239   21.3545 C   0  0  0  0  0  0
  -21.9898   -9.0208   20.4641 C   0  0  0  0  0  0
  -22.7230  -10.2079   20.3049 C   0  0  0  0  0  0
  -21.6833   -6.0720   22.5282 C   0  0  0  0  0  0
  -21.3994   -6.5626   23.8216 C   0  0  0  0  0  0
  -21.3661   -5.6781   24.9180 C   0  0  0  0  0  0
  -21.6046   -4.3044   24.7232 C   0  0  0  0  0  0
  -21.8820   -3.8136   23.4352 C   0  0  0  0  0  0
  -21.9189   -4.6953   22.3411 C   0  0  0  0  0  0
  -22.7805  -13.5122   21.1874 C   0  0  0  0  0  0
  -22.1654   -4.2144   21.0988 F   0  0  0  0  0  0
  -21.5646   -3.4530   25.7747 F   0  0  0  0  0  0
  -30.0294  -13.3797   20.4520 N   0  0  0  0  0  0
  -26.2954  -12.9240   20.3232 N   0  0  0  0  0  0
  -25.9312  -11.6406   20.5748 N   0  0  0  0  0  0
  -22.0437  -12.8157   22.0445 N   0  0  0  0  0  0
  -25.3722  -15.1642   20.3754 N   0  0  0  0  0  0
  -31.7626  -14.8006   20.0376 O   0  0  0  0  0  0
  -21.6609   -6.8849   21.4242 O   0  0  0  0  0  0
  -22.3519  -14.5440   20.6710 O   0  0  0  0  0  0
  -24.6199  -31.8620   23.2036 C   0  0  0  0  0  0
  -25.9068  -32.4794   23.8348 C   0  0  1  0  0  0
  -27.2433  -27.3702   20.1063 C   0  0  0  0  0  0
  -25.5901  -33.8592   24.2272 N   0  0  0  0  0  0
  -23.4113  -30.4813   21.5468 C   0  0  2  0  0  0
  -24.8592  -28.9345   20.1136 C   0  0  0  0  0  0
  -22.7438  -29.4626   22.4993 C   0  0  0  0  0  0
  -18.0277  -28.1383   22.8506 C   0  0  0  0  0  0
  -24.1487  -36.7291   23.2635 C   0  0  0  0  0  0
  -25.9454  -30.8058   21.3673 C   0  0  0  0  0  0
  -26.0218  -29.4366   20.7099 C   0  0  0  0  0  0
  -27.2118  -28.6634   20.6980 C   0  0  0  0  0  0
  -26.0556  -26.8952   19.5029 C   0  0  0  0  0  0
  -24.8743  -27.6656   19.5072 C   0  0  0  0  0  0
  -23.6219  -29.8061   20.1641 C   0  0  0  0  0  0
  -25.4118  -36.3088   24.0323 C   0  0  1  0  0  0
  -20.5871  -28.3666   23.1326 C   0  0  2  0  0  0
  -20.6773  -26.9404   22.5428 C   0  0  0  0  0  0
  -19.5752  -26.6387   21.5228 C   0  0  0  0  0  0
  -18.1927  -26.7933   22.1632 C   0  0  0  0  0  0
  -19.1526  -28.8847   23.2909 C   0  0  0  0  0  0
  -18.9450  -30.1460   23.8912 C   0  0  0  0  0  0
  -17.6448  -30.6594   24.0566 C   0  0  0  0  0  0
  -25.9050  -34.9459   23.5099 C   0  0  0  0  0  0
  -16.5341  -29.9087   23.6337 C   0  0  0  0  0  0
  -16.7263  -28.6502   23.0363 C   0  0  0  0  0  0
  -26.4472  -31.6612   25.0720 C   0  0  0  0  0  0
  -25.3721  -31.3730   26.1459 C   0  0  0  0  0  0
  -27.0305  -30.3041   24.6161 C   0  0  0  0  0  0
  -27.6043  -32.4348   25.7487 C   0  0  0  0  0  0
  -27.5586  -37.1795   24.8462 C   0  0  0  0  0  0
  -21.4161  -29.3016   22.3723 N   0  0  0  0  0  0
  -26.4295  -37.3788   23.9409 N   0  0  0  0  0  0
  -24.6772  -31.0662   22.0966 N   0  0  0  0  0  0
  -23.4182  -28.8196   23.3081 O   0  0  0  0  0  0
  -28.4116  -26.6118   20.1719 O   0  0  0  0  0  0
  -26.5631  -34.8926   22.4675 O   0  0  0  0  0  0
  -23.5380  -32.1404   23.7396 O   0  0  0  0  0  0
  -30.3243  -18.0900   20.8294 C   0  0  0  0  0  0
  -28.3636  -19.3500   20.0692 C   0  0  0  0  0  0
  -28.2191  -16.9534   20.4444 C   0  0  0  0  0  0
  -29.7093  -19.3472   20.4795 C   0  0  0  0  0  0
  -29.5758  -16.8648   20.8068 C   0  0  0  0  0  0
  -27.6216  -18.1636   20.0488 C   0  0  0  0  0  0
  -29.0755  -24.2847   20.4717 C   0  0  0  0  0  0
  -28.4896  -25.2840   19.7480 C   0  0  0  0  0  0
  -29.2988  -22.9144   19.9440 C   0  0  0  0  0  0
  -29.4346  -22.0710   22.2820 C   0  0  0  0  0  0
  -30.4570  -20.7057   20.4793 C   0  0  0  0  0  0
  -30.0172  -15.5582   21.2678 N   0  0  0  0  0  0
  -29.6922  -21.9503   20.8429 N   0  0  0  0  0  0
  -29.2436  -22.6593   18.7377 O   0  0  0  0  0  0
  -25.9742  -18.2133   19.5390 Cl  0  0  0  0  0  0
  -31.4779  -12.4997   19.1404 H   0  0  0  0  0  0
  -30.3671  -11.3741   19.8628 H   0  0  0  0  0  0
  -29.7774  -11.7887   17.4546 H   0  0  0  0  0  0
  -29.6423  -13.5006   17.7627 H   0  0  0  0  0  0
  -27.8753  -11.2807   18.8542 H   0  0  0  0  0  0
  -27.3746  -12.5655   17.7876 H   0  0  0  0  0  0
  -27.6755  -14.2252   19.5041 H   0  0  0  0  0  0
  -28.7023  -12.0136   21.3563 H   0  0  0  0  0  0
  -28.4249  -13.6542   21.8512 H   0  0  0  0  0  0
  -25.2751   -9.5631   22.4769 H   0  0  0  0  0  0
  -23.9980   -7.4586   22.7481 H   0  0  0  0  0  0
  -21.0819   -8.8723   19.8957 H   0  0  0  0  0  0
  -22.3680  -10.9621   19.6163 H   0  0  0  0  0  0
  -21.1956   -7.6132   23.9719 H   0  0  0  0  0  0
  -21.1488   -6.0510   25.9088 H   0  0  0  0  0  0
  -22.0602   -2.7598   23.2852 H   0  0  0  0  0  0
  -22.4028  -11.9820   22.4855 H   0  0  0  0  0  0
  -21.1059  -13.1211   22.2632 H   0  0  0  0  0  0
  -24.5603  -15.7659   20.4553 H   0  0  0  0  0  0
  -26.1158  -15.5951   19.8453 H   0  0  0  0  0  0
  -26.7135  -32.5465   23.1097 H   0  0  0  0  0  0
  -25.0038  -33.9751   25.0405 H   0  0  0  0  0  0
  -22.7028  -31.2998   21.4028 H   0  0  0  0  0  0
  -23.3761  -35.9610   23.3300 H   0  0  0  0  0  0
  -24.3569  -36.8914   22.2047 H   0  0  0  0  0  0
  -23.7229  -37.6486   23.6663 H   0  0  0  0  0  0
  -26.0738  -31.5736   20.6031 H   0  0  0  0  0  0
  -26.8252  -30.8503   21.9976 H   0  0  0  0  0  0
  -28.1087  -29.0476   21.1634 H   0  0  0  0  0  0
  -26.0189  -25.9181   19.0440 H   0  0  0  0  0  0
  -23.9777  -27.2675   19.0522 H   0  0  0  0  0  0
  -23.7303  -30.5770   19.4006 H   0  0  0  0  0  0
  -22.7442  -29.2258   19.8722 H   0  0  0  0  0  0
  -25.1302  -36.1935   25.0817 H   0  0  0  0  0  0
  -20.9951  -28.3227   24.1452 H   0  0  0  0  0  0
  -20.5696  -26.2266   23.3614 H   0  0  0  0  0  0
  -21.6642  -26.7469   22.1201 H   0  0  0  0  0  0
  -19.6908  -25.6298   21.1260 H   0  0  0  0  0  0
  -19.6694  -27.3201   20.6763 H   0  0  0  0  0  0
  -17.4203  -26.6702   21.4026 H   0  0  0  0  0  0
  -18.0313  -26.0068   22.9020 H   0  0  0  0  0  0
  -19.7922  -30.7282   24.2278 H   0  0  0  0  0  0
  -17.4998  -31.6281   24.5154 H   0  0  0  0  0  0
  -15.5341  -30.2985   23.7662 H   0  0  0  0  0  0
  -15.8665  -28.0819   22.7080 H   0  0  0  0  0  0
  -24.5881  -30.7109   25.7771 H   0  0  0  0  0  0
  -24.8934  -32.2887   26.4937 H   0  0  0  0  0  0
  -25.8049  -30.8856   27.0203 H   0  0  0  0  0  0
  -26.2862  -29.6816   24.1187 H   0  0  0  0  0  0
  -27.3998  -29.7288   25.4658 H   0  0  0  0  0  0
  -27.8734  -30.4331   23.9371 H   0  0  0  0  0  0
  -27.2654  -33.3631   26.2100 H   0  0  0  0  0  0
  -28.3832  -32.6946   25.0304 H   0  0  0  0  0  0
  -28.0746  -31.8464   26.5377 H   0  0  0  0  0  0
  -28.2596  -38.0103   24.7541 H   0  0  0  0  0  0
  -28.1095  -36.2639   24.6254 H   0  0  0  0  0  0
  -27.2306  -37.1395   25.8865 H   0  0  0  0  0  0
  -20.9345  -29.8677   21.6880 H   0  0  0  0  0  0
  -26.0177  -38.2857   24.1440 H   0  0  0  0  0  0
  -31.3587  -18.0754   21.1442 H   0  0  0  0  0  0
  -27.8842  -20.2691   19.7650 H   0  0  0  0  0  0
  -27.6200  -16.0699   20.4884 H   0  0  0  0  0  0
  -29.4323  -24.5336   21.4588 H   0  0  0  0  0  0
  -28.0852  -25.1389   18.7552 H   0  0  0  0  0  0
  -28.4191  -22.4230   22.4715 H   0  0  0  0  0  0
  -30.1352  -22.7641   22.7488 H   0  0  0  0  0  0
  -29.5362  -21.1117   22.7915 H   0  0  0  0  0  0
  -30.9000  -20.8285   19.4896 H   0  0  0  0  0  0
  -31.3099  -20.6252   21.1558 H   0  0  0  0  0  0
  -29.3088  -15.1051   21.8263 H   0  0  0  0  0  0
  1 25  1  0  0  0
  1 30  2  0  0  0
  1 82  1  0  0  0
  2  3  1  0  0  0
  2 25  1  0  0  0
  2 86  1  0  0  0
  2 87  1  0  0  0
  3  4  1  0  0  0
  3 88  1  0  0  0
  3 89  1  0  0  0
  4  5  1  0  0  0
  4 90  1  0  0  0
  4 91  1  0  0  0
  5  6  1  0  0  0
  5 26  1  0  0  0
  5 92  1  0  0  0
  6 25  1  0  0  0
  6 93  1  0  0  0
  6 94  1  0  0  0
  7  8  2  0  0  0
  7 26  1  0  0  0
  7 29  1  0  0  0
  8  9  1  0  0  0
  8 22  1  0  0  0
  9 10  1  0  0  0
  9 27  2  0  0  0
 10 11  2  0  0  0
 10 15  1  0  0  0
 11 12  1  0  0  0
 11 95  1  0  0  0
 12 13  2  0  0  0
 12 96  1  0  0  0
 13 14  1  0  0  0
 13 31  1  0  0  0
 14 15  2  0  0  0
 14 97  1  0  0  0
 15 98  1  0  0  0
 16 17  2  0  0  0
 16 21  1  0  0  0
 16 31  1  0  0  0
 17 18  1  0  0  0
 17 99  1  0  0  0
 18 19  2  0  0  0
 18100  1  0  0  0
 19 20  1  0  0  0
 19 24  1  0  0  0
 20 21  2  0  0  0
 20101  1  0  0  0
 21 23  1  0  0  0
 22 28  1  0  0  0
 22 32  2  0  0  0
 26 27  1  0  0  0
 28102  1  0  0  0
 28103  1  0  0  0
 29104  1  0  0  0
 29105  1  0  0  0
 33 34  1  0  0  0
 33 66  1  0  0  0
 33 70  2  0  0  0
 34 36  1  0  0  0
 34 59  1  0  0  0
 34106  1  0  0  0
 35 44  2  0  0  0
 35 45  1  0  0  0
 35 68  1  0  0  0
 36 56  1  0  0  0
 36107  1  0  0  0
 37 39  1  0  0  0
 37 47  1  0  0  0
 37 66  1  0  0  0
 37108  1  0  0  0
 38 43  2  0  0  0
 38 46  1  0  0  0
 38 47  1  0  0  0
 39 64  1  0  0  0
 39 67  2  0  0  0
 40 52  1  0  0  0
 40 53  2  0  0  0
 40 58  1  0  0  0
 41109  1  0  0  0
 41110  1  0  0  0
 41111  1  0  0  0
 41 48  1  0  0  0
 42 43  1  0  0  0
 42 66  1  0  0  0
 42112  1  0  0  0
 42113  1  0  0  0
 43 44  1  0  0  0
 44114  1  0  0  0
 45 46  2  0  0  0
 45115  1  0  0  0
 46116  1  0  0  0
 47117  1  0  0  0
 47118  1  0  0  0
 48 56  1  0  0  0
 48 65  1  0  0  0
 48119  1  0  0  0
 49 50  1  0  0  0
 49 53  1  0  0  0
 49 64  1  0  0  0
 49120  1  0  0  0
 50 51  1  0  0  0
 50121  1  0  0  0
 50122  1  0  0  0
 51 52  1  0  0  0
 51123  1  0  0  0
 51124  1  0  0  0
 52125  1  0  0  0
 52126  1  0  0  0
 53 54  1  0  0  0
 54 55  2  0  0  0
 54127  1  0  0  0
 55 57  1  0  0  0
 55128  1  0  0  0
 56 69  2  0  0  0
 57 58  2  0  0  0
 57129  1  0  0  0
 58130  1  0  0  0
 59 60  1  0  0  0
 59 61  1  0  0  0
 59 62  1  0  0  0
 60131  1  0  0  0
 60132  1  0  0  0
 60133  1  0  0  0
 61134  1  0  0  0
 61135  1  0  0  0
 61136  1  0  0  0
 62137  1  0  0  0
 62138  1  0  0  0
 62139  1  0  0  0
 63 65  1  0  0  0
 63140  1  0  0  0
 63141  1  0  0  0
 63142  1  0  0  0
 64143  1  0  0  0
 65144  1  0  0  0
 68 78  1  0  0  0
 71 74  2  0  0  0
 71 75  1  0  0  0
 71145  1  0  0  0
 72 74  1  0  0  0
 72 76  2  0  0  0
 72146  1  0  0  0
 73 75  2  0  0  0
 73 76  1  0  0  0
 73147  1  0  0  0
 74 81  1  0  0  0
 75 82  1  0  0  0
 76 85  1  0  0  0
 77 78  2  0  0  0
 77 79  1  0  0  0
 77148  1  0  0  0
 78149  1  0  0  0
 79 83  1  0  0  0
 79 84  2  0  0  0
 80 83  1  0  0  0
 80150  1  0  0  0
 80151  1  0  0  0
 80152  1  0  0  0
 81 83  1  0  0  0
 81153  1  0  0  0
 81154  1  0  0  0
 82155  1  0  0  0
M  ISO  4   1 100  68 101  78 101  82 100
M  END
> <chiral flag>
0

> <version>
0

> <s_m_source_file>
/data/baiqing/PycharmProjects/Reinvent-master-3.2/result/LINK_invent/BTK/process_docking_weight1_custom_product_contain_oxygen_bond_distance_aromatic_linkinvent_7_9_3/rearranged_h_0051.sdf

> <i_m_source_file_index>
56

> <r_mmod_Potential_Energy-OPLS-2005>
55.6308364868164

> <r_mmod_Stretch_Energy-OPLS-2005>
64.1297378540039

> <r_mmod_Bend_Energy-OPLS-2005>
128.560684204102

> <r_mmod_Torsional_Energy-OPLS-2005>
263.214996337891

> <r_mmod_Improper_Torsional_Energy-OPLS-2005>
9.54662322998047

> <r_mmod_Van_der_Waal_Energy-OPLS-2005>
150.036331176758

> <r_mmod_Electrostatic_Energy-OPLS-2005>
-369.463409423828

> <r_mmod_Solvation_Energy-OPLS-2005>
-221.719024658203

> <b_mmod_Minimization_Converged-OPLS-2005>
0

> <r_mmod_RMS_Derivative-OPLS-2005>
1.49294316768646

$$$$
56
                    3D
 Structure written by MMmdl.
158167  0  0  1  0            999 V2000
  -30.6487  -14.6108   20.4639 C   0  0  0  0  0  0
  -30.4282  -12.3580   19.4676 C   0  0  0  0  0  0
  -29.5119  -12.4983   18.2305 C   0  0  0  0  0  0
  -28.0276  -12.3682   18.6282 C   0  0  0  0  0  0
  -27.6548  -13.2245   19.8691 C   0  0  2  0  0  0
  -28.6986  -13.0805   21.0036 C   0  0  0  0  0  0
  -25.2584  -13.8230   20.5713 C   0  0  0  0  0  0
  -24.1842  -13.0482   20.9158 C   0  0  0  0  0  0
  -24.6393  -11.6947   20.8716 C   0  0  0  0  0  0
  -23.9071  -10.4318   21.0408 C   0  0  0  0  0  0
  -24.3634   -9.4258   21.9204 C   0  0  0  0  0  0
  -23.6296   -8.2287   22.0776 C   0  0  0  0  0  0
  -22.4280   -8.0293   21.3567 C   0  0  0  0  0  0
  -21.9916   -9.0263   20.4686 C   0  0  0  0  0  0
  -22.7245  -10.2133   20.3079 C   0  0  0  0  0  0
  -21.6862   -6.0736   22.5276 C   0  0  0  0  0  0
  -21.4015   -6.5647   23.8207 C   0  0  0  0  0  0
  -21.3664   -5.6812   24.9172 C   0  0  0  0  0  0
  -21.6058   -4.3076   24.7244 C   0  0  0  0  0  0
  -21.8833   -3.8160   23.4369 C   0  0  0  0  0  0
  -21.9195   -4.6967   22.3426 C   0  0  0  0  0  0
  -22.7854  -13.5256   21.1817 C   0  0  0  0  0  0
  -22.1668   -4.2160   21.0995 F   0  0  0  0  0  0
  -21.5634   -3.4553   25.7748 F   0  0  0  0  0  0
  -30.0194  -13.3948   20.4383 N   0  0  0  0  0  0
  -26.3004  -12.9412   20.3347 N   0  0  0  0  0  0
  -25.9328  -11.6563   20.5782 N   0  0  0  0  0  0
  -22.0535  -12.8212   22.0374 N   0  0  0  0  0  0
  -25.4361  -15.1967   20.4135 N   0  0  0  0  0  0
  -31.8127  -14.7329   20.0783 O   0  0  0  0  0  0
  -21.6679   -6.8862   21.4227 O   0  0  0  0  0  0
  -22.3543  -14.5542   20.6652 O   0  0  0  0  0  0
  -24.6198  -31.8665   23.2102 C   0  0  0  0  0  0
  -25.9054  -32.4823   23.8427 C   0  0  1  0  0  0
  -27.2212  -27.3528   20.1185 C   0  0  0  0  0  0
  -25.5886  -33.8631   24.2359 N   0  0  0  0  0  0
  -23.4154  -30.4910   21.5524 C   0  0  2  0  0  0
  -24.8638  -28.9546   20.1166 C   0  0  0  0  0  0
  -22.7477  -29.4640   22.4975 C   0  0  0  0  0  0
  -18.0282  -28.1391   22.8471 C   0  0  0  0  0  0
  -24.1486  -36.7300   23.2647 C   0  0  0  0  0  0
  -25.9555  -30.8066   21.3816 C   0  0  0  0  0  0
  -26.0314  -29.4370   20.7226 C   0  0  0  0  0  0
  -27.2154  -28.6460   20.7169 C   0  0  0  0  0  0
  -26.0425  -26.9339   19.4661 C   0  0  0  0  0  0
  -24.8701  -27.7066   19.4799 C   0  0  0  0  0  0
  -23.6304  -29.8292   20.1681 C   0  0  0  0  0  0
  -25.4117  -36.3130   24.0359 C   0  0  1  0  0  0
  -20.5883  -28.3676   23.1290 C   0  0  2  0  0  0
  -20.6765  -26.9405   22.5404 C   0  0  0  0  0  0
  -19.5742  -26.6374   21.5212 C   0  0  0  0  0  0
  -18.1925  -26.7935   22.1621 C   0  0  0  0  0  0
  -19.1535  -28.8857   23.2873 C   0  0  0  0  0  0
  -18.9461  -30.1465   23.8875 C   0  0  0  0  0  0
  -17.6457  -30.6589   24.0562 C   0  0  0  0  0  0
  -25.9039  -34.9483   23.5159 C   0  0  0  0  0  0
  -16.5348  -29.9080   23.6326 C   0  0  0  0  0  0
  -16.7266  -28.6503   23.0336 C   0  0  0  0  0  0
  -26.4448  -31.6609   25.0771 C   0  0  0  0  0  0
  -25.3703  -31.3656   26.1509 C   0  0  0  0  0  0
  -27.0280  -30.3057   24.6152 C   0  0  0  0  0  0
  -27.6045  -32.4322   25.7501 C   0  0  0  0  0  0
  -27.5602  -37.1803   24.8471 C   0  0  0  0  0  0
  -21.4193  -29.3034   22.3704 N   0  0  0  0  0  0
  -26.4303  -37.3821   23.9414 N   0  0  0  0  0  0
  -24.6822  -31.0703   22.1044 N   0  0  0  0  0  0
  -23.4218  -28.8191   23.3049 O   0  0  0  0  0  0
  -28.3375  -26.5141   20.1462 O   0  0  0  0  0  0
  -26.5618  -34.8921   22.4726 O   0  0  0  0  0  0
  -23.5361  -32.1449   23.7426 O   0  0  0  0  0  0
  -30.3269  -17.1952   18.8220 C   0  0  0  0  0  0
  -30.3662  -18.4674   18.2157 C   0  0  0  0  0  0
  -29.5787  -18.2425   20.8777 C   0  0  0  0  0  0
  -29.6205  -19.5583   20.2839 C   0  0  0  0  0  0
  -29.9536  -17.0444   20.1776 C   0  0  0  0  0  0
  -30.0378  -19.6392   18.9245 C   0  0  0  0  0  0
  -27.8079  -22.5768   20.1529 C   0  0  0  0  0  0
  -27.6595  -24.0398   19.6499 C   0  0  0  0  0  0
  -29.4566  -24.6158   21.3531 C   0  0  0  0  0  0
  -30.0307  -23.2538   20.8189 C   0  0  0  0  0  0
  -28.1621  -25.1336   20.6518 C   0  0  1  0  0  0
  -29.2796  -20.8076   21.1783 C   0  0  0  0  0  0
  -29.0116  -22.1902   20.6372 N   0  0  0  0  0  0
  -29.8885  -15.7098   20.7744 N   0  0  0  0  0  0
  -26.8404  -21.8111   20.0880 O   0  0  0  0  0  0
  -30.2008  -21.1294   18.0632 Cl  0  0  0  0  0  0
  -31.4763  -12.4471   19.1785 H   0  0  0  0  0  0
  -30.3329  -11.3649   19.9082 H   0  0  0  0  0  0
  -29.7621  -11.7416   17.4857 H   0  0  0  0  0  0
  -29.6814  -13.4665   17.7556 H   0  0  0  0  0  0
  -27.8328  -11.3139   18.8268 H   0  0  0  0  0  0
  -27.3942  -12.6442   17.7828 H   0  0  0  0  0  0
  -27.6746  -14.2622   19.5322 H   0  0  0  0  0  0
  -28.6977  -12.0681   21.4094 H   0  0  0  0  0  0
  -28.4578  -13.7345   21.8429 H   0  0  0  0  0  0
  -25.2802   -9.5743   22.4752 H   0  0  0  0  0  0
  -24.0044   -7.4709   22.7497 H   0  0  0  0  0  0
  -21.0871   -8.8774   19.8967 H   0  0  0  0  0  0
  -22.3734  -10.9660   19.6182 H   0  0  0  0  0  0
  -21.1974   -7.6153   23.9692 H   0  0  0  0  0  0
  -21.1474   -6.0566   25.9073 H   0  0  0  0  0  0
  -22.0582   -2.7621   23.2890 H   0  0  0  0  0  0
  -22.4133  -11.9819   22.4679 H   0  0  0  0  0  0
  -21.1165  -13.1206   22.2618 H   0  0  0  0  0  0
  -24.6831  -15.8646   20.5397 H   0  0  0  0  0  0
  -26.2978  -15.6314   20.1076 H   0  0  0  0  0  0
  -26.7129  -32.5507   23.1201 H   0  0  0  0  0  0
  -25.0002  -33.9808   25.0471 H   0  0  0  0  0  0
  -22.7058  -31.3085   21.4111 H   0  0  0  0  0  0
  -23.3787  -35.9591   23.3296 H   0  0  0  0  0  0
  -24.3599  -36.8916   22.2065 H   0  0  0  0  0  0
  -23.7170  -37.6472   23.6653 H   0  0  0  0  0  0
  -26.0901  -31.5752   20.6192 H   0  0  0  0  0  0
  -26.8356  -30.8552   22.0099 H   0  0  0  0  0  0
  -28.1107  -29.0141   21.1984 H   0  0  0  0  0  0
  -26.0056  -26.0162   18.9088 H   0  0  0  0  0  0
  -23.9824  -27.3420   18.9844 H   0  0  0  0  0  0
  -23.7416  -30.6061   19.4113 H   0  0  0  0  0  0
  -22.7538  -29.2537   19.8659 H   0  0  0  0  0  0
  -25.1282  -36.2036   25.0853 H   0  0  0  0  0  0
  -20.9957  -28.3234   24.1419 H   0  0  0  0  0  0
  -20.5671  -26.2282   23.3602 H   0  0  0  0  0  0
  -21.6641  -26.7434   22.1197 H   0  0  0  0  0  0
  -19.6904  -25.6282   21.1247 H   0  0  0  0  0  0
  -19.6699  -27.3179   20.6738 H   0  0  0  0  0  0
  -17.4199  -26.6678   21.4028 H   0  0  0  0  0  0
  -18.0326  -26.0096   22.9021 H   0  0  0  0  0  0
  -19.7943  -30.7299   24.2234 H   0  0  0  0  0  0
  -17.5004  -31.6279   24.5159 H   0  0  0  0  0  0
  -15.5347  -30.2971   23.7671 H   0  0  0  0  0  0
  -15.8668  -28.0831   22.7031 H   0  0  0  0  0  0
  -24.5908  -30.6992   25.7798 H   0  0  0  0  0  0
  -24.8850  -32.2759   26.5028 H   0  0  0  0  0  0
  -25.8067  -30.8763   27.0227 H   0  0  0  0  0  0
  -26.2823  -29.6848   24.1184 H   0  0  0  0  0  0
  -27.4013  -29.7281   25.4608 H   0  0  0  0  0  0
  -27.8679  -30.4394   23.9347 H   0  0  0  0  0  0
  -27.2726  -33.3647   26.2079 H   0  0  0  0  0  0
  -28.3829  -32.6843   25.0288 H   0  0  0  0  0  0
  -28.0740  -31.8440   26.5395 H   0  0  0  0  0  0
  -28.2601  -38.0123   24.7582 H   0  0  0  0  0  0
  -28.1118  -36.2657   24.6230 H   0  0  0  0  0  0
  -27.2320  -37.1373   25.8873 H   0  0  0  0  0  0
  -20.9387  -29.8770   21.6918 H   0  0  0  0  0  0
  -26.0215  -38.2896   24.1430 H   0  0  0  0  0  0
  -30.5799  -16.3359   18.2164 H   0  0  0  0  0  0
  -30.6815  -18.5582   17.1851 H   0  0  0  0  0  0
  -29.2738  -18.1574   21.9122 H   0  0  0  0  0  0
  -26.6034  -24.1623   19.4244 H   0  0  0  0  0  0
  -28.2055  -24.1289   18.7115 H   0  0  0  0  0  0
  -30.2374  -25.3743   21.3239 H   0  0  0  0  0  0
  -29.2336  -24.4937   22.4146 H   0  0  0  0  0  0
  -30.8361  -22.9226   21.4760 H   0  0  0  0  0  0
  -30.5121  -23.4284   19.8539 H   0  0  0  0  0  0
  -27.4052  -25.2130   21.4348 H   0  0  0  0  0  0
  -30.0932  -20.8880   21.8967 H   0  0  0  0  0  0
  -28.4211  -20.5333   21.7913 H   0  0  0  0  0  0
  -29.0600  -15.5166   21.3150 H   0  0  0  0  0  0
  1 25  1  0  0  0
  1 30  2  0  0  0
  1 84  1  0  0  0
  2  3  1  0  0  0
  2 25  1  0  0  0
  2 87  1  0  0  0
  2 88  1  0  0  0
  3  4  1  0  0  0
  3 89  1  0  0  0
  3 90  1  0  0  0
  4  5  1  0  0  0
  4 91  1  0  0  0
  4 92  1  0  0  0
  5  6  1  0  0  0
  5 26  1  0  0  0
  5 93  1  0  0  0
  6 25  1  0  0  0
  6 94  1  0  0  0
  6 95  1  0  0  0
  7  8  2  0  0  0
  7 26  1  0  0  0
  7 29  1  0  0  0
  8  9  1  0  0  0
  8 22  1  0  0  0
  9 10  1  0  0  0
  9 27  2  0  0  0
 10 11  2  0  0  0
 10 15  1  0  0  0
 11 12  1  0  0  0
 11 96  1  0  0  0
 12 13  2  0  0  0
 12 97  1  0  0  0
 13 14  1  0  0  0
 13 31  1  0  0  0
 14 15  2  0  0  0
 14 98  1  0  0  0
 15 99  1  0  0  0
 16 17  2  0  0  0
 16 21  1  0  0  0
 16 31  1  0  0  0
 17 18  1  0  0  0
 17100  1  0  0  0
 18 19  2  0  0  0
 18101  1  0  0  0
 19 20  1  0  0  0
 19 24  1  0  0  0
 20 21  2  0  0  0
 20102  1  0  0  0
 21 23  1  0  0  0
 22 28  1  0  0  0
 22 32  2  0  0  0
 26 27  1  0  0  0
 28103  1  0  0  0
 28104  1  0  0  0
 29105  1  0  0  0
 29106  1  0  0  0
 33 34  1  0  0  0
 33 66  1  0  0  0
 33 70  2  0  0  0
 34 36  1  0  0  0
 34 59  1  0  0  0
 34107  1  0  0  0
 35 44  2  0  0  0
 35 45  1  0  0  0
 35 68  1  0  0  0
 36 56  1  0  0  0
 36108  1  0  0  0
 37 39  1  0  0  0
 37 47  1  0  0  0
 37 66  1  0  0  0
 37109  1  0  0  0
 38 43  2  0  0  0
 38 46  1  0  0  0
 38 47  1  0  0  0
 39 64  1  0  0  0
 39 67  2  0  0  0
 40 52  1  0  0  0
 40 53  2  0  0  0
 40 58  1  0  0  0
 41110  1  0  0  0
 41111  1  0  0  0
 41112  1  0  0  0
 41 48  1  0  0  0
 42 43  1  0  0  0
 42 66  1  0  0  0
 42113  1  0  0  0
 42114  1  0  0  0
 43 44  1  0  0  0
 44115  1  0  0  0
 45 46  2  0  0  0
 45116  1  0  0  0
 46117  1  0  0  0
 47118  1  0  0  0
 47119  1  0  0  0
 48 56  1  0  0  0
 48 65  1  0  0  0
 48120  1  0  0  0
 49 50  1  0  0  0
 49 53  1  0  0  0
 49 64  1  0  0  0
 49121  1  0  0  0
 50 51  1  0  0  0
 50122  1  0  0  0
 50123  1  0  0  0
 51 52  1  0  0  0
 51124  1  0  0  0
 51125  1  0  0  0
 52126  1  0  0  0
 52127  1  0  0  0
 53 54  1  0  0  0
 54 55  2  0  0  0
 54128  1  0  0  0
 55 57  1  0  0  0
 55129  1  0  0  0
 56 69  2  0  0  0
 57 58  2  0  0  0
 57130  1  0  0  0
 58131  1  0  0  0
 59 60  1  0  0  0
 59 61  1  0  0  0
 59 62  1  0  0  0
 60132  1  0  0  0
 60133  1  0  0  0
 60134  1  0  0  0
 61135  1  0  0  0
 61136  1  0  0  0
 61137  1  0  0  0
 62138  1  0  0  0
 62139  1  0  0  0
 62140  1  0  0  0
 63 65  1  0  0  0
 63141  1  0  0  0
 63142  1  0  0  0
 63143  1  0  0  0
 64144  1  0  0  0
 65145  1  0  0  0
 68 81  1  0  0  0
 71 72  2  0  0  0
 71 75  1  0  0  0
 71146  1  0  0  0
 72 76  1  0  0  0
 72147  1  0  0  0
 73 74  1  0  0  0
 73 75  2  0  0  0
 73148  1  0  0  0
 74 76  2  0  0  0
 74 82  1  0  0  0
 75 84  1  0  0  0
 76 86  1  0  0  0
 77 78  1  0  0  0
 77 83  1  0  0  0
 77 85  2  0  0  0
 78 81  1  0  0  0
 78149  1  0  0  0
 78150  1  0  0  0
 79 80  1  0  0  0
 79 81  1  0  0  0
 79151  1  0  0  0
 79152  1  0  0  0
 80 83  1  0  0  0
 80153  1  0  0  0
 80154  1  0  0  0
 81155  1  0  0  0
 82 83  1  0  0  0
 82156  1  0  0  0
 82157  1  0  0  0
 84158  1  0  0  0
M  ISO  4   1 100  68 101  81 101  84 100
M  END
> <chiral flag>
0

> <version>
0

> <s_m_source_file>
/data/baiqing/PycharmProjects/Reinvent-master-3.2/result/LINK_invent/BTK/process_docking_weight1_custom_product_contain_oxygen_bond_distance_aromatic_linkinvent_7_9_3/rearranged_h_0051.sdf

> <i_m_source_file_index>
57

> <r_mmod_Potential_Energy-OPLS-2005>
69.2591934204102

> <r_mmod_Stretch_Energy-OPLS-2005>
77.4534912109375

> <r_mmod_Bend_Energy-OPLS-2005>
133.963134765625

> <r_mmod_Torsional_Energy-OPLS-2005>
276.372467041016

> <r_mmod_Improper_Torsional_Energy-OPLS-2005>
4.76026344299316

> <r_mmod_Van_der_Waal_Energy-OPLS-2005>
159.67204284668

> <r_mmod_Electrostatic_Energy-OPLS-2005>
-396.171264648438

> <r_mmod_Solvation_Energy-OPLS-2005>
-225.700256347656

> <b_mmod_Minimization_Converged-OPLS-2005>
0

> <r_mmod_RMS_Derivative-OPLS-2005>
4.49654722213745

$$$$
57
                    3D
 Structure written by MMmdl.
157165  0  0  1  0            999 V2000
  -30.6873  -14.4723   20.5503 C   0  0  0  0  0  0
  -30.4249  -12.2992   19.4265 C   0  0  0  0  0  0
  -29.4977  -12.5008   18.2088 C   0  0  0  0  0  0
  -28.0170  -12.3661   18.6193 C   0  0  0  0  0  0
  -27.6628  -13.2059   19.8760 C   0  0  2  0  0  0
  -28.7026  -12.9812   20.9978 C   0  0  0  0  0  0
  -25.2597  -13.8162   20.5682 C   0  0  0  0  0  0
  -24.1843  -13.0442   20.9170 C   0  0  0  0  0  0
  -24.6391  -11.6907   20.8726 C   0  0  0  0  0  0
  -23.9053  -10.4295   21.0403 C   0  0  0  0  0  0
  -24.3607   -9.4212   21.9185 C   0  0  0  0  0  0
  -23.6288   -8.2243   22.0756 C   0  0  0  0  0  0
  -22.4272   -8.0278   21.3545 C   0  0  0  0  0  0
  -21.9899   -9.0250   20.4648 C   0  0  0  0  0  0
  -22.7223  -10.2132   20.3057 C   0  0  0  0  0  0
  -21.6851   -6.0731   22.5278 C   0  0  0  0  0  0
  -21.4011   -6.5637   23.8209 C   0  0  0  0  0  0
  -21.3659   -5.6791   24.9173 C   0  0  0  0  0  0
  -21.6045   -4.3054   24.7223 C   0  0  0  0  0  0
  -21.8820   -3.8142   23.4346 C   0  0  0  0  0  0
  -21.9193   -4.6959   22.3403 C   0  0  0  0  0  0
  -22.7868  -13.5244   21.1838 C   0  0  0  0  0  0
  -22.1663   -4.2143   21.0980 F   0  0  0  0  0  0
  -21.5632   -3.4536   25.7739 F   0  0  0  0  0  0
  -30.0372  -13.2819   20.4509 N   0  0  0  0  0  0
  -26.3026  -12.9325   20.3360 N   0  0  0  0  0  0
  -25.9317  -11.6486   20.5758 N   0  0  0  0  0  0
  -22.0501  -12.8244   22.0393 N   0  0  0  0  0  0
  -25.4341  -15.1879   20.4109 N   0  0  0  0  0  0
  -31.8280  -14.6426   20.1099 O   0  0  0  0  0  0
  -21.6639   -6.8873   21.4241 O   0  0  0  0  0  0
  -22.3559  -14.5552   20.6691 O   0  0  0  0  0  0
  -24.6134  -31.8680   23.2103 C   0  0  0  0  0  0
  -25.9028  -32.4820   23.8405 C   0  0  1  0  0  0
  -27.2344  -27.4474   20.0982 C   0  0  0  0  0  0
  -25.5888  -33.8616   24.2342 N   0  0  0  0  0  0
  -23.4018  -30.4920   21.5492 C   0  0  2  0  0  0
  -24.8503  -28.9591   20.1121 C   0  0  0  0  0  0
  -22.7404  -29.4664   22.4979 C   0  0  0  0  0  0
  -18.0265  -28.1375   22.8498 C   0  0  0  0  0  0
  -24.1483  -36.7316   23.2639 C   0  0  0  0  0  0
  -25.9289  -30.8384   21.3607 C   0  0  0  0  0  0
  -26.0093  -29.4733   20.7094 C   0  0  0  0  0  0
  -27.2075  -28.7245   20.7004 C   0  0  0  0  0  0
  -26.0652  -26.9452   19.4914 C   0  0  0  0  0  0
  -24.8724  -27.6934   19.4989 C   0  0  0  0  0  0
  -23.6107  -29.8233   20.1639 C   0  0  0  0  0  0
  -25.4097  -36.3106   24.0346 C   0  0  1  0  0  0
  -20.5857  -28.3661   23.1322 C   0  0  2  0  0  0
  -20.6760  -26.9399   22.5420 C   0  0  0  0  0  0
  -19.5739  -26.6388   21.5214 C   0  0  0  0  0  0
  -18.1915  -26.7926   22.1625 C   0  0  0  0  0  0
  -19.1515  -28.8833   23.2909 C   0  0  0  0  0  0
  -18.9450  -30.1442   23.8912 C   0  0  0  0  0  0
  -17.6455  -30.6589   24.0568 C   0  0  0  0  0  0
  -25.9026  -34.9473   23.5143 C   0  0  0  0  0  0
  -16.5344  -29.9098   23.6326 C   0  0  0  0  0  0
  -16.7255  -28.6514   23.0348 C   0  0  0  0  0  0
  -26.4458  -31.6587   25.0722 C   0  0  0  0  0  0
  -25.3739  -31.3702   26.1490 C   0  0  0  0  0  0
  -27.0279  -30.3035   24.6068 C   0  0  0  0  0  0
  -27.6049  -32.4292   25.7473 C   0  0  0  0  0  0
  -27.5581  -37.1805   24.8463 C   0  0  0  0  0  0
  -21.4130  -29.3036   22.3736 N   0  0  0  0  0  0
  -26.4283  -37.3791   23.9419 N   0  0  0  0  0  0
  -24.6662  -31.0800   22.0992 N   0  0  0  0  0  0
  -23.4185  -28.8201   23.3012 O   0  0  0  0  0  0
  -28.3687  -26.6711   20.1171 O   0  0  0  0  0  0
  -26.5589  -34.8927   22.4704 O   0  0  0  0  0  0
  -23.5333  -32.1418   23.7516 O   0  0  0  0  0  0
  -30.6243  -18.7628   19.2779 C   0  0  0  0  0  0
  -28.8563  -19.0680   20.9116 C   0  0  0  0  0  0
  -30.7658  -17.4170   19.6742 C   0  0  0  0  0  0
  -28.9942  -17.7169   21.3069 C   0  0  0  0  0  0
  -29.6574  -19.5969   19.8771 C   0  0  0  0  0  0
  -29.9375  -16.8653   20.6846 C   0  0  0  0  0  0
  -29.0619  -23.3491   20.0668 C   0  0  0  0  0  0
  -30.7428  -21.9740   21.2690 C   0  0  0  0  0  0
  -29.4420  -21.0192   19.3422 C   0  0  0  0  0  0
  -29.3904  -24.5466   20.9881 C   0  0  0  0  0  0
  -28.2885  -25.6291   21.1015 C   0  0  0  0  0  0
  -29.9534  -15.4817   21.0642 N   0  0  0  0  0  0
  -29.6926  -22.1556   20.2574 N   0  0  0  0  0  0
  -28.2336  -23.5112   19.1645 O   0  0  0  0  0  0
  -31.4696  -12.3963   19.1260 H   0  0  0  0  0  0
  -30.3236  -11.2873   19.8215 H   0  0  0  0  0  0
  -29.7358  -11.7732   17.4311 H   0  0  0  0  0  0
  -29.6707  -13.4846   17.7700 H   0  0  0  0  0  0
  -27.8235  -11.3108   18.8144 H   0  0  0  0  0  0
  -27.3683  -12.6420   17.7867 H   0  0  0  0  0  0
  -27.7089  -14.2545   19.5806 H   0  0  0  0  0  0
  -28.6740  -11.9449   21.3366 H   0  0  0  0  0  0
  -28.4639  -13.5788   21.8787 H   0  0  0  0  0  0
  -25.2756   -9.5686   22.4757 H   0  0  0  0  0  0
  -23.9997   -7.4633   22.7476 H   0  0  0  0  0  0
  -21.0828   -8.8763   19.8960 H   0  0  0  0  0  0
  -22.3681  -10.9665   19.6160 H   0  0  0  0  0  0
  -21.1999   -7.6148   23.9709 H   0  0  0  0  0  0
  -21.1483   -6.0525   25.9076 H   0  0  0  0  0  0
  -22.0601   -2.7607   23.2848 H   0  0  0  0  0  0
  -22.4109  -11.9901   22.4780 H   0  0  0  0  0  0
  -21.1121  -13.1280   22.2595 H   0  0  0  0  0  0
  -24.6712  -15.8463   20.5232 H   0  0  0  0  0  0
  -26.2918  -15.6250   20.0971 H   0  0  0  0  0  0
  -26.7106  -32.5541   23.1180 H   0  0  0  0  0  0
  -25.0048  -33.9775   25.0496 H   0  0  0  0  0  0
  -22.6901  -31.3086   21.4101 H   0  0  0  0  0  0
  -23.3741  -35.9651   23.3286 H   0  0  0  0  0  0
  -24.3592  -36.8937   22.2056 H   0  0  0  0  0  0
  -23.7238  -37.6522   23.6652 H   0  0  0  0  0  0
  -26.0385  -31.6034   20.5907 H   0  0  0  0  0  0
  -26.8183  -30.8948   21.9766 H   0  0  0  0  0  0
  -28.1013  -29.1134   21.1687 H   0  0  0  0  0  0
  -26.0799  -25.9698   19.0244 H   0  0  0  0  0  0
  -23.9825  -27.2922   19.0338 H   0  0  0  0  0  0
  -23.7187  -30.5975   19.4033 H   0  0  0  0  0  0
  -22.7351  -29.2421   19.8686 H   0  0  0  0  0  0
  -25.1270  -36.1962   25.0839 H   0  0  0  0  0  0
  -20.9947  -28.3214   24.1441 H   0  0  0  0  0  0
  -20.5658  -26.2266   23.3603 H   0  0  0  0  0  0
  -21.6633  -26.7449   22.1208 H   0  0  0  0  0  0
  -19.6901  -25.6303   21.1231 H   0  0  0  0  0  0
  -19.6675  -27.3212   20.6754 H   0  0  0  0  0  0
  -17.4188  -26.6672   21.4022 H   0  0  0  0  0  0
  -18.0315  -26.0063   22.9015 H   0  0  0  0  0  0
  -19.7930  -30.7254   24.2276 H   0  0  0  0  0  0
  -17.5020  -31.6268   24.5173 H   0  0  0  0  0  0
  -15.5349  -30.3014   23.7644 H   0  0  0  0  0  0
  -15.8651  -28.0853   22.7039 H   0  0  0  0  0  0
  -24.5877  -30.7080   25.7840 H   0  0  0  0  0  0
  -24.8973  -32.2870   26.4973 H   0  0  0  0  0  0
  -25.8107  -30.8843   27.0226 H   0  0  0  0  0  0
  -26.2815  -29.6802   24.1130 H   0  0  0  0  0  0
  -27.4082  -29.7249   25.4497 H   0  0  0  0  0  0
  -27.8632  -30.4370   23.9190 H   0  0  0  0  0  0
  -27.2688  -33.3595   26.2063 H   0  0  0  0  0  0
  -28.3848  -32.6839   25.0284 H   0  0  0  0  0  0
  -28.0720  -31.8399   26.5375 H   0  0  0  0  0  0
  -28.2585  -38.0114   24.7524 H   0  0  0  0  0  0
  -28.1088  -36.2651   24.6255 H   0  0  0  0  0  0
  -27.2317  -37.1411   25.8870 H   0  0  0  0  0  0
  -20.9275  -29.8788   21.6995 H   0  0  0  0  0  0
  -26.0169  -38.2868   24.1420 H   0  0  0  0  0  0
  -31.2502  -19.1439   18.4825 H   0  0  0  0  0  0
  -28.1070  -19.6886   21.3832 H   0  0  0  0  0  0
  -31.5013  -16.8232   19.1537 H   0  0  0  0  0  0
  -28.3425  -17.3339   22.0803 H   0  0  0  0  0  0
  -30.2989  -21.8279   22.2544 H   0  0  0  0  0  0
  -31.4131  -22.8327   21.3187 H   0  0  0  0  0  0
  -31.3798  -21.1146   21.0633 H   0  0  0  0  0  0
  -28.4118  -21.0431   18.9815 H   0  0  0  0  0  0
  -30.0609  -21.1697   18.4565 H   0  0  0  0  0  0
  -30.3341  -24.9962   20.6809 H   0  0  0  0  0  0
  -29.5442  -24.1597   21.9954 H   0  0  0  0  0  0
  -28.3714  -26.1027   22.0807 H   0  0  0  0  0  0
  -27.3081  -25.1490   21.0939 H   0  0  0  0  0  0
  -29.1375  -15.1711   21.5697 H   0  0  0  0  0  0
  1 25  1  0  0  0
  1 30  2  0  0  0
  1 82  1  0  0  0
  2  3  1  0  0  0
  2 25  1  0  0  0
  2 85  1  0  0  0
  2 86  1  0  0  0
  3  4  1  0  0  0
  3 87  1  0  0  0
  3 88  1  0  0  0
  4  5  1  0  0  0
  4 89  1  0  0  0
  4 90  1  0  0  0
  5  6  1  0  0  0
  5 26  1  0  0  0
  5 91  1  0  0  0
  6 25  1  0  0  0
  6 92  1  0  0  0
  6 93  1  0  0  0
  7  8  2  0  0  0
  7 26  1  0  0  0
  7 29  1  0  0  0
  8  9  1  0  0  0
  8 22  1  0  0  0
  9 10  1  0  0  0
  9 27  2  0  0  0
 10 11  2  0  0  0
 10 15  1  0  0  0
 11 12  1  0  0  0
 11 94  1  0  0  0
 12 13  2  0  0  0
 12 95  1  0  0  0
 13 14  1  0  0  0
 13 31  1  0  0  0
 14 15  2  0  0  0
 14 96  1  0  0  0
 15 97  1  0  0  0
 16 17  2  0  0  0
 16 21  1  0  0  0
 16 31  1  0  0  0
 17 18  1  0  0  0
 17 98  1  0  0  0
 18 19  2  0  0  0
 18 99  1  0  0  0
 19 20  1  0  0  0
 19 24  1  0  0  0
 20 21  2  0  0  0
 20100  1  0  0  0
 21 23  1  0  0  0
 22 28  1  0  0  0
 22 32  2  0  0  0
 26 27  1  0  0  0
 28101  1  0  0  0
 28102  1  0  0  0
 29103  1  0  0  0
 29104  1  0  0  0
 33 34  1  0  0  0
 33 66  1  0  0  0
 33 70  2  0  0  0
 34 36  1  0  0  0
 34 59  1  0  0  0
 34105  1  0  0  0
 35 44  2  0  0  0
 35 45  1  0  0  0
 35 68  1  0  0  0
 36 56  1  0  0  0
 36106  1  0  0  0
 37 39  1  0  0  0
 37 47  1  0  0  0
 37 66  1  0  0  0
 37107  1  0  0  0
 38 43  2  0  0  0
 38 46  1  0  0  0
 38 47  1  0  0  0
 39 64  1  0  0  0
 39 67  2  0  0  0
 40 52  1  0  0  0
 40 53  2  0  0  0
 40 58  1  0  0  0
 41108  1  0  0  0
 41109  1  0  0  0
 41110  1  0  0  0
 41 48  1  0  0  0
 42 43  1  0  0  0
 42 66  1  0  0  0
 42111  1  0  0  0
 42112  1  0  0  0
 43 44  1  0  0  0
 44113  1  0  0  0
 45 46  2  0  0  0
 45114  1  0  0  0
 46115  1  0  0  0
 47116  1  0  0  0
 47117  1  0  0  0
 48 56  1  0  0  0
 48 65  1  0  0  0
 48118  1  0  0  0
 49 50  1  0  0  0
 49 53  1  0  0  0
 49 64  1  0  0  0
 49119  1  0  0  0
 50 51  1  0  0  0
 50120  1  0  0  0
 50121  1  0  0  0
 51 52  1  0  0  0
 51122  1  0  0  0
 51123  1  0  0  0
 52124  1  0  0  0
 52125  1  0  0  0
 53 54  1  0  0  0
 54 55  2  0  0  0
 54126  1  0  0  0
 55 57  1  0  0  0
 55127  1  0  0  0
 56 69  2  0  0  0
 57 58  2  0  0  0
 57128  1  0  0  0
 58129  1  0  0  0
 59 60  1  0  0  0
 59 61  1  0  0  0
 59 62  1  0  0  0
 60130  1  0  0  0
 60131  1  0  0  0
 60132  1  0  0  0
 61133  1  0  0  0
 61134  1  0  0  0
 61135  1  0  0  0
 62136  1  0  0  0
 62137  1  0  0  0
 62138  1  0  0  0
 63 65  1  0  0  0
 63139  1  0  0  0
 63140  1  0  0  0
 63141  1  0  0  0
 64142  1  0  0  0
 65143  1  0  0  0
 68 81  1  0  0  0
 71 73  2  0  0  0
 71 75  1  0  0  0
 71144  1  0  0  0
 72 74  1  0  0  0
 72 75  2  0  0  0
 72145  1  0  0  0
 73 76  1  0  0  0
 73146  1  0  0  0
 74 76  2  0  0  0
 74147  1  0  0  0
 75 79  1  0  0  0
 76 82  1  0  0  0
 77 80  1  0  0  0
 77 83  1  0  0  0
 77 84  2  0  0  0
 78 83  1  0  0  0
 78148  1  0  0  0
 78149  1  0  0  0
 78150  1  0  0  0
 79 83  1  0  0  0
 79151  1  0  0  0
 79152  1  0  0  0
 80 81  1  0  0  0
 80153  1  0  0  0
 80154  1  0  0  0
 81155  1  0  0  0
 81156  1  0  0  0
 82157  1  0  0  0
M  ISO  4   1 100  68 101  81 101  82 100
M  END
> <chiral flag>
0

> <version>
0

> <s_m_source_file>
/data/baiqing/PycharmProjects/Reinvent-master-3.2/result/LINK_invent/BTK/process_docking_weight1_custom_product_contain_oxygen_bond_distance_aromatic_linkinvent_7_9_3/rearranged_h_0051.sdf

> <i_m_source_file_index>
58

> <r_mmod_Potential_Energy-OPLS-2005>
-50.8997077941895

> <r_mmod_Stretch_Energy-OPLS-2005>
39.8721160888672

> <r_mmod_Bend_Energy-OPLS-2005>
98.5852813720703

> <r_mmod_Torsional_Energy-OPLS-2005>
251.276214599609

> <r_mmod_Improper_Torsional_Energy-OPLS-2005>
4.21750116348267

> <r_mmod_Van_der_Waal_Energy-OPLS-2005>
163.873397827148

> <r_mmod_Electrostatic_Energy-OPLS-2005>
-392.501434326172

> <r_mmod_Solvation_Energy-OPLS-2005>
-229.358688354492

> <b_mmod_Minimization_Converged-OPLS-2005>
0

> <r_mmod_RMS_Derivative-OPLS-2005>
0.977296650409698

$$$$
58
                    3D
 Structure written by MMmdl.
166175  0  0  1  0            999 V2000
  -30.7769  -14.4321   20.5737 C   0  0  0  0  0  0
  -30.3854  -12.2892   19.4198 C   0  0  0  0  0  0
  -29.4728  -12.4952   18.1988 C   0  0  0  0  0  0
  -27.9959  -12.3724   18.6146 C   0  0  0  0  0  0
  -27.6525  -13.2222   19.8681 C   0  0  2  0  0  0
  -28.7007  -13.0432   20.9919 C   0  0  0  0  0  0
  -25.2560  -13.8207   20.5724 C   0  0  0  0  0  0
  -24.1818  -13.0443   20.9199 C   0  0  0  0  0  0
  -24.6400  -11.6922   20.8738 C   0  0  0  0  0  0
  -23.9072  -10.4294   21.0385 C   0  0  0  0  0  0
  -24.3611   -9.4217   21.9171 C   0  0  0  0  0  0
  -23.6293   -8.2248   22.0748 C   0  0  0  0  0  0
  -22.4271   -8.0273   21.3554 C   0  0  0  0  0  0
  -21.9909   -9.0244   20.4650 C   0  0  0  0  0  0
  -22.7237  -10.2127   20.3058 C   0  0  0  0  0  0
  -21.6862   -6.0732   22.5288 C   0  0  0  0  0  0
  -21.4010   -6.5641   23.8213 C   0  0  0  0  0  0
  -21.3659   -5.6796   24.9185 C   0  0  0  0  0  0
  -21.6048   -4.3057   24.7238 C   0  0  0  0  0  0
  -21.8822   -3.8152   23.4359 C   0  0  0  0  0  0
  -21.9189   -4.6964   22.3412 C   0  0  0  0  0  0
  -22.7847  -13.5229   21.1856 C   0  0  0  0  0  0
  -22.1663   -4.2147   21.0989 F   0  0  0  0  0  0
  -21.5626   -3.4539   25.7751 F   0  0  0  0  0  0
  -30.0263  -13.3082   20.4210 N   0  0  0  0  0  0
  -26.2991  -12.9409   20.3387 N   0  0  0  0  0  0
  -25.9334  -11.6555   20.5797 N   0  0  0  0  0  0
  -22.0507  -12.8185   22.0409 N   0  0  0  0  0  0
  -25.4256  -15.1907   20.4119 N   0  0  0  0  0  0
  -31.8449  -14.5840   19.9771 O   0  0  0  0  0  0
  -21.6642   -6.8868   21.4245 O   0  0  0  0  0  0
  -22.3526  -14.5540   20.6725 O   0  0  0  0  0  0
  -24.6159  -31.8672   23.2153 C   0  0  0  0  0  0
  -25.9066  -32.4813   23.8422 C   0  0  1  0  0  0
  -27.2104  -27.4217   20.0873 C   0  0  0  0  0  0
  -25.5898  -33.8604   24.2325 N   0  0  0  0  0  0
  -23.4026  -30.4949   21.5531 C   0  0  2  0  0  0
  -24.8444  -28.9737   20.1060 C   0  0  0  0  0  0
  -22.7401  -29.4668   22.4972 C   0  0  0  0  0  0
  -18.0277  -28.1344   22.8443 C   0  0  0  0  0  0
  -24.1494  -36.7321   23.2635 C   0  0  0  0  0  0
  -25.9325  -30.8264   21.3749 C   0  0  0  0  0  0
  -26.0024  -29.4613   20.7236 C   0  0  0  0  0  0
  -27.1881  -28.6852   20.7260 C   0  0  0  0  0  0
  -26.0451  -26.9842   19.4189 C   0  0  0  0  0  0
  -24.8597  -27.7342   19.4516 C   0  0  0  0  0  0
  -23.6074  -29.8387   20.1648 C   0  0  0  0  0  0
  -25.4099  -36.3087   24.0330 C   0  0  1  0  0  0
  -20.5846  -28.3669   23.1279 C   0  0  2  0  0  0
  -20.6759  -26.9397   22.5387 C   0  0  0  0  0  0
  -19.5751  -26.6360   21.5162 C   0  0  0  0  0  0
  -18.1932  -26.7895   22.1576 C   0  0  0  0  0  0
  -19.1520  -28.8820   23.2857 C   0  0  0  0  0  0
  -18.9456  -30.1410   23.8900 C   0  0  0  0  0  0
  -17.6465  -30.6550   24.0546 C   0  0  0  0  0  0
  -25.9009  -34.9460   23.5104 C   0  0  0  0  0  0
  -16.5353  -29.9060   23.6295 C   0  0  0  0  0  0
  -16.7265  -28.6468   23.0316 C   0  0  0  0  0  0
  -26.4480  -31.6582   25.0741 C   0  0  0  0  0  0
  -25.3756  -31.3674   26.1497 C   0  0  0  0  0  0
  -27.0312  -30.3033   24.6065 C   0  0  0  0  0  0
  -27.6045  -32.4315   25.7506 C   0  0  0  0  0  0
  -27.5597  -37.1800   24.8462 C   0  0  0  0  0  0
  -21.4132  -29.3066   22.3726 N   0  0  0  0  0  0
  -26.4305  -37.3745   23.9403 N   0  0  0  0  0  0
  -24.6678  -31.0783   22.1057 N   0  0  0  0  0  0
  -23.4164  -28.8183   23.2987 O   0  0  0  0  0  0
  -28.3631  -26.6504   20.0866 O   0  0  0  0  0  0
  -26.5550  -34.8909   22.4639 O   0  0  0  0  0  0
  -23.5359  -32.1469   23.7544 O   0  0  0  0  0  0
  -33.0475  -18.1933   23.0824 C   0  0  0  0  0  0
  -33.3482  -16.8287   23.0296 C   0  0  0  0  0  0
  -31.7911  -18.6476   22.6431 C   0  0  0  0  0  0
  -26.4157  -22.4989   19.8819 C   0  0  0  0  0  0
  -26.0260  -21.1754   20.1518 C   0  0  0  0  0  0
  -32.3956  -15.9357   22.5170 C   0  0  0  0  0  0
  -28.6916  -21.9219   20.4802 C   0  0  0  0  0  0
  -30.8237  -17.7784   22.0691 C   0  0  0  0  0  0
  -28.3326  -20.5685   20.7412 C   0  0  0  0  0  0
  -27.7571  -22.8868   20.0427 C   0  0  0  0  0  0
  -26.9597  -20.2070   20.5864 C   0  0  0  0  0  0
  -31.1575  -16.3888   21.9795 C   0  0  0  0  0  0
  -29.5576  -18.3834   21.5469 C   0  0  0  0  0  0
  -29.4601  -19.6885   21.1756 C   0  0  0  0  0  0
  -26.4134  -18.8168   20.8732 C   0  0  0  0  0  0
  -27.2192  -25.2646   21.7411 C   0  0  0  0  0  0
  -28.1557  -24.3181   19.6571 C   0  0  0  0  0  0
  -30.3040  -15.4187   21.3647 N   0  0  0  0  0  0
  -28.2882  -25.3084   20.7371 N   0  0  0  0  0  0
  -31.4346  -12.3241   19.1261 H   0  0  0  0  0  0
  -30.2358  -11.2939   19.8409 H   0  0  0  0  0  0
  -29.7006  -11.7593   17.4269 H   0  0  0  0  0  0
  -29.6560  -13.4752   17.7559 H   0  0  0  0  0  0
  -27.7926  -11.3183   18.8096 H   0  0  0  0  0  0
  -27.3495  -12.6552   17.7824 H   0  0  0  0  0  0
  -27.6826  -14.2654   19.5499 H   0  0  0  0  0  0
  -28.6736  -12.0282   21.3884 H   0  0  0  0  0  0
  -28.4742  -13.6974   21.8345 H   0  0  0  0  0  0
  -25.2751   -9.5695   22.4750 H   0  0  0  0  0  0
  -24.0009   -7.4641   22.7473 H   0  0  0  0  0  0
  -21.0840   -8.8761   19.8949 H   0  0  0  0  0  0
  -22.3690  -10.9657   19.6168 H   0  0  0  0  0  0
  -21.2007   -7.6149   23.9716 H   0  0  0  0  0  0
  -21.1479   -6.0529   25.9080 H   0  0  0  0  0  0
  -22.0600   -2.7615   23.2866 H   0  0  0  0  0  0
  -22.4143  -11.9824   22.4738 H   0  0  0  0  0  0
  -21.1152  -13.1218   22.2688 H   0  0  0  0  0  0
  -24.6588  -15.8441   20.5217 H   0  0  0  0  0  0
  -26.2762  -15.6243   20.0735 H   0  0  0  0  0  0
  -26.7135  -32.5532   23.1192 H   0  0  0  0  0  0
  -25.0153  -33.9755   25.0553 H   0  0  0  0  0  0
  -22.6946  -31.3127   21.4234 H   0  0  0  0  0  0
  -23.3720  -35.9695   23.3292 H   0  0  0  0  0  0
  -24.3574  -36.8937   22.2054 H   0  0  0  0  0  0
  -23.7313  -37.6553   23.6661 H   0  0  0  0  0  0
  -26.0392  -31.5899   20.6046 H   0  0  0  0  0  0
  -26.8237  -30.8859   21.9864 H   0  0  0  0  0  0
  -28.0830  -29.0455   21.2175 H   0  0  0  0  0  0
  -26.0186  -26.0617   18.8674 H   0  0  0  0  0  0
  -23.9802  -27.3638   18.9443 H   0  0  0  0  0  0
  -23.7145  -30.6189   19.4094 H   0  0  0  0  0  0
  -22.7313  -29.2603   19.8676 H   0  0  0  0  0  0
  -25.1287  -36.1932   25.0825 H   0  0  0  0  0  0
  -20.9938  -28.3238   24.1389 H   0  0  0  0  0  0
  -20.5649  -26.2278   23.3579 H   0  0  0  0  0  0
  -21.6644  -26.7424   22.1211 H   0  0  0  0  0  0
  -19.6934  -25.6264   21.1214 H   0  0  0  0  0  0
  -19.6705  -27.3152   20.6671 H   0  0  0  0  0  0
  -17.4201  -26.6600   21.3979 H   0  0  0  0  0  0
  -18.0366  -26.0042   22.8984 H   0  0  0  0  0  0
  -19.7952  -30.7171   24.2315 H   0  0  0  0  0  0
  -17.5035  -31.6242   24.5127 H   0  0  0  0  0  0
  -15.5344  -30.2957   23.7643 H   0  0  0  0  0  0
  -15.8659  -28.0794   22.7037 H   0  0  0  0  0  0
  -24.5922  -30.7033   25.7826 H   0  0  0  0  0  0
  -24.8937  -32.2826   26.4970 H   0  0  0  0  0  0
  -25.8096  -30.8836   27.0250 H   0  0  0  0  0  0
  -26.2852  -29.6730   24.1200 H   0  0  0  0  0  0
  -27.4221  -29.7327   25.4496 H   0  0  0  0  0  0
  -27.8624  -30.4375   23.9125 H   0  0  0  0  0  0
  -27.2663  -33.3622   26.2069 H   0  0  0  0  0  0
  -28.3845  -32.6821   25.0314 H   0  0  0  0  0  0
  -28.0702  -31.8441   26.5416 H   0  0  0  0  0  0
  -28.2580  -38.0138   24.7478 H   0  0  0  0  0  0
  -28.1124  -36.2640   24.6308 H   0  0  0  0  0  0
  -27.2275  -37.1443   25.8857 H   0  0  0  0  0  0
  -20.9303  -29.8928   21.7061 H   0  0  0  0  0  0
  -26.0181  -38.2820   24.1368 H   0  0  0  0  0  0
  -33.7740  -18.8918   23.4764 H   0  0  0  0  0  0
  -34.3050  -16.4638   23.3792 H   0  0  0  0  0  0
  -31.5914  -19.7004   22.7663 H   0  0  0  0  0  0
  -25.6834  -23.2188   19.5392 H   0  0  0  0  0  0
  -24.9865  -20.9107   20.0167 H   0  0  0  0  0  0
  -32.6598  -14.8869   22.5036 H   0  0  0  0  0  0
  -29.7192  -22.2342   20.5988 H   0  0  0  0  0  0
  -28.6997  -17.7323   21.5228 H   0  0  0  0  0  0
  -30.3895  -20.2333   21.1902 H   0  0  0  0  0  0
  -25.3253  -18.7907   20.7815 H   0  0  0  0  0  0
  -26.6415  -18.5066   21.8915 H   0  0  0  0  0  0
  -26.8096  -18.0921   20.1623 H   0  0  0  0  0  0
  -27.3050  -24.3471   22.3254 H   0  0  0  0  0  0
  -26.2253  -25.2590   21.2971 H   0  0  0  0  0  0
  -27.2978  -26.0971   22.4405 H   0  0  0  0  0  0
  -27.4240  -24.6591   18.9339 H   0  0  0  0  0  0
  -29.1018  -24.2841   19.1153 H   0  0  0  0  0  0
  -29.3264  -15.4210   21.6097 H   0  0  0  0  0  0
  1 25  1  0  0  0
  1 30  2  0  0  0
  1 88  1  0  0  0
  2  3  1  0  0  0
  2 25  1  0  0  0
  2 90  1  0  0  0
  2 91  1  0  0  0
  3  4  1  0  0  0
  3 92  1  0  0  0
  3 93  1  0  0  0
  4  5  1  0  0  0
  4 94  1  0  0  0
  4 95  1  0  0  0
  5  6  1  0  0  0
  5 26  1  0  0  0
  5 96  1  0  0  0
  6 25  1  0  0  0
  6 97  1  0  0  0
  6 98  1  0  0  0
  7  8  2  0  0  0
  7 26  1  0  0  0
  7 29  1  0  0  0
  8  9  1  0  0  0
  8 22  1  0  0  0
  9 10  1  0  0  0
  9 27  2  0  0  0
 10 11  2  0  0  0
 10 15  1  0  0  0
 11 12  1  0  0  0
 11 99  1  0  0  0
 12 13  2  0  0  0
 12100  1  0  0  0
 13 14  1  0  0  0
 13 31  1  0  0  0
 14 15  2  0  0  0
 14101  1  0  0  0
 15102  1  0  0  0
 16 17  2  0  0  0
 16 21  1  0  0  0
 16 31  1  0  0  0
 17 18  1  0  0  0
 17103  1  0  0  0
 18 19  2  0  0  0
 18104  1  0  0  0
 19 20  1  0  0  0
 19 24  1  0  0  0
 20 21  2  0  0  0
 20105  1  0  0  0
 21 23  1  0  0  0
 22 28  1  0  0  0
 22 32  2  0  0  0
 26 27  1  0  0  0
 28106  1  0  0  0
 28107  1  0  0  0
 29108  1  0  0  0
 29109  1  0  0  0
 33 34  1  0  0  0
 33 66  1  0  0  0
 33 70  2  0  0  0
 34 36  1  0  0  0
 34 59  1  0  0  0
 34110  1  0  0  0
 35 44  2  0  0  0
 35 45  1  0  0  0
 35 68  1  0  0  0
 36 56  1  0  0  0
 36111  1  0  0  0
 37 39  1  0  0  0
 37 47  1  0  0  0
 37 66  1  0  0  0
 37112  1  0  0  0
 38 43  2  0  0  0
 38 46  1  0  0  0
 38 47  1  0  0  0
 39 64  1  0  0  0
 39 67  2  0  0  0
 40 52  1  0  0  0
 40 53  2  0  0  0
 40 58  1  0  0  0
 41113  1  0  0  0
 41114  1  0  0  0
 41115  1  0  0  0
 41 48  1  0  0  0
 42 43  1  0  0  0
 42 66  1  0  0  0
 42116  1  0  0  0
 42117  1  0  0  0
 43 44  1  0  0  0
 44118  1  0  0  0
 45 46  2  0  0  0
 45119  1  0  0  0
 46120  1  0  0  0
 47121  1  0  0  0
 47122  1  0  0  0
 48 56  1  0  0  0
 48 65  1  0  0  0
 48123  1  0  0  0
 49 50  1  0  0  0
 49 53  1  0  0  0
 49 64  1  0  0  0
 49124  1  0  0  0
 50 51  1  0  0  0
 50125  1  0  0  0
 50126  1  0  0  0
 51 52  1  0  0  0
 51127  1  0  0  0
 51128  1  0  0  0
 52129  1  0  0  0
 52130  1  0  0  0
 53 54  1  0  0  0
 54 55  2  0  0  0
 54131  1  0  0  0
 55 57  1  0  0  0
 55132  1  0  0  0
 56 69  2  0  0  0
 57 58  2  0  0  0
 57133  1  0  0  0
 58134  1  0  0  0
 59 60  1  0  0  0
 59 61  1  0  0  0
 59 62  1  0  0  0
 60135  1  0  0  0
 60136  1  0  0  0
 60137  1  0  0  0
 61138  1  0  0  0
 61139  1  0  0  0
 61140  1  0  0  0
 62141  1  0  0  0
 62142  1  0  0  0
 62143  1  0  0  0
 63 65  1  0  0  0
 63144  1  0  0  0
 63145  1  0  0  0
 63146  1  0  0  0
 64147  1  0  0  0
 65148  1  0  0  0
 68 89  1  0  0  0
 71 72  2  0  0  0
 71 73  1  0  0  0
 71149  1  0  0  0
 72 76  1  0  0  0
 72150  1  0  0  0
 73 78  2  0  0  0
 73151  1  0  0  0
 74 75  2  0  0  0
 74 80  1  0  0  0
 74152  1  0  0  0
 75 81  1  0  0  0
 75153  1  0  0  0
 76 82  2  0  0  0
 76154  1  0  0  0
 77 79  1  0  0  0
 77 80  2  0  0  0
 77155  1  0  0  0
 78 82  1  0  0  0
 78 83  1  0  0  0
 79 81  2  0  0  0
 79 84  1  0  0  0
 80 87  1  0  0  0
 81 85  1  0  0  0
 82 88  1  0  0  0
 83 84  2  0  0  0
 83156  1  0  0  0
 84157  1  0  0  0
 85158  1  0  0  0
 85159  1  0  0  0
 85160  1  0  0  0
 86 89  1  0  0  0
 86161  1  0  0  0
 86162  1  0  0  0
 86163  1  0  0  0
 87 89  1  0  0  0
 87164  1  0  0  0
 87165  1  0  0  0
 88166  1  0  0  0
M  ISO  4   1 100  68 101  88 100  89 101
M  END
> <chiral flag>
0

> <version>
0

> <s_m_source_file>
/data/baiqing/PycharmProjects/Reinvent-master-3.2/result/LINK_invent/BTK/process_docking_weight1_custom_product_contain_oxygen_bond_distance_aromatic_linkinvent_7_9_3/rearranged_h_0051.sdf

> <i_m_source_file_index>
59

> <r_mmod_Potential_Energy-OPLS-2005>
49.7164573669434

> <r_mmod_Stretch_Energy-OPLS-2005>
49.9674110412598

> <r_mmod_Bend_Energy-OPLS-2005>
137.925140380859

> <r_mmod_Torsional_Energy-OPLS-2005>
244.246170043945

> <r_mmod_Improper_Torsional_Energy-OPLS-2005>
2.41171479225159

> <r_mmod_Van_der_Waal_Energy-OPLS-2005>
199.034896850586

> <r_mmod_Electrostatic_Energy-OPLS-2005>
-387.057067871094

> <r_mmod_Solvation_Energy-OPLS-2005>
-213.301910400391

> <b_mmod_Minimization_Converged-OPLS-2005>
0

> <r_mmod_RMS_Derivative-OPLS-2005>
4.52793836593628

$$$$
59
                    3D
 Structure written by MMmdl.
161170  0  0  1  0            999 V2000
  -30.6147  -14.5552   20.5596 C   0  0  0  0  0  0
  -30.4465  -12.3580   19.4197 C   0  0  0  0  0  0
  -29.5048  -12.5214   18.2058 C   0  0  0  0  0  0
  -28.0239  -12.3640   18.6158 C   0  0  0  0  0  0
  -27.6614  -13.2000   19.8734 C   0  0  2  0  0  0
  -28.7056  -12.9662   20.9890 C   0  0  0  0  0  0
  -25.2594  -13.8128   20.5709 C   0  0  0  0  0  0
  -24.1845  -13.0412   20.9200 C   0  0  0  0  0  0
  -24.6385  -11.6879   20.8747 C   0  0  0  0  0  0
  -23.9056  -10.4279   21.0408 C   0  0  0  0  0  0
  -24.3608   -9.4198   21.9188 C   0  0  0  0  0  0
  -23.6294   -8.2237   22.0742 C   0  0  0  0  0  0
  -22.4278   -8.0281   21.3547 C   0  0  0  0  0  0
  -21.9905   -9.0237   20.4642 C   0  0  0  0  0  0
  -22.7224  -10.2120   20.3062 C   0  0  0  0  0  0
  -21.6838   -6.0761   22.5299 C   0  0  0  0  0  0
  -21.3987   -6.5653   23.8230 C   0  0  0  0  0  0
  -21.3666   -5.6795   24.9194 C   0  0  0  0  0  0
  -21.6052   -4.3059   24.7228 C   0  0  0  0  0  0
  -21.8822   -3.8172   23.4336 C   0  0  0  0  0  0
  -21.9173   -4.6992   22.3408 C   0  0  0  0  0  0
  -22.7873  -13.5223   21.1862 C   0  0  0  0  0  0
  -22.1648   -4.2199   21.0978 F   0  0  0  0  0  0
  -21.5653   -3.4520   25.7717 F   0  0  0  0  0  0
  -30.0263  -13.3299   20.4451 N   0  0  0  0  0  0
  -26.3013  -12.9280   20.3349 N   0  0  0  0  0  0
  -25.9306  -11.6442   20.5747 N   0  0  0  0  0  0
  -22.0500  -12.8226   22.0426 N   0  0  0  0  0  0
  -25.4271  -15.1862   20.4198 N   0  0  0  0  0  0
  -31.7480  -14.7873   20.1231 O   0  0  0  0  0  0
  -21.6638   -6.8887   21.4253 O   0  0  0  0  0  0
  -22.3572  -14.5528   20.6695 O   0  0  0  0  0  0
  -24.6229  -31.8672   23.2086 C   0  0  0  0  0  0
  -25.9103  -32.4806   23.8398 C   0  0  1  0  0  0
  -27.2210  -27.3700   20.1067 C   0  0  0  0  0  0
  -25.5957  -33.8600   24.2343 N   0  0  0  0  0  0
  -23.4114  -30.4947   21.5506 C   0  0  2  0  0  0
  -24.8524  -28.9532   20.1188 C   0  0  0  0  0  0
  -22.7445  -29.4707   22.4991 C   0  0  0  0  0  0
  -18.0287  -28.1400   22.8495 C   0  0  0  0  0  0
  -24.1487  -36.7271   23.2643 C   0  0  0  0  0  0
  -25.9502  -30.8124   21.3737 C   0  0  0  0  0  0
  -26.0214  -29.4468   20.7109 C   0  0  0  0  0  0
  -27.2095  -28.6682   20.6917 C   0  0  0  0  0  0
  -26.0231  -26.9091   19.5119 C   0  0  0  0  0  0
  -24.8526  -27.6877   19.5155 C   0  0  0  0  0  0
  -23.6201  -29.8290   20.1659 C   0  0  0  0  0  0
  -25.4116  -36.3095   24.0353 C   0  0  1  0  0  0
  -20.5887  -28.3701   23.1298 C   0  0  2  0  0  0
  -20.6792  -26.9440   22.5417 C   0  0  0  0  0  0
  -19.5775  -26.6395   21.5216 C   0  0  0  0  0  0
  -18.1943  -26.7948   22.1611 C   0  0  0  0  0  0
  -19.1540  -28.8867   23.2891 C   0  0  0  0  0  0
  -18.9450  -30.1466   23.8917 C   0  0  0  0  0  0
  -17.6453  -30.6607   24.0556 C   0  0  0  0  0  0
  -25.9058  -34.9465   23.5143 C   0  0  0  0  0  0
  -16.5348  -29.9100   23.6344 C   0  0  0  0  0  0
  -16.7265  -28.6514   23.0369 C   0  0  0  0  0  0
  -26.4506  -31.6603   25.0758 C   0  0  0  0  0  0
  -25.3748  -31.3721   26.1498 C   0  0  0  0  0  0
  -27.0353  -30.3031   24.6206 C   0  0  0  0  0  0
  -27.6108  -32.4321   25.7500 C   0  0  0  0  0  0
  -27.5587  -37.1796   24.8472 C   0  0  0  0  0  0
  -21.4175  -29.3057   22.3692 N   0  0  0  0  0  0
  -26.4288  -37.3795   23.9433 N   0  0  0  0  0  0
  -24.6797  -31.0736   22.1008 N   0  0  0  0  0  0
  -23.4181  -28.8264   23.3080 O   0  0  0  0  0  0
  -28.3805  -26.5949   20.1365 O   0  0  0  0  0  0
  -26.5592  -34.8921   22.4690 O   0  0  0  0  0  0
  -23.5412  -32.1464   23.7445 O   0  0  0  0  0  0
  -30.6352  -19.1923   20.4179 C   0  0  0  0  0  0
  -30.6474  -17.7768   20.2756 C   0  0  0  0  0  0
  -29.0481  -17.6178   22.0747 C   0  0  0  0  0  0
  -29.8570  -19.8517   21.4062 C   0  0  0  0  0  0
  -29.0281  -19.0326   22.2345 C   0  0  0  0  0  0
  -29.8700  -16.9580   21.1314 C   0  0  0  0  0  0
  -29.7663  -22.9872   19.8478 C   0  0  0  0  0  0
  -29.6788  -24.5237   19.6467 C   0  0  0  0  0  0
  -27.7007  -24.4337   21.2518 C   0  0  0  0  0  0
  -28.6368  -23.3973   21.9555 C   0  0  0  0  0  0
  -28.3017  -25.1372   20.0028 C   0  0  1  0  0  0
  -30.1208  -21.3633   21.6960 C   0  0  0  0  0  0
  -28.1372  -19.6235   23.3329 C   0  0  0  0  0  0
  -29.3711  -22.4868   21.0436 N   0  0  0  0  0  0
  -29.8046  -15.5138   21.0822 N   0  0  0  0  0  0
  -30.3013  -22.2924   18.9789 O   0  0  0  0  0  0
  -27.3753  -18.6954   23.9161 F   0  0  0  0  0  0
  -28.8704  -20.1898   24.2921 F   0  0  0  0  0  0
  -27.3186  -20.5347   22.8115 F   0  0  0  0  0  0
  -31.4830  -12.5064   19.1133 H   0  0  0  0  0  0
  -30.3992  -11.3400   19.8087 H   0  0  0  0  0  0
  -29.7633  -11.7982   17.4299 H   0  0  0  0  0  0
  -29.6546  -13.5060   17.7645 H   0  0  0  0  0  0
  -27.8483  -11.3033   18.8076 H   0  0  0  0  0  0
  -27.3716  -12.6315   17.7833 H   0  0  0  0  0  0
  -27.7027  -14.2504   19.5842 H   0  0  0  0  0  0
  -28.7099  -11.9163   21.2874 H   0  0  0  0  0  0
  -28.4572  -13.5185   21.8953 H   0  0  0  0  0  0
  -25.2758   -9.5676   22.4739 H   0  0  0  0  0  0
  -24.0027   -7.4626   22.7444 H   0  0  0  0  0  0
  -21.0850   -8.8708   19.8945 H   0  0  0  0  0  0
  -22.3667  -10.9637   19.6158 H   0  0  0  0  0  0
  -21.1956   -7.6155   23.9743 H   0  0  0  0  0  0
  -21.1499   -6.0533   25.9105 H   0  0  0  0  0  0
  -22.0592   -2.7640   23.2809 H   0  0  0  0  0  0
  -22.4053  -11.9864   22.4824 H   0  0  0  0  0  0
  -21.1125  -13.1258   22.2598 H   0  0  0  0  0  0
  -24.6555  -15.8277   20.5664 H   0  0  0  0  0  0
  -26.2702  -15.6452   20.1002 H   0  0  0  0  0  0
  -26.7190  -32.5485   23.1169 H   0  0  0  0  0  0
  -25.0182  -33.9766   25.0534 H   0  0  0  0  0  0
  -22.7039  -31.3149   21.4104 H   0  0  0  0  0  0
  -23.3778  -35.9572   23.3291 H   0  0  0  0  0  0
  -24.3584  -36.8885   22.2061 H   0  0  0  0  0  0
  -23.7184  -37.6454   23.6647 H   0  0  0  0  0  0
  -26.0874  -31.5822   20.6132 H   0  0  0  0  0  0
  -26.8286  -30.8477   22.0060 H   0  0  0  0  0  0
  -28.1117  -29.0504   21.1491 H   0  0  0  0  0  0
  -25.9451  -25.9427   19.0394 H   0  0  0  0  0  0
  -23.9530  -27.2983   19.0590 H   0  0  0  0  0  0
  -23.7357  -30.6032   19.4069 H   0  0  0  0  0  0
  -22.7397  -29.2558   19.8697 H   0  0  0  0  0  0
  -25.1283  -36.1970   25.0844 H   0  0  0  0  0  0
  -20.9970  -28.3275   24.1412 H   0  0  0  0  0  0
  -20.5710  -26.2317   23.3609 H   0  0  0  0  0  0
  -21.6659  -26.7519   22.1180 H   0  0  0  0  0  0
  -19.6937  -25.6295   21.1266 H   0  0  0  0  0  0
  -19.6719  -27.3183   20.6728 H   0  0  0  0  0  0
  -17.4226  -26.6716   21.3997 H   0  0  0  0  0  0
  -18.0329  -26.0086   22.9004 H   0  0  0  0  0  0
  -19.7928  -30.7271   24.2299 H   0  0  0  0  0  0
  -17.5015  -31.6296   24.5145 H   0  0  0  0  0  0
  -15.5354  -30.2993   23.7687 H   0  0  0  0  0  0
  -15.8661  -28.0821   22.7103 H   0  0  0  0  0  0
  -24.5884  -30.7141   25.7792 H   0  0  0  0  0  0
  -24.8998  -32.2885   26.5010 H   0  0  0  0  0  0
  -25.8065  -30.8804   27.0224 H   0  0  0  0  0  0
  -26.2937  -29.6771   24.1244 H   0  0  0  0  0  0
  -27.4073  -29.7311   25.4714 H   0  0  0  0  0  0
  -27.8790  -30.4328   23.9426 H   0  0  0  0  0  0
  -27.2755  -33.3612   26.2123 H   0  0  0  0  0  0
  -28.3871  -32.6896   25.0278 H   0  0  0  0  0  0
  -28.0832  -31.8415   26.5363 H   0  0  0  0  0  0
  -28.2604  -38.0098   24.7554 H   0  0  0  0  0  0
  -28.1091  -36.2640   24.6255 H   0  0  0  0  0  0
  -27.2324  -37.1385   25.8877 H   0  0  0  0  0  0
  -20.9356  -29.8700   21.6825 H   0  0  0  0  0  0
  -26.0182  -38.2873   24.1437 H   0  0  0  0  0  0
  -31.2815  -19.7801   19.7822 H   0  0  0  0  0  0
  -31.2704  -17.3329   19.5116 H   0  0  0  0  0  0
  -28.4280  -17.0119   22.7194 H   0  0  0  0  0  0
  -29.9402  -24.7697   18.6177 H   0  0  0  0  0  0
  -30.4527  -24.9704   20.2719 H   0  0  0  0  0  0
  -27.3583  -25.1704   21.9805 H   0  0  0  0  0  0
  -26.7969  -23.9105   20.9347 H   0  0  0  0  0  0
  -28.0427  -22.8173   22.6593 H   0  0  0  0  0  0
  -29.3675  -23.9336   22.5669 H   0  0  0  0  0  0
  -27.6871  -24.8890   19.1408 H   0  0  0  0  0  0
  -31.1769  -21.5288   21.4701 H   0  0  0  0  0  0
  -30.0994  -21.5144   22.7739 H   0  0  0  0  0  0
  -28.9614  -15.1178   21.4674 H   0  0  0  0  0  0
  1 25  1  0  0  0
  1 30  2  0  0  0
  1 85  1  0  0  0
  2  3  1  0  0  0
  2 25  1  0  0  0
  2 90  1  0  0  0
  2 91  1  0  0  0
  3  4  1  0  0  0
  3 92  1  0  0  0
  3 93  1  0  0  0
  4  5  1  0  0  0
  4 94  1  0  0  0
  4 95  1  0  0  0
  5  6  1  0  0  0
  5 26  1  0  0  0
  5 96  1  0  0  0
  6 25  1  0  0  0
  6 97  1  0  0  0
  6 98  1  0  0  0
  7  8  2  0  0  0
  7 26  1  0  0  0
  7 29  1  0  0  0
  8  9  1  0  0  0
  8 22  1  0  0  0
  9 10  1  0  0  0
  9 27  2  0  0  0
 10 11  2  0  0  0
 10 15  1  0  0  0
 11 12  1  0  0  0
 11 99  1  0  0  0
 12 13  2  0  0  0
 12100  1  0  0  0
 13 14  1  0  0  0
 13 31  1  0  0  0
 14 15  2  0  0  0
 14101  1  0  0  0
 15102  1  0  0  0
 16 17  2  0  0  0
 16 21  1  0  0  0
 16 31  1  0  0  0
 17 18  1  0  0  0
 17103  1  0  0  0
 18 19  2  0  0  0
 18104  1  0  0  0
 19 20  1  0  0  0
 19 24  1  0  0  0
 20 21  2  0  0  0
 20105  1  0  0  0
 21 23  1  0  0  0
 22 28  1  0  0  0
 22 32  2  0  0  0
 26 27  1  0  0  0
 28106  1  0  0  0
 28107  1  0  0  0
 29108  1  0  0  0
 29109  1  0  0  0
 33 34  1  0  0  0
 33 66  1  0  0  0
 33 70  2  0  0  0
 34 36  1  0  0  0
 34 59  1  0  0  0
 34110  1  0  0  0
 35 44  2  0  0  0
 35 45  1  0  0  0
 35 68  1  0  0  0
 36 56  1  0  0  0
 36111  1  0  0  0
 37 39  1  0  0  0
 37 47  1  0  0  0
 37 66  1  0  0  0
 37112  1  0  0  0
 38 43  2  0  0  0
 38 46  1  0  0  0
 38 47  1  0  0  0
 39 64  1  0  0  0
 39 67  2  0  0  0
 40 52  1  0  0  0
 40 53  2  0  0  0
 40 58  1  0  0  0
 41113  1  0  0  0
 41114  1  0  0  0
 41115  1  0  0  0
 41 48  1  0  0  0
 42 43  1  0  0  0
 42 66  1  0  0  0
 42116  1  0  0  0
 42117  1  0  0  0
 43 44  1  0  0  0
 44118  1  0  0  0
 45 46  2  0  0  0
 45119  1  0  0  0
 46120  1  0  0  0
 47121  1  0  0  0
 47122  1  0  0  0
 48 56  1  0  0  0
 48 65  1  0  0  0
 48123  1  0  0  0
 49 50  1  0  0  0
 49 53  1  0  0  0
 49 64  1  0  0  0
 49124  1  0  0  0
 50 51  1  0  0  0
 50125  1  0  0  0
 50126  1  0  0  0
 51 52  1  0  0  0
 51127  1  0  0  0
 51128  1  0  0  0
 52129  1  0  0  0
 52130  1  0  0  0
 53 54  1  0  0  0
 54 55  2  0  0  0
 54131  1  0  0  0
 55 57  1  0  0  0
 55132  1  0  0  0
 56 69  2  0  0  0
 57 58  2  0  0  0
 57133  1  0  0  0
 58134  1  0  0  0
 59 60  1  0  0  0
 59 61  1  0  0  0
 59 62  1  0  0  0
 60135  1  0  0  0
 60136  1  0  0  0
 60137  1  0  0  0
 61138  1  0  0  0
 61139  1  0  0  0
 61140  1  0  0  0
 62141  1  0  0  0
 62142  1  0  0  0
 62143  1  0  0  0
 63 65  1  0  0  0
 63144  1  0  0  0
 63145  1  0  0  0
 63146  1  0  0  0
 64147  1  0  0  0
 65148  1  0  0  0
 68 81  1  0  0  0
 71 72  2  0  0  0
 71 74  1  0  0  0
 71149  1  0  0  0
 72 76  1  0  0  0
 72150  1  0  0  0
 73 75  1  0  0  0
 73 76  2  0  0  0
 73151  1  0  0  0
 74 75  2  0  0  0
 74 82  1  0  0  0
 75 83  1  0  0  0
 76 85  1  0  0  0
 77 78  1  0  0  0
 77 84  1  0  0  0
 77 86  2  0  0  0
 78 81  1  0  0  0
 78152  1  0  0  0
 78153  1  0  0  0
 79 80  1  0  0  0
 79 81  1  0  0  0
 79154  1  0  0  0
 79155  1  0  0  0
 80 84  1  0  0  0
 80156  1  0  0  0
 80157  1  0  0  0
 81158  1  0  0  0
 82 84  1  0  0  0
 82159  1  0  0  0
 82160  1  0  0  0
 83 87  1  0  0  0
 83 88  1  0  0  0
 83 89  1  0  0  0
 85161  1  0  0  0
M  ISO  4   1 100  68 101  81 101  85 100
M  END
> <chiral flag>
0

> <version>
0

> <s_m_source_file>
/data/baiqing/PycharmProjects/Reinvent-master-3.2/result/LINK_invent/BTK/process_docking_weight1_custom_product_contain_oxygen_bond_distance_aromatic_linkinvent_7_9_3/rearranged_h_0051.sdf

> <i_m_source_file_index>
60

> <r_mmod_Potential_Energy-OPLS-2005>
72.0132827758789

> <r_mmod_Stretch_Energy-OPLS-2005>
61.5386581420898

> <r_mmod_Bend_Energy-OPLS-2005>
140.036712646484

> <r_mmod_Torsional_Energy-OPLS-2005>
262.323364257812

> <r_mmod_Improper_Torsional_Energy-OPLS-2005>
7.31820726394653

> <r_mmod_Van_der_Waal_Energy-OPLS-2005>
163.423629760742

> <r_mmod_Electrostatic_Energy-OPLS-2005>
-370.304779052734

> <r_mmod_Solvation_Energy-OPLS-2005>
-219.236404418945

> <b_mmod_Minimization_Converged-OPLS-2005>
0

> <r_mmod_RMS_Derivative-OPLS-2005>
3.39145159721375

$$$$
60
                    3D
 Structure written by MMmdl.
163172  0  0  1  0            999 V2000
  -30.6845  -14.5023   20.5865 C   0  0  0  0  0  0
  -30.4301  -12.3309   19.4239 C   0  0  0  0  0  0
  -29.4986  -12.5075   18.2053 C   0  0  0  0  0  0
  -28.0185  -12.3591   18.6187 C   0  0  0  0  0  0
  -27.6603  -13.2026   19.8706 C   0  0  2  0  0  0
  -28.7034  -12.9931   20.9915 C   0  0  0  0  0  0
  -25.2593  -13.8146   20.5656 C   0  0  0  0  0  0
  -24.1830  -13.0439   20.9133 C   0  0  0  0  0  0
  -24.6364  -11.6898   20.8686 C   0  0  0  0  0  0
  -23.9018  -10.4287   21.0379 C   0  0  0  0  0  0
  -24.3582   -9.4215   21.9165 C   0  0  0  0  0  0
  -23.6273   -8.2240   22.0750 C   0  0  0  0  0  0
  -22.4266   -8.0256   21.3535 C   0  0  0  0  0  0
  -21.9873   -9.0220   20.4647 C   0  0  0  0  0  0
  -22.7181  -10.2114   20.3048 C   0  0  0  0  0  0
  -21.6854   -6.0709   22.5264 C   0  0  0  0  0  0
  -21.4019   -6.5620   23.8191 C   0  0  0  0  0  0
  -21.3658   -5.6773   24.9151 C   0  0  0  0  0  0
  -21.6045   -4.3036   24.7211 C   0  0  0  0  0  0
  -21.8821   -3.8125   23.4333 C   0  0  0  0  0  0
  -21.9198   -4.6940   22.3384 C   0  0  0  0  0  0
  -22.7855  -13.5244   21.1791 C   0  0  0  0  0  0
  -22.1669   -4.2122   21.0967 F   0  0  0  0  0  0
  -21.5631   -3.4526   25.7731 F   0  0  0  0  0  0
  -30.0274  -13.3179   20.4374 N   0  0  0  0  0  0
  -26.3013  -12.9301   20.3329 N   0  0  0  0  0  0
  -25.9295  -11.6466   20.5727 N   0  0  0  0  0  0
  -22.0502  -12.8263   22.0375 N   0  0  0  0  0  0
  -25.4366  -15.1857   20.4071 N   0  0  0  0  0  0
  -31.8244  -14.6860   20.1495 O   0  0  0  0  0  0
  -21.6634   -6.8854   21.4230 O   0  0  0  0  0  0
  -22.3536  -14.5537   20.6625 O   0  0  0  0  0  0
  -24.6144  -31.8654   23.2080 C   0  0  0  0  0  0
  -25.9027  -32.4809   23.8386 C   0  0  1  0  0  0
  -27.2423  -27.4282   20.1124 C   0  0  0  0  0  0
  -25.5879  -33.8610   24.2314 N   0  0  0  0  0  0
  -23.4042  -30.4866   21.5467 C   0  0  2  0  0  0
  -24.8560  -28.9466   20.1171 C   0  0  0  0  0  0
  -22.7417  -29.4638   22.4973 C   0  0  0  0  0  0
  -18.0273  -28.1381   22.8483 C   0  0  0  0  0  0
  -24.1483  -36.7318   23.2641 C   0  0  0  0  0  0
  -25.9326  -30.8322   21.3598 C   0  0  0  0  0  0
  -26.0139  -29.4634   20.7124 C   0  0  0  0  0  0
  -27.2125  -28.7123   20.7030 C   0  0  0  0  0  0
  -26.0700  -26.9240   19.5109 C   0  0  0  0  0  0
  -24.8787  -27.6770   19.5116 C   0  0  0  0  0  0
  -23.6161  -29.8124   20.1633 C   0  0  0  0  0  0
  -25.4102  -36.3109   24.0339 C   0  0  1  0  0  0
  -20.5867  -28.3666   23.1315 C   0  0  2  0  0  0
  -20.6762  -26.9401   22.5423 C   0  0  0  0  0  0
  -19.5749  -26.6390   21.5209 C   0  0  0  0  0  0
  -18.1922  -26.7931   22.1609 C   0  0  0  0  0  0
  -19.1523  -28.8841   23.2899 C   0  0  0  0  0  0
  -18.9449  -30.1448   23.8913 C   0  0  0  0  0  0
  -17.6450  -30.6589   24.0571 C   0  0  0  0  0  0
  -25.9030  -34.9470   23.5126 C   0  0  0  0  0  0
  -16.5344  -29.9096   23.6323 C   0  0  0  0  0  0
  -16.7262  -28.6512   23.0341 C   0  0  0  0  0  0
  -26.4469  -31.6600   25.0710 C   0  0  0  0  0  0
  -25.3750  -31.3703   26.1475 C   0  0  0  0  0  0
  -27.0302  -30.3047   24.6067 C   0  0  0  0  0  0
  -27.6046  -32.4328   25.7463 C   0  0  0  0  0  0
  -27.5583  -37.1808   24.8458 C   0  0  0  0  0  0
  -21.4140  -29.3028   22.3720 N   0  0  0  0  0  0
  -26.4289  -37.3793   23.9412 N   0  0  0  0  0  0
  -24.6684  -31.0761   22.0970 N   0  0  0  0  0  0
  -23.4186  -28.8173   23.3010 O   0  0  0  0  0  0
  -28.4011  -26.6809   20.1074 O   0  0  0  0  0  0
  -26.5596  -34.8923   22.4691 O   0  0  0  0  0  0
  -23.5334  -32.1384   23.7483 O   0  0  0  0  0  0
  -31.8487  -18.4961   22.3470 C   0  0  0  0  0  0
  -31.5383  -17.1679   21.9961 C   0  0  0  0  0  0
  -29.4321  -17.9414   21.0666 C   0  0  0  0  0  0
  -30.9607  -19.5656   22.0793 C   0  0  0  0  0  0
  -29.7372  -19.2947   21.3971 C   0  0  0  0  0  0
  -30.3193  -16.8700   21.3551 C   0  0  0  0  0  0
  -29.7913  -21.6391   19.2797 C   0  0  0  0  0  0
  -28.4942  -22.8490   20.8845 C   0  0  0  0  0  0
  -30.2376  -22.9358   18.5809 C   0  0  0  0  0  0
  -30.0449  -24.1926   19.4376 C   0  0  0  0  0  0
  -28.6592  -24.1781   20.0856 C   0  0  2  0  0  0
  -28.6711  -20.3808   21.0814 C   0  0  0  0  0  0
  -28.3725  -25.4763   20.9038 C   0  0  0  0  0  0
  -31.3464  -20.9638   22.5748 C   0  0  0  0  0  0
  -29.0453  -21.6768   20.4205 N   0  0  0  0  0  0
  -29.9334  -15.5172   21.0796 N   0  0  0  0  0  0
  -30.1384  -20.5787   18.7503 O   0  0  0  0  0  0
  -27.8137  -22.8864   21.9148 O   0  0  0  0  0  0
  -32.3287  -20.9131   23.4754 F   0  0  0  0  0  0
  -31.7707  -21.7174   21.5619 F   0  0  0  0  0  0
  -30.3162  -21.5637   23.1658 F   0  0  0  0  0  0
  -31.4738  -12.4447   19.1260 H   0  0  0  0  0  0
  -30.3447  -11.3222   19.8314 H   0  0  0  0  0  0
  -29.7446  -11.7766   17.4335 H   0  0  0  0  0  0
  -29.6583  -13.4914   17.7588 H   0  0  0  0  0  0
  -27.8383  -11.3044   18.8249 H   0  0  0  0  0  0
  -27.3627  -12.6210   17.7863 H   0  0  0  0  0  0
  -27.7033  -14.2476   19.5641 H   0  0  0  0  0  0
  -28.6924  -11.9569   21.3327 H   0  0  0  0  0  0
  -28.4608  -13.5882   21.8734 H   0  0  0  0  0  0
  -25.2752   -9.5697   22.4696 H   0  0  0  0  0  0
  -23.9979   -7.4654   22.7489 H   0  0  0  0  0  0
  -21.0787   -8.8736   19.8972 H   0  0  0  0  0  0
  -22.3641  -10.9627   19.6130 H   0  0  0  0  0  0
  -21.2029   -7.6134   23.9685 H   0  0  0  0  0  0
  -21.1477   -6.0507   25.9048 H   0  0  0  0  0  0
  -22.0616   -2.7590   23.2837 H   0  0  0  0  0  0
  -22.4118  -11.9932   22.4773 H   0  0  0  0  0  0
  -21.1123  -13.1309   22.2578 H   0  0  0  0  0  0
  -24.6729  -15.8467   20.5067 H   0  0  0  0  0  0
  -26.2887  -15.6149   20.0687 H   0  0  0  0  0  0
  -26.7091  -32.5527   23.1156 H   0  0  0  0  0  0
  -25.0042  -33.9774   25.0465 H   0  0  0  0  0  0
  -22.6925  -31.3019   21.4023 H   0  0  0  0  0  0
  -23.3743  -35.9654   23.3297 H   0  0  0  0  0  0
  -24.3579  -36.8942   22.2058 H   0  0  0  0  0  0
  -23.7238  -37.6519   23.6662 H   0  0  0  0  0  0
  -26.0397  -31.5951   20.5875 H   0  0  0  0  0  0
  -26.8221  -30.8941   21.9746 H   0  0  0  0  0  0
  -28.1078  -29.1061   21.1626 H   0  0  0  0  0  0
  -26.0790  -25.9497   19.0422 H   0  0  0  0  0  0
  -23.9890  -27.2746   19.0482 H   0  0  0  0  0  0
  -23.7251  -30.5817   19.3987 H   0  0  0  0  0  0
  -22.7419  -29.2292   19.8679 H   0  0  0  0  0  0
  -25.1280  -36.1976   25.0830 H   0  0  0  0  0  0
  -20.9960  -28.3244   24.1438 H   0  0  0  0  0  0
  -20.5660  -26.2270   23.3611 H   0  0  0  0  0  0
  -21.6635  -26.7442   22.1223 H   0  0  0  0  0  0
  -19.6913  -25.6305   21.1230 H   0  0  0  0  0  0
  -19.6704  -27.3206   20.6744 H   0  0  0  0  0  0
  -17.4199  -26.6684   21.4008 H   0  0  0  0  0  0
  -18.0321  -26.0074   22.9003 H   0  0  0  0  0  0
  -19.7928  -30.7258   24.2294 H   0  0  0  0  0  0
  -17.5009  -31.6262   24.5176 H   0  0  0  0  0  0
  -15.5346  -30.3003   23.7643 H   0  0  0  0  0  0
  -15.8656  -28.0843   22.7043 H   0  0  0  0  0  0
  -24.5893  -30.7082   25.7818 H   0  0  0  0  0  0
  -24.8979  -32.2862   26.4970 H   0  0  0  0  0  0
  -25.8120  -30.8832   27.0200 H   0  0  0  0  0  0
  -26.2829  -29.6797   24.1157 H   0  0  0  0  0  0
  -27.4129  -29.7295   25.4509 H   0  0  0  0  0  0
  -27.8641  -30.4381   23.9169 H   0  0  0  0  0  0
  -27.2654  -33.3611   26.2077 H   0  0  0  0  0  0
  -28.3830  -32.6919   25.0273 H   0  0  0  0  0  0
  -28.0741  -31.8431   26.5349 H   0  0  0  0  0  0
  -28.2597  -38.0108   24.7512 H   0  0  0  0  0  0
  -28.1081  -36.2641   24.6268 H   0  0  0  0  0  0
  -27.2305  -37.1448   25.8861 H   0  0  0  0  0  0
  -20.9306  -29.8749   21.6938 H   0  0  0  0  0  0
  -26.0179  -38.2869   24.1416 H   0  0  0  0  0  0
  -32.7790  -18.6862   22.8617 H   0  0  0  0  0  0
  -32.2324  -16.3822   22.2584 H   0  0  0  0  0  0
  -28.4877  -17.7201   20.5884 H   0  0  0  0  0  0
  -29.6641  -23.0318   17.6583 H   0  0  0  0  0  0
  -31.2829  -22.8424   18.2866 H   0  0  0  0  0  0
  -30.1610  -25.0798   18.8163 H   0  0  0  0  0  0
  -30.8219  -24.2488   20.2032 H   0  0  0  0  0  0
  -27.9109  -24.1399   19.2941 H   0  0  0  0  0  0
  -28.1630  -20.5418   22.0324 H   0  0  0  0  0  0
  -27.9044  -19.9335   20.4476 H   0  0  0  0  0  0
  -29.1256  -25.5858   21.6859 H   0  0  0  0  0  0
  -27.4198  -25.3883   21.4304 H   0  0  0  0  0  0
  -28.9604  -15.2909   21.2207 H   0  0  0  0  0  0
  1 25  1  0  0  0
  1 30  2  0  0  0
  1 86  1  0  0  0
  2  3  1  0  0  0
  2 25  1  0  0  0
  2 92  1  0  0  0
  2 93  1  0  0  0
  3  4  1  0  0  0
  3 94  1  0  0  0
  3 95  1  0  0  0
  4  5  1  0  0  0
  4 96  1  0  0  0
  4 97  1  0  0  0
  5  6  1  0  0  0
  5 26  1  0  0  0
  5 98  1  0  0  0
  6 25  1  0  0  0
  6 99  1  0  0  0
  6100  1  0  0  0
  7  8  2  0  0  0
  7 26  1  0  0  0
  7 29  1  0  0  0
  8  9  1  0  0  0
  8 22  1  0  0  0
  9 10  1  0  0  0
  9 27  2  0  0  0
 10 11  2  0  0  0
 10 15  1  0  0  0
 11 12  1  0  0  0
 11101  1  0  0  0
 12 13  2  0  0  0
 12102  1  0  0  0
 13 14  1  0  0  0
 13 31  1  0  0  0
 14 15  2  0  0  0
 14103  1  0  0  0
 15104  1  0  0  0
 16 17  2  0  0  0
 16 21  1  0  0  0
 16 31  1  0  0  0
 17 18  1  0  0  0
 17105  1  0  0  0
 18 19  2  0  0  0
 18106  1  0  0  0
 19 20  1  0  0  0
 19 24  1  0  0  0
 20 21  2  0  0  0
 20107  1  0  0  0
 21 23  1  0  0  0
 22 28  1  0  0  0
 22 32  2  0  0  0
 26 27  1  0  0  0
 28108  1  0  0  0
 28109  1  0  0  0
 29110  1  0  0  0
 29111  1  0  0  0
 33 34  1  0  0  0
 33 66  1  0  0  0
 33 70  2  0  0  0
 34 36  1  0  0  0
 34 59  1  0  0  0
 34112  1  0  0  0
 35 44  2  0  0  0
 35 45  1  0  0  0
 35 68  1  0  0  0
 36 56  1  0  0  0
 36113  1  0  0  0
 37 39  1  0  0  0
 37 47  1  0  0  0
 37 66  1  0  0  0
 37114  1  0  0  0
 38 43  2  0  0  0
 38 46  1  0  0  0
 38 47  1  0  0  0
 39 64  1  0  0  0
 39 67  2  0  0  0
 40 52  1  0  0  0
 40 53  2  0  0  0
 40 58  1  0  0  0
 41115  1  0  0  0
 41116  1  0  0  0
 41117  1  0  0  0
 41 48  1  0  0  0
 42 43  1  0  0  0
 42 66  1  0  0  0
 42118  1  0  0  0
 42119  1  0  0  0
 43 44  1  0  0  0
 44120  1  0  0  0
 45 46  2  0  0  0
 45121  1  0  0  0
 46122  1  0  0  0
 47123  1  0  0  0
 47124  1  0  0  0
 48 56  1  0  0  0
 48 65  1  0  0  0
 48125  1  0  0  0
 49 50  1  0  0  0
 49 53  1  0  0  0
 49 64  1  0  0  0
 49126  1  0  0  0
 50 51  1  0  0  0
 50127  1  0  0  0
 50128  1  0  0  0
 51 52  1  0  0  0
 51129  1  0  0  0
 51130  1  0  0  0
 52131  1  0  0  0
 52132  1  0  0  0
 53 54  1  0  0  0
 54 55  2  0  0  0
 54133  1  0  0  0
 55 57  1  0  0  0
 55134  1  0  0  0
 56 69  2  0  0  0
 57 58  2  0  0  0
 57135  1  0  0  0
 58136  1  0  0  0
 59 60  1  0  0  0
 59 61  1  0  0  0
 59 62  1  0  0  0
 60137  1  0  0  0
 60138  1  0  0  0
 60139  1  0  0  0
 61140  1  0  0  0
 61141  1  0  0  0
 61142  1  0  0  0
 62143  1  0  0  0
 62144  1  0  0  0
 62145  1  0  0  0
 63 65  1  0  0  0
 63146  1  0  0  0
 63147  1  0  0  0
 63148  1  0  0  0
 64149  1  0  0  0
 65150  1  0  0  0
 68 83  1  0  0  0
 71 72  2  0  0  0
 71 74  1  0  0  0
 71151  1  0  0  0
 72 76  1  0  0  0
 72152  1  0  0  0
 73 75  1  0  0  0
 73 76  2  0  0  0
 73153  1  0  0  0
 74 75  2  0  0  0
 74 84  1  0  0  0
 75 82  1  0  0  0
 76 86  1  0  0  0
 77 79  1  0  0  0
 77 85  1  0  0  0
 77 87  2  0  0  0
 78 81  1  0  0  0
 78 85  1  0  0  0
 78 88  2  0  0  0
 79 80  1  0  0  0
 79154  1  0  0  0
 79155  1  0  0  0
 80 81  1  0  0  0
 80156  1  0  0  0
 80157  1  0  0  0
 81 83  1  0  0  0
 81158  1  0  0  0
 82 85  1  0  0  0
 82159  1  0  0  0
 82160  1  0  0  0
 83161  1  0  0  0
 83162  1  0  0  0
 84 89  1  0  0  0
 84 90  1  0  0  0
 84 91  1  0  0  0
 86163  1  0  0  0
M  ISO  4   1 100  68 101  83 101  86 100
M  END
> <chiral flag>
0

> <version>
0

> <s_m_source_file>
/data/baiqing/PycharmProjects/Reinvent-master-3.2/result/LINK_invent/BTK/process_docking_weight1_custom_product_contain_oxygen_bond_distance_aromatic_linkinvent_7_9_3/rearranged_h_0051.sdf

> <i_m_source_file_index>
61

> <r_mmod_Potential_Energy-OPLS-2005>
-16.5043678283691

> <r_mmod_Stretch_Energy-OPLS-2005>
54.2161712646484

> <r_mmod_Bend_Energy-OPLS-2005>
114.113716125488

> <r_mmod_Torsional_Energy-OPLS-2005>
243.82958984375

> <r_mmod_Improper_Torsional_Energy-OPLS-2005>
4.69413042068481

> <r_mmod_Van_der_Waal_Energy-OPLS-2005>
173.098236083984

> <r_mmod_Electrostatic_Energy-OPLS-2005>
-398.854919433594

> <r_mmod_Solvation_Energy-OPLS-2005>
-222.869781494141

> <b_mmod_Minimization_Converged-OPLS-2005>
0

> <r_mmod_RMS_Derivative-OPLS-2005>
2.16683435440063

$$$$
61
                    3D
 Structure written by MMmdl.
164173  0  0  1  0            999 V2000
  -30.5977  -14.6363   20.4573 C   0  0  0  0  0  0
  -30.4273  -12.3881   19.4304 C   0  0  0  0  0  0
  -29.4818  -12.4756   18.2131 C   0  0  0  0  0  0
  -28.0058  -12.3475   18.6366 C   0  0  0  0  0  0
  -27.6474  -13.2144   19.8748 C   0  0  2  0  0  0
  -28.6985  -13.0662   20.9963 C   0  0  0  0  0  0
  -25.2525  -13.8181   20.5717 C   0  0  0  0  0  0
  -24.1767  -13.0441   20.9154 C   0  0  0  0  0  0
  -24.6323  -11.6910   20.8666 C   0  0  0  0  0  0
  -23.8985  -10.4297   21.0333 C   0  0  0  0  0  0
  -24.3549   -9.4236   21.9116 C   0  0  0  0  0  0
  -23.6239   -8.2262   22.0707 C   0  0  0  0  0  0
  -22.4216   -8.0265   21.3510 C   0  0  0  0  0  0
  -21.9829   -9.0211   20.4616 C   0  0  0  0  0  0
  -22.7136  -10.2118   20.3021 C   0  0  0  0  0  0
  -21.6862   -6.0715   22.5248 C   0  0  0  0  0  0
  -21.4026   -6.5623   23.8176 C   0  0  0  0  0  0
  -21.3659   -5.6784   24.9135 C   0  0  0  0  0  0
  -21.6048   -4.3046   24.7200 C   0  0  0  0  0  0
  -21.8836   -3.8137   23.4325 C   0  0  0  0  0  0
  -21.9200   -4.6945   22.3373 C   0  0  0  0  0  0
  -22.7809  -13.5209   21.1887 C   0  0  0  0  0  0
  -22.1652   -4.2125   21.0951 F   0  0  0  0  0  0
  -21.5625   -3.4545   25.7723 F   0  0  0  0  0  0
  -30.0020  -13.4065   20.4113 N   0  0  0  0  0  0
  -26.2947  -12.9354   20.3420 N   0  0  0  0  0  0
  -25.9258  -11.6498   20.5791 N   0  0  0  0  0  0
  -22.0570  -12.8085   22.0475 N   0  0  0  0  0  0
  -25.4287  -15.1908   20.4146 N   0  0  0  0  0  0
  -31.7903  -14.7789   20.1621 O   0  0  0  0  0  0
  -21.6624   -6.8832   21.4208 O   0  0  0  0  0  0
  -22.3438  -14.5522   20.6823 O   0  0  0  0  0  0
  -24.6255  -31.8573   23.2005 C   0  0  0  0  0  0
  -25.9101  -32.4771   23.8331 C   0  0  1  0  0  0
  -27.2221  -27.3372   20.0909 C   0  0  0  0  0  0
  -25.5899  -33.8576   24.2217 N   0  0  0  0  0  0
  -23.4208  -30.4777   21.5468 C   0  0  2  0  0  0
  -24.8608  -28.9357   20.1152 C   0  0  0  0  0  0
  -22.7511  -29.4568   22.4982 C   0  0  0  0  0  0
  -18.0277  -28.1399   22.8529 C   0  0  0  0  0  0
  -24.1492  -36.7280   23.2645 C   0  0  0  0  0  0
  -25.9620  -30.7905   21.3713 C   0  0  0  0  0  0
  -26.0303  -29.4207   20.7120 C   0  0  0  0  0  0
  -27.2139  -28.6301   20.6901 C   0  0  0  0  0  0
  -26.0267  -26.9006   19.4755 C   0  0  0  0  0  0
  -24.8576  -27.6811   19.4921 C   0  0  0  0  0  0
  -23.6320  -29.8138   20.1616 C   0  0  0  0  0  0
  -25.4125  -36.3061   24.0302 C   0  0  1  0  0  0
  -20.5889  -28.3662   23.1364 C   0  0  2  0  0  0
  -20.6751  -26.9390   22.5472 C   0  0  0  0  0  0
  -19.5701  -26.6381   21.5301 C   0  0  0  0  0  0
  -18.1885  -26.7948   22.1688 C   0  0  0  0  0  0
  -19.1539  -28.8860   23.2939 C   0  0  0  0  0  0
  -18.9440  -30.1475   23.8914 C   0  0  0  0  0  0
  -17.6426  -30.6591   24.0582 C   0  0  0  0  0  0
  -25.9057  -34.9446   23.5062 C   0  0  0  0  0  0
  -16.5321  -29.9079   23.6344 C   0  0  0  0  0  0
  -16.7270  -28.6523   23.0347 C   0  0  0  0  0  0
  -26.4473  -31.6609   25.0721 C   0  0  0  0  0  0
  -25.3710  -31.3745   26.1444 C   0  0  0  0  0  0
  -27.0313  -30.3021   24.6208 C   0  0  0  0  0  0
  -27.5970  -32.4418   25.7512 C   0  0  0  0  0  0
  -27.5588  -37.1787   24.8455 C   0  0  0  0  0  0
  -21.4217  -29.2997   22.3749 N   0  0  0  0  0  0
  -26.4283  -37.3775   23.9416 N   0  0  0  0  0  0
  -24.6883  -31.0609   22.0939 N   0  0  0  0  0  0
  -23.4244  -28.8076   23.3033 O   0  0  0  0  0  0
  -28.3685  -26.5355   20.1098 O   0  0  0  0  0  0
  -26.5673  -34.8922   22.4656 O   0  0  0  0  0  0
  -23.5412  -32.1358   23.7324 O   0  0  0  0  0  0
  -29.9181  -19.7584   19.0679 C   0  0  0  0  0  0
  -30.2399  -18.6537   18.2599 C   0  0  0  0  0  0
  -29.4451  -18.2155   20.8920 C   0  0  0  0  0  0
  -29.4506  -19.5621   20.3846 C   0  0  0  0  0  0
  -30.1389  -17.3297   18.7398 C   0  0  0  0  0  0
  -29.8298  -17.0722   20.1071 C   0  0  0  0  0  0
  -29.9404  -23.1084   20.6030 C   0  0  0  0  0  0
  -31.0689  -22.8967   21.3100 C   0  0  0  0  0  0
  -29.6746  -24.4034   19.7861 C   0  0  0  0  0  0
  -27.5378  -24.3870   21.1033 C   0  0  0  0  0  0
  -27.4869  -22.8269   21.0085 C   0  0  0  0  0  0
  -28.2704  -25.0744   19.9333 C   0  0  1  0  0  0
  -30.2531  -16.2188   17.7143 C   0  0  0  0  0  0
  -28.9203  -20.7658   21.2380 C   0  0  0  0  0  0
  -29.7596  -15.7082   20.6432 N   0  0  0  0  0  0
  -28.7617  -22.1445   20.5997 N   0  3  2  0  0  0
  -31.4558  -12.5413   19.0966 H   0  0  0  0  0  0
  -30.3932  -11.3920   19.8696 H   0  0  0  0  0  0
  -29.7167  -11.6935   17.4899 H   0  0  0  0  0  0
  -29.6346  -13.4176   17.6948 H   0  0  0  0  0  0
  -27.8220  -11.2960   18.8546 H   0  0  0  0  0  0
  -27.3484  -12.6022   17.8037 H   0  0  0  0  0  0
  -27.6677  -14.2529   19.5455 H   0  0  0  0  0  0
  -28.7102  -12.0474   21.3853 H   0  0  0  0  0  0
  -28.4676  -13.7074   21.8483 H   0  0  0  0  0  0
  -25.2693   -9.5739   22.4688 H   0  0  0  0  0  0
  -23.9984   -7.4659   22.7400 H   0  0  0  0  0  0
  -21.0772   -8.8674   19.8894 H   0  0  0  0  0  0
  -22.3516  -10.9629   19.6141 H   0  0  0  0  0  0
  -21.2031   -7.6135   23.9662 H   0  0  0  0  0  0
  -21.1444   -6.0517   25.9029 H   0  0  0  0  0  0
  -22.0618   -2.7605   23.2833 H   0  0  0  0  0  0
  -22.4237  -11.9608   22.4543 H   0  0  0  0  0  0
  -21.1273  -13.1079   22.2986 H   0  0  0  0  0  0
  -24.6644  -15.8489   20.5133 H   0  0  0  0  0  0
  -26.2842  -15.6257   20.0961 H   0  0  0  0  0  0
  -26.7179  -32.5406   23.1085 H   0  0  0  0  0  0
  -25.0002  -33.9728   25.0331 H   0  0  0  0  0  0
  -22.7169  -31.2982   21.4040 H   0  0  0  0  0  0
  -23.3762  -35.9605   23.3276 H   0  0  0  0  0  0
  -24.3589  -36.8946   22.2069 H   0  0  0  0  0  0
  -23.7251  -37.6458   23.6723 H   0  0  0  0  0  0
  -26.1122  -31.5564   20.6079 H   0  0  0  0  0  0
  -26.8363  -30.8260   22.0074 H   0  0  0  0  0  0
  -28.1210  -28.9962   21.1500 H   0  0  0  0  0  0
  -25.9623  -25.9511   18.9713 H   0  0  0  0  0  0
  -23.9581  -27.3105   19.0182 H   0  0  0  0  0  0
  -23.7566  -30.5881   19.4046 H   0  0  0  0  0  0
  -22.7568  -29.2372   19.8565 H   0  0  0  0  0  0
  -25.1340  -36.1870   25.0797 H   0  0  0  0  0  0
  -20.9991  -28.3211   24.1488 H   0  0  0  0  0  0
  -20.5731  -26.2252   23.3664 H   0  0  0  0  0  0
  -21.6596  -26.7434   22.1214 H   0  0  0  0  0  0
  -19.6820  -25.6312   21.1286 H   0  0  0  0  0  0
  -19.6610  -27.3247   20.6887 H   0  0  0  0  0  0
  -17.4169  -26.6771   21.4067 H   0  0  0  0  0  0
  -18.0184  -26.0106   22.9083 H   0  0  0  0  0  0
  -19.7892  -30.7340   24.2262 H   0  0  0  0  0  0
  -17.4932  -31.6270   24.5172 H   0  0  0  0  0  0
  -15.5309  -30.2941   23.7668 H   0  0  0  0  0  0
  -15.8690  -28.0850   22.6995 H   0  0  0  0  0  0
  -24.5865  -30.7127   25.7770 H   0  0  0  0  0  0
  -24.8937  -32.2905   26.4934 H   0  0  0  0  0  0
  -25.8020  -30.8874   27.0194 H   0  0  0  0  0  0
  -26.2875  -29.6802   24.1201 H   0  0  0  0  0  0
  -27.3944  -29.7269   25.4739 H   0  0  0  0  0  0
  -27.8789  -30.4300   23.9467 H   0  0  0  0  0  0
  -27.2491  -33.3709   26.2057 H   0  0  0  0  0  0
  -28.3772  -32.7027   25.0351 H   0  0  0  0  0  0
  -28.0653  -31.8609   26.5466 H   0  0  0  0  0  0
  -28.2549  -38.0141   24.7571 H   0  0  0  0  0  0
  -28.1127  -36.2664   24.6184 H   0  0  0  0  0  0
  -27.2310  -37.1326   25.8856 H   0  0  0  0  0  0
  -20.9396  -29.8719   21.6952 H   0  0  0  0  0  0
  -26.0124  -38.2818   24.1473 H   0  0  0  0  0  0
  -29.9902  -20.7457   18.6332 H   0  0  0  0  0  0
  -30.5143  -18.8384   17.2265 H   0  0  0  0  0  0
  -29.1129  -18.0549   21.9091 H   0  0  0  0  0  0
  -31.8587  -23.6359   21.3142 H   0  0  0  0  0  0
  -31.2482  -22.0122   21.9037 H   0  0  0  0  0  0
  -29.8588  -24.1826   18.7327 H   0  0  0  0  0  0
  -30.4383  -25.1341   20.0580 H   0  0  0  0  0  0
  -28.0375  -24.6756   22.0274 H   0  0  0  0  0  0
  -26.5183  -24.7651   21.1842 H   0  0  0  0  0  0
  -26.7083  -22.5233   20.3073 H   0  0  0  0  0  0
  -27.1680  -22.4689   21.9895 H   0  0  0  0  0  0
  -27.7419  -24.8537   19.0042 H   0  0  0  0  0  0
  -30.3052  -16.6215   16.7037 H   0  0  0  0  0  0
  -29.3598  -15.5966   17.7587 H   0  0  0  0  0  0
  -31.1394  -15.6074   17.8661 H   0  0  0  0  0  0
  -29.4762  -20.8339   22.1716 H   0  0  0  0  0  0
  -27.9303  -20.4350   21.5584 H   0  0  0  0  0  0
  -28.8701  -15.4561   21.0518 H   0  0  0  0  0  0
  -28.5850  -21.9105   19.6349 H   0  0  0  0  0  0
  1 25  1  0  0  0
  1 30  2  0  0  0
  1 85  1  0  0  0
  2  3  1  0  0  0
  2 25  1  0  0  0
  2 87  1  0  0  0
  2 88  1  0  0  0
  3  4  1  0  0  0
  3 89  1  0  0  0
  3 90  1  0  0  0
  4  5  1  0  0  0
  4 91  1  0  0  0
  4 92  1  0  0  0
  5  6  1  0  0  0
  5 26  1  0  0  0
  5 93  1  0  0  0
  6 25  1  0  0  0
  6 94  1  0  0  0
  6 95  1  0  0  0
  7  8  2  0  0  0
  7 26  1  0  0  0
  7 29  1  0  0  0
  8  9  1  0  0  0
  8 22  1  0  0  0
  9 10  1  0  0  0
  9 27  2  0  0  0
 10 11  2  0  0  0
 10 15  1  0  0  0
 11 12  1  0  0  0
 11 96  1  0  0  0
 12 13  2  0  0  0
 12 97  1  0  0  0
 13 14  1  0  0  0
 13 31  1  0  0  0
 14 15  2  0  0  0
 14 98  1  0  0  0
 15 99  1  0  0  0
 16 17  2  0  0  0
 16 21  1  0  0  0
 16 31  1  0  0  0
 17 18  1  0  0  0
 17100  1  0  0  0
 18 19  2  0  0  0
 18101  1  0  0  0
 19 20  1  0  0  0
 19 24  1  0  0  0
 20 21  2  0  0  0
 20102  1  0  0  0
 21 23  1  0  0  0
 22 28  1  0  0  0
 22 32  2  0  0  0
 26 27  1  0  0  0
 28103  1  0  0  0
 28104  1  0  0  0
 29105  1  0  0  0
 29106  1  0  0  0
 33 34  1  0  0  0
 33 66  1  0  0  0
 33 70  2  0  0  0
 34 36  1  0  0  0
 34 59  1  0  0  0
 34107  1  0  0  0
 35 44  2  0  0  0
 35 45  1  0  0  0
 35 68  1  0  0  0
 36 56  1  0  0  0
 36108  1  0  0  0
 37 39  1  0  0  0
 37 47  1  0  0  0
 37 66  1  0  0  0
 37109  1  0  0  0
 38 43  2  0  0  0
 38 46  1  0  0  0
 38 47  1  0  0  0
 39 64  1  0  0  0
 39 67  2  0  0  0
 40 52  1  0  0  0
 40 53  2  0  0  0
 40 58  1  0  0  0
 41110  1  0  0  0
 41111  1  0  0  0
 41112  1  0  0  0
 41 48  1  0  0  0
 42 43  1  0  0  0
 42 66  1  0  0  0
 42113  1  0  0  0
 42114  1  0  0  0
 43 44  1  0  0  0
 44115  1  0  0  0
 45 46  2  0  0  0
 45116  1  0  0  0
 46117  1  0  0  0
 47118  1  0  0  0
 47119  1  0  0  0
 48 56  1  0  0  0
 48 65  1  0  0  0
 48120  1  0  0  0
 49 50  1  0  0  0
 49 53  1  0  0  0
 49 64  1  0  0  0
 49121  1  0  0  0
 50 51  1  0  0  0
 50122  1  0  0  0
 50123  1  0  0  0
 51 52  1  0  0  0
 51124  1  0  0  0
 51125  1  0  0  0
 52126  1  0  0  0
 52127  1  0  0  0
 53 54  1  0  0  0
 54 55  2  0  0  0
 54128  1  0  0  0
 55 57  1  0  0  0
 55129  1  0  0  0
 56 69  2  0  0  0
 57 58  2  0  0  0
 57130  1  0  0  0
 58131  1  0  0  0
 59 60  1  0  0  0
 59 61  1  0  0  0
 59 62  1  0  0  0
 60132  1  0  0  0
 60133  1  0  0  0
 60134  1  0  0  0
 61135  1  0  0  0
 61136  1  0  0  0
 61137  1  0  0  0
 62138  1  0  0  0
 62139  1  0  0  0
 62140  1  0  0  0
 63 65  1  0  0  0
 63141  1  0  0  0
 63142  1  0  0  0
 63143  1  0  0  0
 64144  1  0  0  0
 65145  1  0  0  0
 68 82  1  0  0  0
 71 72  2  0  0  0
 71 74  1  0  0  0
 71146  1  0  0  0
 72 75  1  0  0  0
 72147  1  0  0  0
 73 74  2  0  0  0
 73 76  1  0  0  0
 73148  1  0  0  0
 74 84  1  0  0  0
 75 76  2  0  0  0
 75 83  1  0  0  0
 76 85  1  0  0  0
 77 78  2  0  0  0
 77 79  1  0  0  0
 77 86  1  0  0  0
 78149  1  0  0  0
 78150  1  0  0  0
 79 82  1  0  0  0
 79151  1  0  0  0
 79152  1  0  0  0
 80 81  1  0  0  0
 80 82  1  0  0  0
 80153  1  0  0  0
 80154  1  0  0  0
 81 86  1  0  0  0
 81155  1  0  0  0
 81156  1  0  0  0
 82157  1  0  0  0
 83158  1  0  0  0
 83159  1  0  0  0
 83160  1  0  0  0
 84161  1  0  0  0
 84162  1  0  0  0
 84 86  1  0  0  0
 85163  1  0  0  0
 86164  1  0  0  0
M  CHG  1  86   1
M  ISO  4   1 100  68 101  82 101  85 100
M  END
> <chiral flag>
0

> <version>
0

> <s_m_source_file>
/data/baiqing/PycharmProjects/Reinvent-master-3.2/result/LINK_invent/BTK/process_docking_weight1_custom_product_contain_oxygen_bond_distance_aromatic_linkinvent_7_9_3/rearranged_h_0051.sdf

> <i_m_source_file_index>
62

> <r_mmod_Potential_Energy-OPLS-2005>
-28.9985866546631

> <r_mmod_Stretch_Energy-OPLS-2005>
76.8595123291016

> <r_mmod_Bend_Energy-OPLS-2005>
140.428894042969

> <r_mmod_Torsional_Energy-OPLS-2005>
279.180297851562

> <r_mmod_Improper_Torsional_Energy-OPLS-2005>
5.95619249343872

> <r_mmod_Van_der_Waal_Energy-OPLS-2005>
158.580810546875

> <r_mmod_Electrostatic_Energy-OPLS-2005>
-282.399688720703

> <r_mmod_Solvation_Energy-OPLS-2005>
-452.925140380859

> <b_mmod_Minimization_Converged-OPLS-2005>
0

> <r_mmod_RMS_Derivative-OPLS-2005>
4.31164264678955

$$$$
62
                    3D
 Structure written by MMmdl.
160169  0  0  1  0            999 V2000
  -30.6703  -14.6399   20.4885 C   0  0  0  0  0  0
  -30.4085  -12.3930   19.4623 C   0  0  0  0  0  0
  -29.4914  -12.4986   18.2258 C   0  0  0  0  0  0
  -28.0160  -12.3455   18.6406 C   0  0  0  0  0  0
  -27.6385  -13.2320   19.8590 C   0  0  2  0  0  0
  -28.6842  -13.1382   20.9925 C   0  0  0  0  0  0
  -25.2441  -13.8183   20.5700 C   0  0  0  0  0  0
  -24.1748  -13.0438   20.9237 C   0  0  0  0  0  0
  -24.6360  -11.6922   20.8778 C   0  0  0  0  0  0
  -23.9045  -10.4293   21.0429 C   0  0  0  0  0  0
  -24.3602   -9.4200   21.9192 C   0  0  0  0  0  0
  -23.6281   -8.2232   22.0742 C   0  0  0  0  0  0
  -22.4267   -8.0262   21.3534 C   0  0  0  0  0  0
  -21.9907   -9.0235   20.4635 C   0  0  0  0  0  0
  -22.7223  -10.2128   20.3062 C   0  0  0  0  0  0
  -21.6845   -6.0726   22.5279 C   0  0  0  0  0  0
  -21.4008   -6.5632   23.8212 C   0  0  0  0  0  0
  -21.3665   -5.6791   24.9179 C   0  0  0  0  0  0
  -21.6051   -4.3050   24.7233 C   0  0  0  0  0  0
  -21.8805   -3.8138   23.4354 C   0  0  0  0  0  0
  -21.9183   -4.6953   22.3406 C   0  0  0  0  0  0
  -22.7768  -13.5204   21.1886 C   0  0  0  0  0  0
  -22.1633   -4.2139   21.0978 F   0  0  0  0  0  0
  -21.5653   -3.4529   25.7746 F   0  0  0  0  0  0
  -29.9926  -13.4517   20.4078 N   0  0  0  0  0  0
  -26.2895  -12.9418   20.3335 N   0  0  0  0  0  0
  -25.9297  -11.6559   20.5820 N   0  0  0  0  0  0
  -22.0426  -12.8186   22.0461 N   0  0  0  0  0  0
  -25.4091  -15.1903   20.4022 N   0  0  0  0  0  0
  -31.8563  -14.7004   20.1546 O   0  0  0  0  0  0
  -21.6631   -6.8861   21.4233 O   0  0  0  0  0  0
  -22.3433  -14.5503   20.6743 O   0  0  0  0  0  0
  -24.6226  -31.8600   23.2015 C   0  0  0  0  0  0
  -25.9084  -32.4769   23.8346 C   0  0  1  0  0  0
  -27.2210  -27.3311   20.1292 C   0  0  0  0  0  0
  -25.5915  -33.8571   24.2278 N   0  0  0  0  0  0
  -23.4171  -30.4803   21.5432 C   0  0  2  0  0  0
  -24.8651  -28.9325   20.1101 C   0  0  0  0  0  0
  -22.7457  -29.4615   22.4940 C   0  0  0  0  0  0
  -18.0290  -28.1364   22.8487 C   0  0  0  0  0  0
  -24.1498  -36.7295   23.2639 C   0  0  0  0  0  0
  -25.9552  -30.7935   21.3717 C   0  0  0  0  0  0
  -26.0302  -29.4213   20.7158 C   0  0  0  0  0  0
  -27.2148  -28.6312   20.7145 C   0  0  0  0  0  0
  -26.0449  -26.8879   19.4933 C   0  0  0  0  0  0
  -24.8728  -27.6708   19.4899 C   0  0  0  0  0  0
  -23.6314  -29.8099   20.1589 C   0  0  0  0  0  0
  -25.4120  -36.3084   24.0331 C   0  0  1  0  0  0
  -20.5886  -28.3671   23.1286 C   0  0  2  0  0  0
  -20.6780  -26.9396   22.5407 C   0  0  0  0  0  0
  -19.5761  -26.6372   21.5207 C   0  0  0  0  0  0
  -18.1938  -26.7911   22.1616 C   0  0  0  0  0  0
  -19.1542  -28.8833   23.2884 C   0  0  0  0  0  0
  -18.9465  -30.1439   23.8894 C   0  0  0  0  0  0
  -17.6466  -30.6575   24.0553 C   0  0  0  0  0  0
  -25.9049  -34.9448   23.5105 C   0  0  0  0  0  0
  -16.5358  -29.9070   23.6322 C   0  0  0  0  0  0
  -16.7278  -28.6483   23.0352 C   0  0  0  0  0  0
  -26.4486  -31.6565   25.0702 C   0  0  0  0  0  0
  -25.3729  -31.3685   26.1434 C   0  0  0  0  0  0
  -27.0316  -30.2988   24.6135 C   0  0  0  0  0  0
  -27.6048  -32.4301   25.7472 C   0  0  0  0  0  0
  -27.5592  -37.1797   24.8462 C   0  0  0  0  0  0
  -21.4174  -29.3029   22.3678 N   0  0  0  0  0  0
  -26.4301  -37.3775   23.9407 N   0  0  0  0  0  0
  -24.6830  -31.0619   22.0958 N   0  0  0  0  0  0
  -23.4182  -28.8169   23.3031 O   0  0  0  0  0  0
  -28.3336  -26.4871   20.1572 O   0  0  0  0  0  0
  -26.5627  -34.8916   22.4676 O   0  0  0  0  0  0
  -23.5397  -32.1403   23.7348 O   0  0  0  0  0  0
  -30.6904  -19.6970   20.2856 C   0  0  0  0  0  0
  -28.6211  -18.8373   21.1328 C   0  0  0  0  0  0
  -29.9321  -18.5596   20.6748 C   0  0  0  0  0  0
  -28.9346  -21.3317   20.9372 C   0  0  0  0  0  0
  -30.2227  -21.0377   20.4075 C   0  0  0  0  0  0
  -28.1343  -20.1801   21.2545 C   0  0  0  0  0  0
  -28.3002  -22.9725   22.6596 C   0  0  0  0  0  0
  -28.9929  -22.4174   23.6695 C   0  0  0  0  0  0
  -27.1898  -23.9771   22.9342 C   0  0  0  0  0  0
  -27.2717  -25.2779   22.1138 C   0  0  0  0  0  0
  -28.3512  -23.7869   20.3123 C   0  0  0  0  0  0
  -28.3155  -25.2445   20.9729 C   0  0  1  0  0  0
  -30.6464  -17.1541   20.6604 C   0  0  0  0  0  0
  -28.5348  -22.6744   21.3136 N   0  0  0  0  0  0
  -29.9800  -15.8045   20.7352 N   0  0  0  0  0  0
  -31.3261  -22.3100   20.0091 Cl  0  0  0  0  0  0
  -26.5192  -20.3788   21.8453 Cl  0  0  0  0  0  0
  -31.4540  -12.4809   19.1613 H   0  0  0  0  0  0
  -30.3098  -11.4104   19.9272 H   0  0  0  0  0  0
  -29.7548  -11.7364   17.4911 H   0  0  0  0  0  0
  -29.6368  -13.4625   17.7345 H   0  0  0  0  0  0
  -27.8502  -11.2954   18.8810 H   0  0  0  0  0  0
  -27.3606  -12.5656   17.7972 H   0  0  0  0  0  0
  -27.6439  -14.2604   19.5000 H   0  0  0  0  0  0
  -28.6904  -12.1420   21.4359 H   0  0  0  0  0  0
  -28.4395  -13.8265   21.8037 H   0  0  0  0  0  0
  -25.2743   -9.5668   22.4771 H   0  0  0  0  0  0
  -23.9982   -7.4618   22.7456 H   0  0  0  0  0  0
  -21.0851   -8.8752   19.8937 H   0  0  0  0  0  0
  -22.3678  -10.9656   19.6182 H   0  0  0  0  0  0
  -21.1983   -7.6142   23.9710 H   0  0  0  0  0  0
  -21.1508   -6.0526   25.9084 H   0  0  0  0  0  0
  -22.0582   -2.7600   23.2856 H   0  0  0  0  0  0
  -22.4053  -11.9857   22.4846 H   0  0  0  0  0  0
  -21.1041  -13.1190   22.2694 H   0  0  0  0  0  0
  -24.6368  -15.8388   20.5093 H   0  0  0  0  0  0
  -26.2423  -15.6244   20.0273 H   0  0  0  0  0  0
  -26.7144  -32.5440   23.1089 H   0  0  0  0  0  0
  -25.0047  -33.9725   25.0415 H   0  0  0  0  0  0
  -22.7103  -31.2998   21.3966 H   0  0  0  0  0  0
  -23.3762  -35.9622   23.3291 H   0  0  0  0  0  0
  -24.3597  -36.8927   22.2055 H   0  0  0  0  0  0
  -23.7244  -37.6491   23.6668 H   0  0  0  0  0  0
  -26.0897  -31.5579   20.6055 H   0  0  0  0  0  0
  -26.8341  -30.8383   22.0029 H   0  0  0  0  0  0
  -28.1108  -28.9996   21.1929 H   0  0  0  0  0  0
  -26.0290  -25.9157   19.0216 H   0  0  0  0  0  0
  -23.9795  -27.2898   19.0138 H   0  0  0  0  0  0
  -23.7457  -30.5850   19.3996 H   0  0  0  0  0  0
  -22.7518  -29.2356   19.8606 H   0  0  0  0  0  0
  -25.1300  -36.1939   25.0824 H   0  0  0  0  0  0
  -20.9987  -28.3243   24.1404 H   0  0  0  0  0  0
  -20.5683  -26.2278   23.3602 H   0  0  0  0  0  0
  -21.6647  -26.7425   22.1198 H   0  0  0  0  0  0
  -19.6922  -25.6284   21.1238 H   0  0  0  0  0  0
  -19.6702  -27.3181   20.6736 H   0  0  0  0  0  0
  -17.4213  -26.6669   21.4018 H   0  0  0  0  0  0
  -18.0334  -26.0044   22.9000 H   0  0  0  0  0  0
  -19.7944  -30.7255   24.2258 H   0  0  0  0  0  0
  -17.5022  -31.6258   24.5146 H   0  0  0  0  0  0
  -15.5358  -30.2969   23.7638 H   0  0  0  0  0  0
  -15.8684  -28.0797   22.7067 H   0  0  0  0  0  0
  -24.5906  -30.7036   25.7766 H   0  0  0  0  0  0
  -24.8915  -32.2833   26.4891 H   0  0  0  0  0  0
  -25.8064  -30.8842   27.0190 H   0  0  0  0  0  0
  -26.2870  -29.6743   24.1181 H   0  0  0  0  0  0
  -27.4047  -29.7240   25.4625 H   0  0  0  0  0  0
  -27.8736  -30.4288   23.9328 H   0  0  0  0  0  0
  -27.2657  -33.3597   26.2056 H   0  0  0  0  0  0
  -28.3845  -32.6859   25.0285 H   0  0  0  0  0  0
  -28.0722  -31.8411   26.5375 H   0  0  0  0  0  0
  -28.2584  -38.0120   24.7530 H   0  0  0  0  0  0
  -28.1114  -36.2644   24.6261 H   0  0  0  0  0  0
  -27.2311  -37.1414   25.8867 H   0  0  0  0  0  0
  -20.9343  -29.8746   21.6893 H   0  0  0  0  0  0
  -26.0185  -38.2852   24.1404 H   0  0  0  0  0  0
  -31.6995  -19.5469   19.9291 H   0  0  0  0  0  0
  -27.9881  -18.0199   21.4457 H   0  0  0  0  0  0
  -28.7803  -22.6748   24.6980 H   0  0  0  0  0  0
  -29.7888  -21.7060   23.4998 H   0  0  0  0  0  0
  -27.1546  -24.2204   23.9973 H   0  0  0  0  0  0
  -26.2447  -23.4753   22.7187 H   0  0  0  0  0  0
  -27.4943  -26.1138   22.7787 H   0  0  0  0  0  0
  -26.2725  -25.4653   21.7231 H   0  0  0  0  0  0
  -29.1392  -23.7517   19.5622 H   0  0  0  0  0  0
  -27.4175  -23.6175   19.7750 H   0  0  0  0  0  0
  -29.2831  -25.3155   21.4737 H   0  0  0  0  0  0
  -31.3561  -17.1782   21.4887 H   0  0  0  0  0  0
  -31.2657  -17.1546   19.7611 H   0  0  0  0  0  0
  -28.9939  -15.7564   20.9384 H   0  0  0  0  0  0
  1 25  1  0  0  0
  1 30  2  0  0  0
  1 85  1  0  0  0
  2  3  1  0  0  0
  2 25  1  0  0  0
  2 88  1  0  0  0
  2 89  1  0  0  0
  3  4  1  0  0  0
  3 90  1  0  0  0
  3 91  1  0  0  0
  4  5  1  0  0  0
  4 92  1  0  0  0
  4 93  1  0  0  0
  5  6  1  0  0  0
  5 26  1  0  0  0
  5 94  1  0  0  0
  6 25  1  0  0  0
  6 95  1  0  0  0
  6 96  1  0  0  0
  7  8  2  0  0  0
  7 26  1  0  0  0
  7 29  1  0  0  0
  8  9  1  0  0  0
  8 22  1  0  0  0
  9 10  1  0  0  0
  9 27  2  0  0  0
 10 11  2  0  0  0
 10 15  1  0  0  0
 11 12  1  0  0  0
 11 97  1  0  0  0
 12 13  2  0  0  0
 12 98  1  0  0  0
 13 14  1  0  0  0
 13 31  1  0  0  0
 14 15  2  0  0  0
 14 99  1  0  0  0
 15100  1  0  0  0
 16 17  2  0  0  0
 16 21  1  0  0  0
 16 31  1  0  0  0
 17 18  1  0  0  0
 17101  1  0  0  0
 18 19  2  0  0  0
 18102  1  0  0  0
 19 20  1  0  0  0
 19 24  1  0  0  0
 20 21  2  0  0  0
 20103  1  0  0  0
 21 23  1  0  0  0
 22 28  1  0  0  0
 22 32  2  0  0  0
 26 27  1  0  0  0
 28104  1  0  0  0
 28105  1  0  0  0
 29106  1  0  0  0
 29107  1  0  0  0
 33 34  1  0  0  0
 33 66  1  0  0  0
 33 70  2  0  0  0
 34 36  1  0  0  0
 34 59  1  0  0  0
 34108  1  0  0  0
 35 44  2  0  0  0
 35 45  1  0  0  0
 35 68  1  0  0  0
 36 56  1  0  0  0
 36109  1  0  0  0
 37 39  1  0  0  0
 37 47  1  0  0  0
 37 66  1  0  0  0
 37110  1  0  0  0
 38 43  2  0  0  0
 38 46  1  0  0  0
 38 47  1  0  0  0
 39 64  1  0  0  0
 39 67  2  0  0  0
 40 52  1  0  0  0
 40 53  2  0  0  0
 40 58  1  0  0  0
 41111  1  0  0  0
 41112  1  0  0  0
 41113  1  0  0  0
 41 48  1  0  0  0
 42 43  1  0  0  0
 42 66  1  0  0  0
 42114  1  0  0  0
 42115  1  0  0  0
 43 44  1  0  0  0
 44116  1  0  0  0
 45 46  2  0  0  0
 45117  1  0  0  0
 46118  1  0  0  0
 47119  1  0  0  0
 47120  1  0  0  0
 48 56  1  0  0  0
 48 65  1  0  0  0
 48121  1  0  0  0
 49 50  1  0  0  0
 49 53  1  0  0  0
 49 64  1  0  0  0
 49122  1  0  0  0
 50 51  1  0  0  0
 50123  1  0  0  0
 50124  1  0  0  0
 51 52  1  0  0  0
 51125  1  0  0  0
 51126  1  0  0  0
 52127  1  0  0  0
 52128  1  0  0  0
 53 54  1  0  0  0
 54 55  2  0  0  0
 54129  1  0  0  0
 55 57  1  0  0  0
 55130  1  0  0  0
 56 69  2  0  0  0
 57 58  2  0  0  0
 57131  1  0  0  0
 58132  1  0  0  0
 59 60  1  0  0  0
 59 61  1  0  0  0
 59 62  1  0  0  0
 60133  1  0  0  0
 60134  1  0  0  0
 60135  1  0  0  0
 61136  1  0  0  0
 61137  1  0  0  0
 61138  1  0  0  0
 62139  1  0  0  0
 62140  1  0  0  0
 62141  1  0  0  0
 63 65  1  0  0  0
 63142  1  0  0  0
 63143  1  0  0  0
 63144  1  0  0  0
 64145  1  0  0  0
 65146  1  0  0  0
 68 82  1  0  0  0
 71 73  2  0  0  0
 71 75  1  0  0  0
 71147  1  0  0  0
 72 73  1  0  0  0
 72 76  2  0  0  0
 72148  1  0  0  0
 73 83  1  0  0  0
 74 75  2  0  0  0
 74 76  1  0  0  0
 74 84  1  0  0  0
 75 86  1  0  0  0
 76 87  1  0  0  0
 77 78  2  0  0  0
 77 79  1  0  0  0
 77 84  1  0  0  0
 78149  1  0  0  0
 78150  1  0  0  0
 79 80  1  0  0  0
 79151  1  0  0  0
 79152  1  0  0  0
 80 82  1  0  0  0
 80153  1  0  0  0
 80154  1  0  0  0
 81 82  1  0  0  0
 81 84  1  0  0  0
 81155  1  0  0  0
 81156  1  0  0  0
 82157  1  0  0  0
 83 85  1  0  0  0
 83158  1  0  0  0
 83159  1  0  0  0
 85160  1  0  0  0
M  ISO  4   1 100  68 101  82 101  85 100
M  END
> <chiral flag>
0

> <version>
0

> <s_m_source_file>
/data/baiqing/PycharmProjects/Reinvent-master-3.2/result/LINK_invent/BTK/process_docking_weight1_custom_product_contain_oxygen_bond_distance_aromatic_linkinvent_7_9_3/rearranged_h_0051.sdf

> <i_m_source_file_index>
63

> <r_mmod_Potential_Energy-OPLS-2005>
149.638626098633

> <r_mmod_Stretch_Energy-OPLS-2005>
85.7139205932617

> <r_mmod_Bend_Energy-OPLS-2005>
167.907135009766

> <r_mmod_Torsional_Energy-OPLS-2005>
286.727355957031

> <r_mmod_Improper_Torsional_Energy-OPLS-2005>
6.08994054794312

> <r_mmod_Van_der_Waal_Energy-OPLS-2005>
150.789093017578

> <r_mmod_Electrostatic_Energy-OPLS-2005>
-391.813415527344

> <r_mmod_Solvation_Energy-OPLS-2005>
-205.396057128906

> <b_mmod_Minimization_Converged-OPLS-2005>
0

> <r_mmod_RMS_Derivative-OPLS-2005>
1.95542359352112

$$$$
63
                    3D
 Structure written by MMmdl.
154162  0  0  1  0            999 V2000
  -30.6750  -14.5095   20.4990 C   0  0  0  0  0  0
  -30.4167  -12.2999   19.4527 C   0  0  0  0  0  0
  -29.5063  -12.4830   18.2189 C   0  0  0  0  0  0
  -28.0182  -12.3765   18.6130 C   0  0  0  0  0  0
  -27.6550  -13.2199   19.8646 C   0  0  2  0  0  0
  -28.6929  -13.0300   20.9965 C   0  0  0  0  0  0
  -25.2523  -13.8186   20.5691 C   0  0  0  0  0  0
  -24.1795  -13.0443   20.9204 C   0  0  0  0  0  0
  -24.6376  -11.6905   20.8742 C   0  0  0  0  0  0
  -23.9043  -10.4282   21.0395 C   0  0  0  0  0  0
  -24.3606   -9.4195   21.9158 C   0  0  0  0  0  0
  -23.6283   -8.2230   22.0727 C   0  0  0  0  0  0
  -22.4259   -8.0265   21.3524 C   0  0  0  0  0  0
  -21.9889   -9.0239   20.4640 C   0  0  0  0  0  0
  -22.7226  -10.2112   20.3045 C   0  0  0  0  0  0
  -21.6833   -6.0725   22.5273 C   0  0  0  0  0  0
  -21.4028   -6.5628   23.8214 C   0  0  0  0  0  0
  -21.3679   -5.6782   24.9176 C   0  0  0  0  0  0
  -21.6035   -4.3044   24.7225 C   0  0  0  0  0  0
  -21.8815   -3.8133   23.4347 C   0  0  0  0  0  0
  -21.9185   -4.6955   22.3403 C   0  0  0  0  0  0
  -22.7810  -13.5240   21.1864 C   0  0  0  0  0  0
  -22.1639   -4.2141   21.0974 F   0  0  0  0  0  0
  -21.5632   -3.4532   25.7738 F   0  0  0  0  0  0
  -30.0234  -13.3158   20.4412 N   0  0  0  0  0  0
  -26.2966  -12.9385   20.3301 N   0  0  0  0  0  0
  -25.9300  -11.6528   20.5722 N   0  0  0  0  0  0
  -22.0441  -12.8253   22.0438 N   0  0  0  0  0  0
  -25.4214  -15.1919   20.4122 N   0  0  0  0  0  0
  -31.8515  -14.6319   20.1475 O   0  0  0  0  0  0
  -21.6613   -6.8859   21.4222 O   0  0  0  0  0  0
  -22.3487  -14.5530   20.6702 O   0  0  0  0  0  0
  -24.6159  -31.8662   23.2103 C   0  0  0  0  0  0
  -25.9037  -32.4819   23.8407 C   0  0  1  0  0  0
  -27.2378  -27.4052   20.0894 C   0  0  0  0  0  0
  -25.5872  -33.8621   24.2323 N   0  0  0  0  0  0
  -23.4059  -30.4912   21.5530 C   0  0  2  0  0  0
  -24.8511  -28.9570   20.1183 C   0  0  0  0  0  0
  -22.7427  -29.4638   22.4999 C   0  0  0  0  0  0
  -18.0273  -28.1341   22.8521 C   0  0  0  0  0  0
  -24.1476  -36.7307   23.2641 C   0  0  0  0  0  0
  -25.9432  -30.8196   21.3741 C   0  0  0  0  0  0
  -26.0141  -29.4550   20.7144 C   0  0  0  0  0  0
  -27.2049  -28.6892   20.6935 C   0  0  0  0  0  0
  -26.0438  -26.9309   19.4909 C   0  0  0  0  0  0
  -24.8625  -27.6951   19.5069 C   0  0  0  0  0  0
  -23.6150  -29.8263   20.1669 C   0  0  0  0  0  0
  -25.4100  -36.3120   24.0342 C   0  0  1  0  0  0
  -20.5866  -28.3632   23.1322 C   0  0  2  0  0  0
  -20.6758  -26.9358   22.5422 C   0  0  0  0  0  0
  -19.5725  -26.6352   21.5220 C   0  0  0  0  0  0
  -18.1905  -26.7896   22.1637 C   0  0  0  0  0  0
  -19.1523  -28.8803   23.2923 C   0  0  0  0  0  0
  -18.9449  -30.1415   23.8926 C   0  0  0  0  0  0
  -17.6448  -30.6561   24.0551 C   0  0  0  0  0  0
  -25.9025  -34.9481   23.5133 C   0  0  0  0  0  0
  -16.5339  -29.9058   23.6320 C   0  0  0  0  0  0
  -16.7263  -28.6460   23.0377 C   0  0  0  0  0  0
  -26.4459  -31.6627   25.0749 C   0  0  0  0  0  0
  -25.3720  -31.3764   26.1494 C   0  0  0  0  0  0
  -27.0289  -30.3053   24.6181 C   0  0  0  0  0  0
  -27.6004  -32.4392   25.7508 C   0  0  0  0  0  0
  -27.5592  -37.1798   24.8463 C   0  0  0  0  0  0
  -21.4149  -29.3000   22.3722 N   0  0  0  0  0  0
  -26.4295  -37.3804   23.9418 N   0  0  0  0  0  0
  -24.6735  -31.0745   22.1019 N   0  0  0  0  0  0
  -23.4184  -28.8162   23.3032 O   0  0  0  0  0  0
  -28.4318  -26.6932   20.1109 O   0  0  0  0  0  0
  -26.5604  -34.8942   22.4705 O   0  0  0  0  0  0
  -23.5336  -32.1418   23.7485 O   0  0  0  0  0  0
  -29.3330  -17.9934   20.9394 C   0  0  0  0  0  0
  -30.3103  -19.6386   19.4232 C   0  0  0  0  0  0
  -30.9029  -17.2794   19.2278 C   0  0  0  0  0  0
  -29.4591  -19.3473   20.5105 C   0  0  0  0  0  0
  -30.0675  -16.9437   20.3253 C   0  0  0  0  0  0
  -31.0232  -18.6102   18.7842 C   0  0  0  0  0  0
  -28.4055  -22.9184   20.6948 C   0  0  0  0  0  0
  -28.6598  -20.4608   21.2028 C   0  0  0  0  0  0
  -29.0613  -24.3236   20.7146 C   0  0  0  0  0  0
  -28.5283  -25.3229   19.6404 C   0  0  0  0  0  0
  -29.9035  -15.5853   20.7871 N   0  0  0  0  0  0
  -29.1569  -21.8386   21.0034 N   0  0  0  0  0  0
  -27.2054  -22.8108   20.4408 O   0  0  0  0  0  0
  -31.8313  -18.9009   17.7367 F   0  0  0  0  0  0
  -31.4688  -12.3733   19.1683 H   0  0  0  0  0  0
  -30.2936  -11.3015   19.8750 H   0  0  0  0  0  0
  -29.7488  -11.7366   17.4620 H   0  0  0  0  0  0
  -29.6997  -13.4560   17.7629 H   0  0  0  0  0  0
  -27.8015  -11.3243   18.7966 H   0  0  0  0  0  0
  -27.3889  -12.6688   17.7688 H   0  0  0  0  0  0
  -27.6892  -14.2653   19.5526 H   0  0  0  0  0  0
  -28.6568  -12.0095   21.3781 H   0  0  0  0  0  0
  -28.4608  -13.6706   21.8475 H   0  0  0  0  0  0
  -25.2761   -9.5686   22.4728 H   0  0  0  0  0  0
  -24.0004   -7.4624   22.7451 H   0  0  0  0  0  0
  -21.0811   -8.8773   19.8961 H   0  0  0  0  0  0
  -22.3683  -10.9645   19.6151 H   0  0  0  0  0  0
  -21.2022   -7.6132   23.9737 H   0  0  0  0  0  0
  -21.1510   -6.0496   25.9089 H   0  0  0  0  0  0
  -22.0579   -2.7597   23.2841 H   0  0  0  0  0  0
  -22.4048  -11.9964   22.4924 H   0  0  0  0  0  0
  -21.1040  -13.1274   22.2579 H   0  0  0  0  0  0
  -24.6592  -15.8484   20.5390 H   0  0  0  0  0  0
  -26.2716  -15.6322   20.0825 H   0  0  0  0  0  0
  -26.7107  -32.5517   23.1166 H   0  0  0  0  0  0
  -25.0025  -33.9784   25.0473 H   0  0  0  0  0  0
  -22.6957  -31.3085   21.4156 H   0  0  0  0  0  0
  -23.3756  -35.9620   23.3299 H   0  0  0  0  0  0
  -24.3576  -36.8918   22.2056 H   0  0  0  0  0  0
  -23.7190  -37.6493   23.6662 H   0  0  0  0  0  0
  -26.0802  -31.5901   20.6141 H   0  0  0  0  0  0
  -26.8202  -30.8581   22.0085 H   0  0  0  0  0  0
  -28.1054  -29.0782   21.1487 H   0  0  0  0  0  0
  -25.9679  -25.9792   18.9931 H   0  0  0  0  0  0
  -23.9682  -27.3046   19.0411 H   0  0  0  0  0  0
  -23.7250  -30.6015   19.4082 H   0  0  0  0  0  0
  -22.7395  -29.2454   19.8726 H   0  0  0  0  0  0
  -25.1272  -36.1993   25.0836 H   0  0  0  0  0  0
  -20.9998  -28.3182   24.1426 H   0  0  0  0  0  0
  -20.5654  -26.2217   23.3604 H   0  0  0  0  0  0
  -21.6627  -26.7378   22.1204 H   0  0  0  0  0  0
  -19.6874  -25.6267   21.1231 H   0  0  0  0  0  0
  -19.6666  -27.3182   20.6765 H   0  0  0  0  0  0
  -17.4180  -26.6675   21.4036 H   0  0  0  0  0  0
  -18.0290  -26.0016   22.9008 H   0  0  0  0  0  0
  -19.7917  -30.7221   24.2317 H   0  0  0  0  0  0
  -17.4994  -31.6255   24.5121 H   0  0  0  0  0  0
  -15.5339  -30.2962   23.7613 H   0  0  0  0  0  0
  -15.8670  -28.0767   22.7121 H   0  0  0  0  0  0
  -24.5831  -30.7193   25.7832 H   0  0  0  0  0  0
  -24.8997  -32.2947   26.5002 H   0  0  0  0  0  0
  -25.8043  -30.8864   27.0226 H   0  0  0  0  0  0
  -26.2853  -29.6828   24.1189 H   0  0  0  0  0  0
  -27.3972  -29.7286   25.4679 H   0  0  0  0  0  0
  -27.8746  -30.4347   23.9414 H   0  0  0  0  0  0
  -27.2568  -33.3669   26.2114 H   0  0  0  0  0  0
  -28.3780  -32.7008   25.0317 H   0  0  0  0  0  0
  -28.0726  -31.8526   26.5400 H   0  0  0  0  0  0
  -28.2591  -38.0119   24.7540 H   0  0  0  0  0  0
  -28.1103  -36.2639   24.6246 H   0  0  0  0  0  0
  -27.2320  -37.1405   25.8872 H   0  0  0  0  0  0
  -20.9291  -29.8719   21.6962 H   0  0  0  0  0  0
  -26.0185  -38.2887   24.1425 H   0  0  0  0  0  0
  -28.6673  -17.7684   21.7600 H   0  0  0  0  0  0
  -30.4170  -20.6502   19.0542 H   0  0  0  0  0  0
  -31.4684  -16.5324   18.6924 H   0  0  0  0  0  0
  -28.6606  -20.2646   22.2758 H   0  0  0  0  0  0
  -27.6163  -20.3748   20.8916 H   0  0  0  0  0  0
  -30.1429  -24.2286   20.6088 H   0  0  0  0  0  0
  -28.8932  -24.7445   21.7071 H   0  0  0  0  0  0
  -27.6293  -24.9305   19.1823 H   0  0  0  0  0  0
  -29.2462  -25.3304   18.8206 H   0  0  0  0  0  0
  -29.0194  -15.3710   21.2226 H   0  0  0  0  0  0
  -30.1294  -21.9931   21.2301 H   0  0  0  0  0  0
  1 25  1  0  0  0
  1 30  2  0  0  0
  1 81  1  0  0  0
  2  3  1  0  0  0
  2 25  1  0  0  0
  2 85  1  0  0  0
  2 86  1  0  0  0
  3  4  1  0  0  0
  3 87  1  0  0  0
  3 88  1  0  0  0
  4  5  1  0  0  0
  4 89  1  0  0  0
  4 90  1  0  0  0
  5  6  1  0  0  0
  5 26  1  0  0  0
  5 91  1  0  0  0
  6 25  1  0  0  0
  6 92  1  0  0  0
  6 93  1  0  0  0
  7  8  2  0  0  0
  7 26  1  0  0  0
  7 29  1  0  0  0
  8  9  1  0  0  0
  8 22  1  0  0  0
  9 10  1  0  0  0
  9 27  2  0  0  0
 10 11  2  0  0  0
 10 15  1  0  0  0
 11 12  1  0  0  0
 11 94  1  0  0  0
 12 13  2  0  0  0
 12 95  1  0  0  0
 13 14  1  0  0  0
 13 31  1  0  0  0
 14 15  2  0  0  0
 14 96  1  0  0  0
 15 97  1  0  0  0
 16 17  2  0  0  0
 16 21  1  0  0  0
 16 31  1  0  0  0
 17 18  1  0  0  0
 17 98  1  0  0  0
 18 19  2  0  0  0
 18 99  1  0  0  0
 19 20  1  0  0  0
 19 24  1  0  0  0
 20 21  2  0  0  0
 20100  1  0  0  0
 21 23  1  0  0  0
 22 28  1  0  0  0
 22 32  2  0  0  0
 26 27  1  0  0  0
 28101  1  0  0  0
 28102  1  0  0  0
 29103  1  0  0  0
 29104  1  0  0  0
 33 34  1  0  0  0
 33 66  1  0  0  0
 33 70  2  0  0  0
 34 36  1  0  0  0
 34 59  1  0  0  0
 34105  1  0  0  0
 35 44  2  0  0  0
 35 45  1  0  0  0
 35 68  1  0  0  0
 36 56  1  0  0  0
 36106  1  0  0  0
 37 39  1  0  0  0
 37 47  1  0  0  0
 37 66  1  0  0  0
 37107  1  0  0  0
 38 43  2  0  0  0
 38 46  1  0  0  0
 38 47  1  0  0  0
 39 64  1  0  0  0
 39 67  2  0  0  0
 40 52  1  0  0  0
 40 53  2  0  0  0
 40 58  1  0  0  0
 41108  1  0  0  0
 41109  1  0  0  0
 41110  1  0  0  0
 41 48  1  0  0  0
 42 43  1  0  0  0
 42 66  1  0  0  0
 42111  1  0  0  0
 42112  1  0  0  0
 43 44  1  0  0  0
 44113  1  0  0  0
 45 46  2  0  0  0
 45114  1  0  0  0
 46115  1  0  0  0
 47116  1  0  0  0
 47117  1  0  0  0
 48 56  1  0  0  0
 48 65  1  0  0  0
 48118  1  0  0  0
 49 50  1  0  0  0
 49 53  1  0  0  0
 49 64  1  0  0  0
 49119  1  0  0  0
 50 51  1  0  0  0
 50120  1  0  0  0
 50121  1  0  0  0
 51 52  1  0  0  0
 51122  1  0  0  0
 51123  1  0  0  0
 52124  1  0  0  0
 52125  1  0  0  0
 53 54  1  0  0  0
 54 55  2  0  0  0
 54126  1  0  0  0
 55 57  1  0  0  0
 55127  1  0  0  0
 56 69  2  0  0  0
 57 58  2  0  0  0
 57128  1  0  0  0
 58129  1  0  0  0
 59 60  1  0  0  0
 59 61  1  0  0  0
 59 62  1  0  0  0
 60130  1  0  0  0
 60131  1  0  0  0
 60132  1  0  0  0
 61133  1  0  0  0
 61134  1  0  0  0
 61135  1  0  0  0
 62136  1  0  0  0
 62137  1  0  0  0
 62138  1  0  0  0
 63 65  1  0  0  0
 63139  1  0  0  0
 63140  1  0  0  0
 63141  1  0  0  0
 64142  1  0  0  0
 65143  1  0  0  0
 68 80  1  0  0  0
 71 74  2  0  0  0
 71 75  1  0  0  0
 71144  1  0  0  0
 72 74  1  0  0  0
 72 76  2  0  0  0
 72145  1  0  0  0
 73 75  2  0  0  0
 73 76  1  0  0  0
 73146  1  0  0  0
 74 78  1  0  0  0
 75 81  1  0  0  0
 76 84  1  0  0  0
 77 79  1  0  0  0
 77 82  1  0  0  0
 77 83  2  0  0  0
 78 82  1  0  0  0
 78147  1  0  0  0
 78148  1  0  0  0
 79 80  1  0  0  0
 79149  1  0  0  0
 79150  1  0  0  0
 80151  1  0  0  0
 80152  1  0  0  0
 81153  1  0  0  0
 82154  1  0  0  0
M  ISO  4   1 100  68 101  80 101  81 100
M  END
> <chiral flag>
0

> <version>
0

> <s_m_source_file>
/data/baiqing/PycharmProjects/Reinvent-master-3.2/result/LINK_invent/BTK/process_docking_weight1_custom_product_contain_oxygen_bond_distance_aromatic_linkinvent_7_9_3/rearranged_h_0051.sdf

> <i_m_source_file_index>
64

> <r_mmod_Potential_Energy-OPLS-2005>
-109.384742736816

> <r_mmod_Stretch_Energy-OPLS-2005>
45.7706184387207

> <r_mmod_Bend_Energy-OPLS-2005>
110.182144165039

> <r_mmod_Torsional_Energy-OPLS-2005>
216.338424682617

> <r_mmod_Improper_Torsional_Energy-OPLS-2005>
4.94949531555176

> <r_mmod_Van_der_Waal_Energy-OPLS-2005>
162.495422363281

> <r_mmod_Electrostatic_Energy-OPLS-2005>
-433.875518798828

> <r_mmod_Solvation_Energy-OPLS-2005>
-235.598388671875

> <b_mmod_Minimization_Converged-OPLS-2005>
0

> <r_mmod_RMS_Derivative-OPLS-2005>
3.77087688446045

$$$$
64
                    3D
 Structure written by MMmdl.
176185  0  0  1  0            999 V2000
  -30.6226  -14.7321   20.4378 C   0  0  0  0  0  0
  -30.4253  -12.4372   19.4713 C   0  0  0  0  0  0
  -29.5035  -12.4936   18.2332 C   0  0  0  0  0  0
  -28.0307  -12.3167   18.6506 C   0  0  0  0  0  0
  -27.6375  -13.2288   19.8435 C   0  0  2  0  0  0
  -28.6840  -13.1740   20.9781 C   0  0  0  0  0  0
  -25.2486  -13.8187   20.5680 C   0  0  0  0  0  0
  -24.1790  -13.0439   20.9238 C   0  0  0  0  0  0
  -24.6375  -11.6925   20.8764 C   0  0  0  0  0  0
  -23.9060  -10.4307   21.0409 C   0  0  0  0  0  0
  -24.3623   -9.4227   21.9185 C   0  0  0  0  0  0
  -23.6311   -8.2254   22.0749 C   0  0  0  0  0  0
  -22.4296   -8.0294   21.3538 C   0  0  0  0  0  0
  -21.9923   -9.0259   20.4639 C   0  0  0  0  0  0
  -22.7238  -10.2141   20.3056 C   0  0  0  0  0  0
  -21.6861   -6.0758   22.5285 C   0  0  0  0  0  0
  -21.4008   -6.5652   23.8218 C   0  0  0  0  0  0
  -21.3658   -5.6799   24.9176 C   0  0  0  0  0  0
  -21.6046   -4.3064   24.7221 C   0  0  0  0  0  0
  -21.8822   -3.8163   23.4337 C   0  0  0  0  0  0
  -21.9195   -4.6988   22.3397 C   0  0  0  0  0  0
  -22.7814  -13.5228   21.1903 C   0  0  0  0  0  0
  -22.1672   -4.2177   21.0978 F   0  0  0  0  0  0
  -21.5622   -3.4548   25.7726 F   0  0  0  0  0  0
  -29.9867  -13.5120   20.3913 N   0  0  0  0  0  0
  -26.2911  -12.9398   20.3265 N   0  0  0  0  0  0
  -25.9299  -11.6550   20.5752 N   0  0  0  0  0  0
  -22.0460  -12.8197   22.0451 N   0  0  0  0  0  0
  -25.4107  -15.1893   20.3992 N   0  0  0  0  0  0
  -31.8190  -14.7959   20.1424 O   0  0  0  0  0  0
  -21.6648   -6.8901   21.4250 O   0  0  0  0  0  0
  -22.3504  -14.5545   20.6769 O   0  0  0  0  0  0
  -24.6292  -31.8502   23.1951 C   0  0  0  0  0  0
  -25.9123  -32.4703   23.8284 C   0  0  1  0  0  0
  -27.2285  -27.2706   20.1308 C   0  0  0  0  0  0
  -25.5934  -33.8510   24.2219 N   0  0  0  0  0  0
  -23.4234  -30.4695   21.5399 C   0  0  2  0  0  0
  -24.8684  -28.9013   20.1250 C   0  0  0  0  0  0
  -22.7468  -29.4559   22.4939 C   0  0  0  0  0  0
  -18.0263  -28.1363   22.8452 C   0  0  0  0  0  0
  -24.1504  -36.7279   23.2643 C   0  0  0  0  0  0
  -25.9650  -30.7683   21.3687 C   0  0  0  0  0  0
  -26.0373  -29.3856   20.7226 C   0  0  0  0  0  0
  -27.2211  -28.5843   20.7070 C   0  0  0  0  0  0
  -26.0342  -26.8327   19.5282 C   0  0  0  0  0  0
  -24.8680  -27.6305   19.5230 C   0  0  0  0  0  0
  -23.6400  -29.7914   20.1605 C   0  0  0  0  0  0
  -25.4124  -36.3029   24.0322 C   0  0  1  0  0  0
  -20.5873  -28.3652   23.1289 C   0  0  2  0  0  0
  -20.6764  -26.9374   22.5423 C   0  0  0  0  0  0
  -19.5757  -26.6356   21.5207 C   0  0  0  0  0  0
  -18.1918  -26.7890   22.1594 C   0  0  0  0  0  0
  -19.1522  -28.8820   23.2850 C   0  0  0  0  0  0
  -18.9452  -30.1419   23.8867 C   0  0  0  0  0  0
  -17.6465  -30.6566   24.0541 C   0  0  0  0  0  0
  -25.9055  -34.9404   23.5072 C   0  0  0  0  0  0
  -16.5346  -29.9065   23.6343 C   0  0  0  0  0  0
  -16.7252  -28.6491   23.0334 C   0  0  0  0  0  0
  -26.4513  -31.6543   25.0685 C   0  0  0  0  0  0
  -25.3756  -31.3694   26.1416 C   0  0  0  0  0  0
  -27.0364  -30.2964   24.6145 C   0  0  0  0  0  0
  -27.6049  -32.4300   25.7467 C   0  0  0  0  0  0
  -27.5575  -37.1776   24.8454 C   0  0  0  0  0  0
  -21.4174  -29.3009   22.3690 N   0  0  0  0  0  0
  -26.4281  -37.3745   23.9412 N   0  0  0  0  0  0
  -24.6911  -31.0485   22.0918 N   0  0  0  0  0  0
  -23.4184  -28.8101   23.3025 O   0  0  0  0  0  0
  -28.3907  -26.4825   20.0384 O   0  0  0  0  0  0
  -26.5627  -34.8892   22.4640 O   0  0  0  0  0  0
  -23.5449  -32.1319   23.7285 O   0  0  0  0  0  0
  -30.9238  -20.1219   20.4291 C   0  0  0  0  0  0
  -31.5087  -17.7530   20.7125 C   0  0  0  0  0  0
  -31.8777  -19.1124   20.6711 C   0  0  0  0  0  0
  -29.5571  -19.8257   20.2357 C   0  0  0  0  0  0
  -29.1931  -18.4027   20.3162 C   0  0  0  0  0  0
  -30.1706  -17.3333   20.5274 C   0  0  0  0  0  0
  -27.9597  -22.4747   21.8748 C   0  0  0  0  0  0
  -26.7934  -21.9120   22.2787 C   0  0  0  0  0  0
  -28.6752  -23.5905   22.6329 C   0  0  0  0  0  0
  -28.2495  -24.9621   22.0381 C   0  0  0  0  0  0
  -28.1685  -23.7064   19.7568 C   0  0  0  0  0  0
  -28.5606  -25.0725   20.5322 C   0  0  1  0  0  0
  -33.3347  -19.4950   20.8499 C   0  0  0  0  0  0
  -25.7874  -21.2027   21.3913 C   0  0  0  0  0  0
  -26.2732  -22.0649   23.6965 C   0  0  0  0  0  0
  -27.3194  -17.7403   18.7113 C   0  0  0  0  0  0
  -27.7352  -17.9910   20.1656 C   0  0  0  0  0  0
  -28.6279  -21.0536   19.7675 C   0  0  0  0  0  0
  -29.8428  -15.8763   20.5813 N   0  0  0  0  0  0
  -28.5772  -22.4193   20.5070 N   0  3  2  0  0  0
  -31.4678  -12.5465   19.1685 H   0  0  0  0  0  0
  -30.3562  -11.4651   19.9618 H   0  0  0  0  0  0
  -29.7814  -11.7196   17.5155 H   0  0  0  0  0  0
  -29.6255  -13.4495   17.7207 H   0  0  0  0  0  0
  -27.8908  -11.2703   18.9252 H   0  0  0  0  0  0
  -27.3687  -12.4952   17.8022 H   0  0  0  0  0  0
  -27.6281  -14.2454   19.4501 H   0  0  0  0  0  0
  -28.7135  -12.1819   21.4290 H   0  0  0  0  0  0
  -28.4231  -13.8665   21.7803 H   0  0  0  0  0  0
  -25.2769   -9.5724   22.4755 H   0  0  0  0  0  0
  -24.0035   -7.4654   22.7461 H   0  0  0  0  0  0
  -21.0861   -8.8775   19.8939 H   0  0  0  0  0  0
  -22.3700  -10.9684   19.6169 H   0  0  0  0  0  0
  -21.2003   -7.6164   23.9733 H   0  0  0  0  0  0
  -21.1470   -6.0524   25.9077 H   0  0  0  0  0  0
  -22.0599   -2.7632   23.2823 H   0  0  0  0  0  0
  -22.4072  -11.9843   22.4812 H   0  0  0  0  0  0
  -21.1075  -13.1196   22.2659 H   0  0  0  0  0  0
  -24.6211  -15.8216   20.4697 H   0  0  0  0  0  0
  -26.2200  -15.6151   19.9705 H   0  0  0  0  0  0
  -26.7177  -32.5372   23.1014 H   0  0  0  0  0  0
  -25.0117  -33.9637   25.0383 H   0  0  0  0  0  0
  -22.7213  -31.2920   21.3886 H   0  0  0  0  0  0
  -23.3747  -35.9626   23.3276 H   0  0  0  0  0  0
  -24.3619  -36.8939   22.2066 H   0  0  0  0  0  0
  -23.7272  -37.6478   23.6696 H   0  0  0  0  0  0
  -26.0960  -31.5241   20.5938 H   0  0  0  0  0  0
  -26.8465  -30.8243   21.9947 H   0  0  0  0  0  0
  -28.1308  -28.9630   21.1506 H   0  0  0  0  0  0
  -26.0058  -25.8694   19.0412 H   0  0  0  0  0  0
  -23.9702  -27.2515   19.0535 H   0  0  0  0  0  0
  -23.7648  -30.5608   19.3969 H   0  0  0  0  0  0
  -22.7580  -29.2218   19.8605 H   0  0  0  0  0  0
  -25.1303  -36.1863   25.0810 H   0  0  0  0  0  0
  -20.9937  -28.3212   24.1421 H   0  0  0  0  0  0
  -20.5674  -26.2237   23.3611 H   0  0  0  0  0  0
  -21.6622  -26.7390   22.1218 H   0  0  0  0  0  0
  -19.6942  -25.6277   21.1212 H   0  0  0  0  0  0
  -19.6728  -27.3179   20.6754 H   0  0  0  0  0  0
  -17.4205  -26.6625   21.3975 H   0  0  0  0  0  0
  -18.0289  -26.0025   22.8983 H   0  0  0  0  0  0
  -19.7937  -30.7211   24.2226 H   0  0  0  0  0  0
  -17.5028  -31.6247   24.5129 H   0  0  0  0  0  0
  -15.5349  -30.2959   23.7690 H   0  0  0  0  0  0
  -15.8639  -28.0818   22.7063 H   0  0  0  0  0  0
  -24.5961  -30.6998   25.7777 H   0  0  0  0  0  0
  -24.8922  -32.2863   26.4789 H   0  0  0  0  0  0
  -25.8093  -30.8934   27.0217 H   0  0  0  0  0  0
  -26.2930  -29.6690   24.1210 H   0  0  0  0  0  0
  -27.4115  -29.7232   25.4636 H   0  0  0  0  0  0
  -27.8775  -30.4247   23.9325 H   0  0  0  0  0  0
  -27.2631  -33.3612   26.1998 H   0  0  0  0  0  0
  -28.3889  -32.6836   25.0318 H   0  0  0  0  0  0
  -28.0688  -31.8460   26.5431 H   0  0  0  0  0  0
  -28.2531  -38.0118   24.7515 H   0  0  0  0  0  0
  -28.1110  -36.2640   24.6239 H   0  0  0  0  0  0
  -27.2297  -37.1390   25.8852 H   0  0  0  0  0  0
  -20.9352  -29.8767   21.6930 H   0  0  0  0  0  0
  -26.0140  -38.2802   24.1440 H   0  0  0  0  0  0
  -31.2672  -21.1439   20.3521 H   0  0  0  0  0  0
  -32.2934  -17.0324   20.8879 H   0  0  0  0  0  0
  -29.7566  -23.4602   22.5740 H   0  0  0  0  0  0
  -28.4412  -23.5758   23.6955 H   0  0  0  0  0  0
  -28.7631  -25.7630   22.5697 H   0  0  0  0  0  0
  -27.1821  -25.1237   22.1963 H   0  0  0  0  0  0
  -28.6379  -23.7093   18.7729 H   0  0  0  0  0  0
  -27.0920  -23.6820   19.5797 H   0  0  0  0  0  0
  -29.6498  -25.0229   20.5009 H   0  0  0  0  0  0
  -33.4272  -20.4228   21.4149 H   0  0  0  0  0  0
  -33.8068  -19.6407   19.8779 H   0  0  0  0  0  0
  -33.8909  -18.7240   21.3855 H   0  0  0  0  0  0
  -25.8910  -21.4256   20.3325 H   0  0  0  0  0  0
  -24.7911  -21.5634   21.6466 H   0  0  0  0  0  0
  -25.7827  -20.1300   21.5728 H   0  0  0  0  0  0
  -27.0827  -22.0586   24.4260 H   0  0  0  0  0  0
  -25.6206  -21.2300   23.9540 H   0  0  0  0  0  0
  -25.7022  -22.9882   23.7990 H   0  0  0  0  0  0
  -26.2660  -17.4676   18.6531 H   0  0  0  0  0  0
  -27.8923  -16.9279   18.2626 H   0  0  0  0  0  0
  -27.4563  -18.6327   18.1008 H   0  0  0  0  0  0
  -27.1016  -18.7494   20.6121 H   0  0  0  0  0  0
  -27.5461  -17.0978   20.7603 H   0  0  0  0  0  0
  -27.6390  -20.6846   19.5303 H   0  0  0  0  0  0
  -29.0276  -21.3006   18.7833 H   0  0  0  0  0  0
  -28.8627  -15.6692   20.6768 H   0  0  0  0  0  0
  -29.5627  -22.5721   20.6570 H   0  0  0  0  0  0
  1 25  1  0  0  0
  1 30  2  0  0  0
  1 89  1  0  0  0
  2  3  1  0  0  0
  2 25  1  0  0  0
  2 91  1  0  0  0
  2 92  1  0  0  0
  3  4  1  0  0  0
  3 93  1  0  0  0
  3 94  1  0  0  0
  4  5  1  0  0  0
  4 95  1  0  0  0
  4 96  1  0  0  0
  5  6  1  0  0  0
  5 26  1  0  0  0
  5 97  1  0  0  0
  6 25  1  0  0  0
  6 98  1  0  0  0
  6 99  1  0  0  0
  7  8  2  0  0  0
  7 26  1  0  0  0
  7 29  1  0  0  0
  8  9  1  0  0  0
  8 22  1  0  0  0
  9 10  1  0  0  0
  9 27  2  0  0  0
 10 11  2  0  0  0
 10 15  1  0  0  0
 11 12  1  0  0  0
 11100  1  0  0  0
 12 13  2  0  0  0
 12101  1  0  0  0
 13 14  1  0  0  0
 13 31  1  0  0  0
 14 15  2  0  0  0
 14102  1  0  0  0
 15103  1  0  0  0
 16 17  2  0  0  0
 16 21  1  0  0  0
 16 31  1  0  0  0
 17 18  1  0  0  0
 17104  1  0  0  0
 18 19  2  0  0  0
 18105  1  0  0  0
 19 20  1  0  0  0
 19 24  1  0  0  0
 20 21  2  0  0  0
 20106  1  0  0  0
 21 23  1  0  0  0
 22 28  1  0  0  0
 22 32  2  0  0  0
 26 27  1  0  0  0
 28107  1  0  0  0
 28108  1  0  0  0
 29109  1  0  0  0
 29110  1  0  0  0
 33 34  1  0  0  0
 33 66  1  0  0  0
 33 70  2  0  0  0
 34 36  1  0  0  0
 34 59  1  0  0  0
 34111  1  0  0  0
 35 44  2  0  0  0
 35 45  1  0  0  0
 35 68  1  0  0  0
 36 56  1  0  0  0
 36112  1  0  0  0
 37 39  1  0  0  0
 37 47  1  0  0  0
 37 66  1  0  0  0
 37113  1  0  0  0
 38 43  2  0  0  0
 38 46  1  0  0  0
 38 47  1  0  0  0
 39 64  1  0  0  0
 39 67  2  0  0  0
 40 52  1  0  0  0
 40 53  2  0  0  0
 40 58  1  0  0  0
 41114  1  0  0  0
 41115  1  0  0  0
 41116  1  0  0  0
 41 48  1  0  0  0
 42 43  1  0  0  0
 42 66  1  0  0  0
 42117  1  0  0  0
 42118  1  0  0  0
 43 44  1  0  0  0
 44119  1  0  0  0
 45 46  2  0  0  0
 45120  1  0  0  0
 46121  1  0  0  0
 47122  1  0  0  0
 47123  1  0  0  0
 48 56  1  0  0  0
 48 65  1  0  0  0
 48124  1  0  0  0
 49 50  1  0  0  0
 49 53  1  0  0  0
 49 64  1  0  0  0
 49125  1  0  0  0
 50 51  1  0  0  0
 50126  1  0  0  0
 50127  1  0  0  0
 51 52  1  0  0  0
 51128  1  0  0  0
 51129  1  0  0  0
 52130  1  0  0  0
 52131  1  0  0  0
 53 54  1  0  0  0
 54 55  2  0  0  0
 54132  1  0  0  0
 55 57  1  0  0  0
 55133  1  0  0  0
 56 69  2  0  0  0
 57 58  2  0  0  0
 57134  1  0  0  0
 58135  1  0  0  0
 59 60  1  0  0  0
 59 61  1  0  0  0
 59 62  1  0  0  0
 60136  1  0  0  0
 60137  1  0  0  0
 60138  1  0  0  0
 61139  1  0  0  0
 61140  1  0  0  0
 61141  1  0  0  0
 62142  1  0  0  0
 62143  1  0  0  0
 62144  1  0  0  0
 63 65  1  0  0  0
 63145  1  0  0  0
 63146  1  0  0  0
 63147  1  0  0  0
 64148  1  0  0  0
 65149  1  0  0  0
 68 82  1  0  0  0
 71 73  2  0  0  0
 71 74  1  0  0  0
 71150  1  0  0  0
 72 73  1  0  0  0
 72 76  2  0  0  0
 72151  1  0  0  0
 73 83  1  0  0  0
 74 75  2  0  0  0
 74 88  1  0  0  0
 75 76  1  0  0  0
 75 87  1  0  0  0
 76 89  1  0  0  0
 77 78  2  0  0  0
 77 79  1  0  0  0
 77 90  1  0  0  0
 78 84  1  0  0  0
 78 85  1  0  0  0
 79 80  1  0  0  0
 79152  1  0  0  0
 79153  1  0  0  0
 80 82  1  0  0  0
 80154  1  0  0  0
 80155  1  0  0  0
 81 82  1  0  0  0
 81 90  1  0  0  0
 81156  1  0  0  0
 81157  1  0  0  0
 82158  1  0  0  0
 83159  1  0  0  0
 83160  1  0  0  0
 83161  1  0  0  0
 84162  1  0  0  0
 84163  1  0  0  0
 84164  1  0  0  0
 85165  1  0  0  0
 85166  1  0  0  0
 85167  1  0  0  0
 86 87  1  0  0  0
 86168  1  0  0  0
 86169  1  0  0  0
 86170  1  0  0  0
 87171  1  0  0  0
 87172  1  0  0  0
 88173  1  0  0  0
 88174  1  0  0  0
 88 90  1  0  0  0
 89175  1  0  0  0
 90176  1  0  0  0
M  CHG  1  90   1
M  ISO  4   1 100  68 101  82 101  89 100
M  END
> <chiral flag>
0

> <version>
0

> <s_m_source_file>
/data/baiqing/PycharmProjects/Reinvent-master-3.2/result/LINK_invent/BTK/process_docking_weight1_custom_product_contain_oxygen_bond_distance_aromatic_linkinvent_7_9_3/rearranged_h_0051.sdf

> <i_m_source_file_index>
65

> <r_mmod_Potential_Energy-OPLS-2005>
135.664138793945

> <r_mmod_Stretch_Energy-OPLS-2005>
134.846160888672

> <r_mmod_Bend_Energy-OPLS-2005>
227.785507202148

> <r_mmod_Torsional_Energy-OPLS-2005>
267.093780517578

> <r_mmod_Improper_Torsional_Energy-OPLS-2005>
7.92947626113892

> <r_mmod_Van_der_Waal_Energy-OPLS-2005>
130.920104980469

> <r_mmod_Electrostatic_Energy-OPLS-2005>
-292.552947998047

> <r_mmod_Solvation_Energy-OPLS-2005>
-412.918579101562

> <b_mmod_Minimization_Converged-OPLS-2005>
0

> <r_mmod_RMS_Derivative-OPLS-2005>
3.00958275794983

$$$$
65
                    3D
 Structure written by MMmdl.
161169  0  0  1  0            999 V2000
  -30.6824  -14.5429   20.4778 C   0  0  0  0  0  0
  -30.4099  -12.3320   19.4340 C   0  0  0  0  0  0
  -29.4888  -12.4828   18.2063 C   0  0  0  0  0  0
  -28.0070  -12.3566   18.6155 C   0  0  0  0  0  0
  -27.6420  -13.2215   19.8527 C   0  0  2  0  0  0
  -28.6884  -13.0715   20.9771 C   0  0  0  0  0  0
  -25.2481  -13.8195   20.5684 C   0  0  0  0  0  0
  -24.1769  -13.0438   20.9191 C   0  0  0  0  0  0
  -24.6365  -11.6909   20.8747 C   0  0  0  0  0  0
  -23.9049  -10.4278   21.0395 C   0  0  0  0  0  0
  -24.3603   -9.4196   21.9174 C   0  0  0  0  0  0
  -23.6276   -8.2235   22.0747 C   0  0  0  0  0  0
  -22.4264   -8.0273   21.3539 C   0  0  0  0  0  0
  -21.9894   -9.0239   20.4640 C   0  0  0  0  0  0
  -22.7220  -10.2116   20.3039 C   0  0  0  0  0  0
  -21.6853   -6.0724   22.5273 C   0  0  0  0  0  0
  -21.4024   -6.5629   23.8205 C   0  0  0  0  0  0
  -21.3658   -5.6781   24.9168 C   0  0  0  0  0  0
  -21.6036   -4.3041   24.7217 C   0  0  0  0  0  0
  -21.8824   -3.8137   23.4339 C   0  0  0  0  0  0
  -21.9190   -4.6953   22.3396 C   0  0  0  0  0  0
  -22.7794  -13.5219   21.1857 C   0  0  0  0  0  0
  -22.1657   -4.2138   21.0974 F   0  0  0  0  0  0
  -21.5618   -3.4527   25.7731 F   0  0  0  0  0  0
  -30.0002  -13.3668   20.3963 N   0  0  0  0  0  0
  -26.2913  -12.9384   20.3280 N   0  0  0  0  0  0
  -25.9290  -11.6529   20.5747 N   0  0  0  0  0  0
  -22.0449  -12.8211   22.0421 N   0  0  0  0  0  0
  -25.4174  -15.1916   20.4099 N   0  0  0  0  0  0
  -31.8822  -14.6147   20.2183 O   0  0  0  0  0  0
  -21.6631   -6.8872   21.4239 O   0  0  0  0  0  0
  -22.3468  -14.5511   20.6688 O   0  0  0  0  0  0
  -24.6171  -31.8660   23.2082 C   0  0  0  0  0  0
  -25.9055  -32.4826   23.8388 C   0  0  1  0  0  0
  -27.2198  -27.4011   20.1094 C   0  0  0  0  0  0
  -25.5901  -33.8620   24.2326 N   0  0  0  0  0  0
  -23.4063  -30.4903   21.5500 C   0  0  2  0  0  0
  -24.8527  -28.9567   20.1106 C   0  0  0  0  0  0
  -22.7412  -29.4664   22.4971 C   0  0  0  0  0  0
  -18.0289  -28.1355   22.8486 C   0  0  0  0  0  0
  -24.1481  -36.7314   23.2637 C   0  0  0  0  0  0
  -25.9394  -30.8252   21.3632 C   0  0  0  0  0  0
  -26.0159  -29.4575   20.7104 C   0  0  0  0  0  0
  -27.2081  -28.6895   20.7023 C   0  0  0  0  0  0
  -26.0447  -26.9293   19.4882 C   0  0  0  0  0  0
  -24.8638  -27.6956   19.4912 C   0  0  0  0  0  0
  -23.6150  -29.8250   20.1635 C   0  0  0  0  0  0
  -25.4108  -36.3113   24.0331 C   0  0  1  0  0  0
  -20.5878  -28.3688   23.1328 C   0  0  2  0  0  0
  -20.6807  -26.9427   22.5397 C   0  0  0  0  0  0
  -19.5799  -26.6411   21.5185 C   0  0  0  0  0  0
  -18.1958  -26.7916   22.1589 C   0  0  0  0  0  0
  -19.1521  -28.8832   23.2910 C   0  0  0  0  0  0
  -18.9451  -30.1437   23.8910 C   0  0  0  0  0  0
  -17.6448  -30.6573   24.0561 C   0  0  0  0  0  0
  -25.9038  -34.9479   23.5126 C   0  0  0  0  0  0
  -16.5347  -29.9049   23.6334 C   0  0  0  0  0  0
  -16.7267  -28.6477   23.0348 C   0  0  0  0  0  0
  -26.4475  -31.6603   25.0715 C   0  0  0  0  0  0
  -25.3726  -31.3703   26.1444 C   0  0  0  0  0  0
  -27.0314  -30.3042   24.6104 C   0  0  0  0  0  0
  -27.6046  -32.4321   25.7495 C   0  0  0  0  0  0
  -27.5579  -37.1813   24.8468 C   0  0  0  0  0  0
  -21.4131  -29.3090   22.3741 N   0  0  0  0  0  0
  -26.4297  -37.3794   23.9407 N   0  0  0  0  0  0
  -24.6729  -31.0755   22.0994 N   0  0  0  0  0  0
  -23.4184  -28.8174   23.3000 O   0  0  0  0  0  0
  -28.3450  -26.5970   20.1320 O   0  0  0  0  0  0
  -26.5608  -34.8933   22.4692 O   0  0  0  0  0  0
  -23.5361  -32.1405   23.7482 O   0  0  0  0  0  0
  -30.9670  -17.3155   22.5559 C   0  0  0  0  0  0
  -31.7763  -18.2588   23.2105 C   0  0  0  0  0  0
  -30.5424  -20.0379   22.1212 C   0  0  0  0  0  0
  -29.9273  -17.7007   21.6763 C   0  0  0  0  0  0
  -29.6988  -19.1098   21.4640 C   0  0  0  0  0  0
  -31.5630  -19.6258   22.9927 C   0  0  0  0  0  0
  -28.6661  -22.7849   20.1937 C   0  0  0  0  0  0
  -28.8175  -24.1335   20.0269 C   0  0  0  0  0  0
  -27.7892  -22.1470   21.1860 C   0  0  0  0  0  0
  -26.8805  -20.1604   22.2673 C   0  0  0  0  0  0
  -29.1406  -16.5263   21.0558 C   0  0  0  0  0  0
  -28.5977  -19.7360   20.5841 C   0  0  0  0  0  0
  -28.1653  -25.3083   20.7774 C   0  0  0  0  0  0
  -29.9739  -15.6595   20.2013 N   0  0  0  0  0  0
  -27.7910  -20.7737   21.2862 N   0  0  0  0  0  0
  -27.0554  -22.8105   21.9240 O   0  0  0  0  0  0
  -32.3301  -20.5445   23.6250 F   0  0  0  0  0  0
  -31.4549  -12.4271   19.1345 H   0  0  0  0  0  0
  -30.3122  -11.3387   19.8739 H   0  0  0  0  0  0
  -29.7311  -11.7269   17.4582 H   0  0  0  0  0  0
  -29.6594  -13.4508   17.7321 H   0  0  0  0  0  0
  -27.8153  -11.3046   18.8270 H   0  0  0  0  0  0
  -27.3623  -12.6174   17.7733 H   0  0  0  0  0  0
  -27.6599  -14.2575   19.5135 H   0  0  0  0  0  0
  -28.6738  -12.0554   21.3725 H   0  0  0  0  0  0
  -28.4646  -13.7288   21.8161 H   0  0  0  0  0  0
  -25.2749   -9.5667   22.4740 H   0  0  0  0  0  0
  -23.9975   -7.4625   22.7460 H   0  0  0  0  0  0
  -21.0825   -8.8754   19.8949 H   0  0  0  0  0  0
  -22.3681  -10.9647   19.6131 H   0  0  0  0  0  0
  -21.2042   -7.6141   23.9708 H   0  0  0  0  0  0
  -21.1469   -6.0513   25.9069 H   0  0  0  0  0  0
  -22.0611   -2.7600   23.2842 H   0  0  0  0  0  0
  -22.4083  -11.9897   22.4840 H   0  0  0  0  0  0
  -21.1051  -13.1200   22.2603 H   0  0  0  0  0  0
  -24.6470  -15.8442   20.5040 H   0  0  0  0  0  0
  -26.2633  -15.6238   20.0645 H   0  0  0  0  0  0
  -26.7131  -32.5546   23.1159 H   0  0  0  0  0  0
  -25.0054  -33.9785   25.0472 H   0  0  0  0  0  0
  -22.6966  -31.3082   21.4111 H   0  0  0  0  0  0
  -23.3740  -35.9649   23.3317 H   0  0  0  0  0  0
  -24.3569  -36.8914   22.2048 H   0  0  0  0  0  0
  -23.7232  -37.6520   23.6648 H   0  0  0  0  0  0
  -26.0518  -31.5876   20.5911 H   0  0  0  0  0  0
  -26.8272  -30.8819   21.9811 H   0  0  0  0  0  0
  -28.1063  -29.0701   21.1710 H   0  0  0  0  0  0
  -26.0383  -25.9593   19.0122 H   0  0  0  0  0  0
  -23.9705  -27.3087   19.0210 H   0  0  0  0  0  0
  -23.7217  -30.6002   19.4026 H   0  0  0  0  0  0
  -22.7379  -29.2437   19.8718 H   0  0  0  0  0  0
  -25.1281  -36.1982   25.0822 H   0  0  0  0  0  0
  -20.9983  -28.3255   24.1440 H   0  0  0  0  0  0
  -20.5772  -26.2274   23.3561 H   0  0  0  0  0  0
  -21.6675  -26.7524   22.1161 H   0  0  0  0  0  0
  -19.6995  -25.6332   21.1188 H   0  0  0  0  0  0
  -19.6749  -27.3229   20.6722 H   0  0  0  0  0  0
  -17.4240  -26.6673   21.3972 H   0  0  0  0  0  0
  -18.0397  -26.0022   22.8955 H   0  0  0  0  0  0
  -19.7921  -30.7263   24.2260 H   0  0  0  0  0  0
  -17.4996  -31.6261   24.5122 H   0  0  0  0  0  0
  -15.5344  -30.2957   23.7653 H   0  0  0  0  0  0
  -15.8656  -28.0814   22.7051 H   0  0  0  0  0  0
  -24.5902  -30.7059   25.7759 H   0  0  0  0  0  0
  -24.8911  -32.2859   26.4895 H   0  0  0  0  0  0
  -25.8049  -30.8854   27.0206 H   0  0  0  0  0  0
  -26.2865  -29.6808   24.1138 H   0  0  0  0  0  0
  -27.4061  -29.7275   25.4579 H   0  0  0  0  0  0
  -27.8715  -30.4366   23.9274 H   0  0  0  0  0  0
  -27.2658  -33.3612   26.2101 H   0  0  0  0  0  0
  -28.3847  -32.6899   25.0314 H   0  0  0  0  0  0
  -28.0729  -31.8421   26.5390 H   0  0  0  0  0  0
  -28.2608  -38.0104   24.7507 H   0  0  0  0  0  0
  -28.1063  -36.2629   24.6302 H   0  0  0  0  0  0
  -27.2294  -37.1471   25.8873 H   0  0  0  0  0  0
  -20.9256  -29.8873   21.7024 H   0  0  0  0  0  0
  -26.0185  -38.2872   24.1405 H   0  0  0  0  0  0
  -31.1444  -16.2688   22.7471 H   0  0  0  0  0  0
  -32.5585  -17.9325   23.8816 H   0  0  0  0  0  0
  -30.4102  -21.0984   21.9673 H   0  0  0  0  0  0
  -29.2494  -22.1672   19.5316 H   0  0  0  0  0  0
  -29.5137  -24.4505   19.2640 H   0  0  0  0  0  0
  -27.0425  -19.0884   22.3891 H   0  0  0  0  0  0
  -25.8434  -20.2972   21.9606 H   0  0  0  0  0  0
  -27.0049  -20.6034   23.2575 H   0  0  0  0  0  0
  -28.7001  -15.9468   21.8668 H   0  0  0  0  0  0
  -28.3001  -16.8752   20.4585 H   0  0  0  0  0  0
  -27.9114  -18.9713   20.2280 H   0  0  0  0  0  0
  -29.0581  -20.1146   19.6748 H   0  0  0  0  0  0
  -28.6355  -25.3733   21.7601 H   0  0  0  0  0  0
  -27.1134  -25.0863   20.9615 H   0  0  0  0  0  0
  -30.5454  -16.2497   19.6164 H   0  0  0  0  0  0
  1 25  1  0  0  0
  1 30  2  0  0  0
  1 84  1  0  0  0
  2  3  1  0  0  0
  2 25  1  0  0  0
  2 88  1  0  0  0
  2 89  1  0  0  0
  3  4  1  0  0  0
  3 90  1  0  0  0
  3 91  1  0  0  0
  4  5  1  0  0  0
  4 92  1  0  0  0
  4 93  1  0  0  0
  5  6  1  0  0  0
  5 26  1  0  0  0
  5 94  1  0  0  0
  6 25  1  0  0  0
  6 95  1  0  0  0
  6 96  1  0  0  0
  7  8  2  0  0  0
  7 26  1  0  0  0
  7 29  1  0  0  0
  8  9  1  0  0  0
  8 22  1  0  0  0
  9 10  1  0  0  0
  9 27  2  0  0  0
 10 11  2  0  0  0
 10 15  1  0  0  0
 11 12  1  0  0  0
 11 97  1  0  0  0
 12 13  2  0  0  0
 12 98  1  0  0  0
 13 14  1  0  0  0
 13 31  1  0  0  0
 14 15  2  0  0  0
 14 99  1  0  0  0
 15100  1  0  0  0
 16 17  2  0  0  0
 16 21  1  0  0  0
 16 31  1  0  0  0
 17 18  1  0  0  0
 17101  1  0  0  0
 18 19  2  0  0  0
 18102  1  0  0  0
 19 20  1  0  0  0
 19 24  1  0  0  0
 20 21  2  0  0  0
 20103  1  0  0  0
 21 23  1  0  0  0
 22 28  1  0  0  0
 22 32  2  0  0  0
 26 27  1  0  0  0
 28104  1  0  0  0
 28105  1  0  0  0
 29106  1  0  0  0
 29107  1  0  0  0
 33 34  1  0  0  0
 33 66  1  0  0  0
 33 70  2  0  0  0
 34 36  1  0  0  0
 34 59  1  0  0  0
 34108  1  0  0  0
 35 44  2  0  0  0
 35 45  1  0  0  0
 35 68  1  0  0  0
 36 56  1  0  0  0
 36109  1  0  0  0
 37 39  1  0  0  0
 37 47  1  0  0  0
 37 66  1  0  0  0
 37110  1  0  0  0
 38 43  2  0  0  0
 38 46  1  0  0  0
 38 47  1  0  0  0
 39 64  1  0  0  0
 39 67  2  0  0  0
 40 52  1  0  0  0
 40 53  2  0  0  0
 40 58  1  0  0  0
 41111  1  0  0  0
 41112  1  0  0  0
 41113  1  0  0  0
 41 48  1  0  0  0
 42 43  1  0  0  0
 42 66  1  0  0  0
 42114  1  0  0  0
 42115  1  0  0  0
 43 44  1  0  0  0
 44116  1  0  0  0
 45 46  2  0  0  0
 45117  1  0  0  0
 46118  1  0  0  0
 47119  1  0  0  0
 47120  1  0  0  0
 48 56  1  0  0  0
 48 65  1  0  0  0
 48121  1  0  0  0
 49 50  1  0  0  0
 49 53  1  0  0  0
 49 64  1  0  0  0
 49122  1  0  0  0
 50 51  1  0  0  0
 50123  1  0  0  0
 50124  1  0  0  0
 51 52  1  0  0  0
 51125  1  0  0  0
 51126  1  0  0  0
 52127  1  0  0  0
 52128  1  0  0  0
 53 54  1  0  0  0
 54 55  2  0  0  0
 54129  1  0  0  0
 55 57  1  0  0  0
 55130  1  0  0  0
 56 69  2  0  0  0
 57 58  2  0  0  0
 57131  1  0  0  0
 58132  1  0  0  0
 59 60  1  0  0  0
 59 61  1  0  0  0
 59 62  1  0  0  0
 60133  1  0  0  0
 60134  1  0  0  0
 60135  1  0  0  0
 61136  1  0  0  0
 61137  1  0  0  0
 61138  1  0  0  0
 62139  1  0  0  0
 62140  1  0  0  0
 62141  1  0  0  0
 63 65  1  0  0  0
 63142  1  0  0  0
 63143  1  0  0  0
 63144  1  0  0  0
 64145  1  0  0  0
 65146  1  0  0  0
 68 83  1  0  0  0
 71 72  2  0  0  0
 71 74  1  0  0  0
 71147  1  0  0  0
 72 76  1  0  0  0
 72148  1  0  0  0
 73 75  1  0  0  0
 73 76  2  0  0  0
 73149  1  0  0  0
 74 75  2  0  0  0
 74 81  1  0  0  0
 75 82  1  0  0  0
 76 87  1  0  0  0
 77 78  2  0  0  0
 77 79  1  0  0  0
 77150  1  0  0  0
 78 83  1  0  0  0
 78151  1  0  0  0
 79 85  1  0  0  0
 79 86  2  0  0  0
 80 85  1  0  0  0
 80152  1  0  0  0
 80153  1  0  0  0
 80154  1  0  0  0
 81 84  1  0  0  0
 81155  1  0  0  0
 81156  1  0  0  0
 82 85  1  0  0  0
 82157  1  0  0  0
 82158  1  0  0  0
 83159  1  0  0  0
 83160  1  0  0  0
 84161  1  0  0  0
M  ISO  4   1 100  68 101  83 101  84 100
M  END
> <chiral flag>
0

> <version>
0

> <s_m_source_file>
/data/baiqing/PycharmProjects/Reinvent-master-3.2/result/LINK_invent/BTK/process_docking_weight1_custom_product_contain_oxygen_bond_distance_aromatic_linkinvent_7_9_3/rearranged_h_0051.sdf

> <i_m_source_file_index>
66

> <r_mmod_Potential_Energy-OPLS-2005>
33.5420188903809

> <r_mmod_Stretch_Energy-OPLS-2005>
52.6545066833496

> <r_mmod_Bend_Energy-OPLS-2005>
149.271911621094

> <r_mmod_Torsional_Energy-OPLS-2005>
292.679138183594

> <r_mmod_Improper_Torsional_Energy-OPLS-2005>
26.9147663116455

> <r_mmod_Van_der_Waal_Energy-OPLS-2005>
156.254302978516

> <r_mmod_Electrostatic_Energy-OPLS-2005>
-446.580657958984

> <r_mmod_Solvation_Energy-OPLS-2005>
-227.470703125

> <b_mmod_Minimization_Converged-OPLS-2005>
0

> <r_mmod_RMS_Derivative-OPLS-2005>
2.75548815727234

$$$$
66
                    3D
 Structure written by MMmdl.
164173  0  0  1  0            999 V2000
  -30.6815  -14.5274   20.5723 C   0  0  0  0  0  0
  -30.4289  -12.3546   19.4258 C   0  0  0  0  0  0
  -29.4906  -12.5108   18.2123 C   0  0  0  0  0  0
  -28.0166  -12.3550   18.6304 C   0  0  0  0  0  0
  -27.6557  -13.2109   19.8749 C   0  0  2  0  0  0
  -28.6995  -13.0228   21.0004 C   0  0  0  0  0  0
  -25.2512  -13.8182   20.5677 C   0  0  0  0  0  0
  -24.1798  -13.0453   20.9243 C   0  0  0  0  0  0
  -24.6357  -11.6923   20.8780 C   0  0  0  0  0  0
  -23.9020  -10.4309   21.0428 C   0  0  0  0  0  0
  -24.3607   -9.4201   21.9170 C   0  0  0  0  0  0
  -23.6290   -8.2242   22.0746 C   0  0  0  0  0  0
  -22.4261   -8.0286   21.3566 C   0  0  0  0  0  0
  -21.9872   -9.0279   20.4693 C   0  0  0  0  0  0
  -22.7194  -10.2153   20.3089 C   0  0  0  0  0  0
  -21.6847   -6.0727   22.5265 C   0  0  0  0  0  0
  -21.4017   -6.5645   23.8191 C   0  0  0  0  0  0
  -21.3696   -5.6805   24.9156 C   0  0  0  0  0  0
  -21.6055   -4.3062   24.7213 C   0  0  0  0  0  0
  -21.8812   -3.8142   23.4331 C   0  0  0  0  0  0
  -21.9201   -4.6957   22.3389 C   0  0  0  0  0  0
  -22.7817  -13.5239   21.1895 C   0  0  0  0  0  0
  -22.1657   -4.2132   21.0972 F   0  0  0  0  0  0
  -21.5642   -3.4555   25.7728 F   0  0  0  0  0  0
  -30.0250  -13.3414   20.4411 N   0  0  0  0  0  0
  -26.2970  -12.9361   20.3388 N   0  0  0  0  0  0
  -25.9279  -11.6520   20.5786 N   0  0  0  0  0  0
  -22.0451  -12.8217   22.0463 N   0  0  0  0  0  0
  -25.4156  -15.1896   20.3971 N   0  0  0  0  0  0
  -31.8140  -14.7153   20.1177 O   0  0  0  0  0  0
  -21.6617   -6.8883   21.4241 O   0  0  0  0  0  0
  -22.3496  -14.5502   20.6698 O   0  0  0  0  0  0
  -24.6161  -31.8684   23.2140 C   0  0  0  0  0  0
  -25.9045  -32.4825   23.8422 C   0  0  1  0  0  0
  -27.2324  -27.4310   20.0871 C   0  0  0  0  0  0
  -25.5903  -33.8624   24.2346 N   0  0  0  0  0  0
  -23.4027  -30.4956   21.5570 C   0  0  2  0  0  0
  -24.8463  -28.9655   20.1197 C   0  0  0  0  0  0
  -22.7410  -29.4663   22.5015 C   0  0  0  0  0  0
  -18.0258  -28.1379   22.8477 C   0  0  0  0  0  0
  -24.1495  -36.7329   23.2633 C   0  0  0  0  0  0
  -25.9357  -30.8308   21.3689 C   0  0  0  0  0  0
  -26.0108  -29.4681   20.7141 C   0  0  0  0  0  0
  -27.2061  -28.7091   20.6944 C   0  0  0  0  0  0
  -26.0461  -26.9604   19.4715 C   0  0  0  0  0  0
  -24.8600  -27.7101   19.4960 C   0  0  0  0  0  0
  -23.6102  -29.8327   20.1714 C   0  0  0  0  0  0
  -25.4103  -36.3118   24.0337 C   0  0  1  0  0  0
  -20.5853  -28.3661   23.1310 C   0  0  2  0  0  0
  -20.6755  -26.9393   22.5418 C   0  0  0  0  0  0
  -19.5745  -26.6381   21.5205 C   0  0  0  0  0  0
  -18.1912  -26.7916   22.1607 C   0  0  0  0  0  0
  -19.1509  -28.8824   23.2899 C   0  0  0  0  0  0
  -18.9438  -30.1419   23.8932 C   0  0  0  0  0  0
  -17.6445  -30.6575   24.0548 C   0  0  0  0  0  0
  -25.9030  -34.9482   23.5126 C   0  0  0  0  0  0
  -16.5337  -29.9084   23.6306 C   0  0  0  0  0  0
  -16.7248  -28.6500   23.0332 C   0  0  0  0  0  0
  -26.4467  -31.6604   25.0743 C   0  0  0  0  0  0
  -25.3741  -31.3726   26.1503 C   0  0  0  0  0  0
  -27.0271  -30.3038   24.6113 C   0  0  0  0  0  0
  -27.6070  -32.4314   25.7481 C   0  0  0  0  0  0
  -27.5580  -37.1815   24.8452 C   0  0  0  0  0  0
  -21.4136  -29.3042   22.3733 N   0  0  0  0  0  0
  -26.4295  -37.3792   23.9399 N   0  0  0  0  0  0
  -24.6702  -31.0782   22.1052 N   0  0  0  0  0  0
  -23.4190  -28.8184   23.3035 O   0  0  0  0  0  0
  -28.4070  -26.6941   20.0897 O   0  0  0  0  0  0
  -26.5602  -34.8923   22.4693 O   0  0  0  0  0  0
  -23.5349  -32.1439   23.7541 O   0  0  0  0  0  0
  -28.9396  -19.1698   20.8808 C   0  0  0  0  0  0
  -28.2987  -17.5129   22.5416 C   0  0  0  0  0  0
  -29.1648  -17.9116   21.5025 C   0  0  0  0  0  0
  -27.8451  -19.9953   21.2540 C   0  0  0  0  0  0
  -27.1897  -18.3020   22.9138 C   0  0  0  0  0  0
  -26.9485  -19.5343   22.2564 C   0  0  0  0  0  0
  -27.8454  -23.3482   21.8277 C   0  0  0  0  0  0
  -28.0926  -24.8609   21.7018 C   0  0  0  0  0  0
  -29.5260  -24.5046   19.7376 C   0  0  0  0  0  0
  -29.3183  -22.9684   19.8614 C   0  0  0  0  0  0
  -28.2934  -25.2634   20.2344 C   0  0  2  0  0  0
  -27.5535  -21.2888   20.4696 C   0  0  0  0  0  0
  -30.3118  -16.9776   21.0712 C   0  0  0  0  0  0
  -26.2318  -17.7926   23.9879 C   0  0  0  0  0  0
  -28.2829  -22.5317   20.8314 N   0  0  0  0  0  0
  -29.9537  -15.5455   21.0786 N   0  0  0  0  0  0
  -27.1856  -22.9534   22.7901 O   0  0  0  0  0  0
  -26.6402  -16.6348   24.5098 F   0  0  0  0  0  0
  -26.1380  -18.6737   24.9848 F   0  0  0  0  0  0
  -25.0212  -17.5966   23.4632 F   0  0  0  0  0  0
  -25.5150  -20.4312   22.6412 Cl  0  0  0  0  0  0
  -31.4655  -12.4842   19.1102 H   0  0  0  0  0  0
  -30.3648  -11.3480   19.8362 H   0  0  0  0  0  0
  -29.7434  -11.7728   17.4502 H   0  0  0  0  0  0
  -29.6363  -13.4886   17.7501 H   0  0  0  0  0  0
  -27.8477  -11.3004   18.8497 H   0  0  0  0  0  0
  -27.3599  -12.5980   17.7935 H   0  0  0  0  0  0
  -27.6940  -14.2558   19.5673 H   0  0  0  0  0  0
  -28.6914  -11.9961   21.3700 H   0  0  0  0  0  0
  -28.4547  -13.6446   21.8651 H   0  0  0  0  0  0
  -25.2811   -9.5640   22.4669 H   0  0  0  0  0  0
  -24.0024   -7.4609   22.7417 H   0  0  0  0  0  0
  -21.0803   -8.8776   19.9003 H   0  0  0  0  0  0
  -22.3642  -10.9676   19.6182 H   0  0  0  0  0  0
  -21.1977   -7.6146   23.9665 H   0  0  0  0  0  0
  -21.1562   -6.0569   25.9062 H   0  0  0  0  0  0
  -22.0557   -2.7596   23.2822 H   0  0  0  0  0  0
  -22.4070  -11.9926   22.4932 H   0  0  0  0  0  0
  -21.1002  -13.1128   22.2547 H   0  0  0  0  0  0
  -24.6382  -15.8332   20.4923 H   0  0  0  0  0  0
  -26.2508  -15.6311   20.0385 H   0  0  0  0  0  0
  -26.7116  -32.5532   23.1190 H   0  0  0  0  0  0
  -25.0053  -33.9795   25.0490 H   0  0  0  0  0  0
  -22.6922  -31.3147   21.4221 H   0  0  0  0  0  0
  -23.3745  -35.9673   23.3302 H   0  0  0  0  0  0
  -24.3598  -36.8922   22.2044 H   0  0  0  0  0  0
  -23.7261  -37.6541   23.6640 H   0  0  0  0  0  0
  -26.0508  -31.5962   20.6013 H   0  0  0  0  0  0
  -26.8249  -30.8815   21.9874 H   0  0  0  0  0  0
  -28.1053  -29.0967   21.1522 H   0  0  0  0  0  0
  -26.0018  -26.0283   18.9304 H   0  0  0  0  0  0
  -23.9707  -27.3201   19.0193 H   0  0  0  0  0  0
  -23.7167  -30.6109   19.4159 H   0  0  0  0  0  0
  -22.7324  -29.2557   19.8756 H   0  0  0  0  0  0
  -25.1278  -36.1987   25.0830 H   0  0  0  0  0  0
  -20.9935  -28.3235   24.1434 H   0  0  0  0  0  0
  -20.5630  -26.2276   23.3613 H   0  0  0  0  0  0
  -21.6630  -26.7418   22.1227 H   0  0  0  0  0  0
  -19.6915  -25.6304   21.1209 H   0  0  0  0  0  0
  -19.6690  -27.3219   20.6765 H   0  0  0  0  0  0
  -17.4178  -26.6638   21.4013 H   0  0  0  0  0  0
  -18.0316  -26.0074   22.9027 H   0  0  0  0  0  0
  -19.7919  -30.7190   24.2363 H   0  0  0  0  0  0
  -17.5008  -31.6263   24.5135 H   0  0  0  0  0  0
  -15.5340  -30.2997   23.7601 H   0  0  0  0  0  0
  -15.8649  -28.0813   22.7052 H   0  0  0  0  0  0
  -24.5961  -30.6990   25.7888 H   0  0  0  0  0  0
  -24.8882  -32.2880   26.4892 H   0  0  0  0  0  0
  -25.8116  -30.8984   27.0301 H   0  0  0  0  0  0
  -26.2821  -29.6856   24.1091 H   0  0  0  0  0  0
  -27.3942  -29.7203   25.4566 H   0  0  0  0  0  0
  -27.8710  -30.4342   23.9336 H   0  0  0  0  0  0
  -27.2725  -33.3638   26.2044 H   0  0  0  0  0  0
  -28.3888  -32.6816   25.0297 H   0  0  0  0  0  0
  -28.0734  -31.8440   26.5399 H   0  0  0  0  0  0
  -28.2596  -38.0115   24.7491 H   0  0  0  0  0  0
  -28.1080  -36.2639   24.6294 H   0  0  0  0  0  0
  -27.2311  -37.1480   25.8861 H   0  0  0  0  0  0
  -20.9288  -29.8794   21.6983 H   0  0  0  0  0  0
  -26.0186  -38.2874   24.1392 H   0  0  0  0  0  0
  -29.5853  -19.4869   20.0717 H   0  0  0  0  0  0
  -28.4677  -16.5728   23.0456 H   0  0  0  0  0  0
  -28.9624  -25.1356   22.2984 H   0  0  0  0  0  0
  -27.2391  -25.3939   22.1194 H   0  0  0  0  0  0
  -29.7403  -24.7624   18.7007 H   0  0  0  0  0  0
  -30.4032  -24.8114   20.3115 H   0  0  0  0  0  0
  -30.2596  -22.4906   20.1284 H   0  0  0  0  0  0
  -29.0698  -22.5955   18.8674 H   0  0  0  0  0  0
  -27.4715  -24.8676   19.6461 H   0  0  0  0  0  0
  -26.4862  -21.5104   20.4903 H   0  0  0  0  0  0
  -27.7175  -21.0530   19.4197 H   0  0  0  0  0  0
  -31.1614  -17.1413   21.7397 H   0  0  0  0  0  0
  -30.6559  -17.2518   20.0713 H   0  0  0  0  0  0
  -29.0137  -15.3197   21.3619 H   0  0  0  0  0  0
  1 25  1  0  0  0
  1 30  2  0  0  0
  1 86  1  0  0  0
  2  3  1  0  0  0
  2 25  1  0  0  0
  2 92  1  0  0  0
  2 93  1  0  0  0
  3  4  1  0  0  0
  3 94  1  0  0  0
  3 95  1  0  0  0
  4  5  1  0  0  0
  4 96  1  0  0  0
  4 97  1  0  0  0
  5  6  1  0  0  0
  5 26  1  0  0  0
  5 98  1  0  0  0
  6 25  1  0  0  0
  6 99  1  0  0  0
  6100  1  0  0  0
  7  8  2  0  0  0
  7 26  1  0  0  0
  7 29  1  0  0  0
  8  9  1  0  0  0
  8 22  1  0  0  0
  9 10  1  0  0  0
  9 27  2  0  0  0
 10 11  2  0  0  0
 10 15  1  0  0  0
 11 12  1  0  0  0
 11101  1  0  0  0
 12 13  2  0  0  0
 12102  1  0  0  0
 13 14  1  0  0  0
 13 31  1  0  0  0
 14 15  2  0  0  0
 14103  1  0  0  0
 15104  1  0  0  0
 16 17  2  0  0  0
 16 21  1  0  0  0
 16 31  1  0  0  0
 17 18  1  0  0  0
 17105  1  0  0  0
 18 19  2  0  0  0
 18106  1  0  0  0
 19 20  1  0  0  0
 19 24  1  0  0  0
 20 21  2  0  0  0
 20107  1  0  0  0
 21 23  1  0  0  0
 22 28  1  0  0  0
 22 32  2  0  0  0
 26 27  1  0  0  0
 28108  1  0  0  0
 28109  1  0  0  0
 29110  1  0  0  0
 29111  1  0  0  0
 33 34  1  0  0  0
 33 66  1  0  0  0
 33 70  2  0  0  0
 34 36  1  0  0  0
 34 59  1  0  0  0
 34112  1  0  0  0
 35 44  2  0  0  0
 35 45  1  0  0  0
 35 68  1  0  0  0
 36 56  1  0  0  0
 36113  1  0  0  0
 37 39  1  0  0  0
 37 47  1  0  0  0
 37 66  1  0  0  0
 37114  1  0  0  0
 38 43  2  0  0  0
 38 46  1  0  0  0
 38 47  1  0  0  0
 39 64  1  0  0  0
 39 67  2  0  0  0
 40 52  1  0  0  0
 40 53  2  0  0  0
 40 58  1  0  0  0
 41115  1  0  0  0
 41116  1  0  0  0
 41117  1  0  0  0
 41 48  1  0  0  0
 42 43  1  0  0  0
 42 66  1  0  0  0
 42118  1  0  0  0
 42119  1  0  0  0
 43 44  1  0  0  0
 44120  1  0  0  0
 45 46  2  0  0  0
 45121  1  0  0  0
 46122  1  0  0  0
 47123  1  0  0  0
 47124  1  0  0  0
 48 56  1  0  0  0
 48 65  1  0  0  0
 48125  1  0  0  0
 49 50  1  0  0  0
 49 53  1  0  0  0
 49 64  1  0  0  0
 49126  1  0  0  0
 50 51  1  0  0  0
 50127  1  0  0  0
 50128  1  0  0  0
 51 52  1  0  0  0
 51129  1  0  0  0
 51130  1  0  0  0
 52131  1  0  0  0
 52132  1  0  0  0
 53 54  1  0  0  0
 54 55  2  0  0  0
 54133  1  0  0  0
 55 57  1  0  0  0
 55134  1  0  0  0
 56 69  2  0  0  0
 57 58  2  0  0  0
 57135  1  0  0  0
 58136  1  0  0  0
 59 60  1  0  0  0
 59 61  1  0  0  0
 59 62  1  0  0  0
 60137  1  0  0  0
 60138  1  0  0  0
 60139  1  0  0  0
 61140  1  0  0  0
 61141  1  0  0  0
 61142  1  0  0  0
 62143  1  0  0  0
 62144  1  0  0  0
 62145  1  0  0  0
 63 65  1  0  0  0
 63146  1  0  0  0
 63147  1  0  0  0
 63148  1  0  0  0
 64149  1  0  0  0
 65150  1  0  0  0
 68 81  1  0  0  0
 71 73  2  0  0  0
 71 74  1  0  0  0
 71151  1  0  0  0
 72 73  1  0  0  0
 72 75  2  0  0  0
 72152  1  0  0  0
 73 83  1  0  0  0
 74 76  2  0  0  0
 74 82  1  0  0  0
 75 76  1  0  0  0
 75 84  1  0  0  0
 76 91  1  0  0  0
 77 78  1  0  0  0
 77 85  1  0  0  0
 77 87  2  0  0  0
 78 81  1  0  0  0
 78153  1  0  0  0
 78154  1  0  0  0
 79 80  1  0  0  0
 79 81  1  0  0  0
 79155  1  0  0  0
 79156  1  0  0  0
 80 85  1  0  0  0
 80157  1  0  0  0
 80158  1  0  0  0
 81159  1  0  0  0
 82 85  1  0  0  0
 82160  1  0  0  0
 82161  1  0  0  0
 83 86  1  0  0  0
 83162  1  0  0  0
 83163  1  0  0  0
 84 88  1  0  0  0
 84 89  1  0  0  0
 84 90  1  0  0  0
 86164  1  0  0  0
M  ISO  4   1 100  68 101  81 101  86 100
M  END
> <chiral flag>
0

> <version>
0

> <s_m_source_file>
/data/baiqing/PycharmProjects/Reinvent-master-3.2/result/LINK_invent/BTK/process_docking_weight1_custom_product_contain_oxygen_bond_distance_aromatic_linkinvent_7_9_3/rearranged_h_0051.sdf

> <i_m_source_file_index>
67

> <r_mmod_Potential_Energy-OPLS-2005>
-27.4783992767334

> <r_mmod_Stretch_Energy-OPLS-2005>
46.1826324462891

> <r_mmod_Bend_Energy-OPLS-2005>
104.451957702637

> <r_mmod_Torsional_Energy-OPLS-2005>
243.372299194336

> <r_mmod_Improper_Torsional_Energy-OPLS-2005>
5.76461362838745

> <r_mmod_Van_der_Waal_Energy-OPLS-2005>
170.746734619141

> <r_mmod_Electrostatic_Energy-OPLS-2005>
-385.30517578125

> <r_mmod_Solvation_Energy-OPLS-2005>
-230.056365966797

> <b_mmod_Minimization_Converged-OPLS-2005>
0

> <r_mmod_RMS_Derivative-OPLS-2005>
3.70935797691345

$$$$
67
                    3D
 Structure written by MMmdl.
170179  0  0  1  0            999 V2000
  -30.7383  -14.4242   20.6378 C   0  0  0  0  0  0
  -30.4179  -12.3080   19.3987 C   0  0  0  0  0  0
  -29.4852  -12.5158   18.1899 C   0  0  0  0  0  0
  -28.0099  -12.3701   18.6081 C   0  0  0  0  0  0
  -27.6611  -13.2037   19.8725 C   0  0  2  0  0  0
  -28.7027  -12.9694   20.9864 C   0  0  0  0  0  0
  -25.2596  -13.8161   20.5681 C   0  0  0  0  0  0
  -24.1842  -13.0435   20.9186 C   0  0  0  0  0  0
  -24.6386  -11.6910   20.8731 C   0  0  0  0  0  0
  -23.9053  -10.4297   21.0390 C   0  0  0  0  0  0
  -24.3607   -9.4216   21.9163 C   0  0  0  0  0  0
  -23.6293   -8.2248   22.0742 C   0  0  0  0  0  0
  -22.4274   -8.0276   21.3547 C   0  0  0  0  0  0
  -21.9905   -9.0244   20.4649 C   0  0  0  0  0  0
  -22.7227  -10.2124   20.3051 C   0  0  0  0  0  0
  -21.6854   -6.0729   22.5277 C   0  0  0  0  0  0
  -21.4012   -6.5631   23.8210 C   0  0  0  0  0  0
  -21.3660   -5.6779   24.9171 C   0  0  0  0  0  0
  -21.6052   -4.3044   24.7213 C   0  0  0  0  0  0
  -21.8819   -3.8141   23.4331 C   0  0  0  0  0  0
  -21.9197   -4.6960   22.3393 C   0  0  0  0  0  0
  -22.7875  -13.5245   21.1836 C   0  0  0  0  0  0
  -22.1668   -4.2147   21.0974 F   0  0  0  0  0  0
  -21.5621   -3.4533   25.7725 F   0  0  0  0  0  0
  -30.0344  -13.2764   20.4377 N   0  0  0  0  0  0
  -26.3014  -12.9314   20.3367 N   0  0  0  0  0  0
  -25.9310  -11.6480   20.5764 N   0  0  0  0  0  0
  -22.0506  -12.8250   22.0397 N   0  0  0  0  0  0
  -25.4346  -15.1871   20.4097 N   0  0  0  0  0  0
  -31.8213  -14.6480   20.0899 O   0  0  0  0  0  0
  -21.6647   -6.8869   21.4242 O   0  0  0  0  0  0
  -22.3563  -14.5536   20.6658 O   0  0  0  0  0  0
  -24.6174  -31.8657   23.2092 C   0  0  0  0  0  0
  -25.9071  -32.4788   23.8375 C   0  0  1  0  0  0
  -27.2254  -27.4146   20.0736 C   0  0  0  0  0  0
  -25.5914  -33.8584   24.2301 N   0  0  0  0  0  0
  -23.4026  -30.4937   21.5503 C   0  0  2  0  0  0
  -24.8415  -28.9587   20.1147 C   0  0  0  0  0  0
  -22.7412  -29.4661   22.4962 C   0  0  0  0  0  0
  -18.0275  -28.1387   22.8482 C   0  0  0  0  0  0
  -24.1483  -36.7312   23.2638 C   0  0  0  0  0  0
  -25.9345  -30.8245   21.3630 C   0  0  0  0  0  0
  -26.0065  -29.4584   20.7084 C   0  0  0  0  0  0
  -27.1984  -28.6936   20.6858 C   0  0  0  0  0  0
  -26.0238  -26.9255   19.5036 C   0  0  0  0  0  0
  -24.8443  -27.6905   19.5154 C   0  0  0  0  0  0
  -23.6085  -29.8323   20.1631 C   0  0  0  0  0  0
  -25.4103  -36.3092   24.0332 C   0  0  1  0  0  0
  -20.5859  -28.3684   23.1295 C   0  0  2  0  0  0
  -20.6758  -26.9404   22.5422 C   0  0  0  0  0  0
  -19.5749  -26.6386   21.5210 C   0  0  0  0  0  0
  -18.1927  -26.7929   22.1613 C   0  0  0  0  0  0
  -19.1526  -28.8850   23.2884 C   0  0  0  0  0  0
  -18.9455  -30.1451   23.8891 C   0  0  0  0  0  0
  -17.6459  -30.6578   24.0577 C   0  0  0  0  0  0
  -25.9041  -34.9457   23.5116 C   0  0  0  0  0  0
  -16.5347  -29.9090   23.6321 C   0  0  0  0  0  0
  -16.7265  -28.6517   23.0322 C   0  0  0  0  0  0
  -26.4480  -31.6566   25.0709 C   0  0  0  0  0  0
  -25.3754  -31.3695   26.1468 C   0  0  0  0  0  0
  -27.0302  -30.2998   24.6103 C   0  0  0  0  0  0
  -27.6044  -32.4285   25.7485 C   0  0  0  0  0  0
  -27.5566  -37.1812   24.8461 C   0  0  0  0  0  0
  -21.4139  -29.3050   22.3703 N   0  0  0  0  0  0
  -26.4283  -37.3783   23.9403 N   0  0  0  0  0  0
  -24.6697  -31.0769   22.0984 N   0  0  0  0  0  0
  -23.4182  -28.8190   23.2989 O   0  0  0  0  0  0
  -28.4185  -26.7037   20.0479 O   0  0  0  0  0  0
  -26.5605  -34.8921   22.4680 O   0  0  0  0  0  0
  -23.5365  -32.1398   23.7502 O   0  0  0  0  0  0
  -30.8804  -18.2662   20.3534 C   0  0  0  0  0  0
  -30.7857  -19.6159   19.9700 C   0  0  0  0  0  0
  -30.4706  -17.8527   21.6351 C   0  0  0  0  0  0
  -30.3069  -20.5966   20.8670 C   0  0  0  0  0  0
  -29.8480  -18.7986   22.4980 C   0  0  0  0  0  0
  -29.8256  -20.1822   22.1416 C   0  0  0  0  0  0
  -29.9654  -23.5769   18.5026 C   0  0  0  0  0  0
  -30.4460  -23.2280   17.2959 C   0  0  0  0  0  0
  -29.8749  -25.0019   19.0593 C   0  0  0  0  0  0
  -28.0100  -24.3191   20.5717 C   0  0  0  0  0  0
  -28.0904  -22.8817   20.0014 C   0  0  0  0  0  0
  -28.4528  -25.3589   19.5214 C   0  0  1  0  0  0
  -29.2339  -18.3381   23.8178 C   0  0  0  0  0  0
  -29.3692  -21.2394   23.1504 C   0  0  0  0  0  0
  -30.8700  -16.4432   22.1016 C   0  0  0  0  0  0
  -30.4292  -22.0790   20.4559 C   0  0  0  0  0  0
  -30.1781  -15.3146   21.4716 N   0  0  0  0  0  0
  -29.4327  -22.5413   19.4520 N   0  3  2  0  0  0
  -31.4610  -12.4113   19.0933 H   0  0  0  0  0  0
  -30.3224  -11.2913   19.7839 H   0  0  0  0  0  0
  -29.7225  -11.7947   17.4063 H   0  0  0  0  0  0
  -29.6527  -13.5029   17.7568 H   0  0  0  0  0  0
  -27.8207  -11.3136   18.7981 H   0  0  0  0  0  0
  -27.3558  -12.6456   17.7799 H   0  0  0  0  0  0
  -27.7108  -14.2536   19.5844 H   0  0  0  0  0  0
  -28.6756  -11.9282   21.3085 H   0  0  0  0  0  0
  -28.4547  -13.5453   21.8771 H   0  0  0  0  0  0
  -25.2742   -9.5689   22.4740 H   0  0  0  0  0  0
  -24.0006   -7.4629   22.7439 H   0  0  0  0  0  0
  -21.0842   -8.8745   19.8951 H   0  0  0  0  0  0
  -22.3668  -10.9651   19.6157 H   0  0  0  0  0  0
  -21.2014   -7.6141   23.9716 H   0  0  0  0  0  0
  -21.1481   -6.0511   25.9073 H   0  0  0  0  0  0
  -22.0605   -2.7610   23.2836 H   0  0  0  0  0  0
  -22.4129  -11.9928   22.4810 H   0  0  0  0  0  0
  -21.1106  -13.1256   22.2565 H   0  0  0  0  0  0
  -24.6718  -15.8459   20.5213 H   0  0  0  0  0  0
  -26.2963  -15.6264   20.1089 H   0  0  0  0  0  0
  -26.7139  -32.5485   23.1131 H   0  0  0  0  0  0
  -25.0072  -33.9723   25.0450 H   0  0  0  0  0  0
  -22.6943  -31.3141   21.4167 H   0  0  0  0  0  0
  -23.3729  -35.9658   23.3297 H   0  0  0  0  0  0
  -24.3587  -36.8929   22.2052 H   0  0  0  0  0  0
  -23.7251  -37.6527   23.6652 H   0  0  0  0  0  0
  -26.0580  -31.5904   20.5958 H   0  0  0  0  0  0
  -26.8185  -30.8694   21.9869 H   0  0  0  0  0  0
  -28.1007  -29.0820   21.1378 H   0  0  0  0  0  0
  -25.9520  -25.9537   19.0411 H   0  0  0  0  0  0
  -23.9432  -27.2971   19.0649 H   0  0  0  0  0  0
  -23.7220  -30.6091   19.4057 H   0  0  0  0  0  0
  -22.7279  -29.2608   19.8644 H   0  0  0  0  0  0
  -25.1283  -36.1945   25.0823 H   0  0  0  0  0  0
  -20.9970  -28.3259   24.1409 H   0  0  0  0  0  0
  -20.5649  -26.2292   23.3621 H   0  0  0  0  0  0
  -21.6633  -26.7430   22.1230 H   0  0  0  0  0  0
  -19.6917  -25.6311   21.1218 H   0  0  0  0  0  0
  -19.6689  -27.3212   20.6754 H   0  0  0  0  0  0
  -17.4197  -26.6670   21.4011 H   0  0  0  0  0  0
  -18.0327  -26.0074   22.9012 H   0  0  0  0  0  0
  -19.7937  -30.7270   24.2245 H   0  0  0  0  0  0
  -17.5019  -31.6252   24.5201 H   0  0  0  0  0  0
  -15.5354  -30.2998   23.7650 H   0  0  0  0  0  0
  -15.8662  -28.0859   22.7000 H   0  0  0  0  0  0
  -24.5931  -30.7022   25.7832 H   0  0  0  0  0  0
  -24.8957  -32.2867   26.4895 H   0  0  0  0  0  0
  -25.8129  -30.8896   27.0233 H   0  0  0  0  0  0
  -26.2851  -29.6769   24.1141 H   0  0  0  0  0  0
  -27.4041  -29.7218   25.4565 H   0  0  0  0  0  0
  -27.8697  -30.4292   23.9268 H   0  0  0  0  0  0
  -27.2642  -33.3571   26.2076 H   0  0  0  0  0  0
  -28.3856  -32.6854   25.0321 H   0  0  0  0  0  0
  -28.0702  -31.8402   26.5401 H   0  0  0  0  0  0
  -28.2593  -38.0098   24.7488 H   0  0  0  0  0  0
  -28.1048  -36.2631   24.6296 H   0  0  0  0  0  0
  -27.2292  -37.1475   25.8868 H   0  0  0  0  0  0
  -20.9290  -29.8802   21.6947 H   0  0  0  0  0  0
  -26.0159  -38.2853   24.1418 H   0  0  0  0  0  0
  -31.3354  -17.5514   19.6803 H   0  0  0  0  0  0
  -31.1639  -19.9015   18.9976 H   0  0  0  0  0  0
  -30.4789  -22.1997   16.9625 H   0  0  0  0  0  0
  -30.8237  -23.9727   16.6097 H   0  0  0  0  0  0
  -30.1889  -25.7049   18.2860 H   0  0  0  0  0  0
  -30.5821  -25.1117   19.8807 H   0  0  0  0  0  0
  -28.6405  -24.4091   21.4576 H   0  0  0  0  0  0
  -26.9931  -24.5212   20.9096 H   0  0  0  0  0  0
  -27.3683  -22.7888   19.1893 H   0  0  0  0  0  0
  -27.7807  -22.1486   20.7437 H   0  0  0  0  0  0
  -27.8452  -25.2817   18.6211 H   0  0  0  0  0  0
  -28.9600  -17.2846   23.8050 H   0  0  0  0  0  0
  -28.2983  -18.8617   24.0153 H   0  0  0  0  0  0
  -29.9160  -18.5079   24.6513 H   0  0  0  0  0  0
  -28.4891  -21.7743   22.8002 H   0  0  0  0  0  0
  -30.1630  -21.9651   23.3259 H   0  0  0  0  0  0
  -29.1338  -20.8445   24.1345 H   0  0  0  0  0  0
  -30.7801  -16.3363   23.1810 H   0  0  0  0  0  0
  -31.9453  -16.3581   21.9362 H   0  0  0  0  0  0
  -31.4210  -22.1773   20.0119 H   0  0  0  0  0  0
  -30.4561  -22.7614   21.3032 H   0  0  0  0  0  0
  -29.2620  -15.0880   21.8286 H   0  0  0  0  0  0
  -29.2710  -21.7045   18.9099 H   0  0  0  0  0  0
  1 25  1  0  0  0
  1 30  2  0  0  0
  1 87  1  0  0  0
  2  3  1  0  0  0
  2 25  1  0  0  0
  2 89  1  0  0  0
  2 90  1  0  0  0
  3  4  1  0  0  0
  3 91  1  0  0  0
  3 92  1  0  0  0
  4  5  1  0  0  0
  4 93  1  0  0  0
  4 94  1  0  0  0
  5  6  1  0  0  0
  5 26  1  0  0  0
  5 95  1  0  0  0
  6 25  1  0  0  0
  6 96  1  0  0  0
  6 97  1  0  0  0
  7  8  2  0  0  0
  7 26  1  0  0  0
  7 29  1  0  0  0
  8  9  1  0  0  0
  8 22  1  0  0  0
  9 10  1  0  0  0
  9 27  2  0  0  0
 10 11  2  0  0  0
 10 15  1  0  0  0
 11 12  1  0  0  0
 11 98  1  0  0  0
 12 13  2  0  0  0
 12 99  1  0  0  0
 13 14  1  0  0  0
 13 31  1  0  0  0
 14 15  2  0  0  0
 14100  1  0  0  0
 15101  1  0  0  0
 16 17  2  0  0  0
 16 21  1  0  0  0
 16 31  1  0  0  0
 17 18  1  0  0  0
 17102  1  0  0  0
 18 19  2  0  0  0
 18103  1  0  0  0
 19 20  1  0  0  0
 19 24  1  0  0  0
 20 21  2  0  0  0
 20104  1  0  0  0
 21 23  1  0  0  0
 22 28  1  0  0  0
 22 32  2  0  0  0
 26 27  1  0  0  0
 28105  1  0  0  0
 28106  1  0  0  0
 29107  1  0  0  0
 29108  1  0  0  0
 33 34  1  0  0  0
 33 66  1  0  0  0
 33 70  2  0  0  0
 34 36  1  0  0  0
 34 59  1  0  0  0
 34109  1  0  0  0
 35 44  2  0  0  0
 35 45  1  0  0  0
 35 68  1  0  0  0
 36 56  1  0  0  0
 36110  1  0  0  0
 37 39  1  0  0  0
 37 47  1  0  0  0
 37 66  1  0  0  0
 37111  1  0  0  0
 38 43  2  0  0  0
 38 46  1  0  0  0
 38 47  1  0  0  0
 39 64  1  0  0  0
 39 67  2  0  0  0
 40 52  1  0  0  0
 40 53  2  0  0  0
 40 58  1  0  0  0
 41112  1  0  0  0
 41113  1  0  0  0
 41114  1  0  0  0
 41 48  1  0  0  0
 42 43  1  0  0  0
 42 66  1  0  0  0
 42115  1  0  0  0
 42116  1  0  0  0
 43 44  1  0  0  0
 44117  1  0  0  0
 45 46  2  0  0  0
 45118  1  0  0  0
 46119  1  0  0  0
 47120  1  0  0  0
 47121  1  0  0  0
 48 56  1  0  0  0
 48 65  1  0  0  0
 48122  1  0  0  0
 49 50  1  0  0  0
 49 53  1  0  0  0
 49 64  1  0  0  0
 49123  1  0  0  0
 50 51  1  0  0  0
 50124  1  0  0  0
 50125  1  0  0  0
 51 52  1  0  0  0
 51126  1  0  0  0
 51127  1  0  0  0
 52128  1  0  0  0
 52129  1  0  0  0
 53 54  1  0  0  0
 54 55  2  0  0  0
 54130  1  0  0  0
 55 57  1  0  0  0
 55131  1  0  0  0
 56 69  2  0  0  0
 57 58  2  0  0  0
 57132  1  0  0  0
 58133  1  0  0  0
 59 60  1  0  0  0
 59 61  1  0  0  0
 59 62  1  0  0  0
 60134  1  0  0  0
 60135  1  0  0  0
 60136  1  0  0  0
 61137  1  0  0  0
 61138  1  0  0  0
 61139  1  0  0  0
 62140  1  0  0  0
 62141  1  0  0  0
 62142  1  0  0  0
 63 65  1  0  0  0
 63143  1  0  0  0
 63144  1  0  0  0
 63145  1  0  0  0
 64146  1  0  0  0
 65147  1  0  0  0
 68 82  1  0  0  0
 71 72  2  0  0  0
 71 73  1  0  0  0
 71148  1  0  0  0
 72 74  1  0  0  0
 72149  1  0  0  0
 73 75  2  0  0  0
 73 85  1  0  0  0
 74 76  2  0  0  0
 74 86  1  0  0  0
 75 76  1  0  0  0
 75 83  1  0  0  0
 76 84  1  0  0  0
 77 78  2  0  0  0
 77 79  1  0  0  0
 77 88  1  0  0  0
 78150  1  0  0  0
 78151  1  0  0  0
 79 82  1  0  0  0
 79152  1  0  0  0
 79153  1  0  0  0
 80 81  1  0  0  0
 80 82  1  0  0  0
 80154  1  0  0  0
 80155  1  0  0  0
 81 88  1  0  0  0
 81156  1  0  0  0
 81157  1  0  0  0
 82158  1  0  0  0
 83159  1  0  0  0
 83160  1  0  0  0
 83161  1  0  0  0
 84162  1  0  0  0
 84163  1  0  0  0
 84164  1  0  0  0
 85 87  1  0  0  0
 85165  1  0  0  0
 85166  1  0  0  0
 86167  1  0  0  0
 86168  1  0  0  0
 86 88  1  0  0  0
 87169  1  0  0  0
 88170  1  0  0  0
M  CHG  1  88   1
M  ISO  4   1 100  68 101  82 101  87 100
M  END
> <chiral flag>
0

> <version>
0

> <s_m_source_file>
/data/baiqing/PycharmProjects/Reinvent-master-3.2/result/LINK_invent/BTK/process_docking_weight1_custom_product_contain_oxygen_bond_distance_aromatic_linkinvent_7_9_3/rearranged_h_0051.sdf

> <i_m_source_file_index>
68

> <r_mmod_Potential_Energy-OPLS-2005>
-217.130554199219

> <r_mmod_Stretch_Energy-OPLS-2005>
44.0962905883789

> <r_mmod_Bend_Energy-OPLS-2005>
116.847938537598

> <r_mmod_Torsional_Energy-OPLS-2005>
212.925552368164

> <r_mmod_Improper_Torsional_Energy-OPLS-2005>
3.02808809280396

> <r_mmod_Van_der_Waal_Energy-OPLS-2005>
165.973342895508

> <r_mmod_Electrostatic_Energy-OPLS-2005>
-342.053527832031

> <r_mmod_Solvation_Energy-OPLS-2005>
-428.791442871094

> <b_mmod_Minimization_Converged-OPLS-2005>
0

> <r_mmod_RMS_Derivative-OPLS-2005>
2.71829676628113

$$$$
68
                    3D
 Structure written by MMmdl.
156164  0  0  1  0            999 V2000
  -30.7693  -14.4427   20.5655 C   0  0  0  0  0  0
  -30.4045  -12.2797   19.4530 C   0  0  0  0  0  0
  -29.5033  -12.4842   18.2199 C   0  0  0  0  0  0
  -28.0193  -12.3648   18.6220 C   0  0  0  0  0  0
  -27.6635  -13.2228   19.8683 C   0  0  2  0  0  0
  -28.6998  -13.0443   21.0053 C   0  0  0  0  0  0
  -25.2574  -13.8209   20.5682 C   0  0  0  0  0  0
  -24.1847  -13.0473   20.9214 C   0  0  0  0  0  0
  -24.6419  -11.6945   20.8747 C   0  0  0  0  0  0
  -23.9110  -10.4308   21.0429 C   0  0  0  0  0  0
  -24.3666   -9.4201   21.9194 C   0  0  0  0  0  0
  -23.6328   -8.2232   22.0748 C   0  0  0  0  0  0
  -22.4290   -8.0293   21.3559 C   0  0  0  0  0  0
  -21.9941   -9.0283   20.4672 C   0  0  0  0  0  0
  -22.7289  -10.2146   20.3073 C   0  0  0  0  0  0
  -21.6845   -6.0750   22.5299 C   0  0  0  0  0  0
  -21.4007   -6.5647   23.8235 C   0  0  0  0  0  0
  -21.3644   -5.6789   24.9195 C   0  0  0  0  0  0
  -21.6016   -4.3048   24.7241 C   0  0  0  0  0  0
  -21.8807   -3.8151   23.4368 C   0  0  0  0  0  0
  -21.9183   -4.6972   22.3422 C   0  0  0  0  0  0
  -22.7862  -13.5275   21.1867 C   0  0  0  0  0  0
  -22.1664   -4.2172   21.0991 F   0  0  0  0  0  0
  -21.5640   -3.4524   25.7747 F   0  0  0  0  0  0
  -30.0411  -13.2987   20.4530 N   0  0  0  0  0  0
  -26.3038  -12.9432   20.3327 N   0  0  0  0  0  0
  -25.9342  -11.6574   20.5761 N   0  0  0  0  0  0
  -22.0477  -12.8294   22.0425 N   0  0  0  0  0  0
  -25.4287  -15.1919   20.4150 N   0  0  0  0  0  0
  -31.8718  -14.5613   20.0255 O   0  0  0  0  0  0
  -21.6636   -6.8899   21.4264 O   0  0  0  0  0  0
  -22.3558  -14.5558   20.6669 O   0  0  0  0  0  0
  -24.6213  -31.8688   23.2105 C   0  0  0  0  0  0
  -25.9093  -32.4834   23.8422 C   0  0  1  0  0  0
  -27.1939  -27.3848   20.1045 C   0  0  0  0  0  0
  -25.5939  -33.8623   24.2340 N   0  0  0  0  0  0
  -23.4062  -30.5005   21.5496 C   0  0  2  0  0  0
  -24.8475  -28.9790   20.1069 C   0  0  0  0  0  0
  -22.7443  -29.4676   22.4929 C   0  0  0  0  0  0
  -18.0287  -28.1383   22.8485 C   0  0  0  0  0  0
  -24.1487  -36.7297   23.2627 C   0  0  0  0  0  0
  -25.9438  -30.8242   21.3675 C   0  0  0  0  0  0
  -26.0155  -29.4580   20.7102 C   0  0  0  0  0  0
  -27.1970  -28.6690   20.7089 C   0  0  0  0  0  0
  -26.0053  -26.9539   19.4680 C   0  0  0  0  0  0
  -24.8383  -27.7279   19.4795 C   0  0  0  0  0  0
  -23.6152  -29.8490   20.1604 C   0  0  0  0  0  0
  -25.4115  -36.3089   24.0318 C   0  0  1  0  0  0
  -20.5880  -28.3676   23.1274 C   0  0  2  0  0  0
  -20.6777  -26.9408   22.5386 C   0  0  0  0  0  0
  -19.5762  -26.6386   21.5182 C   0  0  0  0  0  0
  -18.1933  -26.7932   22.1599 C   0  0  0  0  0  0
  -19.1538  -28.8842   23.2890 C   0  0  0  0  0  0
  -18.9478  -30.1427   23.8934 C   0  0  0  0  0  0
  -17.6488  -30.6594   24.0537 C   0  0  0  0  0  0
  -25.9053  -34.9474   23.5120 C   0  0  0  0  0  0
  -16.5370  -29.9098   23.6303 C   0  0  0  0  0  0
  -16.7276  -28.6492   23.0368 C   0  0  0  0  0  0
  -26.4515  -31.6613   25.0741 C   0  0  0  0  0  0
  -25.3790  -31.3726   26.1491 C   0  0  0  0  0  0
  -27.0304  -30.3051   24.6092 C   0  0  0  0  0  0
  -27.6093  -32.4323   25.7504 C   0  0  0  0  0  0
  -27.5583  -37.1792   24.8470 C   0  0  0  0  0  0
  -21.4166  -29.3042   22.3669 N   0  0  0  0  0  0
  -26.4288  -37.3794   23.9419 N   0  0  0  0  0  0
  -24.6763  -31.0784   22.1001 N   0  0  0  0  0  0
  -23.4205  -28.8174   23.2955 O   0  0  0  0  0  0
  -28.2972  -26.5386   20.1731 O   0  0  0  0  0  0
  -26.5596  -34.8931   22.4666 O   0  0  0  0  0  0
  -23.5381  -32.1415   23.7480 O   0  0  0  0  0  0
  -29.5570  -17.8520   20.8651 C   0  0  0  0  0  0
  -31.2347  -19.5473   20.3175 C   0  0  0  0  0  0
  -31.9211  -17.2748   20.8767 C   0  0  0  0  0  0
  -29.8872  -19.1967   20.5436 C   0  0  0  0  0  0
  -30.5678  -16.8650   20.9854 C   0  0  0  0  0  0
  -32.2478  -18.5968   20.5188 C   0  0  0  0  0  0
  -28.8569  -20.2396   20.4438 C   0  0  0  0  0  0
  -28.9590  -24.0610   20.6436 C   0  0  0  0  0  0
  -28.2459  -22.6852   20.8346 C   0  0  0  0  0  0
  -27.9421  -25.1261   20.1697 C   0  0  0  0  0  0
  -27.6403  -19.9331   19.9984 N   0  0  0  0  0  0
  -30.1978  -15.4896   21.1944 N   0  0  0  0  0  0
  -29.1445  -21.5076   20.8109 N   0  3  0  0  0  0
  -33.5431  -18.9567   20.3613 F   0  0  0  0  0  0
  -31.4598  -12.3110   19.1755 H   0  0  0  0  0  0
  -30.2616  -11.2858   19.8751 H   0  0  0  0  0  0
  -29.7454  -11.7435   17.4556 H   0  0  0  0  0  0
  -29.6923  -13.4621   17.7741 H   0  0  0  0  0  0
  -27.8172  -11.3167   18.8342 H   0  0  0  0  0  0
  -27.3785  -12.6299   17.7806 H   0  0  0  0  0  0
  -27.7023  -14.2645   19.5428 H   0  0  0  0  0  0
  -28.6599  -12.0340   21.4133 H   0  0  0  0  0  0
  -28.4660  -13.7046   21.8406 H   0  0  0  0  0  0
  -25.2821   -9.5668   22.4766 H   0  0  0  0  0  0
  -24.0044   -7.4606   22.7437 H   0  0  0  0  0  0
  -21.0866   -8.8835   19.8989 H   0  0  0  0  0  0
  -22.3785  -10.9691   19.6168 H   0  0  0  0  0  0
  -21.2007   -7.6144   23.9769 H   0  0  0  0  0  0
  -21.1471   -6.0509   25.9106 H   0  0  0  0  0  0
  -22.0600   -2.7631   23.2852 H   0  0  0  0  0  0
  -22.4088  -11.9983   22.4881 H   0  0  0  0  0  0
  -21.1082  -13.1338   22.2568 H   0  0  0  0  0  0
  -24.6725  -15.8539   20.5476 H   0  0  0  0  0  0
  -26.2901  -15.6303   20.1176 H   0  0  0  0  0  0
  -26.7145  -32.5535   23.1169 H   0  0  0  0  0  0
  -25.0117  -33.9802   25.0497 H   0  0  0  0  0  0
  -22.6920  -31.3162   21.4181 H   0  0  0  0  0  0
  -23.3754  -35.9631   23.3304 H   0  0  0  0  0  0
  -24.3582  -36.8920   22.2048 H   0  0  0  0  0  0
  -23.7253  -37.6502   23.6650 H   0  0  0  0  0  0
  -26.0593  -31.5908   20.5994 H   0  0  0  0  0  0
  -26.8309  -30.8764   21.9861 H   0  0  0  0  0  0
  -28.0893  -29.0230   21.2067 H   0  0  0  0  0  0
  -25.9248  -26.0024   18.9652 H   0  0  0  0  0  0
  -23.9417  -27.3530   19.0065 H   0  0  0  0  0  0
  -23.7296  -30.6289   19.4073 H   0  0  0  0  0  0
  -22.7398  -29.2765   19.8552 H   0  0  0  0  0  0
  -25.1288  -36.1942   25.0807 H   0  0  0  0  0  0
  -20.9987  -28.3267   24.1397 H   0  0  0  0  0  0
  -20.5661  -26.2299   23.3586 H   0  0  0  0  0  0
  -21.6657  -26.7437   22.1199 H   0  0  0  0  0  0
  -19.6926  -25.6294   21.1223 H   0  0  0  0  0  0
  -19.6718  -27.3183   20.6706 H   0  0  0  0  0  0
  -17.4195  -26.6653   21.4006 H   0  0  0  0  0  0
  -18.0374  -26.0084   22.9023 H   0  0  0  0  0  0
  -19.7951  -30.7192   24.2376 H   0  0  0  0  0  0
  -17.5051  -31.6297   24.5117 H   0  0  0  0  0  0
  -15.5372  -30.3026   23.7609 H   0  0  0  0  0  0
  -15.8662  -28.0796   22.7139 H   0  0  0  0  0  0
  -24.5952  -30.7081   25.7844 H   0  0  0  0  0  0
  -24.8982  -32.2882   26.4959 H   0  0  0  0  0  0
  -25.8155  -30.8890   27.0240 H   0  0  0  0  0  0
  -26.2792  -29.6855   24.1165 H   0  0  0  0  0  0
  -27.4108  -29.7271   25.4531 H   0  0  0  0  0  0
  -27.8651  -30.4399   23.9198 H   0  0  0  0  0  0
  -27.2732  -33.3644   26.2081 H   0  0  0  0  0  0
  -28.3908  -32.6862   25.0322 H   0  0  0  0  0  0
  -28.0753  -31.8440   26.5431 H   0  0  0  0  0  0
  -28.2575  -38.0100   24.7508 H   0  0  0  0  0  0
  -28.1076  -36.2629   24.6279 H   0  0  0  0  0  0
  -27.2288  -37.1442   25.8862 H   0  0  0  0  0  0
  -20.9318  -29.8824   21.6941 H   0  0  0  0  0  0
  -26.0162  -38.2849   24.1472 H   0  0  0  0  0  0
  -28.5202  -17.5738   20.9946 H   0  0  0  0  0  0
  -31.5167  -20.5454   20.0060 H   0  0  0  0  0  0
  -32.7410  -16.5831   21.0195 H   0  0  0  0  0  0
  -29.7854  -23.9867   19.9377 H   0  0  0  0  0  0
  -29.3846  -24.3663   21.5986 H   0  0  0  0  0  0
  -27.4919  -22.5605   20.0574 H   0  0  0  0  0  0
  -27.7023  -22.6813   21.7815 H   0  0  0  0  0  0
  -27.0613  -24.9846   20.8002 H   0  0  0  0  0  0
  -27.6667  -24.8387   19.1535 H   0  0  0  0  0  0
  -27.4637  -19.0021   19.6480 H   0  0  0  0  0  0
  -26.8658  -20.5787   20.0435 H   0  0  0  0  0  0
  -29.2911  -15.3153   21.6029 H   0  0  0  0  0  0
  -30.0384  -21.6234   21.2726 H   0  0  0  0  0  0
  1 25  1  0  0  0
  1 30  2  0  0  0
  1 82  1  0  0  0
  2  3  1  0  0  0
  2 25  1  0  0  0
  2 85  1  0  0  0
  2 86  1  0  0  0
  3  4  1  0  0  0
  3 87  1  0  0  0
  3 88  1  0  0  0
  4  5  1  0  0  0
  4 89  1  0  0  0
  4 90  1  0  0  0
  5  6  1  0  0  0
  5 26  1  0  0  0
  5 91  1  0  0  0
  6 25  1  0  0  0
  6 92  1  0  0  0
  6 93  1  0  0  0
  7  8  2  0  0  0
  7 26  1  0  0  0
  7 29  1  0  0  0
  8  9  1  0  0  0
  8 22  1  0  0  0
  9 10  1  0  0  0
  9 27  2  0  0  0
 10 11  2  0  0  0
 10 15  1  0  0  0
 11 12  1  0  0  0
 11 94  1  0  0  0
 12 13  2  0  0  0
 12 95  1  0  0  0
 13 14  1  0  0  0
 13 31  1  0  0  0
 14 15  2  0  0  0
 14 96  1  0  0  0
 15 97  1  0  0  0
 16 17  2  0  0  0
 16 21  1  0  0  0
 16 31  1  0  0  0
 17 18  1  0  0  0
 17 98  1  0  0  0
 18 19  2  0  0  0
 18 99  1  0  0  0
 19 20  1  0  0  0
 19 24  1  0  0  0
 20 21  2  0  0  0
 20100  1  0  0  0
 21 23  1  0  0  0
 22 28  1  0  0  0
 22 32  2  0  0  0
 26 27  1  0  0  0
 28101  1  0  0  0
 28102  1  0  0  0
 29103  1  0  0  0
 29104  1  0  0  0
 33 34  1  0  0  0
 33 66  1  0  0  0
 33 70  2  0  0  0
 34 36  1  0  0  0
 34 59  1  0  0  0
 34105  1  0  0  0
 35 44  2  0  0  0
 35 45  1  0  0  0
 35 68  1  0  0  0
 36 56  1  0  0  0
 36106  1  0  0  0
 37 39  1  0  0  0
 37 47  1  0  0  0
 37 66  1  0  0  0
 37107  1  0  0  0
 38 43  2  0  0  0
 38 46  1  0  0  0
 38 47  1  0  0  0
 39 64  1  0  0  0
 39 67  2  0  0  0
 40 52  1  0  0  0
 40 53  2  0  0  0
 40 58  1  0  0  0
 41108  1  0  0  0
 41109  1  0  0  0
 41110  1  0  0  0
 41 48  1  0  0  0
 42 43  1  0  0  0
 42 66  1  0  0  0
 42111  1  0  0  0
 42112  1  0  0  0
 43 44  1  0  0  0
 44113  1  0  0  0
 45 46  2  0  0  0
 45114  1  0  0  0
 46115  1  0  0  0
 47116  1  0  0  0
 47117  1  0  0  0
 48 56  1  0  0  0
 48 65  1  0  0  0
 48118  1  0  0  0
 49 50  1  0  0  0
 49 53  1  0  0  0
 49 64  1  0  0  0
 49119  1  0  0  0
 50 51  1  0  0  0
 50120  1  0  0  0
 50121  1  0  0  0
 51 52  1  0  0  0
 51122  1  0  0  0
 51123  1  0  0  0
 52124  1  0  0  0
 52125  1  0  0  0
 53 54  1  0  0  0
 54 55  2  0  0  0
 54126  1  0  0  0
 55 57  1  0  0  0
 55127  1  0  0  0
 56 69  2  0  0  0
 57 58  2  0  0  0
 57128  1  0  0  0
 58129  1  0  0  0
 59 60  1  0  0  0
 59 61  1  0  0  0
 59 62  1  0  0  0
 60130  1  0  0  0
 60131  1  0  0  0
 60132  1  0  0  0
 61133  1  0  0  0
 61134  1  0  0  0
 61135  1  0  0  0
 62136  1  0  0  0
 62137  1  0  0  0
 62138  1  0  0  0
 63 65  1  0  0  0
 63139  1  0  0  0
 63140  1  0  0  0
 63141  1  0  0  0
 64142  1  0  0  0
 65143  1  0  0  0
 68 80  1  0  0  0
 71 74  2  0  0  0
 71 75  1  0  0  0
 71144  1  0  0  0
 72 74  1  0  0  0
 72 76  2  0  0  0
 72145  1  0  0  0
 73 75  2  0  0  0
 73 76  1  0  0  0
 73146  1  0  0  0
 74 77  1  0  0  0
 75 82  1  0  0  0
 76 84  1  0  0  0
 77 81  1  0  0  0
 77 83  2  0  0  0
 78 79  1  0  0  0
 78 80  1  0  0  0
 78147  1  0  0  0
 78148  1  0  0  0
 79 83  1  0  0  0
 79149  1  0  0  0
 79150  1  0  0  0
 80151  1  0  0  0
 80152  1  0  0  0
 81153  1  0  0  0
 81154  1  0  0  0
 82155  1  0  0  0
 83156  1  0  0  0
M  CHG  1  83   1
M  ISO  4   1 100  68 101  80 101  82 100
M  END
> <chiral flag>
0

> <version>
0

> <s_m_source_file>
/data/baiqing/PycharmProjects/Reinvent-master-3.2/result/LINK_invent/BTK/process_docking_weight1_custom_product_contain_oxygen_bond_distance_aromatic_linkinvent_7_9_3/rearranged_h_0051.sdf

> <i_m_source_file_index>
69

> <r_mmod_Potential_Energy-OPLS-2005>
-282.729675292969

> <r_mmod_Stretch_Energy-OPLS-2005>
43.1133422851562

> <r_mmod_Bend_Energy-OPLS-2005>
103.395599365234

> <r_mmod_Torsional_Energy-OPLS-2005>
219.986892700195

> <r_mmod_Improper_Torsional_Energy-OPLS-2005>
3.82015681266785

> <r_mmod_Van_der_Waal_Energy-OPLS-2005>
175.802505493164

> <r_mmod_Electrostatic_Energy-OPLS-2005>
-413.284027099609

> <r_mmod_Solvation_Energy-OPLS-2005>
-440.430358886719

> <b_mmod_Minimization_Converged-OPLS-2005>
0

> <r_mmod_RMS_Derivative-OPLS-2005>
5.68353509902954

$$$$
69
                    3D
 Structure written by MMmdl.
163171  0  0  1  0            999 V2000
  -30.7805  -14.3631   20.6850 C   0  0  0  0  0  0
  -30.4111  -12.2914   19.3989 C   0  0  0  0  0  0
  -29.4785  -12.5271   18.1968 C   0  0  0  0  0  0
  -28.0045  -12.3841   18.6153 C   0  0  0  0  0  0
  -27.6648  -13.2071   19.8844 C   0  0  2  0  0  0
  -28.7037  -12.9606   21.0010 C   0  0  0  0  0  0
  -25.2595  -13.8175   20.5703 C   0  0  0  0  0  0
  -24.1840  -13.0454   20.9173 C   0  0  0  0  0  0
  -24.6396  -11.6915   20.8752 C   0  0  0  0  0  0
  -23.9065  -10.4305   21.0414 C   0  0  0  0  0  0
  -24.3616   -9.4220   21.9190 C   0  0  0  0  0  0
  -23.6294   -8.2251   22.0760 C   0  0  0  0  0  0
  -22.4278   -8.0292   21.3543 C   0  0  0  0  0  0
  -21.9913   -9.0268   20.4650 C   0  0  0  0  0  0
  -22.7242  -10.2150   20.3064 C   0  0  0  0  0  0
  -21.6852   -6.0745   22.5279 C   0  0  0  0  0  0
  -21.4014   -6.5646   23.8210 C   0  0  0  0  0  0
  -21.3661   -5.6799   24.9172 C   0  0  0  0  0  0
  -21.6047   -4.3065   24.7222 C   0  0  0  0  0  0
  -21.8820   -3.8153   23.4341 C   0  0  0  0  0  0
  -21.9193   -4.6968   22.3398 C   0  0  0  0  0  0
  -22.7861  -13.5247   21.1844 C   0  0  0  0  0  0
  -22.1663   -4.2157   21.0974 F   0  0  0  0  0  0
  -21.5632   -3.4543   25.7732 F   0  0  0  0  0  0
  -30.0468  -13.2422   20.4604 N   0  0  0  0  0  0
  -26.3041  -12.9351   20.3424 N   0  0  0  0  0  0
  -25.9327  -11.6509   20.5798 N   0  0  0  0  0  0
  -22.0512  -12.8234   22.0397 N   0  0  0  0  0  0
  -25.4335  -15.1889   20.4093 N   0  0  0  0  0  0
  -31.8001  -14.6370   20.0462 O   0  0  0  0  0  0
  -21.6646   -6.8889   21.4243 O   0  0  0  0  0  0
  -22.3542  -14.5557   20.6702 O   0  0  0  0  0  0
  -24.6108  -31.8702   23.2130 C   0  0  0  0  0  0
  -25.8994  -32.4847   23.8436 C   0  0  1  0  0  0
  -27.2296  -27.4550   20.0928 C   0  0  0  0  0  0
  -25.5830  -33.8640   24.2350 N   0  0  0  0  0  0
  -23.3994  -30.4956   21.5525 C   0  0  2  0  0  0
  -24.8450  -28.9613   20.1212 C   0  0  0  0  0  0
  -22.7401  -29.4665   22.4988 C   0  0  0  0  0  0
  -18.0283  -28.1367   22.8506 C   0  0  0  0  0  0
  -24.1482  -36.7360   23.2647 C   0  0  0  0  0  0
  -25.9259  -30.8428   21.3625 C   0  0  0  0  0  0
  -26.0054  -29.4777   20.7120 C   0  0  0  0  0  0
  -27.2047  -28.7324   20.6916 C   0  0  0  0  0  0
  -26.0557  -26.9502   19.4929 C   0  0  0  0  0  0
  -24.8617  -27.6947   19.5136 C   0  0  0  0  0  0
  -23.6090  -29.8301   20.1679 C   0  0  0  0  0  0
  -25.4092  -36.3135   24.0348 C   0  0  1  0  0  0
  -20.5870  -28.3660   23.1317 C   0  0  2  0  0  0
  -20.6756  -26.9391   22.5417 C   0  0  0  0  0  0
  -19.5731  -26.6384   21.5213 C   0  0  0  0  0  0
  -18.1920  -26.7915   22.1640 C   0  0  0  0  0  0
  -19.1529  -28.8827   23.2918 C   0  0  0  0  0  0
  -18.9451  -30.1430   23.8941 C   0  0  0  0  0  0
  -17.6454  -30.6575   24.0579 C   0  0  0  0  0  0
  -25.9006  -34.9492   23.5158 C   0  0  0  0  0  0
  -16.5343  -29.9082   23.6320 C   0  0  0  0  0  0
  -16.7271  -28.6496   23.0354 C   0  0  0  0  0  0
  -26.4434  -31.6615   25.0756 C   0  0  0  0  0  0
  -25.3707  -31.3671   26.1515 C   0  0  0  0  0  0
  -27.0265  -30.3070   24.6101 C   0  0  0  0  0  0
  -27.6035  -32.4312   25.7497 C   0  0  0  0  0  0
  -27.5581  -37.1823   24.8460 C   0  0  0  0  0  0
  -21.4133  -29.3029   22.3725 N   0  0  0  0  0  0
  -26.4295  -37.3801   23.9400 N   0  0  0  0  0  0
  -24.6643  -31.0827   22.1023 N   0  0  0  0  0  0
  -23.4183  -28.8197   23.3012 O   0  0  0  0  0  0
  -28.3913  -26.7231   20.0785 O   0  0  0  0  0  0
  -26.5614  -34.8943   22.4746 O   0  0  0  0  0  0
  -23.5296  -32.1440   23.7522 O   0  0  0  0  0  0
  -31.7399  -19.0760   19.7259 C   0  0  0  0  0  0
  -31.7982  -17.8775   20.4468 C   0  0  0  0  0  0
  -30.7535  -20.0205   20.0337 C   0  0  0  0  0  0
  -30.8625  -17.5917   21.4637 C   0  0  0  0  0  0
  -29.7911  -19.7700   21.0420 C   0  0  0  0  0  0
  -29.8106  -18.5215   21.7486 C   0  0  0  0  0  0
  -29.4673  -23.2244   21.0984 C   0  0  0  0  0  0
  -28.1752  -22.0861   19.3053 C   0  0  0  0  0  0
  -31.0908  -16.2887   22.2329 C   0  0  0  0  0  0
  -28.7616  -20.8639   21.3795 C   0  0  0  0  0  0
  -29.4499  -24.5362   20.2955 C   0  0  0  0  0  0
  -28.2992  -25.4555   20.7356 C   0  0  0  0  0  0
  -28.7309  -18.2268   22.8149 C   0  0  0  0  0  0
  -30.3655  -15.1363   21.6959 N   0  0  0  0  0  0
  -28.8525  -22.1188   20.6074 N   0  0  0  0  0  0
  -30.0473  -23.2243   22.1885 O   0  0  0  0  0  0
  -28.6554  -16.9580   23.2114 F   0  0  0  0  0  0
  -28.9650  -18.9755   23.8923 F   0  0  0  0  0  0
  -27.5126  -18.5107   22.3588 F   0  0  0  0  0  0
  -31.4539  -12.3885   19.0889 H   0  0  0  0  0  0
  -30.3099  -11.2694   19.7678 H   0  0  0  0  0  0
  -29.7083  -11.8263   17.3934 H   0  0  0  0  0  0
  -29.6494  -13.5263   17.7914 H   0  0  0  0  0  0
  -27.8085  -11.3268   18.7945 H   0  0  0  0  0  0
  -27.3511  -12.6791   17.7936 H   0  0  0  0  0  0
  -27.7223  -14.2600   19.6090 H   0  0  0  0  0  0
  -28.6639  -11.9237   21.3379 H   0  0  0  0  0  0
  -28.4522  -13.5570   21.8783 H   0  0  0  0  0  0
  -25.2758   -9.5696   22.4767 H   0  0  0  0  0  0
  -24.0006   -7.4646   22.7476 H   0  0  0  0  0  0
  -21.0845   -8.8791   19.8949 H   0  0  0  0  0  0
  -22.3702  -10.9692   19.6177 H   0  0  0  0  0  0
  -21.2012   -7.6158   23.9715 H   0  0  0  0  0  0
  -21.1484   -6.0530   25.9076 H   0  0  0  0  0  0
  -22.0602   -2.7616   23.2838 H   0  0  0  0  0  0
  -22.4136  -11.9881   22.4758 H   0  0  0  0  0  0
  -21.1131  -13.1253   22.2631 H   0  0  0  0  0  0
  -24.6751  -15.8513   20.5271 H   0  0  0  0  0  0
  -26.3006  -15.6257   20.1238 H   0  0  0  0  0  0
  -26.7064  -32.5579   23.1205 H   0  0  0  0  0  0
  -24.9854  -33.9791   25.0410 H   0  0  0  0  0  0
  -22.6870  -31.3118   21.4140 H   0  0  0  0  0  0
  -23.3731  -35.9703   23.3298 H   0  0  0  0  0  0
  -24.3581  -36.9005   22.2062 H   0  0  0  0  0  0
  -23.7256  -37.6566   23.6687 H   0  0  0  0  0  0
  -26.0278  -31.6065   20.5892 H   0  0  0  0  0  0
  -26.8153  -30.9006   21.9776 H   0  0  0  0  0  0
  -28.1046  -29.1268   21.1444 H   0  0  0  0  0  0
  -26.0615  -25.9874   19.0022 H   0  0  0  0  0  0
  -23.9653  -27.2948   19.0602 H   0  0  0  0  0  0
  -23.7240  -30.6077   19.4112 H   0  0  0  0  0  0
  -22.7315  -29.2547   19.8699 H   0  0  0  0  0  0
  -25.1259  -36.2021   25.0843 H   0  0  0  0  0  0
  -20.9970  -28.3236   24.1433 H   0  0  0  0  0  0
  -20.5648  -26.2263   23.3611 H   0  0  0  0  0  0
  -21.6623  -26.7417   22.1210 H   0  0  0  0  0  0
  -19.6885  -25.6305   21.1219 H   0  0  0  0  0  0
  -19.6666  -27.3215   20.6764 H   0  0  0  0  0  0
  -17.4181  -26.6693   21.4052 H   0  0  0  0  0  0
  -18.0312  -26.0041   22.9017 H   0  0  0  0  0  0
  -19.7930  -30.7230   24.2329 H   0  0  0  0  0  0
  -17.5015  -31.6257   24.5172 H   0  0  0  0  0  0
  -15.5342  -30.2999   23.7597 H   0  0  0  0  0  0
  -15.8687  -28.0818   22.7041 H   0  0  0  0  0  0
  -24.5880  -30.7033   25.7841 H   0  0  0  0  0  0
  -24.8879  -32.2789   26.5036 H   0  0  0  0  0  0
  -25.8059  -30.8789   27.0242 H   0  0  0  0  0  0
  -26.2801  -29.6818   24.1191 H   0  0  0  0  0  0
  -27.4091  -29.7316   25.4541 H   0  0  0  0  0  0
  -27.8610  -30.4418   23.9216 H   0  0  0  0  0  0
  -27.2708  -33.3619   26.2098 H   0  0  0  0  0  0
  -28.3817  -32.6848   25.0290 H   0  0  0  0  0  0
  -28.0732  -31.8419   26.5377 H   0  0  0  0  0  0
  -28.2583  -38.0136   24.7503 H   0  0  0  0  0  0
  -28.1090  -36.2659   24.6275 H   0  0  0  0  0  0
  -27.2303  -37.1465   25.8868 H   0  0  0  0  0  0
  -20.9283  -29.8789   21.6988 H   0  0  0  0  0  0
  -26.0203  -38.2889   24.1397 H   0  0  0  0  0  0
  -32.4677  -19.2829   18.9527 H   0  0  0  0  0  0
  -32.5865  -17.1721   20.2230 H   0  0  0  0  0  0
  -30.7628  -20.9470   19.4784 H   0  0  0  0  0  0
  -27.3277  -22.7724   19.2931 H   0  0  0  0  0  0
  -27.7897  -21.0939   19.0672 H   0  0  0  0  0  0
  -28.8548  -22.3535   18.4947 H   0  0  0  0  0  0
  -30.8744  -16.4127   23.2936 H   0  0  0  0  0  0
  -32.1589  -16.0620   22.2253 H   0  0  0  0  0  0
  -28.8188  -21.0726   22.4492 H   0  0  0  0  0  0
  -27.7565  -20.4788   21.2180 H   0  0  0  0  0  0
  -29.4097  -24.3617   19.2219 H   0  0  0  0  0  0
  -30.3985  -25.0435   20.4680 H   0  0  0  0  0  0
  -28.3436  -25.6248   21.8127 H   0  0  0  0  0  0
  -27.3528  -24.9493   20.5435 H   0  0  0  0  0  0
  -29.5340  -14.8476   22.1889 H   0  0  0  0  0  0
  1 25  1  0  0  0
  1 30  2  0  0  0
  1 84  1  0  0  0
  2  3  1  0  0  0
  2 25  1  0  0  0
  2 90  1  0  0  0
  2 91  1  0  0  0
  3  4  1  0  0  0
  3 92  1  0  0  0
  3 93  1  0  0  0
  4  5  1  0  0  0
  4 94  1  0  0  0
  4 95  1  0  0  0
  5  6  1  0  0  0
  5 26  1  0  0  0
  5 96  1  0  0  0
  6 25  1  0  0  0
  6 97  1  0  0  0
  6 98  1  0  0  0
  7  8  2  0  0  0
  7 26  1  0  0  0
  7 29  1  0  0  0
  8  9  1  0  0  0
  8 22  1  0  0  0
  9 10  1  0  0  0
  9 27  2  0  0  0
 10 11  2  0  0  0
 10 15  1  0  0  0
 11 12  1  0  0  0
 11 99  1  0  0  0
 12 13  2  0  0  0
 12100  1  0  0  0
 13 14  1  0  0  0
 13 31  1  0  0  0
 14 15  2  0  0  0
 14101  1  0  0  0
 15102  1  0  0  0
 16 17  2  0  0  0
 16 21  1  0  0  0
 16 31  1  0  0  0
 17 18  1  0  0  0
 17103  1  0  0  0
 18 19  2  0  0  0
 18104  1  0  0  0
 19 20  1  0  0  0
 19 24  1  0  0  0
 20 21  2  0  0  0
 20105  1  0  0  0
 21 23  1  0  0  0
 22 28  1  0  0  0
 22 32  2  0  0  0
 26 27  1  0  0  0
 28106  1  0  0  0
 28107  1  0  0  0
 29108  1  0  0  0
 29109  1  0  0  0
 33 34  1  0  0  0
 33 66  1  0  0  0
 33 70  2  0  0  0
 34 36  1  0  0  0
 34 59  1  0  0  0
 34110  1  0  0  0
 35 44  2  0  0  0
 35 45  1  0  0  0
 35 68  1  0  0  0
 36 56  1  0  0  0
 36111  1  0  0  0
 37 39  1  0  0  0
 37 47  1  0  0  0
 37 66  1  0  0  0
 37112  1  0  0  0
 38 43  2  0  0  0
 38 46  1  0  0  0
 38 47  1  0  0  0
 39 64  1  0  0  0
 39 67  2  0  0  0
 40 52  1  0  0  0
 40 53  2  0  0  0
 40 58  1  0  0  0
 41113  1  0  0  0
 41114  1  0  0  0
 41115  1  0  0  0
 41 48  1  0  0  0
 42 43  1  0  0  0
 42 66  1  0  0  0
 42116  1  0  0  0
 42117  1  0  0  0
 43 44  1  0  0  0
 44118  1  0  0  0
 45 46  2  0  0  0
 45119  1  0  0  0
 46120  1  0  0  0
 47121  1  0  0  0
 47122  1  0  0  0
 48 56  1  0  0  0
 48 65  1  0  0  0
 48123  1  0  0  0
 49 50  1  0  0  0
 49 53  1  0  0  0
 49 64  1  0  0  0
 49124  1  0  0  0
 50 51  1  0  0  0
 50125  1  0  0  0
 50126  1  0  0  0
 51 52  1  0  0  0
 51127  1  0  0  0
 51128  1  0  0  0
 52129  1  0  0  0
 52130  1  0  0  0
 53 54  1  0  0  0
 54 55  2  0  0  0
 54131  1  0  0  0
 55 57  1  0  0  0
 55132  1  0  0  0
 56 69  2  0  0  0
 57 58  2  0  0  0
 57133  1  0  0  0
 58134  1  0  0  0
 59 60  1  0  0  0
 59 61  1  0  0  0
 59 62  1  0  0  0
 60135  1  0  0  0
 60136  1  0  0  0
 60137  1  0  0  0
 61138  1  0  0  0
 61139  1  0  0  0
 61140  1  0  0  0
 62141  1  0  0  0
 62142  1  0  0  0
 62143  1  0  0  0
 63 65  1  0  0  0
 63144  1  0  0  0
 63145  1  0  0  0
 63146  1  0  0  0
 64147  1  0  0  0
 65148  1  0  0  0
 68 82  1  0  0  0
 71 72  2  0  0  0
 71 73  1  0  0  0
 71149  1  0  0  0
 72 74  1  0  0  0
 72150  1  0  0  0
 73 75  2  0  0  0
 73151  1  0  0  0
 74 76  2  0  0  0
 74 79  1  0  0  0
 75 76  1  0  0  0
 75 80  1  0  0  0
 76 83  1  0  0  0
 77 81  1  0  0  0
 77 85  1  0  0  0
 77 86  2  0  0  0
 78 85  1  0  0  0
 78152  1  0  0  0
 78153  1  0  0  0
 78154  1  0  0  0
 79 84  1  0  0  0
 79155  1  0  0  0
 79156  1  0  0  0
 80 85  1  0  0  0
 80157  1  0  0  0
 80158  1  0  0  0
 81 82  1  0  0  0
 81159  1  0  0  0
 81160  1  0  0  0
 82161  1  0  0  0
 82162  1  0  0  0
 83 87  1  0  0  0
 83 88  1  0  0  0
 83 89  1  0  0  0
 84163  1  0  0  0
M  ISO  4   1 100  68 101  82 101  84 100
M  END
> <chiral flag>
0

> <version>
0

> <s_m_source_file>
/data/baiqing/PycharmProjects/Reinvent-master-3.2/result/LINK_invent/BTK/process_docking_weight1_custom_product_contain_oxygen_bond_distance_aromatic_linkinvent_7_9_3/rearranged_h_0051.sdf

> <i_m_source_file_index>
70

> <r_mmod_Potential_Energy-OPLS-2005>
-54.7219390869141

> <r_mmod_Stretch_Energy-OPLS-2005>
40.9239654541016

> <r_mmod_Bend_Energy-OPLS-2005>
96.908332824707

> <r_mmod_Torsional_Energy-OPLS-2005>
225.123519897461

> <r_mmod_Improper_Torsional_Energy-OPLS-2005>
2.03993010520935

> <r_mmod_Van_der_Waal_Energy-OPLS-2005>
176.721832275391

> <r_mmod_Electrostatic_Energy-OPLS-2005>
-390.382415771484

> <r_mmod_Solvation_Energy-OPLS-2005>
-213.372375488281

> <b_mmod_Minimization_Converged-OPLS-2005>
0

> <r_mmod_RMS_Derivative-OPLS-2005>
1.85913467407227

$$$$
70
                    3D
 Structure written by MMmdl.
161169  0  0  1  0            999 V2000
  -30.7650  -14.4467   20.5910 C   0  0  0  0  0  0
  -30.4107  -12.3018   19.4174 C   0  0  0  0  0  0
  -29.4849  -12.4891   18.2017 C   0  0  0  0  0  0
  -28.0106  -12.3518   18.6220 C   0  0  0  0  0  0
  -27.6641  -13.2086   19.8692 C   0  0  2  0  0  0
  -28.7109  -13.0204   20.9941 C   0  0  0  0  0  0
  -25.2660  -13.8196   20.5669 C   0  0  0  0  0  0
  -24.1900  -13.0482   20.9157 C   0  0  0  0  0  0
  -24.6445  -11.6933   20.8739 C   0  0  0  0  0  0
  -23.9096  -10.4318   21.0397 C   0  0  0  0  0  0
  -24.3633   -9.4232   21.9170 C   0  0  0  0  0  0
  -23.6292   -8.2288   22.0777 C   0  0  0  0  0  0
  -22.4278   -8.0324   21.3564 C   0  0  0  0  0  0
  -21.9933   -9.0298   20.4651 C   0  0  0  0  0  0
  -22.7280  -10.2165   20.3043 C   0  0  0  0  0  0
  -21.6874   -6.0736   22.5266 C   0  0  0  0  0  0
  -21.4010   -6.5639   23.8188 C   0  0  0  0  0  0
  -21.3653   -5.6806   24.9154 C   0  0  0  0  0  0
  -21.6059   -4.3069   24.7224 C   0  0  0  0  0  0
  -21.8837   -3.8154   23.4344 C   0  0  0  0  0  0
  -21.9215   -4.6960   22.3382 C   0  0  0  0  0  0
  -22.7926  -13.5268   21.1796 C   0  0  0  0  0  0
  -22.1690   -4.2138   21.0965 F   0  0  0  0  0  0
  -21.5613   -3.4560   25.7744 F   0  0  0  0  0  0
  -30.0382  -13.3067   20.4298 N   0  0  0  0  0  0
  -26.3081  -12.9347   20.3373 N   0  0  0  0  0  0
  -25.9362  -11.6509   20.5810 N   0  0  0  0  0  0
  -22.0543  -12.8223   22.0305 N   0  0  0  0  0  0
  -25.4494  -15.1905   20.4070 N   0  0  0  0  0  0
  -31.8432  -14.6115   20.0154 O   0  0  0  0  0  0
  -21.6670   -6.8894   21.4235 O   0  0  0  0  0  0
  -22.3611  -14.5567   20.6659 O   0  0  0  0  0  0
  -24.6185  -31.8590   23.2145 C   0  0  0  0  0  0
  -25.9033  -32.4759   23.8483 C   0  0  1  0  0  0
  -27.2211  -27.4129   20.0996 C   0  0  0  0  0  0
  -25.5849  -33.8583   24.2342 N   0  0  0  0  0  0
  -23.4089  -30.4856   21.5519 C   0  0  2  0  0  0
  -24.8581  -28.9592   20.1109 C   0  0  0  0  0  0
  -22.7423  -29.4573   22.4967 C   0  0  0  0  0  0
  -18.0254  -28.1316   22.8508 C   0  0  0  0  0  0
  -24.1464  -36.7335   23.2635 C   0  0  0  0  0  0
  -25.9431  -30.8219   21.3684 C   0  0  0  0  0  0
  -26.0223  -29.4603   20.7082 C   0  0  0  0  0  0
  -27.2183  -28.6983   20.6940 C   0  0  0  0  0  0
  -26.0435  -26.9379   19.4843 C   0  0  0  0  0  0
  -24.8605  -27.6988   19.4945 C   0  0  0  0  0  0
  -23.6193  -29.8220   20.1659 C   0  0  0  0  0  0
  -25.4079  -36.3092   24.0329 C   0  0  1  0  0  0
  -20.5858  -28.3605   23.1299 C   0  0  2  0  0  0
  -20.6720  -26.9317   22.5402 C   0  0  0  0  0  0
  -19.5683  -26.6335   21.5193 C   0  0  0  0  0  0
  -18.1872  -26.7874   22.1618 C   0  0  0  0  0  0
  -19.1515  -28.8784   23.2889 C   0  0  0  0  0  0
  -18.9442  -30.1410   23.8880 C   0  0  0  0  0  0
  -17.6443  -30.6535   24.0561 C   0  0  0  0  0  0
  -25.9014  -34.9432   23.5128 C   0  0  0  0  0  0
  -16.5328  -29.9043   23.6324 C   0  0  0  0  0  0
  -16.7252  -28.6437   23.0388 C   0  0  0  0  0  0
  -26.4483  -31.6598   25.0829 C   0  0  0  0  0  0
  -25.3779  -31.3632   26.1592 C   0  0  0  0  0  0
  -27.0382  -30.3059   24.6233 C   0  0  0  0  0  0
  -27.6094  -32.4358   25.7532 C   0  0  0  0  0  0
  -27.5562  -37.1755   24.8425 C   0  0  0  0  0  0
  -21.4140  -29.3000   22.3710 N   0  0  0  0  0  0
  -26.4255  -37.3777   23.9427 N   0  0  0  0  0  0
  -24.6760  -31.0693   22.1037 N   0  0  0  0  0  0
  -23.4196  -28.8075   23.2972 O   0  0  0  0  0  0
  -28.3334  -26.5941   20.1014 O   0  0  0  0  0  0
  -26.5590  -34.8860   22.4684 O   0  0  0  0  0  0
  -23.5345  -32.1344   23.7487 O   0  0  0  0  0  0
  -32.2363  -16.4529   22.3001 C   0  0  0  0  0  0
  -32.9961  -17.5550   22.7250 C   0  0  0  0  0  0
  -31.1562  -19.0239   22.1470 C   0  0  0  0  0  0
  -30.3654  -17.9295   21.7058 C   0  0  0  0  0  0
  -30.9301  -16.6131   21.7681 C   0  0  0  0  0  0
  -32.4558  -18.8438   22.6465 C   0  0  0  0  0  0
  -28.4314  -20.6629   21.1298 C   0  0  0  0  0  0
  -28.2602  -25.4150   20.8123 C   0  0  0  0  0  0
  -28.5351  -19.3538   19.0391 C   0  0  0  0  0  0
  -28.9265  -18.1960   21.2176 C   0  0  0  0  0  0
  -28.3209  -22.0064   20.3468 C   0  0  0  0  0  0
  -29.3094  -23.1085   20.8383 C   0  0  0  0  0  0
  -30.2262  -15.4340   21.3431 N   0  0  0  0  0  0
  -29.1039  -24.4564   20.2627 N   0  0  0  0  0  0
  -28.6754  -19.4781   20.4942 N   0  0  0  0  0  0
  -28.3172  -20.7151   22.3572 O   0  0  0  0  0  0
  -27.5092  -25.2205   21.7701 O   0  0  0  0  0  0
  -33.3795  -20.2033   23.1694 Cl  0  0  0  0  0  0
  -31.4536  -12.3704   19.1041 H   0  0  0  0  0  0
  -30.3042  -11.3017   19.8366 H   0  0  0  0  0  0
  -29.7179  -11.7508   17.4337 H   0  0  0  0  0  0
  -29.6511  -13.4681   17.7478 H   0  0  0  0  0  0
  -27.8193  -11.2978   18.8267 H   0  0  0  0  0  0
  -27.3618  -12.6118   17.7863 H   0  0  0  0  0  0
  -27.7016  -14.2491   19.5482 H   0  0  0  0  0  0
  -28.6928  -11.9996   21.3703 H   0  0  0  0  0  0
  -28.4711  -13.6549   21.8484 H   0  0  0  0  0  0
  -25.2768   -9.5706   22.4735 H   0  0  0  0  0  0
  -24.0005   -7.4702   22.7491 H   0  0  0  0  0  0
  -21.0889   -8.8820   19.8916 H   0  0  0  0  0  0
  -22.3768  -10.9703   19.6139 H   0  0  0  0  0  0
  -21.1991   -7.6142   23.9668 H   0  0  0  0  0  0
  -21.1437   -6.0534   25.9047 H   0  0  0  0  0  0
  -22.0616   -2.7616   23.2849 H   0  0  0  0  0  0
  -22.4205  -11.9894   22.4651 H   0  0  0  0  0  0
  -21.1155  -13.1209   22.2496 H   0  0  0  0  0  0
  -24.6984  -15.8621   20.5117 H   0  0  0  0  0  0
  -26.3074  -15.6066   20.0675 H   0  0  0  0  0  0
  -26.7088  -32.5457   23.1246 H   0  0  0  0  0  0
  -25.0026  -33.9781   25.0503 H   0  0  0  0  0  0
  -22.6990  -31.3031   21.4060 H   0  0  0  0  0  0
  -23.3706  -35.9667   23.3254 H   0  0  0  0  0  0
  -24.3571  -36.9035   22.2055 H   0  0  0  0  0  0
  -23.7231  -37.6515   23.6734 H   0  0  0  0  0  0
  -26.0566  -31.5847   20.5981 H   0  0  0  0  0  0
  -26.8272  -30.8786   21.9918 H   0  0  0  0  0  0
  -28.1232  -29.0746   21.1526 H   0  0  0  0  0  0
  -26.0386  -25.9652   19.0131 H   0  0  0  0  0  0
  -23.9683  -27.3027   19.0313 H   0  0  0  0  0  0
  -23.7173  -30.5939   19.4014 H   0  0  0  0  0  0
  -22.7484  -29.2299   19.8779 H   0  0  0  0  0  0
  -25.1229  -36.1956   25.0814 H   0  0  0  0  0  0
  -20.9956  -28.3137   24.1417 H   0  0  0  0  0  0
  -20.5552  -26.2179   23.3581 H   0  0  0  0  0  0
  -21.6586  -26.7285   22.1204 H   0  0  0  0  0  0
  -19.6814  -25.6255   21.1187 H   0  0  0  0  0  0
  -19.6636  -27.3165   20.6732 H   0  0  0  0  0  0
  -17.4138  -26.6666   21.4020 H   0  0  0  0  0  0
  -18.0264  -25.9993   22.8976 H   0  0  0  0  0  0
  -19.7925  -30.7263   24.2186 H   0  0  0  0  0  0
  -17.4985  -31.6214   24.5162 H   0  0  0  0  0  0
  -15.5317  -30.2924   23.7665 H   0  0  0  0  0  0
  -15.8652  -28.0756   22.7116 H   0  0  0  0  0  0
  -24.6024  -30.6872   25.7978 H   0  0  0  0  0  0
  -24.8851  -32.2710   26.5097 H   0  0  0  0  0  0
  -25.8184  -30.8847   27.0353 H   0  0  0  0  0  0
  -26.2945  -29.6707   24.1415 H   0  0  0  0  0  0
  -27.4291  -29.7422   25.4719 H   0  0  0  0  0  0
  -27.8703  -30.4408   23.9331 H   0  0  0  0  0  0
  -27.2803  -33.3729   26.2039 H   0  0  0  0  0  0
  -28.3923  -32.6788   25.0345 H   0  0  0  0  0  0
  -28.0737  -31.8526   26.5483 H   0  0  0  0  0  0
  -28.2478  -38.0155   24.7637 H   0  0  0  0  0  0
  -28.1179  -36.2681   24.6087 H   0  0  0  0  0  0
  -27.2297  -37.1228   25.8830 H   0  0  0  0  0  0
  -20.9247  -29.8875   21.7088 H   0  0  0  0  0  0
  -26.0125  -38.2812   24.1587 H   0  0  0  0  0  0
  -32.6791  -15.4707   22.3892 H   0  0  0  0  0  0
  -33.9939  -17.4091   23.1161 H   0  0  0  0  0  0
  -30.7884  -20.0360   22.1331 H   0  0  0  0  0  0
  -27.5585  -19.7244   18.7198 H   0  0  0  0  0  0
  -28.6126  -18.3299   18.6777 H   0  0  0  0  0  0
  -29.3029  -19.9290   18.5232 H   0  0  0  0  0  0
  -28.2717  -18.1347   22.0886 H   0  0  0  0  0  0
  -28.6074  -17.3594   20.6007 H   0  0  0  0  0  0
  -27.2980  -22.3555   20.4848 H   0  0  0  0  0  0
  -28.4485  -21.8759   19.2736 H   0  0  0  0  0  0
  -30.3256  -22.7994   20.5875 H   0  0  0  0  0  0
  -29.2854  -23.1815   21.9260 H   0  0  0  0  0  0
  -29.2850  -15.3017   21.6764 H   0  0  0  0  0  0
  -29.6681  -24.7660   19.4825 H   0  0  0  0  0  0
  1 25  1  0  0  0
  1 30  2  0  0  0
  1 83  1  0  0  0
  2  3  1  0  0  0
  2 25  1  0  0  0
  2 89  1  0  0  0
  2 90  1  0  0  0
  3  4  1  0  0  0
  3 91  1  0  0  0
  3 92  1  0  0  0
  4  5  1  0  0  0
  4 93  1  0  0  0
  4 94  1  0  0  0
  5  6  1  0  0  0
  5 26  1  0  0  0
  5 95  1  0  0  0
  6 25  1  0  0  0
  6 96  1  0  0  0
  6 97  1  0  0  0
  7  8  2  0  0  0
  7 26  1  0  0  0
  7 29  1  0  0  0
  8  9  1  0  0  0
  8 22  1  0  0  0
  9 10  1  0  0  0
  9 27  2  0  0  0
 10 11  2  0  0  0
 10 15  1  0  0  0
 11 12  1  0  0  0
 11 98  1  0  0  0
 12 13  2  0  0  0
 12 99  1  0  0  0
 13 14  1  0  0  0
 13 31  1  0  0  0
 14 15  2  0  0  0
 14100  1  0  0  0
 15101  1  0  0  0
 16 17  2  0  0  0
 16 21  1  0  0  0
 16 31  1  0  0  0
 17 18  1  0  0  0
 17102  1  0  0  0
 18 19  2  0  0  0
 18103  1  0  0  0
 19 20  1  0  0  0
 19 24  1  0  0  0
 20 21  2  0  0  0
 20104  1  0  0  0
 21 23  1  0  0  0
 22 28  1  0  0  0
 22 32  2  0  0  0
 26 27  1  0  0  0
 28105  1  0  0  0
 28106  1  0  0  0
 29107  1  0  0  0
 29108  1  0  0  0
 33 34  1  0  0  0
 33 66  1  0  0  0
 33 70  2  0  0  0
 34 36  1  0  0  0
 34 59  1  0  0  0
 34109  1  0  0  0
 35 44  2  0  0  0
 35 45  1  0  0  0
 35 68  1  0  0  0
 36 56  1  0  0  0
 36110  1  0  0  0
 37 39  1  0  0  0
 37 47  1  0  0  0
 37 66  1  0  0  0
 37111  1  0  0  0
 38 43  2  0  0  0
 38 46  1  0  0  0
 38 47  1  0  0  0
 39 64  1  0  0  0
 39 67  2  0  0  0
 40 52  1  0  0  0
 40 53  2  0  0  0
 40 58  1  0  0  0
 41112  1  0  0  0
 41113  1  0  0  0
 41114  1  0  0  0
 41 48  1  0  0  0
 42 43  1  0  0  0
 42 66  1  0  0  0
 42115  1  0  0  0
 42116  1  0  0  0
 43 44  1  0  0  0
 44117  1  0  0  0
 45 46  2  0  0  0
 45118  1  0  0  0
 46119  1  0  0  0
 47120  1  0  0  0
 47121  1  0  0  0
 48 56  1  0  0  0
 48 65  1  0  0  0
 48122  1  0  0  0
 49 50  1  0  0  0
 49 53  1  0  0  0
 49 64  1  0  0  0
 49123  1  0  0  0
 50 51  1  0  0  0
 50124  1  0  0  0
 50125  1  0  0  0
 51 52  1  0  0  0
 51126  1  0  0  0
 51127  1  0  0  0
 52128  1  0  0  0
 52129  1  0  0  0
 53 54  1  0  0  0
 54 55  2  0  0  0
 54130  1  0  0  0
 55 57  1  0  0  0
 55131  1  0  0  0
 56 69  2  0  0  0
 57 58  2  0  0  0
 57132  1  0  0  0
 58133  1  0  0  0
 59 60  1  0  0  0
 59 61  1  0  0  0
 59 62  1  0  0  0
 60134  1  0  0  0
 60135  1  0  0  0
 60136  1  0  0  0
 61137  1  0  0  0
 61138  1  0  0  0
 61139  1  0  0  0
 62140  1  0  0  0
 62141  1  0  0  0
 62142  1  0  0  0
 63 65  1  0  0  0
 63143  1  0  0  0
 63144  1  0  0  0
 63145  1  0  0  0
 64146  1  0  0  0
 65147  1  0  0  0
 68 78  1  0  0  0
 71 72  2  0  0  0
 71 75  1  0  0  0
 71148  1  0  0  0
 72 76  1  0  0  0
 72149  1  0  0  0
 73 74  1  0  0  0
 73 76  2  0  0  0
 73150  1  0  0  0
 74 75  2  0  0  0
 74 80  1  0  0  0
 75 83  1  0  0  0
 76 88  1  0  0  0
 77 81  1  0  0  0
 77 85  1  0  0  0
 77 86  2  0  0  0
 78 84  1  0  0  0
 78 87  2  0  0  0
 79 85  1  0  0  0
 79151  1  0  0  0
 79152  1  0  0  0
 79153  1  0  0  0
 80 85  1  0  0  0
 80154  1  0  0  0
 80155  1  0  0  0
 81 82  1  0  0  0
 81156  1  0  0  0
 81157  1  0  0  0
 82 84  1  0  0  0
 82158  1  0  0  0
 82159  1  0  0  0
 83160  1  0  0  0
 84161  1  0  0  0
M  ISO  4   1 100  68 101  78 101  83 100
M  END
> <chiral flag>
0

> <version>
0

> <s_m_source_file>
/data/baiqing/PycharmProjects/Reinvent-master-3.2/result/LINK_invent/BTK/process_docking_weight1_custom_product_contain_oxygen_bond_distance_aromatic_linkinvent_7_9_3/rearranged_h_0051.sdf

> <i_m_source_file_index>
71

> <r_mmod_Potential_Energy-OPLS-2005>
-73.0168380737305

> <r_mmod_Stretch_Energy-OPLS-2005>
50.7914276123047

> <r_mmod_Bend_Energy-OPLS-2005>
102.348304748535

> <r_mmod_Torsional_Energy-OPLS-2005>
238.273071289062

> <r_mmod_Improper_Torsional_Energy-OPLS-2005>
2.66731691360474

> <r_mmod_Van_der_Waal_Energy-OPLS-2005>
163.578720092773

> <r_mmod_Electrostatic_Energy-OPLS-2005>
-388.919830322266

> <r_mmod_Solvation_Energy-OPLS-2005>
-257.982574462891

> <b_mmod_Minimization_Converged-OPLS-2005>
0

> <r_mmod_RMS_Derivative-OPLS-2005>
5.26284885406494

$$$$
71
                    3D
 Structure written by MMmdl.
157165  0  0  1  0            999 V2000
  -30.6988  -14.4705   20.5121 C   0  0  0  0  0  0
  -30.4231  -12.2853   19.4381 C   0  0  0  0  0  0
  -29.5038  -12.4904   18.2144 C   0  0  0  0  0  0
  -28.0222  -12.3576   18.6207 C   0  0  0  0  0  0
  -27.6630  -13.2045   19.8721 C   0  0  2  0  0  0
  -28.7052  -13.0050   21.0000 C   0  0  0  0  0  0
  -25.2577  -13.8157   20.5657 C   0  0  0  0  0  0
  -24.1822  -13.0441   20.9155 C   0  0  0  0  0  0
  -24.6390  -11.6907   20.8723 C   0  0  0  0  0  0
  -23.9064  -10.4289   21.0404 C   0  0  0  0  0  0
  -24.3621   -9.4207   21.9187 C   0  0  0  0  0  0
  -23.6279   -8.2253   22.0769 C   0  0  0  0  0  0
  -22.4254   -8.0301   21.3570 C   0  0  0  0  0  0
  -21.9897   -9.0273   20.4672 C   0  0  0  0  0  0
  -22.7237  -10.2143   20.3060 C   0  0  0  0  0  0
  -21.6845   -6.0742   22.5287 C   0  0  0  0  0  0
  -21.4021   -6.5635   23.8218 C   0  0  0  0  0  0
  -21.3656   -5.6786   24.9177 C   0  0  0  0  0  0
  -21.6039   -4.3051   24.7219 C   0  0  0  0  0  0
  -21.8814   -3.8145   23.4332 C   0  0  0  0  0  0
  -21.9182   -4.6967   22.3399 C   0  0  0  0  0  0
  -22.7846  -13.5248   21.1806 C   0  0  0  0  0  0
  -22.1652   -4.2169   21.0968 F   0  0  0  0  0  0
  -21.5623   -3.4530   25.7728 F   0  0  0  0  0  0
  -30.0429  -13.2825   20.4493 N   0  0  0  0  0  0
  -26.3029  -12.9330   20.3331 N   0  0  0  0  0  0
  -25.9313  -11.6498   20.5758 N   0  0  0  0  0  0
  -22.0476  -12.8277   22.0385 N   0  0  0  0  0  0
  -25.4273  -15.1879   20.4070 N   0  0  0  0  0  0
  -31.8511  -14.6267   20.0984 O   0  0  0  0  0  0
  -21.6637   -6.8891   21.4248 O   0  0  0  0  0  0
  -22.3536  -14.5549   20.6635 O   0  0  0  0  0  0
  -24.6149  -31.8670   23.2091 C   0  0  0  0  0  0
  -25.9051  -32.4815   23.8380 C   0  0  1  0  0  0
  -27.2317  -27.4345   20.1035 C   0  0  0  0  0  0
  -25.5904  -33.8611   24.2311 N   0  0  0  0  0  0
  -23.4022  -30.4922   21.5488 C   0  0  2  0  0  0
  -24.8495  -28.9574   20.1123 C   0  0  0  0  0  0
  -22.7412  -29.4663   22.4973 C   0  0  0  0  0  0
  -18.0282  -28.1382   22.8485 C   0  0  0  0  0  0
  -24.1485  -36.7315   23.2631 C   0  0  0  0  0  0
  -25.9307  -30.8358   21.3597 C   0  0  0  0  0  0
  -26.0100  -29.4703   20.7070 C   0  0  0  0  0  0
  -27.2078  -28.7181   20.6956 C   0  0  0  0  0  0
  -26.0588  -26.9376   19.4950 C   0  0  0  0  0  0
  -24.8689  -27.6908   19.5015 C   0  0  0  0  0  0
  -23.6110  -29.8248   20.1630 C   0  0  0  0  0  0
  -25.4101  -36.3103   24.0331 C   0  0  1  0  0  0
  -20.5869  -28.3668   23.1311 C   0  0  2  0  0  0
  -20.6771  -26.9402   22.5420 C   0  0  0  0  0  0
  -19.5752  -26.6382   21.5216 C   0  0  0  0  0  0
  -18.1928  -26.7938   22.1615 C   0  0  0  0  0  0
  -19.1535  -28.8842   23.2900 C   0  0  0  0  0  0
  -18.9467  -30.1447   23.8916 C   0  0  0  0  0  0
  -17.6467  -30.6573   24.0576 C   0  0  0  0  0  0
  -25.9037  -34.9471   23.5118 C   0  0  0  0  0  0
  -16.5359  -29.9083   23.6331 C   0  0  0  0  0  0
  -16.7268  -28.6506   23.0337 C   0  0  0  0  0  0
  -26.4478  -31.6594   25.0705 C   0  0  0  0  0  0
  -25.3747  -31.3733   26.1462 C   0  0  0  0  0  0
  -27.0284  -30.3023   24.6075 C   0  0  0  0  0  0
  -27.6056  -32.4309   25.7463 C   0  0  0  0  0  0
  -27.5591  -37.1789   24.8451 C   0  0  0  0  0  0
  -21.4142  -29.3031   22.3705 N   0  0  0  0  0  0
  -26.4278  -37.3797   23.9430 N   0  0  0  0  0  0
  -24.6673  -31.0789   22.0980 N   0  0  0  0  0  0
  -23.4187  -28.8210   23.3017 O   0  0  0  0  0  0
  -28.3765  -26.6686   20.1204 O   0  0  0  0  0  0
  -26.5599  -34.8931   22.4679 O   0  0  0  0  0  0
  -23.5348  -32.1418   23.7494 O   0  0  0  0  0  0
  -30.7005  -19.4775   22.5868 C   0  0  0  0  0  0
  -30.5921  -18.2101   21.9769 C   0  0  0  0  0  0
  -30.2701  -20.6400   21.9120 C   0  0  0  0  0  0
  -29.6220  -19.2693   20.0116 C   0  0  0  0  0  0
  -30.0534  -18.0979   20.6795 C   0  0  0  0  0  0
  -29.7078  -20.5454   20.6178 C   0  0  0  0  0  0
  -28.8608  -24.2235   20.0750 C   0  0  0  0  0  0
  -27.8289  -22.6837   21.7101 C   0  0  0  0  0  0
  -29.9701  -16.7570   19.9466 C   0  0  0  0  0  0
  -29.2364  -21.7809   19.8263 C   0  0  0  0  0  0
  -28.2552  -25.4242   20.8486 C   0  0  0  0  0  0
  -29.9108  -15.5298   20.7570 N   0  0  0  0  0  0
  -28.7053  -22.9582   20.5628 N   0  0  0  0  0  0
  -29.4788  -24.4505   19.0281 O   0  0  0  0  0  0
  -31.4721  -12.3598   19.1464 H   0  0  0  0  0  0
  -30.3003  -11.2803   19.8448 H   0  0  0  0  0  0
  -29.7435  -11.7636   17.4361 H   0  0  0  0  0  0
  -29.6811  -13.4724   17.7735 H   0  0  0  0  0  0
  -27.8278  -11.3032   18.8198 H   0  0  0  0  0  0
  -27.3769  -12.6303   17.7855 H   0  0  0  0  0  0
  -27.7005  -14.2466   19.5590 H   0  0  0  0  0  0
  -28.6687  -11.9820   21.3735 H   0  0  0  0  0  0
  -28.4789  -13.6429   21.8559 H   0  0  0  0  0  0
  -25.2782   -9.5649   22.4748 H   0  0  0  0  0  0
  -23.9991   -7.4616   22.7454 H   0  0  0  0  0  0
  -21.0846   -8.8792   19.8958 H   0  0  0  0  0  0
  -22.3723  -10.9678   19.6153 H   0  0  0  0  0  0
  -21.2045   -7.6151   23.9721 H   0  0  0  0  0  0
  -21.1477   -6.0524   25.9078 H   0  0  0  0  0  0
  -22.0596   -2.7609   23.2827 H   0  0  0  0  0  0
  -22.4080  -11.9993   22.4890 H   0  0  0  0  0  0
  -21.1084  -13.1324   22.2531 H   0  0  0  0  0  0
  -24.6562  -15.8379   20.5149 H   0  0  0  0  0  0
  -26.2779  -15.6321   20.0863 H   0  0  0  0  0  0
  -26.7123  -32.5530   23.1149 H   0  0  0  0  0  0
  -25.0074  -33.9763   25.0469 H   0  0  0  0  0  0
  -22.6909  -31.3093   21.4107 H   0  0  0  0  0  0
  -23.3745  -35.9646   23.3268 H   0  0  0  0  0  0
  -24.3602  -36.8957   22.2053 H   0  0  0  0  0  0
  -23.7229  -37.6507   23.6664 H   0  0  0  0  0  0
  -26.0410  -31.6009   20.5899 H   0  0  0  0  0  0
  -26.8194  -30.8910   21.9764 H   0  0  0  0  0  0
  -28.1044  -29.1084   21.1573 H   0  0  0  0  0  0
  -26.0636  -25.9655   19.0210 H   0  0  0  0  0  0
  -23.9780  -27.2914   19.0367 H   0  0  0  0  0  0
  -23.7219  -30.6009   19.4049 H   0  0  0  0  0  0
  -22.7332  -29.2484   19.8655 H   0  0  0  0  0  0
  -25.1267  -36.1954   25.0819 H   0  0  0  0  0  0
  -20.9970  -28.3252   24.1427 H   0  0  0  0  0  0
  -20.5676  -26.2277   23.3612 H   0  0  0  0  0  0
  -21.6643  -26.7458   22.1211 H   0  0  0  0  0  0
  -19.6916  -25.6292   21.1242 H   0  0  0  0  0  0
  -19.6691  -27.3201   20.6751 H   0  0  0  0  0  0
  -17.4195  -26.6688   21.4018 H   0  0  0  0  0  0
  -18.0336  -26.0079   22.9013 H   0  0  0  0  0  0
  -19.7930  -30.7277   24.2291 H   0  0  0  0  0  0
  -17.5012  -31.6252   24.5171 H   0  0  0  0  0  0
  -15.5366  -30.2995   23.7639 H   0  0  0  0  0  0
  -15.8664  -28.0844   22.7035 H   0  0  0  0  0  0
  -24.5897  -30.7097   25.7826 H   0  0  0  0  0  0
  -24.8969  -32.2906   26.4911 H   0  0  0  0  0  0
  -25.8098  -30.8905   27.0217 H   0  0  0  0  0  0
  -26.2806  -29.6800   24.1138 H   0  0  0  0  0  0
  -27.4059  -29.7256   25.4530 H   0  0  0  0  0  0
  -27.8653  -30.4331   23.9210 H   0  0  0  0  0  0
  -27.2665  -33.3587   26.2089 H   0  0  0  0  0  0
  -28.3839  -32.6902   25.0273 H   0  0  0  0  0  0
  -28.0753  -31.8405   26.5340 H   0  0  0  0  0  0
  -28.2562  -38.0131   24.7562 H   0  0  0  0  0  0
  -28.1128  -36.2670   24.6168 H   0  0  0  0  0  0
  -27.2336  -37.1314   25.8857 H   0  0  0  0  0  0
  -20.9304  -29.8743   21.6920 H   0  0  0  0  0  0
  -26.0162  -38.2859   24.1480 H   0  0  0  0  0  0
  -31.1264  -19.5580   23.5768 H   0  0  0  0  0  0
  -30.9410  -17.3318   22.5035 H   0  0  0  0  0  0
  -30.3702  -21.5997   22.3996 H   0  0  0  0  0  0
  -29.2239  -19.1860   19.0086 H   0  0  0  0  0  0
  -26.8088  -23.0156   21.5148 H   0  0  0  0  0  0
  -28.1941  -23.1880   22.6059 H   0  0  0  0  0  0
  -27.7563  -21.6241   21.9483 H   0  0  0  0  0  0
  -30.7937  -16.7244   19.2314 H   0  0  0  0  0  0
  -29.0650  -16.7594   19.3374 H   0  0  0  0  0  0
  -28.4621  -21.4659   19.1256 H   0  0  0  0  0  0
  -30.0869  -22.0695   19.2075 H   0  0  0  0  0  0
  -28.7947  -25.5275   21.7902 H   0  0  0  0  0  0
  -27.2194  -25.2068   21.1117 H   0  0  0  0  0  0
  -29.0084  -15.3096   21.1485 H   0  0  0  0  0  0
  1 25  1  0  0  0
  1 30  2  0  0  0
  1 82  1  0  0  0
  2  3  1  0  0  0
  2 25  1  0  0  0
  2 85  1  0  0  0
  2 86  1  0  0  0
  3  4  1  0  0  0
  3 87  1  0  0  0
  3 88  1  0  0  0
  4  5  1  0  0  0
  4 89  1  0  0  0
  4 90  1  0  0  0
  5  6  1  0  0  0
  5 26  1  0  0  0
  5 91  1  0  0  0
  6 25  1  0  0  0
  6 92  1  0  0  0
  6 93  1  0  0  0
  7  8  2  0  0  0
  7 26  1  0  0  0
  7 29  1  0  0  0
  8  9  1  0  0  0
  8 22  1  0  0  0
  9 10  1  0  0  0
  9 27  2  0  0  0
 10 11  2  0  0  0
 10 15  1  0  0  0
 11 12  1  0  0  0
 11 94  1  0  0  0
 12 13  2  0  0  0
 12 95  1  0  0  0
 13 14  1  0  0  0
 13 31  1  0  0  0
 14 15  2  0  0  0
 14 96  1  0  0  0
 15 97  1  0  0  0
 16 17  2  0  0  0
 16 21  1  0  0  0
 16 31  1  0  0  0
 17 18  1  0  0  0
 17 98  1  0  0  0
 18 19  2  0  0  0
 18 99  1  0  0  0
 19 20  1  0  0  0
 19 24  1  0  0  0
 20 21  2  0  0  0
 20100  1  0  0  0
 21 23  1  0  0  0
 22 28  1  0  0  0
 22 32  2  0  0  0
 26 27  1  0  0  0
 28101  1  0  0  0
 28102  1  0  0  0
 29103  1  0  0  0
 29104  1  0  0  0
 33 34  1  0  0  0
 33 66  1  0  0  0
 33 70  2  0  0  0
 34 36  1  0  0  0
 34 59  1  0  0  0
 34105  1  0  0  0
 35 44  2  0  0  0
 35 45  1  0  0  0
 35 68  1  0  0  0
 36 56  1  0  0  0
 36106  1  0  0  0
 37 39  1  0  0  0
 37 47  1  0  0  0
 37 66  1  0  0  0
 37107  1  0  0  0
 38 43  2  0  0  0
 38 46  1  0  0  0
 38 47  1  0  0  0
 39 64  1  0  0  0
 39 67  2  0  0  0
 40 52  1  0  0  0
 40 53  2  0  0  0
 40 58  1  0  0  0
 41108  1  0  0  0
 41109  1  0  0  0
 41110  1  0  0  0
 41 48  1  0  0  0
 42 43  1  0  0  0
 42 66  1  0  0  0
 42111  1  0  0  0
 42112  1  0  0  0
 43 44  1  0  0  0
 44113  1  0  0  0
 45 46  2  0  0  0
 45114  1  0  0  0
 46115  1  0  0  0
 47116  1  0  0  0
 47117  1  0  0  0
 48 56  1  0  0  0
 48 65  1  0  0  0
 48118  1  0  0  0
 49 50  1  0  0  0
 49 53  1  0  0  0
 49 64  1  0  0  0
 49119  1  0  0  0
 50 51  1  0  0  0
 50120  1  0  0  0
 50121  1  0  0  0
 51 52  1  0  0  0
 51122  1  0  0  0
 51123  1  0  0  0
 52124  1  0  0  0
 52125  1  0  0  0
 53 54  1  0  0  0
 54 55  2  0  0  0
 54126  1  0  0  0
 55 57  1  0  0  0
 55127  1  0  0  0
 56 69  2  0  0  0
 57 58  2  0  0  0
 57128  1  0  0  0
 58129  1  0  0  0
 59 60  1  0  0  0
 59 61  1  0  0  0
 59 62  1  0  0  0
 60130  1  0  0  0
 60131  1  0  0  0
 60132  1  0  0  0
 61133  1  0  0  0
 61134  1  0  0  0
 61135  1  0  0  0
 62136  1  0  0  0
 62137  1  0  0  0
 62138  1  0  0  0
 63 65  1  0  0  0
 63139  1  0  0  0
 63140  1  0  0  0
 63141  1  0  0  0
 64142  1  0  0  0
 65143  1  0  0  0
 68 81  1  0  0  0
 71 72  2  0  0  0
 71 73  1  0  0  0
 71144  1  0  0  0
 72 75  1  0  0  0
 72145  1  0  0  0
 73 76  2  0  0  0
 73146  1  0  0  0
 74 75  2  0  0  0
 74 76  1  0  0  0
 74147  1  0  0  0
 75 79  1  0  0  0
 76 80  1  0  0  0
 77 81  1  0  0  0
 77 83  1  0  0  0
 77 84  2  0  0  0
 78 83  1  0  0  0
 78148  1  0  0  0
 78149  1  0  0  0
 78150  1  0  0  0
 79 82  1  0  0  0
 79151  1  0  0  0
 79152  1  0  0  0
 80 83  1  0  0  0
 80153  1  0  0  0
 80154  1  0  0  0
 81155  1  0  0  0
 81156  1  0  0  0
 82157  1  0  0  0
M  ISO  4   1 100  68 101  81 101  82 100
M  END
> <chiral flag>
0

> <version>
0

> <s_m_source_file>
/data/baiqing/PycharmProjects/Reinvent-master-3.2/result/LINK_invent/BTK/process_docking_weight1_custom_product_contain_oxygen_bond_distance_aromatic_linkinvent_7_9_3/rearranged_h_0051.sdf

> <i_m_source_file_index>
72

> <r_mmod_Potential_Energy-OPLS-2005>
-50.4874992370605

> <r_mmod_Stretch_Energy-OPLS-2005>
41.7106285095215

> <r_mmod_Bend_Energy-OPLS-2005>
95.9486389160156

> <r_mmod_Torsional_Energy-OPLS-2005>
247.216125488281

> <r_mmod_Improper_Torsional_Energy-OPLS-2005>
10.4926977157593

> <r_mmod_Van_der_Waal_Energy-OPLS-2005>
163.264556884766

> <r_mmod_Electrostatic_Energy-OPLS-2005>
-382.54931640625

> <r_mmod_Solvation_Energy-OPLS-2005>
-241.812683105469

> <b_mmod_Minimization_Converged-OPLS-2005>
0

> <r_mmod_RMS_Derivative-OPLS-2005>
2.57291460037231

$$$$
72
                    3D
 Structure written by MMmdl.
163171  0  0  1  0            999 V2000
  -30.6421  -14.5532   20.5320 C   0  0  0  0  0  0
  -30.4361  -12.3460   19.4249 C   0  0  0  0  0  0
  -29.5010  -12.4939   18.2044 C   0  0  0  0  0  0
  -28.0216  -12.3400   18.6203 C   0  0  0  0  0  0
  -27.6543  -13.2008   19.8583 C   0  0  2  0  0  0
  -28.6994  -13.0196   20.9825 C   0  0  0  0  0  0
  -25.2580  -13.8136   20.5659 C   0  0  0  0  0  0
  -24.1831  -13.0420   20.9190 C   0  0  0  0  0  0
  -24.6370  -11.6882   20.8712 C   0  0  0  0  0  0
  -23.9025  -10.4283   21.0392 C   0  0  0  0  0  0
  -24.3593   -9.4209   21.9181 C   0  0  0  0  0  0
  -23.6287   -8.2234   22.0742 C   0  0  0  0  0  0
  -22.4266   -8.0262   21.3538 C   0  0  0  0  0  0
  -21.9887   -9.0233   20.4641 C   0  0  0  0  0  0
  -22.7189  -10.2128   20.3052 C   0  0  0  0  0  0
  -21.6849   -6.0721   22.5276 C   0  0  0  0  0  0
  -21.4006   -6.5628   23.8209 C   0  0  0  0  0  0
  -21.3663   -5.6781   24.9178 C   0  0  0  0  0  0
  -21.6041   -4.3048   24.7226 C   0  0  0  0  0  0
  -21.8822   -3.8133   23.4346 C   0  0  0  0  0  0
  -21.9189   -4.6945   22.3402 C   0  0  0  0  0  0
  -22.7862  -13.5228   21.1851 C   0  0  0  0  0  0
  -22.1663   -4.2133   21.0982 F   0  0  0  0  0  0
  -21.5643   -3.4534   25.7744 F   0  0  0  0  0  0
  -30.0155  -13.3489   20.4161 N   0  0  0  0  0  0
  -26.2987  -12.9288   20.3275 N   0  0  0  0  0  0
  -25.9293  -11.6456   20.5717 N   0  0  0  0  0  0
  -22.0480  -12.8255   22.0414 N   0  0  0  0  0  0
  -25.4284  -15.1862   20.4084 N   0  0  0  0  0  0
  -31.8141  -14.7270   20.1857 O   0  0  0  0  0  0
  -21.6626   -6.8862   21.4240 O   0  0  0  0  0  0
  -22.3551  -14.5525   20.6661 O   0  0  0  0  0  0
  -24.6193  -31.8647   23.2060 C   0  0  0  0  0  0
  -25.9070  -32.4806   23.8374 C   0  0  1  0  0  0
  -27.2298  -27.3892   20.1123 C   0  0  0  0  0  0
  -25.5904  -33.8599   24.2304 N   0  0  0  0  0  0
  -23.4089  -30.4870   21.5482 C   0  0  2  0  0  0
  -24.8558  -28.9426   20.1189 C   0  0  0  0  0  0
  -22.7428  -29.4653   22.4984 C   0  0  0  0  0  0
  -18.0270  -28.1374   22.8491 C   0  0  0  0  0  0
  -24.1484  -36.7309   23.2640 C   0  0  0  0  0  0
  -25.9426  -30.8151   21.3668 C   0  0  0  0  0  0
  -26.0187  -29.4449   20.7172 C   0  0  0  0  0  0
  -27.2118  -28.6771   20.7075 C   0  0  0  0  0  0
  -26.0523  -26.9124   19.5030 C   0  0  0  0  0  0
  -24.8696  -27.6776   19.5050 C   0  0  0  0  0  0
  -23.6197  -29.8153   20.1653 C   0  0  0  0  0  0
  -25.4107  -36.3096   24.0340 C   0  0  1  0  0  0
  -20.5866  -28.3669   23.1308 C   0  0  2  0  0  0
  -20.6768  -26.9401   22.5423 C   0  0  0  0  0  0
  -19.5753  -26.6381   21.5209 C   0  0  0  0  0  0
  -18.1924  -26.7925   22.1611 C   0  0  0  0  0  0
  -19.1520  -28.8836   23.2896 C   0  0  0  0  0  0
  -18.9448  -30.1441   23.8909 C   0  0  0  0  0  0
  -17.6453  -30.6585   24.0560 C   0  0  0  0  0  0
  -25.9035  -34.9463   23.5118 C   0  0  0  0  0  0
  -16.5342  -29.9087   23.6323 C   0  0  0  0  0  0
  -16.7260  -28.6498   23.0351 C   0  0  0  0  0  0
  -26.4478  -31.6607   25.0725 C   0  0  0  0  0  0
  -25.3739  -31.3729   26.1475 C   0  0  0  0  0  0
  -27.0316  -30.3037   24.6141 C   0  0  0  0  0  0
  -27.6057  -32.4332   25.7472 C   0  0  0  0  0  0
  -27.5589  -37.1799   24.8458 C   0  0  0  0  0  0
  -21.4152  -29.3030   22.3716 N   0  0  0  0  0  0
  -26.4290  -37.3792   23.9414 N   0  0  0  0  0  0
  -24.6754  -31.0720   22.0978 N   0  0  0  0  0  0
  -23.4180  -28.8201   23.3050 O   0  0  0  0  0  0
  -28.3748  -26.6121   20.0715 O   0  0  0  0  0  0
  -26.5606  -34.8930   22.4684 O   0  0  0  0  0  0
  -23.5379  -32.1410   23.7436 O   0  0  0  0  0  0
  -29.7519  -18.0781   20.4148 C   0  0  0  0  0  0
  -30.7975  -17.1639   22.4067 C   0  0  0  0  0  0
  -30.0361  -19.4168   20.8336 C   0  0  0  0  0  0
  -30.7281  -19.6056   22.0676 C   0  0  0  0  0  0
  -30.1540  -16.9419   21.1768 C   0  0  0  0  0  0
  -31.0717  -18.4700   22.8479 C   0  0  0  0  0  0
  -29.0321  -23.0409   20.0825 C   0  0  0  0  0  0
  -32.6670  -21.1316   22.7299 C   0  0  0  0  0  0
  -30.3825  -21.3895   23.8486 C   0  0  0  0  0  0
  -29.6899  -20.5983   19.8821 C   0  0  0  0  0  0
  -27.9525  -24.0697   20.5226 C   0  0  0  0  0  0
  -28.4356  -25.4916   20.9927 C   0  0  0  0  0  0
  -31.1433  -20.9932   22.5738 C   0  0  0  0  0  0
  -29.8146  -15.5978   20.7973 N   0  0  0  0  0  0
  -28.8671  -21.7265   20.3942 N   0  0  0  0  0  0
  -29.9983  -23.4301   19.4253 O   0  0  0  0  0  0
  -31.6838  -18.6166   24.0474 F   0  0  0  0  0  0
  -31.4770  -12.4743   19.1221 H   0  0  0  0  0  0
  -30.3653  -11.3416   19.8442 H   0  0  0  0  0  0
  -29.7563  -11.7506   17.4477 H   0  0  0  0  0  0
  -29.6504  -13.4688   17.7367 H   0  0  0  0  0  0
  -27.8501  -11.2862   18.8425 H   0  0  0  0  0  0
  -27.3654  -12.5842   17.7833 H   0  0  0  0  0  0
  -27.6848  -14.2394   19.5306 H   0  0  0  0  0  0
  -28.6987  -11.9903   21.3452 H   0  0  0  0  0  0
  -28.4585  -13.6397   21.8475 H   0  0  0  0  0  0
  -25.2746   -9.5711   22.4741 H   0  0  0  0  0  0
  -24.0005   -7.4631   22.7465 H   0  0  0  0  0  0
  -21.0810   -8.8740   19.8964 H   0  0  0  0  0  0
  -22.3628  -10.9663   19.6162 H   0  0  0  0  0  0
  -21.1992   -7.6134   23.9714 H   0  0  0  0  0  0
  -21.1490   -6.0511   25.9087 H   0  0  0  0  0  0
  -22.0598   -2.7588   23.2845 H   0  0  0  0  0  0
  -22.4083  -11.9930   22.4836 H   0  0  0  0  0  0
  -21.1104  -13.1310   22.2599 H   0  0  0  0  0  0
  -24.6556  -15.8340   20.5225 H   0  0  0  0  0  0
  -26.2695  -15.6320   20.0645 H   0  0  0  0  0  0
  -26.7139  -32.5498   23.1128 H   0  0  0  0  0  0
  -25.0059  -33.9750   25.0450 H   0  0  0  0  0  0
  -22.7004  -31.3053   21.4056 H   0  0  0  0  0  0
  -23.3749  -35.9639   23.3299 H   0  0  0  0  0  0
  -24.3582  -36.8930   22.2055 H   0  0  0  0  0  0
  -23.7231  -37.6512   23.6659 H   0  0  0  0  0  0
  -26.0655  -31.5781   20.5966 H   0  0  0  0  0  0
  -26.8269  -30.8654   21.9909 H   0  0  0  0  0  0
  -28.1114  -29.0663   21.1630 H   0  0  0  0  0  0
  -26.0481  -25.9492   19.0158 H   0  0  0  0  0  0
  -23.9790  -27.2887   19.0302 H   0  0  0  0  0  0
  -23.7311  -30.5866   19.4030 H   0  0  0  0  0  0
  -22.7427  -29.2371   19.8705 H   0  0  0  0  0  0
  -25.1280  -36.1958   25.0837 H   0  0  0  0  0  0
  -20.9951  -28.3238   24.1429 H   0  0  0  0  0  0
  -20.5651  -26.2274   23.3612 H   0  0  0  0  0  0
  -21.6644  -26.7436   22.1225 H   0  0  0  0  0  0
  -19.6919  -25.6290   21.1238 H   0  0  0  0  0  0
  -19.6706  -27.3188   20.6738 H   0  0  0  0  0  0
  -17.4204  -26.6674   21.4002 H   0  0  0  0  0  0
  -18.0319  -26.0055   22.8991 H   0  0  0  0  0  0
  -19.7926  -30.7243   24.2288 H   0  0  0  0  0  0
  -17.5010  -31.6264   24.5161 H   0  0  0  0  0  0
  -15.5340  -30.2990   23.7645 H   0  0  0  0  0  0
  -15.8660  -28.0817   22.7069 H   0  0  0  0  0  0
  -24.5887  -30.7104   25.7815 H   0  0  0  0  0  0
  -24.8957  -32.2891   26.4946 H   0  0  0  0  0  0
  -25.8086  -30.8876   27.0219 H   0  0  0  0  0  0
  -26.2869  -29.6782   24.1198 H   0  0  0  0  0  0
  -27.4068  -29.7298   25.4627 H   0  0  0  0  0  0
  -27.8717  -30.4343   23.9312 H   0  0  0  0  0  0
  -27.2677  -33.3617   26.2081 H   0  0  0  0  0  0
  -28.3832  -32.6919   25.0275 H   0  0  0  0  0  0
  -28.0761  -31.8441   26.5350 H   0  0  0  0  0  0
  -28.2599  -38.0106   24.7527 H   0  0  0  0  0  0
  -28.1092  -36.2639   24.6243 H   0  0  0  0  0  0
  -27.2320  -37.1408   25.8866 H   0  0  0  0  0  0
  -20.9322  -29.8732   21.6916 H   0  0  0  0  0  0
  -26.0181  -38.2873   24.1417 H   0  0  0  0  0  0
  -29.2385  -17.9196   19.4764 H   0  0  0  0  0  0
  -31.0748  -16.3330   23.0382 H   0  0  0  0  0  0
  -33.1733  -20.9223   21.7864 H   0  0  0  0  0  0
  -33.0815  -20.4639   23.4842 H   0  0  0  0  0  0
  -32.9322  -22.1480   23.0222 H   0  0  0  0  0  0
  -29.3060  -21.3805   23.6747 H   0  0  0  0  0  0
  -30.6550  -22.3957   24.1664 H   0  0  0  0  0  0
  -30.5890  -20.7153   24.6797 H   0  0  0  0  0  0
  -29.1764  -20.2050   19.0040 H   0  0  0  0  0  0
  -30.6412  -20.9742   19.5026 H   0  0  0  0  0  0
  -27.4137  -23.6191   21.3557 H   0  0  0  0  0  0
  -27.2189  -24.1636   19.7243 H   0  0  0  0  0  0
  -29.4721  -25.4151   21.3251 H   0  0  0  0  0  0
  -27.8864  -25.7588   21.8969 H   0  0  0  0  0  0
  -30.8960  -21.7446   21.8351 H   0  0  0  0  0  0
  -28.8361  -15.3622   20.8521 H   0  0  0  0  0  0
  -28.0517  -21.4726   20.9347 H   0  0  0  0  0  0
  1 25  1  0  0  0
  1 30  2  0  0  0
  1 84  1  0  0  0
  2  3  1  0  0  0
  2 25  1  0  0  0
  2 88  1  0  0  0
  2 89  1  0  0  0
  3  4  1  0  0  0
  3 90  1  0  0  0
  3 91  1  0  0  0
  4  5  1  0  0  0
  4 92  1  0  0  0
  4 93  1  0  0  0
  5  6  1  0  0  0
  5 26  1  0  0  0
  5 94  1  0  0  0
  6 25  1  0  0  0
  6 95  1  0  0  0
  6 96  1  0  0  0
  7  8  2  0  0  0
  7 26  1  0  0  0
  7 29  1  0  0  0
  8  9  1  0  0  0
  8 22  1  0  0  0
  9 10  1  0  0  0
  9 27  2  0  0  0
 10 11  2  0  0  0
 10 15  1  0  0  0
 11 12  1  0  0  0
 11 97  1  0  0  0
 12 13  2  0  0  0
 12 98  1  0  0  0
 13 14  1  0  0  0
 13 31  1  0  0  0
 14 15  2  0  0  0
 14 99  1  0  0  0
 15100  1  0  0  0
 16 17  2  0  0  0
 16 21  1  0  0  0
 16 31  1  0  0  0
 17 18  1  0  0  0
 17101  1  0  0  0
 18 19  2  0  0  0
 18102  1  0  0  0
 19 20  1  0  0  0
 19 24  1  0  0  0
 20 21  2  0  0  0
 20103  1  0  0  0
 21 23  1  0  0  0
 22 28  1  0  0  0
 22 32  2  0  0  0
 26 27  1  0  0  0
 28104  1  0  0  0
 28105  1  0  0  0
 29106  1  0  0  0
 29107  1  0  0  0
 33 34  1  0  0  0
 33 66  1  0  0  0
 33 70  2  0  0  0
 34 36  1  0  0  0
 34 59  1  0  0  0
 34108  1  0  0  0
 35 44  2  0  0  0
 35 45  1  0  0  0
 35 68  1  0  0  0
 36 56  1  0  0  0
 36109  1  0  0  0
 37 39  1  0  0  0
 37 47  1  0  0  0
 37 66  1  0  0  0
 37110  1  0  0  0
 38 43  2  0  0  0
 38 46  1  0  0  0
 38 47  1  0  0  0
 39 64  1  0  0  0
 39 67  2  0  0  0
 40 52  1  0  0  0
 40 53  2  0  0  0
 40 58  1  0  0  0
 41111  1  0  0  0
 41112  1  0  0  0
 41113  1  0  0  0
 41 48  1  0  0  0
 42 43  1  0  0  0
 42 66  1  0  0  0
 42114  1  0  0  0
 42115  1  0  0  0
 43 44  1  0  0  0
 44116  1  0  0  0
 45 46  2  0  0  0
 45117  1  0  0  0
 46118  1  0  0  0
 47119  1  0  0  0
 47120  1  0  0  0
 48 56  1  0  0  0
 48 65  1  0  0  0
 48121  1  0  0  0
 49 50  1  0  0  0
 49 53  1  0  0  0
 49 64  1  0  0  0
 49122  1  0  0  0
 50 51  1  0  0  0
 50123  1  0  0  0
 50124  1  0  0  0
 51 52  1  0  0  0
 51125  1  0  0  0
 51126  1  0  0  0
 52127  1  0  0  0
 52128  1  0  0  0
 53 54  1  0  0  0
 54 55  2  0  0  0
 54129  1  0  0  0
 55 57  1  0  0  0
 55130  1  0  0  0
 56 69  2  0  0  0
 57 58  2  0  0  0
 57131  1  0  0  0
 58132  1  0  0  0
 59 60  1  0  0  0
 59 61  1  0  0  0
 59 62  1  0  0  0
 60133  1  0  0  0
 60134  1  0  0  0
 60135  1  0  0  0
 61136  1  0  0  0
 61137  1  0  0  0
 61138  1  0  0  0
 62139  1  0  0  0
 62140  1  0  0  0
 62141  1  0  0  0
 63 65  1  0  0  0
 63142  1  0  0  0
 63143  1  0  0  0
 63144  1  0  0  0
 64145  1  0  0  0
 65146  1  0  0  0
 68 82  1  0  0  0
 71 73  2  0  0  0
 71 75  1  0  0  0
 71147  1  0  0  0
 72 75  2  0  0  0
 72 76  1  0  0  0
 72148  1  0  0  0
 73 74  1  0  0  0
 73 80  1  0  0  0
 74 76  2  0  0  0
 74 83  1  0  0  0
 75 84  1  0  0  0
 76 87  1  0  0  0
 77 81  1  0  0  0
 77 85  1  0  0  0
 77 86  2  0  0  0
 78149  1  0  0  0
 78150  1  0  0  0
 78151  1  0  0  0
 78 83  1  0  0  0
 79 83  1  0  0  0
 79152  1  0  0  0
 79153  1  0  0  0
 79154  1  0  0  0
 80 85  1  0  0  0
 80155  1  0  0  0
 80156  1  0  0  0
 81 82  1  0  0  0
 81157  1  0  0  0
 81158  1  0  0  0
 82159  1  0  0  0
 82160  1  0  0  0
 83161  1  0  0  0
 84162  1  0  0  0
 85163  1  0  0  0
M  ISO  4   1 100  68 101  82 101  84 100
M  END
> <chiral flag>
0

> <version>
0

> <s_m_source_file>
/data/baiqing/PycharmProjects/Reinvent-master-3.2/result/LINK_invent/BTK/process_docking_weight1_custom_product_contain_oxygen_bond_distance_aromatic_linkinvent_7_9_3/rearranged_h_0051.sdf

> <i_m_source_file_index>
73

> <r_mmod_Potential_Energy-OPLS-2005>
-51.4625587463379

> <r_mmod_Stretch_Energy-OPLS-2005>
52.8806800842285

> <r_mmod_Bend_Energy-OPLS-2005>
114.679725646973

> <r_mmod_Torsional_Energy-OPLS-2005>
259.5888671875

> <r_mmod_Improper_Torsional_Energy-OPLS-2005>
7.22844886779785

> <r_mmod_Van_der_Waal_Energy-OPLS-2005>
145.194885253906

> <r_mmod_Electrostatic_Energy-OPLS-2005>
-419.270294189453

> <r_mmod_Solvation_Energy-OPLS-2005>
-236.729141235352

> <b_mmod_Minimization_Converged-OPLS-2005>
0

> <r_mmod_RMS_Derivative-OPLS-2005>
2.15226912498474

$$$$
73
                    3D
 Structure written by MMmdl.
167175  0  0  1  0            999 V2000
  -29.8634  -13.8353   21.2829 C   0  0  0  0  0  0
  -30.7564  -12.6008   19.1822 C   0  0  0  0  0  0
  -29.8098  -12.6609   17.8933 C   0  0  0  0  0  0
  -28.2620  -12.5414   18.0878 C   0  0  0  0  0  0
  -28.0168  -13.1299   19.4250 C   0  0  2  0  0  0
  -28.9113  -12.0871   20.2787 C   0  0  0  0  0  0
  -25.8805  -13.9186   20.1571 C   0  0  0  0  0  0
  -24.4215  -13.1865   21.2028 C   0  0  0  0  0  0
  -24.5325  -11.9733   21.6421 C   0  0  0  0  0  0
  -23.8844  -10.5970   21.3097 C   0  0  0  0  0  0
  -24.3456   -9.4861   22.0556 C   0  0  0  0  0  0
  -23.6563   -8.2532   22.0897 C   0  0  0  0  0  0
  -22.4720   -8.0709   21.3449 C   0  0  0  0  0  0
  -22.0704   -9.1149   20.4834 C   0  0  0  0  0  0
  -22.7683  -10.3515   20.4545 C   0  0  0  0  0  0
  -21.7019   -6.0978   22.5046 C   0  0  0  0  0  0
  -21.4150   -6.5827   23.8022 C   0  0  0  0  0  0
  -21.3663   -5.6965   24.8977 C   0  0  0  0  0  0
  -21.6011   -4.3215   24.7063 C   0  0  0  0  0  0
  -21.8756   -3.8306   23.4182 C   0  0  0  0  0  0
  -21.9235   -4.7141   22.3232 C   0  0  0  0  0  0
  -22.7721  -13.5196   21.5001 C   0  0  0  0  0  0
  -22.1717   -4.2262   21.0839 F   0  0  0  0  0  0
  -21.5582   -3.4683   25.7571 F   0  0  0  0  0  0
  -30.0427  -12.8052   20.4503 N   0  0  0  0  0  0
  -26.5449  -13.4384   19.6637 N   0  0  0  0  0  0
  -25.1331  -13.0996   20.8942 N   0  0  0  0  0  0
  -22.0726  -12.7744   22.3480 N   0  0  0  0  0  0
  -26.4300  -15.1371   19.5052 N   0  0  0  0  0  0
  -30.7562  -14.7209   21.1161 O   0  0  0  0  0  0
  -21.7071   -6.9213   21.3978 O   0  0  0  0  0  0
  -22.0925  -14.3885   20.9329 O   0  0  0  0  0  0
  -24.6383  -31.8490   23.2072 C   0  0  0  0  0  0
  -25.9197  -32.4713   23.8359 C   0  0  1  0  0  0
  -27.0516  -27.1365   20.1703 C   0  0  0  0  0  0
  -25.5989  -33.8531   24.2236 N   0  0  0  0  0  0
  -23.4328  -30.4932   21.5482 C   0  0  2  0  0  0
  -24.8603  -28.9713   20.0750 C   0  0  0  0  0  0
  -22.7572  -29.4562   22.4810 C   0  0  0  0  0  0
  -18.0308  -28.1405   22.8478 C   0  0  0  0  0  0
  -24.1489  -36.7287   23.2633 C   0  0  0  0  0  0
  -25.9920  -30.7285   21.4089 C   0  0  0  0  0  0
  -26.0349  -29.3534   20.7363 C   0  0  0  0  0  0
  -27.1475  -28.4385   20.7897 C   0  0  0  0  0  0
  -25.9263  -26.9261   19.3512 C   0  0  0  0  0  0
  -24.8233  -27.7779   19.3537 C   0  0  0  0  0  0
  -23.6469  -29.8722   20.1470 C   0  0  0  0  0  0
  -25.4118  -36.3050   24.0301 C   0  0  1  0  0  0
  -20.5929  -28.3713   23.1232 C   0  0  2  0  0  0
  -20.6794  -26.9406   22.5413 C   0  0  0  0  0  0
  -19.5753  -26.6367   21.5243 C   0  0  0  0  0  0
  -18.1938  -26.7946   22.1641 C   0  0  0  0  0  0
  -19.1566  -28.8883   23.2846 C   0  0  0  0  0  0
  -18.9472  -30.1483   23.8867 C   0  0  0  0  0  0
  -17.6459  -30.6589   24.0562 C   0  0  0  0  0  0
  -25.9059  -34.9413   23.5049 C   0  0  0  0  0  0
  -16.5355  -29.9072   23.6338 C   0  0  0  0  0  0
  -16.7290  -28.6503   23.0343 C   0  0  0  0  0  0
  -26.4524  -31.6609   25.0811 C   0  0  0  0  0  0
  -25.3696  -31.3814   26.1505 C   0  0  0  0  0  0
  -27.0376  -30.2999   24.6407 C   0  0  0  0  0  0
  -27.6065  -32.4395   25.7569 C   0  0  0  0  0  0
  -27.5580  -37.1806   24.8448 C   0  0  0  0  0  0
  -21.4271  -29.3015   22.3589 N   0  0  0  0  0  0
  -26.4285  -37.3771   23.9398 N   0  0  0  0  0  0
  -24.7087  -31.0414   22.1086 N   0  0  0  0  0  0
  -23.4274  -28.8032   23.2854 O   0  0  0  0  0  0
  -27.8679  -25.9923   20.3959 O   0  0  0  0  0  0
  -26.5632  -34.8893   22.4624 O   0  0  0  0  0  0
  -23.5519  -32.1347   23.7322 O   0  0  0  0  0  0
  -23.9418  -14.0336   19.0777 C   0  0  0  0  0  0
  -26.4686  -11.3932   20.4813 C   0  0  0  0  0  0
  -24.4352  -15.4847   20.7652 C   0  0  0  0  0  0
  -25.9480  -14.8624   22.1774 C   0  0  0  0  0  0
  -27.0858  -13.0582   21.9734 C   0  0  0  0  0  0
  -24.8743  -12.0274   18.9833 C   0  0  0  0  0  0
  -24.1518  -17.0441   20.6806 C   0  0  0  0  0  0
  -26.3635  -20.5855   21.0024 C   0  0  0  0  0  0
  -26.4377  -15.8723   23.1835 C   0  0  0  0  0  0
  -24.6257  -19.9174   19.2820 C   0  0  0  0  0  0
  -23.9761  -20.1072   21.7311 C   0  0  0  0  0  0
  -27.3632  -23.1475   21.0117 C   0  0  0  0  0  0
  -27.1442  -24.6146   20.2726 C   0  0  0  0  0  0
  -25.0558  -19.6169   20.7389 C   0  0  0  0  0  0
  -28.6133  -13.7046   22.1194 N   0  0  0  0  0  0
  -25.1288  -18.0502   20.8963 N   0  0  0  0  0  0
  -26.3463  -21.9791   20.7735 N   0  0  0  0  0  0
  -23.0176  -17.3715   20.3334 O   0  0  0  0  0  0
  -27.3864  -20.0518   21.4286 O   0  0  0  0  0  0
  -24.5421  -11.1846   17.9720 F   0  0  0  0  0  0
  -31.5767  -13.3161   19.0829 H   0  0  0  0  0  0
  -31.2474  -11.6285   19.2298 H   0  0  0  0  0  0
  -30.1408  -11.9258   17.1613 H   0  0  0  0  0  0
  -29.9931  -13.6219   17.4070 H   0  0  0  0  0  0
  -27.9025  -11.5146   18.0094 H   0  0  0  0  0  0
  -27.7338  -13.1033   17.3157 H   0  0  0  0  0  0
  -28.4945  -14.1019   19.2825 H   0  0  0  0  0  0
  -29.0993  -11.1413   19.7544 H   0  0  0  0  0  0
  -28.6972  -11.5704   21.2194 H   0  0  0  0  0  0
  -25.2086   -9.6091   22.6969 H   0  0  0  0  0  0
  -24.0290   -7.4663   22.7311 H   0  0  0  0  0  0
  -21.1831   -8.9886   19.8766 H   0  0  0  0  0  0
  -22.3776  -11.1558   19.8461 H   0  0  0  0  0  0
  -21.2290   -7.6366   23.9551 H   0  0  0  0  0  0
  -21.1496   -6.0731   25.8879 H   0  0  0  0  0  0
  -22.0512   -2.7779   23.2648 H   0  0  0  0  0  0
  -22.4935  -12.0202   22.8656 H   0  0  0  0  0  0
  -21.0917  -12.9693   22.4869 H   0  0  0  0  0  0
  -25.8819  -15.9807   19.4958 H   0  0  0  0  0  0
  -27.0956  -15.0830   18.7507 H   0  0  0  0  0  0
  -26.7243  -32.5287   23.1060 H   0  0  0  0  0  0
  -25.0147  -33.9682   25.0382 H   0  0  0  0  0  0
  -22.7247  -31.3156   21.4225 H   0  0  0  0  0  0
  -23.3760  -35.9614   23.3276 H   0  0  0  0  0  0
  -24.3567  -36.8952   22.2054 H   0  0  0  0  0  0
  -23.7231  -37.6473   23.6677 H   0  0  0  0  0  0
  -26.1625  -31.4946   20.6505 H   0  0  0  0  0  0
  -26.8616  -30.7519   22.0542 H   0  0  0  0  0  0
  -28.0063  -28.6739   21.4039 H   0  0  0  0  0  0
  -25.8023  -26.0309   18.7608 H   0  0  0  0  0  0
  -23.9465  -27.5101   18.7797 H   0  0  0  0  0  0
  -23.7750  -30.6670   19.4114 H   0  0  0  0  0  0
  -22.7606  -29.3211   19.8264 H   0  0  0  0  0  0
  -25.1296  -36.1890   25.0796 H   0  0  0  0  0  0
  -21.0034  -28.3334   24.1351 H   0  0  0  0  0  0
  -20.5745  -26.2307   23.3632 H   0  0  0  0  0  0
  -21.6639  -26.7416   22.1161 H   0  0  0  0  0  0
  -19.6876  -25.6278   21.1269 H   0  0  0  0  0  0
  -19.6704  -27.3186   20.6791 H   0  0  0  0  0  0
  -17.4205  -26.6725   21.4045 H   0  0  0  0  0  0
  -18.0294  -26.0118   22.9057 H   0  0  0  0  0  0
  -19.7932  -30.7332   24.2217 H   0  0  0  0  0  0
  -17.4981  -31.6263   24.5171 H   0  0  0  0  0  0
  -15.5343  -30.2926   23.7681 H   0  0  0  0  0  0
  -15.8711  -28.0806   22.7024 H   0  0  0  0  0  0
  -24.5882  -30.7149   25.7842 H   0  0  0  0  0  0
  -24.8887  -32.2996   26.4881 H   0  0  0  0  0  0
  -25.7977  -30.9039   27.0319 H   0  0  0  0  0  0
  -26.2993  -29.6741   24.1386 H   0  0  0  0  0  0
  -27.3913  -29.7317   25.5013 H   0  0  0  0  0  0
  -27.8946  -30.4245   23.9790 H   0  0  0  0  0  0
  -27.2669  -33.3718   26.2096 H   0  0  0  0  0  0
  -28.3896  -32.6926   25.0407 H   0  0  0  0  0  0
  -28.0696  -31.8562   26.5532 H   0  0  0  0  0  0
  -28.2553  -38.0153   24.7525 H   0  0  0  0  0  0
  -28.1122  -36.2670   24.6221 H   0  0  0  0  0  0
  -27.2303  -37.1385   25.8857 H   0  0  0  0  0  0
  -20.9454  -29.8826   21.6871 H   0  0  0  0  0  0
  -26.0151  -38.2832   24.1454 H   0  0  0  0  0  0
  -23.2707  -14.3449   18.2947 H   0  0  0  0  0  0
  -26.9993  -10.4620   20.3412 H   0  0  0  0  0  0
  -25.5947  -16.4234   23.5988 H   0  0  0  0  0  0
  -27.1190  -16.5726   22.7027 H   0  0  0  0  0  0
  -26.9541  -15.3671   24.0002 H   0  0  0  0  0  0
  -24.4699  -20.9823   19.0991 H   0  0  0  0  0  0
  -23.6938  -19.4245   19.0105 H   0  0  0  0  0  0
  -25.3853  -19.5734   18.5791 H   0  0  0  0  0  0
  -24.0237  -21.1822   21.9105 H   0  0  0  0  0  0
  -24.0943  -19.6194   22.7012 H   0  0  0  0  0  0
  -22.9666  -19.8957   21.3744 H   0  0  0  0  0  0
  -27.3364  -23.3389   22.0857 H   0  0  0  0  0  0
  -28.3696  -22.7770   20.8156 H   0  0  0  0  0  0
  -26.1070  -24.7968   20.5515 H   0  0  0  0  0  0
  -27.1441  -24.3939   19.2045 H   0  0  0  0  0  0
  -28.6147  -14.4531   22.7959 H   0  0  0  0  0  0
  -26.0344  -17.7176   21.2003 H   0  0  0  0  0  0
  -25.4449  -22.3007   20.4513 H   0  0  0  0  0  0
  1 25  1  0  0  0
  1 30  2  0  0  0
  1 85  1  0  0  0
  2  3  1  0  0  0
  2 25  1  0  0  0
  2 91  1  0  0  0
  2 92  1  0  0  0
  3  4  1  0  0  0
  3 93  1  0  0  0
  3 94  1  0  0  0
  4  5  1  0  0  0
  4 95  1  0  0  0
  4 96  1  0  0  0
  5  6  1  0  0  0
  5 26  1  0  0  0
  5 97  1  0  0  0
  6 25  1  0  0  0
  6 98  1  0  0  0
  6 99  1  0  0  0
  7  8  2  0  0  0
  7 26  1  0  0  0
  7 29  1  0  0  0
  8  9  1  0  0  0
  8 22  1  0  0  0
  9 10  1  0  0  0
  9 27  2  0  0  0
 10 11  2  0  0  0
 10 15  1  0  0  0
 11 12  1  0  0  0
 11100  1  0  0  0
 12 13  2  0  0  0
 12101  1  0  0  0
 13 14  1  0  0  0
 13 31  1  0  0  0
 14 15  2  0  0  0
 14102  1  0  0  0
 15103  1  0  0  0
 16 17  2  0  0  0
 16 21  1  0  0  0
 16 31  1  0  0  0
 17 18  1  0  0  0
 17104  1  0  0  0
 18 19  2  0  0  0
 18105  1  0  0  0
 19 20  1  0  0  0
 19 24  1  0  0  0
 20 21  2  0  0  0
 20106  1  0  0  0
 21 23  1  0  0  0
 22 28  1  0  0  0
 22 32  2  0  0  0
 26 27  1  0  0  0
 28107  1  0  0  0
 28108  1  0  0  0
 29109  1  0  0  0
 29110  1  0  0  0
 33 34  1  0  0  0
 33 66  1  0  0  0
 33 70  2  0  0  0
 34 36  1  0  0  0
 34 59  1  0  0  0
 34111  1  0  0  0
 35 44  2  0  0  0
 35 45  1  0  0  0
 35 68  1  0  0  0
 36 56  1  0  0  0
 36112  1  0  0  0
 37 39  1  0  0  0
 37 47  1  0  0  0
 37 66  1  0  0  0
 37113  1  0  0  0
 38 43  2  0  0  0
 38 46  1  0  0  0
 38 47  1  0  0  0
 39 64  1  0  0  0
 39 67  2  0  0  0
 40 52  1  0  0  0
 40 53  2  0  0  0
 40 58  1  0  0  0
 41114  1  0  0  0
 41115  1  0  0  0
 41116  1  0  0  0
 41 48  1  0  0  0
 42 43  1  0  0  0
 42 66  1  0  0  0
 42117  1  0  0  0
 42118  1  0  0  0
 43 44  1  0  0  0
 44119  1  0  0  0
 45 46  2  0  0  0
 45120  1  0  0  0
 46121  1  0  0  0
 47122  1  0  0  0
 47123  1  0  0  0
 48 56  1  0  0  0
 48 65  1  0  0  0
 48124  1  0  0  0
 49 50  1  0  0  0
 49 53  1  0  0  0
 49 64  1  0  0  0
 49125  1  0  0  0
 50 51  1  0  0  0
 50126  1  0  0  0
 50127  1  0  0  0
 51 52  1  0  0  0
 51128  1  0  0  0
 51129  1  0  0  0
 52130  1  0  0  0
 52131  1  0  0  0
 53 54  1  0  0  0
 54 55  2  0  0  0
 54132  1  0  0  0
 55 57  1  0  0  0
 55133  1  0  0  0
 56 69  2  0  0  0
 57 58  2  0  0  0
 57134  1  0  0  0
 58135  1  0  0  0
 59 60  1  0  0  0
 59 61  1  0  0  0
 59 62  1  0  0  0
 60136  1  0  0  0
 60137  1  0  0  0
 60138  1  0  0  0
 61139  1  0  0  0
 61140  1  0  0  0
 61141  1  0  0  0
 62142  1  0  0  0
 62143  1  0  0  0
 62144  1  0  0  0
 63 65  1  0  0  0
 63145  1  0  0  0
 63146  1  0  0  0
 63147  1  0  0  0
 64148  1  0  0  0
 65149  1  0  0  0
 68 83  1  0  0  0
 71 73  2  0  0  0
 71 76  1  0  0  0
 71150  1  0  0  0
 72 75  1  0  0  0
 72 76  2  0  0  0
 72151  1  0  0  0
 73 74  1  0  0  0
 73 77  1  0  0  0
 74 75  2  0  0  0
 74 79  1  0  0  0
 75 85  1  0  0  0
 76 90  1  0  0  0
 77 86  1  0  0  0
 77 88  2  0  0  0
 78 84  1  0  0  0
 78 87  1  0  0  0
 78 89  2  0  0  0
 79152  1  0  0  0
 79153  1  0  0  0
 79154  1  0  0  0
 80155  1  0  0  0
 80156  1  0  0  0
 80157  1  0  0  0
 80 84  1  0  0  0
 81 84  1  0  0  0
 81158  1  0  0  0
 81159  1  0  0  0
 81160  1  0  0  0
 82 83  1  0  0  0
 82 87  1  0  0  0
 82161  1  0  0  0
 82162  1  0  0  0
 83163  1  0  0  0
 83164  1  0  0  0
 84 86  1  0  0  0
 85165  1  0  0  0
 86166  1  0  0  0
 87167  1  0  0  0
M  ISO  4   1 100  68 101  83 101  85 100
M  END
> <chiral flag>
0

> <version>
0

> <s_m_source_file>
/data/baiqing/PycharmProjects/Reinvent-master-3.2/result/LINK_invent/BTK/process_docking_weight1_custom_product_contain_oxygen_bond_distance_aromatic_linkinvent_7_9_3/rearranged_h_0051.sdf

> <i_m_source_file_index>
74

> <r_mmod_Potential_Energy-OPLS-2005>
18147.59765625

> <r_mmod_Stretch_Energy-OPLS-2005>
10387.0634765625

> <r_mmod_Bend_Energy-OPLS-2005>
1866.76428222656

> <r_mmod_Torsional_Energy-OPLS-2005>
552.677307128906

> <r_mmod_Improper_Torsional_Energy-OPLS-2005>
86.6183013916016

> <r_mmod_Van_der_Waal_Energy-OPLS-2005>
4521.47998046875

> <r_mmod_Electrostatic_Energy-OPLS-2005>
-535.738403320312

> <r_mmod_Solvation_Energy-OPLS-2005>
-260.811279296875

> <b_mmod_Minimization_Converged-OPLS-2005>
0

> <r_mmod_RMS_Derivative-OPLS-2005>
8.13381385803223

$$$$
74
                    3D
 Structure written by MMmdl.
167176  0  0  1  0            999 V2000
  -30.6421  -14.6137   20.5142 C   0  0  0  0  0  0
  -30.4213  -12.3798   19.4507 C   0  0  0  0  0  0
  -29.4988  -12.5185   18.2205 C   0  0  0  0  0  0
  -28.0198  -12.3685   18.6272 C   0  0  0  0  0  0
  -27.6474  -13.2276   19.8659 C   0  0  2  0  0  0
  -28.6920  -13.0779   20.9950 C   0  0  0  0  0  0
  -25.2481  -13.8214   20.5679 C   0  0  0  0  0  0
  -24.1799  -13.0455   20.9205 C   0  0  0  0  0  0
  -24.6388  -11.6923   20.8746 C   0  0  0  0  0  0
  -23.9070  -10.4298   21.0396 C   0  0  0  0  0  0
  -24.3632   -9.4225   21.9190 C   0  0  0  0  0  0
  -23.6293   -8.2274   22.0771 C   0  0  0  0  0  0
  -22.4273   -8.0307   21.3572 C   0  0  0  0  0  0
  -21.9904   -9.0278   20.4665 C   0  0  0  0  0  0
  -22.7241  -10.2144   20.3055 C   0  0  0  0  0  0
  -21.6875   -6.0752   22.5280 C   0  0  0  0  0  0
  -21.4030   -6.5647   23.8213 C   0  0  0  0  0  0
  -21.3651   -5.6798   24.9179 C   0  0  0  0  0  0
  -21.6036   -4.3059   24.7225 C   0  0  0  0  0  0
  -21.8815   -3.8164   23.4341 C   0  0  0  0  0  0
  -21.9194   -4.6987   22.3399 C   0  0  0  0  0  0
  -22.7809  -13.5226   21.1855 C   0  0  0  0  0  0
  -22.1655   -4.2186   21.0973 F   0  0  0  0  0  0
  -21.5635   -3.4518   25.7716 F   0  0  0  0  0  0
  -30.0039  -13.4075   20.4238 N   0  0  0  0  0  0
  -26.2947  -12.9424   20.3344 N   0  0  0  0  0  0
  -25.9316  -11.6564   20.5783 N   0  0  0  0  0  0
  -22.0470  -12.8203   22.0405 N   0  0  0  0  0  0
  -25.4130  -15.1954   20.4031 N   0  0  0  0  0  0
  -31.8117  -14.7355   20.1390 O   0  0  0  0  0  0
  -21.6662   -6.8887   21.4245 O   0  0  0  0  0  0
  -22.3471  -14.5524   20.6696 O   0  0  0  0  0  0
  -24.6288  -31.8594   23.2024 C   0  0  0  0  0  0
  -25.9139  -32.4761   23.8346 C   0  0  1  0  0  0
  -27.2198  -27.3319   20.1037 C   0  0  0  0  0  0
  -25.5939  -33.8569   24.2257 N   0  0  0  0  0  0
  -23.4174  -30.4829   21.5499 C   0  0  2  0  0  0
  -24.8561  -28.9371   20.1126 C   0  0  0  0  0  0
  -22.7462  -29.4634   22.5000 C   0  0  0  0  0  0
  -18.0277  -28.1384   22.8504 C   0  0  0  0  0  0
  -24.1485  -36.7302   23.2634 C   0  0  0  0  0  0
  -25.9565  -30.7918   21.3687 C   0  0  0  0  0  0
  -26.0266  -29.4229   20.7075 C   0  0  0  0  0  0
  -27.2109  -28.6324   20.6899 C   0  0  0  0  0  0
  -26.0236  -26.8924   19.4902 C   0  0  0  0  0  0
  -24.8548  -27.6756   19.4983 C   0  0  0  0  0  0
  -23.6236  -29.8146   20.1665 C   0  0  0  0  0  0
  -25.4107  -36.3073   24.0316 C   0  0  1  0  0  0
  -20.5872  -28.3685   23.1318 C   0  0  2  0  0  0
  -20.6770  -26.9412   22.5431 C   0  0  0  0  0  0
  -19.5748  -26.6386   21.5231 C   0  0  0  0  0  0
  -18.1926  -26.7936   22.1635 C   0  0  0  0  0  0
  -19.1528  -28.8855   23.2902 C   0  0  0  0  0  0
  -18.9443  -30.1455   23.8923 C   0  0  0  0  0  0
  -17.6443  -30.6587   24.0579 C   0  0  0  0  0  0
  -25.9048  -34.9445   23.5078 C   0  0  0  0  0  0
  -16.5337  -29.9082   23.6339 C   0  0  0  0  0  0
  -16.7263  -28.6495   23.0372 C   0  0  0  0  0  0
  -26.4497  -31.6593   25.0740 C   0  0  0  0  0  0
  -25.3715  -31.3752   26.1449 C   0  0  0  0  0  0
  -27.0330  -30.3006   24.6228 C   0  0  0  0  0  0
  -27.6033  -32.4342   25.7547 C   0  0  0  0  0  0
  -27.5568  -37.1805   24.8452 C   0  0  0  0  0  0
  -21.4181  -29.3043   22.3721 N   0  0  0  0  0  0
  -26.4278  -37.3769   23.9395 N   0  0  0  0  0  0
  -24.6863  -31.0608   22.0976 N   0  0  0  0  0  0
  -23.4177  -28.8181   23.3093 O   0  0  0  0  0  0
  -28.3585  -26.5166   20.1589 O   0  0  0  0  0  0
  -26.5630  -34.8918   22.4653 O   0  0  0  0  0  0
  -23.5462  -32.1407   23.7368 O   0  0  0  0  0  0
  -29.3289  -18.1935   20.8579 C   0  0  0  0  0  0
  -31.5330  -17.4215   21.4780 C   0  0  0  0  0  0
  -29.6703  -19.5639   21.1463 C   0  0  0  0  0  0
  -31.9131  -18.7443   21.7826 C   0  0  0  0  0  0
  -30.9781  -19.8126   21.6711 C   0  0  0  0  0  0
  -30.2413  -17.0984   21.0254 C   0  0  0  0  0  0
  -29.4872  -22.8066   19.6898 C   0  0  0  0  0  0
  -29.8830  -22.0922   18.6192 C   0  0  0  0  0  0
  -29.6235  -24.3408   19.8315 C   0  0  0  0  0  0
  -27.3586  -24.2797   20.9242 C   0  0  0  0  0  0
  -27.9930  -23.0662   21.6997 C   0  0  0  0  0  0
  -28.2554  -25.0629   19.9176 C   0  0  1  0  0  0
  -31.3883  -21.1935   22.1789 C   0  0  0  0  0  0
  -28.5692  -20.6831   20.9573 C   0  0  0  0  0  0
  -33.3426  -18.9762   22.2711 C   0  0  0  0  0  0
  -29.8634  -15.7032   20.8156 N   0  0  0  0  0  0
  -28.9364  -22.1660   20.9462 N   0  3  2  0  0  0
  -34.1484  -17.9560   21.9735 F   0  0  0  0  0  0
  -33.3451  -19.1496   23.5918 F   0  0  0  0  0  0
  -31.4655  -12.4875   19.1502 H   0  0  0  0  0  0
  -30.3378  -11.3859   19.8924 H   0  0  0  0  0  0
  -29.7564  -11.7787   17.4615 H   0  0  0  0  0  0
  -29.6577  -13.4923   17.7553 H   0  0  0  0  0  0
  -27.8444  -11.3127   18.8369 H   0  0  0  0  0  0
  -27.3712  -12.6255   17.7891 H   0  0  0  0  0  0
  -27.6636  -14.2679   19.5366 H   0  0  0  0  0  0
  -28.6955  -12.0583   21.3858 H   0  0  0  0  0  0
  -28.4471  -13.7217   21.8400 H   0  0  0  0  0  0
  -25.2783   -9.5719   22.4751 H   0  0  0  0  0  0
  -24.0025   -7.4664   22.7477 H   0  0  0  0  0  0
  -21.0865   -8.8776   19.8930 H   0  0  0  0  0  0
  -22.3725  -10.9678   19.6130 H   0  0  0  0  0  0
  -21.2035   -7.6151   23.9728 H   0  0  0  0  0  0
  -21.1464   -6.0537   25.9088 H   0  0  0  0  0  0
  -22.0593   -2.7628   23.2847 H   0  0  0  0  0  0
  -22.4093  -11.9851   22.4774 H   0  0  0  0  0  0
  -21.1092  -13.1230   22.2622 H   0  0  0  0  0  0
  -24.6352  -15.8414   20.4814 H   0  0  0  0  0  0
  -26.2537  -15.6343   20.0520 H   0  0  0  0  0  0
  -26.7220  -32.5398   23.1102 H   0  0  0  0  0  0
  -25.0076  -33.9713   25.0396 H   0  0  0  0  0  0
  -22.7117  -31.3038   21.4096 H   0  0  0  0  0  0
  -23.3730  -35.9648   23.3291 H   0  0  0  0  0  0
  -24.3578  -36.8942   22.2047 H   0  0  0  0  0  0
  -23.7263  -37.6507   23.6683 H   0  0  0  0  0  0
  -26.0861  -31.5540   20.5993 H   0  0  0  0  0  0
  -26.8387  -30.8378   21.9964 H   0  0  0  0  0  0
  -28.1145  -29.0025   21.1518 H   0  0  0  0  0  0
  -25.9524  -25.9310   19.0069 H   0  0  0  0  0  0
  -23.9551  -27.2920   19.0369 H   0  0  0  0  0  0
  -23.7354  -30.5876   19.4058 H   0  0  0  0  0  0
  -22.7417  -29.2420   19.8743 H   0  0  0  0  0  0
  -25.1297  -36.1906   25.0810 H   0  0  0  0  0  0
  -20.9955  -28.3250   24.1443 H   0  0  0  0  0  0
  -20.5688  -26.2292   23.3628 H   0  0  0  0  0  0
  -21.6636  -26.7469   22.1208 H   0  0  0  0  0  0
  -19.6897  -25.6289   21.1282 H   0  0  0  0  0  0
  -19.6678  -27.3194   20.6757 H   0  0  0  0  0  0
  -17.4192  -26.6709   21.4030 H   0  0  0  0  0  0
  -18.0296  -26.0070   22.9023 H   0  0  0  0  0  0
  -19.7899  -30.7282   24.2303 H   0  0  0  0  0  0
  -17.4980  -31.6277   24.5157 H   0  0  0  0  0  0
  -15.5340  -30.2986   23.7653 H   0  0  0  0  0  0
  -15.8662  -28.0811   22.7113 H   0  0  0  0  0  0
  -24.5888  -30.7099   25.7776 H   0  0  0  0  0  0
  -24.8904  -32.2927   26.4856 H   0  0  0  0  0  0
  -25.8013  -30.8941   27.0244 H   0  0  0  0  0  0
  -26.2916  -29.6786   24.1191 H   0  0  0  0  0  0
  -27.3923  -29.7242   25.4767 H   0  0  0  0  0  0
  -27.8836  -30.4258   23.9521 H   0  0  0  0  0  0
  -27.2610  -33.3642   26.2109 H   0  0  0  0  0  0
  -28.3879  -32.6909   25.0415 H   0  0  0  0  0  0
  -28.0669  -31.8484   26.5499 H   0  0  0  0  0  0
  -28.2570  -38.0117   24.7506 H   0  0  0  0  0  0
  -28.1090  -36.2649   24.6272 H   0  0  0  0  0  0
  -27.2300  -37.1439   25.8861 H   0  0  0  0  0  0
  -20.9358  -29.8732   21.6906 H   0  0  0  0  0  0
  -26.0153  -38.2841   24.1391 H   0  0  0  0  0  0
  -28.3237  -17.9809   20.5215 H   0  0  0  0  0  0
  -32.2532  -16.6304   21.6310 H   0  0  0  0  0  0
  -30.3098  -22.5781   17.7542 H   0  0  0  0  0  0
  -29.8069  -21.0162   18.5797 H   0  0  0  0  0  0
  -30.1886  -24.7288   18.9845 H   0  0  0  0  0  0
  -30.2261  -24.5617   20.7129 H   0  0  0  0  0  0
  -26.9644  -24.9754   21.6662 H   0  0  0  0  0  0
  -26.4814  -23.9182   20.3853 H   0  0  0  0  0  0
  -27.1873  -22.5022   22.1691 H   0  0  0  0  0  0
  -28.5714  -23.4680   22.5319 H   0  0  0  0  0  0
  -27.8315  -24.9323   18.9211 H   0  0  0  0  0  0
  -31.5466  -21.8848   21.3517 H   0  0  0  0  0  0
  -32.3051  -21.1939   22.7647 H   0  0  0  0  0  0
  -30.6320  -21.5900   22.8556 H   0  0  0  0  0  0
  -27.8852  -20.5026   21.7854 H   0  0  0  0  0  0
  -27.9815  -20.4677   20.0643 H   0  0  0  0  0  0
  -33.7949  -19.8545   21.8063 H   0  0  0  0  0  0
  -28.8801  -15.4979   20.9053 H   0  0  0  0  0  0
  -29.7127  -22.1355   21.5925 H   0  0  0  0  0  0
  1 25  1  0  0  0
  1 30  2  0  0  0
  1 86  1  0  0  0
  2  3  1  0  0  0
  2 25  1  0  0  0
  2 90  1  0  0  0
  2 91  1  0  0  0
  3  4  1  0  0  0
  3 92  1  0  0  0
  3 93  1  0  0  0
  4  5  1  0  0  0
  4 94  1  0  0  0
  4 95  1  0  0  0
  5  6  1  0  0  0
  5 26  1  0  0  0
  5 96  1  0  0  0
  6 25  1  0  0  0
  6 97  1  0  0  0
  6 98  1  0  0  0
  7  8  2  0  0  0
  7 26  1  0  0  0
  7 29  1  0  0  0
  8  9  1  0  0  0
  8 22  1  0  0  0
  9 10  1  0  0  0
  9 27  2  0  0  0
 10 11  2  0  0  0
 10 15  1  0  0  0
 11 12  1  0  0  0
 11 99  1  0  0  0
 12 13  2  0  0  0
 12100  1  0  0  0
 13 14  1  0  0  0
 13 31  1  0  0  0
 14 15  2  0  0  0
 14101  1  0  0  0
 15102  1  0  0  0
 16 17  2  0  0  0
 16 21  1  0  0  0
 16 31  1  0  0  0
 17 18  1  0  0  0
 17103  1  0  0  0
 18 19  2  0  0  0
 18104  1  0  0  0
 19 20  1  0  0  0
 19 24  1  0  0  0
 20 21  2  0  0  0
 20105  1  0  0  0
 21 23  1  0  0  0
 22 28  1  0  0  0
 22 32  2  0  0  0
 26 27  1  0  0  0
 28106  1  0  0  0
 28107  1  0  0  0
 29108  1  0  0  0
 29109  1  0  0  0
 33 34  1  0  0  0
 33 66  1  0  0  0
 33 70  2  0  0  0
 34 36  1  0  0  0
 34 59  1  0  0  0
 34110  1  0  0  0
 35 44  2  0  0  0
 35 45  1  0  0  0
 35 68  1  0  0  0
 36 56  1  0  0  0
 36111  1  0  0  0
 37 39  1  0  0  0
 37 47  1  0  0  0
 37 66  1  0  0  0
 37112  1  0  0  0
 38 43  2  0  0  0
 38 46  1  0  0  0
 38 47  1  0  0  0
 39 64  1  0  0  0
 39 67  2  0  0  0
 40 52  1  0  0  0
 40 53  2  0  0  0
 40 58  1  0  0  0
 41113  1  0  0  0
 41114  1  0  0  0
 41115  1  0  0  0
 41 48  1  0  0  0
 42 43  1  0  0  0
 42 66  1  0  0  0
 42116  1  0  0  0
 42117  1  0  0  0
 43 44  1  0  0  0
 44118  1  0  0  0
 45 46  2  0  0  0
 45119  1  0  0  0
 46120  1  0  0  0
 47121  1  0  0  0
 47122  1  0  0  0
 48 56  1  0  0  0
 48 65  1  0  0  0
 48123  1  0  0  0
 49 50  1  0  0  0
 49 53  1  0  0  0
 49 64  1  0  0  0
 49124  1  0  0  0
 50 51  1  0  0  0
 50125  1  0  0  0
 50126  1  0  0  0
 51 52  1  0  0  0
 51127  1  0  0  0
 51128  1  0  0  0
 52129  1  0  0  0
 52130  1  0  0  0
 53 54  1  0  0  0
 54 55  2  0  0  0
 54131  1  0  0  0
 55 57  1  0  0  0
 55132  1  0  0  0
 56 69  2  0  0  0
 57 58  2  0  0  0
 57133  1  0  0  0
 58134  1  0  0  0
 59 60  1  0  0  0
 59 61  1  0  0  0
 59 62  1  0  0  0
 60135  1  0  0  0
 60136  1  0  0  0
 60137  1  0  0  0
 61138  1  0  0  0
 61139  1  0  0  0
 61140  1  0  0  0
 62141  1  0  0  0
 62142  1  0  0  0
 62143  1  0  0  0
 63 65  1  0  0  0
 63144  1  0  0  0
 63145  1  0  0  0
 63146  1  0  0  0
 64147  1  0  0  0
 65148  1  0  0  0
 68 82  1  0  0  0
 71 73  2  0  0  0
 71 76  1  0  0  0
 71149  1  0  0  0
 72 74  1  0  0  0
 72 76  2  0  0  0
 72150  1  0  0  0
 73 75  1  0  0  0
 73 84  1  0  0  0
 74 75  2  0  0  0
 74 85  1  0  0  0
 75 83  1  0  0  0
 76 86  1  0  0  0
 77 78  2  0  0  0
 77 79  1  0  0  0
 77 87  1  0  0  0
 78151  1  0  0  0
 78152  1  0  0  0
 79 82  1  0  0  0
 79153  1  0  0  0
 79154  1  0  0  0
 80 81  1  0  0  0
 80 82  1  0  0  0
 80155  1  0  0  0
 80156  1  0  0  0
 81 87  1  0  0  0
 81157  1  0  0  0
 81158  1  0  0  0
 82159  1  0  0  0
 83160  1  0  0  0
 83161  1  0  0  0
 83162  1  0  0  0
 84163  1  0  0  0
 84164  1  0  0  0
 84 87  1  0  0  0
 85 88  1  0  0  0
 85 89  1  0  0  0
 85165  1  0  0  0
 86166  1  0  0  0
 87167  1  0  0  0
M  CHG  1  87   1
M  ISO  4   1 100  68 101  82 101  86 100
M  END
> <chiral flag>
0

> <version>
0

> <s_m_source_file>
/data/baiqing/PycharmProjects/Reinvent-master-3.2/result/LINK_invent/BTK/process_docking_weight1_custom_product_contain_oxygen_bond_distance_aromatic_linkinvent_7_9_3/rearranged_h_0051.sdf

> <i_m_source_file_index>
75

> <r_mmod_Potential_Energy-OPLS-2005>
-1.70320248603821

> <r_mmod_Stretch_Energy-OPLS-2005>
80.2021408081055

> <r_mmod_Bend_Energy-OPLS-2005>
156.479553222656

> <r_mmod_Torsional_Energy-OPLS-2005>
256.131652832031

> <r_mmod_Improper_Torsional_Energy-OPLS-2005>
5.66287279129028

> <r_mmod_Van_der_Waal_Energy-OPLS-2005>
170.107833862305

> <r_mmod_Electrostatic_Energy-OPLS-2005>
-258.650543212891

> <r_mmod_Solvation_Energy-OPLS-2005>
-452.850189208984

> <b_mmod_Minimization_Converged-OPLS-2005>
0

> <r_mmod_RMS_Derivative-OPLS-2005>
3.28915572166443

$$$$
75
                    3D
 Structure written by MMmdl.
167176  0  0  1  0            999 V2000
  -30.6793  -14.5598   20.5540 C   0  0  0  0  0  0
  -30.4023  -12.3443   19.4580 C   0  0  0  0  0  0
  -29.4956  -12.5170   18.2220 C   0  0  0  0  0  0
  -28.0171  -12.3570   18.6269 C   0  0  0  0  0  0
  -27.6465  -13.2197   19.8624 C   0  0  2  0  0  0
  -28.6832  -13.0637   20.9982 C   0  0  0  0  0  0
  -25.2507  -13.8179   20.5691 C   0  0  0  0  0  0
  -24.1790  -13.0443   20.9191 C   0  0  0  0  0  0
  -24.6352  -11.6910   20.8719 C   0  0  0  0  0  0
  -23.9029  -10.4300   21.0413 C   0  0  0  0  0  0
  -24.3584   -9.4215   21.9194 C   0  0  0  0  0  0
  -23.6276   -8.2245   22.0740 C   0  0  0  0  0  0
  -22.4261   -8.0277   21.3531 C   0  0  0  0  0  0
  -21.9893   -9.0243   20.4637 C   0  0  0  0  0  0
  -22.7202  -10.2133   20.3051 C   0  0  0  0  0  0
  -21.6855   -6.0742   22.5286 C   0  0  0  0  0  0
  -21.4039   -6.5647   23.8219 C   0  0  0  0  0  0
  -21.3655   -5.6782   24.9174 C   0  0  0  0  0  0
  -21.6034   -4.3043   24.7225 C   0  0  0  0  0  0
  -21.8803   -3.8143   23.4346 C   0  0  0  0  0  0
  -21.9187   -4.6977   22.3402 C   0  0  0  0  0  0
  -22.7805  -13.5247   21.1890 C   0  0  0  0  0  0
  -22.1658   -4.2169   21.0981 F   0  0  0  0  0  0
  -21.5621   -3.4517   25.7736 F   0  0  0  0  0  0
  -30.0054  -13.3742   20.4405 N   0  0  0  0  0  0
  -26.2923  -12.9360   20.3280 N   0  0  0  0  0  0
  -25.9271  -11.6510   20.5707 N   0  0  0  0  0  0
  -22.0438  -12.8217   22.0432 N   0  0  0  0  0  0
  -25.4206  -15.1897   20.4137 N   0  0  0  0  0  0
  -31.8246  -14.6633   20.1121 O   0  0  0  0  0  0
  -21.6621   -6.8881   21.4240 O   0  0  0  0  0  0
  -22.3476  -14.5542   20.6737 O   0  0  0  0  0  0
  -24.6196  -31.8629   23.2114 C   0  0  0  0  0  0
  -25.9072  -32.4801   23.8419 C   0  0  1  0  0  0
  -27.2205  -27.3589   20.1312 C   0  0  0  0  0  0
  -25.5912  -33.8607   24.2343 N   0  0  0  0  0  0
  -23.4120  -30.4893   21.5481 C   0  0  2  0  0  0
  -24.8591  -28.9519   20.1128 C   0  0  0  0  0  0
  -22.7449  -29.4623   22.4931 C   0  0  0  0  0  0
  -18.0277  -28.1370   22.8485 C   0  0  0  0  0  0
  -24.1478  -36.7307   23.2638 C   0  0  0  0  0  0
  -25.9466  -30.8094   21.3751 C   0  0  0  0  0  0
  -26.0207  -29.4381   20.7242 C   0  0  0  0  0  0
  -27.2005  -28.6489   20.7316 C   0  0  0  0  0  0
  -26.0458  -26.9215   19.4810 C   0  0  0  0  0  0
  -24.8718  -27.6976   19.4836 C   0  0  0  0  0  0
  -23.6288  -29.8327   20.1588 C   0  0  0  0  0  0
  -25.4092  -36.3102   24.0346 C   0  0  1  0  0  0
  -20.5876  -28.3659   23.1304 C   0  0  2  0  0  0
  -20.6764  -26.9385   22.5419 C   0  0  0  0  0  0
  -19.5741  -26.6380   21.5214 C   0  0  0  0  0  0
  -18.1919  -26.7919   22.1622 C   0  0  0  0  0  0
  -19.1527  -28.8831   23.2898 C   0  0  0  0  0  0
  -18.9454  -30.1442   23.8907 C   0  0  0  0  0  0
  -17.6458  -30.6582   24.0567 C   0  0  0  0  0  0
  -25.9018  -34.9465   23.5134 C   0  0  0  0  0  0
  -16.5351  -29.9087   23.6318 C   0  0  0  0  0  0
  -16.7268  -28.6502   23.0337 C   0  0  0  0  0  0
  -26.4497  -31.6596   25.0755 C   0  0  0  0  0  0
  -25.3805  -31.3726   26.1551 C   0  0  0  0  0  0
  -27.0314  -30.3029   24.6147 C   0  0  0  0  0  0
  -27.6053  -32.4341   25.7525 C   0  0  0  0  0  0
  -27.5576  -37.1799   24.8459 C   0  0  0  0  0  0
  -21.4159  -29.3037   22.3705 N   0  0  0  0  0  0
  -26.4268  -37.3796   23.9433 N   0  0  0  0  0  0
  -24.6773  -31.0709   22.1021 N   0  0  0  0  0  0
  -23.4200  -28.8130   23.2962 O   0  0  0  0  0  0
  -28.3664  -26.5733   20.2170 O   0  0  0  0  0  0
  -26.5566  -34.8918   22.4687 O   0  0  0  0  0  0
  -23.5372  -32.1392   23.7477 O   0  0  0  0  0  0
  -31.8000  -17.3209   21.3558 C   0  0  0  0  0  0
  -29.5125  -18.1186   21.3990 C   0  0  0  0  0  0
  -32.2658  -18.6271   21.5886 C   0  0  0  0  0  0
  -29.9630  -19.4607   21.6571 C   0  0  0  0  0  0
  -31.3589  -19.7064   21.6971 C   0  0  0  0  0  0
  -30.4242  -17.0208   21.2272 C   0  0  0  0  0  0
  -28.6456  -23.0176   21.3785 C   0  0  0  0  0  0
  -27.2341  -22.1412   19.0415 C   0  0  0  0  0  0
  -26.6115  -23.2778   19.8546 C   0  0  0  0  0  0
  -27.8068  -21.0934   20.0017 C   0  0  0  0  0  0
  -27.6984  -24.0426   20.6438 C   0  0  2  0  0  0
  -33.7576  -18.8447   21.7797 C   0  0  0  0  0  0
  -31.8901  -21.1158   21.9362 C   0  0  0  0  0  0
  -28.9895  -20.6013   22.0919 C   0  0  0  0  0  0
  -28.3964  -25.1758   19.7788 C   0  0  0  0  0  0
  -28.5656  -21.6618   21.1236 N   0  0  0  0  0  0
  -29.9740  -15.6474   21.0084 N   0  0  0  0  0  0
  -29.3857  -23.4644   22.2595 O   0  0  0  0  0  0
  -31.4570  -12.4050   19.1817 H   0  0  0  0  0  0
  -30.2657  -11.3470   19.8811 H   0  0  0  0  0  0
  -29.7600  -11.7939   17.4499 H   0  0  0  0  0  0
  -29.6495  -13.5040   17.7824 H   0  0  0  0  0  0
  -27.8502  -11.3044   18.8556 H   0  0  0  0  0  0
  -27.3612  -12.5962   17.7890 H   0  0  0  0  0  0
  -27.6716  -14.2566   19.5277 H   0  0  0  0  0  0
  -28.6699  -12.0461   21.3913 H   0  0  0  0  0  0
  -28.4387  -13.7074   21.8421 H   0  0  0  0  0  0
  -25.2744   -9.5716   22.4739 H   0  0  0  0  0  0
  -24.0016   -7.4631   22.7427 H   0  0  0  0  0  0
  -21.0841   -8.8732   19.8933 H   0  0  0  0  0  0
  -22.3658  -10.9654   19.6134 H   0  0  0  0  0  0
  -21.2058   -7.6155   23.9740 H   0  0  0  0  0  0
  -21.1489   -6.0515   25.9080 H   0  0  0  0  0  0
  -22.0590   -2.7621   23.2821 H   0  0  0  0  0  0
  -22.4048  -11.9897   22.4852 H   0  0  0  0  0  0
  -21.1042  -13.1227   22.2614 H   0  0  0  0  0  0
  -24.6511  -15.8400   20.5272 H   0  0  0  0  0  0
  -26.2644  -15.6275   20.0666 H   0  0  0  0  0  0
  -26.7124  -32.5507   23.1160 H   0  0  0  0  0  0
  -25.0134  -33.9773   25.0542 H   0  0  0  0  0  0
  -22.7034  -31.3082   21.4111 H   0  0  0  0  0  0
  -23.3736  -35.9640   23.3281 H   0  0  0  0  0  0
  -24.3579  -36.8939   22.2054 H   0  0  0  0  0  0
  -23.7223  -37.6509   23.6653 H   0  0  0  0  0  0
  -26.0692  -31.5733   20.6063 H   0  0  0  0  0  0
  -26.8311  -30.8625   21.9969 H   0  0  0  0  0  0
  -28.0908  -29.0125   21.2266 H   0  0  0  0  0  0
  -26.0113  -25.9807   18.9627 H   0  0  0  0  0  0
  -23.9859  -27.3232   18.9897 H   0  0  0  0  0  0
  -23.7590  -30.6160   19.4107 H   0  0  0  0  0  0
  -22.7484  -29.2704   19.8435 H   0  0  0  0  0  0
  -25.1257  -36.1958   25.0835 H   0  0  0  0  0  0
  -20.9977  -28.3228   24.1423 H   0  0  0  0  0  0
  -20.5658  -26.2259   23.3603 H   0  0  0  0  0  0
  -21.6636  -26.7420   22.1217 H   0  0  0  0  0  0
  -19.6900  -25.6297   21.1224 H   0  0  0  0  0  0
  -19.6691  -27.3202   20.6750 H   0  0  0  0  0  0
  -17.4195  -26.6667   21.4022 H   0  0  0  0  0  0
  -18.0321  -26.0067   22.9018 H   0  0  0  0  0  0
  -19.7933  -30.7250   24.2284 H   0  0  0  0  0  0
  -17.5016  -31.6256   24.5176 H   0  0  0  0  0  0
  -15.5350  -30.2997   23.7642 H   0  0  0  0  0  0
  -15.8661  -28.0847   22.7022 H   0  0  0  0  0  0
  -24.5917  -30.7108   25.7952 H   0  0  0  0  0  0
  -24.9082  -32.2899   26.5084 H   0  0  0  0  0  0
  -25.8223  -30.8863   27.0263 H   0  0  0  0  0  0
  -26.2838  -29.6804   24.1204 H   0  0  0  0  0  0
  -27.4065  -29.7258   25.4610 H   0  0  0  0  0  0
  -27.8704  -30.4331   23.9304 H   0  0  0  0  0  0
  -27.2619  -33.3611   26.2143 H   0  0  0  0  0  0
  -28.3853  -32.6963   25.0361 H   0  0  0  0  0  0
  -28.0732  -31.8455   26.5434 H   0  0  0  0  0  0
  -28.2570  -38.0119   24.7536 H   0  0  0  0  0  0
  -28.1088  -36.2650   24.6220 H   0  0  0  0  0  0
  -27.2309  -37.1394   25.8866 H   0  0  0  0  0  0
  -20.9288  -29.8822   21.6997 H   0  0  0  0  0  0
  -26.0147  -38.2859   24.1484 H   0  0  0  0  0  0
  -32.5448  -16.5403   21.3090 H   0  0  0  0  0  0
  -28.4497  -17.9243   21.3751 H   0  0  0  0  0  0
  -28.0258  -22.5290   18.3975 H   0  0  0  0  0  0
  -26.4994  -21.6766   18.3828 H   0  0  0  0  0  0
  -25.8843  -22.8618   20.5547 H   0  0  0  0  0  0
  -26.0356  -23.9283   19.2038 H   0  0  0  0  0  0
  -28.4347  -20.3899   19.4530 H   0  0  0  0  0  0
  -26.9821  -20.5141   20.4201 H   0  0  0  0  0  0
  -27.1771  -24.5622   21.4490 H   0  0  0  0  0  0
  -34.3065  -17.9050   21.8515 H   0  0  0  0  0  0
  -33.9422  -19.3940   22.7038 H   0  0  0  0  0  0
  -34.1643  -19.4179   20.9480 H   0  0  0  0  0  0
  -32.8896  -21.2637   21.5335 H   0  0  0  0  0  0
  -31.9148  -21.3354   23.0041 H   0  0  0  0  0  0
  -31.2786  -21.8618   21.4363 H   0  0  0  0  0  0
  -29.4291  -21.0735   22.9740 H   0  0  0  0  0  0
  -28.0890  -20.1345   22.4940 H   0  0  0  0  0  0
  -28.0643  -25.1220   18.7416 H   0  0  0  0  0  0
  -29.4551  -24.9243   19.7092 H   0  0  0  0  0  0
  -28.9983  -15.4658   21.1916 H   0  0  0  0  0  0
  1 25  1  0  0  0
  1 30  2  0  0  0
  1 87  1  0  0  0
  2  3  1  0  0  0
  2 25  1  0  0  0
  2 89  1  0  0  0
  2 90  1  0  0  0
  3  4  1  0  0  0
  3 91  1  0  0  0
  3 92  1  0  0  0
  4  5  1  0  0  0
  4 93  1  0  0  0
  4 94  1  0  0  0
  5  6  1  0  0  0
  5 26  1  0  0  0
  5 95  1  0  0  0
  6 25  1  0  0  0
  6 96  1  0  0  0
  6 97  1  0  0  0
  7  8  2  0  0  0
  7 26  1  0  0  0
  7 29  1  0  0  0
  8  9  1  0  0  0
  8 22  1  0  0  0
  9 10  1  0  0  0
  9 27  2  0  0  0
 10 11  2  0  0  0
 10 15  1  0  0  0
 11 12  1  0  0  0
 11 98  1  0  0  0
 12 13  2  0  0  0
 12 99  1  0  0  0
 13 14  1  0  0  0
 13 31  1  0  0  0
 14 15  2  0  0  0
 14100  1  0  0  0
 15101  1  0  0  0
 16 17  2  0  0  0
 16 21  1  0  0  0
 16 31  1  0  0  0
 17 18  1  0  0  0
 17102  1  0  0  0
 18 19  2  0  0  0
 18103  1  0  0  0
 19 20  1  0  0  0
 19 24  1  0  0  0
 20 21  2  0  0  0
 20104  1  0  0  0
 21 23  1  0  0  0
 22 28  1  0  0  0
 22 32  2  0  0  0
 26 27  1  0  0  0
 28105  1  0  0  0
 28106  1  0  0  0
 29107  1  0  0  0
 29108  1  0  0  0
 33 34  1  0  0  0
 33 66  1  0  0  0
 33 70  2  0  0  0
 34 36  1  0  0  0
 34 59  1  0  0  0
 34109  1  0  0  0
 35 44  2  0  0  0
 35 45  1  0  0  0
 35 68  1  0  0  0
 36 56  1  0  0  0
 36110  1  0  0  0
 37 39  1  0  0  0
 37 47  1  0  0  0
 37 66  1  0  0  0
 37111  1  0  0  0
 38 43  2  0  0  0
 38 46  1  0  0  0
 38 47  1  0  0  0
 39 64  1  0  0  0
 39 67  2  0  0  0
 40 52  1  0  0  0
 40 53  2  0  0  0
 40 58  1  0  0  0
 41112  1  0  0  0
 41113  1  0  0  0
 41114  1  0  0  0
 41 48  1  0  0  0
 42 43  1  0  0  0
 42 66  1  0  0  0
 42115  1  0  0  0
 42116  1  0  0  0
 43 44  1  0  0  0
 44117  1  0  0  0
 45 46  2  0  0  0
 45118  1  0  0  0
 46119  1  0  0  0
 47120  1  0  0  0
 47121  1  0  0  0
 48 56  1  0  0  0
 48 65  1  0  0  0
 48122  1  0  0  0
 49 50  1  0  0  0
 49 53  1  0  0  0
 49 64  1  0  0  0
 49123  1  0  0  0
 50 51  1  0  0  0
 50124  1  0  0  0
 50125  1  0  0  0
 51 52  1  0  0  0
 51126  1  0  0  0
 51127  1  0  0  0
 52128  1  0  0  0
 52129  1  0  0  0
 53 54  1  0  0  0
 54 55  2  0  0  0
 54130  1  0  0  0
 55 57  1  0  0  0
 55131  1  0  0  0
 56 69  2  0  0  0
 57 58  2  0  0  0
 57132  1  0  0  0
 58133  1  0  0  0
 59 60  1  0  0  0
 59 61  1  0  0  0
 59 62  1  0  0  0
 60134  1  0  0  0
 60135  1  0  0  0
 60136  1  0  0  0
 61137  1  0  0  0
 61138  1  0  0  0
 61139  1  0  0  0
 62140  1  0  0  0
 62141  1  0  0  0
 62142  1  0  0  0
 63 65  1  0  0  0
 63143  1  0  0  0
 63144  1  0  0  0
 63145  1  0  0  0
 64146  1  0  0  0
 65147  1  0  0  0
 68 85  1  0  0  0
 71 73  2  0  0  0
 71 76  1  0  0  0
 71148  1  0  0  0
 72 74  1  0  0  0
 72 76  2  0  0  0
 72149  1  0  0  0
 73 75  1  0  0  0
 73 82  1  0  0  0
 74 75  2  0  0  0
 74 84  1  0  0  0
 75 83  1  0  0  0
 76 87  1  0  0  0
 77 81  1  0  0  0
 77 86  1  0  0  0
 77 88  2  0  0  0
 78 79  1  0  0  0
 78 80  1  0  0  0
 78150  1  0  0  0
 78151  1  0  0  0
 79 81  1  0  0  0
 79152  1  0  0  0
 79153  1  0  0  0
 80 86  1  0  0  0
 80154  1  0  0  0
 80155  1  0  0  0
 81 85  1  0  0  0
 81156  1  0  0  0
 82157  1  0  0  0
 82158  1  0  0  0
 82159  1  0  0  0
 83160  1  0  0  0
 83161  1  0  0  0
 83162  1  0  0  0
 84 86  1  0  0  0
 84163  1  0  0  0
 84164  1  0  0  0
 85165  1  0  0  0
 85166  1  0  0  0
 87167  1  0  0  0
M  ISO  4   1 100  68 101  85 101  87 100
M  END
> <chiral flag>
0

> <version>
0

> <s_m_source_file>
/data/baiqing/PycharmProjects/Reinvent-master-3.2/result/LINK_invent/BTK/process_docking_weight1_custom_product_contain_oxygen_bond_distance_aromatic_linkinvent_7_9_3/rearranged_h_0051.sdf

> <i_m_source_file_index>
76

> <r_mmod_Potential_Energy-OPLS-2005>
70.8852691650391

> <r_mmod_Stretch_Energy-OPLS-2005>
73.2597961425781

> <r_mmod_Bend_Energy-OPLS-2005>
143.174346923828

> <r_mmod_Torsional_Energy-OPLS-2005>
242.937393188477

> <r_mmod_Improper_Torsional_Energy-OPLS-2005>
6.0914134979248

> <r_mmod_Van_der_Waal_Energy-OPLS-2005>
171.411682128906

> <r_mmod_Electrostatic_Energy-OPLS-2005>
-370.476745605469

> <r_mmod_Solvation_Energy-OPLS-2005>
-226.507080078125

> <b_mmod_Minimization_Converged-OPLS-2005>
0

> <r_mmod_RMS_Derivative-OPLS-2005>
4.0095911026001

$$$$
76
                    3D
 Structure written by MMmdl.
157165  0  0  1  0            999 V2000
  -30.7489  -14.4802   20.5767 C   0  0  0  0  0  0
  -30.4133  -12.3221   19.4159 C   0  0  0  0  0  0
  -29.4887  -12.5217   18.1992 C   0  0  0  0  0  0
  -28.0074  -12.4016   18.6060 C   0  0  0  0  0  0
  -27.6603  -13.2298   19.8767 C   0  0  2  0  0  0
  -28.7097  -13.0332   20.9929 C   0  0  0  0  0  0
  -25.2558  -13.8215   20.5712 C   0  0  0  0  0  0
  -24.1820  -13.0461   20.9172 C   0  0  0  0  0  0
  -24.6413  -11.6938   20.8705 C   0  0  0  0  0  0
  -23.9065  -10.4314   21.0371 C   0  0  0  0  0  0
  -24.3618   -9.4227   21.9151 C   0  0  0  0  0  0
  -23.6294   -8.2264   22.0744 C   0  0  0  0  0  0
  -22.4272   -8.0296   21.3535 C   0  0  0  0  0  0
  -21.9894   -9.0255   20.4625 C   0  0  0  0  0  0
  -22.7226  -10.2139   20.3023 C   0  0  0  0  0  0
  -21.6872   -6.0732   22.5274 C   0  0  0  0  0  0
  -21.4015   -6.5618   23.8206 C   0  0  0  0  0  0
  -21.3672   -5.6778   24.9163 C   0  0  0  0  0  0
  -21.6050   -4.3040   24.7219 C   0  0  0  0  0  0
  -21.8823   -3.8128   23.4339 C   0  0  0  0  0  0
  -21.9185   -4.6952   22.3390 C   0  0  0  0  0  0
  -22.7826  -13.5240   21.1841 C   0  0  0  0  0  0
  -22.1663   -4.2127   21.0977 F   0  0  0  0  0  0
  -21.5640   -3.4528   25.7732 F   0  0  0  0  0  0
  -30.0367  -13.3239   20.4284 N   0  0  0  0  0  0
  -26.3033  -12.9438   20.3396 N   0  0  0  0  0  0
  -25.9357  -11.6568   20.5716 N   0  0  0  0  0  0
  -22.0448  -12.8236   22.0383 N   0  0  0  0  0  0
  -25.4240  -15.1948   20.4203 N   0  0  0  0  0  0
  -31.8797  -14.6195   20.1061 O   0  0  0  0  0  0
  -21.6662   -6.8873   21.4233 O   0  0  0  0  0  0
  -22.3506  -14.5533   20.6678 O   0  0  0  0  0  0
  -24.6115  -31.8666   23.2055 C   0  0  0  0  0  0
  -25.8979  -32.4797   23.8372 C   0  0  1  0  0  0
  -27.2258  -27.4057   20.0823 C   0  0  0  0  0  0
  -25.5803  -33.8613   24.2244 N   0  0  0  0  0  0
  -23.3996  -30.4930   21.5462 C   0  0  2  0  0  0
  -24.8437  -28.9518   20.1169 C   0  0  0  0  0  0
  -22.7336  -29.4740   22.4966 C   0  0  0  0  0  0
  -18.0157  -28.1285   22.8416 C   0  0  0  0  0  0
  -24.1482  -36.7337   23.2616 C   0  0  0  0  0  0
  -25.9387  -30.8135   21.3812 C   0  0  0  0  0  0
  -26.0061  -29.4514   20.7167 C   0  0  0  0  0  0
  -27.1963  -28.6845   20.6946 C   0  0  0  0  0  0
  -26.0399  -26.9259   19.4792 C   0  0  0  0  0  0
  -24.8592  -27.6940   19.4918 C   0  0  0  0  0  0
  -23.6048  -29.8179   20.1643 C   0  0  0  0  0  0
  -25.4112  -36.3106   24.0283 C   0  0  1  0  0  0
  -20.5740  -28.3772   23.1247 C   0  0  2  0  0  0
  -20.6785  -26.9575   22.5284 C   0  0  0  0  0  0
  -19.5711  -26.6243   21.5235 C   0  0  0  0  0  0
  -18.1828  -26.7839   22.1525 C   0  0  0  0  0  0
  -19.1373  -28.8803   23.2843 C   0  0  0  0  0  0
  -18.9237  -30.1376   23.8842 C   0  0  0  0  0  0
  -17.6221  -30.6527   24.0451 C   0  0  0  0  0  0
  -25.9021  -34.9465   23.5086 C   0  0  0  0  0  0
  -16.5162  -29.9008   23.6150 C   0  0  0  0  0  0
  -16.7146  -28.6409   23.0226 C   0  0  0  0  0  0
  -26.4366  -31.6644   25.0780 C   0  0  0  0  0  0
  -25.3566  -31.3877   26.1507 C   0  0  0  0  0  0
  -27.0229  -30.3019   24.6342 C   0  0  0  0  0  0
  -27.5892  -32.4433   25.7564 C   0  0  0  0  0  0
  -27.5559  -37.1814   24.8436 C   0  0  0  0  0  0
  -21.4019  -29.3278   22.3825 N   0  0  0  0  0  0
  -26.4283  -37.3789   23.9366 N   0  0  0  0  0  0
  -24.6650  -31.0761   22.0975 N   0  0  0  0  0  0
  -23.4114  -28.8165   23.2908 O   0  0  0  0  0  0
  -28.4084  -26.6832   20.0850 O   0  0  0  0  0  0
  -26.5677  -34.8906   22.4695 O   0  0  0  0  0  0
  -23.5309  -32.1469   23.7415 O   0  0  0  0  0  0
  -29.5338  -20.4579   21.4318 C   0  0  0  0  0  0
  -30.2342  -19.2807   21.7633 C   0  0  0  0  0  0
  -29.1387  -18.1161   19.9417 C   0  0  0  0  0  0
  -28.6053  -20.4874   20.3608 C   0  0  0  0  0  0
  -30.0124  -18.0822   21.0523 C   0  0  0  0  0  0
  -28.4472  -19.3007   19.5828 C   0  0  0  0  0  0
  -27.7690  -21.7366   20.1762 C   0  0  0  0  0  0
  -27.5756  -19.2590   18.3339 C   0  0  0  0  0  0
  -30.7592  -16.8133   21.4881 C   0  0  0  0  0  0
  -27.9341  -24.2327   20.4556 C   0  0  0  0  0  0
  -28.4712  -25.3507   19.5243 C   0  0  0  0  0  0
  -28.4486  -22.8927   20.1098 N   0  0  0  0  0  0
  -30.1263  -15.5140   21.1764 N   0  0  0  0  0  0
  -26.5369  -21.6880   20.1931 O   0  0  0  0  0  0
  -31.4574  -12.4097   19.1084 H   0  0  0  0  0  0
  -30.3033  -11.3174   19.8243 H   0  0  0  0  0  0
  -29.7195  -11.7897   17.4244 H   0  0  0  0  0  0
  -29.6691  -13.5031   17.7565 H   0  0  0  0  0  0
  -27.7899  -11.3456   18.7695 H   0  0  0  0  0  0
  -27.3671  -12.7198   17.7782 H   0  0  0  0  0  0
  -27.6942  -14.2789   19.5824 H   0  0  0  0  0  0
  -28.6879  -12.0045   21.3565 H   0  0  0  0  0  0
  -28.4789  -13.6593   21.8551 H   0  0  0  0  0  0
  -25.2756   -9.5726   22.4727 H   0  0  0  0  0  0
  -24.0000   -7.4671   22.7492 H   0  0  0  0  0  0
  -21.0811   -8.8765   19.8943 H   0  0  0  0  0  0
  -22.3660  -10.9676   19.6130 H   0  0  0  0  0  0
  -21.2015   -7.6127   23.9696 H   0  0  0  0  0  0
  -21.1497   -6.0508   25.9070 H   0  0  0  0  0  0
  -22.0589   -2.7588   23.2843 H   0  0  0  0  0  0
  -22.4074  -11.9938   22.4831 H   0  0  0  0  0  0
  -21.1058  -13.1239   22.2540 H   0  0  0  0  0  0
  -24.6557  -15.8455   20.5469 H   0  0  0  0  0  0
  -26.2794  -15.6439   20.1167 H   0  0  0  0  0  0
  -26.7006  -32.5495   23.1101 H   0  0  0  0  0  0
  -24.9699  -33.9796   25.0203 H   0  0  0  0  0  0
  -22.6872  -31.3078   21.3923 H   0  0  0  0  0  0
  -23.3721  -35.9697   23.3334 H   0  0  0  0  0  0
  -24.3497  -36.8936   22.2008 H   0  0  0  0  0  0
  -23.7298  -37.6545   23.6675 H   0  0  0  0  0  0
  -26.0944  -31.5923   20.6314 H   0  0  0  0  0  0
  -26.8048  -30.8393   22.0339 H   0  0  0  0  0  0
  -28.0905  -29.0764   21.1532 H   0  0  0  0  0  0
  -26.0058  -25.9671   18.9833 H   0  0  0  0  0  0
  -23.9708  -27.3197   19.0031 H   0  0  0  0  0  0
  -23.6904  -30.5815   19.3909 H   0  0  0  0  0  0
  -22.7302  -29.2257   19.8912 H   0  0  0  0  0  0
  -25.1326  -36.1894   25.0770 H   0  0  0  0  0  0
  -20.9825  -28.3343   24.1373 H   0  0  0  0  0  0
  -20.6189  -26.2368   23.3414 H   0  0  0  0  0  0
  -21.6550  -26.7939   22.0767 H   0  0  0  0  0  0
  -19.7011  -25.6093   21.1491 H   0  0  0  0  0  0
  -19.6659  -27.2828   20.6633 H   0  0  0  0  0  0
  -17.4235  -26.6769   21.3748 H   0  0  0  0  0  0
  -18.0138  -25.9882   22.8804 H   0  0  0  0  0  0
  -19.7694  -30.7142   24.2228 H   0  0  0  0  0  0
  -17.4738  -31.6241   24.4943 H   0  0  0  0  0  0
  -15.5115  -30.2901   23.7349 H   0  0  0  0  0  0
  -15.8545  -28.0721   22.6931 H   0  0  0  0  0  0
  -24.5640  -30.7335   25.7825 H   0  0  0  0  0  0
  -24.8931  -32.3157   26.4899 H   0  0  0  0  0  0
  -25.7815  -30.9012   27.0314 H   0  0  0  0  0  0
  -26.2900  -29.6766   24.1226 H   0  0  0  0  0  0
  -27.3662  -29.7253   25.4960 H   0  0  0  0  0  0
  -27.8876  -30.4226   23.9803 H   0  0  0  0  0  0
  -27.2358  -33.3657   26.2206 H   0  0  0  0  0  0
  -28.3646  -32.7131   25.0377 H   0  0  0  0  0  0
  -28.0654  -31.8581   26.5450 H   0  0  0  0  0  0
  -28.2616  -38.0079   24.7483 H   0  0  0  0  0  0
  -28.1020  -36.2616   24.6298 H   0  0  0  0  0  0
  -27.2282  -37.1517   25.8839 H   0  0  0  0  0  0
  -20.9136  -29.9420   21.7445 H   0  0  0  0  0  0
  -26.0153  -38.2846   24.1364 H   0  0  0  0  0  0
  -29.6829  -21.3532   22.0248 H   0  0  0  0  0  0
  -30.9286  -19.2978   22.5945 H   0  0  0  0  0  0
  -29.0060  -17.2201   19.3484 H   0  0  0  0  0  0
  -27.3295  -18.2315   18.0637 H   0  0  0  0  0  0
  -28.1084  -19.6948   17.4880 H   0  0  0  0  0  0
  -26.6352  -19.7917   18.4492 H   0  0  0  0  0  0
  -30.9021  -16.8470   22.5691 H   0  0  0  0  0  0
  -31.7667  -16.8830   21.0759 H   0  0  0  0  0  0
  -26.8428  -24.2562   20.5147 H   0  0  0  0  0  0
  -28.2933  -24.4290   21.4651 H   0  0  0  0  0  0
  -28.0277  -25.2959   18.5267 H   0  0  0  0  0  0
  -29.5321  -25.1560   19.3638 H   0  0  0  0  0  0
  -29.4503  -22.8032   20.0156 H   0  0  0  0  0  0
  -29.1847  -15.3673   21.5071 H   0  0  0  0  0  0
  1 25  1  0  0  0
  1 30  2  0  0  0
  1 83  1  0  0  0
  2  3  1  0  0  0
  2 25  1  0  0  0
  2 85  1  0  0  0
  2 86  1  0  0  0
  3  4  1  0  0  0
  3 87  1  0  0  0
  3 88  1  0  0  0
  4  5  1  0  0  0
  4 89  1  0  0  0
  4 90  1  0  0  0
  5  6  1  0  0  0
  5 26  1  0  0  0
  5 91  1  0  0  0
  6 25  1  0  0  0
  6 92  1  0  0  0
  6 93  1  0  0  0
  7  8  2  0  0  0
  7 26  1  0  0  0
  7 29  1  0  0  0
  8  9  1  0  0  0
  8 22  1  0  0  0
  9 10  1  0  0  0
  9 27  2  0  0  0
 10 11  2  0  0  0
 10 15  1  0  0  0
 11 12  1  0  0  0
 11 94  1  0  0  0
 12 13  2  0  0  0
 12 95  1  0  0  0
 13 14  1  0  0  0
 13 31  1  0  0  0
 14 15  2  0  0  0
 14 96  1  0  0  0
 15 97  1  0  0  0
 16 17  2  0  0  0
 16 21  1  0  0  0
 16 31  1  0  0  0
 17 18  1  0  0  0
 17 98  1  0  0  0
 18 19  2  0  0  0
 18 99  1  0  0  0
 19 20  1  0  0  0
 19 24  1  0  0  0
 20 21  2  0  0  0
 20100  1  0  0  0
 21 23  1  0  0  0
 22 28  1  0  0  0
 22 32  2  0  0  0
 26 27  1  0  0  0
 28101  1  0  0  0
 28102  1  0  0  0
 29103  1  0  0  0
 29104  1  0  0  0
 33 34  1  0  0  0
 33 66  1  0  0  0
 33 70  2  0  0  0
 34 36  1  0  0  0
 34 59  1  0  0  0
 34105  1  0  0  0
 35 44  2  0  0  0
 35 45  1  0  0  0
 35 68  1  0  0  0
 36 56  1  0  0  0
 36106  1  0  0  0
 37 39  1  0  0  0
 37 47  1  0  0  0
 37 66  1  0  0  0
 37107  1  0  0  0
 38 43  2  0  0  0
 38 46  1  0  0  0
 38 47  1  0  0  0
 39 64  1  0  0  0
 39 67  2  0  0  0
 40 52  1  0  0  0
 40 53  2  0  0  0
 40 58  1  0  0  0
 41108  1  0  0  0
 41109  1  0  0  0
 41110  1  0  0  0
 41 48  1  0  0  0
 42 43  1  0  0  0
 42 66  1  0  0  0
 42111  1  0  0  0
 42112  1  0  0  0
 43 44  1  0  0  0
 44113  1  0  0  0
 45 46  2  0  0  0
 45114  1  0  0  0
 46115  1  0  0  0
 47116  1  0  0  0
 47117  1  0  0  0
 48 56  1  0  0  0
 48 65  1  0  0  0
 48118  1  0  0  0
 49 50  1  0  0  0
 49 53  1  0  0  0
 49 64  1  0  0  0
 49119  1  0  0  0
 50 51  1  0  0  0
 50120  1  0  0  0
 50121  1  0  0  0
 51 52  1  0  0  0
 51122  1  0  0  0
 51123  1  0  0  0
 52124  1  0  0  0
 52125  1  0  0  0
 53 54  1  0  0  0
 54 55  2  0  0  0
 54126  1  0  0  0
 55 57  1  0  0  0
 55127  1  0  0  0
 56 69  2  0  0  0
 57 58  2  0  0  0
 57128  1  0  0  0
 58129  1  0  0  0
 59 60  1  0  0  0
 59 61  1  0  0  0
 59 62  1  0  0  0
 60130  1  0  0  0
 60131  1  0  0  0
 60132  1  0  0  0
 61133  1  0  0  0
 61134  1  0  0  0
 61135  1  0  0  0
 62136  1  0  0  0
 62137  1  0  0  0
 62138  1  0  0  0
 63 65  1  0  0  0
 63139  1  0  0  0
 63140  1  0  0  0
 63141  1  0  0  0
 64142  1  0  0  0
 65143  1  0  0  0
 68 81  1  0  0  0
 71 72  2  0  0  0
 71 74  1  0  0  0
 71144  1  0  0  0
 72 75  1  0  0  0
 72145  1  0  0  0
 73 75  2  0  0  0
 73 76  1  0  0  0
 73146  1  0  0  0
 74 76  2  0  0  0
 74 77  1  0  0  0
 75 79  1  0  0  0
 76 78  1  0  0  0
 77 82  1  0  0  0
 77 84  2  0  0  0
 78147  1  0  0  0
 78148  1  0  0  0
 78149  1  0  0  0
 79 83  1  0  0  0
 79150  1  0  0  0
 79151  1  0  0  0
 80 81  1  0  0  0
 80 82  1  0  0  0
 80152  1  0  0  0
 80153  1  0  0  0
 81154  1  0  0  0
 81155  1  0  0  0
 82156  1  0  0  0
 83157  1  0  0  0
M  ISO  4   1 100  68 101  81 101  83 100
M  END
> <chiral flag>
0

> <version>
0

> <s_m_source_file>
/data/baiqing/PycharmProjects/Reinvent-master-3.2/result/LINK_invent/BTK/process_docking_weight1_custom_product_contain_oxygen_bond_distance_aromatic_linkinvent_7_9_3/rearranged_h_0051.sdf

> <i_m_source_file_index>
77

> <r_mmod_Potential_Energy-OPLS-2005>
-153.035827636719

> <r_mmod_Stretch_Energy-OPLS-2005>
42.3334350585938

> <r_mmod_Bend_Energy-OPLS-2005>
108.386299133301

> <r_mmod_Torsional_Energy-OPLS-2005>
212.18424987793

> <r_mmod_Improper_Torsional_Energy-OPLS-2005>
4.02755498886108

> <r_mmod_Van_der_Waal_Energy-OPLS-2005>
153.434463500977

> <r_mmod_Electrostatic_Energy-OPLS-2005>
-460.289825439453

> <r_mmod_Solvation_Energy-OPLS-2005>
-230.096862792969

> <b_mmod_Minimization_Converged-OPLS-2005>
0

> <r_mmod_RMS_Derivative-OPLS-2005>
7.0264892578125

$$$$
77
                    3D
 Structure written by MMmdl.
166174  0  0  1  0            999 V2000
  -30.7079  -14.6130   20.5508 C   0  0  0  0  0  0
  -30.4122  -12.3918   19.4693 C   0  0  0  0  0  0
  -29.5000  -12.5018   18.2315 C   0  0  0  0  0  0
  -28.0255  -12.3360   18.6404 C   0  0  0  0  0  0
  -27.6441  -13.2200   19.8560 C   0  0  2  0  0  0
  -28.6847  -13.1263   20.9970 C   0  0  0  0  0  0
  -25.2530  -13.8173   20.5697 C   0  0  0  0  0  0
  -24.1814  -13.0434   20.9226 C   0  0  0  0  0  0
  -24.6385  -11.6905   20.8752 C   0  0  0  0  0  0
  -23.9047  -10.4289   21.0417 C   0  0  0  0  0  0
  -24.3598   -9.4208   21.9193 C   0  0  0  0  0  0
  -23.6295   -8.2235   22.0753 C   0  0  0  0  0  0
  -22.4276   -8.0268   21.3542 C   0  0  0  0  0  0
  -21.9907   -9.0239   20.4637 C   0  0  0  0  0  0
  -22.7227  -10.2130   20.3057 C   0  0  0  0  0  0
  -21.6858   -6.0727   22.5267 C   0  0  0  0  0  0
  -21.4016   -6.5627   23.8198 C   0  0  0  0  0  0
  -21.3662   -5.6785   24.9159 C   0  0  0  0  0  0
  -21.6047   -4.3047   24.7216 C   0  0  0  0  0  0
  -21.8825   -3.8137   23.4341 C   0  0  0  0  0  0
  -21.9201   -4.6959   22.3399 C   0  0  0  0  0  0
  -22.7835  -13.5231   21.1874 C   0  0  0  0  0  0
  -22.1671   -4.2137   21.0981 F   0  0  0  0  0  0
  -21.5633   -3.4534   25.7736 F   0  0  0  0  0  0
  -30.0050  -13.4382   20.4350 N   0  0  0  0  0  0
  -26.2949  -12.9358   20.3294 N   0  0  0  0  0  0
  -25.9309  -11.6515   20.5756 N   0  0  0  0  0  0
  -22.0470  -12.8221   22.0417 N   0  0  0  0  0  0
  -25.4204  -15.1902   20.4103 N   0  0  0  0  0  0
  -31.8331  -14.7043   20.0475 O   0  0  0  0  0  0
  -21.6642   -6.8868   21.4235 O   0  0  0  0  0  0
  -22.3524  -14.5530   20.6702 O   0  0  0  0  0  0
  -24.6229  -31.8607   23.2019 C   0  0  0  0  0  0
  -25.9089  -32.4787   23.8340 C   0  0  1  0  0  0
  -27.2169  -27.3371   20.1259 C   0  0  0  0  0  0
  -25.5916  -33.8582   24.2272 N   0  0  0  0  0  0
  -23.4143  -30.4860   21.5415 C   0  0  2  0  0  0
  -24.8580  -28.9407   20.1080 C   0  0  0  0  0  0
  -22.7442  -29.4646   22.4904 C   0  0  0  0  0  0
  -18.0294  -28.1402   22.8507 C   0  0  0  0  0  0
  -24.1483  -36.7287   23.2644 C   0  0  0  0  0  0
  -25.9512  -30.8025   21.3623 C   0  0  0  0  0  0
  -26.0250  -29.4297   20.7100 C   0  0  0  0  0  0
  -27.2095  -28.6402   20.7059 C   0  0  0  0  0  0
  -26.0280  -26.8880   19.5100 C   0  0  0  0  0  0
  -24.8605  -27.6751   19.4985 C   0  0  0  0  0  0
  -23.6244  -29.8189   20.1562 C   0  0  0  0  0  0
  -25.4102  -36.3082   24.0341 C   0  0  1  0  0  0
  -20.5901  -28.3682   23.1299 C   0  0  2  0  0  0
  -20.6789  -26.9412   22.5418 C   0  0  0  0  0  0
  -19.5761  -26.6400   21.5220 C   0  0  0  0  0  0
  -18.1935  -26.7945   22.1635 C   0  0  0  0  0  0
  -19.1555  -28.8856   23.2906 C   0  0  0  0  0  0
  -18.9481  -30.1464   23.8900 C   0  0  0  0  0  0
  -17.6486  -30.6599   24.0577 C   0  0  0  0  0  0
  -25.9046  -34.9462   23.5112 C   0  0  0  0  0  0
  -16.5367  -29.9106   23.6354 C   0  0  0  0  0  0
  -16.7285  -28.6535   23.0359 C   0  0  0  0  0  0
  -26.4481  -31.6609   25.0719 C   0  0  0  0  0  0
  -25.3716  -31.3740   26.1456 C   0  0  0  0  0  0
  -27.0323  -30.3049   24.6138 C   0  0  0  0  0  0
  -27.6042  -32.4332   25.7489 C   0  0  0  0  0  0
  -27.5564  -37.1792   24.8463 C   0  0  0  0  0  0
  -21.4156  -29.3051   22.3667 N   0  0  0  0  0  0
  -26.4277  -37.3774   23.9419 N   0  0  0  0  0  0
  -24.6819  -31.0664   22.0931 N   0  0  0  0  0  0
  -23.4183  -28.8200   23.2992 O   0  0  0  0  0  0
  -28.3472  -26.5201   20.1730 O   0  0  0  0  0  0
  -26.5618  -34.8941   22.4673 O   0  0  0  0  0  0
  -23.5410  -32.1384   23.7397 O   0  0  0  0  0  0
  -29.9507  -17.9471   19.0468 C   0  0  0  0  0  0
  -30.0588  -19.1331   18.2963 C   0  0  0  0  0  0
  -28.9547  -19.2314   20.8611 C   0  0  0  0  0  0
  -29.3729  -17.9583   20.3313 C   0  0  0  0  0  0
  -29.0752  -20.4586   20.1153 C   0  0  0  0  0  0
  -29.6114  -20.3676   18.8067 C   0  0  0  0  0  0
  -29.4899  -24.3063   20.5914 C   0  0  0  0  0  0
  -33.3077  -21.9400   21.3314 C   0  0  0  0  0  0
  -31.2084  -16.3100   22.2048 C   0  0  0  0  0  0
  -29.0982  -16.5837   21.0263 C   0  0  0  0  0  0
  -28.5791  -21.8531   20.6501 C   0  0  0  0  0  0
  -28.1756  -25.0496   20.1763 C   0  0  0  0  0  0
  -32.0002  -22.2040   20.5769 C   0  0  0  0  0  0
  -30.8108  -22.4602   21.5285 C   0  0  0  0  0  0
  -29.5935  -22.9448   20.8398 N   0  0  0  0  0  0
  -30.2362  -15.6515   21.3239 N   0  0  0  0  0  0
  -30.4800  -25.0364   20.7380 O   0  0  0  0  0  0
  -29.7204  -21.7604   17.7885 Cl  0  0  0  0  0  0
  -31.4584  -12.4748   19.1693 H   0  0  0  0  0  0
  -30.3235  -11.4066   19.9290 H   0  0  0  0  0  0
  -29.7709  -11.7418   17.4973 H   0  0  0  0  0  0
  -29.6469  -13.4665   17.7454 H   0  0  0  0  0  0
  -27.8638  -11.2843   18.8797 H   0  0  0  0  0  0
  -27.3730  -12.5587   17.7944 H   0  0  0  0  0  0
  -27.6438  -14.2387   19.4783 H   0  0  0  0  0  0
  -28.6939  -12.1267   21.4334 H   0  0  0  0  0  0
  -28.4240  -13.8069   21.8097 H   0  0  0  0  0  0
  -25.2740   -9.5698   22.4768 H   0  0  0  0  0  0
  -24.0005   -7.4625   22.7462 H   0  0  0  0  0  0
  -21.0844   -8.8744   19.8944 H   0  0  0  0  0  0
  -22.3671  -10.9661   19.6153 H   0  0  0  0  0  0
  -21.1994   -7.6132   23.9699 H   0  0  0  0  0  0
  -21.1487   -6.0509   25.9059 H   0  0  0  0  0  0
  -22.0608   -2.7600   23.2834 H   0  0  0  0  0  0
  -22.4080  -11.9876   22.4794 H   0  0  0  0  0  0
  -21.1072  -13.1224   22.2578 H   0  0  0  0  0  0
  -24.6468  -15.8368   20.5188 H   0  0  0  0  0  0
  -26.2596  -15.6306   20.0576 H   0  0  0  0  0  0
  -26.7165  -32.5448   23.1094 H   0  0  0  0  0  0
  -25.0069  -33.9735   25.0421 H   0  0  0  0  0  0
  -22.7096  -31.3093   21.4014 H   0  0  0  0  0  0
  -23.3751  -35.9613   23.3304 H   0  0  0  0  0  0
  -24.3580  -36.8908   22.2059 H   0  0  0  0  0  0
  -23.7237  -37.6491   23.6659 H   0  0  0  0  0  0
  -26.0760  -31.5643   20.5908 H   0  0  0  0  0  0
  -26.8352  -30.8556   21.9864 H   0  0  0  0  0  0
  -28.1060  -29.0139   21.1802 H   0  0  0  0  0  0
  -25.9815  -25.9174   19.0373 H   0  0  0  0  0  0
  -23.9655  -27.2933   19.0252 H   0  0  0  0  0  0
  -23.7369  -30.5944   19.3973 H   0  0  0  0  0  0
  -22.7444  -29.2455   19.8587 H   0  0  0  0  0  0
  -25.1288  -36.1922   25.0834 H   0  0  0  0  0  0
  -21.0030  -28.3262   24.1413 H   0  0  0  0  0  0
  -20.5711  -26.2291   23.3614 H   0  0  0  0  0  0
  -21.6645  -26.7460   22.1185 H   0  0  0  0  0  0
  -19.6910  -25.6313   21.1250 H   0  0  0  0  0  0
  -19.6707  -27.3217   20.6753 H   0  0  0  0  0  0
  -17.4212  -26.6737   21.4023 H   0  0  0  0  0  0
  -18.0318  -26.0090   22.9038 H   0  0  0  0  0  0
  -19.7948  -30.7308   24.2246 H   0  0  0  0  0  0
  -17.5038  -31.6275   24.5180 H   0  0  0  0  0  0
  -15.5372  -30.3022   23.7669 H   0  0  0  0  0  0
  -15.8696  -28.0874   22.7039 H   0  0  0  0  0  0
  -24.5888  -30.7090   25.7805 H   0  0  0  0  0  0
  -24.8892  -32.2898   26.4871 H   0  0  0  0  0  0
  -25.8041  -30.8937   27.0235 H   0  0  0  0  0  0
  -26.2880  -29.6817   24.1166 H   0  0  0  0  0  0
  -27.4063  -29.7310   25.4620 H   0  0  0  0  0  0
  -27.8741  -30.4397   23.9340 H   0  0  0  0  0  0
  -27.2653  -33.3643   26.2035 H   0  0  0  0  0  0
  -28.3857  -32.6848   25.0314 H   0  0  0  0  0  0
  -28.0693  -31.8461   26.5410 H   0  0  0  0  0  0
  -28.2575  -38.0103   24.7533 H   0  0  0  0  0  0
  -28.1064  -36.2623   24.6245 H   0  0  0  0  0  0
  -27.2301  -37.1429   25.8881 H   0  0  0  0  0  0
  -20.9311  -29.8776   21.6898 H   0  0  0  0  0  0
  -26.0150  -38.2844   24.1439 H   0  0  0  0  0  0
  -30.2686  -17.0137   18.6049 H   0  0  0  0  0  0
  -30.4660  -19.0938   17.2969 H   0  0  0  0  0  0
  -28.5028  -19.2636   21.8431 H   0  0  0  0  0  0
  -34.1045  -21.6680   20.6396 H   0  0  0  0  0  0
  -33.1964  -21.1291   22.0507 H   0  0  0  0  0  0
  -33.6367  -22.8273   21.8728 H   0  0  0  0  0  0
  -30.7117  -16.8921   22.9822 H   0  0  0  0  0  0
  -31.8450  -16.9887   21.6350 H   0  0  0  0  0  0
  -31.8536  -15.5840   22.7037 H   0  0  0  0  0  0
  -28.3742  -16.0655   20.4034 H   0  0  0  0  0  0
  -28.5693  -16.7734   21.9619 H   0  0  0  0  0  0
  -28.0796  -21.6949   21.6067 H   0  0  0  0  0  0
  -27.8006  -22.2040   19.9727 H   0  0  0  0  0  0
  -27.3910  -24.7660   20.8789 H   0  0  0  0  0  0
  -27.8814  -24.6994   19.1874 H   0  0  0  0  0  0
  -31.7943  -21.3453   19.9414 H   0  0  0  0  0  0
  -32.1445  -23.0508   19.9057 H   0  0  0  0  0  0
  -31.1089  -23.1793   22.2943 H   0  0  0  0  0  0
  -30.5959  -21.5539   22.0951 H   0  0  0  0  0  0
  1 25  1  0  0  0
  1 30  2  0  0  0
  1 86  1  0  0  0
  2  3  1  0  0  0
  2 25  1  0  0  0
  2 89  1  0  0  0
  2 90  1  0  0  0
  3  4  1  0  0  0
  3 91  1  0  0  0
  3 92  1  0  0  0
  4  5  1  0  0  0
  4 93  1  0  0  0
  4 94  1  0  0  0
  5  6  1  0  0  0
  5 26  1  0  0  0
  5 95  1  0  0  0
  6 25  1  0  0  0
  6 96  1  0  0  0
  6 97  1  0  0  0
  7  8  2  0  0  0
  7 26  1  0  0  0
  7 29  1  0  0  0
  8  9  1  0  0  0
  8 22  1  0  0  0
  9 10  1  0  0  0
  9 27  2  0  0  0
 10 11  2  0  0  0
 10 15  1  0  0  0
 11 12  1  0  0  0
 11 98  1  0  0  0
 12 13  2  0  0  0
 12 99  1  0  0  0
 13 14  1  0  0  0
 13 31  1  0  0  0
 14 15  2  0  0  0
 14100  1  0  0  0
 15101  1  0  0  0
 16 17  2  0  0  0
 16 21  1  0  0  0
 16 31  1  0  0  0
 17 18  1  0  0  0
 17102  1  0  0  0
 18 19  2  0  0  0
 18103  1  0  0  0
 19 20  1  0  0  0
 19 24  1  0  0  0
 20 21  2  0  0  0
 20104  1  0  0  0
 21 23  1  0  0  0
 22 28  1  0  0  0
 22 32  2  0  0  0
 26 27  1  0  0  0
 28105  1  0  0  0
 28106  1  0  0  0
 29107  1  0  0  0
 29108  1  0  0  0
 33 34  1  0  0  0
 33 66  1  0  0  0
 33 70  2  0  0  0
 34 36  1  0  0  0
 34 59  1  0  0  0
 34109  1  0  0  0
 35 44  2  0  0  0
 35 45  1  0  0  0
 35 68  1  0  0  0
 36 56  1  0  0  0
 36110  1  0  0  0
 37 39  1  0  0  0
 37 47  1  0  0  0
 37 66  1  0  0  0
 37111  1  0  0  0
 38 43  2  0  0  0
 38 46  1  0  0  0
 38 47  1  0  0  0
 39 64  1  0  0  0
 39 67  2  0  0  0
 40 52  1  0  0  0
 40 53  2  0  0  0
 40 58  1  0  0  0
 41112  1  0  0  0
 41113  1  0  0  0
 41114  1  0  0  0
 41 48  1  0  0  0
 42 43  1  0  0  0
 42 66  1  0  0  0
 42115  1  0  0  0
 42116  1  0  0  0
 43 44  1  0  0  0
 44117  1  0  0  0
 45 46  2  0  0  0
 45118  1  0  0  0
 46119  1  0  0  0
 47120  1  0  0  0
 47121  1  0  0  0
 48 56  1  0  0  0
 48 65  1  0  0  0
 48122  1  0  0  0
 49 50  1  0  0  0
 49 53  1  0  0  0
 49 64  1  0  0  0
 49123  1  0  0  0
 50 51  1  0  0  0
 50124  1  0  0  0
 50125  1  0  0  0
 51 52  1  0  0  0
 51126  1  0  0  0
 51127  1  0  0  0
 52128  1  0  0  0
 52129  1  0  0  0
 53 54  1  0  0  0
 54 55  2  0  0  0
 54130  1  0  0  0
 55 57  1  0  0  0
 55131  1  0  0  0
 56 69  2  0  0  0
 57 58  2  0  0  0
 57132  1  0  0  0
 58133  1  0  0  0
 59 60  1  0  0  0
 59 61  1  0  0  0
 59 62  1  0  0  0
 60134  1  0  0  0
 60135  1  0  0  0
 60136  1  0  0  0
 61137  1  0  0  0
 61138  1  0  0  0
 61139  1  0  0  0
 62140  1  0  0  0
 62141  1  0  0  0
 62142  1  0  0  0
 63 65  1  0  0  0
 63143  1  0  0  0
 63144  1  0  0  0
 63145  1  0  0  0
 64146  1  0  0  0
 65147  1  0  0  0
 68 82  1  0  0  0
 71 72  2  0  0  0
 71 74  1  0  0  0
 71148  1  0  0  0
 72 76  1  0  0  0
 72149  1  0  0  0
 73 74  2  0  0  0
 73 75  1  0  0  0
 73150  1  0  0  0
 74 80  1  0  0  0
 75 76  2  0  0  0
 75 81  1  0  0  0
 76 88  1  0  0  0
 77 82  1  0  0  0
 77 85  1  0  0  0
 77 87  2  0  0  0
 78 83  1  0  0  0
 78151  1  0  0  0
 78152  1  0  0  0
 78153  1  0  0  0
 79 86  1  0  0  0
 79154  1  0  0  0
 79155  1  0  0  0
 79156  1  0  0  0
 80 86  1  0  0  0
 80157  1  0  0  0
 80158  1  0  0  0
 81 85  1  0  0  0
 81159  1  0  0  0
 81160  1  0  0  0
 82161  1  0  0  0
 82162  1  0  0  0
 83 84  1  0  0  0
 83163  1  0  0  0
 83164  1  0  0  0
 84 85  1  0  0  0
 84165  1  0  0  0
 84166  1  0  0  0
M  ISO  4   1 100  68 101  82 101  86 100
M  END
> <chiral flag>
0

> <version>
0

> <s_m_source_file>
/data/baiqing/PycharmProjects/Reinvent-master-3.2/result/LINK_invent/BTK/process_docking_weight1_custom_product_contain_oxygen_bond_distance_aromatic_linkinvent_7_9_3/rearranged_h_0051.sdf

> <i_m_source_file_index>
78

> <r_mmod_Potential_Energy-OPLS-2005>
208.899139404297

> <r_mmod_Stretch_Energy-OPLS-2005>
81.6919403076172

> <r_mmod_Bend_Energy-OPLS-2005>
143.391250610352

> <r_mmod_Torsional_Energy-OPLS-2005>
286.880401611328

> <r_mmod_Improper_Torsional_Energy-OPLS-2005>
5.45037698745728

> <r_mmod_Van_der_Waal_Energy-OPLS-2005>
142.256927490234

> <r_mmod_Electrostatic_Energy-OPLS-2005>
-267.522186279297

> <r_mmod_Solvation_Energy-OPLS-2005>
-224.693649291992

> <b_mmod_Minimization_Converged-OPLS-2005>
0

> <r_mmod_RMS_Derivative-OPLS-2005>
2.87284994125366

$$$$
78
                    3D
 Structure written by MMmdl.
157165  0  0  1  0            999 V2000
  -30.6578  -14.5255   20.5083 C   0  0  0  0  0  0
  -30.4183  -12.3152   19.4457 C   0  0  0  0  0  0
  -29.5009  -12.5036   18.2183 C   0  0  0  0  0  0
  -28.0218  -12.3568   18.6257 C   0  0  0  0  0  0
  -27.6563  -13.2092   19.8701 C   0  0  2  0  0  0
  -28.6946  -13.0182   20.9996 C   0  0  0  0  0  0
  -25.2557  -13.8152   20.5647 C   0  0  0  0  0  0
  -24.1811  -13.0428   20.9147 C   0  0  0  0  0  0
  -24.6371  -11.6895   20.8712 C   0  0  0  0  0  0
  -23.9046  -10.4281   21.0383 C   0  0  0  0  0  0
  -24.3596   -9.4209   21.9172 C   0  0  0  0  0  0
  -23.6278   -8.2242   22.0759 C   0  0  0  0  0  0
  -22.4262   -8.0264   21.3551 C   0  0  0  0  0  0
  -21.9886   -9.0230   20.4651 C   0  0  0  0  0  0
  -22.7214  -10.2109   20.3049 C   0  0  0  0  0  0
  -21.6852   -6.0711   22.5279 C   0  0  0  0  0  0
  -21.4005   -6.5619   23.8207 C   0  0  0  0  0  0
  -21.3670   -5.6785   24.9177 C   0  0  0  0  0  0
  -21.6049   -4.3047   24.7236 C   0  0  0  0  0  0
  -21.8820   -3.8130   23.4360 C   0  0  0  0  0  0
  -21.9184   -4.6937   22.3407 C   0  0  0  0  0  0
  -22.7842  -13.5223   21.1825 C   0  0  0  0  0  0
  -22.1653   -4.2119   21.0986 F   0  0  0  0  0  0
  -21.5642   -3.4536   25.7755 F   0  0  0  0  0  0
  -30.0255  -13.3195   20.4492 N   0  0  0  0  0  0
  -26.2987  -12.9321   20.3315 N   0  0  0  0  0  0
  -25.9293  -11.6481   20.5731 N   0  0  0  0  0  0
  -22.0496  -12.8228   22.0394 N   0  0  0  0  0  0
  -25.4270  -15.1874   20.4066 N   0  0  0  0  0  0
  -31.8028  -14.6951   20.0769 O   0  0  0  0  0  0
  -21.6639   -6.8853   21.4240 O   0  0  0  0  0  0
  -22.3527  -14.5536   20.6688 O   0  0  0  0  0  0
  -24.6182  -31.8692   23.2094 C   0  0  0  0  0  0
  -25.9070  -32.4839   23.8382 C   0  0  1  0  0  0
  -27.2235  -27.4050   20.1027 C   0  0  0  0  0  0
  -25.5927  -33.8634   24.2339 N   0  0  0  0  0  0
  -23.4050  -30.4941   21.5521 C   0  0  2  0  0  0
  -24.8498  -28.9570   20.1158 C   0  0  0  0  0  0
  -22.7407  -29.4681   22.4984 C   0  0  0  0  0  0
  -18.0277  -28.1406   22.8528 C   0  0  0  0  0  0
  -24.1469  -36.7296   23.2633 C   0  0  0  0  0  0
  -25.9373  -30.8265   21.3646 C   0  0  0  0  0  0
  -26.0154  -29.4604   20.7079 C   0  0  0  0  0  0
  -27.2098  -28.6963   20.6878 C   0  0  0  0  0  0
  -26.0391  -26.9271   19.4981 C   0  0  0  0  0  0
  -24.8588  -27.6917   19.5068 C   0  0  0  0  0  0
  -23.6151  -29.8295   20.1661 C   0  0  0  0  0  0
  -25.4102  -36.3126   24.0340 C   0  0  1  0  0  0
  -20.5864  -28.3700   23.1325 C   0  0  2  0  0  0
  -20.6762  -26.9436   22.5432 C   0  0  0  0  0  0
  -19.5736  -26.6420   21.5230 C   0  0  0  0  0  0
  -18.1917  -26.7963   22.1638 C   0  0  0  0  0  0
  -19.1528  -28.8869   23.2926 C   0  0  0  0  0  0
  -18.9463  -30.1468   23.8945 C   0  0  0  0  0  0
  -17.6470  -30.6625   24.0576 C   0  0  0  0  0  0
  -25.9043  -34.9494   23.5133 C   0  0  0  0  0  0
  -16.5360  -29.9128   23.6336 C   0  0  0  0  0  0
  -16.7262  -28.6528   23.0387 C   0  0  0  0  0  0
  -26.4481  -31.6614   25.0694 C   0  0  0  0  0  0
  -25.3738  -31.3735   26.1447 C   0  0  0  0  0  0
  -27.0297  -30.3041   24.6077 C   0  0  0  0  0  0
  -27.6059  -32.4312   25.7491 C   0  0  0  0  0  0
  -27.5579  -37.1811   24.8475 C   0  0  0  0  0  0
  -21.4137  -29.3050   22.3713 N   0  0  0  0  0  0
  -26.4288  -37.3811   23.9426 N   0  0  0  0  0  0
  -24.6720  -31.0760   22.1020 N   0  0  0  0  0  0
  -23.4162  -28.8230   23.3039 O   0  0  0  0  0  0
  -28.3636  -26.6145   20.1400 O   0  0  0  0  0  0
  -26.5590  -34.8948   22.4686 O   0  0  0  0  0  0
  -23.5375  -32.1487   23.7473 O   0  0  0  0  0  0
  -29.7976  -18.0673   21.0228 C   0  0  0  0  0  0
  -29.5373  -19.3739   18.9782 C   0  0  0  0  0  0
  -29.6876  -16.9361   18.8683 C   0  0  0  0  0  0
  -29.6648  -19.3411   20.3864 C   0  0  0  0  0  0
  -29.8265  -16.8572   20.2744 C   0  0  0  0  0  0
  -29.5413  -18.1828   18.2283 C   0  0  0  0  0  0
  -29.7089  -20.6289   21.1933 C   0  0  0  0  0  0
  -27.7830  -25.2959   22.0990 C   0  0  0  0  0  0
  -29.5132  -24.4270   20.3694 C   0  0  0  0  0  0
  -29.7700  -23.1243   21.2107 C   0  0  0  0  0  0
  -28.2019  -25.2458   20.6128 C   0  0  2  0  0  0
  -29.9037  -15.5707   20.9205 N   0  0  0  0  0  0
  -29.5280  -21.8152   20.5623 N   0  0  0  0  0  0
  -29.9340  -20.5761   22.4047 O   0  0  0  0  0  0
  -29.3588  -18.2510   16.5126 Cl  0  0  0  0  0  0
  -31.4680  -12.3967   19.1603 H   0  0  0  0  0  0
  -30.2979  -11.3127   19.8587 H   0  0  0  0  0  0
  -29.7489  -11.7789   17.4426 H   0  0  0  0  0  0
  -29.6652  -13.4895   17.7794 H   0  0  0  0  0  0
  -27.8427  -11.3018   18.8385 H   0  0  0  0  0  0
  -27.3723  -12.6108   17.7883 H   0  0  0  0  0  0
  -27.6890  -14.2511   19.5525 H   0  0  0  0  0  0
  -28.6715  -11.9894   21.3629 H   0  0  0  0  0  0
  -28.4542  -13.6398   21.8630 H   0  0  0  0  0  0
  -25.2736   -9.5681   22.4745 H   0  0  0  0  0  0
  -23.9983   -7.4628   22.7473 H   0  0  0  0  0  0
  -21.0820   -8.8750   19.8952 H   0  0  0  0  0  0
  -22.3673  -10.9640   19.6160 H   0  0  0  0  0  0
  -21.2001   -7.6127   23.9705 H   0  0  0  0  0  0
  -21.1494   -6.0516   25.9079 H   0  0  0  0  0  0
  -22.0590   -2.7589   23.2880 H   0  0  0  0  0  0
  -22.4125  -11.9899   22.4789 H   0  0  0  0  0  0
  -21.1121  -13.1262   22.2604 H   0  0  0  0  0  0
  -24.6608  -15.8436   20.5122 H   0  0  0  0  0  0
  -26.2816  -15.6263   20.0889 H   0  0  0  0  0  0
  -26.7144  -32.5534   23.1147 H   0  0  0  0  0  0
  -25.0067  -33.9783   25.0481 H   0  0  0  0  0  0
  -22.6947  -31.3129   21.4135 H   0  0  0  0  0  0
  -23.3745  -35.9610   23.3328 H   0  0  0  0  0  0
  -24.3547  -36.8875   22.2033 H   0  0  0  0  0  0
  -23.7214  -37.6506   23.6624 H   0  0  0  0  0  0
  -26.0533  -31.5935   20.5975 H   0  0  0  0  0  0
  -26.8222  -30.8795   21.9876 H   0  0  0  0  0  0
  -28.1093  -29.0788   21.1501 H   0  0  0  0  0  0
  -26.0117  -25.9592   19.0219 H   0  0  0  0  0  0
  -23.9625  -27.2985   19.0461 H   0  0  0  0  0  0
  -23.7318  -30.6097   19.4137 H   0  0  0  0  0  0
  -22.7366  -29.2559   19.8624 H   0  0  0  0  0  0
  -25.1279  -36.1994   25.0831 H   0  0  0  0  0  0
  -20.9963  -28.3297   24.1441 H   0  0  0  0  0  0
  -20.5691  -26.2313   23.3623 H   0  0  0  0  0  0
  -21.6629  -26.7493   22.1210 H   0  0  0  0  0  0
  -19.6888  -25.6332   21.1255 H   0  0  0  0  0  0
  -19.6689  -27.3225   20.6755 H   0  0  0  0  0  0
  -17.4190  -26.6757   21.4030 H   0  0  0  0  0  0
  -18.0312  -26.0088   22.9013 H   0  0  0  0  0  0
  -19.7944  -30.7270   24.2349 H   0  0  0  0  0  0
  -17.5036  -31.6316   24.5164 H   0  0  0  0  0  0
  -15.5364  -30.3050   23.7656 H   0  0  0  0  0  0
  -15.8650  -28.0848   22.7112 H   0  0  0  0  0  0
  -24.5934  -30.7045   25.7814 H   0  0  0  0  0  0
  -24.8885  -32.2870   26.4877 H   0  0  0  0  0  0
  -25.8099  -30.8956   27.0226 H   0  0  0  0  0  0
  -26.2858  -29.6846   24.1043 H   0  0  0  0  0  0
  -27.3958  -29.7245   25.4561 H   0  0  0  0  0  0
  -27.8741  -30.4314   23.9299 H   0  0  0  0  0  0
  -27.2701  -33.3609   26.2093 H   0  0  0  0  0  0
  -28.3892  -32.6883   25.0351 H   0  0  0  0  0  0
  -28.0693  -31.8406   26.5403 H   0  0  0  0  0  0
  -28.2630  -38.0083   24.7543 H   0  0  0  0  0  0
  -28.1053  -36.2627   24.6292 H   0  0  0  0  0  0
  -27.2296  -37.1455   25.8878 H   0  0  0  0  0  0
  -20.9312  -29.8742   21.6907 H   0  0  0  0  0  0
  -26.0181  -38.2888   24.1442 H   0  0  0  0  0  0
  -29.8925  -18.0266   22.0998 H   0  0  0  0  0  0
  -29.4417  -20.3116   18.4505 H   0  0  0  0  0  0
  -29.6780  -16.0422   18.2612 H   0  0  0  0  0  0
  -27.4850  -24.3146   22.4651 H   0  0  0  0  0  0
  -26.9186  -25.9393   22.2615 H   0  0  0  0  0  0
  -28.5916  -25.6656   22.7303 H   0  0  0  0  0  0
  -29.6317  -24.2216   19.3049 H   0  0  0  0  0  0
  -30.3353  -25.1045   20.6094 H   0  0  0  0  0  0
  -29.2688  -23.1603   22.1759 H   0  0  0  0  0  0
  -30.8317  -23.1250   21.4662 H   0  0  0  0  0  0
  -27.4157  -24.7331   20.0602 H   0  0  0  0  0  0
  -29.0868  -15.3128   21.4538 H   0  0  0  0  0  0
  -29.3251  -21.7964   19.5727 H   0  0  0  0  0  0
  1 25  1  0  0  0
  1 30  2  0  0  0
  1 82  1  0  0  0
  2  3  1  0  0  0
  2 25  1  0  0  0
  2 86  1  0  0  0
  2 87  1  0  0  0
  3  4  1  0  0  0
  3 88  1  0  0  0
  3 89  1  0  0  0
  4  5  1  0  0  0
  4 90  1  0  0  0
  4 91  1  0  0  0
  5  6  1  0  0  0
  5 26  1  0  0  0
  5 92  1  0  0  0
  6 25  1  0  0  0
  6 93  1  0  0  0
  6 94  1  0  0  0
  7  8  2  0  0  0
  7 26  1  0  0  0
  7 29  1  0  0  0
  8  9  1  0  0  0
  8 22  1  0  0  0
  9 10  1  0  0  0
  9 27  2  0  0  0
 10 11  2  0  0  0
 10 15  1  0  0  0
 11 12  1  0  0  0
 11 95  1  0  0  0
 12 13  2  0  0  0
 12 96  1  0  0  0
 13 14  1  0  0  0
 13 31  1  0  0  0
 14 15  2  0  0  0
 14 97  1  0  0  0
 15 98  1  0  0  0
 16 17  2  0  0  0
 16 21  1  0  0  0
 16 31  1  0  0  0
 17 18  1  0  0  0
 17 99  1  0  0  0
 18 19  2  0  0  0
 18100  1  0  0  0
 19 20  1  0  0  0
 19 24  1  0  0  0
 20 21  2  0  0  0
 20101  1  0  0  0
 21 23  1  0  0  0
 22 28  1  0  0  0
 22 32  2  0  0  0
 26 27  1  0  0  0
 28102  1  0  0  0
 28103  1  0  0  0
 29104  1  0  0  0
 29105  1  0  0  0
 33 34  1  0  0  0
 33 66  1  0  0  0
 33 70  2  0  0  0
 34 36  1  0  0  0
 34 59  1  0  0  0
 34106  1  0  0  0
 35 44  2  0  0  0
 35 45  1  0  0  0
 35 68  1  0  0  0
 36 56  1  0  0  0
 36107  1  0  0  0
 37 39  1  0  0  0
 37 47  1  0  0  0
 37 66  1  0  0  0
 37108  1  0  0  0
 38 43  2  0  0  0
 38 46  1  0  0  0
 38 47  1  0  0  0
 39 64  1  0  0  0
 39 67  2  0  0  0
 40 52  1  0  0  0
 40 53  2  0  0  0
 40 58  1  0  0  0
 41109  1  0  0  0
 41110  1  0  0  0
 41111  1  0  0  0
 41 48  1  0  0  0
 42 43  1  0  0  0
 42 66  1  0  0  0
 42112  1  0  0  0
 42113  1  0  0  0
 43 44  1  0  0  0
 44114  1  0  0  0
 45 46  2  0  0  0
 45115  1  0  0  0
 46116  1  0  0  0
 47117  1  0  0  0
 47118  1  0  0  0
 48 56  1  0  0  0
 48 65  1  0  0  0
 48119  1  0  0  0
 49 50  1  0  0  0
 49 53  1  0  0  0
 49 64  1  0  0  0
 49120  1  0  0  0
 50 51  1  0  0  0
 50121  1  0  0  0
 50122  1  0  0  0
 51 52  1  0  0  0
 51123  1  0  0  0
 51124  1  0  0  0
 52125  1  0  0  0
 52126  1  0  0  0
 53 54  1  0  0  0
 54 55  2  0  0  0
 54127  1  0  0  0
 55 57  1  0  0  0
 55128  1  0  0  0
 56 69  2  0  0  0
 57 58  2  0  0  0
 57129  1  0  0  0
 58130  1  0  0  0
 59 60  1  0  0  0
 59 61  1  0  0  0
 59 62  1  0  0  0
 60131  1  0  0  0
 60132  1  0  0  0
 60133  1  0  0  0
 61134  1  0  0  0
 61135  1  0  0  0
 61136  1  0  0  0
 62137  1  0  0  0
 62138  1  0  0  0
 62139  1  0  0  0
 63 65  1  0  0  0
 63140  1  0  0  0
 63141  1  0  0  0
 63142  1  0  0  0
 64143  1  0  0  0
 65144  1  0  0  0
 68 81  1  0  0  0
 71 74  2  0  0  0
 71 75  1  0  0  0
 71145  1  0  0  0
 72 74  1  0  0  0
 72 76  2  0  0  0
 72146  1  0  0  0
 73 75  2  0  0  0
 73 76  1  0  0  0
 73147  1  0  0  0
 74 77  1  0  0  0
 75 82  1  0  0  0
 76 85  1  0  0  0
 77 83  1  0  0  0
 77 84  2  0  0  0
 78148  1  0  0  0
 78149  1  0  0  0
 78150  1  0  0  0
 78 81  1  0  0  0
 79 80  1  0  0  0
 79 81  1  0  0  0
 79151  1  0  0  0
 79152  1  0  0  0
 80 83  1  0  0  0
 80153  1  0  0  0
 80154  1  0  0  0
 81155  1  0  0  0
 82156  1  0  0  0
 83157  1  0  0  0
M  ISO  4   1 100  68 101  81 101  82 100
M  END
> <chiral flag>
0

> <version>
0

> <s_m_source_file>
/data/baiqing/PycharmProjects/Reinvent-master-3.2/result/LINK_invent/BTK/process_docking_weight1_custom_product_contain_oxygen_bond_distance_aromatic_linkinvent_7_9_3/rearranged_h_0051.sdf

> <i_m_source_file_index>
79

> <r_mmod_Potential_Energy-OPLS-2005>
-61.4307022094727

> <r_mmod_Stretch_Energy-OPLS-2005>
48.3883323669434

> <r_mmod_Bend_Energy-OPLS-2005>
104.161552429199

> <r_mmod_Torsional_Energy-OPLS-2005>
276.489410400391

> <r_mmod_Improper_Torsional_Energy-OPLS-2005>
5.84911441802979

> <r_mmod_Van_der_Waal_Energy-OPLS-2005>
154.558441162109

> <r_mmod_Electrostatic_Energy-OPLS-2005>
-440.205200195312

> <r_mmod_Solvation_Energy-OPLS-2005>
-231.944229125977

> <b_mmod_Minimization_Converged-OPLS-2005>
0

> <r_mmod_RMS_Derivative-OPLS-2005>
2.33406090736389

$$$$
79
                    3D
 Structure written by MMmdl.
157165  0  0  1  0            999 V2000
  -30.6748  -14.7858   20.5070 C   0  0  0  0  0  0
  -30.4154  -12.4953   19.5029 C   0  0  0  0  0  0
  -29.5100  -12.5318   18.2546 C   0  0  0  0  0  0
  -28.0438  -12.3183   18.6659 C   0  0  0  0  0  0
  -27.6331  -13.2435   19.8374 C   0  0  2  0  0  0
  -28.6653  -13.2307   20.9835 C   0  0  0  0  0  0
  -25.2450  -13.8225   20.5632 C   0  0  0  0  0  0
  -24.1755  -13.0482   20.9193 C   0  0  0  0  0  0
  -24.6352  -11.6969   20.8741 C   0  0  0  0  0  0
  -23.9028  -10.4335   21.0394 C   0  0  0  0  0  0
  -24.3594   -9.4244   21.9158 C   0  0  0  0  0  0
  -23.6285   -8.2267   22.0727 C   0  0  0  0  0  0
  -22.4286   -8.0270   21.3497 C   0  0  0  0  0  0
  -21.9891   -9.0254   20.4626 C   0  0  0  0  0  0
  -22.7201  -10.2147   20.3044 C   0  0  0  0  0  0
  -21.6891   -6.0711   22.5263 C   0  0  0  0  0  0
  -21.4039   -6.5606   23.8196 C   0  0  0  0  0  0
  -21.3677   -5.6756   24.9153 C   0  0  0  0  0  0
  -21.6074   -4.3020   24.7209 C   0  0  0  0  0  0
  -21.8828   -3.8108   23.4326 C   0  0  0  0  0  0
  -21.9212   -4.6932   22.3383 C   0  0  0  0  0  0
  -22.7767  -13.5238   21.1870 C   0  0  0  0  0  0
  -22.1659   -4.2107   21.0965 F   0  0  0  0  0  0
  -21.5644   -3.4501   25.7713 F   0  0  0  0  0  0
  -29.9763  -13.5882   20.4173 N   0  0  0  0  0  0
  -26.2866  -12.9453   20.3174 N   0  0  0  0  0  0
  -25.9290  -11.6610   20.5753 N   0  0  0  0  0  0
  -22.0427  -12.8242   22.0455 N   0  0  0  0  0  0
  -25.4190  -15.1932   20.4067 N   0  0  0  0  0  0
  -31.8272  -14.7996   20.0673 O   0  0  0  0  0  0
  -21.6657   -6.8860   21.4222 O   0  0  0  0  0  0
  -22.3437  -14.5532   20.6709 O   0  0  0  0  0  0
  -24.6301  -31.8536   23.1969 C   0  0  0  0  0  0
  -25.9109  -32.4745   23.8337 C   0  0  1  0  0  0
  -27.2319  -27.2675   20.1450 C   0  0  0  0  0  0
  -25.5902  -33.8539   24.2243 N   0  0  0  0  0  0
  -23.4277  -30.4720   21.5393 C   0  0  2  0  0  0
  -24.8784  -28.9077   20.1225 C   0  0  0  0  0  0
  -22.7518  -29.4568   22.4900 C   0  0  0  0  0  0
  -18.0291  -28.1426   22.8478 C   0  0  0  0  0  0
  -24.1498  -36.7272   23.2635 C   0  0  0  0  0  0
  -25.9718  -30.7732   21.3701 C   0  0  0  0  0  0
  -26.0480  -29.3885   20.7253 C   0  0  0  0  0  0
  -27.2292  -28.5823   20.7209 C   0  0  0  0  0  0
  -26.0365  -26.8411   19.5295 C   0  0  0  0  0  0
  -24.8740  -27.6387   19.5179 C   0  0  0  0  0  0
  -23.6495  -29.7967   20.1586 C   0  0  0  0  0  0
  -25.4120  -36.3037   24.0323 C   0  0  1  0  0  0
  -20.5916  -28.3713   23.1280 C   0  0  2  0  0  0
  -20.6783  -26.9424   22.5421 C   0  0  0  0  0  0
  -19.5762  -26.6405   21.5218 C   0  0  0  0  0  0
  -18.1942  -26.7966   22.1623 C   0  0  0  0  0  0
  -19.1560  -28.8888   23.2868 C   0  0  0  0  0  0
  -18.9455  -30.1492   23.8887 C   0  0  0  0  0  0
  -17.6454  -30.6596   24.0588 C   0  0  0  0  0  0
  -25.9062  -34.9409   23.5081 C   0  0  0  0  0  0
  -16.5342  -29.9111   23.6356 C   0  0  0  0  0  0
  -16.7281  -28.6544   23.0346 C   0  0  0  0  0  0
  -26.4509  -31.6552   25.0694 C   0  0  0  0  0  0
  -25.3768  -31.3690   26.1437 C   0  0  0  0  0  0
  -27.0359  -30.2979   24.6138 C   0  0  0  0  0  0
  -27.6079  -32.4301   25.7450 C   0  0  0  0  0  0
  -27.5577  -37.1786   24.8473 C   0  0  0  0  0  0
  -21.4218  -29.3035   22.3661 N   0  0  0  0  0  0
  -26.4292  -37.3733   23.9399 N   0  0  0  0  0  0
  -24.6945  -31.0548   22.0901 N   0  0  0  0  0  0
  -23.4223  -28.8111   23.2984 O   0  0  0  0  0  0
  -28.3495  -26.4143   20.0884 O   0  0  0  0  0  0
  -26.5644  -34.8884   22.4658 O   0  0  0  0  0  0
  -23.5450  -32.1325   23.7271 O   0  0  0  0  0  0
  -30.6963  -20.1526   19.7180 C   0  0  0  0  0  0
  -31.4289  -17.8086   19.8961 C   0  0  0  0  0  0
  -29.4589  -19.8647   20.3146 C   0  0  0  0  0  0
  -29.2281  -18.4569   20.6854 C   0  0  0  0  0  0
  -30.2144  -17.3843   20.4921 C   0  0  0  0  0  0
  -31.6609  -19.1476   19.5123 C   0  0  0  0  0  0
  -28.3002  -23.7119   20.0929 C   0  0  0  0  0  0
  -27.8940  -18.0844   21.3097 C   0  0  0  0  0  0
  -30.0671  -15.9560   22.4975 C   0  0  0  0  0  0
  -28.4205  -21.0818   20.4513 C   0  0  0  0  0  0
  -28.3718  -25.1276   20.8572 C   0  0  0  0  0  0
  -28.8352  -22.5499   20.6426 N   0  0  0  0  0  0
  -30.1022  -15.9678   21.0249 N   0  0  0  0  0  0
  -27.6697  -23.6553   19.0349 O   0  0  0  0  0  0
  -33.1793  -19.5867   18.8150 Cl  0  0  0  0  0  0
  -31.4665  -12.5662   19.2194 H   0  0  0  0  0  0
  -30.3315  -11.5315   20.0044 H   0  0  0  0  0  0
  -29.8221  -11.7737   17.5368 H   0  0  0  0  0  0
  -29.6128  -13.4944   17.7524 H   0  0  0  0  0  0
  -27.9329  -11.2741   18.9650 H   0  0  0  0  0  0
  -27.3827  -12.4612   17.8108 H   0  0  0  0  0  0
  -27.6218  -14.2551   19.4307 H   0  0  0  0  0  0
  -28.7095  -12.2522   21.4619 H   0  0  0  0  0  0
  -28.3262  -13.9278   21.7451 H   0  0  0  0  0  0
  -25.2753   -9.5740   22.4701 H   0  0  0  0  0  0
  -24.0015   -7.4681   22.7447 H   0  0  0  0  0  0
  -21.0820   -8.8772   19.8935 H   0  0  0  0  0  0
  -22.3647  -10.9663   19.6133 H   0  0  0  0  0  0
  -21.2009   -7.6117   23.9677 H   0  0  0  0  0  0
  -21.1502   -6.0480   25.9058 H   0  0  0  0  0  0
  -22.0591   -2.7568   23.2833 H   0  0  0  0  0  0
  -22.4050  -11.9910   22.4826 H   0  0  0  0  0  0
  -21.1025  -13.1208   22.2687 H   0  0  0  0  0  0
  -24.6560  -15.8531   20.5100 H   0  0  0  0  0  0
  -26.2747  -15.6181   20.0734 H   0  0  0  0  0  0
  -26.7171  -32.5432   23.1099 H   0  0  0  0  0  0
  -25.0072  -33.9717   25.0405 H   0  0  0  0  0  0
  -22.7190  -31.2884   21.3896 H   0  0  0  0  0  0
  -23.3722  -35.9642   23.3322 H   0  0  0  0  0  0
  -24.3575  -36.8867   22.2042 H   0  0  0  0  0  0
  -23.7320  -37.6497   23.6670 H   0  0  0  0  0  0
  -26.1079  -31.5273   20.5949 H   0  0  0  0  0  0
  -26.8496  -30.8333   21.9994 H   0  0  0  0  0  0
  -28.1311  -28.9571   21.1848 H   0  0  0  0  0  0
  -26.0050  -25.8714   19.0540 H   0  0  0  0  0  0
  -23.9790  -27.2627   19.0388 H   0  0  0  0  0  0
  -23.7786  -30.5706   19.4029 H   0  0  0  0  0  0
  -22.7695  -29.2297   19.8510 H   0  0  0  0  0  0
  -25.1319  -36.1865   25.0823 H   0  0  0  0  0  0
  -21.0008  -28.3291   24.1403 H   0  0  0  0  0  0
  -20.5704  -26.2308   23.3622 H   0  0  0  0  0  0
  -21.6654  -26.7467   22.1204 H   0  0  0  0  0  0
  -19.6902  -25.6320   21.1255 H   0  0  0  0  0  0
  -19.6715  -27.3209   20.6748 H   0  0  0  0  0  0
  -17.4223  -26.6718   21.4021 H   0  0  0  0  0  0
  -18.0315  -26.0124   22.9033 H   0  0  0  0  0  0
  -19.7921  -30.7331   24.2233 H   0  0  0  0  0  0
  -17.4999  -31.6267   24.5200 H   0  0  0  0  0  0
  -15.5355  -30.3006   23.7667 H   0  0  0  0  0  0
  -15.8680  -28.0866   22.7048 H   0  0  0  0  0  0
  -24.5960  -30.7013   25.7782 H   0  0  0  0  0  0
  -24.8945  -32.2846   26.4866 H   0  0  0  0  0  0
  -25.8120  -30.8889   27.0213 H   0  0  0  0  0  0
  -26.2909  -29.6704   24.1234 H   0  0  0  0  0  0
  -27.4131  -29.7266   25.4626 H   0  0  0  0  0  0
  -27.8755  -30.4255   23.9301 H   0  0  0  0  0  0
  -27.2698  -33.3619   26.2007 H   0  0  0  0  0  0
  -28.3895  -32.6832   25.0271 H   0  0  0  0  0  0
  -28.0749  -31.8441   26.5381 H   0  0  0  0  0  0
  -28.2609  -38.0060   24.7455 H   0  0  0  0  0  0
  -28.1052  -36.2591   24.6383 H   0  0  0  0  0  0
  -27.2294  -37.1527   25.8872 H   0  0  0  0  0  0
  -20.9384  -29.8711   21.6842 H   0  0  0  0  0  0
  -26.0151  -38.2794   24.1381 H   0  0  0  0  0  0
  -30.9124  -21.1627   19.3995 H   0  0  0  0  0  0
  -32.2539  -17.1270   19.7728 H   0  0  0  0  0  0
  -27.6467  -17.0456   21.0876 H   0  0  0  0  0  0
  -27.0725  -18.6921   20.9274 H   0  0  0  0  0  0
  -27.9348  -18.1879   22.3926 H   0  0  0  0  0  0
  -30.9579  -15.4838   22.9239 H   0  0  0  0  0  0
  -30.0584  -16.9649   22.9092 H   0  0  0  0  0  0
  -29.1904  -15.4474   22.8903 H   0  0  0  0  0  0
  -27.7867  -20.8725   21.3128 H   0  0  0  0  0  0
  -27.7556  -21.0166   19.5888 H   0  0  0  0  0  0
  -29.2927  -25.1492   21.4421 H   0  0  0  0  0  0
  -27.5615  -25.1359   21.5865 H   0  0  0  0  0  0
  -29.3969  -22.7040   21.4723 H   0  0  0  0  0  0
  1 25  1  0  0  0
  1 30  2  0  0  0
  1 83  1  0  0  0
  2  3  1  0  0  0
  2 25  1  0  0  0
  2 86  1  0  0  0
  2 87  1  0  0  0
  3  4  1  0  0  0
  3 88  1  0  0  0
  3 89  1  0  0  0
  4  5  1  0  0  0
  4 90  1  0  0  0
  4 91  1  0  0  0
  5  6  1  0  0  0
  5 26  1  0  0  0
  5 92  1  0  0  0
  6 25  1  0  0  0
  6 93  1  0  0  0
  6 94  1  0  0  0
  7  8  2  0  0  0
  7 26  1  0  0  0
  7 29  1  0  0  0
  8  9  1  0  0  0
  8 22  1  0  0  0
  9 10  1  0  0  0
  9 27  2  0  0  0
 10 11  2  0  0  0
 10 15  1  0  0  0
 11 12  1  0  0  0
 11 95  1  0  0  0
 12 13  2  0  0  0
 12 96  1  0  0  0
 13 14  1  0  0  0
 13 31  1  0  0  0
 14 15  2  0  0  0
 14 97  1  0  0  0
 15 98  1  0  0  0
 16 17  2  0  0  0
 16 21  1  0  0  0
 16 31  1  0  0  0
 17 18  1  0  0  0
 17 99  1  0  0  0
 18 19  2  0  0  0
 18100  1  0  0  0
 19 20  1  0  0  0
 19 24  1  0  0  0
 20 21  2  0  0  0
 20101  1  0  0  0
 21 23  1  0  0  0
 22 28  1  0  0  0
 22 32  2  0  0  0
 26 27  1  0  0  0
 28102  1  0  0  0
 28103  1  0  0  0
 29104  1  0  0  0
 29105  1  0  0  0
 33 34  1  0  0  0
 33 66  1  0  0  0
 33 70  2  0  0  0
 34 36  1  0  0  0
 34 59  1  0  0  0
 34106  1  0  0  0
 35 44  2  0  0  0
 35 45  1  0  0  0
 35 68  1  0  0  0
 36 56  1  0  0  0
 36107  1  0  0  0
 37 39  1  0  0  0
 37 47  1  0  0  0
 37 66  1  0  0  0
 37108  1  0  0  0
 38 43  2  0  0  0
 38 46  1  0  0  0
 38 47  1  0  0  0
 39 64  1  0  0  0
 39 67  2  0  0  0
 40 52  1  0  0  0
 40 53  2  0  0  0
 40 58  1  0  0  0
 41109  1  0  0  0
 41110  1  0  0  0
 41111  1  0  0  0
 41 48  1  0  0  0
 42 43  1  0  0  0
 42 66  1  0  0  0
 42112  1  0  0  0
 42113  1  0  0  0
 43 44  1  0  0  0
 44114  1  0  0  0
 45 46  2  0  0  0
 45115  1  0  0  0
 46116  1  0  0  0
 47117  1  0  0  0
 47118  1  0  0  0
 48 56  1  0  0  0
 48 65  1  0  0  0
 48119  1  0  0  0
 49 50  1  0  0  0
 49 53  1  0  0  0
 49 64  1  0  0  0
 49120  1  0  0  0
 50 51  1  0  0  0
 50121  1  0  0  0
 50122  1  0  0  0
 51 52  1  0  0  0
 51123  1  0  0  0
 51124  1  0  0  0
 52125  1  0  0  0
 52126  1  0  0  0
 53 54  1  0  0  0
 54 55  2  0  0  0
 54127  1  0  0  0
 55 57  1  0  0  0
 55128  1  0  0  0
 56 69  2  0  0  0
 57 58  2  0  0  0
 57129  1  0  0  0
 58130  1  0  0  0
 59 60  1  0  0  0
 59 61  1  0  0  0
 59 62  1  0  0  0
 60131  1  0  0  0
 60132  1  0  0  0
 60133  1  0  0  0
 61134  1  0  0  0
 61135  1  0  0  0
 61136  1  0  0  0
 62137  1  0  0  0
 62138  1  0  0  0
 62139  1  0  0  0
 63 65  1  0  0  0
 63140  1  0  0  0
 63141  1  0  0  0
 63142  1  0  0  0
 64143  1  0  0  0
 65144  1  0  0  0
 68 81  1  0  0  0
 71 73  2  0  0  0
 71 76  1  0  0  0
 71145  1  0  0  0
 72 75  1  0  0  0
 72 76  2  0  0  0
 72146  1  0  0  0
 73 74  1  0  0  0
 73 80  1  0  0  0
 74 75  2  0  0  0
 74 78  1  0  0  0
 75 83  1  0  0  0
 76 85  1  0  0  0
 77 81  1  0  0  0
 77 82  1  0  0  0
 77 84  2  0  0  0
 78147  1  0  0  0
 78148  1  0  0  0
 78149  1  0  0  0
 79 83  1  0  0  0
 79150  1  0  0  0
 79151  1  0  0  0
 79152  1  0  0  0
 80 82  1  0  0  0
 80153  1  0  0  0
 80154  1  0  0  0
 81155  1  0  0  0
 81156  1  0  0  0
 82157  1  0  0  0
M  ISO  4   1 100  68 101  81 101  83 100
M  END
> <chiral flag>
0

> <version>
0

> <s_m_source_file>
/data/baiqing/PycharmProjects/Reinvent-master-3.2/result/LINK_invent/BTK/process_docking_weight1_custom_product_contain_oxygen_bond_distance_aromatic_linkinvent_7_9_3/rearranged_h_0051.sdf

> <i_m_source_file_index>
80

> <r_mmod_Potential_Energy-OPLS-2005>
321.071624755859

> <r_mmod_Stretch_Energy-OPLS-2005>
149.413467407227

> <r_mmod_Bend_Energy-OPLS-2005>
195.280960083008

> <r_mmod_Torsional_Energy-OPLS-2005>
321.952697753906

> <r_mmod_Improper_Torsional_Energy-OPLS-2005>
7.16000843048096

> <r_mmod_Van_der_Waal_Energy-OPLS-2005>
136.11262512207

> <r_mmod_Electrostatic_Energy-OPLS-2005>
-352.356048583984

> <r_mmod_Solvation_Energy-OPLS-2005>
-225.481994628906

> <b_mmod_Minimization_Converged-OPLS-2005>
0

> <r_mmod_RMS_Derivative-OPLS-2005>
5.08935737609863

$$$$
80
                    3D
 Structure written by MMmdl.
157165  0  0  1  0            999 V2000
  -30.6461  -14.5561   20.5834 C   0  0  0  0  0  0
  -30.4466  -12.3612   19.4373 C   0  0  0  0  0  0
  -29.5096  -12.5082   18.2178 C   0  0  0  0  0  0
  -28.0309  -12.3461   18.6290 C   0  0  0  0  0  0
  -27.6608  -13.2023   19.8693 C   0  0  2  0  0  0
  -28.6999  -13.0052   20.9950 C   0  0  0  0  0  0
  -25.2597  -13.8153   20.5717 C   0  0  0  0  0  0
  -24.1839  -13.0438   20.9186 C   0  0  0  0  0  0
  -24.6369  -11.6901   20.8712 C   0  0  0  0  0  0
  -23.9026  -10.4297   21.0389 C   0  0  0  0  0  0
  -24.3589   -9.4223   21.9173 C   0  0  0  0  0  0
  -23.6285   -8.2242   22.0747 C   0  0  0  0  0  0
  -22.4269   -8.0268   21.3544 C   0  0  0  0  0  0
  -21.9883   -9.0240   20.4650 C   0  0  0  0  0  0
  -22.7191  -10.2132   20.3051 C   0  0  0  0  0  0
  -21.6857   -6.0730   22.5280 C   0  0  0  0  0  0
  -21.4019   -6.5634   23.8208 C   0  0  0  0  0  0
  -21.3647   -5.6787   24.9171 C   0  0  0  0  0  0
  -21.6041   -4.3049   24.7216 C   0  0  0  0  0  0
  -21.8819   -3.8144   23.4336 C   0  0  0  0  0  0
  -21.9193   -4.6957   22.3393 C   0  0  0  0  0  0
  -22.7861  -13.5261   21.1845 C   0  0  0  0  0  0
  -22.1671   -4.2144   21.0970 F   0  0  0  0  0  0
  -21.5623   -3.4529   25.7728 F   0  0  0  0  0  0
  -30.0261  -13.3462   20.4482 N   0  0  0  0  0  0
  -26.3013  -12.9307   20.3332 N   0  0  0  0  0  0
  -25.9293  -11.6468   20.5718 N   0  0  0  0  0  0
  -22.0473  -12.8285   22.0410 N   0  0  0  0  0  0
  -25.4369  -15.1880   20.4222 N   0  0  0  0  0  0
  -31.7778  -14.7735   20.1374 O   0  0  0  0  0  0
  -21.6632   -6.8863   21.4241 O   0  0  0  0  0  0
  -22.3548  -14.5536   20.6638 O   0  0  0  0  0  0
  -24.6170  -31.8628   23.2054 C   0  0  0  0  0  0
  -25.9041  -32.4788   23.8377 C   0  0  1  0  0  0
  -27.2375  -27.3909   20.1220 C   0  0  0  0  0  0
  -25.5881  -33.8588   24.2312 N   0  0  0  0  0  0
  -23.4084  -30.4845   21.5458 C   0  0  2  0  0  0
  -24.8591  -28.9411   20.1170 C   0  0  0  0  0  0
  -22.7426  -29.4622   22.4957 C   0  0  0  0  0  0
  -18.0271  -28.1381   22.8491 C   0  0  0  0  0  0
  -24.1489  -36.7312   23.2648 C   0  0  0  0  0  0
  -25.9401  -30.8195   21.3615 C   0  0  0  0  0  0
  -26.0208  -29.4487   20.7137 C   0  0  0  0  0  0
  -27.2158  -28.6851   20.7049 C   0  0  0  0  0  0
  -26.0588  -26.9041   19.5219 C   0  0  0  0  0  0
  -24.8755  -27.6702   19.5147 C   0  0  0  0  0  0
  -23.6217  -29.8124   20.1629 C   0  0  0  0  0  0
  -25.4104  -36.3092   24.0351 C   0  0  1  0  0  0
  -20.5860  -28.3667   23.1317 C   0  0  2  0  0  0
  -20.6752  -26.9392   22.5436 C   0  0  0  0  0  0
  -19.5754  -26.6376   21.5213 C   0  0  0  0  0  0
  -18.1920  -26.7936   22.1599 C   0  0  0  0  0  0
  -19.1518  -28.8841   23.2902 C   0  0  0  0  0  0
  -18.9446  -30.1440   23.8919 C   0  0  0  0  0  0
  -17.6449  -30.6582   24.0565 C   0  0  0  0  0  0
  -25.9025  -34.9455   23.5129 C   0  0  0  0  0  0
  -16.5341  -29.9088   23.6315 C   0  0  0  0  0  0
  -16.7259  -28.6502   23.0344 C   0  0  0  0  0  0
  -26.4474  -31.6587   25.0717 C   0  0  0  0  0  0
  -25.3754  -31.3713   26.1493 C   0  0  0  0  0  0
  -27.0309  -30.3030   24.6101 C   0  0  0  0  0  0
  -27.6062  -32.4315   25.7441 C   0  0  0  0  0  0
  -27.5589  -37.1795   24.8457 C   0  0  0  0  0  0
  -21.4143  -29.3029   22.3718 N   0  0  0  0  0  0
  -26.4291  -37.3775   23.9415 N   0  0  0  0  0  0
  -24.6738  -31.0708   22.0956 N   0  0  0  0  0  0
  -23.4184  -28.8169   23.3011 O   0  0  0  0  0  0
  -28.3875  -26.6187   20.0973 O   0  0  0  0  0  0
  -26.5598  -34.8911   22.4696 O   0  0  0  0  0  0
  -23.5355  -32.1384   23.7436 O   0  0  0  0  0  0
  -30.2679  -19.6270   22.2468 C   0  0  0  0  0  0
  -30.5070  -18.5885   23.1688 C   0  0  0  0  0  0
  -29.8849  -17.9644   20.5068 C   0  0  0  0  0  0
  -29.9450  -19.3367   20.9071 C   0  0  0  0  0  0
  -30.4207  -17.2340   22.7784 C   0  0  0  0  0  0
  -30.1236  -16.9020   21.4323 C   0  0  0  0  0  0
  -29.2088  -22.9770   20.1717 C   0  0  0  0  0  0
  -30.6078  -16.1482   23.8266 C   0  0  0  0  0  0
  -29.7303  -20.4956   19.9030 C   0  0  0  0  0  0
  -28.0685  -24.0394   20.2594 C   0  0  0  0  0  0
  -28.3962  -25.4252   20.9309 C   0  0  0  0  0  0
  -29.8551  -15.5296   21.0992 N   0  0  0  0  0  0
  -28.9112  -21.6613   20.3378 N   0  0  0  0  0  0
  -30.3490  -23.3449   19.8825 O   0  0  0  0  0  0
  -31.4855  -12.5079   19.1342 H   0  0  0  0  0  0
  -30.3976  -11.3519   19.8494 H   0  0  0  0  0  0
  -29.7748  -11.7735   17.4563 H   0  0  0  0  0  0
  -29.6561  -13.4879   17.7602 H   0  0  0  0  0  0
  -27.8651  -11.2919   18.8527 H   0  0  0  0  0  0
  -27.3734  -12.5894   17.7938 H   0  0  0  0  0  0
  -27.6982  -14.2448   19.5520 H   0  0  0  0  0  0
  -28.6997  -11.9704   21.3395 H   0  0  0  0  0  0
  -28.4339  -13.6001   21.8703 H   0  0  0  0  0  0
  -25.2718   -9.5729   22.4757 H   0  0  0  0  0  0
  -24.0010   -7.4638   22.7462 H   0  0  0  0  0  0
  -21.0808   -8.8736   19.8976 H   0  0  0  0  0  0
  -22.3611  -10.9668   19.6172 H   0  0  0  0  0  0
  -21.2019   -7.6148   23.9720 H   0  0  0  0  0  0
  -21.1477   -6.0509   25.9076 H   0  0  0  0  0  0
  -22.0611   -2.7610   23.2825 H   0  0  0  0  0  0
  -22.4040  -11.9966   22.4869 H   0  0  0  0  0  0
  -21.1104  -13.1377   22.2572 H   0  0  0  0  0  0
  -24.6790  -15.8486   20.5523 H   0  0  0  0  0  0
  -26.2959  -15.6330   20.1251 H   0  0  0  0  0  0
  -26.7109  -32.5499   23.1136 H   0  0  0  0  0  0
  -25.0033  -33.9743   25.0462 H   0  0  0  0  0  0
  -22.6984  -31.3015   21.4021 H   0  0  0  0  0  0
  -23.3735  -35.9658   23.3303 H   0  0  0  0  0  0
  -24.3592  -36.8930   22.2062 H   0  0  0  0  0  0
  -23.7256  -37.6523   23.6669 H   0  0  0  0  0  0
  -26.0542  -31.5820   20.5897 H   0  0  0  0  0  0
  -26.8267  -30.8772   21.9808 H   0  0  0  0  0  0
  -28.1150  -29.0788   21.1589 H   0  0  0  0  0  0
  -26.0557  -25.9279   19.0584 H   0  0  0  0  0  0
  -23.9844  -27.2740   19.0462 H   0  0  0  0  0  0
  -23.7326  -30.5845   19.4012 H   0  0  0  0  0  0
  -22.7456  -29.2333   19.8652 H   0  0  0  0  0  0
  -25.1277  -36.1945   25.0847 H   0  0  0  0  0  0
  -20.9963  -28.3238   24.1434 H   0  0  0  0  0  0
  -20.5611  -26.2276   23.3631 H   0  0  0  0  0  0
  -21.6634  -26.7405   22.1261 H   0  0  0  0  0  0
  -19.6907  -25.6283   21.1248 H   0  0  0  0  0  0
  -19.6717  -27.3177   20.6743 H   0  0  0  0  0  0
  -17.4203  -26.6708   21.3978 H   0  0  0  0  0  0
  -18.0288  -26.0064   22.8979 H   0  0  0  0  0  0
  -19.7918  -30.7241   24.2311 H   0  0  0  0  0  0
  -17.5002  -31.6266   24.5163 H   0  0  0  0  0  0
  -15.5340  -30.2997   23.7626 H   0  0  0  0  0  0
  -15.8659  -28.0823   22.7056 H   0  0  0  0  0  0
  -24.5889  -30.7091   25.7851 H   0  0  0  0  0  0
  -24.8988  -32.2883   26.4972 H   0  0  0  0  0  0
  -25.8122  -30.8861   27.0232 H   0  0  0  0  0  0
  -26.2853  -29.6761   24.1196 H   0  0  0  0  0  0
  -27.4133  -29.7289   25.4549 H   0  0  0  0  0  0
  -27.8661  -30.4354   23.9218 H   0  0  0  0  0  0
  -27.2681  -33.3568   26.2113 H   0  0  0  0  0  0
  -28.3788  -32.6961   25.0210 H   0  0  0  0  0  0
  -28.0839  -31.8403   26.5259 H   0  0  0  0  0  0
  -28.2606  -38.0091   24.7488 H   0  0  0  0  0  0
  -28.1083  -36.2620   24.6275 H   0  0  0  0  0  0
  -27.2330  -37.1445   25.8871 H   0  0  0  0  0  0
  -20.9297  -29.8769   21.6961 H   0  0  0  0  0  0
  -26.0176  -38.2853   24.1418 H   0  0  0  0  0  0
  -30.3392  -20.6550   22.5768 H   0  0  0  0  0  0
  -30.7370  -18.8438   24.1946 H   0  0  0  0  0  0
  -29.6238  -17.7242   19.4856 H   0  0  0  0  0  0
  -30.9241  -16.5626   24.7846 H   0  0  0  0  0  0
  -31.3643  -15.4287   23.5091 H   0  0  0  0  0  0
  -29.6703  -15.6142   23.9903 H   0  0  0  0  0  0
  -29.2681  -20.0921   19.0018 H   0  0  0  0  0  0
  -30.7197  -20.8342   19.5933 H   0  0  0  0  0  0
  -27.2219  -23.5918   20.7817 H   0  0  0  0  0  0
  -27.7180  -24.2160   19.2434 H   0  0  0  0  0  0
  -29.3842  -25.3761   21.3908 H   0  0  0  0  0  0
  -27.7195  -25.5744   21.7754 H   0  0  0  0  0  0
  -28.9593  -15.1887   21.4120 H   0  0  0  0  0  0
  -27.9611  -21.4434   20.6065 H   0  0  0  0  0  0
  1 25  1  0  0  0
  1 30  2  0  0  0
  1 82  1  0  0  0
  2  3  1  0  0  0
  2 25  1  0  0  0
  2 85  1  0  0  0
  2 86  1  0  0  0
  3  4  1  0  0  0
  3 87  1  0  0  0
  3 88  1  0  0  0
  4  5  1  0  0  0
  4 89  1  0  0  0
  4 90  1  0  0  0
  5  6  1  0  0  0
  5 26  1  0  0  0
  5 91  1  0  0  0
  6 25  1  0  0  0
  6 92  1  0  0  0
  6 93  1  0  0  0
  7  8  2  0  0  0
  7 26  1  0  0  0
  7 29  1  0  0  0
  8  9  1  0  0  0
  8 22  1  0  0  0
  9 10  1  0  0  0
  9 27  2  0  0  0
 10 11  2  0  0  0
 10 15  1  0  0  0
 11 12  1  0  0  0
 11 94  1  0  0  0
 12 13  2  0  0  0
 12 95  1  0  0  0
 13 14  1  0  0  0
 13 31  1  0  0  0
 14 15  2  0  0  0
 14 96  1  0  0  0
 15 97  1  0  0  0
 16 17  2  0  0  0
 16 21  1  0  0  0
 16 31  1  0  0  0
 17 18  1  0  0  0
 17 98  1  0  0  0
 18 19  2  0  0  0
 18 99  1  0  0  0
 19 20  1  0  0  0
 19 24  1  0  0  0
 20 21  2  0  0  0
 20100  1  0  0  0
 21 23  1  0  0  0
 22 28  1  0  0  0
 22 32  2  0  0  0
 26 27  1  0  0  0
 28101  1  0  0  0
 28102  1  0  0  0
 29103  1  0  0  0
 29104  1  0  0  0
 33 34  1  0  0  0
 33 66  1  0  0  0
 33 70  2  0  0  0
 34 36  1  0  0  0
 34 59  1  0  0  0
 34105  1  0  0  0
 35 44  2  0  0  0
 35 45  1  0  0  0
 35 68  1  0  0  0
 36 56  1  0  0  0
 36106  1  0  0  0
 37 39  1  0  0  0
 37 47  1  0  0  0
 37 66  1  0  0  0
 37107  1  0  0  0
 38 43  2  0  0  0
 38 46  1  0  0  0
 38 47  1  0  0  0
 39 64  1  0  0  0
 39 67  2  0  0  0
 40 52  1  0  0  0
 40 53  2  0  0  0
 40 58  1  0  0  0
 41108  1  0  0  0
 41109  1  0  0  0
 41110  1  0  0  0
 41 48  1  0  0  0
 42 43  1  0  0  0
 42 66  1  0  0  0
 42111  1  0  0  0
 42112  1  0  0  0
 43 44  1  0  0  0
 44113  1  0  0  0
 45 46  2  0  0  0
 45114  1  0  0  0
 46115  1  0  0  0
 47116  1  0  0  0
 47117  1  0  0  0
 48 56  1  0  0  0
 48 65  1  0  0  0
 48118  1  0  0  0
 49 50  1  0  0  0
 49 53  1  0  0  0
 49 64  1  0  0  0
 49119  1  0  0  0
 50 51  1  0  0  0
 50120  1  0  0  0
 50121  1  0  0  0
 51 52  1  0  0  0
 51122  1  0  0  0
 51123  1  0  0  0
 52124  1  0  0  0
 52125  1  0  0  0
 53 54  1  0  0  0
 54 55  2  0  0  0
 54126  1  0  0  0
 55 57  1  0  0  0
 55127  1  0  0  0
 56 69  2  0  0  0
 57 58  2  0  0  0
 57128  1  0  0  0
 58129  1  0  0  0
 59 60  1  0  0  0
 59 61  1  0  0  0
 59 62  1  0  0  0
 60130  1  0  0  0
 60131  1  0  0  0
 60132  1  0  0  0
 61133  1  0  0  0
 61134  1  0  0  0
 61135  1  0  0  0
 62136  1  0  0  0
 62137  1  0  0  0
 62138  1  0  0  0
 63 65  1  0  0  0
 63139  1  0  0  0
 63140  1  0  0  0
 63141  1  0  0  0
 64142  1  0  0  0
 65143  1  0  0  0
 68 81  1  0  0  0
 71 72  2  0  0  0
 71 74  1  0  0  0
 71144  1  0  0  0
 72 75  1  0  0  0
 72145  1  0  0  0
 73 74  2  0  0  0
 73 76  1  0  0  0
 73146  1  0  0  0
 74 79  1  0  0  0
 75 76  2  0  0  0
 75 78  1  0  0  0
 76 82  1  0  0  0
 77 80  1  0  0  0
 77 83  1  0  0  0
 77 84  2  0  0  0
 78147  1  0  0  0
 78148  1  0  0  0
 78149  1  0  0  0
 79 83  1  0  0  0
 79150  1  0  0  0
 79151  1  0  0  0
 80 81  1  0  0  0
 80152  1  0  0  0
 80153  1  0  0  0
 81154  1  0  0  0
 81155  1  0  0  0
 82156  1  0  0  0
 83157  1  0  0  0
M  ISO  4   1 100  68 101  81 101  82 100
M  END
> <chiral flag>
0

> <version>
0

> <s_m_source_file>
/data/baiqing/PycharmProjects/Reinvent-master-3.2/result/LINK_invent/BTK/process_docking_weight1_custom_product_contain_oxygen_bond_distance_aromatic_linkinvent_7_9_3/rearranged_h_0051.sdf

> <i_m_source_file_index>
81

> <r_mmod_Potential_Energy-OPLS-2005>
-100.299880981445

> <r_mmod_Stretch_Energy-OPLS-2005>
52.3819885253906

> <r_mmod_Bend_Energy-OPLS-2005>
111.65648651123

> <r_mmod_Torsional_Energy-OPLS-2005>
261.895111083984

> <r_mmod_Improper_Torsional_Energy-OPLS-2005>
5.68444871902466

> <r_mmod_Van_der_Waal_Energy-OPLS-2005>
140.511520385742

> <r_mmod_Electrostatic_Energy-OPLS-2005>
-453.203033447266

> <r_mmod_Solvation_Energy-OPLS-2005>
-242.544158935547

> <b_mmod_Minimization_Converged-OPLS-2005>
0

> <r_mmod_RMS_Derivative-OPLS-2005>
2.47456812858582

$$$$
81
                    3D
 Structure written by MMmdl.
169177  0  0  1  0            999 V2000
  -30.7290  -14.4673   20.5277 C   0  0  0  0  0  0
  -30.4211  -12.2826   19.4208 C   0  0  0  0  0  0
  -29.4818  -12.3649   18.2007 C   0  0  0  0  0  0
  -27.9981  -12.3165   18.6211 C   0  0  0  0  0  0
  -27.6520  -13.1959   19.8538 C   0  0  2  0  0  0
  -28.7025  -13.0394   20.9721 C   0  0  0  0  0  0
  -25.2603  -13.8115   20.5663 C   0  0  0  0  0  0
  -24.1857  -13.0411   20.9213 C   0  0  0  0  0  0
  -24.6408  -11.6880   20.8824 C   0  0  0  0  0  0
  -23.9075  -10.4268   21.0474 C   0  0  0  0  0  0
  -24.3615   -9.4175   21.9239 C   0  0  0  0  0  0
  -23.6270   -8.2222   22.0788 C   0  0  0  0  0  0
  -22.4266   -8.0266   21.3556 C   0  0  0  0  0  0
  -21.9930   -9.0249   20.4646 C   0  0  0  0  0  0
  -22.7283  -10.2121   20.3065 C   0  0  0  0  0  0
  -21.6851   -6.0713   22.5284 C   0  0  0  0  0  0
  -21.4021   -6.5616   23.8219 C   0  0  0  0  0  0
  -21.3664   -5.6769   24.9184 C   0  0  0  0  0  0
  -21.6042   -4.3035   24.7249 C   0  0  0  0  0  0
  -21.8808   -3.8120   23.4365 C   0  0  0  0  0  0
  -21.9193   -4.6931   22.3416 C   0  0  0  0  0  0
  -22.7870  -13.5210   21.1839 C   0  0  0  0  0  0
  -22.1648   -4.2099   21.0992 F   0  0  0  0  0  0
  -21.5647   -3.4530   25.7767 F   0  0  0  0  0  0
  -30.0209  -13.3172   20.3824 N   0  0  0  0  0  0
  -26.3010  -12.9258   20.3350 N   0  0  0  0  0  0
  -25.9328  -11.6440   20.5874 N   0  0  0  0  0  0
  -22.0531  -12.8133   22.0357 N   0  0  0  0  0  0
  -25.4341  -15.1820   20.3961 N   0  0  0  0  0  0
  -31.9053  -14.5866   20.1847 O   0  0  0  0  0  0
  -21.6619   -6.8865   21.4256 O   0  0  0  0  0  0
  -22.3565  -14.5505   20.6692 O   0  0  0  0  0  0
  -24.6100  -31.8706   23.2133 C   0  0  0  0  0  0
  -25.9004  -32.4839   23.8421 C   0  0  1  0  0  0
  -27.2428  -27.4673   20.0838 C   0  0  0  0  0  0
  -25.5875  -33.8642   24.2351 N   0  0  0  0  0  0
  -23.3958  -30.4941   21.5532 C   0  0  2  0  0  0
  -24.8419  -28.9653   20.1167 C   0  0  0  0  0  0
  -22.7384  -29.4659   22.5019 C   0  0  0  0  0  0
  -18.0257  -28.1351   22.8498 C   0  0  0  0  0  0
  -24.1477  -36.7331   23.2637 C   0  0  0  0  0  0
  -25.9215  -30.8461   21.3604 C   0  0  0  0  0  0
  -25.9996  -29.4828   20.7088 C   0  0  0  0  0  0
  -27.1984  -28.7403   20.6902 C   0  0  0  0  0  0
  -26.0591  -26.9543   19.4962 C   0  0  0  0  0  0
  -24.8645  -27.6976   19.5121 C   0  0  0  0  0  0
  -23.6014  -29.8259   20.1675 C   0  0  0  0  0  0
  -25.4095  -36.3123   24.0340 C   0  0  1  0  0  0
  -20.5849  -28.3640   23.1326 C   0  0  2  0  0  0
  -20.6751  -26.9382   22.5418 C   0  0  0  0  0  0
  -19.5726  -26.6368   21.5217 C   0  0  0  0  0  0
  -18.1904  -26.7898   22.1630 C   0  0  0  0  0  0
  -19.1508  -28.8812   23.2909 C   0  0  0  0  0  0
  -18.9443  -30.1420   23.8920 C   0  0  0  0  0  0
  -17.6449  -30.6573   24.0560 C   0  0  0  0  0  0
  -25.9020  -34.9487   23.5145 C   0  0  0  0  0  0
  -16.5337  -29.9079   23.6321 C   0  0  0  0  0  0
  -16.7248  -28.6483   23.0360 C   0  0  0  0  0  0
  -26.4445  -31.6609   25.0735 C   0  0  0  0  0  0
  -25.3724  -31.3730   26.1496 C   0  0  0  0  0  0
  -27.0281  -30.3056   24.6091 C   0  0  0  0  0  0
  -27.6010  -32.4335   25.7508 C   0  0  0  0  0  0
  -27.5575  -37.1819   24.8467 C   0  0  0  0  0  0
  -21.4118  -29.3023   22.3755 N   0  0  0  0  0  0
  -26.4292  -37.3800   23.9404 N   0  0  0  0  0  0
  -24.6611  -31.0836   22.1011 N   0  0  0  0  0  0
  -23.4182  -28.8203   23.3040 O   0  0  0  0  0  0
  -28.4479  -26.7936   20.0915 O   0  0  0  0  0  0
  -26.5583  -34.8921   22.4705 O   0  0  0  0  0  0
  -23.5300  -32.1440   23.7541 O   0  0  0  0  0  0
  -28.5909  -16.8286   17.5901 C   0  0  0  0  0  0
  -27.9813  -18.0155   18.0079 C   0  0  0  0  0  0
  -29.2906  -16.0558   18.5211 C   0  0  0  0  0  0
  -28.0963  -18.4730   19.3402 C   0  0  0  0  0  0
  -28.8220  -17.6776   20.2912 C   0  0  0  0  0  0
  -29.3724  -16.4267   19.8832 C   0  0  0  0  0  0
  -27.4712  -19.8195   19.6309 C   0  0  0  0  0  0
  -24.9815  -20.6162   22.2082 C   0  0  0  0  0  0
  -29.0604  -18.1550   21.7245 C   0  0  0  0  0  0
  -23.2710  -18.9758   22.4637 C   0  0  0  0  0  0
  -27.5505  -23.1410   20.5948 C   0  0  0  0  0  0
  -27.8786  -24.5888   20.9860 C   0  0  0  0  0  0
  -26.8141  -22.3660   21.7036 C   0  0  0  0  0  0
  -28.4697  -25.3959   19.8133 C   0  0  0  0  0  0
  -26.0429  -21.1123   21.2107 C   0  0  1  0  0  0
  -30.0254  -15.5716   20.8323 N   0  0  0  0  0  0
  -26.9307  -20.0102   20.8369 N   0  0  0  0  0  0
  -27.3764  -20.6584   18.7325 O   0  0  0  0  0  0
  -24.7971  -21.0896   23.3319 O   0  0  0  0  0  0
  -24.2978  -19.5803   21.6953 O   0  0  0  0  0  0
  -31.4618  -12.3792   19.1033 H   0  0  0  0  0  0
  -30.3477  -11.3003   19.8902 H   0  0  0  0  0  0
  -29.6903  -11.5231   17.5397 H   0  0  0  0  0  0
  -29.6892  -13.2404   17.5945 H   0  0  0  0  0  0
  -27.7779  -11.2728   18.8494 H   0  0  0  0  0  0
  -27.3541  -12.5804   17.7802 H   0  0  0  0  0  0
  -27.6686  -14.2293   19.5183 H   0  0  0  0  0  0
  -28.6823  -12.0293   21.3842 H   0  0  0  0  0  0
  -28.4786  -13.7098   21.8035 H   0  0  0  0  0  0
  -25.2766   -9.5610   22.4809 H   0  0  0  0  0  0
  -23.9948   -7.4608   22.7516 H   0  0  0  0  0  0
  -21.0872   -8.8788   19.8948 H   0  0  0  0  0  0
  -22.3802  -10.9650   19.6126 H   0  0  0  0  0  0
  -21.2026   -7.6128   23.9705 H   0  0  0  0  0  0
  -21.1496   -6.0522   25.9092 H   0  0  0  0  0  0
  -22.0592   -2.7572   23.2896 H   0  0  0  0  0  0
  -22.4234  -11.9792   22.4671 H   0  0  0  0  0  0
  -21.1115  -13.1058   22.2533 H   0  0  0  0  0  0
  -24.6604  -15.8324   20.4523 H   0  0  0  0  0  0
  -26.2873  -15.6037   20.0509 H   0  0  0  0  0  0
  -26.7080  -32.5559   23.1200 H   0  0  0  0  0  0
  -25.0029  -33.9833   25.0499 H   0  0  0  0  0  0
  -22.6811  -31.3083   21.4174 H   0  0  0  0  0  0
  -23.3731  -35.9676   23.3316 H   0  0  0  0  0  0
  -24.3575  -36.8925   22.2051 H   0  0  0  0  0  0
  -23.7242  -37.6547   23.6637 H   0  0  0  0  0  0
  -26.0243  -31.6118   20.5905 H   0  0  0  0  0  0
  -26.8137  -30.9043   21.9728 H   0  0  0  0  0  0
  -28.0948  -29.1422   21.1426 H   0  0  0  0  0  0
  -26.0317  -25.9875   19.0180 H   0  0  0  0  0  0
  -23.9706  -27.2922   19.0569 H   0  0  0  0  0  0
  -23.7029  -30.5992   19.4060 H   0  0  0  0  0  0
  -22.7272  -29.2394   19.8779 H   0  0  0  0  0  0
  -25.1267  -36.2005   25.0837 H   0  0  0  0  0  0
  -20.9934  -28.3191   24.1450 H   0  0  0  0  0  0
  -20.5651  -26.2253   23.3606 H   0  0  0  0  0  0
  -21.6621  -26.7425   22.1216 H   0  0  0  0  0  0
  -19.6893  -25.6290   21.1222 H   0  0  0  0  0  0
  -19.6653  -27.3201   20.6764 H   0  0  0  0  0  0
  -17.4180  -26.6648   21.4025 H   0  0  0  0  0  0
  -18.0298  -26.0032   22.9015 H   0  0  0  0  0  0
  -19.7927  -30.7214   24.2306 H   0  0  0  0  0  0
  -17.5014  -31.6258   24.5146 H   0  0  0  0  0  0
  -15.5341  -30.2994   23.7625 H   0  0  0  0  0  0
  -15.8644  -28.0804   22.7084 H   0  0  0  0  0  0
  -24.5880  -30.7087   25.7857 H   0  0  0  0  0  0
  -24.8945  -32.2903   26.4940 H   0  0  0  0  0  0
  -25.8082  -30.8911   27.0258 H   0  0  0  0  0  0
  -26.2841  -29.6845   24.1090 H   0  0  0  0  0  0
  -27.4010  -29.7250   25.4542 H   0  0  0  0  0  0
  -27.8679  -30.4393   23.9268 H   0  0  0  0  0  0
  -27.2596  -33.3607   26.2122 H   0  0  0  0  0  0
  -28.3797  -32.6946   25.0332 H   0  0  0  0  0  0
  -28.0696  -31.8450   26.5405 H   0  0  0  0  0  0
  -28.2598  -38.0107   24.7491 H   0  0  0  0  0  0
  -28.1051  -36.2638   24.6307 H   0  0  0  0  0  0
  -27.2289  -37.1491   25.8868 H   0  0  0  0  0  0
  -20.9268  -29.8779   21.7021 H   0  0  0  0  0  0
  -26.0180  -38.2878   24.1405 H   0  0  0  0  0  0
  -28.5286  -16.5118   16.5578 H   0  0  0  0  0  0
  -27.4413  -18.5995   17.2741 H   0  0  0  0  0  0
  -29.7772  -15.1730   18.1543 H   0  0  0  0  0  0
  -29.2763  -19.2228   21.7589 H   0  0  0  0  0  0
  -29.9204  -17.6773   22.1906 H   0  0  0  0  0  0
  -28.1881  -17.9518   22.3468 H   0  0  0  0  0  0
  -22.4479  -19.6736   22.6257 H   0  0  0  0  0  0
  -23.6460  -18.6508   23.4361 H   0  0  0  0  0  0
  -22.8782  -18.1044   21.9407 H   0  0  0  0  0  0
  -28.4657  -22.6210   20.3128 H   0  0  0  0  0  0
  -26.9202  -23.1665   19.7052 H   0  0  0  0  0  0
  -28.5685  -24.6059   21.8307 H   0  0  0  0  0  0
  -26.9639  -25.0670   21.3369 H   0  0  0  0  0  0
  -26.0914  -23.0494   22.1552 H   0  0  0  0  0  0
  -27.5073  -22.0991   22.5014 H   0  0  0  0  0  0
  -27.9777  -25.1761   18.8664 H   0  0  0  0  0  0
  -29.5087  -25.0960   19.6674 H   0  0  0  0  0  0
  -25.4931  -21.4085   20.3154 H   0  0  0  0  0  0
  -30.4323  -16.0837   21.5976 H   0  0  0  0  0  0
  -26.9982  -19.2485   21.4935 H   0  0  0  0  0  0
  1 25  1  0  0  0
  1 30  2  0  0  0
  1 86  1  0  0  0
  2  3  1  0  0  0
  2 25  1  0  0  0
  2 91  1  0  0  0
  2 92  1  0  0  0
  3  4  1  0  0  0
  3 93  1  0  0  0
  3 94  1  0  0  0
  4  5  1  0  0  0
  4 95  1  0  0  0
  4 96  1  0  0  0
  5  6  1  0  0  0
  5 26  1  0  0  0
  5 97  1  0  0  0
  6 25  1  0  0  0
  6 98  1  0  0  0
  6 99  1  0  0  0
  7  8  2  0  0  0
  7 26  1  0  0  0
  7 29  1  0  0  0
  8  9  1  0  0  0
  8 22  1  0  0  0
  9 10  1  0  0  0
  9 27  2  0  0  0
 10 11  2  0  0  0
 10 15  1  0  0  0
 11 12  1  0  0  0
 11100  1  0  0  0
 12 13  2  0  0  0
 12101  1  0  0  0
 13 14  1  0  0  0
 13 31  1  0  0  0
 14 15  2  0  0  0
 14102  1  0  0  0
 15103  1  0  0  0
 16 17  2  0  0  0
 16 21  1  0  0  0
 16 31  1  0  0  0
 17 18  1  0  0  0
 17104  1  0  0  0
 18 19  2  0  0  0
 18105  1  0  0  0
 19 20  1  0  0  0
 19 24  1  0  0  0
 20 21  2  0  0  0
 20106  1  0  0  0
 21 23  1  0  0  0
 22 28  1  0  0  0
 22 32  2  0  0  0
 26 27  1  0  0  0
 28107  1  0  0  0
 28108  1  0  0  0
 29109  1  0  0  0
 29110  1  0  0  0
 33 34  1  0  0  0
 33 66  1  0  0  0
 33 70  2  0  0  0
 34 36  1  0  0  0
 34 59  1  0  0  0
 34111  1  0  0  0
 35 44  2  0  0  0
 35 45  1  0  0  0
 35 68  1  0  0  0
 36 56  1  0  0  0
 36112  1  0  0  0
 37 39  1  0  0  0
 37 47  1  0  0  0
 37 66  1  0  0  0
 37113  1  0  0  0
 38 43  2  0  0  0
 38 46  1  0  0  0
 38 47  1  0  0  0
 39 64  1  0  0  0
 39 67  2  0  0  0
 40 52  1  0  0  0
 40 53  2  0  0  0
 40 58  1  0  0  0
 41114  1  0  0  0
 41115  1  0  0  0
 41116  1  0  0  0
 41 48  1  0  0  0
 42 43  1  0  0  0
 42 66  1  0  0  0
 42117  1  0  0  0
 42118  1  0  0  0
 43 44  1  0  0  0
 44119  1  0  0  0
 45 46  2  0  0  0
 45120  1  0  0  0
 46121  1  0  0  0
 47122  1  0  0  0
 47123  1  0  0  0
 48 56  1  0  0  0
 48 65  1  0  0  0
 48124  1  0  0  0
 49 50  1  0  0  0
 49 53  1  0  0  0
 49 64  1  0  0  0
 49125  1  0  0  0
 50 51  1  0  0  0
 50126  1  0  0  0
 50127  1  0  0  0
 51 52  1  0  0  0
 51128  1  0  0  0
 51129  1  0  0  0
 52130  1  0  0  0
 52131  1  0  0  0
 53 54  1  0  0  0
 54 55  2  0  0  0
 54132  1  0  0  0
 55 57  1  0  0  0
 55133  1  0  0  0
 56 69  2  0  0  0
 57 58  2  0  0  0
 57134  1  0  0  0
 58135  1  0  0  0
 59 60  1  0  0  0
 59 61  1  0  0  0
 59 62  1  0  0  0
 60136  1  0  0  0
 60137  1  0  0  0
 60138  1  0  0  0
 61139  1  0  0  0
 61140  1  0  0  0
 61141  1  0  0  0
 62142  1  0  0  0
 62143  1  0  0  0
 62144  1  0  0  0
 63 65  1  0  0  0
 63145  1  0  0  0
 63146  1  0  0  0
 63147  1  0  0  0
 64148  1  0  0  0
 65149  1  0  0  0
 68 84  1  0  0  0
 71 72  2  0  0  0
 71 73  1  0  0  0
 71150  1  0  0  0
 72 74  1  0  0  0
 72151  1  0  0  0
 73 76  2  0  0  0
 73152  1  0  0  0
 74 75  2  0  0  0
 74 77  1  0  0  0
 75 76  1  0  0  0
 75 79  1  0  0  0
 76 86  1  0  0  0
 77 87  1  0  0  0
 77 88  2  0  0  0
 78 85  1  0  0  0
 78 89  2  0  0  0
 78 90  1  0  0  0
 79153  1  0  0  0
 79154  1  0  0  0
 79155  1  0  0  0
 80 90  1  0  0  0
 80156  1  0  0  0
 80157  1  0  0  0
 80158  1  0  0  0
 81 82  1  0  0  0
 81 83  1  0  0  0
 81159  1  0  0  0
 81160  1  0  0  0
 82 84  1  0  0  0
 82161  1  0  0  0
 82162  1  0  0  0
 83163  1  0  0  0
 83164  1  0  0  0
 83 85  1  0  0  0
 84165  1  0  0  0
 84166  1  0  0  0
 85 87  1  0  0  0
 85167  1  0  0  0
 86168  1  0  0  0
 87169  1  0  0  0
M  ISO  4   1 100  68 101  84 101  86 100
M  END
> <chiral flag>
0

> <version>
0

> <s_m_source_file>
/data/baiqing/PycharmProjects/Reinvent-master-3.2/result/LINK_invent/BTK/process_docking_weight1_custom_product_contain_oxygen_bond_distance_aromatic_linkinvent_7_9_3/rearranged_h_0051.sdf

> <i_m_source_file_index>
82

> <r_mmod_Potential_Energy-OPLS-2005>
-111.28849029541

> <r_mmod_Stretch_Energy-OPLS-2005>
38.7996711730957

> <r_mmod_Bend_Energy-OPLS-2005>
111.06957244873

> <r_mmod_Torsional_Energy-OPLS-2005>
268.255096435547

> <r_mmod_Improper_Torsional_Energy-OPLS-2005>
9.89115238189697

> <r_mmod_Van_der_Waal_Energy-OPLS-2005>
168.796478271484

> <r_mmod_Electrostatic_Energy-OPLS-2005>
-508.265991210938

> <r_mmod_Solvation_Energy-OPLS-2005>
-220.545166015625

> <b_mmod_Minimization_Converged-OPLS-2005>
0

> <r_mmod_RMS_Derivative-OPLS-2005>
2.62161946296692

$$$$
82
                    3D
 Structure written by MMmdl.
164173  0  0  1  0            999 V2000
  -30.6365  -14.5648   20.5674 C   0  0  0  0  0  0
  -30.4444  -12.3577   19.4469 C   0  0  0  0  0  0
  -29.5146  -12.5071   18.2205 C   0  0  0  0  0  0
  -28.0331  -12.3507   18.6302 C   0  0  0  0  0  0
  -27.6608  -13.2071   19.8697 C   0  0  2  0  0  0
  -28.6988  -13.0027   20.9962 C   0  0  0  0  0  0
  -25.2570  -13.8149   20.5701 C   0  0  0  0  0  0
  -24.1809  -13.0437   20.9167 C   0  0  0  0  0  0
  -24.6372  -11.6909   20.8711 C   0  0  0  0  0  0
  -23.9048  -10.4282   21.0382 C   0  0  0  0  0  0
  -24.3597   -9.4211   21.9171 C   0  0  0  0  0  0
  -23.6272   -8.2244   22.0756 C   0  0  0  0  0  0
  -22.4249   -8.0265   21.3554 C   0  0  0  0  0  0
  -21.9875   -9.0243   20.4663 C   0  0  0  0  0  0
  -22.7202  -10.2123   20.3052 C   0  0  0  0  0  0
  -21.6841   -6.0712   22.5268 C   0  0  0  0  0  0
  -21.4015   -6.5623   23.8205 C   0  0  0  0  0  0
  -21.3670   -5.6779   24.9160 C   0  0  0  0  0  0
  -21.6038   -4.3040   24.7223 C   0  0  0  0  0  0
  -21.8817   -3.8136   23.4344 C   0  0  0  0  0  0
  -21.9191   -4.6946   22.3400 C   0  0  0  0  0  0
  -22.7826  -13.5237   21.1833 C   0  0  0  0  0  0
  -22.1652   -4.2126   21.0978 F   0  0  0  0  0  0
  -21.5648   -3.4538   25.7752 F   0  0  0  0  0  0
  -30.0260  -13.3467   20.4548 N   0  0  0  0  0  0
  -26.2997  -12.9326   20.3292 N   0  0  0  0  0  0
  -25.9285  -11.6484   20.5676 N   0  0  0  0  0  0
  -22.0458  -12.8258   22.0409 N   0  0  0  0  0  0
  -25.4324  -15.1863   20.4218 N   0  0  0  0  0  0
  -31.7571  -14.7829   20.0990 O   0  0  0  0  0  0
  -21.6630   -6.8857   21.4232 O   0  0  0  0  0  0
  -22.3500  -14.5544   20.6680 O   0  0  0  0  0  0
  -24.6202  -31.8631   23.2071 C   0  0  0  0  0  0
  -25.9083  -32.4796   23.8373 C   0  0  1  0  0  0
  -27.2211  -27.3651   20.1199 C   0  0  0  0  0  0
  -25.5926  -33.8590   24.2312 N   0  0  0  0  0  0
  -23.4104  -30.4882   21.5472 C   0  0  2  0  0  0
  -24.8542  -28.9398   20.1236 C   0  0  0  0  0  0
  -22.7442  -29.4647   22.4953 C   0  0  0  0  0  0
  -18.0287  -28.1382   22.8489 C   0  0  0  0  0  0
  -24.1498  -36.7304   23.2639 C   0  0  0  0  0  0
  -25.9454  -30.8088   21.3688 C   0  0  0  0  0  0
  -26.0184  -29.4342   20.7251 C   0  0  0  0  0  0
  -27.2056  -28.6547   20.7189 C   0  0  0  0  0  0
  -26.0405  -26.9072   19.4996 C   0  0  0  0  0  0
  -24.8624  -27.6777   19.5074 C   0  0  0  0  0  0
  -23.6229  -29.8194   20.1637 C   0  0  0  0  0  0
  -25.4111  -36.3089   24.0340 C   0  0  1  0  0  0
  -20.5880  -28.3680   23.1302 C   0  0  2  0  0  0
  -20.6773  -26.9404   22.5424 C   0  0  0  0  0  0
  -19.5753  -26.6394   21.5212 C   0  0  0  0  0  0
  -18.1927  -26.7939   22.1609 C   0  0  0  0  0  0
  -19.1537  -28.8844   23.2898 C   0  0  0  0  0  0
  -18.9453  -30.1446   23.8921 C   0  0  0  0  0  0
  -17.6451  -30.6582   24.0572 C   0  0  0  0  0  0
  -25.9045  -34.9460   23.5127 C   0  0  0  0  0  0
  -16.5346  -29.9085   23.6318 C   0  0  0  0  0  0
  -16.7274  -28.6503   23.0341 C   0  0  0  0  0  0
  -26.4512  -31.6578   25.0704 C   0  0  0  0  0  0
  -25.3795  -31.3689   26.1469 C   0  0  0  0  0  0
  -27.0333  -30.3013   24.6097 C   0  0  0  0  0  0
  -27.6107  -32.4297   25.7441 C   0  0  0  0  0  0
  -27.5588  -37.1789   24.8460 C   0  0  0  0  0  0
  -21.4162  -29.3049   22.3705 N   0  0  0  0  0  0
  -26.4291  -37.3777   23.9428 N   0  0  0  0  0  0
  -24.6772  -31.0686   22.0994 N   0  0  0  0  0  0
  -23.4191  -28.8188   23.3013 O   0  0  0  0  0  0
  -28.3904  -26.6239   20.0288 O   0  0  0  0  0  0
  -26.5590  -34.8919   22.4680 O   0  0  0  0  0  0
  -23.5383  -32.1408   23.7437 O   0  0  0  0  0  0
  -28.8588  -19.0604   21.9912 C   0  0  0  0  0  0
  -30.7619  -17.7740   20.3899 C   0  0  0  0  0  0
  -29.7764  -19.8652   21.2811 C   0  0  0  0  0  0
  -28.8952  -17.6434   21.9257 C   0  0  0  0  0  0
  -30.7168  -19.1982   20.4502 C   0  0  0  0  0  0
  -29.8729  -16.9677   21.1457 C   0  0  0  0  0  0
  -27.9431  -22.7609   20.7289 C   0  0  0  0  0  0
  -27.5423  -24.1391   20.1312 C   0  0  0  0  0  0
  -29.9752  -24.8241   20.3578 C   0  0  0  0  0  0
  -30.1659  -23.3212   19.9784 C   0  0  0  0  0  0
  -28.5046  -25.2783   20.5921 C   0  0  1  0  0  0
  -27.8867  -16.8597   22.7486 C   0  0  0  0  0  0
  -31.7254  -19.9953   19.6443 C   0  0  0  0  0  0
  -29.8515  -21.3861   21.5978 C   0  0  0  0  0  0
  -29.2532  -22.4124   20.6957 N   0  0  0  0  0  0
  -29.8690  -15.5194   21.1589 N   0  0  0  0  0  0
  -27.0796  -22.0553   21.2595 O   0  0  0  0  0  0
  -31.4893  -12.4834   19.1574 H   0  0  0  0  0  0
  -30.3732  -11.3523   19.8633 H   0  0  0  0  0  0
  -29.7723  -11.7601   17.4676 H   0  0  0  0  0  0
  -29.6684  -13.4789   17.7485 H   0  0  0  0  0  0
  -27.8619  -11.2970   18.8498 H   0  0  0  0  0  0
  -27.3818  -12.5970   17.7913 H   0  0  0  0  0  0
  -27.7005  -14.2500   19.5547 H   0  0  0  0  0  0
  -28.6933  -11.9652   21.3319 H   0  0  0  0  0  0
  -28.4350  -13.5851   21.8786 H   0  0  0  0  0  0
  -25.2736   -9.5709   22.4728 H   0  0  0  0  0  0
  -23.9996   -7.4646   22.7468 H   0  0  0  0  0  0
  -21.0805   -8.8764   19.8975 H   0  0  0  0  0  0
  -22.3652  -10.9661   19.6163 H   0  0  0  0  0  0
  -21.2001   -7.6129   23.9700 H   0  0  0  0  0  0
  -21.1493   -6.0507   25.9066 H   0  0  0  0  0  0
  -22.0593   -2.7597   23.2844 H   0  0  0  0  0  0
  -22.4053  -11.9959   22.4864 H   0  0  0  0  0  0
  -21.1087  -13.1325   22.2610 H   0  0  0  0  0  0
  -24.6837  -15.8503   20.5842 H   0  0  0  0  0  0
  -26.2934  -15.6328   20.1355 H   0  0  0  0  0  0
  -26.7150  -32.5486   23.1116 H   0  0  0  0  0  0
  -25.0111  -33.9742   25.0487 H   0  0  0  0  0  0
  -22.7018  -31.3066   21.4047 H   0  0  0  0  0  0
  -23.3755  -35.9639   23.3279 H   0  0  0  0  0  0
  -24.3614  -36.8937   22.2059 H   0  0  0  0  0  0
  -23.7244  -37.6504   23.6668 H   0  0  0  0  0  0
  -26.0627  -31.5646   20.5912 H   0  0  0  0  0  0
  -26.8332  -30.8687   21.9868 H   0  0  0  0  0  0
  -28.1084  -29.0375   21.1741 H   0  0  0  0  0  0
  -26.0257  -25.9632   18.9781 H   0  0  0  0  0  0
  -23.9714  -27.2972   19.0263 H   0  0  0  0  0  0
  -23.7462  -30.5924   19.4041 H   0  0  0  0  0  0
  -22.7439  -29.2470   19.8610 H   0  0  0  0  0  0
  -25.1279  -36.1948   25.0828 H   0  0  0  0  0  0
  -20.9977  -28.3258   24.1417 H   0  0  0  0  0  0
  -20.5684  -26.2279   23.3617 H   0  0  0  0  0  0
  -21.6648  -26.7449   22.1212 H   0  0  0  0  0  0
  -19.6918  -25.6310   21.1233 H   0  0  0  0  0  0
  -19.6701  -27.3216   20.6750 H   0  0  0  0  0  0
  -17.4210  -26.6710   21.3995 H   0  0  0  0  0  0
  -18.0300  -26.0073   22.8990 H   0  0  0  0  0  0
  -19.7926  -30.7256   24.2311 H   0  0  0  0  0  0
  -17.5004  -31.6264   24.5172 H   0  0  0  0  0  0
  -15.5347  -30.2988   23.7636 H   0  0  0  0  0  0
  -15.8677  -28.0835   22.7032 H   0  0  0  0  0  0
  -24.5956  -30.7045   25.7812 H   0  0  0  0  0  0
  -24.8998  -32.2841   26.4944 H   0  0  0  0  0  0
  -25.8166  -30.8839   27.0206 H   0  0  0  0  0  0
  -26.2844  -29.6733   24.1254 H   0  0  0  0  0  0
  -27.4203  -29.7298   25.4540 H   0  0  0  0  0  0
  -27.8651  -30.4311   23.9171 H   0  0  0  0  0  0
  -27.2751  -33.3589   26.2058 H   0  0  0  0  0  0
  -28.3875  -32.6868   25.0226 H   0  0  0  0  0  0
  -28.0834  -31.8398   26.5303 H   0  0  0  0  0  0
  -28.2593  -38.0097   24.7522 H   0  0  0  0  0  0
  -28.1091  -36.2628   24.6250 H   0  0  0  0  0  0
  -27.2327  -37.1411   25.8868 H   0  0  0  0  0  0
  -20.9326  -29.8759   21.6915 H   0  0  0  0  0  0
  -26.0172  -38.2856   24.1435 H   0  0  0  0  0  0
  -28.1383  -19.5373   22.6441 H   0  0  0  0  0  0
  -31.5088  -17.3045   19.7677 H   0  0  0  0  0  0
  -26.5245  -24.3520   20.4560 H   0  0  0  0  0  0
  -27.5278  -24.0612   19.0431 H   0  0  0  0  0  0
  -30.4258  -25.4256   19.5642 H   0  0  0  0  0  0
  -30.5551  -25.0496   21.2549 H   0  0  0  0  0  0
  -31.2115  -23.0361   20.1033 H   0  0  0  0  0  0
  -29.9630  -23.1982   18.9119 H   0  0  0  0  0  0
  -28.3568  -25.3821   21.6685 H   0  0  0  0  0  0
  -27.0680  -17.4933   23.0867 H   0  0  0  0  0  0
  -28.3653  -16.4333   23.6296 H   0  0  0  0  0  0
  -27.4512  -16.0464   22.1711 H   0  0  0  0  0  0
  -32.2439  -19.3676   18.9197 H   0  0  0  0  0  0
  -32.4677  -20.4466   20.3037 H   0  0  0  0  0  0
  -31.2227  -20.7861   19.0872 H   0  0  0  0  0  0
  -30.9013  -21.6274   21.7625 H   0  0  0  0  0  0
  -29.4123  -21.5284   22.5871 H   0  0  0  0  0  0
  -29.0503  -15.1240   21.5922 H   0  0  0  0  0  0
  1 25  1  0  0  0
  1 30  2  0  0  0
  1 86  1  0  0  0
  2  3  1  0  0  0
  2 25  1  0  0  0
  2 88  1  0  0  0
  2 89  1  0  0  0
  3  4  1  0  0  0
  3 90  1  0  0  0
  3 91  1  0  0  0
  4  5  1  0  0  0
  4 92  1  0  0  0
  4 93  1  0  0  0
  5  6  1  0  0  0
  5 26  1  0  0  0
  5 94  1  0  0  0
  6 25  1  0  0  0
  6 95  1  0  0  0
  6 96  1  0  0  0
  7  8  2  0  0  0
  7 26  1  0  0  0
  7 29  1  0  0  0
  8  9  1  0  0  0
  8 22  1  0  0  0
  9 10  1  0  0  0
  9 27  2  0  0  0
 10 11  2  0  0  0
 10 15  1  0  0  0
 11 12  1  0  0  0
 11 97  1  0  0  0
 12 13  2  0  0  0
 12 98  1  0  0  0
 13 14  1  0  0  0
 13 31  1  0  0  0
 14 15  2  0  0  0
 14 99  1  0  0  0
 15100  1  0  0  0
 16 17  2  0  0  0
 16 21  1  0  0  0
 16 31  1  0  0  0
 17 18  1  0  0  0
 17101  1  0  0  0
 18 19  2  0  0  0
 18102  1  0  0  0
 19 20  1  0  0  0
 19 24  1  0  0  0
 20 21  2  0  0  0
 20103  1  0  0  0
 21 23  1  0  0  0
 22 28  1  0  0  0
 22 32  2  0  0  0
 26 27  1  0  0  0
 28104  1  0  0  0
 28105  1  0  0  0
 29106  1  0  0  0
 29107  1  0  0  0
 33 34  1  0  0  0
 33 66  1  0  0  0
 33 70  2  0  0  0
 34 36  1  0  0  0
 34 59  1  0  0  0
 34108  1  0  0  0
 35 44  2  0  0  0
 35 45  1  0  0  0
 35 68  1  0  0  0
 36 56  1  0  0  0
 36109  1  0  0  0
 37 39  1  0  0  0
 37 47  1  0  0  0
 37 66  1  0  0  0
 37110  1  0  0  0
 38 43  2  0  0  0
 38 46  1  0  0  0
 38 47  1  0  0  0
 39 64  1  0  0  0
 39 67  2  0  0  0
 40 52  1  0  0  0
 40 53  2  0  0  0
 40 58  1  0  0  0
 41111  1  0  0  0
 41112  1  0  0  0
 41113  1  0  0  0
 41 48  1  0  0  0
 42 43  1  0  0  0
 42 66  1  0  0  0
 42114  1  0  0  0
 42115  1  0  0  0
 43 44  1  0  0  0
 44116  1  0  0  0
 45 46  2  0  0  0
 45117  1  0  0  0
 46118  1  0  0  0
 47119  1  0  0  0
 47120  1  0  0  0
 48 56  1  0  0  0
 48 65  1  0  0  0
 48121  1  0  0  0
 49 50  1  0  0  0
 49 53  1  0  0  0
 49 64  1  0  0  0
 49122  1  0  0  0
 50 51  1  0  0  0
 50123  1  0  0  0
 50124  1  0  0  0
 51 52  1  0  0  0
 51125  1  0  0  0
 51126  1  0  0  0
 52127  1  0  0  0
 52128  1  0  0  0
 53 54  1  0  0  0
 54 55  2  0  0  0
 54129  1  0  0  0
 55 57  1  0  0  0
 55130  1  0  0  0
 56 69  2  0  0  0
 57 58  2  0  0  0
 57131  1  0  0  0
 58132  1  0  0  0
 59 60  1  0  0  0
 59 61  1  0  0  0
 59 62  1  0  0  0
 60133  1  0  0  0
 60134  1  0  0  0
 60135  1  0  0  0
 61136  1  0  0  0
 61137  1  0  0  0
 61138  1  0  0  0
 62139  1  0  0  0
 62140  1  0  0  0
 62141  1  0  0  0
 63 65  1  0  0  0
 63142  1  0  0  0
 63143  1  0  0  0
 63144  1  0  0  0
 64145  1  0  0  0
 65146  1  0  0  0
 68 81  1  0  0  0
 71 73  2  0  0  0
 71 74  1  0  0  0
 71147  1  0  0  0
 72 75  2  0  0  0
 72 76  1  0  0  0
 72148  1  0  0  0
 73 75  1  0  0  0
 73 84  1  0  0  0
 74 76  2  0  0  0
 74 82  1  0  0  0
 75 83  1  0  0  0
 76 86  1  0  0  0
 77 78  1  0  0  0
 77 85  1  0  0  0
 77 87  2  0  0  0
 78 81  1  0  0  0
 78149  1  0  0  0
 78150  1  0  0  0
 79 80  1  0  0  0
 79 81  1  0  0  0
 79151  1  0  0  0
 79152  1  0  0  0
 80 85  1  0  0  0
 80153  1  0  0  0
 80154  1  0  0  0
 81155  1  0  0  0
 82156  1  0  0  0
 82157  1  0  0  0
 82158  1  0  0  0
 83159  1  0  0  0
 83160  1  0  0  0
 83161  1  0  0  0
 84 85  1  0  0  0
 84162  1  0  0  0
 84163  1  0  0  0
 86164  1  0  0  0
M  ISO  4   1 100  68 101  81 101  86 100
M  END
> <chiral flag>
0

> <version>
0

> <s_m_source_file>
/data/baiqing/PycharmProjects/Reinvent-master-3.2/result/LINK_invent/BTK/process_docking_weight1_custom_product_contain_oxygen_bond_distance_aromatic_linkinvent_7_9_3/rearranged_h_0051.sdf

> <i_m_source_file_index>
83

> <r_mmod_Potential_Energy-OPLS-2005>
10.8635625839233

> <r_mmod_Stretch_Energy-OPLS-2005>
57.7141876220703

> <r_mmod_Bend_Energy-OPLS-2005>
141.197906494141

> <r_mmod_Torsional_Energy-OPLS-2005>
266.28955078125

> <r_mmod_Improper_Torsional_Energy-OPLS-2005>
4.85664176940918

> <r_mmod_Van_der_Waal_Energy-OPLS-2005>
155.49951171875

> <r_mmod_Electrostatic_Energy-OPLS-2005>
-415.136260986328

> <r_mmod_Solvation_Energy-OPLS-2005>
-224.658096313477

> <b_mmod_Minimization_Converged-OPLS-2005>
0

> <r_mmod_RMS_Derivative-OPLS-2005>
3.22372698783875

$$$$
83
                    3D
 Structure written by MMmdl.
154162  0  0  1  0            999 V2000
  -30.6043  -14.7458   20.4650 C   0  0  0  0  0  0
  -30.4350  -12.4581   19.4640 C   0  0  0  0  0  0
  -29.5079  -12.5041   18.2297 C   0  0  0  0  0  0
  -28.0347  -12.3257   18.6470 C   0  0  0  0  0  0
  -27.6399  -13.2275   19.8469 C   0  0  2  0  0  0
  -28.6865  -13.1624   20.9797 C   0  0  0  0  0  0
  -25.2506  -13.8183   20.5691 C   0  0  0  0  0  0
  -24.1798  -13.0433   20.9213 C   0  0  0  0  0  0
  -24.6385  -11.6910   20.8749 C   0  0  0  0  0  0
  -23.9060  -10.4289   21.0409 C   0  0  0  0  0  0
  -24.3614   -9.4206   21.9186 C   0  0  0  0  0  0
  -23.6292   -8.2240   22.0753 C   0  0  0  0  0  0
  -22.4274   -8.0276   21.3543 C   0  0  0  0  0  0
  -21.9908   -9.0248   20.4645 C   0  0  0  0  0  0
  -22.7233  -10.2130   20.3056 C   0  0  0  0  0  0
  -21.6853   -6.0732   22.5278 C   0  0  0  0  0  0
  -21.4014   -6.5637   23.8211 C   0  0  0  0  0  0
  -21.3659   -5.6791   24.9174 C   0  0  0  0  0  0
  -21.6044   -4.3054   24.7225 C   0  0  0  0  0  0
  -21.8819   -3.8144   23.4347 C   0  0  0  0  0  0
  -21.9193   -4.6960   22.3402 C   0  0  0  0  0  0
  -22.7821  -13.5218   21.1872 C   0  0  0  0  0  0
  -22.1662   -4.2145   21.0981 F   0  0  0  0  0  0
  -21.5628   -3.4538   25.7738 F   0  0  0  0  0  0
  -29.9832  -13.5191   20.3916 N   0  0  0  0  0  0
  -26.2925  -12.9382   20.3266 N   0  0  0  0  0  0
  -25.9312  -11.6529   20.5747 N   0  0  0  0  0  0
  -22.0467  -12.8208   22.0428 N   0  0  0  0  0  0
  -25.4183  -15.1909   20.4100 N   0  0  0  0  0  0
  -31.8038  -14.8383   20.1869 O   0  0  0  0  0  0
  -21.6639   -6.8873   21.4239 O   0  0  0  0  0  0
  -22.3508  -14.5525   20.6718 O   0  0  0  0  0  0
  -24.6308  -31.8547   23.1970 C   0  0  0  0  0  0
  -25.9132  -32.4752   23.8321 C   0  0  1  0  0  0
  -27.2219  -27.2667   20.1386 C   0  0  0  0  0  0
  -25.5929  -33.8553   24.2249 N   0  0  0  0  0  0
  -23.4281  -30.4755   21.5400 C   0  0  2  0  0  0
  -24.8765  -28.9172   20.1141 C   0  0  0  0  0  0
  -22.7501  -29.4599   22.4912 C   0  0  0  0  0  0
  -18.0292  -28.1390   22.8486 C   0  0  0  0  0  0
  -24.1489  -36.7281   23.2640 C   0  0  0  0  0  0
  -25.9724  -30.7708   21.3741 C   0  0  0  0  0  0
  -26.0478  -29.3914   20.7202 C   0  0  0  0  0  0
  -27.2273  -28.5802   20.7163 C   0  0  0  0  0  0
  -26.0307  -26.8524   19.5095 C   0  0  0  0  0  0
  -24.8724  -27.6555   19.4967 C   0  0  0  0  0  0
  -23.6468  -29.8043   20.1579 C   0  0  0  0  0  0
  -25.4116  -36.3065   24.0327 C   0  0  1  0  0  0
  -20.5896  -28.3699   23.1272 C   0  0  2  0  0  0
  -20.6780  -26.9417   22.5409 C   0  0  0  0  0  0
  -19.5755  -26.6386   21.5213 C   0  0  0  0  0  0
  -18.1935  -26.7932   22.1625 C   0  0  0  0  0  0
  -19.1546  -28.8861   23.2873 C   0  0  0  0  0  0
  -18.9466  -30.1462   23.8890 C   0  0  0  0  0  0
  -17.6464  -30.6589   24.0562 C   0  0  0  0  0  0
  -25.9056  -34.9437   23.5091 C   0  0  0  0  0  0
  -16.5355  -29.9086   23.6333 C   0  0  0  0  0  0
  -16.7279  -28.6504   23.0354 C   0  0  0  0  0  0
  -26.4502  -31.6579   25.0711 C   0  0  0  0  0  0
  -25.3726  -31.3730   26.1432 C   0  0  0  0  0  0
  -27.0348  -30.2996   24.6191 C   0  0  0  0  0  0
  -27.6053  -32.4322   25.7487 C   0  0  0  0  0  0
  -27.5579  -37.1793   24.8464 C   0  0  0  0  0  0
  -21.4208  -29.3043   22.3658 N   0  0  0  0  0  0
  -26.4288  -37.3766   23.9411 N   0  0  0  0  0  0
  -24.6962  -31.0517   22.0938 N   0  0  0  0  0  0
  -23.4201  -28.8145   23.3015 O   0  0  0  0  0  0
  -28.3140  -26.3752   20.1419 O   0  0  0  0  0  0
  -26.5626  -34.8916   22.4658 O   0  0  0  0  0  0
  -23.5459  -32.1361   23.7270 O   0  0  0  0  0  0
  -31.6411  -19.0377   21.6643 C   0  0  0  0  0  0
  -30.8127  -20.0919   21.2227 C   0  0  0  0  0  0
  -31.3148  -17.6842   21.4286 C   0  0  0  0  0  0
  -29.2902  -18.4269   20.3130 C   0  0  0  0  0  0
  -29.6134  -19.8339   20.5293 C   0  0  0  0  0  0
  -30.1330  -17.3178   20.7459 C   0  0  0  0  0  0
  -28.5871  -23.6938   20.0126 C   0  0  0  0  0  0
  -28.4630  -22.3594   22.0912 C   0  0  0  0  0  0
  -28.7716  -21.0695   19.9592 C   0  0  0  0  0  0
  -28.1321  -25.0291   20.7906 C   0  0  0  0  0  0
  -29.8010  -15.8761   20.5849 N   0  0  0  0  0  0
  -28.6774  -22.4446   20.6445 N   0  0  0  0  0  0
  -28.8068  -23.7945   18.8015 O   0  0  0  0  0  0
  -31.4737  -12.5926   19.1571 H   0  0  0  0  0  0
  -30.3886  -11.4818   19.9489 H   0  0  0  0  0  0
  -29.7906  -11.7299   17.5151 H   0  0  0  0  0  0
  -29.6303  -13.4572   17.7124 H   0  0  0  0  0  0
  -27.8946  -11.2775   18.9133 H   0  0  0  0  0  0
  -27.3751  -12.5136   17.7989 H   0  0  0  0  0  0
  -27.6320  -14.2474   19.4628 H   0  0  0  0  0  0
  -28.7261  -12.1641   21.4182 H   0  0  0  0  0  0
  -28.4228  -13.8436   21.7905 H   0  0  0  0  0  0
  -25.2758   -9.5686   22.4763 H   0  0  0  0  0  0
  -24.0001   -7.4630   22.7473 H   0  0  0  0  0  0
  -21.0839   -8.8764   19.8952 H   0  0  0  0  0  0
  -22.3686  -10.9668   19.6167 H   0  0  0  0  0  0
  -21.2007   -7.6146   23.9712 H   0  0  0  0  0  0
  -21.1481   -6.0523   25.9076 H   0  0  0  0  0  0
  -22.0599   -2.7606   23.2848 H   0  0  0  0  0  0
  -22.4087  -11.9871   22.4815 H   0  0  0  0  0  0
  -21.1085  -13.1230   22.2634 H   0  0  0  0  0  0
  -24.6465  -15.8400   20.5194 H   0  0  0  0  0  0
  -26.2568  -15.6336   20.0584 H   0  0  0  0  0  0
  -26.7200  -32.5406   23.1067 H   0  0  0  0  0  0
  -25.0085  -33.9691   25.0401 H   0  0  0  0  0  0
  -22.7246  -31.2974   21.3916 H   0  0  0  0  0  0
  -23.3754  -35.9610   23.3295 H   0  0  0  0  0  0
  -24.3582  -36.8908   22.2056 H   0  0  0  0  0  0
  -23.7239  -37.6479   23.6668 H   0  0  0  0  0  0
  -26.1079  -31.5305   20.6029 H   0  0  0  0  0  0
  -26.8512  -30.8232   22.0054 H   0  0  0  0  0  0
  -28.1282  -28.9413   21.1924 H   0  0  0  0  0  0
  -25.9911  -25.8822   19.0339 H   0  0  0  0  0  0
  -23.9759  -27.2877   19.0164 H   0  0  0  0  0  0
  -23.7714  -30.5775   19.3989 H   0  0  0  0  0  0
  -22.7659  -29.2358   19.8545 H   0  0  0  0  0  0
  -25.1299  -36.1907   25.0819 H   0  0  0  0  0  0
  -20.9991  -28.3274   24.1392 H   0  0  0  0  0  0
  -20.5680  -26.2308   23.3612 H   0  0  0  0  0  0
  -21.6649  -26.7441   22.1202 H   0  0  0  0  0  0
  -19.6913  -25.6294   21.1249 H   0  0  0  0  0  0
  -19.6693  -27.3192   20.6739 H   0  0  0  0  0  0
  -17.4206  -26.6681   21.4027 H   0  0  0  0  0  0
  -18.0333  -26.0077   22.9024 H   0  0  0  0  0  0
  -19.7941  -30.7282   24.2256 H   0  0  0  0  0  0
  -17.5019  -31.6270   24.5164 H   0  0  0  0  0  0
  -15.5356  -30.2984   23.7662 H   0  0  0  0  0  0
  -15.8681  -28.0821   22.7071 H   0  0  0  0  0  0
  -24.5896  -30.7086   25.7761 H   0  0  0  0  0  0
  -24.8925  -32.2902   26.4853 H   0  0  0  0  0  0
  -25.8043  -30.8908   27.0210 H   0  0  0  0  0  0
  -26.2926  -29.6744   24.1213 H   0  0  0  0  0  0
  -27.4031  -29.7259   25.4705 H   0  0  0  0  0  0
  -27.8805  -30.4277   23.9429 H   0  0  0  0  0  0
  -27.2656  -33.3628   26.2048 H   0  0  0  0  0  0
  -28.3872  -32.6872   25.0321 H   0  0  0  0  0  0
  -28.0710  -31.8456   26.5415 H   0  0  0  0  0  0
  -28.2587  -38.0100   24.7520 H   0  0  0  0  0  0
  -28.1083  -36.2630   24.6278 H   0  0  0  0  0  0
  -27.2300  -37.1429   25.8867 H   0  0  0  0  0  0
  -20.9392  -29.8760   21.6859 H   0  0  0  0  0  0
  -26.0163  -38.2837   24.1419 H   0  0  0  0  0  0
  -32.5542  -19.2729   22.1931 H   0  0  0  0  0  0
  -31.1182  -21.1130   21.4069 H   0  0  0  0  0  0
  -31.9870  -16.9242   21.8013 H   0  0  0  0  0  0
  -28.3771  -18.1962   19.7828 H   0  0  0  0  0  0
  -29.2870  -22.8302   22.6286 H   0  0  0  0  0  0
  -28.3930  -21.3285   22.4383 H   0  0  0  0  0  0
  -27.5340  -22.8482   22.3871 H   0  0  0  0  0  0
  -27.7460  -20.7216   19.8310 H   0  0  0  0  0  0
  -29.1389  -21.2289   18.9446 H   0  0  0  0  0  0
  -28.6922  -25.0713   21.7245 H   0  0  0  0  0  0
  -27.0903  -24.8936   21.0829 H   0  0  0  0  0  0
  -28.8150  -15.6681   20.5693 H   0  0  0  0  0  0
  1 25  1  0  0  0
  1 30  2  0  0  0
  1 81  1  0  0  0
  2  3  1  0  0  0
  2 25  1  0  0  0
  2 84  1  0  0  0
  2 85  1  0  0  0
  3  4  1  0  0  0
  3 86  1  0  0  0
  3 87  1  0  0  0
  4  5  1  0  0  0
  4 88  1  0  0  0
  4 89  1  0  0  0
  5  6  1  0  0  0
  5 26  1  0  0  0
  5 90  1  0  0  0
  6 25  1  0  0  0
  6 91  1  0  0  0
  6 92  1  0  0  0
  7  8  2  0  0  0
  7 26  1  0  0  0
  7 29  1  0  0  0
  8  9  1  0  0  0
  8 22  1  0  0  0
  9 10  1  0  0  0
  9 27  2  0  0  0
 10 11  2  0  0  0
 10 15  1  0  0  0
 11 12  1  0  0  0
 11 93  1  0  0  0
 12 13  2  0  0  0
 12 94  1  0  0  0
 13 14  1  0  0  0
 13 31  1  0  0  0
 14 15  2  0  0  0
 14 95  1  0  0  0
 15 96  1  0  0  0
 16 17  2  0  0  0
 16 21  1  0  0  0
 16 31  1  0  0  0
 17 18  1  0  0  0
 17 97  1  0  0  0
 18 19  2  0  0  0
 18 98  1  0  0  0
 19 20  1  0  0  0
 19 24  1  0  0  0
 20 21  2  0  0  0
 20 99  1  0  0  0
 21 23  1  0  0  0
 22 28  1  0  0  0
 22 32  2  0  0  0
 26 27  1  0  0  0
 28100  1  0  0  0
 28101  1  0  0  0
 29102  1  0  0  0
 29103  1  0  0  0
 33 34  1  0  0  0
 33 66  1  0  0  0
 33 70  2  0  0  0
 34 36  1  0  0  0
 34 59  1  0  0  0
 34104  1  0  0  0
 35 44  2  0  0  0
 35 45  1  0  0  0
 35 68  1  0  0  0
 36 56  1  0  0  0
 36105  1  0  0  0
 37 39  1  0  0  0
 37 47  1  0  0  0
 37 66  1  0  0  0
 37106  1  0  0  0
 38 43  2  0  0  0
 38 46  1  0  0  0
 38 47  1  0  0  0
 39 64  1  0  0  0
 39 67  2  0  0  0
 40 52  1  0  0  0
 40 53  2  0  0  0
 40 58  1  0  0  0
 41107  1  0  0  0
 41108  1  0  0  0
 41109  1  0  0  0
 41 48  1  0  0  0
 42 43  1  0  0  0
 42 66  1  0  0  0
 42110  1  0  0  0
 42111  1  0  0  0
 43 44  1  0  0  0
 44112  1  0  0  0
 45 46  2  0  0  0
 45113  1  0  0  0
 46114  1  0  0  0
 47115  1  0  0  0
 47116  1  0  0  0
 48 56  1  0  0  0
 48 65  1  0  0  0
 48117  1  0  0  0
 49 50  1  0  0  0
 49 53  1  0  0  0
 49 64  1  0  0  0
 49118  1  0  0  0
 50 51  1  0  0  0
 50119  1  0  0  0
 50120  1  0  0  0
 51 52  1  0  0  0
 51121  1  0  0  0
 51122  1  0  0  0
 52123  1  0  0  0
 52124  1  0  0  0
 53 54  1  0  0  0
 54 55  2  0  0  0
 54125  1  0  0  0
 55 57  1  0  0  0
 55126  1  0  0  0
 56 69  2  0  0  0
 57 58  2  0  0  0
 57127  1  0  0  0
 58128  1  0  0  0
 59 60  1  0  0  0
 59 61  1  0  0  0
 59 62  1  0  0  0
 60129  1  0  0  0
 60130  1  0  0  0
 60131  1  0  0  0
 61132  1  0  0  0
 61133  1  0  0  0
 61134  1  0  0  0
 62135  1  0  0  0
 62136  1  0  0  0
 62137  1  0  0  0
 63 65  1  0  0  0
 63138  1  0  0  0
 63139  1  0  0  0
 63140  1  0  0  0
 64141  1  0  0  0
 65142  1  0  0  0
 68 80  1  0  0  0
 71 72  2  0  0  0
 71 73  1  0  0  0
 71143  1  0  0  0
 72 75  1  0  0  0
 72144  1  0  0  0
 73 76  2  0  0  0
 73145  1  0  0  0
 74 75  2  0  0  0
 74 76  1  0  0  0
 74146  1  0  0  0
 75 79  1  0  0  0
 76 81  1  0  0  0
 77 80  1  0  0  0
 77 82  1  0  0  0
 77 83  2  0  0  0
 78 82  1  0  0  0
 78147  1  0  0  0
 78148  1  0  0  0
 78149  1  0  0  0
 79 82  1  0  0  0
 79150  1  0  0  0
 79151  1  0  0  0
 80152  1  0  0  0
 80153  1  0  0  0
 81154  1  0  0  0
M  ISO  4   1 100  68 101  80 101  81 100
M  END
> <chiral flag>
0

> <version>
0

> <s_m_source_file>
/data/baiqing/PycharmProjects/Reinvent-master-3.2/result/LINK_invent/BTK/process_docking_weight1_custom_product_contain_oxygen_bond_distance_aromatic_linkinvent_7_9_3/rearranged_h_0051.sdf

> <i_m_source_file_index>
84

> <r_mmod_Potential_Energy-OPLS-2005>
183.411819458008

> <r_mmod_Stretch_Energy-OPLS-2005>
128.146820068359

> <r_mmod_Bend_Energy-OPLS-2005>
154.421768188477

> <r_mmod_Torsional_Energy-OPLS-2005>
251.719131469727

> <r_mmod_Improper_Torsional_Energy-OPLS-2005>
7.05554056167603

> <r_mmod_Van_der_Waal_Energy-OPLS-2005>
137.242706298828

> <r_mmod_Electrostatic_Energy-OPLS-2005>
-338.717254638672

> <r_mmod_Solvation_Energy-OPLS-2005>
-240.628173828125

> <b_mmod_Minimization_Converged-OPLS-2005>
0

> <r_mmod_RMS_Derivative-OPLS-2005>
0.353999942541122

$$$$
84
                    3D
 Structure written by MMmdl.
157165  0  0  1  0            999 V2000
  -30.6895  -14.5746   20.5584 C   0  0  0  0  0  0
  -30.4191  -12.3734   19.4359 C   0  0  0  0  0  0
  -29.4920  -12.4994   18.2108 C   0  0  0  0  0  0
  -28.0170  -12.3442   18.6295 C   0  0  0  0  0  0
  -27.6472  -13.2181   19.8579 C   0  0  2  0  0  0
  -28.6924  -13.0785   20.9850 C   0  0  0  0  0  0
  -25.2536  -13.8177   20.5690 C   0  0  0  0  0  0
  -24.1808  -13.0445   20.9204 C   0  0  0  0  0  0
  -24.6380  -11.6916   20.8751 C   0  0  0  0  0  0
  -23.9053  -10.4297   21.0406 C   0  0  0  0  0  0
  -24.3609   -9.4212   21.9181 C   0  0  0  0  0  0
  -23.6293   -8.2244   22.0752 C   0  0  0  0  0  0
  -22.4275   -8.0278   21.3543 C   0  0  0  0  0  0
  -21.9909   -9.0246   20.4643 C   0  0  0  0  0  0
  -22.7233  -10.2130   20.3052 C   0  0  0  0  0  0
  -21.6853   -6.0738   22.5281 C   0  0  0  0  0  0
  -21.4012   -6.5638   23.8213 C   0  0  0  0  0  0
  -21.3660   -5.6789   24.9174 C   0  0  0  0  0  0
  -21.6044   -4.3053   24.7225 C   0  0  0  0  0  0
  -21.8819   -3.8149   23.4345 C   0  0  0  0  0  0
  -21.9194   -4.6966   22.3404 C   0  0  0  0  0  0
  -22.7830  -13.5235   21.1867 C   0  0  0  0  0  0
  -22.1661   -4.2153   21.0980 F   0  0  0  0  0  0
  -21.5631   -3.4534   25.7739 F   0  0  0  0  0  0
  -30.0034  -13.4026   20.4074 N   0  0  0  0  0  0
  -26.2956  -12.9363   20.3307 N   0  0  0  0  0  0
  -25.9304  -11.6515   20.5758 N   0  0  0  0  0  0
  -22.0472  -12.8215   22.0413 N   0  0  0  0  0  0
  -25.4252  -15.1898   20.4103 N   0  0  0  0  0  0
  -31.8433  -14.7015   20.1399 O   0  0  0  0  0  0
  -21.6639   -6.8879   21.4242 O   0  0  0  0  0  0
  -22.3517  -14.5545   20.6725 O   0  0  0  0  0  0
  -24.6214  -31.8622   23.2042 C   0  0  0  0  0  0
  -25.9079  -32.4802   23.8373 C   0  0  1  0  0  0
  -27.2306  -27.3644   20.1210 C   0  0  0  0  0  0
  -25.5908  -33.8599   24.2309 N   0  0  0  0  0  0
  -23.4137  -30.4834   21.5457 C   0  0  2  0  0  0
  -24.8615  -28.9347   20.1178 C   0  0  0  0  0  0
  -22.7453  -29.4631   22.4968 C   0  0  0  0  0  0
  -18.0287  -28.1387   22.8495 C   0  0  0  0  0  0
  -24.1490  -36.7302   23.2642 C   0  0  0  0  0  0
  -25.9475  -30.8097   21.3638 C   0  0  0  0  0  0
  -26.0252  -29.4355   20.7159 C   0  0  0  0  0  0
  -27.2167  -28.6616   20.7049 C   0  0  0  0  0  0
  -26.0485  -26.8902   19.5191 C   0  0  0  0  0  0
  -24.8718  -27.6655   19.5118 C   0  0  0  0  0  0
  -23.6264  -29.8100   20.1628 C   0  0  0  0  0  0
  -25.4111  -36.3100   24.0336 C   0  0  1  0  0  0
  -20.5881  -28.3675   23.1311 C   0  0  2  0  0  0
  -20.6770  -26.9407   22.5420 C   0  0  0  0  0  0
  -19.5738  -26.6384   21.5228 C   0  0  0  0  0  0
  -18.1919  -26.7937   22.1632 C   0  0  0  0  0  0
  -19.1541  -28.8851   23.2896 C   0  0  0  0  0  0
  -18.9460  -30.1459   23.8896 C   0  0  0  0  0  0
  -17.6454  -30.6584   24.0577 C   0  0  0  0  0  0
  -25.9043  -34.9462   23.5118 C   0  0  0  0  0  0
  -16.5349  -29.9083   23.6336 C   0  0  0  0  0  0
  -16.7275  -28.6508   23.0345 C   0  0  0  0  0  0
  -26.4477  -31.6592   25.0723 C   0  0  0  0  0  0
  -25.3722  -31.3698   26.1463 C   0  0  0  0  0  0
  -27.0317  -30.3031   24.6129 C   0  0  0  0  0  0
  -27.6061  -32.4312   25.7473 C   0  0  0  0  0  0
  -27.5577  -37.1803   24.8467 C   0  0  0  0  0  0
  -21.4177  -29.3028   22.3713 N   0  0  0  0  0  0
  -26.4293  -37.3787   23.9411 N   0  0  0  0  0  0
  -24.6795  -31.0682   22.0959 N   0  0  0  0  0  0
  -23.4208  -28.8175   23.3029 O   0  0  0  0  0  0
  -28.3720  -26.5747   20.0918 O   0  0  0  0  0  0
  -26.5618  -34.8918   22.4687 O   0  0  0  0  0  0
  -23.5388  -32.1386   23.7400 O   0  0  0  0  0  0
  -31.9026  -16.8980   24.0021 C   0  0  0  0  0  0
  -31.4200  -16.1267   22.9412 C   0  0  0  0  0  0
  -31.4522  -18.2098   24.1494 C   0  0  0  0  0  0
  -30.1459  -18.0540   22.0468 C   0  0  0  0  0  0
  -30.5338  -16.6502   21.9604 C   0  0  0  0  0  0
  -30.5695  -18.7755   23.2145 C   0  0  0  0  0  0
  -28.7081  -21.2682   20.4428 C   0  0  0  0  0  0
  -29.2995  -18.8003   20.9581 C   0  0  0  0  0  0
  -29.0802  -22.7382   20.8372 C   0  0  0  0  0  0
  -28.4955  -23.9581   20.0115 C   0  0  0  0  0  0
  -28.3399  -25.3072   20.8179 C   0  0  0  0  0  0
  -30.0106  -15.6645   21.0315 N   0  0  0  0  0  0
  -29.5638  -20.2685   20.7862 N   0  0  0  0  0  0
  -27.6267  -21.0343   19.9027 O   0  0  0  0  0  0
  -30.0117  -20.3598   23.6436 Cl  0  0  0  0  0  0
  -31.4620  -12.4784   19.1321 H   0  0  0  0  0  0
  -30.3371  -11.3803   19.8807 H   0  0  0  0  0  0
  -29.7499  -11.7471   17.4641 H   0  0  0  0  0  0
  -29.6394  -13.4689   17.7328 H   0  0  0  0  0  0
  -27.8513  -11.2920   18.8622 H   0  0  0  0  0  0
  -27.3596  -12.5742   17.7906 H   0  0  0  0  0  0
  -27.6664  -14.2528   19.5162 H   0  0  0  0  0  0
  -28.6969  -12.0616   21.3803 H   0  0  0  0  0  0
  -28.4457  -13.7258   21.8283 H   0  0  0  0  0  0
  -25.2752   -9.5695   22.4754 H   0  0  0  0  0  0
  -24.0009   -7.4634   22.7463 H   0  0  0  0  0  0
  -21.0847   -8.8757   19.8939 H   0  0  0  0  0  0
  -22.3688  -10.9664   19.6158 H   0  0  0  0  0  0
  -21.1997   -7.6146   23.9721 H   0  0  0  0  0  0
  -21.1483   -6.0517   25.9078 H   0  0  0  0  0  0
  -22.0599   -2.7613   23.2842 H   0  0  0  0  0  0
  -22.4084  -11.9869   22.4786 H   0  0  0  0  0  0
  -21.1088  -13.1225   22.2619 H   0  0  0  0  0  0
  -24.6588  -15.8454   20.5182 H   0  0  0  0  0  0
  -26.2711  -15.6261   20.0671 H   0  0  0  0  0  0
  -26.7153  -32.5495   23.1134 H   0  0  0  0  0  0
  -25.0057  -33.9758   25.0458 H   0  0  0  0  0  0
  -22.7064  -31.3024   21.4002 H   0  0  0  0  0  0
  -23.3747  -35.9637   23.3305 H   0  0  0  0  0  0
  -24.3572  -36.8918   22.2053 H   0  0  0  0  0  0
  -23.7232  -37.6503   23.6659 H   0  0  0  0  0  0
  -26.0647  -31.5690   20.5893 H   0  0  0  0  0  0
  -26.8340  -30.8656   21.9837 H   0  0  0  0  0  0
  -28.1172  -29.0447   21.1629 H   0  0  0  0  0  0
  -26.0391  -25.9134   19.0559 H   0  0  0  0  0  0
  -23.9784  -27.2726   19.0471 H   0  0  0  0  0  0
  -23.7409  -30.5818   19.4005 H   0  0  0  0  0  0
  -22.7500  -29.2321   19.8662 H   0  0  0  0  0  0
  -25.1281  -36.1962   25.0827 H   0  0  0  0  0  0
  -20.9971  -28.3234   24.1433 H   0  0  0  0  0  0
  -20.5687  -26.2279   23.3611 H   0  0  0  0  0  0
  -21.6640  -26.7453   22.1199 H   0  0  0  0  0  0
  -19.6902  -25.6301   21.1239 H   0  0  0  0  0  0
  -19.6680  -27.3220   20.6780 H   0  0  0  0  0  0
  -17.4198  -26.6711   21.4021 H   0  0  0  0  0  0
  -18.0299  -26.0079   22.9020 H   0  0  0  0  0  0
  -19.7936  -30.7289   24.2245 H   0  0  0  0  0  0
  -17.5009  -31.6269   24.5177 H   0  0  0  0  0  0
  -15.5349  -30.2977   23.7659 H   0  0  0  0  0  0
  -15.8681  -28.0831   22.7040 H   0  0  0  0  0  0
  -24.5947  -30.6990   25.7798 H   0  0  0  0  0  0
  -24.8858  -32.2846   26.4867 H   0  0  0  0  0  0
  -25.8060  -30.8915   27.0256 H   0  0  0  0  0  0
  -26.2873  -29.6787   24.1186 H   0  0  0  0  0  0
  -27.4077  -29.7279   25.4600 H   0  0  0  0  0  0
  -27.8710  -30.4342   23.9290 H   0  0  0  0  0  0
  -27.2710  -33.3640   26.2012 H   0  0  0  0  0  0
  -28.3872  -32.6812   25.0285 H   0  0  0  0  0  0
  -28.0725  -31.8452   26.5408 H   0  0  0  0  0  0
  -28.2595  -38.0104   24.7520 H   0  0  0  0  0  0
  -28.1056  -36.2629   24.6267 H   0  0  0  0  0  0
  -27.2289  -37.1423   25.8870 H   0  0  0  0  0  0
  -20.9348  -29.8741   21.6923 H   0  0  0  0  0  0
  -26.0174  -38.2857   24.1429 H   0  0  0  0  0  0
  -32.5750  -16.4684   24.7312 H   0  0  0  0  0  0
  -31.7352  -15.0930   22.9211 H   0  0  0  0  0  0
  -31.7730  -18.7895   25.0037 H   0  0  0  0  0  0
  -28.2473  -18.6576   21.2095 H   0  0  0  0  0  0
  -29.4533  -18.3083   19.9970 H   0  0  0  0  0  0
  -30.1657  -22.8299   20.8754 H   0  0  0  0  0  0
  -28.7480  -22.8443   21.8708 H   0  0  0  0  0  0
  -27.5296  -23.6969   19.5777 H   0  0  0  0  0  0
  -29.1596  -24.1324   19.1645 H   0  0  0  0  0  0
  -29.1706  -25.3665   21.5211 H   0  0  0  0  0  0
  -27.4504  -25.2466   21.4466 H   0  0  0  0  0  0
  -29.0052  -15.5789   21.0161 H   0  0  0  0  0  0
  -30.4383  -20.5801   21.1873 H   0  0  0  0  0  0
  1 25  1  0  0  0
  1 30  2  0  0  0
  1 82  1  0  0  0
  2  3  1  0  0  0
  2 25  1  0  0  0
  2 86  1  0  0  0
  2 87  1  0  0  0
  3  4  1  0  0  0
  3 88  1  0  0  0
  3 89  1  0  0  0
  4  5  1  0  0  0
  4 90  1  0  0  0
  4 91  1  0  0  0
  5  6  1  0  0  0
  5 26  1  0  0  0
  5 92  1  0  0  0
  6 25  1  0  0  0
  6 93  1  0  0  0
  6 94  1  0  0  0
  7  8  2  0  0  0
  7 26  1  0  0  0
  7 29  1  0  0  0
  8  9  1  0  0  0
  8 22  1  0  0  0
  9 10  1  0  0  0
  9 27  2  0  0  0
 10 11  2  0  0  0
 10 15  1  0  0  0
 11 12  1  0  0  0
 11 95  1  0  0  0
 12 13  2  0  0  0
 12 96  1  0  0  0
 13 14  1  0  0  0
 13 31  1  0  0  0
 14 15  2  0  0  0
 14 97  1  0  0  0
 15 98  1  0  0  0
 16 17  2  0  0  0
 16 21  1  0  0  0
 16 31  1  0  0  0
 17 18  1  0  0  0
 17 99  1  0  0  0
 18 19  2  0  0  0
 18100  1  0  0  0
 19 20  1  0  0  0
 19 24  1  0  0  0
 20 21  2  0  0  0
 20101  1  0  0  0
 21 23  1  0  0  0
 22 28  1  0  0  0
 22 32  2  0  0  0
 26 27  1  0  0  0
 28102  1  0  0  0
 28103  1  0  0  0
 29104  1  0  0  0
 29105  1  0  0  0
 33 34  1  0  0  0
 33 66  1  0  0  0
 33 70  2  0  0  0
 34 36  1  0  0  0
 34 59  1  0  0  0
 34106  1  0  0  0
 35 44  2  0  0  0
 35 45  1  0  0  0
 35 68  1  0  0  0
 36 56  1  0  0  0
 36107  1  0  0  0
 37 39  1  0  0  0
 37 47  1  0  0  0
 37 66  1  0  0  0
 37108  1  0  0  0
 38 43  2  0  0  0
 38 46  1  0  0  0
 38 47  1  0  0  0
 39 64  1  0  0  0
 39 67  2  0  0  0
 40 52  1  0  0  0
 40 53  2  0  0  0
 40 58  1  0  0  0
 41109  1  0  0  0
 41110  1  0  0  0
 41111  1  0  0  0
 41 48  1  0  0  0
 42 43  1  0  0  0
 42 66  1  0  0  0
 42112  1  0  0  0
 42113  1  0  0  0
 43 44  1  0  0  0
 44114  1  0  0  0
 45 46  2  0  0  0
 45115  1  0  0  0
 46116  1  0  0  0
 47117  1  0  0  0
 47118  1  0  0  0
 48 56  1  0  0  0
 48 65  1  0  0  0
 48119  1  0  0  0
 49 50  1  0  0  0
 49 53  1  0  0  0
 49 64  1  0  0  0
 49120  1  0  0  0
 50 51  1  0  0  0
 50121  1  0  0  0
 50122  1  0  0  0
 51 52  1  0  0  0
 51123  1  0  0  0
 51124  1  0  0  0
 52125  1  0  0  0
 52126  1  0  0  0
 53 54  1  0  0  0
 54 55  2  0  0  0
 54127  1  0  0  0
 55 57  1  0  0  0
 55128  1  0  0  0
 56 69  2  0  0  0
 57 58  2  0  0  0
 57129  1  0  0  0
 58130  1  0  0  0
 59 60  1  0  0  0
 59 61  1  0  0  0
 59 62  1  0  0  0
 60131  1  0  0  0
 60132  1  0  0  0
 60133  1  0  0  0
 61134  1  0  0  0
 61135  1  0  0  0
 61136  1  0  0  0
 62137  1  0  0  0
 62138  1  0  0  0
 62139  1  0  0  0
 63 65  1  0  0  0
 63140  1  0  0  0
 63141  1  0  0  0
 63142  1  0  0  0
 64143  1  0  0  0
 65144  1  0  0  0
 68 81  1  0  0  0
 71 72  2  0  0  0
 71 73  1  0  0  0
 71145  1  0  0  0
 72 75  1  0  0  0
 72146  1  0  0  0
 73 76  2  0  0  0
 73147  1  0  0  0
 74 75  2  0  0  0
 74 76  1  0  0  0
 74 78  1  0  0  0
 75 82  1  0  0  0
 76 85  1  0  0  0
 77 79  1  0  0  0
 77 83  1  0  0  0
 77 84  2  0  0  0
 78 83  1  0  0  0
 78148  1  0  0  0
 78149  1  0  0  0
 79 80  1  0  0  0
 79150  1  0  0  0
 79151  1  0  0  0
 80 81  1  0  0  0
 80152  1  0  0  0
 80153  1  0  0  0
 81154  1  0  0  0
 81155  1  0  0  0
 82156  1  0  0  0
 83157  1  0  0  0
M  ISO  4   1 100  68 101  81 101  82 100
M  END
> <chiral flag>
0

> <version>
0

> <s_m_source_file>
/data/baiqing/PycharmProjects/Reinvent-master-3.2/result/LINK_invent/BTK/process_docking_weight1_custom_product_contain_oxygen_bond_distance_aromatic_linkinvent_7_9_3/rearranged_h_0051.sdf

> <i_m_source_file_index>
85

> <r_mmod_Potential_Energy-OPLS-2005>
4.80278444290161

> <r_mmod_Stretch_Energy-OPLS-2005>
71.1128921508789

> <r_mmod_Bend_Energy-OPLS-2005>
131.784210205078

> <r_mmod_Torsional_Energy-OPLS-2005>
267.026214599609

> <r_mmod_Improper_Torsional_Energy-OPLS-2005>
6.28880310058594

> <r_mmod_Van_der_Waal_Energy-OPLS-2005>
151.713806152344

> <r_mmod_Electrostatic_Energy-OPLS-2005>
-420.571472167969

> <r_mmod_Solvation_Energy-OPLS-2005>
-232.638977050781

> <b_mmod_Minimization_Converged-OPLS-2005>
0

> <r_mmod_RMS_Derivative-OPLS-2005>
1.70520520210266

$$$$
85
                    3D
 Structure written by MMmdl.
163171  0  0  1  0            999 V2000
  -30.7730  -14.3530   20.6550 C   0  0  0  0  0  0
  -30.4137  -12.2669   19.4012 C   0  0  0  0  0  0
  -29.4849  -12.5107   18.1964 C   0  0  0  0  0  0
  -28.0088  -12.3665   18.6114 C   0  0  0  0  0  0
  -27.6659  -13.1946   19.8780 C   0  0  2  0  0  0
  -28.7047  -12.9445   20.9966 C   0  0  0  0  0  0
  -25.2565  -13.8107   20.5599 C   0  0  0  0  0  0
  -24.1833  -13.0405   20.9178 C   0  0  0  0  0  0
  -24.6389  -11.6878   20.8753 C   0  0  0  0  0  0
  -23.9054  -10.4269   21.0429 C   0  0  0  0  0  0
  -24.3606   -9.4188   21.9208 C   0  0  0  0  0  0
  -23.6279   -8.2226   22.0770 C   0  0  0  0  0  0
  -22.4266   -8.0273   21.3552 C   0  0  0  0  0  0
  -21.9898   -9.0250   20.4659 C   0  0  0  0  0  0
  -22.7226  -10.2132   20.3074 C   0  0  0  0  0  0
  -21.6853   -6.0736   22.5280 C   0  0  0  0  0  0
  -21.4015   -6.5646   23.8213 C   0  0  0  0  0  0
  -21.3657   -5.6801   24.9173 C   0  0  0  0  0  0
  -21.6041   -4.3063   24.7229 C   0  0  0  0  0  0
  -21.8818   -3.8150   23.4351 C   0  0  0  0  0  0
  -21.9191   -4.6961   22.3404 C   0  0  0  0  0  0
  -22.7863  -13.5229   21.1843 C   0  0  0  0  0  0
  -22.1671   -4.2149   21.0982 F   0  0  0  0  0  0
  -21.5611   -3.4548   25.7743 F   0  0  0  0  0  0
  -30.0521  -13.2194   20.4598 N   0  0  0  0  0  0
  -26.3028  -12.9279   20.3358 N   0  0  0  0  0  0
  -25.9313  -11.6453   20.5782 N   0  0  0  0  0  0
  -22.0496  -12.8231   22.0408 N   0  0  0  0  0  0
  -25.4169  -15.1796   20.3867 N   0  0  0  0  0  0
  -31.8128  -14.6099   20.0404 O   0  0  0  0  0  0
  -21.6632   -6.8875   21.4246 O   0  0  0  0  0  0
  -22.3563  -14.5541   20.6695 O   0  0  0  0  0  0
  -24.6083  -31.8722   23.2112 C   0  0  0  0  0  0
  -25.9010  -32.4836   23.8393 C   0  0  1  0  0  0
  -27.2527  -27.4980   20.1064 C   0  0  0  0  0  0
  -25.5893  -33.8637   24.2344 N   0  0  0  0  0  0
  -23.3921  -30.4927   21.5519 C   0  0  2  0  0  0
  -24.8395  -28.9609   20.1154 C   0  0  0  0  0  0
  -22.7367  -29.4684   22.5019 C   0  0  0  0  0  0
  -18.0241  -28.1347   22.8583 C   0  0  0  0  0  0
  -24.1483  -36.7324   23.2640 C   0  0  0  0  0  0
  -25.9076  -30.8631   21.3443 C   0  0  0  0  0  0
  -25.9900  -29.4985   20.7010 C   0  0  0  0  0  0
  -27.1978  -28.7827   20.6824 C   0  0  0  0  0  0
  -26.0925  -26.9654   19.5059 C   0  0  0  0  0  0
  -24.8830  -27.6908   19.5110 C   0  0  0  0  0  0
  -23.5944  -29.8174   20.1680 C   0  0  0  0  0  0
  -25.4105  -36.3130   24.0350 C   0  0  1  0  0  0
  -20.5837  -28.3663   23.1346 C   0  0  2  0  0  0
  -20.6764  -26.9418   22.5435 C   0  0  0  0  0  0
  -19.5685  -26.6341   21.5301 C   0  0  0  0  0  0
  -18.1930  -26.7814   22.1874 C   0  0  0  0  0  0
  -19.1499  -28.8851   23.2902 C   0  0  0  0  0  0
  -18.9425  -30.1524   23.8769 C   0  0  0  0  0  0
  -17.6414  -30.6650   24.0446 C   0  0  0  0  0  0
  -25.9036  -34.9491   23.5153 C   0  0  0  0  0  0
  -16.5305  -29.9087   23.6320 C   0  0  0  0  0  0
  -16.7221  -28.6456   23.0428 C   0  0  0  0  0  0
  -26.4466  -31.6579   25.0679 C   0  0  0  0  0  0
  -25.3740  -31.3658   26.1431 C   0  0  0  0  0  0
  -27.0300  -30.3044   24.5975 C   0  0  0  0  0  0
  -27.6069  -32.4257   25.7429 C   0  0  0  0  0  0
  -27.5587  -37.1821   24.8470 C   0  0  0  0  0  0
  -21.4104  -29.3024   22.3742 N   0  0  0  0  0  0
  -26.4306  -37.3810   23.9405 N   0  0  0  0  0  0
  -24.6551  -31.0881   22.0969 N   0  0  0  0  0  0
  -23.4164  -28.8255   23.3060 O   0  0  0  0  0  0
  -28.4157  -26.7634   20.0856 O   0  0  0  0  0  0
  -26.5601  -34.8944   22.4718 O   0  0  0  0  0  0
  -23.5293  -32.1445   23.7561 O   0  0  0  0  0  0
  -31.7700  -17.0589   22.0314 C   0  0  0  0  0  0
  -32.0440  -18.4355   21.9919 C   0  0  0  0  0  0
  -29.8435  -18.8559   21.0006 C   0  0  0  0  0  0
  -29.5447  -17.4676   21.0744 C   0  0  0  0  0  0
  -30.5312  -16.5758   21.5627 C   0  0  0  0  0  0
  -31.0925  -19.3294   21.4715 C   0  0  0  0  0  0
  -28.5029  -20.9310   21.3244 C   0  0  0  0  0  0
  -27.8086  -21.9978   20.8941 C   0  0  0  0  0  0
  -28.8777  -19.8317   20.4329 C   0  0  0  0  0  0
  -27.5163  -23.0387   21.8459 C   0  0  0  0  0  0
  -28.1927  -16.9180   20.6220 C   0  0  0  0  0  0
  -29.5207  -27.4594   22.2442 C   0  0  0  0  0  0
  -27.9607  -25.4436   22.1014 C   0  0  0  0  0  0
  -28.9589  -26.3411   21.3503 C   0  0  2  0  0  0
  -30.2801  -15.1871   21.5774 N   0  0  0  0  0  0
  -27.7370  -24.2399   21.3189 N   0  0  0  0  0  0
  -28.3994  -19.7020   19.3003 O   0  0  0  0  0  0
  -27.1976  -22.8646   23.0239 O   0  0  0  0  0  0
  -31.4038  -20.6479   21.4143 F   0  0  0  0  0  0
  -31.4592  -12.3533   19.0987 H   0  0  0  0  0  0
  -30.2958  -11.2472   19.7698 H   0  0  0  0  0  0
  -29.7151  -11.8064   17.3967 H   0  0  0  0  0  0
  -29.6606  -13.5074   17.7888 H   0  0  0  0  0  0
  -27.8177  -11.3081   18.7963 H   0  0  0  0  0  0
  -27.3554  -12.6518   17.7872 H   0  0  0  0  0  0
  -27.7221  -14.2427   19.5924 H   0  0  0  0  0  0
  -28.6612  -11.9038   21.3222 H   0  0  0  0  0  0
  -28.4539  -13.5284   21.8829 H   0  0  0  0  0  0
  -25.2756   -9.5669   22.4776 H   0  0  0  0  0  0
  -23.9985   -7.4624   22.7492 H   0  0  0  0  0  0
  -21.0828   -8.8779   19.8971 H   0  0  0  0  0  0
  -22.3691  -10.9676   19.6185 H   0  0  0  0  0  0
  -21.2018   -7.6158   23.9714 H   0  0  0  0  0  0
  -21.1484   -6.0537   25.9077 H   0  0  0  0  0  0
  -22.0597   -2.7610   23.2853 H   0  0  0  0  0  0
  -22.4102  -11.9884   22.4781 H   0  0  0  0  0  0
  -21.1133  -13.1293   22.2643 H   0  0  0  0  0  0
  -24.6381  -15.8222   20.4769 H   0  0  0  0  0  0
  -26.2431  -15.6100   19.9962 H   0  0  0  0  0  0
  -26.7087  -32.5570   23.1173 H   0  0  0  0  0  0
  -25.0039  -33.9805   25.0485 H   0  0  0  0  0  0
  -22.6766  -31.3052   21.4136 H   0  0  0  0  0  0
  -23.3747  -35.9656   23.3331 H   0  0  0  0  0  0
  -24.3577  -36.8909   22.2050 H   0  0  0  0  0  0
  -23.7235  -37.6542   23.6623 H   0  0  0  0  0  0
  -26.0005  -31.6247   20.5683 H   0  0  0  0  0  0
  -26.8028  -30.9275   21.9501 H   0  0  0  0  0  0
  -28.0834  -29.2429   21.0933 H   0  0  0  0  0  0
  -26.1276  -25.9883   19.0443 H   0  0  0  0  0  0
  -24.0001  -27.2699   19.0487 H   0  0  0  0  0  0
  -23.6842  -30.5880   19.4016 H   0  0  0  0  0  0
  -22.7210  -29.2276   19.8869 H   0  0  0  0  0  0
  -25.1279  -36.2031   25.0846 H   0  0  0  0  0  0
  -20.9910  -28.3223   24.1478 H   0  0  0  0  0  0
  -21.6620  -26.7541   22.1161 H   0  0  0  0  0  0
  -20.5775  -26.2264   23.3623 H   0  0  0  0  0  0
  -19.6921  -25.6250   21.1371 H   0  0  0  0  0  0
  -19.6476  -27.3128   20.6802 H   0  0  0  0  0  0
  -17.4053  -26.6294   21.4467 H   0  0  0  0  0  0
  -18.0560  -26.0078   22.9447 H   0  0  0  0  0  0
  -19.7897  -30.7437   24.1975 H   0  0  0  0  0  0
  -17.4951  -31.6401   24.4895 H   0  0  0  0  0  0
  -15.5299  -30.2976   23.7627 H   0  0  0  0  0  0
  -15.8619  -28.0716   22.7246 H   0  0  0  0  0  0
  -24.5910  -30.7028   25.7737 H   0  0  0  0  0  0
  -24.8915  -32.2795   26.4898 H   0  0  0  0  0  0
  -25.8084  -30.8770   27.0164 H   0  0  0  0  0  0
  -26.2833  -29.6788   24.1061 H   0  0  0  0  0  0
  -27.4197  -29.7281   25.4378 H   0  0  0  0  0  0
  -27.8580  -30.4415   23.9020 H   0  0  0  0  0  0
  -27.2742  -33.3550   26.2072 H   0  0  0  0  0  0
  -28.3837  -32.6847   25.0216 H   0  0  0  0  0  0
  -28.0776  -31.8313   26.5272 H   0  0  0  0  0  0
  -28.2644  -38.0085   24.7522 H   0  0  0  0  0  0
  -28.1057  -36.2642   24.6296 H   0  0  0  0  0  0
  -27.2310  -37.1474   25.8873 H   0  0  0  0  0  0
  -20.9239  -29.8698   21.6951 H   0  0  0  0  0  0
  -26.0213  -38.2902   24.1380 H   0  0  0  0  0  0
  -32.5192  -16.3779   22.4116 H   0  0  0  0  0  0
  -32.9956  -18.8080   22.3453 H   0  0  0  0  0  0
  -28.8224  -20.8618   22.3545 H   0  0  0  0  0  0
  -27.4867  -22.0835   19.8649 H   0  0  0  0  0  0
  -27.3793  -17.6307   20.7578 H   0  0  0  0  0  0
  -27.9092  -16.0430   21.2026 H   0  0  0  0  0  0
  -28.2342  -16.6364   19.5687 H   0  0  0  0  0  0
  -28.7339  -27.9973   22.7731 H   0  0  0  0  0  0
  -30.1716  -27.0412   23.0126 H   0  0  0  0  0  0
  -30.1139  -28.1716   21.6719 H   0  0  0  0  0  0
  -27.0160  -25.9524   22.2948 H   0  0  0  0  0  0
  -28.3793  -25.1839   23.0756 H   0  0  0  0  0  0
  -29.8225  -25.7266   21.0863 H   0  0  0  0  0  0
  -29.4205  -14.8813   22.0042 H   0  0  0  0  0  0
  -27.9823  -24.2974   20.3396 H   0  0  0  0  0  0
  1 25  1  0  0  0
  1 30  2  0  0  0
  1 85  1  0  0  0
  2  3  1  0  0  0
  2 25  1  0  0  0
  2 90  1  0  0  0
  2 91  1  0  0  0
  3  4  1  0  0  0
  3 92  1  0  0  0
  3 93  1  0  0  0
  4  5  1  0  0  0
  4 94  1  0  0  0
  4 95  1  0  0  0
  5  6  1  0  0  0
  5 26  1  0  0  0
  5 96  1  0  0  0
  6 25  1  0  0  0
  6 97  1  0  0  0
  6 98  1  0  0  0
  7  8  2  0  0  0
  7 26  1  0  0  0
  7 29  1  0  0  0
  8  9  1  0  0  0
  8 22  1  0  0  0
  9 10  1  0  0  0
  9 27  2  0  0  0
 10 11  2  0  0  0
 10 15  1  0  0  0
 11 12  1  0  0  0
 11 99  1  0  0  0
 12 13  2  0  0  0
 12100  1  0  0  0
 13 14  1  0  0  0
 13 31  1  0  0  0
 14 15  2  0  0  0
 14101  1  0  0  0
 15102  1  0  0  0
 16 17  2  0  0  0
 16 21  1  0  0  0
 16 31  1  0  0  0
 17 18  1  0  0  0
 17103  1  0  0  0
 18 19  2  0  0  0
 18104  1  0  0  0
 19 20  1  0  0  0
 19 24  1  0  0  0
 20 21  2  0  0  0
 20105  1  0  0  0
 21 23  1  0  0  0
 22 28  1  0  0  0
 22 32  2  0  0  0
 26 27  1  0  0  0
 28106  1  0  0  0
 28107  1  0  0  0
 29108  1  0  0  0
 29109  1  0  0  0
 33 34  1  0  0  0
 33 66  1  0  0  0
 33 70  2  0  0  0
 34 36  1  0  0  0
 34 59  1  0  0  0
 34110  1  0  0  0
 35 44  2  0  0  0
 35 45  1  0  0  0
 35 68  1  0  0  0
 36 56  1  0  0  0
 36111  1  0  0  0
 37 39  1  0  0  0
 37 47  1  0  0  0
 37 66  1  0  0  0
 37112  1  0  0  0
 38 43  2  0  0  0
 38 46  1  0  0  0
 38 47  1  0  0  0
 39 64  1  0  0  0
 39 67  2  0  0  0
 40 52  1  0  0  0
 40 53  2  0  0  0
 40 58  1  0  0  0
 41113  1  0  0  0
 41114  1  0  0  0
 41115  1  0  0  0
 41 48  1  0  0  0
 42 43  1  0  0  0
 42 66  1  0  0  0
 42116  1  0  0  0
 42117  1  0  0  0
 43 44  1  0  0  0
 44118  1  0  0  0
 45 46  2  0  0  0
 45119  1  0  0  0
 46120  1  0  0  0
 47121  1  0  0  0
 47122  1  0  0  0
 48 56  1  0  0  0
 48 65  1  0  0  0
 48123  1  0  0  0
 49 50  1  0  0  0
 49 53  1  0  0  0
 49 64  1  0  0  0
 49124  1  0  0  0
 50 51  1  0  0  0
 50125  1  0  0  0
 50126  1  0  0  0
 51 52  1  0  0  0
 51127  1  0  0  0
 51128  1  0  0  0
 52129  1  0  0  0
 52130  1  0  0  0
 53 54  1  0  0  0
 54 55  2  0  0  0
 54131  1  0  0  0
 55 57  1  0  0  0
 55132  1  0  0  0
 56 69  2  0  0  0
 57 58  2  0  0  0
 57133  1  0  0  0
 58134  1  0  0  0
 59 60  1  0  0  0
 59 61  1  0  0  0
 59 62  1  0  0  0
 60135  1  0  0  0
 60136  1  0  0  0
 60137  1  0  0  0
 61138  1  0  0  0
 61139  1  0  0  0
 61140  1  0  0  0
 62141  1  0  0  0
 62142  1  0  0  0
 62143  1  0  0  0
 63 65  1  0  0  0
 63144  1  0  0  0
 63145  1  0  0  0
 63146  1  0  0  0
 64147  1  0  0  0
 65148  1  0  0  0
 68 84  1  0  0  0
 71 72  2  0  0  0
 71 75  1  0  0  0
 71149  1  0  0  0
 72 76  1  0  0  0
 72150  1  0  0  0
 73 74  1  0  0  0
 73 76  2  0  0  0
 73 79  1  0  0  0
 74 75  2  0  0  0
 74 81  1  0  0  0
 75 85  1  0  0  0
 76 89  1  0  0  0
 77 78  2  0  0  0
 77 79  1  0  0  0
 77151  1  0  0  0
 78 80  1  0  0  0
 78152  1  0  0  0
 79 87  2  0  0  0
 80 86  1  0  0  0
 80 88  2  0  0  0
 81153  1  0  0  0
 81154  1  0  0  0
 81155  1  0  0  0
 82156  1  0  0  0
 82157  1  0  0  0
 82158  1  0  0  0
 82 84  1  0  0  0
 83 84  1  0  0  0
 83 86  1  0  0  0
 83159  1  0  0  0
 83160  1  0  0  0
 84161  1  0  0  0
 85162  1  0  0  0
 86163  1  0  0  0
M  ISO  4   1 100  68 101  84 101  85 100
M  END
> <chiral flag>
0

> <version>
0

> <s_m_source_file>
/data/baiqing/PycharmProjects/Reinvent-master-3.2/result/LINK_invent/BTK/process_docking_weight1_custom_product_contain_oxygen_bond_distance_aromatic_linkinvent_7_9_3/rearranged_h_0051.sdf

> <i_m_source_file_index>
86

> <r_mmod_Potential_Energy-OPLS-2005>
-200.642440795898

> <r_mmod_Stretch_Energy-OPLS-2005>
33.0035095214844

> <r_mmod_Bend_Energy-OPLS-2005>
92.5513687133789

> <r_mmod_Torsional_Energy-OPLS-2005>
280.693572998047

> <r_mmod_Improper_Torsional_Energy-OPLS-2005>
5.24029541015625

> <r_mmod_Van_der_Waal_Energy-OPLS-2005>
166.126266479492

> <r_mmod_Electrostatic_Energy-OPLS-2005>
-555.915649414062

> <r_mmod_Solvation_Energy-OPLS-2005>
-228.944702148438

> <b_mmod_Minimization_Converged-OPLS-2005>
0

> <r_mmod_RMS_Derivative-OPLS-2005>
2.58575677871704

$$$$
86
                    3D
 Structure written by MMmdl.
161169  0  0  1  0            999 V2000
  -30.6514  -14.5099   20.4766 C   0  0  0  0  0  0
  -30.4241  -12.2977   19.4285 C   0  0  0  0  0  0
  -29.5046  -12.4808   18.2001 C   0  0  0  0  0  0
  -28.0140  -12.3891   18.5943 C   0  0  0  0  0  0
  -27.6587  -13.2143   19.8609 C   0  0  2  0  0  0
  -28.7029  -12.9984   20.9820 C   0  0  0  0  0  0
  -25.2585  -13.8192   20.5653 C   0  0  0  0  0  0
  -24.1845  -13.0440   20.9162 C   0  0  0  0  0  0
  -24.6427  -11.6913   20.8711 C   0  0  0  0  0  0
  -23.9095  -10.4300   21.0376 C   0  0  0  0  0  0
  -24.3628   -9.4220   21.9166 C   0  0  0  0  0  0
  -23.6293   -8.2253   22.0753 C   0  0  0  0  0  0
  -22.4279   -8.0279   21.3545 C   0  0  0  0  0  0
  -21.9923   -9.0255   20.4639 C   0  0  0  0  0  0
  -22.7278  -10.2120   20.3025 C   0  0  0  0  0  0
  -21.6852   -6.0719   22.5275 C   0  0  0  0  0  0
  -21.4007   -6.5619   23.8208 C   0  0  0  0  0  0
  -21.3655   -5.6777   24.9169 C   0  0  0  0  0  0
  -21.6038   -4.3037   24.7229 C   0  0  0  0  0  0
  -21.8828   -3.8130   23.4351 C   0  0  0  0  0  0
  -21.9196   -4.6945   22.3401 C   0  0  0  0  0  0
  -22.7864  -13.5206   21.1824 C   0  0  0  0  0  0
  -22.1666   -4.2122   21.0979 F   0  0  0  0  0  0
  -21.5612   -3.4531   25.7743 F   0  0  0  0  0  0
  -30.0312  -13.2984   20.4311 N   0  0  0  0  0  0
  -26.3022  -12.9363   20.3277 N   0  0  0  0  0  0
  -25.9344  -11.6532   20.5697 N   0  0  0  0  0  0
  -22.0484  -12.8173   22.0366 N   0  0  0  0  0  0
  -25.4327  -15.1921   20.4085 N   0  0  0  0  0  0
  -31.8188  -14.6805   20.1103 O   0  0  0  0  0  0
  -21.6640   -6.8868   21.4244 O   0  0  0  0  0  0
  -22.3539  -14.5497   20.6655 O   0  0  0  0  0  0
  -24.6171  -31.8712   23.2137 C   0  0  0  0  0  0
  -25.9089  -32.4821   23.8425 C   0  0  1  0  0  0
  -27.2385  -27.4630   20.0826 C   0  0  0  0  0  0
  -25.5964  -33.8608   24.2390 N   0  0  0  0  0  0
  -23.4003  -30.4939   21.5551 C   0  0  2  0  0  0
  -24.8465  -28.9623   20.1185 C   0  0  0  0  0  0
  -22.7395  -29.4662   22.5021 C   0  0  0  0  0  0
  -18.0265  -28.1350   22.8441 C   0  0  0  0  0  0
  -24.1480  -36.7292   23.2634 C   0  0  0  0  0  0
  -25.9295  -30.8355   21.3700 C   0  0  0  0  0  0
  -26.0046  -29.4701   20.7240 C   0  0  0  0  0  0
  -27.2066  -28.7234   20.7180 C   0  0  0  0  0  0
  -26.0684  -26.9705   19.4728 C   0  0  0  0  0  0
  -24.8723  -27.7059   19.4906 C   0  0  0  0  0  0
  -23.6075  -29.8286   20.1676 C   0  0  0  0  0  0
  -25.4088  -36.3094   24.0354 C   0  0  1  0  0  0
  -20.5847  -28.3627   23.1296 C   0  0  2  0  0  0
  -20.6742  -26.9381   22.5368 C   0  0  0  0  0  0
  -19.5747  -26.6362   21.5156 C   0  0  0  0  0  0
  -18.1926  -26.7893   22.1569 C   0  0  0  0  0  0
  -19.1507  -28.8803   23.2838 C   0  0  0  0  0  0
  -18.9449  -30.1413   23.8829 C   0  0  0  0  0  0
  -17.6450  -30.6552   24.0529 C   0  0  0  0  0  0
  -25.9033  -34.9467   23.5156 C   0  0  0  0  0  0
  -16.5334  -29.9039   23.6332 C   0  0  0  0  0  0
  -16.7254  -28.6462   23.0335 C   0  0  0  0  0  0
  -26.4500  -31.6541   25.0729 C   0  0  0  0  0  0
  -25.3758  -31.3528   26.1453 C   0  0  0  0  0  0
  -27.0357  -30.2996   24.6078 C   0  0  0  0  0  0
  -27.6081  -32.4218   25.7542 C   0  0  0  0  0  0
  -27.5576  -37.1801   24.8454 C   0  0  0  0  0  0
  -21.4124  -29.3007   22.3723 N   0  0  0  0  0  0
  -26.4261  -37.3807   23.9442 N   0  0  0  0  0  0
  -24.6661  -31.0821   22.1043 N   0  0  0  0  0  0
  -23.4166  -28.8204   23.3057 O   0  0  0  0  0  0
  -28.3508  -26.6701   19.9427 O   0  0  0  0  0  0
  -26.5568  -34.8927   22.4700 O   0  0  0  0  0  0
  -23.5372  -32.1487   23.7543 O   0  0  0  0  0  0
  -29.5075  -17.7011   17.6860 C   0  0  0  0  0  0
  -29.4030  -18.9803   18.2424 C   0  0  0  0  0  0
  -29.6766  -16.5911   18.5259 C   0  0  0  0  0  0
  -29.4474  -19.1873   19.6376 C   0  0  0  0  0  0
  -29.5871  -18.0494   20.4986 C   0  0  0  0  0  0
  -29.7326  -16.7420   19.9325 C   0  0  0  0  0  0
  -29.4186  -20.6266   20.0123 C   0  0  0  0  0  0
  -29.8753  -21.2610   21.1159 C   0  0  0  0  0  0
  -29.8241  -22.7185   21.1959 C   0  0  0  0  0  0
  -29.5520  -18.2239   22.0105 C   0  0  0  0  0  0
  -29.4273  -26.7119   20.8669 C   0  0  0  0  0  0
  -29.1098  -25.9052   22.1423 C   0  0  0  0  0  0
  -29.8370  -15.5578   20.7423 N   0  0  0  0  0  0
  -30.2073  -23.2737   22.4160 N   0  0  0  0  0  0
  -29.4883  -23.4535   20.2624 O   0  0  0  0  0  0
  -31.7660  -25.2791   21.9586 O   0  0  0  0  0  0
  -30.6316  -25.0490   24.2103 O   0  0  0  0  0  0
  -30.5705  -24.9323   22.7427 S   0  0  0  0  0  0
  -31.4730  -12.3841   19.1397 H   0  0  0  0  0  0
  -30.3063  -11.2897   19.8357 H   0  0  0  0  0  0
  -29.7316  -11.7295   17.4418 H   0  0  0  0  0  0
  -29.7079  -13.4410   17.7230 H   0  0  0  0  0  0
  -27.7763  -11.3380   18.7537 H   0  0  0  0  0  0
  -27.3887  -12.7121   17.7608 H   0  0  0  0  0  0
  -27.6939  -14.2619   19.5573 H   0  0  0  0  0  0
  -28.6785  -11.9629   21.3266 H   0  0  0  0  0  0
  -28.4787  -13.6077   21.8576 H   0  0  0  0  0  0
  -25.2777   -9.5676   22.4734 H   0  0  0  0  0  0
  -23.9990   -7.4653   22.7498 H   0  0  0  0  0  0
  -21.0832   -8.8799   19.8964 H   0  0  0  0  0  0
  -22.3759  -10.9626   19.6100 H   0  0  0  0  0  0
  -21.2000   -7.6127   23.9695 H   0  0  0  0  0  0
  -21.1449   -6.0500   25.9064 H   0  0  0  0  0  0
  -22.0601   -2.7593   23.2863 H   0  0  0  0  0  0
  -22.4044  -11.9804   22.4728 H   0  0  0  0  0  0
  -21.1121  -13.1240   22.2551 H   0  0  0  0  0  0
  -24.6738  -15.8552   20.5164 H   0  0  0  0  0  0
  -26.2878  -15.6245   20.0819 H   0  0  0  0  0  0
  -26.7158  -32.5555   23.1192 H   0  0  0  0  0  0
  -25.0216  -33.9752   25.0608 H   0  0  0  0  0  0
  -22.6909  -31.3122   21.4181 H   0  0  0  0  0  0
  -23.3779  -35.9589   23.3232 H   0  0  0  0  0  0
  -24.3604  -36.8983   22.2065 H   0  0  0  0  0  0
  -23.7176  -37.6465   23.6661 H   0  0  0  0  0  0
  -26.0534  -31.5999   20.6007 H   0  0  0  0  0  0
  -26.8145  -30.8781   21.9915 H   0  0  0  0  0  0
  -28.0955  -29.1348   21.1713 H   0  0  0  0  0  0
  -26.0897  -26.0142   18.9696 H   0  0  0  0  0  0
  -23.9883  -27.3151   19.0071 H   0  0  0  0  0  0
  -23.7107  -30.6071   19.4106 H   0  0  0  0  0  0
  -22.7322  -29.2482   19.8700 H   0  0  0  0  0  0
  -25.1247  -36.1964   25.0841 H   0  0  0  0  0  0
  -20.9927  -28.3179   24.1413 H   0  0  0  0  0  0
  -20.5653  -26.2230   23.3534 H   0  0  0  0  0  0
  -21.6624  -26.7438   22.1164 H   0  0  0  0  0  0
  -19.6936  -25.6277   21.1181 H   0  0  0  0  0  0
  -19.6698  -27.3145   20.6667 H   0  0  0  0  0  0
  -17.4204  -26.6622   21.3967 H   0  0  0  0  0  0
  -18.0341  -26.0031   22.8956 H   0  0  0  0  0  0
  -19.7949  -30.7214   24.2166 H   0  0  0  0  0  0
  -17.5032  -31.6245   24.5137 H   0  0  0  0  0  0
  -15.5320  -30.2901   23.7682 H   0  0  0  0  0  0
  -15.8668  -28.0751   22.7068 H   0  0  0  0  0  0
  -24.6018  -30.6799   25.7736 H   0  0  0  0  0  0
  -24.8843  -32.2610   26.4954 H   0  0  0  0  0  0
  -25.8173  -30.8669   27.0177 H   0  0  0  0  0  0
  -26.2899  -29.6759   24.1148 H   0  0  0  0  0  0
  -27.4149  -29.7219   25.4528 H   0  0  0  0  0  0
  -27.8733  -30.4318   23.9215 H   0  0  0  0  0  0
  -27.2759  -33.3537   26.2128 H   0  0  0  0  0  0
  -28.3950  -32.6730   25.0412 H   0  0  0  0  0  0
  -28.0683  -31.8308   26.5483 H   0  0  0  0  0  0
  -28.2489  -38.0198   24.7674 H   0  0  0  0  0  0
  -28.1167  -36.2746   24.6051 H   0  0  0  0  0  0
  -27.2340  -37.1218   25.8864 H   0  0  0  0  0  0
  -20.9287  -29.8678   21.6895 H   0  0  0  0  0  0
  -26.0138  -38.2871   24.1519 H   0  0  0  0  0  0
  -29.4647  -17.5747   16.6125 H   0  0  0  0  0  0
  -29.2961  -19.8190   17.5671 H   0  0  0  0  0  0
  -29.7513  -15.6197   18.0628 H   0  0  0  0  0  0
  -28.9707  -21.2550   19.2532 H   0  0  0  0  0  0
  -30.3186  -20.7112   21.9258 H   0  0  0  0  0  0
  -28.8011  -18.9629   22.2941 H   0  0  0  0  0  0
  -30.5235  -18.5454   22.3805 H   0  0  0  0  0  0
  -29.2864  -17.3068   22.5315 H   0  0  0  0  0  0
  -30.2322  -26.2262   20.3172 H   0  0  0  0  0  0
  -29.7812  -27.7197   21.0824 H   0  0  0  0  0  0
  -28.2862  -25.2156   21.9833 H   0  0  0  0  0  0
  -28.8061  -26.5777   22.9426 H   0  0  0  0  0  0
  -28.9786  -15.2974   21.2048 H   0  0  0  0  0  0
  -30.2609  -22.6977   23.2560 H   0  0  0  0  0  0
  1 25  1  0  0  0
  1 30  2  0  0  0
  1 83  1  0  0  0
  2  3  1  0  0  0
  2 25  1  0  0  0
  2 89  1  0  0  0
  2 90  1  0  0  0
  3  4  1  0  0  0
  3 91  1  0  0  0
  3 92  1  0  0  0
  4  5  1  0  0  0
  4 93  1  0  0  0
  4 94  1  0  0  0
  5  6  1  0  0  0
  5 26  1  0  0  0
  5 95  1  0  0  0
  6 25  1  0  0  0
  6 96  1  0  0  0
  6 97  1  0  0  0
  7  8  2  0  0  0
  7 26  1  0  0  0
  7 29  1  0  0  0
  8  9  1  0  0  0
  8 22  1  0  0  0
  9 10  1  0  0  0
  9 27  2  0  0  0
 10 11  2  0  0  0
 10 15  1  0  0  0
 11 12  1  0  0  0
 11 98  1  0  0  0
 12 13  2  0  0  0
 12 99  1  0  0  0
 13 14  1  0  0  0
 13 31  1  0  0  0
 14 15  2  0  0  0
 14100  1  0  0  0
 15101  1  0  0  0
 16 17  2  0  0  0
 16 21  1  0  0  0
 16 31  1  0  0  0
 17 18  1  0  0  0
 17102  1  0  0  0
 18 19  2  0  0  0
 18103  1  0  0  0
 19 20  1  0  0  0
 19 24  1  0  0  0
 20 21  2  0  0  0
 20104  1  0  0  0
 21 23  1  0  0  0
 22 28  1  0  0  0
 22 32  2  0  0  0
 26 27  1  0  0  0
 28105  1  0  0  0
 28106  1  0  0  0
 29107  1  0  0  0
 29108  1  0  0  0
 33 34  1  0  0  0
 33 66  1  0  0  0
 33 70  2  0  0  0
 34 36  1  0  0  0
 34 59  1  0  0  0
 34109  1  0  0  0
 35 44  2  0  0  0
 35 45  1  0  0  0
 35 68  1  0  0  0
 36 56  1  0  0  0
 36110  1  0  0  0
 37 39  1  0  0  0
 37 47  1  0  0  0
 37 66  1  0  0  0
 37111  1  0  0  0
 38 43  2  0  0  0
 38 46  1  0  0  0
 38 47  1  0  0  0
 39 64  1  0  0  0
 39 67  2  0  0  0
 40 52  1  0  0  0
 40 53  2  0  0  0
 40 58  1  0  0  0
 41112  1  0  0  0
 41113  1  0  0  0
 41114  1  0  0  0
 41 48  1  0  0  0
 42 43  1  0  0  0
 42 66  1  0  0  0
 42115  1  0  0  0
 42116  1  0  0  0
 43 44  1  0  0  0
 44117  1  0  0  0
 45 46  2  0  0  0
 45118  1  0  0  0
 46119  1  0  0  0
 47120  1  0  0  0
 47121  1  0  0  0
 48 56  1  0  0  0
 48 65  1  0  0  0
 48122  1  0  0  0
 49 50  1  0  0  0
 49 53  1  0  0  0
 49 64  1  0  0  0
 49123  1  0  0  0
 50 51  1  0  0  0
 50124  1  0  0  0
 50125  1  0  0  0
 51 52  1  0  0  0
 51126  1  0  0  0
 51127  1  0  0  0
 52128  1  0  0  0
 52129  1  0  0  0
 53 54  1  0  0  0
 54 55  2  0  0  0
 54130  1  0  0  0
 55 57  1  0  0  0
 55131  1  0  0  0
 56 69  2  0  0  0
 57 58  2  0  0  0
 57132  1  0  0  0
 58133  1  0  0  0
 59 60  1  0  0  0
 59 61  1  0  0  0
 59 62  1  0  0  0
 60134  1  0  0  0
 60135  1  0  0  0
 60136  1  0  0  0
 61137  1  0  0  0
 61138  1  0  0  0
 61139  1  0  0  0
 62140  1  0  0  0
 62141  1  0  0  0
 62142  1  0  0  0
 63 65  1  0  0  0
 63143  1  0  0  0
 63144  1  0  0  0
 63145  1  0  0  0
 64146  1  0  0  0
 65147  1  0  0  0
 68 81  1  0  0  0
 71 72  2  0  0  0
 71 73  1  0  0  0
 71148  1  0  0  0
 72 74  1  0  0  0
 72149  1  0  0  0
 73 76  2  0  0  0
 73150  1  0  0  0
 74 75  2  0  0  0
 74 77  1  0  0  0
 75 76  1  0  0  0
 75 80  1  0  0  0
 76 83  1  0  0  0
 77 78  2  0  0  0
 77151  1  0  0  0
 78 79  1  0  0  0
 78152  1  0  0  0
 79 84  1  0  0  0
 79 85  2  0  0  0
 80153  1  0  0  0
 80154  1  0  0  0
 80155  1  0  0  0
 81 82  1  0  0  0
 81156  1  0  0  0
 81157  1  0  0  0
 82158  1  0  0  0
 82159  1  0  0  0
 82 88  1  0  0  0
 83160  1  0  0  0
 84 88  1  0  0  0
 84161  1  0  0  0
 86 88  2  0  0  0
 87 88  2  0  0  0
M  ISO  4   1 100  68 101  81 101  83 100
M  END
> <chiral flag>
0

> <version>
0

> <s_m_source_file>
/data/baiqing/PycharmProjects/Reinvent-master-3.2/result/LINK_invent/BTK/process_docking_weight1_custom_product_contain_oxygen_bond_distance_aromatic_linkinvent_7_9_3/rearranged_h_0051.sdf

> <i_m_source_file_index>
87

> <r_mmod_Potential_Energy-OPLS-2005>
-283.174468994141

> <r_mmod_Stretch_Energy-OPLS-2005>
39.4879379272461

> <r_mmod_Bend_Energy-OPLS-2005>
124.820365905762

> <r_mmod_Torsional_Energy-OPLS-2005>
271.842315673828

> <r_mmod_Improper_Torsional_Energy-OPLS-2005>
8.29651832580566

> <r_mmod_Van_der_Waal_Energy-OPLS-2005>
150.951293945312

> <r_mmod_Electrostatic_Energy-OPLS-2005>
-626.869262695312

> <r_mmod_Solvation_Energy-OPLS-2005>
-268.650238037109

> <b_mmod_Minimization_Converged-OPLS-2005>
0

> <r_mmod_RMS_Derivative-OPLS-2005>
4.87132883071899

$$$$
87
                    3D
 Structure written by MMmdl.
151159  0  0  1  0            999 V2000
  -30.6347  -14.7472   20.4426 C   0  0  0  0  0  0
  -30.4248  -12.4533   19.4779 C   0  0  0  0  0  0
  -29.5108  -12.5079   18.2349 C   0  0  0  0  0  0
  -28.0353  -12.3349   18.6463 C   0  0  0  0  0  0
  -27.6401  -13.2383   19.8456 C   0  0  2  0  0  0
  -28.6839  -13.1925   20.9825 C   0  0  0  0  0  0
  -25.2505  -13.8217   20.5683 C   0  0  0  0  0  0
  -24.1808  -13.0455   20.9205 C   0  0  0  0  0  0
  -24.6411  -11.6938   20.8747 C   0  0  0  0  0  0
  -23.9095  -10.4308   21.0402 C   0  0  0  0  0  0
  -24.3643   -9.4222   21.9173 C   0  0  0  0  0  0
  -23.6321   -8.2253   22.0748 C   0  0  0  0  0  0
  -22.4301   -8.0290   21.3542 C   0  0  0  0  0  0
  -21.9932   -9.0264   20.4645 C   0  0  0  0  0  0
  -22.7268  -10.2140   20.3049 C   0  0  0  0  0  0
  -21.6861   -6.0750   22.5284 C   0  0  0  0  0  0
  -21.4027   -6.5648   23.8218 C   0  0  0  0  0  0
  -21.3648   -5.6795   24.9170 C   0  0  0  0  0  0
  -21.6037   -4.3059   24.7215 C   0  0  0  0  0  0
  -21.8823   -3.8157   23.4336 C   0  0  0  0  0  0
  -21.9196   -4.6978   22.3402 C   0  0  0  0  0  0
  -22.7823  -13.5221   21.1858 C   0  0  0  0  0  0
  -22.1665   -4.2168   21.0977 F   0  0  0  0  0  0
  -21.5616   -3.4537   25.7721 F   0  0  0  0  0  0
  -29.9855  -13.5318   20.3964 N   0  0  0  0  0  0
  -26.2935  -12.9435   20.3259 N   0  0  0  0  0  0
  -25.9340  -11.6572   20.5740 N   0  0  0  0  0  0
  -22.0472  -12.8213   22.0421 N   0  0  0  0  0  0
  -25.4189  -15.1936   20.4095 N   0  0  0  0  0  0
  -31.8287  -14.7782   20.1427 O   0  0  0  0  0  0
  -21.6656   -6.8893   21.4247 O   0  0  0  0  0  0
  -22.3505  -14.5525   20.6701 O   0  0  0  0  0  0
  -24.6301  -31.8528   23.1964 C   0  0  0  0  0  0
  -25.9124  -32.4741   23.8309 C   0  0  1  0  0  0
  -27.2267  -27.2613   20.1244 C   0  0  0  0  0  0
  -25.5914  -33.8538   24.2238 N   0  0  0  0  0  0
  -23.4273  -30.4722   21.5410 C   0  0  2  0  0  0
  -24.8738  -28.9159   20.1093 C   0  0  0  0  0  0
  -22.7505  -29.4571   22.4936 C   0  0  0  0  0  0
  -18.0278  -28.1381   22.8478 C   0  0  0  0  0  0
  -24.1487  -36.7286   23.2640 C   0  0  0  0  0  0
  -25.9709  -30.7641   21.3770 C   0  0  0  0  0  0
  -26.0428  -29.3863   20.7190 C   0  0  0  0  0  0
  -27.2159  -28.5690   20.7182 C   0  0  0  0  0  0
  -26.0306  -26.8509   19.4945 C   0  0  0  0  0  0
  -24.8725  -27.6562   19.4894 C   0  0  0  0  0  0
  -23.6435  -29.8012   20.1575 C   0  0  0  0  0  0
  -25.4112  -36.3069   24.0330 C   0  0  1  0  0  0
  -20.5884  -28.3684   23.1281 C   0  0  2  0  0  0
  -20.6775  -26.9405   22.5417 C   0  0  0  0  0  0
  -19.5749  -26.6374   21.5223 C   0  0  0  0  0  0
  -18.1927  -26.7921   22.1633 C   0  0  0  0  0  0
  -19.1529  -28.8856   23.2870 C   0  0  0  0  0  0
  -18.9460  -30.1467   23.8875 C   0  0  0  0  0  0
  -17.6454  -30.6585   24.0553 C   0  0  0  0  0  0
  -25.9045  -34.9432   23.5094 C   0  0  0  0  0  0
  -16.5344  -29.9076   23.6338 C   0  0  0  0  0  0
  -16.7267  -28.6498   23.0348 C   0  0  0  0  0  0
  -26.4487  -31.6577   25.0717 C   0  0  0  0  0  0
  -25.3705  -31.3741   26.1443 C   0  0  0  0  0  0
  -27.0349  -30.2987   24.6237 C   0  0  0  0  0  0
  -27.6037  -32.4326   25.7491 C   0  0  0  0  0  0
  -27.5586  -37.1786   24.8450 C   0  0  0  0  0  0
  -21.4208  -29.3026   22.3680 N   0  0  0  0  0  0
  -26.4278  -37.3771   23.9420 N   0  0  0  0  0  0
  -24.6953  -31.0483   22.0944 N   0  0  0  0  0  0
  -23.4208  -28.8120   23.3041 O   0  0  0  0  0  0
  -28.3505  -26.4083   20.2138 O   0  0  0  0  0  0
  -26.5635  -34.8911   22.4677 O   0  0  0  0  0  0
  -23.5454  -32.1348   23.7276 O   0  0  0  0  0  0
  -31.5724  -17.7565   20.1403 C   0  0  0  0  0  0
  -31.9389  -19.1071   19.9752 C   0  0  0  0  0  0
  -29.3080  -18.4775   20.5973 C   0  0  0  0  0  0
  -29.6624  -19.8876   20.4347 C   0  0  0  0  0  0
  -30.2467  -17.3659   20.4553 C   0  0  0  0  0  0
  -31.0113  -20.1556   20.1187 C   0  0  0  0  0  0
  -28.3627  -23.7343   20.4906 C   0  0  0  0  0  0
  -28.6598  -21.1107   20.6716 C   0  0  0  0  0  0
  -28.4594  -25.0497   19.5755 C   0  0  0  0  0  0
  -29.8924  -15.9176   20.6209 N   0  0  0  0  0  0
  -28.8601  -22.5069   20.0692 N   0  0  0  0  0  0
  -27.7885  -23.8218   21.5785 O   0  0  0  0  0  0
  -31.4436  -21.4297   19.9643 F   0  0  0  0  0  0
  -31.4696  -12.5536   19.1793 H   0  0  0  0  0  0
  -30.3494  -11.4815   19.9678 H   0  0  0  0  0  0
  -29.7974  -11.7331   17.5223 H   0  0  0  0  0  0
  -29.6394  -13.4615   17.7197 H   0  0  0  0  0  0
  -27.8910  -11.2864   18.9107 H   0  0  0  0  0  0
  -27.3798  -12.5246   17.7957 H   0  0  0  0  0  0
  -27.6279  -14.2575   19.4581 H   0  0  0  0  0  0
  -28.7169  -12.2050   21.4452 H   0  0  0  0  0  0
  -28.4203  -13.8928   21.7745 H   0  0  0  0  0  0
  -25.2780   -9.5700   22.4747 H   0  0  0  0  0  0
  -24.0031   -7.4641   22.7465 H   0  0  0  0  0  0
  -21.0855   -8.8805   19.8954 H   0  0  0  0  0  0
  -22.3737  -10.9685   19.6160 H   0  0  0  0  0  0
  -21.2047   -7.6159   23.9733 H   0  0  0  0  0  0
  -21.1451   -6.0517   25.9076 H   0  0  0  0  0  0
  -22.0614   -2.7626   23.2828 H   0  0  0  0  0  0
  -22.4095  -11.9893   22.4834 H   0  0  0  0  0  0
  -21.1079  -13.1231   22.2598 H   0  0  0  0  0  0
  -24.6517  -15.8474   20.5200 H   0  0  0  0  0  0
  -26.2600  -15.6329   20.0595 H   0  0  0  0  0  0
  -26.7190  -32.5381   23.1053 H   0  0  0  0  0  0
  -25.0038  -33.9660   25.0369 H   0  0  0  0  0  0
  -22.7226  -31.2933   21.3937 H   0  0  0  0  0  0
  -23.3755  -35.9611   23.3263 H   0  0  0  0  0  0
  -24.3587  -36.8951   22.2061 H   0  0  0  0  0  0
  -23.7226  -37.6470   23.6689 H   0  0  0  0  0  0
  -26.1101  -31.5246   20.6066 H   0  0  0  0  0  0
  -26.8482  -30.8111   22.0118 H   0  0  0  0  0  0
  -28.1096  -28.9229   21.2120 H   0  0  0  0  0  0
  -25.9439  -25.8814   19.0311 H   0  0  0  0  0  0
  -23.9739  -27.2847   19.0162 H   0  0  0  0  0  0
  -23.7646  -30.5733   19.3969 H   0  0  0  0  0  0
  -22.7632  -29.2304   19.8598 H   0  0  0  0  0  0
  -25.1288  -36.1904   25.0822 H   0  0  0  0  0  0
  -20.9959  -28.3249   24.1413 H   0  0  0  0  0  0
  -20.5685  -26.2285   23.3615 H   0  0  0  0  0  0
  -21.6641  -26.7444   22.1199 H   0  0  0  0  0  0
  -19.6906  -25.6284   21.1252 H   0  0  0  0  0  0
  -19.6683  -27.3186   20.6754 H   0  0  0  0  0  0
  -17.4202  -26.6660   21.4035 H   0  0  0  0  0  0
  -18.0324  -26.0067   22.9036 H   0  0  0  0  0  0
  -19.7934  -30.7294   24.2218 H   0  0  0  0  0  0
  -17.5006  -31.6259   24.5172 H   0  0  0  0  0  0
  -15.5343  -30.2970   23.7682 H   0  0  0  0  0  0
  -15.8667  -28.0825   22.7063 H   0  0  0  0  0  0
  -24.5859  -30.7123   25.7768 H   0  0  0  0  0  0
  -24.8933  -32.2927   26.4871 H   0  0  0  0  0  0
  -25.8013  -30.8899   27.0224 H   0  0  0  0  0  0
  -26.2957  -29.6717   24.1250 H   0  0  0  0  0  0
  -27.3993  -29.7273   25.4786 H   0  0  0  0  0  0
  -27.8843  -30.4244   23.9522 H   0  0  0  0  0  0
  -27.2631  -33.3624   26.2067 H   0  0  0  0  0  0
  -28.3850  -32.6893   25.0323 H   0  0  0  0  0  0
  -28.0710  -31.8456   26.5413 H   0  0  0  0  0  0
  -28.2558  -38.0123   24.7565 H   0  0  0  0  0  0
  -28.1121  -36.2664   24.6184 H   0  0  0  0  0  0
  -27.2316  -37.1329   25.8848 H   0  0  0  0  0  0
  -20.9400  -29.8741   21.6876 H   0  0  0  0  0  0
  -26.0151  -38.2840   24.1449 H   0  0  0  0  0  0
  -32.3654  -17.0375   20.0169 H   0  0  0  0  0  0
  -32.9677  -19.3468   19.7446 H   0  0  0  0  0  0
  -28.2816  -18.2483   20.8481 H   0  0  0  0  0  0
  -28.5953  -21.2330   21.7535 H   0  0  0  0  0  0
  -27.6723  -20.7708   20.3607 H   0  0  0  0  0  0
  -27.7833  -24.9385   18.7310 H   0  0  0  0  0  0
  -29.4511  -25.0241   19.1231 H   0  0  0  0  0  0
  -28.9233  -15.7397   20.8370 H   0  0  0  0  0  0
  -29.3616  -22.5221   19.1913 H   0  0  0  0  0  0
  1 25  1  0  0  0
  1 30  2  0  0  0
  1 80  1  0  0  0
  2  3  1  0  0  0
  2 25  1  0  0  0
  2 84  1  0  0  0
  2 85  1  0  0  0
  3  4  1  0  0  0
  3 86  1  0  0  0
  3 87  1  0  0  0
  4  5  1  0  0  0
  4 88  1  0  0  0
  4 89  1  0  0  0
  5  6  1  0  0  0
  5 26  1  0  0  0
  5 90  1  0  0  0
  6 25  1  0  0  0
  6 91  1  0  0  0
  6 92  1  0  0  0
  7  8  2  0  0  0
  7 26  1  0  0  0
  7 29  1  0  0  0
  8  9  1  0  0  0
  8 22  1  0  0  0
  9 10  1  0  0  0
  9 27  2  0  0  0
 10 11  2  0  0  0
 10 15  1  0  0  0
 11 12  1  0  0  0
 11 93  1  0  0  0
 12 13  2  0  0  0
 12 94  1  0  0  0
 13 14  1  0  0  0
 13 31  1  0  0  0
 14 15  2  0  0  0
 14 95  1  0  0  0
 15 96  1  0  0  0
 16 17  2  0  0  0
 16 21  1  0  0  0
 16 31  1  0  0  0
 17 18  1  0  0  0
 17 97  1  0  0  0
 18 19  2  0  0  0
 18 98  1  0  0  0
 19 20  1  0  0  0
 19 24  1  0  0  0
 20 21  2  0  0  0
 20 99  1  0  0  0
 21 23  1  0  0  0
 22 28  1  0  0  0
 22 32  2  0  0  0
 26 27  1  0  0  0
 28100  1  0  0  0
 28101  1  0  0  0
 29102  1  0  0  0
 29103  1  0  0  0
 33 34  1  0  0  0
 33 66  1  0  0  0
 33 70  2  0  0  0
 34 36  1  0  0  0
 34 59  1  0  0  0
 34104  1  0  0  0
 35 44  2  0  0  0
 35 45  1  0  0  0
 35 68  1  0  0  0
 36 56  1  0  0  0
 36105  1  0  0  0
 37 39  1  0  0  0
 37 47  1  0  0  0
 37 66  1  0  0  0
 37106  1  0  0  0
 38 43  2  0  0  0
 38 46  1  0  0  0
 38 47  1  0  0  0
 39 64  1  0  0  0
 39 67  2  0  0  0
 40 52  1  0  0  0
 40 53  2  0  0  0
 40 58  1  0  0  0
 41107  1  0  0  0
 41108  1  0  0  0
 41109  1  0  0  0
 41 48  1  0  0  0
 42 43  1  0  0  0
 42 66  1  0  0  0
 42110  1  0  0  0
 42111  1  0  0  0
 43 44  1  0  0  0
 44112  1  0  0  0
 45 46  2  0  0  0
 45113  1  0  0  0
 46114  1  0  0  0
 47115  1  0  0  0
 47116  1  0  0  0
 48 56  1  0  0  0
 48 65  1  0  0  0
 48117  1  0  0  0
 49 50  1  0  0  0
 49 53  1  0  0  0
 49 64  1  0  0  0
 49118  1  0  0  0
 50 51  1  0  0  0
 50119  1  0  0  0
 50120  1  0  0  0
 51 52  1  0  0  0
 51121  1  0  0  0
 51122  1  0  0  0
 52123  1  0  0  0
 52124  1  0  0  0
 53 54  1  0  0  0
 54 55  2  0  0  0
 54125  1  0  0  0
 55 57  1  0  0  0
 55126  1  0  0  0
 56 69  2  0  0  0
 57 58  2  0  0  0
 57127  1  0  0  0
 58128  1  0  0  0
 59 60  1  0  0  0
 59 61  1  0  0  0
 59 62  1  0  0  0
 60129  1  0  0  0
 60130  1  0  0  0
 60131  1  0  0  0
 61132  1  0  0  0
 61133  1  0  0  0
 61134  1  0  0  0
 62135  1  0  0  0
 62136  1  0  0  0
 62137  1  0  0  0
 63 65  1  0  0  0
 63138  1  0  0  0
 63139  1  0  0  0
 63140  1  0  0  0
 64141  1  0  0  0
 65142  1  0  0  0
 68 79  1  0  0  0
 71 72  2  0  0  0
 71 75  1  0  0  0
 71143  1  0  0  0
 72 76  1  0  0  0
 72144  1  0  0  0
 73 74  1  0  0  0
 73 75  2  0  0  0
 73145  1  0  0  0
 74 76  2  0  0  0
 74 78  1  0  0  0
 75 80  1  0  0  0
 76 83  1  0  0  0
 77 79  1  0  0  0
 77 81  1  0  0  0
 77 82  2  0  0  0
 78 81  1  0  0  0
 78146  1  0  0  0
 78147  1  0  0  0
 79148  1  0  0  0
 79149  1  0  0  0
 80150  1  0  0  0
 81151  1  0  0  0
M  ISO  4   1 100  68 101  79 101  80 100
M  END
> <chiral flag>
0

> <version>
0

> <s_m_source_file>
/data/baiqing/PycharmProjects/Reinvent-master-3.2/result/LINK_invent/BTK/process_docking_weight1_custom_product_contain_oxygen_bond_distance_aromatic_linkinvent_7_9_3/rearranged_h_0051.sdf

> <i_m_source_file_index>
88

> <r_mmod_Potential_Energy-OPLS-2005>
94.8561630249023

> <r_mmod_Stretch_Energy-OPLS-2005>
129.114517211914

> <r_mmod_Bend_Energy-OPLS-2005>
174.038467407227

> <r_mmod_Torsional_Energy-OPLS-2005>
203.060409545898

> <r_mmod_Improper_Torsional_Energy-OPLS-2005>
5.01637649536133

> <r_mmod_Van_der_Waal_Energy-OPLS-2005>
142.786148071289

> <r_mmod_Electrostatic_Energy-OPLS-2005>
-402.129547119141

> <r_mmod_Solvation_Energy-OPLS-2005>
-241.592239379883

> <b_mmod_Minimization_Converged-OPLS-2005>
0

> <r_mmod_RMS_Derivative-OPLS-2005>
2.09344601631165

$$$$
88
                    3D
 Structure written by MMmdl.
185194  0  0  1  0            999 V2000
  -30.6990  -14.4616   20.3942 C   0  0  0  0  0  0
  -30.4083  -12.2613   19.4177 C   0  0  0  0  0  0
  -29.4837  -12.4653   18.1998 C   0  0  0  0  0  0
  -28.0045  -12.3526   18.6142 C   0  0  0  0  0  0
  -27.6517  -13.1991   19.8685 C   0  0  2  0  0  0
  -28.7106  -13.0426   20.9871 C   0  0  0  0  0  0
  -25.2559  -13.8140   20.5736 C   0  0  0  0  0  0
  -24.1815  -13.0411   20.9171 C   0  0  0  0  0  0
  -24.6354  -11.6877   20.8742 C   0  0  0  0  0  0
  -23.9024  -10.4267   21.0407 C   0  0  0  0  0  0
  -24.3568   -9.4203   21.9208 C   0  0  0  0  0  0
  -23.6246   -8.2230   22.0775 C   0  0  0  0  0  0
  -22.4242   -8.0249   21.3554 C   0  0  0  0  0  0
  -21.9869   -9.0217   20.4666 C   0  0  0  0  0  0
  -22.7180  -10.2103   20.3080 C   0  0  0  0  0  0
  -21.6832   -6.0721   22.5278 C   0  0  0  0  0  0
  -21.3992   -6.5626   23.8210 C   0  0  0  0  0  0
  -21.3656   -5.6789   24.9180 C   0  0  0  0  0  0
  -21.6036   -4.3058   24.7234 C   0  0  0  0  0  0
  -21.8791   -3.8139   23.4362 C   0  0  0  0  0  0
  -21.9179   -4.6952   22.3407 C   0  0  0  0  0  0
  -22.7845  -13.5232   21.1846 C   0  0  0  0  0  0
  -22.1661   -4.2134   21.0990 F   0  0  0  0  0  0
  -21.5644   -3.4545   25.7757 F   0  0  0  0  0  0
  -30.0389  -13.2806   20.4050 N   0  0  0  0  0  0
  -26.2987  -12.9284   20.3423 N   0  0  0  0  0  0
  -25.9299  -11.6463   20.5833 N   0  0  0  0  0  0
  -22.0459  -12.8251   22.0406 N   0  0  0  0  0  0
  -25.4251  -15.1878   20.4240 N   0  0  0  0  0  0
  -31.9182  -14.5590   20.2552 O   0  0  0  0  0  0
  -21.6618   -6.8846   21.4244 O   0  0  0  0  0  0
  -22.3555  -14.5543   20.6708 O   0  0  0  0  0  0
  -24.6098  -31.8712   23.2100 C   0  0  0  0  0  0
  -25.9009  -32.4841   23.8403 C   0  0  1  0  0  0
  -27.2583  -27.4731   20.0709 C   0  0  0  0  0  0
  -25.5878  -33.8645   24.2331 N   0  0  0  0  0  0
  -23.3964  -30.4914   21.5499 C   0  0  2  0  0  0
  -24.8445  -28.9586   20.1144 C   0  0  0  0  0  0
  -22.7369  -29.4690   22.5009 C   0  0  0  0  0  0
  -18.0252  -28.1388   22.8514 C   0  0  0  0  0  0
  -24.1476  -36.7310   23.2647 C   0  0  0  0  0  0
  -25.9195  -30.8463   21.3552 C   0  0  0  0  0  0
  -25.9998  -29.4798   20.7064 C   0  0  0  0  0  0
  -27.1986  -28.7401   20.6896 C   0  0  0  0  0  0
  -26.0746  -26.9452   19.4967 C   0  0  0  0  0  0
  -24.8763  -27.6865   19.5137 C   0  0  0  0  0  0
  -23.5996  -29.8157   20.1658 C   0  0  0  0  0  0
  -25.4108  -36.3131   24.0335 C   0  0  1  0  0  0
  -20.5841  -28.3683   23.1326 C   0  0  2  0  0  0
  -20.6743  -26.9414   22.5433 C   0  0  0  0  0  0
  -19.5725  -26.6394   21.5224 C   0  0  0  0  0  0
  -18.1897  -26.7937   22.1627 C   0  0  0  0  0  0
  -19.1507  -28.8838   23.2924 C   0  0  0  0  0  0
  -18.9448  -30.1442   23.8936 C   0  0  0  0  0  0
  -17.6456  -30.6600   24.0573 C   0  0  0  0  0  0
  -25.9044  -34.9496   23.5138 C   0  0  0  0  0  0
  -16.5342  -29.9111   23.6331 C   0  0  0  0  0  0
  -16.7246  -28.6524   23.0365 C   0  0  0  0  0  0
  -26.4463  -31.6617   25.0719 C   0  0  0  0  0  0
  -25.3737  -31.3676   26.1459 C   0  0  0  0  0  0
  -27.0310  -30.3088   24.6070 C   0  0  0  0  0  0
  -27.6031  -32.4341   25.7482 C   0  0  0  0  0  0
  -27.5572  -37.1805   24.8474 C   0  0  0  0  0  0
  -21.4098  -29.3063   22.3740 N   0  0  0  0  0  0
  -26.4295  -37.3804   23.9408 N   0  0  0  0  0  0
  -24.6607  -31.0840   22.0975 N   0  0  0  0  0  0
  -23.4153  -28.8246   23.3052 O   0  0  0  0  0  0
  -28.4771  -26.8298   20.0770 O   0  0  0  0  0  0
  -26.5631  -34.8939   22.4721 O   0  0  0  0  0  0
  -23.5305  -32.1453   23.7514 O   0  0  0  0  0  0
  -32.5585  -23.0432   19.6979 C   0  0  0  0  0  0
  -33.3706  -22.1490   18.9766 C   0  0  0  0  0  0
  -28.6553  -16.5050   18.2639 C   0  0  0  0  0  0
  -31.6835  -21.1867   20.9999 C   0  0  0  0  0  0
  -31.0687  -16.4347   18.1231 C   0  0  0  0  0  0
  -28.5822  -17.0274   16.9512 C   0  0  0  0  0  0
  -31.7021  -22.5654   20.7104 C   0  0  0  0  0  0
  -33.3295  -20.7611   19.2374 C   0  0  0  0  0  0
  -32.4824  -20.2778   20.2725 C   0  0  0  0  0  0
  -31.0355  -16.9829   16.8242 C   0  0  0  0  0  0
  -29.7811  -17.2512   16.2093 C   0  0  0  0  0  0
  -29.8890  -16.1555   18.8478 C   0  0  0  0  0  0
  -27.2302  -17.3966   16.4345 C   0  0  0  0  0  0
  -33.3424  -19.2945   17.1874 C   0  0  0  0  0  0
  -29.1333  -24.5160   19.9559 C   0  0  0  0  0  0
  -32.3646  -18.8003   20.6147 C   0  0  0  0  0  0
  -29.7357  -17.7572   14.7660 C   0  0  0  0  0  0
  -33.0364  -15.9550   15.6607 C   0  0  0  0  0  0
  -34.1752  -19.8416   18.3534 C   0  0  0  0  0  0
  -30.8172  -23.5196   21.5047 C   0  0  0  0  0  0
  -26.1371  -16.3214   16.4975 C   0  0  0  0  0  0
  -28.7633  -25.7706   19.1615 C   0  0  0  0  0  0
  -32.3817  -17.2594   16.1385 C   0  0  2  0  0  0
  -29.9008  -15.5105   20.1274 N   0  0  0  0  0  0
  -30.2406  -24.5959   20.7052 N   0  0  0  0  0  0
  -33.2905  -17.9640   17.0403 N   0  0  0  0  0  0
  -26.9799  -18.5006   15.9401 O   0  0  0  0  0  0
  -32.7410  -20.0692   16.4386 O   0  0  0  0  0  0
  -28.4360  -23.5024   19.8880 O   0  0  0  0  0  0
  -24.9359  -16.8289   16.1999 F   0  0  0  0  0  0
  -31.4551  -12.3342   19.1140 H   0  0  0  0  0  0
  -30.2810  -11.2654   19.8418 H   0  0  0  0  0  0
  -29.7089  -11.7253   17.4312 H   0  0  0  0  0  0
  -29.6684  -13.4409   17.7460 H   0  0  0  0  0  0
  -27.8002  -11.3003   18.8074 H   0  0  0  0  0  0
  -27.3623  -12.6361   17.7790 H   0  0  0  0  0  0
  -27.6622  -14.2333   19.5430 H   0  0  0  0  0  0
  -28.6803  -12.0394   21.4161 H   0  0  0  0  0  0
  -28.5138  -13.7349   21.8065 H   0  0  0  0  0  0
  -25.2694   -9.5692   22.4814 H   0  0  0  0  0  0
  -23.9944   -7.4623   22.7500 H   0  0  0  0  0  0
  -21.0794   -8.8715   19.8976 H   0  0  0  0  0  0
  -22.3616  -10.9641   19.6197 H   0  0  0  0  0  0
  -21.1977   -7.6130   23.9704 H   0  0  0  0  0  0
  -21.1518   -6.0553   25.9080 H   0  0  0  0  0  0
  -22.0568   -2.7602   23.2884 H   0  0  0  0  0  0
  -22.4023  -11.9900   22.4809 H   0  0  0  0  0  0
  -21.1068  -13.1313   22.2549 H   0  0  0  0  0  0
  -24.6575  -15.8251   20.6066 H   0  0  0  0  0  0
  -26.3039  -15.6597   20.2667 H   0  0  0  0  0  0
  -26.7085  -32.5586   23.1183 H   0  0  0  0  0  0
  -24.9991  -33.9840   25.0448 H   0  0  0  0  0  0
  -22.6842  -31.3072   21.4102 H   0  0  0  0  0  0
  -23.3745  -35.9635   23.3327 H   0  0  0  0  0  0
  -24.3562  -36.8923   22.2061 H   0  0  0  0  0  0
  -23.7211  -37.6508   23.6659 H   0  0  0  0  0  0
  -26.0237  -31.6127   20.5846 H   0  0  0  0  0  0
  -26.8091  -30.9069   21.9705 H   0  0  0  0  0  0
  -28.0926  -29.1547   21.1370 H   0  0  0  0  0  0
  -26.0480  -25.9661   19.0445 H   0  0  0  0  0  0
  -23.9835  -27.2728   19.0662 H   0  0  0  0  0  0
  -23.6878  -30.5880   19.4011 H   0  0  0  0  0  0
  -22.7264  -29.2251   19.8801 H   0  0  0  0  0  0
  -25.1276  -36.2025   25.0826 H   0  0  0  0  0  0
  -20.9951  -28.3262   24.1435 H   0  0  0  0  0  0
  -20.5648  -26.2296   23.3634 H   0  0  0  0  0  0
  -21.6612  -26.7454   22.1217 H   0  0  0  0  0  0
  -19.6891  -25.6311   21.1240 H   0  0  0  0  0  0
  -19.6670  -27.3224   20.6771 H   0  0  0  0  0  0
  -17.4173  -26.6727   21.4010 H   0  0  0  0  0  0
  -18.0279  -26.0053   22.8996 H   0  0  0  0  0  0
  -19.7917  -30.7239   24.2334 H   0  0  0  0  0  0
  -17.5013  -31.6286   24.5175 H   0  0  0  0  0  0
  -15.5352  -30.3040   23.7617 H   0  0  0  0  0  0
  -15.8645  -28.0846   22.7091 H   0  0  0  0  0  0
  -24.5921  -30.7029   25.7774 H   0  0  0  0  0  0
  -24.8906  -32.2804   26.4952 H   0  0  0  0  0  0
  -25.8086  -30.8805   27.0196 H   0  0  0  0  0  0
  -26.2848  -29.6834   24.1160 H   0  0  0  0  0  0
  -27.4159  -29.7353   25.4516 H   0  0  0  0  0  0
  -27.8632  -30.4451   23.9159 H   0  0  0  0  0  0
  -27.2643  -33.3631   26.2084 H   0  0  0  0  0  0
  -28.3804  -32.6928   25.0277 H   0  0  0  0  0  0
  -28.0730  -31.8456   26.5379 H   0  0  0  0  0  0
  -28.2600  -38.0089   24.7523 H   0  0  0  0  0  0
  -28.1050  -36.2628   24.6292 H   0  0  0  0  0  0
  -27.2289  -37.1446   25.8876 H   0  0  0  0  0  0
  -20.9269  -29.8778   21.6947 H   0  0  0  0  0  0
  -26.0196  -38.2883   24.1416 H   0  0  0  0  0  0
  -32.5927  -24.0980   19.4606 H   0  0  0  0  0  0
  -34.0088  -22.5338   18.1931 H   0  0  0  0  0  0
  -27.7440  -16.3610   18.8228 H   0  0  0  0  0  0
  -31.0322  -20.8206   21.7826 H   0  0  0  0  0  0
  -32.0368  -16.2250   18.5526 H   0  0  0  0  0  0
  -32.1822  -18.6687   21.6815 H   0  0  0  0  0  0
  -33.2578  -18.2240   20.3825 H   0  0  0  0  0  0
  -31.5198  -18.3663   20.0807 H   0  0  0  0  0  0
  -28.7834  -17.5747   14.2686 H   0  0  0  0  0  0
  -30.4709  -17.2480   14.1432 H   0  0  0  0  0  0
  -29.9328  -18.8299   14.7279 H   0  0  0  0  0  0
  -32.3871  -15.4357   14.9556 H   0  0  0  0  0  0
  -33.2348  -15.2727   16.4870 H   0  0  0  0  0  0
  -33.9818  -16.1470   15.1530 H   0  0  0  0  0  0
  -34.6301  -19.0399   18.9309 H   0  0  0  0  0  0
  -35.0100  -20.4029   17.9335 H   0  0  0  0  0  0
  -31.4249  -23.9701   22.2912 H   0  0  0  0  0  0
  -30.0225  -22.9665   22.0076 H   0  0  0  0  0  0
  -26.0674  -15.8680   17.4845 H   0  0  0  0  0  0
  -26.3473  -15.5385   15.7704 H   0  0  0  0  0  0
  -27.9859  -25.5499   18.4349 H   0  0  0  0  0  0
  -29.6359  -26.0631   18.5762 H   0  0  0  0  0  0
  -32.2453  -17.8881   15.2589 H   0  0  0  0  0  0
  -28.9868  -15.3976   20.5317 H   0  0  0  0  0  0
  -30.7109  -25.4910   20.7281 H   0  0  0  0  0  0
  -33.8479  -17.3977   17.6635 H   0  0  0  0  0  0
  1 25  1  0  0  0
  1 30  2  0  0  0
  1 94  1  0  0  0
  2  3  1  0  0  0
  2 25  1  0  0  0
  2101  1  0  0  0
  2102  1  0  0  0
  3  4  1  0  0  0
  3103  1  0  0  0
  3104  1  0  0  0
  4  5  1  0  0  0
  4105  1  0  0  0
  4106  1  0  0  0
  5  6  1  0  0  0
  5 26  1  0  0  0
  5107  1  0  0  0
  6 25  1  0  0  0
  6108  1  0  0  0
  6109  1  0  0  0
  7  8  2  0  0  0
  7 26  1  0  0  0
  7 29  1  0  0  0
  8  9  1  0  0  0
  8 22  1  0  0  0
  9 10  1  0  0  0
  9 27  2  0  0  0
 10 11  2  0  0  0
 10 15  1  0  0  0
 11 12  1  0  0  0
 11110  1  0  0  0
 12 13  2  0  0  0
 12111  1  0  0  0
 13 14  1  0  0  0
 13 31  1  0  0  0
 14 15  2  0  0  0
 14112  1  0  0  0
 15113  1  0  0  0
 16 17  2  0  0  0
 16 21  1  0  0  0
 16 31  1  0  0  0
 17 18  1  0  0  0
 17114  1  0  0  0
 18 19  2  0  0  0
 18115  1  0  0  0
 19 20  1  0  0  0
 19 24  1  0  0  0
 20 21  2  0  0  0
 20116  1  0  0  0
 21 23  1  0  0  0
 22 28  1  0  0  0
 22 32  2  0  0  0
 26 27  1  0  0  0
 28117  1  0  0  0
 28118  1  0  0  0
 29119  1  0  0  0
 29120  1  0  0  0
 33 34  1  0  0  0
 33 66  1  0  0  0
 33 70  2  0  0  0
 34 36  1  0  0  0
 34 59  1  0  0  0
 34121  1  0  0  0
 35 44  2  0  0  0
 35 45  1  0  0  0
 35 68  1  0  0  0
 36 56  1  0  0  0
 36122  1  0  0  0
 37 39  1  0  0  0
 37 47  1  0  0  0
 37 66  1  0  0  0
 37123  1  0  0  0
 38 43  2  0  0  0
 38 46  1  0  0  0
 38 47  1  0  0  0
 39 64  1  0  0  0
 39 67  2  0  0  0
 40 52  1  0  0  0
 40 53  2  0  0  0
 40 58  1  0  0  0
 41124  1  0  0  0
 41125  1  0  0  0
 41126  1  0  0  0
 41 48  1  0  0  0
 42 43  1  0  0  0
 42 66  1  0  0  0
 42127  1  0  0  0
 42128  1  0  0  0
 43 44  1  0  0  0
 44129  1  0  0  0
 45 46  2  0  0  0
 45130  1  0  0  0
 46131  1  0  0  0
 47132  1  0  0  0
 47133  1  0  0  0
 48 56  1  0  0  0
 48 65  1  0  0  0
 48134  1  0  0  0
 49 50  1  0  0  0
 49 53  1  0  0  0
 49 64  1  0  0  0
 49135  1  0  0  0
 50 51  1  0  0  0
 50136  1  0  0  0
 50137  1  0  0  0
 51 52  1  0  0  0
 51138  1  0  0  0
 51139  1  0  0  0
 52140  1  0  0  0
 52141  1  0  0  0
 53 54  1  0  0  0
 54 55  2  0  0  0
 54142  1  0  0  0
 55 57  1  0  0  0
 55143  1  0  0  0
 56 69  2  0  0  0
 57 58  2  0  0  0
 57144  1  0  0  0
 58145  1  0  0  0
 59 60  1  0  0  0
 59 61  1  0  0  0
 59 62  1  0  0  0
 60146  1  0  0  0
 60147  1  0  0  0
 60148  1  0  0  0
 61149  1  0  0  0
 61150  1  0  0  0
 61151  1  0  0  0
 62152  1  0  0  0
 62153  1  0  0  0
 62154  1  0  0  0
 63 65  1  0  0  0
 63155  1  0  0  0
 63156  1  0  0  0
 63157  1  0  0  0
 64158  1  0  0  0
 65159  1  0  0  0
 68 92  1  0  0  0
 71 72  2  0  0  0
 71 77  1  0  0  0
 71160  1  0  0  0
 72 78  1  0  0  0
 72161  1  0  0  0
 73 76  2  0  0  0
 73 82  1  0  0  0
 73162  1  0  0  0
 74 77  2  0  0  0
 74 79  1  0  0  0
 74163  1  0  0  0
 75 80  1  0  0  0
 75 82  2  0  0  0
 75164  1  0  0  0
 76 81  1  0  0  0
 76 83  1  0  0  0
 77 90  1  0  0  0
 78 79  2  0  0  0
 78 89  1  0  0  0
 79 86  1  0  0  0
 80 81  2  0  0  0
 80 93  1  0  0  0
 81 87  1  0  0  0
 82 94  1  0  0  0
 83 91  1  0  0  0
 83 97  2  0  0  0
 84 89  1  0  0  0
 84 96  1  0  0  0
 84 98  2  0  0  0
 85 92  1  0  0  0
 85 95  1  0  0  0
 85 99  2  0  0  0
 86165  1  0  0  0
 86166  1  0  0  0
 86167  1  0  0  0
 87168  1  0  0  0
 87169  1  0  0  0
 87170  1  0  0  0
 88171  1  0  0  0
 88172  1  0  0  0
 88173  1  0  0  0
 88 93  1  0  0  0
 89174  1  0  0  0
 89175  1  0  0  0
 90 95  1  0  0  0
 90176  1  0  0  0
 90177  1  0  0  0
 91100  1  0  0  0
 91178  1  0  0  0
 91179  1  0  0  0
 92180  1  0  0  0
 92181  1  0  0  0
 93 96  1  0  0  0
 93182  1  0  0  0
 94183  1  0  0  0
 95184  1  0  0  0
 96185  1  0  0  0
M  ISO  4   1 100  68 101  92 101  94 100
M  END
> <chiral flag>
0

> <version>
0

> <s_m_source_file>
/data/baiqing/PycharmProjects/Reinvent-master-3.2/result/LINK_invent/BTK/process_docking_weight1_custom_product_contain_oxygen_bond_distance_aromatic_linkinvent_7_9_3/rearranged_h_0051.sdf

> <i_m_source_file_index>
89

> <r_mmod_Potential_Energy-OPLS-2005>
-87.5957489013672

> <r_mmod_Stretch_Energy-OPLS-2005>
40.028636932373

> <r_mmod_Bend_Energy-OPLS-2005>
112.077682495117

> <r_mmod_Torsional_Energy-OPLS-2005>
295.029937744141

> <r_mmod_Improper_Torsional_Energy-OPLS-2005>
15.6718940734863

> <r_mmod_Van_der_Waal_Energy-OPLS-2005>
169.493209838867

> <r_mmod_Electrostatic_Energy-OPLS-2005>
-446.871643066406

> <r_mmod_Solvation_Energy-OPLS-2005>
-299.211883544922

> <b_mmod_Minimization_Converged-OPLS-2005>
0

> <r_mmod_RMS_Derivative-OPLS-2005>
3.2995457649231

$$$$
89
                    3D
 Structure written by MMmdl.
166174  0  0  1  0            999 V2000
  -30.6746  -14.6102   20.5049 C   0  0  0  0  0  0
  -30.4159  -12.3792   19.4489 C   0  0  0  0  0  0
  -29.4964  -12.4975   18.2172 C   0  0  0  0  0  0
  -28.0191  -12.3496   18.6303 C   0  0  0  0  0  0
  -27.6441  -13.2284   19.8546 C   0  0  2  0  0  0
  -28.6872  -13.1093   20.9843 C   0  0  0  0  0  0
  -25.2517  -13.8208   20.5701 C   0  0  0  0  0  0
  -24.1800  -13.0451   20.9197 C   0  0  0  0  0  0
  -24.6389  -11.6927   20.8745 C   0  0  0  0  0  0
  -23.9069  -10.4300   21.0409 C   0  0  0  0  0  0
  -24.3621   -9.4215   21.9186 C   0  0  0  0  0  0
  -23.6296   -8.2247   22.0756 C   0  0  0  0  0  0
  -22.4280   -8.0288   21.3545 C   0  0  0  0  0  0
  -21.9916   -9.0262   20.4646 C   0  0  0  0  0  0
  -22.7243  -10.2139   20.3055 C   0  0  0  0  0  0
  -21.6855   -6.0739   22.5279 C   0  0  0  0  0  0
  -21.4013   -6.5643   23.8218 C   0  0  0  0  0  0
  -21.3658   -5.6793   24.9178 C   0  0  0  0  0  0
  -21.6044   -4.3055   24.7226 C   0  0  0  0  0  0
  -21.8818   -3.8150   23.4347 C   0  0  0  0  0  0
  -21.9194   -4.6968   22.3401 C   0  0  0  0  0  0
  -22.7822  -13.5232   21.1866 C   0  0  0  0  0  0
  -22.1661   -4.2155   21.0977 F   0  0  0  0  0  0
  -21.5631   -3.4538   25.7737 F   0  0  0  0  0  0
  -29.9988  -13.4240   20.4050 N   0  0  0  0  0  0
  -26.2946  -12.9411   20.3305 N   0  0  0  0  0  0
  -25.9320  -11.6552   20.5751 N   0  0  0  0  0  0
  -22.0467  -12.8216   22.0419 N   0  0  0  0  0  0
  -25.4222  -15.1931   20.4145 N   0  0  0  0  0  0
  -31.8564  -14.6781   20.1673 O   0  0  0  0  0  0
  -21.6642   -6.8886   21.4243 O   0  0  0  0  0  0
  -22.3505  -14.5543   20.6726 O   0  0  0  0  0  0
  -24.6229  -31.8625   23.2027 C   0  0  0  0  0  0
  -25.9081  -32.4797   23.8355 C   0  0  1  0  0  0
  -27.2221  -27.3532   20.1205 C   0  0  0  0  0  0
  -25.5918  -33.8596   24.2293 N   0  0  0  0  0  0
  -23.4151  -30.4851   21.5448 C   0  0  2  0  0  0
  -24.8609  -28.9391   20.1124 C   0  0  0  0  0  0
  -22.7460  -29.4643   22.4957 C   0  0  0  0  0  0
  -18.0280  -28.1399   22.8495 C   0  0  0  0  0  0
  -24.1477  -36.7288   23.2644 C   0  0  0  0  0  0
  -25.9512  -30.8061   21.3640 C   0  0  0  0  0  0
  -26.0268  -29.4331   20.7115 C   0  0  0  0  0  0
  -27.2151  -28.6517   20.7029 C   0  0  0  0  0  0
  -26.0399  -26.8929   19.5075 C   0  0  0  0  0  0
  -24.8663  -27.6728   19.5014 C   0  0  0  0  0  0
  -23.6266  -29.8156   20.1610 C   0  0  0  0  0  0
  -25.4104  -36.3096   24.0336 C   0  0  1  0  0  0
  -20.5877  -28.3690   23.1305 C   0  0  2  0  0  0
  -20.6776  -26.9415   22.5424 C   0  0  0  0  0  0
  -19.5744  -26.6393   21.5231 C   0  0  0  0  0  0
  -18.1919  -26.7949   22.1627 C   0  0  0  0  0  0
  -19.1534  -28.8863   23.2896 C   0  0  0  0  0  0
  -18.9459  -30.1467   23.8902 C   0  0  0  0  0  0
  -17.6459  -30.6598   24.0570 C   0  0  0  0  0  0
  -25.9041  -34.9466   23.5115 C   0  0  0  0  0  0
  -16.5348  -29.9102   23.6334 C   0  0  0  0  0  0
  -16.7268  -28.6521   23.0350 C   0  0  0  0  0  0
  -26.4476  -31.6603   25.0721 C   0  0  0  0  0  0
  -25.3706  -31.3736   26.1445 C   0  0  0  0  0  0
  -27.0321  -30.3036   24.6142 C   0  0  0  0  0  0
  -27.6059  -32.4319   25.7484 C   0  0  0  0  0  0
  -27.5573  -37.1804   24.8470 C   0  0  0  0  0  0
  -21.4177  -29.3046   22.3706 N   0  0  0  0  0  0
  -26.4283  -37.3795   23.9423 N   0  0  0  0  0  0
  -24.6819  -31.0675   22.0949 N   0  0  0  0  0  0
  -23.4200  -28.8181   23.3025 O   0  0  0  0  0  0
  -28.3439  -26.5312   20.1275 O   0  0  0  0  0  0
  -26.5614  -34.8931   22.4680 O   0  0  0  0  0  0
  -23.5401  -32.1390   23.7388 O   0  0  0  0  0  0
  -32.4994  -20.1514   19.5404 C   0  0  0  0  0  0
  -32.6978  -18.9067   18.9391 C   0  0  0  0  0  0
  -31.2498  -20.4423   20.0954 C   0  0  0  0  0  0
  -31.6974  -17.9161   18.9834 C   0  0  0  0  0  0
  -30.2098  -19.4861   20.1366 C   0  0  0  0  0  0
  -30.4851  -18.1149   19.7190 C   0  0  0  0  0  0
  -28.3811  -23.9611   19.8839 C   0  0  0  0  0  0
  -31.9720  -16.7043   18.1053 C   0  0  0  0  0  0
  -26.9593  -21.1408   19.2159 C   0  0  0  0  0  0
  -30.1377  -16.1887   22.2406 C   0  0  0  0  0  0
  -28.8608  -20.1058   20.5905 C   0  0  0  0  0  0
  -29.5403  -16.8762   19.9472 C   0  0  0  0  0  0
  -28.2047  -25.2277   20.7972 C   0  0  0  0  0  0
  -28.3829  -21.3853   19.7540 C   0  0  2  0  0  0
  -28.4066  -22.7161   20.4533 N   0  0  0  0  0  0
  -29.9740  -15.7425   20.8562 N   0  0  0  0  0  0
  -28.4696  -24.1097   18.6624 O   0  0  0  0  0  0
  -31.4608  -12.4753   19.1483 H   0  0  0  0  0  0
  -30.3271  -11.3927   19.9062 H   0  0  0  0  0  0
  -29.7551  -11.7372   17.4792 H   0  0  0  0  0  0
  -29.6500  -13.4630   17.7316 H   0  0  0  0  0  0
  -27.8475  -11.2981   18.8644 H   0  0  0  0  0  0
  -27.3672  -12.5810   17.7866 H   0  0  0  0  0  0
  -27.6558  -14.2615   19.5061 H   0  0  0  0  0  0
  -28.6920  -12.1026   21.4042 H   0  0  0  0  0  0
  -28.4392  -13.7818   21.8071 H   0  0  0  0  0  0
  -25.2766   -9.5692   22.4766 H   0  0  0  0  0  0
  -24.0009   -7.4635   22.7475 H   0  0  0  0  0  0
  -21.0852   -8.8779   19.8949 H   0  0  0  0  0  0
  -22.3707  -10.9678   19.6164 H   0  0  0  0  0  0
  -21.2000   -7.6154   23.9724 H   0  0  0  0  0  0
  -21.1482   -6.0521   25.9082 H   0  0  0  0  0  0
  -22.0597   -2.7613   23.2842 H   0  0  0  0  0  0
  -22.4071  -11.9863   22.4786 H   0  0  0  0  0  0
  -21.1093  -13.1251   22.2639 H   0  0  0  0  0  0
  -24.6598  -15.8504   20.5368 H   0  0  0  0  0  0
  -26.2831  -15.6352   20.1199 H   0  0  0  0  0  0
  -26.7153  -32.5467   23.1117 H   0  0  0  0  0  0
  -25.0128  -33.9754   25.0474 H   0  0  0  0  0  0
  -22.7067  -31.3037   21.4009 H   0  0  0  0  0  0
  -23.3760  -35.9604   23.3317 H   0  0  0  0  0  0
  -24.3574  -36.8890   22.2056 H   0  0  0  0  0  0
  -23.7195  -37.6481   23.6648 H   0  0  0  0  0  0
  -26.0720  -31.5656   20.5907 H   0  0  0  0  0  0
  -26.8378  -30.8625   21.9843 H   0  0  0  0  0  0
  -28.1142  -29.0297   21.1678 H   0  0  0  0  0  0
  -26.0241  -25.9189   19.0390 H   0  0  0  0  0  0
  -23.9716  -27.2861   19.0332 H   0  0  0  0  0  0
  -23.7398  -30.5895   19.4012 H   0  0  0  0  0  0
  -22.7485  -29.2405   19.8630 H   0  0  0  0  0  0
  -25.1277  -36.1965   25.0825 H   0  0  0  0  0  0
  -20.9960  -28.3259   24.1429 H   0  0  0  0  0  0
  -20.5699  -26.2296   23.3623 H   0  0  0  0  0  0
  -21.6639  -26.7464   22.1189 H   0  0  0  0  0  0
  -19.6903  -25.6306   21.1247 H   0  0  0  0  0  0
  -19.6690  -27.3223   20.6775 H   0  0  0  0  0  0
  -17.4200  -26.6724   21.4013 H   0  0  0  0  0  0
  -18.0281  -26.0092   22.9015 H   0  0  0  0  0  0
  -19.7931  -30.7290   24.2264 H   0  0  0  0  0  0
  -17.5011  -31.6277   24.5184 H   0  0  0  0  0  0
  -15.5350  -30.3010   23.7660 H   0  0  0  0  0  0
  -15.8663  -28.0848   22.7059 H   0  0  0  0  0  0
  -24.5929  -30.7009   25.7800 H   0  0  0  0  0  0
  -24.8818  -32.2893   26.4784 H   0  0  0  0  0  0
  -25.8029  -30.9005   27.0266 H   0  0  0  0  0  0
  -26.2883  -29.6807   24.1158 H   0  0  0  0  0  0
  -27.4048  -29.7274   25.4624 H   0  0  0  0  0  0
  -27.8733  -30.4365   23.9336 H   0  0  0  0  0  0
  -27.2707  -33.3670   26.1982 H   0  0  0  0  0  0
  -28.3908  -32.6781   25.0321 H   0  0  0  0  0  0
  -28.0664  -31.8465   26.5452 H   0  0  0  0  0  0
  -28.2600  -38.0096   24.7541 H   0  0  0  0  0  0
  -28.1056  -36.2637   24.6263 H   0  0  0  0  0  0
  -27.2302  -37.1408   25.8876 H   0  0  0  0  0  0
  -20.9352  -29.8765   21.6917 H   0  0  0  0  0  0
  -26.0169  -38.2869   24.1449 H   0  0  0  0  0  0
  -33.2708  -20.9081   19.5053 H   0  0  0  0  0  0
  -33.6239  -18.7224   18.4110 H   0  0  0  0  0  0
  -31.0773  -21.4450   20.4636 H   0  0  0  0  0  0
  -32.1572  -17.0372   17.0837 H   0  0  0  0  0  0
  -31.1566  -15.9896   18.0450 H   0  0  0  0  0  0
  -32.8732  -16.1892   18.4367 H   0  0  0  0  0  0
  -26.9119  -20.2159   18.6395 H   0  0  0  0  0  0
  -26.6293  -21.9447   18.5561 H   0  0  0  0  0  0
  -26.2366  -21.0605   20.0287 H   0  0  0  0  0  0
  -29.3948  -16.9388   22.5131 H   0  0  0  0  0  0
  -31.1262  -16.6270   22.3853 H   0  0  0  0  0  0
  -30.0310  -15.3576   22.9401 H   0  0  0  0  0  0
  -28.9406  -20.3640   21.6461 H   0  0  0  0  0  0
  -28.0923  -19.3360   20.5486 H   0  0  0  0  0  0
  -29.2672  -16.4605   18.9776 H   0  0  0  0  0  0
  -28.5892  -17.2337   20.3356 H   0  0  0  0  0  0
  -28.9709  -25.1793   21.5708 H   0  0  0  0  0  0
  -27.2507  -25.1512   21.3214 H   0  0  0  0  0  0
  -29.0243  -21.4723   18.8751 H   0  0  0  0  0  0
  -28.3537  -22.6908   21.4632 H   0  0  0  0  0  0
  1 25  1  0  0  0
  1 30  2  0  0  0
  1 86  1  0  0  0
  2  3  1  0  0  0
  2 25  1  0  0  0
  2 88  1  0  0  0
  2 89  1  0  0  0
  3  4  1  0  0  0
  3 90  1  0  0  0
  3 91  1  0  0  0
  4  5  1  0  0  0
  4 92  1  0  0  0
  4 93  1  0  0  0
  5  6  1  0  0  0
  5 26  1  0  0  0
  5 94  1  0  0  0
  6 25  1  0  0  0
  6 95  1  0  0  0
  6 96  1  0  0  0
  7  8  2  0  0  0
  7 26  1  0  0  0
  7 29  1  0  0  0
  8  9  1  0  0  0
  8 22  1  0  0  0
  9 10  1  0  0  0
  9 27  2  0  0  0
 10 11  2  0  0  0
 10 15  1  0  0  0
 11 12  1  0  0  0
 11 97  1  0  0  0
 12 13  2  0  0  0
 12 98  1  0  0  0
 13 14  1  0  0  0
 13 31  1  0  0  0
 14 15  2  0  0  0
 14 99  1  0  0  0
 15100  1  0  0  0
 16 17  2  0  0  0
 16 21  1  0  0  0
 16 31  1  0  0  0
 17 18  1  0  0  0
 17101  1  0  0  0
 18 19  2  0  0  0
 18102  1  0  0  0
 19 20  1  0  0  0
 19 24  1  0  0  0
 20 21  2  0  0  0
 20103  1  0  0  0
 21 23  1  0  0  0
 22 28  1  0  0  0
 22 32  2  0  0  0
 26 27  1  0  0  0
 28104  1  0  0  0
 28105  1  0  0  0
 29106  1  0  0  0
 29107  1  0  0  0
 33 34  1  0  0  0
 33 66  1  0  0  0
 33 70  2  0  0  0
 34 36  1  0  0  0
 34 59  1  0  0  0
 34108  1  0  0  0
 35 44  2  0  0  0
 35 45  1  0  0  0
 35 68  1  0  0  0
 36 56  1  0  0  0
 36109  1  0  0  0
 37 39  1  0  0  0
 37 47  1  0  0  0
 37 66  1  0  0  0
 37110  1  0  0  0
 38 43  2  0  0  0
 38 46  1  0  0  0
 38 47  1  0  0  0
 39 64  1  0  0  0
 39 67  2  0  0  0
 40 52  1  0  0  0
 40 53  2  0  0  0
 40 58  1  0  0  0
 41111  1  0  0  0
 41112  1  0  0  0
 41113  1  0  0  0
 41 48  1  0  0  0
 42 43  1  0  0  0
 42 66  1  0  0  0
 42114  1  0  0  0
 42115  1  0  0  0
 43 44  1  0  0  0
 44116  1  0  0  0
 45 46  2  0  0  0
 45117  1  0  0  0
 46118  1  0  0  0
 47119  1  0  0  0
 47120  1  0  0  0
 48 56  1  0  0  0
 48 65  1  0  0  0
 48121  1  0  0  0
 49 50  1  0  0  0
 49 53  1  0  0  0
 49 64  1  0  0  0
 49122  1  0  0  0
 50 51  1  0  0  0
 50123  1  0  0  0
 50124  1  0  0  0
 51 52  1  0  0  0
 51125  1  0  0  0
 51126  1  0  0  0
 52127  1  0  0  0
 52128  1  0  0  0
 53 54  1  0  0  0
 54 55  2  0  0  0
 54129  1  0  0  0
 55 57  1  0  0  0
 55130  1  0  0  0
 56 69  2  0  0  0
 57 58  2  0  0  0
 57131  1  0  0  0
 58132  1  0  0  0
 59 60  1  0  0  0
 59 61  1  0  0  0
 59 62  1  0  0  0
 60133  1  0  0  0
 60134  1  0  0  0
 60135  1  0  0  0
 61136  1  0  0  0
 61137  1  0  0  0
 61138  1  0  0  0
 62139  1  0  0  0
 62140  1  0  0  0
 62141  1  0  0  0
 63 65  1  0  0  0
 63142  1  0  0  0
 63143  1  0  0  0
 63144  1  0  0  0
 64145  1  0  0  0
 65146  1  0  0  0
 68 83  1  0  0  0
 71 72  2  0  0  0
 71 73  1  0  0  0
 71147  1  0  0  0
 72 74  1  0  0  0
 72148  1  0  0  0
 73 75  2  0  0  0
 73149  1  0  0  0
 74 76  2  0  0  0
 74 78  1  0  0  0
 75 76  1  0  0  0
 75 81  1  0  0  0
 76 82  1  0  0  0
 77 83  1  0  0  0
 77 85  1  0  0  0
 77 87  2  0  0  0
 78150  1  0  0  0
 78151  1  0  0  0
 78152  1  0  0  0
 79153  1  0  0  0
 79154  1  0  0  0
 79155  1  0  0  0
 79 84  1  0  0  0
 80 86  1  0  0  0
 80156  1  0  0  0
 80157  1  0  0  0
 80158  1  0  0  0
 81 84  1  0  0  0
 81159  1  0  0  0
 81160  1  0  0  0
 82 86  1  0  0  0
 82161  1  0  0  0
 82162  1  0  0  0
 83163  1  0  0  0
 83164  1  0  0  0
 84 85  1  0  0  0
 84165  1  0  0  0
 85166  1  0  0  0
M  ISO  4   1 100  68 101  83 101  86 100
M  END
> <chiral flag>
0

> <version>
0

> <s_m_source_file>
/data/baiqing/PycharmProjects/Reinvent-master-3.2/result/LINK_invent/BTK/process_docking_weight1_custom_product_contain_oxygen_bond_distance_aromatic_linkinvent_7_9_3/rearranged_h_0051.sdf

> <i_m_source_file_index>
90

> <r_mmod_Potential_Energy-OPLS-2005>
194.071029663086

> <r_mmod_Stretch_Energy-OPLS-2005>
82.6810073852539

> <r_mmod_Bend_Energy-OPLS-2005>
144.325668334961

> <r_mmod_Torsional_Energy-OPLS-2005>
333.206268310547

> <r_mmod_Improper_Torsional_Energy-OPLS-2005>
5.09369850158691

> <r_mmod_Van_der_Waal_Energy-OPLS-2005>
139.367568969727

> <r_mmod_Electrostatic_Energy-OPLS-2005>
-322.414581298828

> <r_mmod_Solvation_Energy-OPLS-2005>
-227.911727905273

> <b_mmod_Minimization_Converged-OPLS-2005>
0

> <r_mmod_RMS_Derivative-OPLS-2005>
1.56911671161652

$$$$
90
                    3D
 Structure written by MMmdl.
157165  0  0  1  0            999 V2000
  -30.6249  -14.7351   20.4670 C   0  0  0  0  0  0
  -30.4268  -12.4486   19.4756 C   0  0  0  0  0  0
  -29.5067  -12.5066   18.2364 C   0  0  0  0  0  0
  -28.0327  -12.3306   18.6491 C   0  0  0  0  0  0
  -27.6384  -13.2337   19.8492 C   0  0  2  0  0  0
  -28.6824  -13.1684   20.9858 C   0  0  0  0  0  0
  -25.2469  -13.8190   20.5687 C   0  0  0  0  0  0
  -24.1776  -13.0426   20.9224 C   0  0  0  0  0  0
  -24.6378  -11.6909   20.8746 C   0  0  0  0  0  0
  -23.9066  -10.4283   21.0405 C   0  0  0  0  0  0
  -24.3612   -9.4199   21.9181 C   0  0  0  0  0  0
  -23.6284   -8.2232   22.0749 C   0  0  0  0  0  0
  -22.4268   -8.0271   21.3536 C   0  0  0  0  0  0
  -21.9909   -9.0248   20.4638 C   0  0  0  0  0  0
  -22.7237  -10.2126   20.3049 C   0  0  0  0  0  0
  -21.6851   -6.0730   22.5274 C   0  0  0  0  0  0
  -21.4016   -6.5635   23.8205 C   0  0  0  0  0  0
  -21.3662   -5.6786   24.9169 C   0  0  0  0  0  0
  -21.6042   -4.3050   24.7224 C   0  0  0  0  0  0
  -21.8820   -3.8139   23.4341 C   0  0  0  0  0  0
  -21.9195   -4.6955   22.3398 C   0  0  0  0  0  0
  -22.7800  -13.5203   21.1886 C   0  0  0  0  0  0
  -22.1659   -4.2142   21.0970 F   0  0  0  0  0  0
  -21.5634   -3.4530   25.7737 F   0  0  0  0  0  0
  -29.9851  -13.5162   20.4042 N   0  0  0  0  0  0
  -26.2907  -12.9410   20.3271 N   0  0  0  0  0  0
  -25.9310  -11.6549   20.5752 N   0  0  0  0  0  0
  -22.0452  -12.8179   22.0439 N   0  0  0  0  0  0
  -25.4132  -15.1908   20.4061 N   0  0  0  0  0  0
  -31.8149  -14.7973   20.1463 O   0  0  0  0  0  0
  -21.6633   -6.8867   21.4231 O   0  0  0  0  0  0
  -22.3479  -14.5507   20.6735 O   0  0  0  0  0  0
  -24.6310  -31.8541   23.1971 C   0  0  0  0  0  0
  -25.9135  -32.4749   23.8321 C   0  0  1  0  0  0
  -27.2245  -27.2596   20.1204 C   0  0  0  0  0  0
  -25.5931  -33.8557   24.2244 N   0  0  0  0  0  0
  -23.4288  -30.4766   21.5395 C   0  0  2  0  0  0
  -24.8761  -28.9236   20.1066 C   0  0  0  0  0  0
  -22.7498  -29.4595   22.4895 C   0  0  0  0  0  0
  -18.0304  -28.1393   22.8497 C   0  0  0  0  0  0
  -24.1486  -36.7271   23.2642 C   0  0  0  0  0  0
  -25.9756  -30.7665   21.3782 C   0  0  0  0  0  0
  -26.0460  -29.3903   20.7169 C   0  0  0  0  0  0
  -27.2179  -28.5684   20.7136 C   0  0  0  0  0  0
  -26.0232  -26.8536   19.4957 C   0  0  0  0  0  0
  -24.8699  -27.6634   19.4906 C   0  0  0  0  0  0
  -23.6454  -29.8098   20.1557 C   0  0  0  0  0  0
  -25.4106  -36.3061   24.0323 C   0  0  1  0  0  0
  -20.5908  -28.3689   23.1284 C   0  0  2  0  0  0
  -20.6779  -26.9404   22.5421 C   0  0  0  0  0  0
  -19.5753  -26.6380   21.5236 C   0  0  0  0  0  0
  -18.1930  -26.7947   22.1634 C   0  0  0  0  0  0
  -19.1556  -28.8859   23.2893 C   0  0  0  0  0  0
  -18.9468  -30.1467   23.8906 C   0  0  0  0  0  0
  -17.6466  -30.6594   24.0573 C   0  0  0  0  0  0
  -25.9047  -34.9439   23.5082 C   0  0  0  0  0  0
  -16.5355  -29.9082   23.6344 C   0  0  0  0  0  0
  -16.7287  -28.6503   23.0368 C   0  0  0  0  0  0
  -26.4495  -31.6599   25.0726 C   0  0  0  0  0  0
  -25.3696  -31.3780   26.1436 C   0  0  0  0  0  0
  -27.0351  -30.3010   24.6240 C   0  0  0  0  0  0
  -27.6055  -32.4347   25.7488 C   0  0  0  0  0  0
  -27.5590  -37.1769   24.8452 C   0  0  0  0  0  0
  -21.4197  -29.3035   22.3653 N   0  0  0  0  0  0
  -26.4275  -37.3772   23.9429 N   0  0  0  0  0  0
  -24.6977  -31.0504   22.0951 N   0  0  0  0  0  0
  -23.4198  -28.8134   23.2992 O   0  0  0  0  0  0
  -28.3426  -26.3985   20.2044 O   0  0  0  0  0  0
  -26.5636  -34.8923   22.4658 O   0  0  0  0  0  0
  -23.5456  -32.1371   23.7257 O   0  0  0  0  0  0
  -31.5612  -17.7255   20.8005 C   0  0  0  0  0  0
  -31.9472  -19.0766   20.8388 C   0  0  0  0  0  0
  -29.2503  -18.4422   20.5549 C   0  0  0  0  0  0
  -29.6291  -19.8627   20.6064 C   0  0  0  0  0  0
  -30.2100  -17.3386   20.6569 C   0  0  0  0  0  0
  -31.0147  -20.1276   20.7555 C   0  0  0  0  0  0
  -28.4364  -23.7154   20.4634 C   0  0  0  0  0  0
  -27.7780  -18.0988   20.3924 C   0  0  0  0  0  0
  -29.1746  -22.3195   18.5541 C   0  0  0  0  0  0
  -28.5917  -21.0939   20.6608 C   0  0  0  0  0  0
  -28.4390  -25.0431   19.5509 C   0  0  0  0  0  0
  -29.8607  -15.8834   20.6705 N   0  0  0  0  0  0
  -28.7790  -22.4515   19.9593 N   0  0  0  0  0  0
  -28.0811  -23.8379   21.6395 O   0  0  0  0  0  0
  -31.6336  -21.7349   20.9062 Cl  0  0  0  0  0  0
  -31.4697  -12.5618   19.1732 H   0  0  0  0  0  0
  -30.3643  -11.4723   19.9592 H   0  0  0  0  0  0
  -29.7884  -11.7348   17.5188 H   0  0  0  0  0  0
  -29.6351  -13.4632   17.7270 H   0  0  0  0  0  0
  -27.8878  -11.2821   18.9126 H   0  0  0  0  0  0
  -27.3766  -12.5222   17.7994 H   0  0  0  0  0  0
  -27.6313  -14.2548   19.4665 H   0  0  0  0  0  0
  -28.7137  -12.1693   21.4241 H   0  0  0  0  0  0
  -28.4180  -13.8506   21.7956 H   0  0  0  0  0  0
  -25.2761   -9.5676   22.4753 H   0  0  0  0  0  0
  -23.9997   -7.4621   22.7464 H   0  0  0  0  0  0
  -21.0844   -8.8753   19.8938 H   0  0  0  0  0  0
  -22.3692  -10.9657   19.6150 H   0  0  0  0  0  0
  -21.2001   -7.6145   23.9709 H   0  0  0  0  0  0
  -21.1489   -6.0516   25.9071 H   0  0  0  0  0  0
  -22.0601   -2.7603   23.2840 H   0  0  0  0  0  0
  -22.4076  -11.9834   22.4810 H   0  0  0  0  0  0
  -21.1068  -13.1183   22.2651 H   0  0  0  0  0  0
  -24.6378  -15.8379   20.5010 H   0  0  0  0  0  0
  -26.2378  -15.6190   20.0091 H   0  0  0  0  0  0
  -26.7198  -32.5391   23.1059 H   0  0  0  0  0  0
  -25.0084  -33.9711   25.0391 H   0  0  0  0  0  0
  -22.7267  -31.3000   21.3896 H   0  0  0  0  0  0
  -23.3785  -35.9573   23.3252 H   0  0  0  0  0  0
  -24.3602  -36.8948   22.2080 H   0  0  0  0  0  0
  -23.7203  -37.6430   23.6699 H   0  0  0  0  0  0
  -26.1208  -31.5305   20.6127 H   0  0  0  0  0  0
  -26.8514  -30.8113   22.0139 H   0  0  0  0  0  0
  -28.1138  -28.9201   21.2051 H   0  0  0  0  0  0
  -25.9245  -25.8847   19.0336 H   0  0  0  0  0  0
  -23.9673  -27.2980   19.0212 H   0  0  0  0  0  0
  -23.7642  -30.5849   19.3980 H   0  0  0  0  0  0
  -22.7644  -29.2411   19.8521 H   0  0  0  0  0  0
  -25.1287  -36.1897   25.0815 H   0  0  0  0  0  0
  -21.0026  -28.3266   24.1397 H   0  0  0  0  0  0
  -20.5716  -26.2284   23.3616 H   0  0  0  0  0  0
  -21.6628  -26.7432   22.1185 H   0  0  0  0  0  0
  -19.6909  -25.6299   21.1255 H   0  0  0  0  0  0
  -19.6706  -27.3195   20.6778 H   0  0  0  0  0  0
  -17.4205  -26.6745   21.4020 H   0  0  0  0  0  0
  -18.0283  -26.0082   22.9011 H   0  0  0  0  0  0
  -19.7941  -30.7290   24.2261 H   0  0  0  0  0  0
  -17.5016  -31.6287   24.5155 H   0  0  0  0  0  0
  -15.5358  -30.2988   23.7676 H   0  0  0  0  0  0
  -15.8681  -28.0824   22.7083 H   0  0  0  0  0  0
  -24.5869  -30.7127   25.7757 H   0  0  0  0  0  0
  -24.8891  -32.2972   26.4808 H   0  0  0  0  0  0
  -25.7993  -30.8986   27.0242 H   0  0  0  0  0  0
  -26.2937  -29.6753   24.1250 H   0  0  0  0  0  0
  -27.4009  -29.7285   25.4778 H   0  0  0  0  0  0
  -27.8826  -30.4276   23.9498 H   0  0  0  0  0  0
  -27.2677  -33.3692   26.1979 H   0  0  0  0  0  0
  -28.3907  -32.6836   25.0334 H   0  0  0  0  0  0
  -28.0662  -31.8517   26.5473 H   0  0  0  0  0  0
  -28.2531  -38.0141   24.7589 H   0  0  0  0  0  0
  -28.1161  -36.2677   24.6138 H   0  0  0  0  0  0
  -27.2328  -37.1231   25.8855 H   0  0  0  0  0  0
  -20.9363  -29.8767   21.6872 H   0  0  0  0  0  0
  -26.0154  -38.2828   24.1499 H   0  0  0  0  0  0
  -32.3477  -16.9957   20.9098 H   0  0  0  0  0  0
  -32.9927  -19.3153   20.9684 H   0  0  0  0  0  0
  -27.2252  -18.3542   21.2968 H   0  0  0  0  0  0
  -27.6145  -17.0440   20.1810 H   0  0  0  0  0  0
  -27.3481  -18.6467   19.5547 H   0  0  0  0  0  0
  -28.4197  -22.7420   17.8892 H   0  0  0  0  0  0
  -29.3027  -21.2773   18.2621 H   0  0  0  0  0  0
  -30.1224  -22.8245   18.3645 H   0  0  0  0  0  0
  -28.4499  -21.2922   21.7238 H   0  0  0  0  0  0
  -27.6186  -20.7397   20.3274 H   0  0  0  0  0  0
  -27.7229  -24.9168   18.7427 H   0  0  0  0  0  0
  -29.4036  -25.0541   19.0440 H   0  0  0  0  0  0
  -28.8850  -15.6831   20.8225 H   0  0  0  0  0  0
  1 25  1  0  0  0
  1 30  2  0  0  0
  1 82  1  0  0  0
  2  3  1  0  0  0
  2 25  1  0  0  0
  2 86  1  0  0  0
  2 87  1  0  0  0
  3  4  1  0  0  0
  3 88  1  0  0  0
  3 89  1  0  0  0
  4  5  1  0  0  0
  4 90  1  0  0  0
  4 91  1  0  0  0
  5  6  1  0  0  0
  5 26  1  0  0  0
  5 92  1  0  0  0
  6 25  1  0  0  0
  6 93  1  0  0  0
  6 94  1  0  0  0
  7  8  2  0  0  0
  7 26  1  0  0  0
  7 29  1  0  0  0
  8  9  1  0  0  0
  8 22  1  0  0  0
  9 10  1  0  0  0
  9 27  2  0  0  0
 10 11  2  0  0  0
 10 15  1  0  0  0
 11 12  1  0  0  0
 11 95  1  0  0  0
 12 13  2  0  0  0
 12 96  1  0  0  0
 13 14  1  0  0  0
 13 31  1  0  0  0
 14 15  2  0  0  0
 14 97  1  0  0  0
 15 98  1  0  0  0
 16 17  2  0  0  0
 16 21  1  0  0  0
 16 31  1  0  0  0
 17 18  1  0  0  0
 17 99  1  0  0  0
 18 19  2  0  0  0
 18100  1  0  0  0
 19 20  1  0  0  0
 19 24  1  0  0  0
 20 21  2  0  0  0
 20101  1  0  0  0
 21 23  1  0  0  0
 22 28  1  0  0  0
 22 32  2  0  0  0
 26 27  1  0  0  0
 28102  1  0  0  0
 28103  1  0  0  0
 29104  1  0  0  0
 29105  1  0  0  0
 33 34  1  0  0  0
 33 66  1  0  0  0
 33 70  2  0  0  0
 34 36  1  0  0  0
 34 59  1  0  0  0
 34106  1  0  0  0
 35 44  2  0  0  0
 35 45  1  0  0  0
 35 68  1  0  0  0
 36 56  1  0  0  0
 36107  1  0  0  0
 37 39  1  0  0  0
 37 47  1  0  0  0
 37 66  1  0  0  0
 37108  1  0  0  0
 38 43  2  0  0  0
 38 46  1  0  0  0
 38 47  1  0  0  0
 39 64  1  0  0  0
 39 67  2  0  0  0
 40 52  1  0  0  0
 40 53  2  0  0  0
 40 58  1  0  0  0
 41109  1  0  0  0
 41110  1  0  0  0
 41111  1  0  0  0
 41 48  1  0  0  0
 42 43  1  0  0  0
 42 66  1  0  0  0
 42112  1  0  0  0
 42113  1  0  0  0
 43 44  1  0  0  0
 44114  1  0  0  0
 45 46  2  0  0  0
 45115  1  0  0  0
 46116  1  0  0  0
 47117  1  0  0  0
 47118  1  0  0  0
 48 56  1  0  0  0
 48 65  1  0  0  0
 48119  1  0  0  0
 49 50  1  0  0  0
 49 53  1  0  0  0
 49 64  1  0  0  0
 49120  1  0  0  0
 50 51  1  0  0  0
 50121  1  0  0  0
 50122  1  0  0  0
 51 52  1  0  0  0
 51123  1  0  0  0
 51124  1  0  0  0
 52125  1  0  0  0
 52126  1  0  0  0
 53 54  1  0  0  0
 54 55  2  0  0  0
 54127  1  0  0  0
 55 57  1  0  0  0
 55128  1  0  0  0
 56 69  2  0  0  0
 57 58  2  0  0  0
 57129  1  0  0  0
 58130  1  0  0  0
 59 60  1  0  0  0
 59 61  1  0  0  0
 59 62  1  0  0  0
 60131  1  0  0  0
 60132  1  0  0  0
 60133  1  0  0  0
 61134  1  0  0  0
 61135  1  0  0  0
 61136  1  0  0  0
 62137  1  0  0  0
 62138  1  0  0  0
 62139  1  0  0  0
 63 65  1  0  0  0
 63140  1  0  0  0
 63141  1  0  0  0
 63142  1  0  0  0
 64143  1  0  0  0
 65144  1  0  0  0
 68 81  1  0  0  0
 71 72  2  0  0  0
 71 75  1  0  0  0
 71145  1  0  0  0
 72 76  1  0  0  0
 72146  1  0  0  0
 73 74  1  0  0  0
 73 75  2  0  0  0
 73 78  1  0  0  0
 74 76  2  0  0  0
 74 80  1  0  0  0
 75 82  1  0  0  0
 76 85  1  0  0  0
 77 81  1  0  0  0
 77 83  1  0  0  0
 77 84  2  0  0  0
 78147  1  0  0  0
 78148  1  0  0  0
 78149  1  0  0  0
 79 83  1  0  0  0
 79150  1  0  0  0
 79151  1  0  0  0
 79152  1  0  0  0
 80 83  1  0  0  0
 80153  1  0  0  0
 80154  1  0  0  0
 81155  1  0  0  0
 81156  1  0  0  0
 82157  1  0  0  0
M  ISO  4   1 100  68 101  81 101  82 100
M  END
> <chiral flag>
0

> <version>
0

> <s_m_source_file>
/data/baiqing/PycharmProjects/Reinvent-master-3.2/result/LINK_invent/BTK/process_docking_weight1_custom_product_contain_oxygen_bond_distance_aromatic_linkinvent_7_9_3/rearranged_h_0051.sdf

> <i_m_source_file_index>
91

> <r_mmod_Potential_Energy-OPLS-2005>
176.853439331055

> <r_mmod_Stretch_Energy-OPLS-2005>
141.388870239258

> <r_mmod_Bend_Energy-OPLS-2005>
177.81657409668

> <r_mmod_Torsional_Energy-OPLS-2005>
219.951782226562

> <r_mmod_Improper_Torsional_Energy-OPLS-2005>
6.2358341217041

> <r_mmod_Van_der_Waal_Energy-OPLS-2005>
146.108322143555

> <r_mmod_Electrostatic_Energy-OPLS-2005>
-360.531005859375

> <r_mmod_Solvation_Energy-OPLS-2005>
-235.629501342773

> <b_mmod_Minimization_Converged-OPLS-2005>
0

> <r_mmod_RMS_Derivative-OPLS-2005>
2.11870551109314

$$$$
91
                    3D
 Structure written by MMmdl.
157165  0  0  1  0            999 V2000
  -30.6126  -14.7437   20.4766 C   0  0  0  0  0  0
  -30.4344  -12.4589   19.4660 C   0  0  0  0  0  0
  -29.5084  -12.5073   18.2312 C   0  0  0  0  0  0
  -28.0354  -12.3285   18.6486 C   0  0  0  0  0  0
  -27.6413  -13.2294   19.8494 C   0  0  2  0  0  0
  -28.6878  -13.1622   20.9828 C   0  0  0  0  0  0
  -25.2509  -13.8190   20.5692 C   0  0  0  0  0  0
  -24.1800  -13.0437   20.9210 C   0  0  0  0  0  0
  -24.6390  -11.6914   20.8750 C   0  0  0  0  0  0
  -23.9067  -10.4292   21.0410 C   0  0  0  0  0  0
  -24.3618   -9.4207   21.9186 C   0  0  0  0  0  0
  -23.6292   -8.2243   22.0755 C   0  0  0  0  0  0
  -22.4274   -8.0281   21.3545 C   0  0  0  0  0  0
  -21.9910   -9.0256   20.4648 C   0  0  0  0  0  0
  -22.7240  -10.2134   20.3058 C   0  0  0  0  0  0
  -21.6853   -6.0736   22.5278 C   0  0  0  0  0  0
  -21.4016   -6.5639   23.8212 C   0  0  0  0  0  0
  -21.3659   -5.6792   24.9174 C   0  0  0  0  0  0
  -21.6043   -4.3054   24.7224 C   0  0  0  0  0  0
  -21.8819   -3.8147   23.4345 C   0  0  0  0  0  0
  -21.9193   -4.6964   22.3402 C   0  0  0  0  0  0
  -22.7822  -13.5220   21.1868 C   0  0  0  0  0  0
  -22.1661   -4.2150   21.0980 F   0  0  0  0  0  0
  -21.5629   -3.4537   25.7737 F   0  0  0  0  0  0
  -29.9856  -13.5198   20.3965 N   0  0  0  0  0  0
  -26.2934  -12.9392   20.3279 N   0  0  0  0  0  0
  -25.9320  -11.6538   20.5753 N   0  0  0  0  0  0
  -22.0466  -12.8214   22.0424 N   0  0  0  0  0  0
  -25.4181  -15.1916   20.4101 N   0  0  0  0  0  0
  -31.7995  -14.8390   20.1517 O   0  0  0  0  0  0
  -21.6638   -6.8878   21.4241 O   0  0  0  0  0  0
  -22.3508  -14.5525   20.6714 O   0  0  0  0  0  0
  -24.6314  -31.8549   23.1975 C   0  0  0  0  0  0
  -25.9137  -32.4754   23.8326 C   0  0  1  0  0  0
  -27.2203  -27.2626   20.1367 C   0  0  0  0  0  0
  -25.5931  -33.8556   24.2251 N   0  0  0  0  0  0
  -23.4287  -30.4762   21.5410 C   0  0  2  0  0  0
  -24.8772  -28.9200   20.1129 C   0  0  0  0  0  0
  -22.7504  -29.4599   22.4914 C   0  0  0  0  0  0
  -18.0293  -28.1388   22.8484 C   0  0  0  0  0  0
  -24.1490  -36.7282   23.2641 C   0  0  0  0  0  0
  -25.9742  -30.7687   21.3767 C   0  0  0  0  0  0
  -26.0490  -29.3901   20.7210 C   0  0  0  0  0  0
  -27.2272  -28.5754   20.7177 C   0  0  0  0  0  0
  -26.0297  -26.8590   19.4978 C   0  0  0  0  0  0
  -24.8723  -27.6624   19.4891 C   0  0  0  0  0  0
  -23.6478  -29.8075   20.1583 C   0  0  0  0  0  0
  -25.4117  -36.3070   24.0325 C   0  0  1  0  0  0
  -20.5897  -28.3699   23.1270 C   0  0  2  0  0  0
  -20.6782  -26.9416   22.5409 C   0  0  0  0  0  0
  -19.5756  -26.6384   21.5213 C   0  0  0  0  0  0
  -18.1936  -26.7929   22.1625 C   0  0  0  0  0  0
  -19.1546  -28.8860   23.2871 C   0  0  0  0  0  0
  -18.9467  -30.1461   23.8891 C   0  0  0  0  0  0
  -17.6466  -30.6588   24.0562 C   0  0  0  0  0  0
  -25.9056  -34.9440   23.5092 C   0  0  0  0  0  0
  -16.5357  -29.9085   23.6332 C   0  0  0  0  0  0
  -16.7279  -28.6503   23.0353 C   0  0  0  0  0  0
  -26.4503  -31.6581   25.0717 C   0  0  0  0  0  0
  -25.3721  -31.3734   26.1434 C   0  0  0  0  0  0
  -27.0354  -30.2998   24.6208 C   0  0  0  0  0  0
  -27.6051  -32.4327   25.7495 C   0  0  0  0  0  0
  -27.5578  -37.1800   24.8467 C   0  0  0  0  0  0
  -21.4211  -29.3044   22.3657 N   0  0  0  0  0  0
  -26.4293  -37.3767   23.9406 N   0  0  0  0  0  0
  -24.6972  -31.0513   22.0949 N   0  0  0  0  0  0
  -23.4202  -28.8144   23.3018 O   0  0  0  0  0  0
  -28.3053  -26.3593   20.1545 O   0  0  0  0  0  0
  -26.5632  -34.8916   22.4663 O   0  0  0  0  0  0
  -23.5463  -32.1370   23.7269 O   0  0  0  0  0  0
  -29.4693  -18.4370   20.3548 C   0  0  0  0  0  0
  -31.4546  -18.9903   22.1992 C   0  0  0  0  0  0
  -29.7527  -19.8414   20.6471 C   0  0  0  0  0  0
  -31.1471  -17.6381   21.9292 C   0  0  0  0  0  0
  -30.1686  -17.3015   20.9524 C   0  0  0  0  0  0
  -30.7997  -20.0683   21.5720 C   0  0  0  0  0  0
  -28.7367  -23.6964   20.0236 C   0  0  0  0  0  0
  -31.8760  -16.5900   22.7580 C   0  0  0  0  0  0
  -27.9791  -22.2267   21.8616 C   0  0  0  0  0  0
  -29.0549  -21.0811   19.9028 C   0  0  0  0  0  0
  -28.0649  -24.9828   20.7234 C   0  0  0  0  0  0
  -29.8275  -15.8745   20.6861 N   0  0  0  0  0  0
  -28.6581  -22.4094   20.5768 N   0  0  0  0  0  0
  -29.3034  -23.8742   18.9410 O   0  0  0  0  0  0
  -31.3529  -21.6612   21.9535 Cl  0  0  0  0  0  0
  -31.4739  -12.5885   19.1602 H   0  0  0  0  0  0
  -30.3847  -11.4822   19.9502 H   0  0  0  0  0  0
  -29.7905  -11.7335   17.5160 H   0  0  0  0  0  0
  -29.6314  -13.4611   17.7152 H   0  0  0  0  0  0
  -27.8953  -11.2799   18.9140 H   0  0  0  0  0  0
  -27.3757  -12.5172   17.8009 H   0  0  0  0  0  0
  -27.6348  -14.2502   19.4672 H   0  0  0  0  0  0
  -28.7266  -12.1629   21.4188 H   0  0  0  0  0  0
  -28.4231  -13.8400   21.7962 H   0  0  0  0  0  0
  -25.2764   -9.5683   22.4761 H   0  0  0  0  0  0
  -24.0003   -7.4631   22.7473 H   0  0  0  0  0  0
  -21.0842   -8.8774   19.8951 H   0  0  0  0  0  0
  -22.3698  -10.9673   19.6167 H   0  0  0  0  0  0
  -21.2009   -7.6147   23.9716 H   0  0  0  0  0  0
  -21.1481   -6.0522   25.9076 H   0  0  0  0  0  0
  -22.0598   -2.7609   23.2844 H   0  0  0  0  0  0
  -22.4086  -11.9880   22.4819 H   0  0  0  0  0  0
  -21.1083  -13.1239   22.2627 H   0  0  0  0  0  0
  -24.6457  -15.8399   20.5187 H   0  0  0  0  0  0
  -26.2564  -15.6347   20.0579 H   0  0  0  0  0  0
  -26.7205  -32.5406   23.1069 H   0  0  0  0  0  0
  -25.0071  -33.9692   25.0392 H   0  0  0  0  0  0
  -22.7253  -31.2983   21.3934 H   0  0  0  0  0  0
  -23.3751  -35.9616   23.3308 H   0  0  0  0  0  0
  -24.3576  -36.8902   22.2054 H   0  0  0  0  0  0
  -23.7247  -37.6486   23.6664 H   0  0  0  0  0  0
  -26.1122  -31.5287   20.6063 H   0  0  0  0  0  0
  -26.8517  -30.8192   22.0098 H   0  0  0  0  0  0
  -28.1265  -28.9313   21.2004 H   0  0  0  0  0  0
  -25.9852  -25.8946   19.0116 H   0  0  0  0  0  0
  -23.9767  -27.2985   19.0046 H   0  0  0  0  0  0
  -23.7728  -30.5823   19.4011 H   0  0  0  0  0  0
  -22.7662  -29.2405   19.8537 H   0  0  0  0  0  0
  -25.1301  -36.1915   25.0818 H   0  0  0  0  0  0
  -20.9989  -28.3279   24.1391 H   0  0  0  0  0  0
  -20.5683  -26.2309   23.3615 H   0  0  0  0  0  0
  -21.6650  -26.7441   22.1202 H   0  0  0  0  0  0
  -19.6918  -25.6292   21.1249 H   0  0  0  0  0  0
  -19.6693  -27.3190   20.6739 H   0  0  0  0  0  0
  -17.4205  -26.6675   21.4028 H   0  0  0  0  0  0
  -18.0337  -26.0074   22.9024 H   0  0  0  0  0  0
  -19.7943  -30.7278   24.2260 H   0  0  0  0  0  0
  -17.5019  -31.6269   24.5163 H   0  0  0  0  0  0
  -15.5357  -30.2985   23.7658 H   0  0  0  0  0  0
  -15.8680  -28.0819   22.7073 H   0  0  0  0  0  0
  -24.5897  -30.7084   25.7759 H   0  0  0  0  0  0
  -24.8911  -32.2905   26.4845 H   0  0  0  0  0  0
  -25.8031  -30.8919   27.0220 H   0  0  0  0  0  0
  -26.2941  -29.6740   24.1224 H   0  0  0  0  0  0
  -27.4026  -29.7267   25.4732 H   0  0  0  0  0  0
  -27.8821  -30.4273   23.9460 H   0  0  0  0  0  0
  -27.2653  -33.3632   26.2056 H   0  0  0  0  0  0
  -28.3869  -32.6882   25.0329 H   0  0  0  0  0  0
  -28.0711  -31.8464   26.5424 H   0  0  0  0  0  0
  -28.2601  -38.0090   24.7502 H   0  0  0  0  0  0
  -28.1068  -36.2620   24.6309 H   0  0  0  0  0  0
  -27.2293  -37.1468   25.8870 H   0  0  0  0  0  0
  -20.9400  -29.8759   21.6853 H   0  0  0  0  0  0
  -26.0171  -38.2843   24.1397 H   0  0  0  0  0  0
  -28.6959  -18.2267   19.6298 H   0  0  0  0  0  0
  -32.2256  -19.2201   22.9207 H   0  0  0  0  0  0
  -32.2793  -17.0231   23.6737 H   0  0  0  0  0  0
  -32.7128  -16.1698   22.2007 H   0  0  0  0  0  0
  -31.2083  -15.7837   23.0609 H   0  0  0  0  0  0
  -26.9561  -22.6027   21.8235 H   0  0  0  0  0  0
  -28.5099  -22.7508   22.6573 H   0  0  0  0  0  0
  -27.9183  -21.1773   22.1501 H   0  0  0  0  0  0
  -28.1472  -20.6976   19.4360 H   0  0  0  0  0  0
  -29.7140  -21.3206   19.0677 H   0  0  0  0  0  0
  -28.4247  -25.0154   21.7516 H   0  0  0  0  0  0
  -26.9967  -24.7819   20.8003 H   0  0  0  0  0  0
  -28.8394  -15.6754   20.6803 H   0  0  0  0  0  0
  1 25  1  0  0  0
  1 30  2  0  0  0
  1 82  1  0  0  0
  2  3  1  0  0  0
  2 25  1  0  0  0
  2 86  1  0  0  0
  2 87  1  0  0  0
  3  4  1  0  0  0
  3 88  1  0  0  0
  3 89  1  0  0  0
  4  5  1  0  0  0
  4 90  1  0  0  0
  4 91  1  0  0  0
  5  6  1  0  0  0
  5 26  1  0  0  0
  5 92  1  0  0  0
  6 25  1  0  0  0
  6 93  1  0  0  0
  6 94  1  0  0  0
  7  8  2  0  0  0
  7 26  1  0  0  0
  7 29  1  0  0  0
  8  9  1  0  0  0
  8 22  1  0  0  0
  9 10  1  0  0  0
  9 27  2  0  0  0
 10 11  2  0  0  0
 10 15  1  0  0  0
 11 12  1  0  0  0
 11 95  1  0  0  0
 12 13  2  0  0  0
 12 96  1  0  0  0
 13 14  1  0  0  0
 13 31  1  0  0  0
 14 15  2  0  0  0
 14 97  1  0  0  0
 15 98  1  0  0  0
 16 17  2  0  0  0
 16 21  1  0  0  0
 16 31  1  0  0  0
 17 18  1  0  0  0
 17 99  1  0  0  0
 18 19  2  0  0  0
 18100  1  0  0  0
 19 20  1  0  0  0
 19 24  1  0  0  0
 20 21  2  0  0  0
 20101  1  0  0  0
 21 23  1  0  0  0
 22 28  1  0  0  0
 22 32  2  0  0  0
 26 27  1  0  0  0
 28102  1  0  0  0
 28103  1  0  0  0
 29104  1  0  0  0
 29105  1  0  0  0
 33 34  1  0  0  0
 33 66  1  0  0  0
 33 70  2  0  0  0
 34 36  1  0  0  0
 34 59  1  0  0  0
 34106  1  0  0  0
 35 44  2  0  0  0
 35 45  1  0  0  0
 35 68  1  0  0  0
 36 56  1  0  0  0
 36107  1  0  0  0
 37 39  1  0  0  0
 37 47  1  0  0  0
 37 66  1  0  0  0
 37108  1  0  0  0
 38 43  2  0  0  0
 38 46  1  0  0  0
 38 47  1  0  0  0
 39 64  1  0  0  0
 39 67  2  0  0  0
 40 52  1  0  0  0
 40 53  2  0  0  0
 40 58  1  0  0  0
 41109  1  0  0  0
 41110  1  0  0  0
 41111  1  0  0  0
 41 48  1  0  0  0
 42 43  1  0  0  0
 42 66  1  0  0  0
 42112  1  0  0  0
 42113  1  0  0  0
 43 44  1  0  0  0
 44114  1  0  0  0
 45 46  2  0  0  0
 45115  1  0  0  0
 46116  1  0  0  0
 47117  1  0  0  0
 47118  1  0  0  0
 48 56  1  0  0  0
 48 65  1  0  0  0
 48119  1  0  0  0
 49 50  1  0  0  0
 49 53  1  0  0  0
 49 64  1  0  0  0
 49120  1  0  0  0
 50 51  1  0  0  0
 50121  1  0  0  0
 50122  1  0  0  0
 51 52  1  0  0  0
 51123  1  0  0  0
 51124  1  0  0  0
 52125  1  0  0  0
 52126  1  0  0  0
 53 54  1  0  0  0
 54 55  2  0  0  0
 54127  1  0  0  0
 55 57  1  0  0  0
 55128  1  0  0  0
 56 69  2  0  0  0
 57 58  2  0  0  0
 57129  1  0  0  0
 58130  1  0  0  0
 59 60  1  0  0  0
 59 61  1  0  0  0
 59 62  1  0  0  0
 60131  1  0  0  0
 60132  1  0  0  0
 60133  1  0  0  0
 61134  1  0  0  0
 61135  1  0  0  0
 61136  1  0  0  0
 62137  1  0  0  0
 62138  1  0  0  0
 62139  1  0  0  0
 63 65  1  0  0  0
 63140  1  0  0  0
 63141  1  0  0  0
 63142  1  0  0  0
 64143  1  0  0  0
 65144  1  0  0  0
 68 81  1  0  0  0
 71 73  2  0  0  0
 71 75  1  0  0  0
 71145  1  0  0  0
 72 74  1  0  0  0
 72 76  2  0  0  0
 72146  1  0  0  0
 73 76  1  0  0  0
 73 80  1  0  0  0
 74 75  2  0  0  0
 74 78  1  0  0  0
 75 82  1  0  0  0
 76 85  1  0  0  0
 77 81  1  0  0  0
 77 83  1  0  0  0
 77 84  2  0  0  0
 78147  1  0  0  0
 78148  1  0  0  0
 78149  1  0  0  0
 79 83  1  0  0  0
 79150  1  0  0  0
 79151  1  0  0  0
 79152  1  0  0  0
 80 83  1  0  0  0
 80153  1  0  0  0
 80154  1  0  0  0
 81155  1  0  0  0
 81156  1  0  0  0
 82157  1  0  0  0
M  ISO  4   1 100  68 101  81 101  82 100
M  END
> <chiral flag>
0

> <version>
0

> <s_m_source_file>
/data/baiqing/PycharmProjects/Reinvent-master-3.2/result/LINK_invent/BTK/process_docking_weight1_custom_product_contain_oxygen_bond_distance_aromatic_linkinvent_7_9_3/rearranged_h_0051.sdf

> <i_m_source_file_index>
92

> <r_mmod_Potential_Energy-OPLS-2005>
192.104934692383

> <r_mmod_Stretch_Energy-OPLS-2005>
135.05322265625

> <r_mmod_Bend_Energy-OPLS-2005>
161.56689453125

> <r_mmod_Torsional_Energy-OPLS-2005>
256.619079589844

> <r_mmod_Improper_Torsional_Energy-OPLS-2005>
6.44150829315186

> <r_mmod_Van_der_Waal_Energy-OPLS-2005>
142.446960449219

> <r_mmod_Electrostatic_Energy-OPLS-2005>
-360.552642822266

> <r_mmod_Solvation_Energy-OPLS-2005>
-233.981643676758

> <b_mmod_Minimization_Converged-OPLS-2005>
0

> <r_mmod_RMS_Derivative-OPLS-2005>
0.269659757614136

$$$$
92
                    3D
 Structure written by MMmdl.
160168  0  0  1  0            999 V2000
  -30.7079  -14.5592   20.5043 C   0  0  0  0  0  0
  -30.4155  -12.3454   19.4367 C   0  0  0  0  0  0
  -29.4985  -12.4959   18.2085 C   0  0  0  0  0  0
  -28.0180  -12.3620   18.6143 C   0  0  0  0  0  0
  -27.6515  -13.2232   19.8534 C   0  0  2  0  0  0
  -28.6995  -13.0916   20.9824 C   0  0  0  0  0  0
  -25.2560  -13.8179   20.5679 C   0  0  0  0  0  0
  -24.1821  -13.0433   20.9175 C   0  0  0  0  0  0
  -24.6403  -11.6910   20.8721 C   0  0  0  0  0  0
  -23.9069  -10.4284   21.0397 C   0  0  0  0  0  0
  -24.3627   -9.4208   21.9174 C   0  0  0  0  0  0
  -23.6303   -8.2253   22.0764 C   0  0  0  0  0  0
  -22.4294   -8.0291   21.3557 C   0  0  0  0  0  0
  -21.9914   -9.0265   20.4668 C   0  0  0  0  0  0
  -22.7239  -10.2141   20.3053 C   0  0  0  0  0  0
  -21.6855   -6.0744   22.5278 C   0  0  0  0  0  0
  -21.4015   -6.5647   23.8218 C   0  0  0  0  0  0
  -21.3649   -5.6799   24.9179 C   0  0  0  0  0  0
  -21.6051   -4.3058   24.7233 C   0  0  0  0  0  0
  -21.8814   -3.8158   23.4340 C   0  0  0  0  0  0
  -21.9201   -4.6976   22.3395 C   0  0  0  0  0  0
  -22.7851  -13.5259   21.1830 C   0  0  0  0  0  0
  -22.1673   -4.2156   21.0987 F   0  0  0  0  0  0
  -21.5623   -3.4541   25.7743 F   0  0  0  0  0  0
  -30.0215  -13.3826   20.4066 N   0  0  0  0  0  0
  -26.2991  -12.9367   20.3289 N   0  0  0  0  0  0
  -25.9332  -11.6507   20.5710 N   0  0  0  0  0  0
  -22.0483  -12.8259   22.0380 N   0  0  0  0  0  0
  -25.4246  -15.1893   20.4099 N   0  0  0  0  0  0
  -31.8701  -14.6474   20.1048 O   0  0  0  0  0  0
  -21.6655   -6.8891   21.4253 O   0  0  0  0  0  0
  -22.3538  -14.5566   20.6695 O   0  0  0  0  0  0
  -24.6199  -31.8605   23.2048 C   0  0  0  0  0  0
  -25.9082  -32.4750   23.8345 C   0  0  1  0  0  0
  -27.2330  -27.3732   20.1187 C   0  0  0  0  0  0
  -25.5944  -33.8562   24.2260 N   0  0  0  0  0  0
  -23.4080  -30.4838   21.5467 C   0  0  2  0  0  0
  -24.8527  -28.9348   20.1137 C   0  0  0  0  0  0
  -22.7415  -29.4653   22.4994 C   0  0  0  0  0  0
  -18.0271  -28.1381   22.8505 C   0  0  0  0  0  0
  -24.1488  -36.7256   23.2640 C   0  0  0  0  0  0
  -25.9432  -30.8008   21.3755 C   0  0  0  0  0  0
  -26.0148  -29.4381   20.7109 C   0  0  0  0  0  0
  -27.2005  -28.6631   20.7077 C   0  0  0  0  0  0
  -26.0497  -26.8972   19.5050 C   0  0  0  0  0  0
  -24.8673  -27.6661   19.5091 C   0  0  0  0  0  0
  -23.6172  -29.8083   20.1639 C   0  0  0  0  0  0
  -25.4113  -36.3053   24.0326 C   0  0  1  0  0  0
  -20.5865  -28.3676   23.1324 C   0  0  2  0  0  0
  -20.6777  -26.9412   22.5414 C   0  0  0  0  0  0
  -19.5765  -26.6395   21.5220 C   0  0  0  0  0  0
  -18.1937  -26.7940   22.1622 C   0  0  0  0  0  0
  -19.1523  -28.8848   23.2907 C   0  0  0  0  0  0
  -18.9446  -30.1474   23.8892 C   0  0  0  0  0  0
  -17.6456  -30.6583   24.0584 C   0  0  0  0  0  0
  -25.9047  -34.9434   23.5080 C   0  0  0  0  0  0
  -16.5341  -29.9071   23.6371 C   0  0  0  0  0  0
  -16.7269  -28.6497   23.0375 C   0  0  0  0  0  0
  -26.4518  -31.6583   25.0706 C   0  0  0  0  0  0
  -25.3804  -31.3736   26.1475 C   0  0  0  0  0  0
  -27.0392  -30.3001   24.6181 C   0  0  0  0  0  0
  -27.6033  -32.4389   25.7476 C   0  0  0  0  0  0
  -27.5575  -37.1770   24.8470 C   0  0  0  0  0  0
  -21.4139  -29.3028   22.3702 N   0  0  0  0  0  0
  -26.4273  -37.3756   23.9417 N   0  0  0  0  0  0
  -24.6735  -31.0668   22.0976 N   0  0  0  0  0  0
  -23.4138  -28.8220   23.3082 O   0  0  0  0  0  0
  -28.4014  -26.6188   20.2059 O   0  0  0  0  0  0
  -26.5608  -34.8913   22.4624 O   0  0  0  0  0  0
  -23.5393  -32.1405   23.7421 O   0  0  0  0  0  0
  -29.4974  -18.1160   21.0848 C   0  0  0  0  0  0
  -31.7972  -17.3755   21.2251 C   0  0  0  0  0  0
  -29.8852  -19.4691   21.3355 C   0  0  0  0  0  0
  -32.2160  -18.7011   21.4802 C   0  0  0  0  0  0
  -31.2591  -19.7467   21.5765 C   0  0  0  0  0  0
  -30.4354  -17.0413   21.0321 C   0  0  0  0  0  0
  -28.6430  -23.0700   21.0592 C   0  0  0  0  0  0
  -31.7025  -21.1527   21.9692 C   0  0  0  0  0  0
  -28.7974  -20.5748   21.4463 C   0  0  0  0  0  0
  -33.7061  -18.9898   21.6285 C   0  0  0  0  0  0
  -27.8646  -24.0407   20.1164 C   0  0  0  0  0  0
  -28.5527  -25.3318   19.5441 C   0  0  0  0  0  0
  -29.9890  -15.6707   20.8387 N   0  0  0  0  0  0
  -28.9074  -21.8078   20.6250 N   0  0  0  0  0  0
  -28.8644  -23.4098   22.2246 O   0  0  0  0  0  0
  -34.4716  -17.8991   21.5272 F   0  0  0  0  0  0
  -31.4611  -12.4195   19.1340 H   0  0  0  0  0  0
  -30.3044  -11.3547   19.8797 H   0  0  0  0  0  0
  -29.7492  -11.7503   17.4528 H   0  0  0  0  0  0
  -29.6638  -13.4671   17.7420 H   0  0  0  0  0  0
  -27.8270  -11.3099   18.8238 H   0  0  0  0  0  0
  -27.3742  -12.6290   17.7741 H   0  0  0  0  0  0
  -27.6696  -14.2586   19.5171 H   0  0  0  0  0  0
  -28.6922  -12.0856   21.4064 H   0  0  0  0  0  0
  -28.4650  -13.7693   21.8067 H   0  0  0  0  0  0
  -25.2775   -9.5707   22.4742 H   0  0  0  0  0  0
  -24.0020   -7.4652   22.7477 H   0  0  0  0  0  0
  -21.0843   -8.8796   19.8971 H   0  0  0  0  0  0
  -22.3700  -10.9691   19.6173 H   0  0  0  0  0  0
  -21.2015   -7.6143   23.9730 H   0  0  0  0  0  0
  -21.1466   -6.0521   25.9088 H   0  0  0  0  0  0
  -22.0601   -2.7612   23.2850 H   0  0  0  0  0  0
  -22.4092  -11.9937   22.4772 H   0  0  0  0  0  0
  -21.1099  -13.1297   22.2564 H   0  0  0  0  0  0
  -24.6556  -15.8407   20.5267 H   0  0  0  0  0  0
  -26.2601  -15.6298   20.0486 H   0  0  0  0  0  0
  -26.7135  -32.5407   23.1081 H   0  0  0  0  0  0
  -25.0181  -33.9707   25.0474 H   0  0  0  0  0  0
  -22.7001  -31.3026   21.4040 H   0  0  0  0  0  0
  -23.3749  -35.9593   23.3325 H   0  0  0  0  0  0
  -24.3579  -36.8839   22.2050 H   0  0  0  0  0  0
  -23.7246  -37.6454   23.6657 H   0  0  0  0  0  0
  -26.0947  -31.5716   20.6195 H   0  0  0  0  0  0
  -26.8138  -30.8220   22.0193 H   0  0  0  0  0  0
  -28.0902  -29.0442   21.1882 H   0  0  0  0  0  0
  -26.0099  -25.9185   19.0507 H   0  0  0  0  0  0
  -23.9701  -27.2622   19.0592 H   0  0  0  0  0  0
  -23.7270  -30.5786   19.4002 H   0  0  0  0  0  0
  -22.7368  -29.2317   19.8719 H   0  0  0  0  0  0
  -25.1313  -36.1887   25.0823 H   0  0  0  0  0  0
  -20.9982  -28.3245   24.1447 H   0  0  0  0  0  0
  -20.5733  -26.2260   23.3576 H   0  0  0  0  0  0
  -21.6639  -26.7486   22.1191 H   0  0  0  0  0  0
  -19.6915  -25.6314   21.1229 H   0  0  0  0  0  0
  -19.6720  -27.3220   20.6772 H   0  0  0  0  0  0
  -17.4216  -26.6732   21.4000 H   0  0  0  0  0  0
  -18.0321  -26.0041   22.8985 H   0  0  0  0  0  0
  -19.7919  -30.7323   24.2199 H   0  0  0  0  0  0
  -17.4996  -31.6273   24.5181 H   0  0  0  0  0  0
  -15.5341  -30.2978   23.7695 H   0  0  0  0  0  0
  -15.8670  -28.0829   22.7085 H   0  0  0  0  0  0
  -24.5915  -30.7132   25.7850 H   0  0  0  0  0  0
  -24.9096  -32.2928   26.4981 H   0  0  0  0  0  0
  -25.8195  -30.8865   27.0190 H   0  0  0  0  0  0
  -26.2952  -29.6674   24.1304 H   0  0  0  0  0  0
  -27.4182  -29.7338   25.4705 H   0  0  0  0  0  0
  -27.8810  -30.4273   23.9353 H   0  0  0  0  0  0
  -27.2537  -33.3650   26.2067 H   0  0  0  0  0  0
  -28.3824  -32.7024   25.0305 H   0  0  0  0  0  0
  -28.0735  -31.8536   26.5386 H   0  0  0  0  0  0
  -28.2601  -38.0063   24.7509 H   0  0  0  0  0  0
  -28.1058  -36.2581   24.6321 H   0  0  0  0  0  0
  -27.2285  -37.1459   25.8871 H   0  0  0  0  0  0
  -20.9281  -29.8656   21.6860 H   0  0  0  0  0  0
  -26.0149  -38.2813   24.1441 H   0  0  0  0  0  0
  -28.4482  -17.8915   20.9521 H   0  0  0  0  0  0
  -32.5579  -16.6085   21.1998 H   0  0  0  0  0  0
  -30.9487  -21.6364   22.5868 H   0  0  0  0  0  0
  -31.8786  -21.7611   21.0830 H   0  0  0  0  0  0
  -32.6109  -21.1700   22.5693 H   0  0  0  0  0  0
  -28.6834  -20.8336   22.4980 H   0  0  0  0  0  0
  -27.8403  -20.1414   21.1657 H   0  0  0  0  0  0
  -33.9296  -19.4422   22.5936 H   0  0  0  0  0  0
  -34.0201  -19.6734   20.8399 H   0  0  0  0  0  0
  -26.9304  -24.3144   20.6063 H   0  0  0  0  0  0
  -27.5572  -23.4394   19.2613 H   0  0  0  0  0  0
  -28.2381  -25.4477   18.5060 H   0  0  0  0  0  0
  -29.6251  -25.1395   19.4767 H   0  0  0  0  0  0
  -28.9982  -15.5142   20.9336 H   0  0  0  0  0  0
  -28.8431  -21.6564   19.6291 H   0  0  0  0  0  0
  1 25  1  0  0  0
  1 30  2  0  0  0
  1 83  1  0  0  0
  2  3  1  0  0  0
  2 25  1  0  0  0
  2 87  1  0  0  0
  2 88  1  0  0  0
  3  4  1  0  0  0
  3 89  1  0  0  0
  3 90  1  0  0  0
  4  5  1  0  0  0
  4 91  1  0  0  0
  4 92  1  0  0  0
  5  6  1  0  0  0
  5 26  1  0  0  0
  5 93  1  0  0  0
  6 25  1  0  0  0
  6 94  1  0  0  0
  6 95  1  0  0  0
  7  8  2  0  0  0
  7 26  1  0  0  0
  7 29  1  0  0  0
  8  9  1  0  0  0
  8 22  1  0  0  0
  9 10  1  0  0  0
  9 27  2  0  0  0
 10 11  2  0  0  0
 10 15  1  0  0  0
 11 12  1  0  0  0
 11 96  1  0  0  0
 12 13  2  0  0  0
 12 97  1  0  0  0
 13 14  1  0  0  0
 13 31  1  0  0  0
 14 15  2  0  0  0
 14 98  1  0  0  0
 15 99  1  0  0  0
 16 17  2  0  0  0
 16 21  1  0  0  0
 16 31  1  0  0  0
 17 18  1  0  0  0
 17100  1  0  0  0
 18 19  2  0  0  0
 18101  1  0  0  0
 19 20  1  0  0  0
 19 24  1  0  0  0
 20 21  2  0  0  0
 20102  1  0  0  0
 21 23  1  0  0  0
 22 28  1  0  0  0
 22 32  2  0  0  0
 26 27  1  0  0  0
 28103  1  0  0  0
 28104  1  0  0  0
 29105  1  0  0  0
 29106  1  0  0  0
 33 34  1  0  0  0
 33 66  1  0  0  0
 33 70  2  0  0  0
 34 36  1  0  0  0
 34 59  1  0  0  0
 34107  1  0  0  0
 35 44  2  0  0  0
 35 45  1  0  0  0
 35 68  1  0  0  0
 36 56  1  0  0  0
 36108  1  0  0  0
 37 39  1  0  0  0
 37 47  1  0  0  0
 37 66  1  0  0  0
 37109  1  0  0  0
 38 43  2  0  0  0
 38 46  1  0  0  0
 38 47  1  0  0  0
 39 64  1  0  0  0
 39 67  2  0  0  0
 40 52  1  0  0  0
 40 53  2  0  0  0
 40 58  1  0  0  0
 41110  1  0  0  0
 41111  1  0  0  0
 41112  1  0  0  0
 41 48  1  0  0  0
 42 43  1  0  0  0
 42 66  1  0  0  0
 42113  1  0  0  0
 42114  1  0  0  0
 43 44  1  0  0  0
 44115  1  0  0  0
 45 46  2  0  0  0
 45116  1  0  0  0
 46117  1  0  0  0
 47118  1  0  0  0
 47119  1  0  0  0
 48 56  1  0  0  0
 48 65  1  0  0  0
 48120  1  0  0  0
 49 50  1  0  0  0
 49 53  1  0  0  0
 49 64  1  0  0  0
 49121  1  0  0  0
 50 51  1  0  0  0
 50122  1  0  0  0
 50123  1  0  0  0
 51 52  1  0  0  0
 51124  1  0  0  0
 51125  1  0  0  0
 52126  1  0  0  0
 52127  1  0  0  0
 53 54  1  0  0  0
 54 55  2  0  0  0
 54128  1  0  0  0
 55 57  1  0  0  0
 55129  1  0  0  0
 56 69  2  0  0  0
 57 58  2  0  0  0
 57130  1  0  0  0
 58131  1  0  0  0
 59 60  1  0  0  0
 59 61  1  0  0  0
 59 62  1  0  0  0
 60132  1  0  0  0
 60133  1  0  0  0
 60134  1  0  0  0
 61135  1  0  0  0
 61136  1  0  0  0
 61137  1  0  0  0
 62138  1  0  0  0
 62139  1  0  0  0
 62140  1  0  0  0
 63 65  1  0  0  0
 63141  1  0  0  0
 63142  1  0  0  0
 63143  1  0  0  0
 64144  1  0  0  0
 65145  1  0  0  0
 68 82  1  0  0  0
 71 73  2  0  0  0
 71 76  1  0  0  0
 71146  1  0  0  0
 72 74  1  0  0  0
 72 76  2  0  0  0
 72147  1  0  0  0
 73 75  1  0  0  0
 73 79  1  0  0  0
 74 75  2  0  0  0
 74 80  1  0  0  0
 75 78  1  0  0  0
 76 83  1  0  0  0
 77 81  1  0  0  0
 77 84  1  0  0  0
 77 85  2  0  0  0
 78148  1  0  0  0
 78149  1  0  0  0
 78150  1  0  0  0
 79 84  1  0  0  0
 79151  1  0  0  0
 79152  1  0  0  0
 80 86  1  0  0  0
 80153  1  0  0  0
 80154  1  0  0  0
 81 82  1  0  0  0
 81155  1  0  0  0
 81156  1  0  0  0
 82157  1  0  0  0
 82158  1  0  0  0
 83159  1  0  0  0
 84160  1  0  0  0
M  ISO  4   1 100  68 101  82 101  83 100
M  END
> <chiral flag>
0

> <version>
0

> <s_m_source_file>
/data/baiqing/PycharmProjects/Reinvent-master-3.2/result/LINK_invent/BTK/process_docking_weight1_custom_product_contain_oxygen_bond_distance_aromatic_linkinvent_7_9_3/rearranged_h_0051.sdf

> <i_m_source_file_index>
93

> <r_mmod_Potential_Energy-OPLS-2005>
-64.9084320068359

> <r_mmod_Stretch_Energy-OPLS-2005>
57.2546272277832

> <r_mmod_Bend_Energy-OPLS-2005>
136.527572631836

> <r_mmod_Torsional_Energy-OPLS-2005>
218.577331542969

> <r_mmod_Improper_Torsional_Energy-OPLS-2005>
8.70054149627686

> <r_mmod_Van_der_Waal_Energy-OPLS-2005>
158.534042358398

> <r_mmod_Electrostatic_Energy-OPLS-2005>
-427.425018310547

> <r_mmod_Solvation_Energy-OPLS-2005>
-247.950988769531

> <b_mmod_Minimization_Converged-OPLS-2005>
0

> <r_mmod_RMS_Derivative-OPLS-2005>
5.27989435195923

$$$$
93
                    3D
 Structure written by MMmdl.
164172  0  0  1  0            999 V2000
  -30.6148  -14.6377   20.5074 C   0  0  0  0  0  0
  -30.4392  -12.3902   19.4484 C   0  0  0  0  0  0
  -29.5037  -12.4913   18.2216 C   0  0  0  0  0  0
  -28.0274  -12.3342   18.6393 C   0  0  0  0  0  0
  -27.6497  -13.2124   19.8613 C   0  0  2  0  0  0
  -28.6952  -13.0580   20.9898 C   0  0  0  0  0  0
  -25.2410  -13.8022   20.5415 C   0  0  0  0  0  0
  -24.1781  -13.0329   20.9193 C   0  0  0  0  0  0
  -24.6405  -11.6833   20.8803 C   0  0  0  0  0  0
  -23.9073  -10.4238   21.0457 C   0  0  0  0  0  0
  -24.3618   -9.4156   21.9230 C   0  0  0  0  0  0
  -23.6292   -8.2197   22.0761 C   0  0  0  0  0  0
  -22.4276   -8.0254   21.3540 C   0  0  0  0  0  0
  -21.9929   -9.0224   20.4637 C   0  0  0  0  0  0
  -22.7258  -10.2103   20.3081 C   0  0  0  0  0  0
  -21.6837   -6.0742   22.5284 C   0  0  0  0  0  0
  -21.3991   -6.5642   23.8220 C   0  0  0  0  0  0
  -21.3656   -5.6791   24.9177 C   0  0  0  0  0  0
  -21.6041   -4.3054   24.7222 C   0  0  0  0  0  0
  -21.8830   -3.8153   23.4341 C   0  0  0  0  0  0
  -21.9192   -4.6976   22.3398 C   0  0  0  0  0  0
  -22.7814  -13.5146   21.1851 C   0  0  0  0  0  0
  -22.1667   -4.2170   21.0978 F   0  0  0  0  0  0
  -21.5644   -3.4533   25.7734 F   0  0  0  0  0  0
  -30.0126  -13.4071   20.4317 N   0  0  0  0  0  0
  -26.2949  -12.9296   20.3275 N   0  0  0  0  0  0
  -25.9342  -11.6460   20.5850 N   0  0  0  0  0  0
  -22.0457  -12.8160   22.0435 N   0  0  0  0  0  0
  -25.3793  -15.1644   20.3280 N   0  0  0  0  0  0
  -31.7698  -14.8101   20.1065 O   0  0  0  0  0  0
  -21.6623   -6.8869   21.4242 O   0  0  0  0  0  0
  -22.3513  -14.5471   20.6716 O   0  0  0  0  0  0
  -24.6255  -31.8585   23.1992 C   0  0  0  0  0  0
  -25.9087  -32.4779   23.8327 C   0  0  1  0  0  0
  -27.2275  -27.3349   20.1207 C   0  0  0  0  0  0
  -25.5903  -33.8578   24.2292 N   0  0  0  0  0  0
  -23.4187  -30.4813   21.5398 C   0  0  2  0  0  0
  -24.8687  -28.9360   20.1098 C   0  0  0  0  0  0
  -22.7479  -29.4610   22.4903 C   0  0  0  0  0  0
  -18.0272  -28.1420   22.8478 C   0  0  0  0  0  0
  -24.1470  -36.7268   23.2652 C   0  0  0  0  0  0
  -25.9584  -30.8014   21.3595 C   0  0  0  0  0  0
  -26.0350  -29.4247   20.7109 C   0  0  0  0  0  0
  -27.2232  -28.6364   20.7047 C   0  0  0  0  0  0
  -26.0415  -26.8864   19.5021 C   0  0  0  0  0  0
  -24.8716  -27.6693   19.4983 C   0  0  0  0  0  0
  -23.6329  -29.8106   20.1565 C   0  0  0  0  0  0
  -25.4100  -36.3073   24.0338 C   0  0  1  0  0  0
  -20.5873  -28.3684   23.1296 C   0  0  2  0  0  0
  -20.6784  -26.9413   22.5410 C   0  0  0  0  0  0
  -19.5748  -26.6415   21.5227 C   0  0  0  0  0  0
  -18.1920  -26.7960   22.1610 C   0  0  0  0  0  0
  -19.1533  -28.8860   23.2894 C   0  0  0  0  0  0
  -18.9462  -30.1464   23.8898 C   0  0  0  0  0  0
  -17.6476  -30.6619   24.0561 C   0  0  0  0  0  0
  -25.9029  -34.9450   23.5113 C   0  0  0  0  0  0
  -16.5350  -29.9126   23.6337 C   0  0  0  0  0  0
  -16.7267  -28.6538   23.0349 C   0  0  0  0  0  0
  -26.4500  -31.6564   25.0670 C   0  0  0  0  0  0
  -25.3757  -31.3647   26.1392 C   0  0  0  0  0  0
  -27.0353  -30.3006   24.6046 C   0  0  0  0  0  0
  -27.6075  -32.4274   25.7450 C   0  0  0  0  0  0
  -27.5556  -37.1786   24.8489 C   0  0  0  0  0  0
  -21.4178  -29.3049   22.3694 N   0  0  0  0  0  0
  -26.4269  -37.3775   23.9420 N   0  0  0  0  0  0
  -24.6880  -31.0627   22.0907 N   0  0  0  0  0  0
  -23.4219  -28.8142   23.2969 O   0  0  0  0  0  0
  -28.3438  -26.4968   20.1176 O   0  0  0  0  0  0
  -26.5614  -34.8926   22.4689 O   0  0  0  0  0  0
  -23.5409  -32.1362   23.7308 O   0  0  0  0  0  0
  -30.7514  -19.2743   19.9283 C   0  0  0  0  0  0
  -30.8745  -17.8740   20.1924 C   0  0  0  0  0  0
  -28.4574  -19.2241   20.6153 C   0  0  0  0  0  0
  -29.5337  -19.9918   20.1134 C   0  0  0  0  0  0
  -28.5843  -17.8413   20.9381 C   0  0  0  0  0  0
  -29.7825  -17.1064   20.6805 C   0  0  0  0  0  0
  -29.0533  -20.8663   23.6404 C   0  0  0  0  0  0
  -29.3202  -21.8492   22.7665 C   0  0  0  0  0  0
  -28.7576  -23.9271   19.9022 C   0  0  0  0  0  0
  -27.3841  -17.1879   21.5972 C   0  0  0  0  0  0
  -30.6739  -22.5311   22.7244 C   0  0  0  0  0  0
  -29.3925  -21.4910   19.6233 C   0  0  0  0  0  0
  -28.2750  -22.3309   21.7684 C   0  0  0  0  0  0
  -28.1752  -25.1538   20.7181 C   0  0  0  0  0  0
  -29.8080  -15.6624   20.9274 N   0  0  0  0  0  0
  -28.8121  -22.6402   20.4295 N   0  0  0  0  0  0
  -29.1664  -24.1538   18.7563 O   0  0  0  0  0  0
  -31.4785  -12.5233   19.1440 H   0  0  0  0  0  0
  -30.3846  -11.3939   19.8884 H   0  0  0  0  0  0
  -29.7604  -11.7239   17.4891 H   0  0  0  0  0  0
  -29.6472  -13.4507   17.7231 H   0  0  0  0  0  0
  -27.8711  -11.2825   18.8852 H   0  0  0  0  0  0
  -27.3673  -12.5465   17.7976 H   0  0  0  0  0  0
  -27.6705  -14.2486   19.5226 H   0  0  0  0  0  0
  -28.7048  -12.0308   21.3568 H   0  0  0  0  0  0
  -28.4353  -13.6715   21.8537 H   0  0  0  0  0  0
  -25.2748   -9.5642   22.4823 H   0  0  0  0  0  0
  -23.9987   -7.4588   22.7480 H   0  0  0  0  0  0
  -21.0865   -8.8747   19.8929 H   0  0  0  0  0  0
  -22.3719  -10.9656   19.6198 H   0  0  0  0  0  0
  -21.1963   -7.6151   23.9728 H   0  0  0  0  0  0
  -21.1461   -6.0514   25.9082 H   0  0  0  0  0  0
  -22.0609   -2.7620   23.2825 H   0  0  0  0  0  0
  -22.4049  -11.9784   22.4787 H   0  0  0  0  0  0
  -21.1088  -13.1203   22.2661 H   0  0  0  0  0  0
  -24.5663  -15.7694   20.3497 H   0  0  0  0  0  0
  -26.1690  -15.5766   19.8495 H   0  0  0  0  0  0
  -26.7170  -32.5431   23.1087 H   0  0  0  0  0  0
  -25.0066  -33.9735   25.0447 H   0  0  0  0  0  0
  -22.7125  -31.3014   21.3919 H   0  0  0  0  0  0
  -23.3740  -35.9587   23.3325 H   0  0  0  0  0  0
  -24.3595  -36.8864   22.2074 H   0  0  0  0  0  0
  -23.7225  -37.6474   23.6650 H   0  0  0  0  0  0
  -26.0742  -31.5576   20.5825 H   0  0  0  0  0  0
  -26.8483  -30.8657   21.9733 H   0  0  0  0  0  0
  -28.1234  -29.0100   21.1711 H   0  0  0  0  0  0
  -26.0165  -25.9116   19.0339 H   0  0  0  0  0  0
  -23.9739  -27.2873   19.0320 H   0  0  0  0  0  0
  -23.7441  -30.5806   19.3927 H   0  0  0  0  0  0
  -22.7555  -29.2328   19.8574 H   0  0  0  0  0  0
  -25.1295  -36.1911   25.0827 H   0  0  0  0  0  0
  -20.9961  -28.3226   24.1410 H   0  0  0  0  0  0
  -20.5717  -26.2275   23.3592 H   0  0  0  0  0  0
  -21.6647  -26.7499   22.1161 H   0  0  0  0  0  0
  -19.6925  -25.6350   21.1198 H   0  0  0  0  0  0
  -19.6685  -27.3280   20.6788 H   0  0  0  0  0  0
  -17.4202  -26.6692   21.4006 H   0  0  0  0  0  0
  -18.0278  -26.0158   22.9040 H   0  0  0  0  0  0
  -19.7950  -30.7268   24.2272 H   0  0  0  0  0  0
  -17.5044  -31.6286   24.5168 H   0  0  0  0  0  0
  -15.5356  -30.3031   23.7718 H   0  0  0  0  0  0
  -15.8640  -28.0884   22.7073 H   0  0  0  0  0  0
  -24.5967  -30.6971   25.7706 H   0  0  0  0  0  0
  -24.8916  -32.2796   26.4807 H   0  0  0  0  0  0
  -25.8106  -30.8834   27.0163 H   0  0  0  0  0  0
  -26.2901  -29.6739   24.1139 H   0  0  0  0  0  0
  -27.4229  -29.7251   25.4465 H   0  0  0  0  0  0
  -27.8665  -30.4381   23.9139 H   0  0  0  0  0  0
  -27.2715  -33.3601   26.1991 H   0  0  0  0  0  0
  -28.3899  -32.6776   25.0280 H   0  0  0  0  0  0
  -28.0710  -31.8409   26.5390 H   0  0  0  0  0  0
  -28.2588  -38.0069   24.7520 H   0  0  0  0  0  0
  -28.1031  -36.2598   24.6317 H   0  0  0  0  0  0
  -27.2279  -37.1448   25.8899 H   0  0  0  0  0  0
  -20.9347  -29.8733   21.6871 H   0  0  0  0  0  0
  -26.0127  -38.2829   24.1448 H   0  0  0  0  0  0
  -31.6187  -19.7943   19.5429 H   0  0  0  0  0  0
  -31.8275  -17.3996   20.0060 H   0  0  0  0  0  0
  -27.4937  -19.6934   20.7489 H   0  0  0  0  0  0
  -29.7953  -20.5312   24.3497 H   0  0  0  0  0  0
  -28.0905  -20.3755   23.6619 H   0  0  0  0  0  0
  -27.3035  -17.5185   22.6339 H   0  0  0  0  0  0
  -27.4324  -16.1020   21.6062 H   0  0  0  0  0  0
  -26.4659  -17.4805   21.0862 H   0  0  0  0  0  0
  -31.2446  -22.1698   21.8686 H   0  0  0  0  0  0
  -31.2500  -22.3235   23.6257 H   0  0  0  0  0  0
  -30.5606  -23.6130   22.6419 H   0  0  0  0  0  0
  -28.8099  -21.4340   18.7011 H   0  0  0  0  0  0
  -30.3868  -21.8094   19.3080 H   0  0  0  0  0  0
  -27.7924  -23.1862   22.2332 H   0  0  0  0  0  0
  -27.4659  -21.6115   21.6775 H   0  0  0  0  0  0
  -28.6978  -25.1825   21.6731 H   0  0  0  0  0  0
  -27.1286  -24.9525   20.9507 H   0  0  0  0  0  0
  -28.9381  -15.3086   21.2938 H   0  0  0  0  0  0
  1 25  1  0  0  0
  1 30  2  0  0  0
  1 85  1  0  0  0
  2  3  1  0  0  0
  2 25  1  0  0  0
  2 88  1  0  0  0
  2 89  1  0  0  0
  3  4  1  0  0  0
  3 90  1  0  0  0
  3 91  1  0  0  0
  4  5  1  0  0  0
  4 92  1  0  0  0
  4 93  1  0  0  0
  5  6  1  0  0  0
  5 26  1  0  0  0
  5 94  1  0  0  0
  6 25  1  0  0  0
  6 95  1  0  0  0
  6 96  1  0  0  0
  7  8  2  0  0  0
  7 26  1  0  0  0
  7 29  1  0  0  0
  8  9  1  0  0  0
  8 22  1  0  0  0
  9 10  1  0  0  0
  9 27  2  0  0  0
 10 11  2  0  0  0
 10 15  1  0  0  0
 11 12  1  0  0  0
 11 97  1  0  0  0
 12 13  2  0  0  0
 12 98  1  0  0  0
 13 14  1  0  0  0
 13 31  1  0  0  0
 14 15  2  0  0  0
 14 99  1  0  0  0
 15100  1  0  0  0
 16 17  2  0  0  0
 16 21  1  0  0  0
 16 31  1  0  0  0
 17 18  1  0  0  0
 17101  1  0  0  0
 18 19  2  0  0  0
 18102  1  0  0  0
 19 20  1  0  0  0
 19 24  1  0  0  0
 20 21  2  0  0  0
 20103  1  0  0  0
 21 23  1  0  0  0
 22 28  1  0  0  0
 22 32  2  0  0  0
 26 27  1  0  0  0
 28104  1  0  0  0
 28105  1  0  0  0
 29106  1  0  0  0
 29107  1  0  0  0
 33 34  1  0  0  0
 33 66  1  0  0  0
 33 70  2  0  0  0
 34 36  1  0  0  0
 34 59  1  0  0  0
 34108  1  0  0  0
 35 44  2  0  0  0
 35 45  1  0  0  0
 35 68  1  0  0  0
 36 56  1  0  0  0
 36109  1  0  0  0
 37 39  1  0  0  0
 37 47  1  0  0  0
 37 66  1  0  0  0
 37110  1  0  0  0
 38 43  2  0  0  0
 38 46  1  0  0  0
 38 47  1  0  0  0
 39 64  1  0  0  0
 39 67  2  0  0  0
 40 52  1  0  0  0
 40 53  2  0  0  0
 40 58  1  0  0  0
 41111  1  0  0  0
 41112  1  0  0  0
 41113  1  0  0  0
 41 48  1  0  0  0
 42 43  1  0  0  0
 42 66  1  0  0  0
 42114  1  0  0  0
 42115  1  0  0  0
 43 44  1  0  0  0
 44116  1  0  0  0
 45 46  2  0  0  0
 45117  1  0  0  0
 46118  1  0  0  0
 47119  1  0  0  0
 47120  1  0  0  0
 48 56  1  0  0  0
 48 65  1  0  0  0
 48121  1  0  0  0
 49 50  1  0  0  0
 49 53  1  0  0  0
 49 64  1  0  0  0
 49122  1  0  0  0
 50 51  1  0  0  0
 50123  1  0  0  0
 50124  1  0  0  0
 51 52  1  0  0  0
 51125  1  0  0  0
 51126  1  0  0  0
 52127  1  0  0  0
 52128  1  0  0  0
 53 54  1  0  0  0
 54 55  2  0  0  0
 54129  1  0  0  0
 55 57  1  0  0  0
 55130  1  0  0  0
 56 69  2  0  0  0
 57 58  2  0  0  0
 57131  1  0  0  0
 58132  1  0  0  0
 59 60  1  0  0  0
 59 61  1  0  0  0
 59 62  1  0  0  0
 60133  1  0  0  0
 60134  1  0  0  0
 60135  1  0  0  0
 61136  1  0  0  0
 61137  1  0  0  0
 61138  1  0  0  0
 62139  1  0  0  0
 62140  1  0  0  0
 62141  1  0  0  0
 63 65  1  0  0  0
 63142  1  0  0  0
 63143  1  0  0  0
 63144  1  0  0  0
 64145  1  0  0  0
 65146  1  0  0  0
 68 84  1  0  0  0
 71 72  2  0  0  0
 71 74  1  0  0  0
 71147  1  0  0  0
 72 76  1  0  0  0
 72148  1  0  0  0
 73 74  2  0  0  0
 73 75  1  0  0  0
 73149  1  0  0  0
 74 82  1  0  0  0
 75 76  2  0  0  0
 75 80  1  0  0  0
 76 85  1  0  0  0
 77 78  2  0  0  0
 77150  1  0  0  0
 77151  1  0  0  0
 78 81  1  0  0  0
 78 83  1  0  0  0
 79 84  1  0  0  0
 79 86  1  0  0  0
 79 87  2  0  0  0
 80152  1  0  0  0
 80153  1  0  0  0
 80154  1  0  0  0
 81155  1  0  0  0
 81156  1  0  0  0
 81157  1  0  0  0
 82 86  1  0  0  0
 82158  1  0  0  0
 82159  1  0  0  0
 83 86  1  0  0  0
 83160  1  0  0  0
 83161  1  0  0  0
 84162  1  0  0  0
 84163  1  0  0  0
 85164  1  0  0  0
M  ISO  4   1 100  68 101  84 101  85 100
M  END
> <chiral flag>
0

> <version>
0

> <s_m_source_file>
/data/baiqing/PycharmProjects/Reinvent-master-3.2/result/LINK_invent/BTK/process_docking_weight1_custom_product_contain_oxygen_bond_distance_aromatic_linkinvent_7_9_3/rearranged_h_0051.sdf

> <i_m_source_file_index>
94

> <r_mmod_Potential_Energy-OPLS-2005>
79.5329971313477

> <r_mmod_Stretch_Energy-OPLS-2005>
85.9873428344727

> <r_mmod_Bend_Energy-OPLS-2005>
149.551071166992

> <r_mmod_Torsional_Energy-OPLS-2005>
251.939529418945

> <r_mmod_Improper_Torsional_Energy-OPLS-2005>
5.6293740272522

> <r_mmod_Van_der_Waal_Energy-OPLS-2005>
148.950714111328

> <r_mmod_Electrostatic_Energy-OPLS-2005>
-384.390533447266

> <r_mmod_Solvation_Energy-OPLS-2005>
-223.140975952148

> <b_mmod_Minimization_Converged-OPLS-2005>
0

> <r_mmod_RMS_Derivative-OPLS-2005>
3.80847454071045

$$$$
94
                    3D
 Structure written by MMmdl.
168177  0  0  1  0            999 V2000
  -30.6551  -14.5840   20.5189 C   0  0  0  0  0  0
  -30.4445  -12.3672   19.4272 C   0  0  0  0  0  0
  -29.5039  -12.4923   18.2093 C   0  0  0  0  0  0
  -28.0269  -12.3380   18.6258 C   0  0  0  0  0  0
  -27.6569  -13.2059   19.8578 C   0  0  2  0  0  0
  -28.7072  -13.0501   20.9788 C   0  0  0  0  0  0
  -25.2611  -13.8148   20.5679 C   0  0  0  0  0  0
  -24.1860  -13.0437   20.9179 C   0  0  0  0  0  0
  -24.6403  -11.6901   20.8729 C   0  0  0  0  0  0
  -23.9056  -10.4289   21.0401 C   0  0  0  0  0  0
  -24.3604   -9.4211   21.9185 C   0  0  0  0  0  0
  -23.6284   -8.2245   22.0760 C   0  0  0  0  0  0
  -22.4276   -8.0273   21.3540 C   0  0  0  0  0  0
  -21.9901   -9.0248   20.4648 C   0  0  0  0  0  0
  -22.7222  -10.2128   20.3059 C   0  0  0  0  0  0
  -21.6849   -6.0732   22.5273 C   0  0  0  0  0  0
  -21.4011   -6.5636   23.8205 C   0  0  0  0  0  0
  -21.3659   -5.6789   24.9166 C   0  0  0  0  0  0
  -21.6049   -4.3058   24.7213 C   0  0  0  0  0  0
  -21.8821   -3.8148   23.4334 C   0  0  0  0  0  0
  -21.9189   -4.6961   22.3394 C   0  0  0  0  0  0
  -22.7885  -13.5248   21.1829 C   0  0  0  0  0  0
  -22.1662   -4.2150   21.0971 F   0  0  0  0  0  0
  -21.5628   -3.4545   25.7729 F   0  0  0  0  0  0
  -30.0212  -13.3800   20.4055 N   0  0  0  0  0  0
  -26.3024  -12.9302   20.3310 N   0  0  0  0  0  0
  -25.9328  -11.6466   20.5752 N   0  0  0  0  0  0
  -22.0505  -12.8242   22.0371 N   0  0  0  0  0  0
  -25.4342  -15.1866   20.4083 N   0  0  0  0  0  0
  -31.8333  -14.7443   20.1883 O   0  0  0  0  0  0
  -21.6643   -6.8873   21.4240 O   0  0  0  0  0  0
  -22.3573  -14.5557   20.6686 O   0  0  0  0  0  0
  -24.6278  -31.8627   23.2039 C   0  0  0  0  0  0
  -25.9133  -32.4794   23.8355 C   0  0  1  0  0  0
  -27.2172  -27.3418   20.0820 C   0  0  0  0  0  0
  -25.5958  -33.8595   24.2278 N   0  0  0  0  0  0
  -23.4185  -30.4912   21.5481 C   0  0  2  0  0  0
  -24.8592  -28.9542   20.1125 C   0  0  0  0  0  0
  -22.7477  -29.4648   22.4922 C   0  0  0  0  0  0
  -18.0292  -28.1402   22.8475 C   0  0  0  0  0  0
  -24.1505  -36.7287   23.2640 C   0  0  0  0  0  0
  -25.9615  -30.7972   21.3738 C   0  0  0  0  0  0
  -26.0326  -29.4295   20.7098 C   0  0  0  0  0  0
  -27.2175  -28.6364   20.6820 C   0  0  0  0  0  0
  -26.0076  -26.9086   19.4916 C   0  0  0  0  0  0
  -24.8463  -27.6965   19.4972 C   0  0  0  0  0  0
  -23.6304  -29.8359   20.1614 C   0  0  0  0  0  0
  -25.4132  -36.3084   24.0326 C   0  0  1  0  0  0
  -20.5890  -28.3704   23.1284 C   0  0  2  0  0  0
  -20.6808  -26.9430   22.5400 C   0  0  0  0  0  0
  -19.5786  -26.6385   21.5220 C   0  0  0  0  0  0
  -18.1947  -26.7945   22.1599 C   0  0  0  0  0  0
  -19.1542  -28.8864   23.2881 C   0  0  0  0  0  0
  -18.9479  -30.1463   23.8911 C   0  0  0  0  0  0
  -17.6492  -30.6606   24.0574 C   0  0  0  0  0  0
  -25.9059  -34.9461   23.5082 C   0  0  0  0  0  0
  -16.5376  -29.9111   23.6339 C   0  0  0  0  0  0
  -16.7275  -28.6528   23.0344 C   0  0  0  0  0  0
  -26.4504  -31.6621   25.0736 C   0  0  0  0  0  0
  -25.3711  -31.3771   26.1445 C   0  0  0  0  0  0
  -27.0352  -30.3062   24.6156 C   0  0  0  0  0  0
  -27.6065  -32.4361   25.7495 C   0  0  0  0  0  0
  -27.5594  -37.1796   24.8456 C   0  0  0  0  0  0
  -21.4182  -29.3071   22.3691 N   0  0  0  0  0  0
  -26.4293  -37.3790   23.9407 N   0  0  0  0  0  0
  -24.6882  -31.0647   22.0995 N   0  0  0  0  0  0
  -23.4204  -28.8162   23.2978 O   0  0  0  0  0  0
  -28.3505  -26.5162   20.0784 O   0  0  0  0  0  0
  -26.5593  -34.8931   22.4629 O   0  0  0  0  0  0
  -23.5437  -32.1418   23.7362 O   0  0  0  0  0  0
  -30.3239  -18.1637   23.4610 C   0  0  0  0  0  0
  -30.1207  -18.1526   20.6753 C   0  0  0  0  0  0
  -30.3581  -19.3893   22.7661 C   0  0  0  0  0  0
  -30.2038  -16.9308   22.7936 C   0  0  0  0  0  0
  -30.2574  -19.4152   21.3466 C   0  0  0  0  0  0
  -30.1098  -16.9039   21.3825 C   0  0  0  0  0  0
  -27.1899  -21.9711   19.0223 C   0  0  0  0  0  0
  -26.9544  -23.2776   18.7753 C   0  0  0  0  0  0
  -28.4983  -21.3412   19.1430 C   0  0  0  0  0  0
  -27.9484  -24.4265   18.6732 C   0  0  0  0  0  0
  -29.2793  -24.2305   20.7654 C   0  0  0  0  0  0
  -28.9373  -22.7513   21.2018 C   0  0  0  0  0  0
  -28.1468  -25.0553   20.0733 C   0  0  1  0  0  0
  -30.5146  -20.6459   23.6082 C   0  0  0  0  0  0
  -30.1447  -15.6561   23.6252 C   0  0  0  0  0  0
  -30.4240  -20.7586   20.5559 C   0  0  0  0  0  0
  -29.2288  -21.6204   20.2603 N   0  0  0  0  0  0
  -29.8309  -15.6423   20.7405 N   0  0  0  0  0  0
  -28.8730  -20.5154   18.3060 O   0  0  0  0  0  0
  -31.4813  -12.5046   19.1152 H   0  0  0  0  0  0
  -30.3881  -11.3696   19.8664 H   0  0  0  0  0  0
  -29.7608  -11.7424   17.4601 H   0  0  0  0  0  0
  -29.6493  -13.4625   17.7310 H   0  0  0  0  0  0
  -27.8576  -11.2847   18.8532 H   0  0  0  0  0  0
  -27.3723  -12.5774   17.7872 H   0  0  0  0  0  0
  -27.6763  -14.2415   19.5194 H   0  0  0  0  0  0
  -28.7135  -12.0300   21.3667 H   0  0  0  0  0  0
  -28.4605  -13.6889   21.8261 H   0  0  0  0  0  0
  -25.2744   -9.5691   22.4759 H   0  0  0  0  0  0
  -23.9994   -7.4638   22.7485 H   0  0  0  0  0  0
  -21.0833   -8.8755   19.8950 H   0  0  0  0  0  0
  -22.3676  -10.9668   19.6171 H   0  0  0  0  0  0
  -21.2009   -7.6148   23.9704 H   0  0  0  0  0  0
  -21.1482   -6.0525   25.9062 H   0  0  0  0  0  0
  -22.0601   -2.7607   23.2836 H   0  0  0  0  0  0
  -22.4111  -11.9896   22.4760 H   0  0  0  0  0  0
  -21.1131  -13.1293   22.2577 H   0  0  0  0  0  0
  -24.6691  -15.8426   20.5221 H   0  0  0  0  0  0
  -26.2817  -15.6257   20.0711 H   0  0  0  0  0  0
  -26.7203  -32.5468   23.1097 H   0  0  0  0  0  0
  -25.0239  -33.9763   25.0508 H   0  0  0  0  0  0
  -22.7130  -31.3137   21.4069 H   0  0  0  0  0  0
  -23.3786  -35.9599   23.3285 H   0  0  0  0  0  0
  -24.3595  -36.8907   22.2055 H   0  0  0  0  0  0
  -23.7239  -37.6475   23.6666 H   0  0  0  0  0  0
  -26.0918  -31.5630   20.6090 H   0  0  0  0  0  0
  -26.8436  -30.8389   22.0009 H   0  0  0  0  0  0
  -28.1248  -28.9989   21.1452 H   0  0  0  0  0  0
  -25.9121  -25.9485   19.0159 H   0  0  0  0  0  0
  -23.9463  -27.3222   19.0307 H   0  0  0  0  0  0
  -23.7557  -30.6175   19.4117 H   0  0  0  0  0  0
  -22.7486  -29.2727   19.8509 H   0  0  0  0  0  0
  -25.1304  -36.1932   25.0814 H   0  0  0  0  0  0
  -20.9985  -28.3297   24.1405 H   0  0  0  0  0  0
  -20.5763  -26.2307   23.3599 H   0  0  0  0  0  0
  -21.6675  -26.7504   22.1172 H   0  0  0  0  0  0
  -19.6972  -25.6290   21.1270 H   0  0  0  0  0  0
  -19.6758  -27.3190   20.6743 H   0  0  0  0  0  0
  -17.4232  -26.6711   21.3984 H   0  0  0  0  0  0
  -18.0328  -26.0068   22.8978 H   0  0  0  0  0  0
  -19.7961  -30.7269   24.2289 H   0  0  0  0  0  0
  -17.5050  -31.6294   24.5170 H   0  0  0  0  0  0
  -15.5387  -30.3041   23.7660 H   0  0  0  0  0  0
  -15.8660  -28.0882   22.7046 H   0  0  0  0  0  0
  -24.5952  -30.7027   25.7790 H   0  0  0  0  0  0
  -24.8827  -32.2941   26.4768 H   0  0  0  0  0  0
  -25.8030  -30.9062   27.0286 H   0  0  0  0  0  0
  -26.2924  -29.6818   24.1180 H   0  0  0  0  0  0
  -27.4092  -29.7307   25.4627 H   0  0  0  0  0  0
  -27.8755  -30.4381   23.9335 H   0  0  0  0  0  0
  -27.2710  -33.3722   26.1973 H   0  0  0  0  0  0
  -28.3936  -32.6823   25.0354 H   0  0  0  0  0  0
  -28.0653  -31.8541   26.5495 H   0  0  0  0  0  0
  -28.2570  -38.0139   24.7556 H   0  0  0  0  0  0
  -28.1136  -36.2665   24.6219 H   0  0  0  0  0  0
  -27.2301  -37.1347   25.8854 H   0  0  0  0  0  0
  -20.9351  -29.8825   21.6931 H   0  0  0  0  0  0
  -26.0178  -38.2845   24.1475 H   0  0  0  0  0  0
  -30.3880  -18.1700   24.5405 H   0  0  0  0  0  0
  -30.0321  -18.1434   19.5982 H   0  0  0  0  0  0
  -26.3352  -21.3136   19.0921 H   0  0  0  0  0  0
  -25.9185  -23.5798   18.7035 H   0  0  0  0  0  0
  -27.5727  -25.1461   17.9475 H   0  0  0  0  0  0
  -28.8936  -24.0789   18.2539 H   0  0  0  0  0  0
  -30.1852  -24.2372   20.1598 H   0  0  0  0  0  0
  -29.5475  -24.7770   21.6700 H   0  0  0  0  0  0
  -27.9064  -22.6890   21.5516 H   0  0  0  0  0  0
  -29.5242  -22.5830   22.0987 H   0  0  0  0  0  0
  -27.2499  -24.8848   20.6741 H   0  0  0  0  0  0
  -30.8721  -20.4031   24.6096 H   0  0  0  0  0  0
  -29.5497  -21.1372   23.7293 H   0  0  0  0  0  0
  -31.2341  -21.3480   23.1908 H   0  0  0  0  0  0
  -30.2055  -15.8672   24.6920 H   0  0  0  0  0  0
  -30.9711  -14.9888   23.3788 H   0  0  0  0  0  0
  -29.2073  -15.1279   23.4569 H   0  0  0  0  0  0
  -30.9341  -20.5144   19.6230 H   0  0  0  0  0  0
  -31.1716  -21.3767   21.0486 H   0  0  0  0  0  0
  -28.8585  -15.3792   20.7573 H   0  0  0  0  0  0
  1 25  1  0  0  0
  1 30  2  0  0  0
  1 88  1  0  0  0
  2  3  1  0  0  0
  2 25  1  0  0  0
  2 90  1  0  0  0
  2 91  1  0  0  0
  3  4  1  0  0  0
  3 92  1  0  0  0
  3 93  1  0  0  0
  4  5  1  0  0  0
  4 94  1  0  0  0
  4 95  1  0  0  0
  5  6  1  0  0  0
  5 26  1  0  0  0
  5 96  1  0  0  0
  6 25  1  0  0  0
  6 97  1  0  0  0
  6 98  1  0  0  0
  7  8  2  0  0  0
  7 26  1  0  0  0
  7 29  1  0  0  0
  8  9  1  0  0  0
  8 22  1  0  0  0
  9 10  1  0  0  0
  9 27  2  0  0  0
 10 11  2  0  0  0
 10 15  1  0  0  0
 11 12  1  0  0  0
 11 99  1  0  0  0
 12 13  2  0  0  0
 12100  1  0  0  0
 13 14  1  0  0  0
 13 31  1  0  0  0
 14 15  2  0  0  0
 14101  1  0  0  0
 15102  1  0  0  0
 16 17  2  0  0  0
 16 21  1  0  0  0
 16 31  1  0  0  0
 17 18  1  0  0  0
 17103  1  0  0  0
 18 19  2  0  0  0
 18104  1  0  0  0
 19 20  1  0  0  0
 19 24  1  0  0  0
 20 21  2  0  0  0
 20105  1  0  0  0
 21 23  1  0  0  0
 22 28  1  0  0  0
 22 32  2  0  0  0
 26 27  1  0  0  0
 28106  1  0  0  0
 28107  1  0  0  0
 29108  1  0  0  0
 29109  1  0  0  0
 33 34  1  0  0  0
 33 66  1  0  0  0
 33 70  2  0  0  0
 34 36  1  0  0  0
 34 59  1  0  0  0
 34110  1  0  0  0
 35 44  2  0  0  0
 35 45  1  0  0  0
 35 68  1  0  0  0
 36 56  1  0  0  0
 36111  1  0  0  0
 37 39  1  0  0  0
 37 47  1  0  0  0
 37 66  1  0  0  0
 37112  1  0  0  0
 38 43  2  0  0  0
 38 46  1  0  0  0
 38 47  1  0  0  0
 39 64  1  0  0  0
 39 67  2  0  0  0
 40 52  1  0  0  0
 40 53  2  0  0  0
 40 58  1  0  0  0
 41113  1  0  0  0
 41114  1  0  0  0
 41115  1  0  0  0
 41 48  1  0  0  0
 42 43  1  0  0  0
 42 66  1  0  0  0
 42116  1  0  0  0
 42117  1  0  0  0
 43 44  1  0  0  0
 44118  1  0  0  0
 45 46  2  0  0  0
 45119  1  0  0  0
 46120  1  0  0  0
 47121  1  0  0  0
 47122  1  0  0  0
 48 56  1  0  0  0
 48 65  1  0  0  0
 48123  1  0  0  0
 49 50  1  0  0  0
 49 53  1  0  0  0
 49 64  1  0  0  0
 49124  1  0  0  0
 50 51  1  0  0  0
 50125  1  0  0  0
 50126  1  0  0  0
 51 52  1  0  0  0
 51127  1  0  0  0
 51128  1  0  0  0
 52129  1  0  0  0
 52130  1  0  0  0
 53 54  1  0  0  0
 54 55  2  0  0  0
 54131  1  0  0  0
 55 57  1  0  0  0
 55132  1  0  0  0
 56 69  2  0  0  0
 57 58  2  0  0  0
 57133  1  0  0  0
 58134  1  0  0  0
 59 60  1  0  0  0
 59 61  1  0  0  0
 59 62  1  0  0  0
 60135  1  0  0  0
 60136  1  0  0  0
 60137  1  0  0  0
 61138  1  0  0  0
 61139  1  0  0  0
 61140  1  0  0  0
 62141  1  0  0  0
 62142  1  0  0  0
 62143  1  0  0  0
 63 65  1  0  0  0
 63144  1  0  0  0
 63145  1  0  0  0
 63146  1  0  0  0
 64147  1  0  0  0
 65148  1  0  0  0
 68 83  1  0  0  0
 71 73  2  0  0  0
 71 74  1  0  0  0
 71149  1  0  0  0
 72 75  2  0  0  0
 72 76  1  0  0  0
 72150  1  0  0  0
 73 75  1  0  0  0
 73 84  1  0  0  0
 74 76  2  0  0  0
 74 85  1  0  0  0
 75 86  1  0  0  0
 76 88  1  0  0  0
 77 78  2  0  0  0
 77 79  1  0  0  0
 77151  1  0  0  0
 78 80  1  0  0  0
 78152  1  0  0  0
 79 87  1  0  0  0
 79 89  2  0  0  0
 80 83  1  0  0  0
 80153  1  0  0  0
 80154  1  0  0  0
 81 82  1  0  0  0
 81 83  1  0  0  0
 81155  1  0  0  0
 81156  1  0  0  0
 82 87  1  0  0  0
 82157  1  0  0  0
 82158  1  0  0  0
 83159  1  0  0  0
 84160  1  0  0  0
 84161  1  0  0  0
 84162  1  0  0  0
 85163  1  0  0  0
 85164  1  0  0  0
 85165  1  0  0  0
 86 87  1  0  0  0
 86166  1  0  0  0
 86167  1  0  0  0
 88168  1  0  0  0
M  ISO  4   1 100  68 101  83 101  88 100
M  END
> <chiral flag>
0

> <version>
0

> <s_m_source_file>
/data/baiqing/PycharmProjects/Reinvent-master-3.2/result/LINK_invent/BTK/process_docking_weight1_custom_product_contain_oxygen_bond_distance_aromatic_linkinvent_7_9_3/rearranged_h_0051.sdf

> <i_m_source_file_index>
95

> <r_mmod_Potential_Energy-OPLS-2005>
127.777862548828

> <r_mmod_Stretch_Energy-OPLS-2005>
70.5878067016602

> <r_mmod_Bend_Energy-OPLS-2005>
146.831970214844

> <r_mmod_Torsional_Energy-OPLS-2005>
314.724914550781

> <r_mmod_Improper_Torsional_Energy-OPLS-2005>
9.71616077423096

> <r_mmod_Van_der_Waal_Energy-OPLS-2005>
163.354797363281

> <r_mmod_Electrostatic_Energy-OPLS-2005>
-389.256866455078

> <r_mmod_Solvation_Energy-OPLS-2005>
-225.511535644531

> <b_mmod_Minimization_Converged-OPLS-2005>
0

> <r_mmod_RMS_Derivative-OPLS-2005>
2.67563033103943

$$$$
95
                    3D
 Structure written by MMmdl.
157165  0  0  1  0            999 V2000
  -30.6767  -14.5238   20.4697 C   0  0  0  0  0  0
  -30.4259  -12.3116   19.4467 C   0  0  0  0  0  0
  -29.5032  -12.4746   18.2190 C   0  0  0  0  0  0
  -28.0223  -12.3377   18.6289 C   0  0  0  0  0  0
  -27.6535  -13.2070   19.8601 C   0  0  2  0  0  0
  -28.6988  -13.0521   20.9894 C   0  0  0  0  0  0
  -25.2563  -13.8150   20.5681 C   0  0  0  0  0  0
  -24.1821  -13.0434   20.9200 C   0  0  0  0  0  0
  -24.6369  -11.6904   20.8738 C   0  0  0  0  0  0
  -23.9036  -10.4300   21.0421 C   0  0  0  0  0  0
  -24.3591   -9.4213   21.9185 C   0  0  0  0  0  0
  -23.6274   -8.2251   22.0749 C   0  0  0  0  0  0
  -22.4257   -8.0292   21.3550 C   0  0  0  0  0  0
  -21.9890   -9.0260   20.4649 C   0  0  0  0  0  0
  -22.7219  -10.2140   20.3066 C   0  0  0  0  0  0
  -21.6845   -6.0749   22.5294 C   0  0  0  0  0  0
  -21.4017   -6.5648   23.8230 C   0  0  0  0  0  0
  -21.3651   -5.6793   24.9181 C   0  0  0  0  0  0
  -21.6033   -4.3056   24.7224 C   0  0  0  0  0  0
  -21.8808   -3.8151   23.4344 C   0  0  0  0  0  0
  -21.9185   -4.6977   22.3407 C   0  0  0  0  0  0
  -22.7846  -13.5247   21.1838 C   0  0  0  0  0  0
  -22.1661   -4.2180   21.0982 F   0  0  0  0  0  0
  -21.5613   -3.4535   25.7726 F   0  0  0  0  0  0
  -30.0267  -13.3307   20.4247 N   0  0  0  0  0  0
  -26.2980  -12.9311   20.3301 N   0  0  0  0  0  0
  -25.9290  -11.6479   20.5750 N   0  0  0  0  0  0
  -22.0459  -12.8292   22.0408 N   0  0  0  0  0  0
  -25.4264  -15.1875   20.4122 N   0  0  0  0  0  0
  -31.8830  -14.6295   20.2356 O   0  0  0  0  0  0
  -21.6626   -6.8892   21.4255 O   0  0  0  0  0  0
  -22.3560  -14.5556   20.6673 O   0  0  0  0  0  0
  -24.6191  -31.8701   23.2096 C   0  0  0  0  0  0
  -25.9085  -32.4838   23.8397 C   0  0  1  0  0  0
  -27.2208  -27.4106   20.0911 C   0  0  0  0  0  0
  -25.5932  -33.8630   24.2348 N   0  0  0  0  0  0
  -23.4064  -30.4962   21.5538 C   0  0  2  0  0  0
  -24.8466  -28.9625   20.1176 C   0  0  0  0  0  0
  -22.7445  -29.4688   22.5012 C   0  0  0  0  0  0
  -18.0297  -28.1377   22.8505 C   0  0  0  0  0  0
  -24.1495  -36.7301   23.2636 C   0  0  0  0  0  0
  -25.9397  -30.8262   21.3679 C   0  0  0  0  0  0
  -26.0137  -29.4611   20.7118 C   0  0  0  0  0  0
  -27.2053  -28.6934   20.6941 C   0  0  0  0  0  0
  -26.0323  -26.9420   19.4842 C   0  0  0  0  0  0
  -24.8513  -27.7009   19.5067 C   0  0  0  0  0  0
  -23.6130  -29.8324   20.1674 C   0  0  0  0  0  0
  -25.4114  -36.3118   24.0349 C   0  0  1  0  0  0
  -20.5891  -28.3685   23.1312 C   0  0  2  0  0  0
  -20.6803  -26.9424   22.5418 C   0  0  0  0  0  0
  -19.5761  -26.6389   21.5233 C   0  0  0  0  0  0
  -18.1938  -26.7930   22.1630 C   0  0  0  0  0  0
  -19.1550  -28.8842   23.2899 C   0  0  0  0  0  0
  -18.9465  -30.1453   23.8915 C   0  0  0  0  0  0
  -17.6466  -30.6580   24.0569 C   0  0  0  0  0  0
  -25.9036  -34.9489   23.5136 C   0  0  0  0  0  0
  -16.5362  -29.9085   23.6326 C   0  0  0  0  0  0
  -16.7283  -28.6491   23.0363 C   0  0  0  0  0  0
  -26.4497  -31.6610   25.0724 C   0  0  0  0  0  0
  -25.3751  -31.3749   26.1467 C   0  0  0  0  0  0
  -27.0336  -30.3050   24.6117 C   0  0  0  0  0  0
  -27.6065  -32.4344   25.7491 C   0  0  0  0  0  0
  -27.5598  -37.1810   24.8472 C   0  0  0  0  0  0
  -21.4175  -29.3058   22.3723 N   0  0  0  0  0  0
  -26.4309  -37.3796   23.9412 N   0  0  0  0  0  0
  -24.6737  -31.0782   22.1016 N   0  0  0  0  0  0
  -23.4207  -28.8239   23.3064 O   0  0  0  0  0  0
  -28.3739  -26.6419   20.1012 O   0  0  0  0  0  0
  -26.5579  -34.8940   22.4687 O   0  0  0  0  0  0
  -23.5370  -32.1484   23.7467 O   0  0  0  0  0  0
  -30.6118  -19.6124   19.1789 C   0  0  0  0  0  0
  -31.1017  -18.5298   18.4318 C   0  0  0  0  0  0
  -29.6009  -18.0493   20.7437 C   0  0  0  0  0  0
  -29.7955  -19.3892   20.3070 C   0  0  0  0  0  0
  -30.1414  -16.9385   20.0365 C   0  0  0  0  0  0
  -30.8324  -17.2023   18.8138 C   0  0  0  0  0  0
  -29.3991  -23.0442   21.0149 C   0  0  0  0  0  0
  -28.4694  -21.8990   19.0330 C   0  0  0  0  0  0
  -29.1171  -20.5592   21.0486 C   0  0  0  0  0  0
  -29.4886  -24.3923   20.2550 C   0  0  0  0  0  0
  -28.1819  -25.2204   20.2975 C   0  0  0  0  0  0
  -29.8770  -15.6120   20.5385 N   0  0  0  0  0  0
  -29.0782  -21.8866   20.3701 N   0  0  0  0  0  0
  -29.6747  -23.0601   22.2198 O   0  0  0  0  0  0
  -31.2888  -15.9769   17.6771 Cl  0  0  0  0  0  0
  -31.4733  -12.4078   19.1527 H   0  0  0  0  0  0
  -30.3262  -11.3163   19.8828 H   0  0  0  0  0  0
  -29.7540  -11.7352   17.4567 H   0  0  0  0  0  0
  -29.6691  -13.4495   17.7582 H   0  0  0  0  0  0
  -27.8421  -11.2857   18.8533 H   0  0  0  0  0  0
  -27.3748  -12.5845   17.7868 H   0  0  0  0  0  0
  -27.6755  -14.2409   19.5173 H   0  0  0  0  0  0
  -28.6742  -12.0394   21.3934 H   0  0  0  0  0  0
  -28.4752  -13.7158   21.8260 H   0  0  0  0  0  0
  -25.2730   -9.5694   22.4777 H   0  0  0  0  0  0
  -24.0001   -7.4626   22.7437 H   0  0  0  0  0  0
  -21.0834   -8.8765   19.8940 H   0  0  0  0  0  0
  -22.3667  -10.9681   19.6187 H   0  0  0  0  0  0
  -21.2039   -7.6160   23.9748 H   0  0  0  0  0  0
  -21.1475   -6.0522   25.9089 H   0  0  0  0  0  0
  -22.0592   -2.7628   23.2824 H   0  0  0  0  0  0
  -22.4024  -11.9998   22.4918 H   0  0  0  0  0  0
  -21.1053  -13.1339   22.2497 H   0  0  0  0  0  0
  -24.6499  -15.8338   20.5130 H   0  0  0  0  0  0
  -26.2639  -15.6307   20.0592 H   0  0  0  0  0  0
  -26.7170  -32.5549   23.1166 H   0  0  0  0  0  0
  -25.0187  -33.9797   25.0568 H   0  0  0  0  0  0
  -22.6972  -31.3149   21.4160 H   0  0  0  0  0  0
  -23.3769  -35.9620   23.3308 H   0  0  0  0  0  0
  -24.3585  -36.8897   22.2045 H   0  0  0  0  0  0
  -23.7240  -37.6512   23.6630 H   0  0  0  0  0  0
  -26.0617  -31.5952   20.6036 H   0  0  0  0  0  0
  -26.8234  -30.8721   21.9922 H   0  0  0  0  0  0
  -28.1061  -29.0681   21.1608 H   0  0  0  0  0  0
  -25.9816  -25.9943   18.9718 H   0  0  0  0  0  0
  -23.9552  -27.3099   19.0453 H   0  0  0  0  0  0
  -23.7270  -30.6083   19.4099 H   0  0  0  0  0  0
  -22.7339  -29.2596   19.8689 H   0  0  0  0  0  0
  -25.1290  -36.1994   25.0843 H   0  0  0  0  0  0
  -20.9981  -28.3252   24.1432 H   0  0  0  0  0  0
  -20.5754  -26.2286   23.3608 H   0  0  0  0  0  0
  -21.6659  -26.7495   22.1176 H   0  0  0  0  0  0
  -19.6920  -25.6306   21.1249 H   0  0  0  0  0  0
  -19.6681  -27.3214   20.6770 H   0  0  0  0  0  0
  -17.4224  -26.6729   21.4016 H   0  0  0  0  0  0
  -18.0286  -26.0058   22.8996 H   0  0  0  0  0  0
  -19.7943  -30.7274   24.2283 H   0  0  0  0  0  0
  -17.5017  -31.6264   24.5177 H   0  0  0  0  0  0
  -15.5358  -30.2981   23.7634 H   0  0  0  0  0  0
  -15.8689  -28.0801   22.7072 H   0  0  0  0  0  0
  -24.5889  -30.7135   25.7815 H   0  0  0  0  0  0
  -24.8975  -32.2924   26.4920 H   0  0  0  0  0  0
  -25.8066  -30.8912   27.0238 H   0  0  0  0  0  0
  -26.2884  -29.6802   24.1173 H   0  0  0  0  0  0
  -27.4132  -29.7297   25.4576 H   0  0  0  0  0  0
  -27.8713  -30.4386   23.9261 H   0  0  0  0  0  0
  -27.2670  -33.3634   26.2095 H   0  0  0  0  0  0
  -28.3846  -32.6940   25.0296 H   0  0  0  0  0  0
  -28.0770  -31.8469   26.5394 H   0  0  0  0  0  0
  -28.2628  -38.0099   24.7512 H   0  0  0  0  0  0
  -28.1090  -36.2634   24.6302 H   0  0  0  0  0  0
  -27.2313  -37.1457   25.8876 H   0  0  0  0  0  0
  -20.9351  -29.8751   21.6917 H   0  0  0  0  0  0
  -26.0215  -38.2893   24.1367 H   0  0  0  0  0  0
  -30.8269  -20.6149   18.8382 H   0  0  0  0  0  0
  -31.6577  -18.7232   17.5241 H   0  0  0  0  0  0
  -29.0101  -17.8756   21.6318 H   0  0  0  0  0  0
  -27.6079  -22.5654   18.9934 H   0  0  0  0  0  0
  -28.1080  -20.9112   18.7436 H   0  0  0  0  0  0
  -29.1846  -22.2196   18.2744 H   0  0  0  0  0  0
  -29.5927  -20.6284   22.0274 H   0  0  0  0  0  0
  -28.0856  -20.2723   21.2559 H   0  0  0  0  0  0
  -29.8247  -24.2480   19.2280 H   0  0  0  0  0  0
  -30.2769  -24.9727   20.7365 H   0  0  0  0  0  0
  -27.6660  -25.0663   21.2467 H   0  0  0  0  0  0
  -27.5450  -24.7990   19.5264 H   0  0  0  0  0  0
  -28.9422  -15.4486   20.8781 H   0  0  0  0  0  0
  1 25  1  0  0  0
  1 30  2  0  0  0
  1 82  1  0  0  0
  2  3  1  0  0  0
  2 25  1  0  0  0
  2 86  1  0  0  0
  2 87  1  0  0  0
  3  4  1  0  0  0
  3 88  1  0  0  0
  3 89  1  0  0  0
  4  5  1  0  0  0
  4 90  1  0  0  0
  4 91  1  0  0  0
  5  6  1  0  0  0
  5 26  1  0  0  0
  5 92  1  0  0  0
  6 25  1  0  0  0
  6 93  1  0  0  0
  6 94  1  0  0  0
  7  8  2  0  0  0
  7 26  1  0  0  0
  7 29  1  0  0  0
  8  9  1  0  0  0
  8 22  1  0  0  0
  9 10  1  0  0  0
  9 27  2  0  0  0
 10 11  2  0  0  0
 10 15  1  0  0  0
 11 12  1  0  0  0
 11 95  1  0  0  0
 12 13  2  0  0  0
 12 96  1  0  0  0
 13 14  1  0  0  0
 13 31  1  0  0  0
 14 15  2  0  0  0
 14 97  1  0  0  0
 15 98  1  0  0  0
 16 17  2  0  0  0
 16 21  1  0  0  0
 16 31  1  0  0  0
 17 18  1  0  0  0
 17 99  1  0  0  0
 18 19  2  0  0  0
 18100  1  0  0  0
 19 20  1  0  0  0
 19 24  1  0  0  0
 20 21  2  0  0  0
 20101  1  0  0  0
 21 23  1  0  0  0
 22 28  1  0  0  0
 22 32  2  0  0  0
 26 27  1  0  0  0
 28102  1  0  0  0
 28103  1  0  0  0
 29104  1  0  0  0
 29105  1  0  0  0
 33 34  1  0  0  0
 33 66  1  0  0  0
 33 70  2  0  0  0
 34 36  1  0  0  0
 34 59  1  0  0  0
 34106  1  0  0  0
 35 44  2  0  0  0
 35 45  1  0  0  0
 35 68  1  0  0  0
 36 56  1  0  0  0
 36107  1  0  0  0
 37 39  1  0  0  0
 37 47  1  0  0  0
 37 66  1  0  0  0
 37108  1  0  0  0
 38 43  2  0  0  0
 38 46  1  0  0  0
 38 47  1  0  0  0
 39 64  1  0  0  0
 39 67  2  0  0  0
 40 52  1  0  0  0
 40 53  2  0  0  0
 40 58  1  0  0  0
 41109  1  0  0  0
 41110  1  0  0  0
 41111  1  0  0  0
 41 48  1  0  0  0
 42 43  1  0  0  0
 42 66  1  0  0  0
 42112  1  0  0  0
 42113  1  0  0  0
 43 44  1  0  0  0
 44114  1  0  0  0
 45 46  2  0  0  0
 45115  1  0  0  0
 46116  1  0  0  0
 47117  1  0  0  0
 47118  1  0  0  0
 48 56  1  0  0  0
 48 65  1  0  0  0
 48119  1  0  0  0
 49 50  1  0  0  0
 49 53  1  0  0  0
 49 64  1  0  0  0
 49120  1  0  0  0
 50 51  1  0  0  0
 50121  1  0  0  0
 50122  1  0  0  0
 51 52  1  0  0  0
 51123  1  0  0  0
 51124  1  0  0  0
 52125  1  0  0  0
 52126  1  0  0  0
 53 54  1  0  0  0
 54 55  2  0  0  0
 54127  1  0  0  0
 55 57  1  0  0  0
 55128  1  0  0  0
 56 69  2  0  0  0
 57 58  2  0  0  0
 57129  1  0  0  0
 58130  1  0  0  0
 59 60  1  0  0  0
 59 61  1  0  0  0
 59 62  1  0  0  0
 60131  1  0  0  0
 60132  1  0  0  0
 60133  1  0  0  0
 61134  1  0  0  0
 61135  1  0  0  0
 61136  1  0  0  0
 62137  1  0  0  0
 62138  1  0  0  0
 62139  1  0  0  0
 63 65  1  0  0  0
 63140  1  0  0  0
 63141  1  0  0  0
 63142  1  0  0  0
 64143  1  0  0  0
 65144  1  0  0  0
 68 81  1  0  0  0
 71 72  2  0  0  0
 71 74  1  0  0  0
 71145  1  0  0  0
 72 76  1  0  0  0
 72146  1  0  0  0
 73 74  2  0  0  0
 73 75  1  0  0  0
 73147  1  0  0  0
 74 79  1  0  0  0
 75 76  2  0  0  0
 75 82  1  0  0  0
 76 85  1  0  0  0
 77 80  1  0  0  0
 77 83  1  0  0  0
 77 84  2  0  0  0
 78 83  1  0  0  0
 78148  1  0  0  0
 78149  1  0  0  0
 78150  1  0  0  0
 79 83  1  0  0  0
 79151  1  0  0  0
 79152  1  0  0  0
 80 81  1  0  0  0
 80153  1  0  0  0
 80154  1  0  0  0
 81155  1  0  0  0
 81156  1  0  0  0
 82157  1  0  0  0
M  ISO  4   1 100  68 101  81 101  82 100
M  END
> <chiral flag>
0

> <version>
0

> <s_m_source_file>
/data/baiqing/PycharmProjects/Reinvent-master-3.2/result/LINK_invent/BTK/process_docking_weight1_custom_product_contain_oxygen_bond_distance_aromatic_linkinvent_7_9_3/rearranged_h_0051.sdf

> <i_m_source_file_index>
96

> <r_mmod_Potential_Energy-OPLS-2005>
-33.3303108215332

> <r_mmod_Stretch_Energy-OPLS-2005>
46.5307731628418

> <r_mmod_Bend_Energy-OPLS-2005>
102.506271362305

> <r_mmod_Torsional_Energy-OPLS-2005>
263.532958984375

> <r_mmod_Improper_Torsional_Energy-OPLS-2005>
6.92274618148804

> <r_mmod_Van_der_Waal_Energy-OPLS-2005>
168.296127319336

> <r_mmod_Electrostatic_Energy-OPLS-2005>
-410.304321289062

> <r_mmod_Solvation_Energy-OPLS-2005>
-237.229721069336

> <b_mmod_Minimization_Converged-OPLS-2005>
0

> <r_mmod_RMS_Derivative-OPLS-2005>
3.14687299728394

$$$$
96
                    3D
 Structure written by MMmdl.
157165  0  0  1  0            999 V2000
  -30.6847  -14.4844   20.5172 C   0  0  0  0  0  0
  -30.4165  -12.2956   19.4259 C   0  0  0  0  0  0
  -29.4923  -12.4868   18.2047 C   0  0  0  0  0  0
  -28.0140  -12.3461   18.6199 C   0  0  0  0  0  0
  -27.6561  -13.2006   19.8661 C   0  0  2  0  0  0
  -28.6990  -13.0056   20.9895 C   0  0  0  0  0  0
  -25.2606  -13.8155   20.5705 C   0  0  0  0  0  0
  -24.1837  -13.0438   20.9182 C   0  0  0  0  0  0
  -24.6372  -11.6901   20.8726 C   0  0  0  0  0  0
  -23.9035  -10.4291   21.0394 C   0  0  0  0  0  0
  -24.3596   -9.4209   21.9172 C   0  0  0  0  0  0
  -23.6284   -8.2238   22.0750 C   0  0  0  0  0  0
  -22.4268   -8.0270   21.3541 C   0  0  0  0  0  0
  -21.9892   -9.0236   20.4641 C   0  0  0  0  0  0
  -22.7207  -10.2124   20.3044 C   0  0  0  0  0  0
  -21.6843   -6.0734   22.5276 C   0  0  0  0  0  0
  -21.4014   -6.5642   23.8210 C   0  0  0  0  0  0
  -21.3659   -5.6795   24.9173 C   0  0  0  0  0  0
  -21.6039   -4.3058   24.7224 C   0  0  0  0  0  0
  -21.8818   -3.8151   23.4347 C   0  0  0  0  0  0
  -21.9195   -4.6965   22.3404 C   0  0  0  0  0  0
  -22.7870  -13.5251   21.1855 C   0  0  0  0  0  0
  -22.1664   -4.2149   21.0982 F   0  0  0  0  0  0
  -21.5621   -3.4541   25.7741 F   0  0  0  0  0  0
  -30.0240  -13.2994   20.4263 N   0  0  0  0  0  0
  -26.2998  -12.9293   20.3336 N   0  0  0  0  0  0
  -25.9290  -11.6461   20.5748 N   0  0  0  0  0  0
  -22.0519  -12.8226   22.0407 N   0  0  0  0  0  0
  -25.4398  -15.1871   20.4146 N   0  0  0  0  0  0
  -31.8405  -14.6413   20.1221 O   0  0  0  0  0  0
  -21.6631   -6.8869   21.4236 O   0  0  0  0  0  0
  -22.3544  -14.5547   20.6703 O   0  0  0  0  0  0
  -24.6195  -31.8653   23.2081 C   0  0  0  0  0  0
  -25.9071  -32.4810   23.8382 C   0  0  1  0  0  0
  -27.2296  -27.3948   20.0925 C   0  0  0  0  0  0
  -25.5907  -33.8609   24.2313 N   0  0  0  0  0  0
  -23.4093  -30.4922   21.5484 C   0  0  2  0  0  0
  -24.8505  -28.9484   20.1202 C   0  0  0  0  0  0
  -22.7428  -29.4674   22.4950 C   0  0  0  0  0  0
  -18.0301  -28.1355   22.8483 C   0  0  0  0  0  0
  -24.1498  -36.7309   23.2645 C   0  0  0  0  0  0
  -25.9449  -30.8142   21.3720 C   0  0  0  0  0  0
  -26.0150  -29.4479   20.7142 C   0  0  0  0  0  0
  -27.2045  -28.6801   20.6924 C   0  0  0  0  0  0
  -26.0332  -26.9107   19.5098 C   0  0  0  0  0  0
  -24.8551  -27.6800   19.5190 C   0  0  0  0  0  0
  -23.6195  -29.8250   20.1647 C   0  0  0  0  0  0
  -25.4124  -36.3115   24.0349 C   0  0  1  0  0  0
  -20.5886  -28.3686   23.1284 C   0  0  2  0  0  0
  -20.6792  -26.9412   22.5413 C   0  0  0  0  0  0
  -19.5791  -26.6380   21.5204 C   0  0  0  0  0  0
  -18.1958  -26.7911   22.1611 C   0  0  0  0  0  0
  -19.1541  -28.8837   23.2890 C   0  0  0  0  0  0
  -18.9458  -30.1442   23.8907 C   0  0  0  0  0  0
  -17.6460  -30.6575   24.0547 C   0  0  0  0  0  0
  -25.9051  -34.9474   23.5139 C   0  0  0  0  0  0
  -16.5358  -29.9055   23.6313 C   0  0  0  0  0  0
  -16.7289  -28.6472   23.0330 C   0  0  0  0  0  0
  -26.4477  -31.6601   25.0728 C   0  0  0  0  0  0
  -25.3752  -31.3685   26.1477 C   0  0  0  0  0  0
  -27.0318  -30.3049   24.6134 C   0  0  0  0  0  0
  -27.6056  -32.4326   25.7462 C   0  0  0  0  0  0
  -27.5592  -37.1814   24.8471 C   0  0  0  0  0  0
  -21.4152  -29.3061   22.3682 N   0  0  0  0  0  0
  -26.4311  -37.3796   23.9406 N   0  0  0  0  0  0
  -24.6766  -31.0730   22.0996 N   0  0  0  0  0  0
  -23.4171  -28.8208   23.3007 O   0  0  0  0  0  0
  -28.4226  -26.6859   20.0897 O   0  0  0  0  0  0
  -26.5613  -34.8929   22.4701 O   0  0  0  0  0  0
  -23.5388  -32.1402   23.7467 O   0  0  0  0  0  0
  -28.0356  -18.2235   21.9231 C   0  0  0  0  0  0
  -30.3742  -18.6963   21.4918 C   0  0  0  0  0  0
  -29.3541  -17.7522   21.7464 C   0  0  0  0  0  0
  -28.7832  -20.5580   21.7313 C   0  0  0  0  0  0
  -27.7526  -19.6084   21.9243 C   0  0  0  0  0  0
  -30.0941  -20.0833   21.4903 C   0  0  0  0  0  0
  -28.4338  -24.3244   20.9097 C   0  0  0  0  0  0
  -28.3250  -22.3761   19.3842 C   0  0  0  0  0  0
  -29.6697  -16.2596   21.9012 C   0  0  0  0  0  0
  -28.4979  -22.0657   21.9036 C   0  0  0  0  0  0
  -28.4844  -25.2898   19.6919 C   0  0  0  0  0  0
  -29.9000  -15.5681   20.6358 N   0  0  0  0  0  0
  -28.4514  -22.9696   20.7221 N   0  0  0  0  0  0
  -28.4151  -24.8164   22.0440 O   0  0  0  0  0  0
  -26.4825  -20.0216   22.1529 F   0  0  0  0  0  0
  -31.1030  -20.9663   21.3013 F   0  0  0  0  0  0
  -31.4628  -12.3860   19.1270 H   0  0  0  0  0  0
  -30.3087  -11.2901   19.8376 H   0  0  0  0  0  0
  -29.7342  -11.7583   17.4289 H   0  0  0  0  0  0
  -29.6583  -13.4710   17.7640 H   0  0  0  0  0  0
  -27.8314  -11.2919   18.8324 H   0  0  0  0  0  0
  -27.3606  -12.6028   17.7852 H   0  0  0  0  0  0
  -27.6918  -14.2422   19.5481 H   0  0  0  0  0  0
  -28.6721  -11.9817   21.3637 H   0  0  0  0  0  0
  -28.4700  -13.6379   21.8457 H   0  0  0  0  0  0
  -25.2740   -9.5692   22.4740 H   0  0  0  0  0  0
  -24.0001   -7.4626   22.7468 H   0  0  0  0  0  0
  -21.0823   -8.8741   19.8939 H   0  0  0  0  0  0
  -22.3657  -10.9660   19.6149 H   0  0  0  0  0  0
  -21.2005   -7.6150   23.9711 H   0  0  0  0  0  0
  -21.1483   -6.0529   25.9075 H   0  0  0  0  0  0
  -22.0602   -2.7616   23.2845 H   0  0  0  0  0  0
  -22.4147  -11.9867   22.4758 H   0  0  0  0  0  0
  -21.1132  -13.1232   22.2621 H   0  0  0  0  0  0
  -24.6835  -15.8535   20.5239 H   0  0  0  0  0  0
  -26.3074  -15.6143   20.1126 H   0  0  0  0  0  0
  -26.7133  -32.5496   23.1124 H   0  0  0  0  0  0
  -25.0041  -33.9751   25.0452 H   0  0  0  0  0  0
  -22.7027  -31.3126   21.4076 H   0  0  0  0  0  0
  -23.3770  -35.9628   23.3317 H   0  0  0  0  0  0
  -24.3593  -36.8911   22.2055 H   0  0  0  0  0  0
  -23.7225  -37.6515   23.6641 H   0  0  0  0  0  0
  -26.0821  -31.5818   20.6093 H   0  0  0  0  0  0
  -26.8243  -30.8499   22.0030 H   0  0  0  0  0  0
  -28.1065  -29.0643   21.1471 H   0  0  0  0  0  0
  -25.9622  -25.9447   19.0384 H   0  0  0  0  0  0
  -23.9547  -27.2864   19.0667 H   0  0  0  0  0  0
  -23.7417  -30.5994   19.4066 H   0  0  0  0  0  0
  -22.7390  -29.2550   19.8624 H   0  0  0  0  0  0
  -25.1298  -36.1994   25.0843 H   0  0  0  0  0  0
  -20.9993  -28.3247   24.1394 H   0  0  0  0  0  0
  -20.5690  -26.2282   23.3595 H   0  0  0  0  0  0
  -21.6671  -26.7461   22.1207 H   0  0  0  0  0  0
  -19.6994  -25.6289   21.1234 H   0  0  0  0  0  0
  -19.6737  -27.3192   20.6734 H   0  0  0  0  0  0
  -17.4229  -26.6673   21.4012 H   0  0  0  0  0  0
  -18.0355  -26.0039   22.8991 H   0  0  0  0  0  0
  -19.7924  -30.7262   24.2293 H   0  0  0  0  0  0
  -17.5005  -31.6255   24.5137 H   0  0  0  0  0  0
  -15.5356  -30.2949   23.7655 H   0  0  0  0  0  0
  -15.8698  -28.0790   22.7018 H   0  0  0  0  0  0
  -24.5897  -30.7074   25.7785 H   0  0  0  0  0  0
  -24.8978  -32.2831   26.5011 H   0  0  0  0  0  0
  -25.8113  -30.8765   27.0185 H   0  0  0  0  0  0
  -26.2855  -29.6780   24.1241 H   0  0  0  0  0  0
  -27.4135  -29.7309   25.4587 H   0  0  0  0  0  0
  -27.8673  -30.4361   23.9254 H   0  0  0  0  0  0
  -27.2678  -33.3598   26.2095 H   0  0  0  0  0  0
  -28.3803  -32.6946   25.0242 H   0  0  0  0  0  0
  -28.0796  -31.8435   26.5319 H   0  0  0  0  0  0
  -28.2634  -38.0089   24.7516 H   0  0  0  0  0  0
  -28.1068  -36.2632   24.6311 H   0  0  0  0  0  0
  -27.2308  -37.1469   25.8872 H   0  0  0  0  0  0
  -20.9340  -29.8767   21.6871 H   0  0  0  0  0  0
  -26.0222  -38.2889   24.1381 H   0  0  0  0  0  0
  -27.2329  -17.5221   22.1046 H   0  0  0  0  0  0
  -31.3916  -18.3605   21.3450 H   0  0  0  0  0  0
  -29.1563  -22.6794   18.7460 H   0  0  0  0  0  0
  -27.3970  -22.6987   18.9106 H   0  0  0  0  0  0
  -28.3054  -21.2879   19.3796 H   0  0  0  0  0  0
  -30.5535  -16.1597   22.5357 H   0  0  0  0  0  0
  -28.8531  -15.7746   22.4363 H   0  0  0  0  0  0
  -29.2659  -22.4345   22.5871 H   0  0  0  0  0  0
  -27.5596  -22.1812   22.4477 H   0  0  0  0  0  0
  -27.7662  -25.0124   18.9259 H   0  0  0  0  0  0
  -29.4536  -25.1419   19.2152 H   0  0  0  0  0  0
  -30.1304  -16.2439   19.9229 H   0  0  0  0  0  0
  1 25  1  0  0  0
  1 30  2  0  0  0
  1 82  1  0  0  0
  2  3  1  0  0  0
  2 25  1  0  0  0
  2 87  1  0  0  0
  2 88  1  0  0  0
  3  4  1  0  0  0
  3 89  1  0  0  0
  3 90  1  0  0  0
  4  5  1  0  0  0
  4 91  1  0  0  0
  4 92  1  0  0  0
  5  6  1  0  0  0
  5 26  1  0  0  0
  5 93  1  0  0  0
  6 25  1  0  0  0
  6 94  1  0  0  0
  6 95  1  0  0  0
  7  8  2  0  0  0
  7 26  1  0  0  0
  7 29  1  0  0  0
  8  9  1  0  0  0
  8 22  1  0  0  0
  9 10  1  0  0  0
  9 27  2  0  0  0
 10 11  2  0  0  0
 10 15  1  0  0  0
 11 12  1  0  0  0
 11 96  1  0  0  0
 12 13  2  0  0  0
 12 97  1  0  0  0
 13 14  1  0  0  0
 13 31  1  0  0  0
 14 15  2  0  0  0
 14 98  1  0  0  0
 15 99  1  0  0  0
 16 17  2  0  0  0
 16 21  1  0  0  0
 16 31  1  0  0  0
 17 18  1  0  0  0
 17100  1  0  0  0
 18 19  2  0  0  0
 18101  1  0  0  0
 19 20  1  0  0  0
 19 24  1  0  0  0
 20 21  2  0  0  0
 20102  1  0  0  0
 21 23  1  0  0  0
 22 28  1  0  0  0
 22 32  2  0  0  0
 26 27  1  0  0  0
 28103  1  0  0  0
 28104  1  0  0  0
 29105  1  0  0  0
 29106  1  0  0  0
 33 34  1  0  0  0
 33 66  1  0  0  0
 33 70  2  0  0  0
 34 36  1  0  0  0
 34 59  1  0  0  0
 34107  1  0  0  0
 35 44  2  0  0  0
 35 45  1  0  0  0
 35 68  1  0  0  0
 36 56  1  0  0  0
 36108  1  0  0  0
 37 39  1  0  0  0
 37 47  1  0  0  0
 37 66  1  0  0  0
 37109  1  0  0  0
 38 43  2  0  0  0
 38 46  1  0  0  0
 38 47  1  0  0  0
 39 64  1  0  0  0
 39 67  2  0  0  0
 40 52  1  0  0  0
 40 53  2  0  0  0
 40 58  1  0  0  0
 41110  1  0  0  0
 41111  1  0  0  0
 41112  1  0  0  0
 41 48  1  0  0  0
 42 43  1  0  0  0
 42 66  1  0  0  0
 42113  1  0  0  0
 42114  1  0  0  0
 43 44  1  0  0  0
 44115  1  0  0  0
 45 46  2  0  0  0
 45116  1  0  0  0
 46117  1  0  0  0
 47118  1  0  0  0
 47119  1  0  0  0
 48 56  1  0  0  0
 48 65  1  0  0  0
 48120  1  0  0  0
 49 50  1  0  0  0
 49 53  1  0  0  0
 49 64  1  0  0  0
 49121  1  0  0  0
 50 51  1  0  0  0
 50122  1  0  0  0
 50123  1  0  0  0
 51 52  1  0  0  0
 51124  1  0  0  0
 51125  1  0  0  0
 52126  1  0  0  0
 52127  1  0  0  0
 53 54  1  0  0  0
 54 55  2  0  0  0
 54128  1  0  0  0
 55 57  1  0  0  0
 55129  1  0  0  0
 56 69  2  0  0  0
 57 58  2  0  0  0
 57130  1  0  0  0
 58131  1  0  0  0
 59 60  1  0  0  0
 59 61  1  0  0  0
 59 62  1  0  0  0
 60132  1  0  0  0
 60133  1  0  0  0
 60134  1  0  0  0
 61135  1  0  0  0
 61136  1  0  0  0
 61137  1  0  0  0
 62138  1  0  0  0
 62139  1  0  0  0
 62140  1  0  0  0
 63 65  1  0  0  0
 63141  1  0  0  0
 63142  1  0  0  0
 63143  1  0  0  0
 64144  1  0  0  0
 65145  1  0  0  0
 68 81  1  0  0  0
 71 73  2  0  0  0
 71 75  1  0  0  0
 71146  1  0  0  0
 72 73  1  0  0  0
 72 76  2  0  0  0
 72147  1  0  0  0
 73 79  1  0  0  0
 74 75  2  0  0  0
 74 76  1  0  0  0
 74 80  1  0  0  0
 75 85  1  0  0  0
 76 86  1  0  0  0
 77 81  1  0  0  0
 77 83  1  0  0  0
 77 84  2  0  0  0
 78 83  1  0  0  0
 78148  1  0  0  0
 78149  1  0  0  0
 78150  1  0  0  0
 79 82  1  0  0  0
 79151  1  0  0  0
 79152  1  0  0  0
 80 83  1  0  0  0
 80153  1  0  0  0
 80154  1  0  0  0
 81155  1  0  0  0
 81156  1  0  0  0
 82157  1  0  0  0
M  ISO  4   1 100  68 101  81 101  82 100
M  END
> <chiral flag>
0

> <version>
0

> <s_m_source_file>
/data/baiqing/PycharmProjects/Reinvent-master-3.2/result/LINK_invent/BTK/process_docking_weight1_custom_product_contain_oxygen_bond_distance_aromatic_linkinvent_7_9_3/rearranged_h_0051.sdf

> <i_m_source_file_index>
97

> <r_mmod_Potential_Energy-OPLS-2005>
1.43179988861084

> <r_mmod_Stretch_Energy-OPLS-2005>
44.3265151977539

> <r_mmod_Bend_Energy-OPLS-2005>
117.969345092773

> <r_mmod_Torsional_Energy-OPLS-2005>
279.317535400391

> <r_mmod_Improper_Torsional_Energy-OPLS-2005>
17.8808898925781

> <r_mmod_Van_der_Waal_Energy-OPLS-2005>
155.697448730469

> <r_mmod_Electrostatic_Energy-OPLS-2005>
-405.504852294922

> <r_mmod_Solvation_Energy-OPLS-2005>
-226.173751831055

> <b_mmod_Minimization_Converged-OPLS-2005>
0

> <r_mmod_RMS_Derivative-OPLS-2005>
2.18142247200012

$$$$
97
                    3D
 Structure written by MMmdl.
161170  0  0  1  0            999 V2000
  -30.7063  -14.4268   20.5477 C   0  0  0  0  0  0
  -30.4202  -12.2692   19.4017 C   0  0  0  0  0  0
  -29.4831  -12.5018   18.1972 C   0  0  0  0  0  0
  -28.0048  -12.3714   18.6165 C   0  0  0  0  0  0
  -27.6659  -13.1984   19.8852 C   0  0  2  0  0  0
  -28.7137  -12.9489   20.9945 C   0  0  0  0  0  0
  -25.2636  -13.8149   20.5732 C   0  0  0  0  0  0
  -24.1862  -13.0425   20.9203 C   0  0  0  0  0  0
  -24.6399  -11.6887   20.8739 C   0  0  0  0  0  0
  -23.9070  -10.4269   21.0403 C   0  0  0  0  0  0
  -24.3616   -9.4178   21.9189 C   0  0  0  0  0  0
  -23.6286   -8.2211   22.0760 C   0  0  0  0  0  0
  -22.4283   -8.0251   21.3531 C   0  0  0  0  0  0
  -21.9917   -9.0234   20.4629 C   0  0  0  0  0  0
  -22.7243  -10.2120   20.3064 C   0  0  0  0  0  0
  -21.6842   -6.0735   22.5283 C   0  0  0  0  0  0
  -21.3995   -6.5644   23.8220 C   0  0  0  0  0  0
  -21.3658   -5.6802   24.9177 C   0  0  0  0  0  0
  -21.6059   -4.3065   24.7230 C   0  0  0  0  0  0
  -21.8815   -3.8166   23.4345 C   0  0  0  0  0  0
  -21.9193   -4.6973   22.3403 C   0  0  0  0  0  0
  -22.7881  -13.5219   21.1865 C   0  0  0  0  0  0
  -22.1657   -4.2161   21.0964 F   0  0  0  0  0  0
  -21.5644   -3.4564   25.7736 F   0  0  0  0  0  0
  -30.0470  -13.2431   20.4380 N   0  0  0  0  0  0
  -26.3058  -12.9297   20.3458 N   0  0  0  0  0  0
  -25.9337  -11.6450   20.5831 N   0  0  0  0  0  0
  -22.0524  -12.8169   22.0401 N   0  0  0  0  0  0
  -25.4392  -15.1867   20.4081 N   0  0  0  0  0  0
  -31.8398  -14.6001   20.0907 O   0  0  0  0  0  0
  -21.6623   -6.8879   21.4237 O   0  0  0  0  0  0
  -22.3564  -14.5535   20.6759 O   0  0  0  0  0  0
  -24.6130  -31.8684   23.2088 C   0  0  0  0  0  0
  -25.9028  -32.4803   23.8359 C   0  0  1  0  0  0
  -27.2243  -27.4315   20.0528 C   0  0  0  0  0  0
  -25.5894  -33.8600   24.2303 N   0  0  0  0  0  0
  -23.3987  -30.4925   21.5573 C   0  0  2  0  0  0
  -24.8345  -28.9600   20.1150 C   0  0  0  0  0  0
  -22.7401  -29.4646   22.5060 C   0  0  0  0  0  0
  -18.0262  -28.1376   22.8490 C   0  0  0  0  0  0
  -24.1457  -36.7257   23.2630 C   0  0  0  0  0  0
  -25.9270  -30.8221   21.3642 C   0  0  0  0  0  0
  -25.9960  -29.4534   20.7203 C   0  0  0  0  0  0
  -27.1873  -28.6880   20.7030 C   0  0  0  0  0  0
  -26.0355  -26.9552   19.4514 C   0  0  0  0  0  0
  -24.8501  -27.7081   19.4822 C   0  0  0  0  0  0
  -23.5991  -29.8311   20.1694 C   0  0  0  0  0  0
  -25.4067  -36.3077   24.0352 C   0  0  1  0  0  0
  -20.5855  -28.3630   23.1334 C   0  0  2  0  0  0
  -20.6735  -26.9364   22.5427 C   0  0  0  0  0  0
  -19.5712  -26.6380   21.5209 C   0  0  0  0  0  0
  -18.1896  -26.7917   22.1627 C   0  0  0  0  0  0
  -19.1518  -28.8830   23.2911 C   0  0  0  0  0  0
  -18.9455  -30.1448   23.8904 C   0  0  0  0  0  0
  -17.6460  -30.6573   24.0565 C   0  0  0  0  0  0
  -25.9044  -34.9473   23.5135 C   0  0  0  0  0  0
  -16.5348  -29.9080   23.6339 C   0  0  0  0  0  0
  -16.7253  -28.6510   23.0336 C   0  0  0  0  0  0
  -26.4440  -31.6549   25.0682 C   0  0  0  0  0  0
  -25.3729  -31.3635   26.1461 C   0  0  0  0  0  0
  -27.0185  -30.2976   24.5993 C   0  0  0  0  0  0
  -27.6046  -32.4224   25.7421 C   0  0  0  0  0  0
  -27.5597  -37.1722   24.8440 C   0  0  0  0  0  0
  -21.4141  -29.3001   22.3787 N   0  0  0  0  0  0
  -26.4206  -37.3817   23.9528 N   0  0  0  0  0  0
  -24.6656  -31.0758   22.1019 N   0  0  0  0  0  0
  -23.4174  -28.8191   23.3106 O   0  0  0  0  0  0
  -28.4125  -26.7225   20.0212 O   0  0  0  0  0  0
  -26.5651  -34.8949   22.4729 O   0  0  0  0  0  0
  -23.5343  -32.1462   23.7505 O   0  0  0  0  0  0
  -29.1212  -19.0406   21.4244 C   0  0  0  0  0  0
  -31.1874  -18.8948   20.1634 C   0  0  0  0  0  0
  -29.0720  -17.6312   21.5006 C   0  0  0  0  0  0
  -31.1578  -17.4896   20.2637 C   0  0  0  0  0  0
  -30.1716  -19.6925   20.7388 C   0  0  0  0  0  0
  -30.0971  -16.8354   20.9423 C   0  0  0  0  0  0
  -29.1737  -23.3848   20.2223 C   0  0  0  0  0  0
  -26.9482  -22.1178   18.8795 C   0  0  0  0  0  0
  -27.3737  -23.4986   18.4011 C   0  0  0  0  0  0
  -28.1922  -21.3021   19.2363 C   0  0  0  0  0  0
  -28.0707  -24.2556   19.5502 C   0  0  2  0  0  0
  -30.2788  -21.2256   20.6630 C   0  0  0  0  0  0
  -28.5672  -25.6545   19.0655 C   0  0  0  0  0  0
  -29.1549  -22.0204   20.0983 N   0  0  0  0  0  0
  -29.9743  -15.4182   21.0878 N   0  0  0  0  0  0
  -30.0482  -23.9629   20.8770 O   0  0  0  0  0  0
  -31.4629  -12.3536   19.0910 H   0  0  0  0  0  0
  -30.3084  -11.2506   19.7810 H   0  0  0  0  0  0
  -29.7016  -11.7922   17.3997 H   0  0  0  0  0  0
  -29.6575  -13.4965   17.7841 H   0  0  0  0  0  0
  -27.8075  -11.3133   18.7987 H   0  0  0  0  0  0
  -27.3496  -12.6641   17.7933 H   0  0  0  0  0  0
  -27.7202  -14.2507   19.6057 H   0  0  0  0  0  0
  -28.6799  -11.9040   21.3101 H   0  0  0  0  0  0
  -28.4936  -13.5262   21.8929 H   0  0  0  0  0  0
  -25.2755   -9.5656   22.4753 H   0  0  0  0  0  0
  -24.0020   -7.4611   22.7479 H   0  0  0  0  0  0
  -21.0877   -8.8725   19.8911 H   0  0  0  0  0  0
  -22.3705  -10.9659   19.6178 H   0  0  0  0  0  0
  -21.1951   -7.6145   23.9732 H   0  0  0  0  0  0
  -21.1495   -6.0519   25.9079 H   0  0  0  0  0  0
  -22.0601   -2.7631   23.2849 H   0  0  0  0  0  0
  -22.4157  -11.9789   22.4682 H   0  0  0  0  0  0
  -21.1141  -13.1164   22.2625 H   0  0  0  0  0  0
  -24.6832  -15.8512   20.5263 H   0  0  0  0  0  0
  -26.2876  -15.6158   20.0601 H   0  0  0  0  0  0
  -26.7088  -32.5476   23.1112 H   0  0  0  0  0  0
  -24.9981  -33.9753   25.0405 H   0  0  0  0  0  0
  -22.6865  -31.3110   21.4271 H   0  0  0  0  0  0
  -23.3799  -35.9490   23.3097 H   0  0  0  0  0  0
  -24.3606  -36.9076   22.2087 H   0  0  0  0  0  0
  -23.7073  -37.6340   23.6769 H   0  0  0  0  0  0
  -26.0413  -31.5781   20.5853 H   0  0  0  0  0  0
  -26.8151  -30.8781   21.9800 H   0  0  0  0  0  0
  -28.0849  -29.0636   21.1728 H   0  0  0  0  0  0
  -25.9955  -26.0088   18.9370 H   0  0  0  0  0  0
  -23.9586  -27.3302   18.9969 H   0  0  0  0  0  0
  -23.7056  -30.6092   19.4132 H   0  0  0  0  0  0
  -22.7143  -29.2626   19.8764 H   0  0  0  0  0  0
  -25.1211  -36.1885   25.0828 H   0  0  0  0  0  0
  -20.9926  -28.3148   24.1459 H   0  0  0  0  0  0
  -20.5582  -26.2233   23.3601 H   0  0  0  0  0  0
  -21.6602  -26.7345   22.1257 H   0  0  0  0  0  0
  -19.6853  -25.6300   21.1210 H   0  0  0  0  0  0
  -19.6647  -27.3223   20.6765 H   0  0  0  0  0  0
  -17.4151  -26.6680   21.4041 H   0  0  0  0  0  0
  -18.0271  -26.0043   22.9007 H   0  0  0  0  0  0
  -19.7927  -30.7299   24.2226 H   0  0  0  0  0  0
  -17.4994  -31.6243   24.5183 H   0  0  0  0  0  0
  -15.5357  -30.2993   23.7653 H   0  0  0  0  0  0
  -15.8646  -28.0861   22.7015 H   0  0  0  0  0  0
  -24.5965  -30.6891   25.7844 H   0  0  0  0  0  0
  -24.8850  -32.2763   26.4881 H   0  0  0  0  0  0
  -25.8141  -30.8872   27.0232 H   0  0  0  0  0  0
  -26.2646  -29.6793   24.1102 H   0  0  0  0  0  0
  -27.4023  -29.7168   25.4391 H   0  0  0  0  0  0
  -27.8468  -30.4307   23.9034 H   0  0  0  0  0  0
  -27.2747  -33.3649   26.1803 H   0  0  0  0  0  0
  -28.3916  -32.6536   25.0232 H   0  0  0  0  0  0
  -28.0556  -31.8401   26.5473 H   0  0  0  0  0  0
  -28.2434  -38.0198   24.7774 H   0  0  0  0  0  0
  -28.1279  -36.2774   24.5854 H   0  0  0  0  0  0
  -27.2413  -37.0859   25.8847 H   0  0  0  0  0  0
  -20.9324  -29.8734   21.7013 H   0  0  0  0  0  0
  -26.0070  -38.2831   24.1753 H   0  0  0  0  0  0
  -28.3369  -19.6226   21.8895 H   0  0  0  0  0  0
  -32.0155  -19.3594   19.6485 H   0  0  0  0  0  0
  -28.2358  -17.1597   22.0003 H   0  0  0  0  0  0
  -31.9689  -16.9464   19.8007 H   0  0  0  0  0  0
  -26.3653  -21.6030   18.1157 H   0  0  0  0  0  0
  -26.2997  -22.2068   19.7532 H   0  0  0  0  0  0
  -26.5009  -24.0444   18.0430 H   0  0  0  0  0  0
  -28.0403  -23.3975   17.5429 H   0  0  0  0  0  0
  -28.7113  -20.9987   18.3248 H   0  0  0  0  0  0
  -27.8361  -20.3875   19.7038 H   0  0  0  0  0  0
  -27.3211  -24.4296   20.3209 H   0  0  0  0  0  0
  -31.1621  -21.4652   20.0702 H   0  0  0  0  0  0
  -30.5055  -21.5766   21.6736 H   0  0  0  0  0  0
  -28.0865  -25.9347   18.1268 H   0  0  0  0  0  0
  -29.6244  -25.5968   18.8035 H   0  0  0  0  0  0
  -29.1089  -15.0953   21.4917 H   0  0  0  0  0  0
  1 25  1  0  0  0
  1 30  2  0  0  0
  1 85  1  0  0  0
  2  3  1  0  0  0
  2 25  1  0  0  0
  2 87  1  0  0  0
  2 88  1  0  0  0
  3  4  1  0  0  0
  3 89  1  0  0  0
  3 90  1  0  0  0
  4  5  1  0  0  0
  4 91  1  0  0  0
  4 92  1  0  0  0
  5  6  1  0  0  0
  5 26  1  0  0  0
  5 93  1  0  0  0
  6 25  1  0  0  0
  6 94  1  0  0  0
  6 95  1  0  0  0
  7  8  2  0  0  0
  7 26  1  0  0  0
  7 29  1  0  0  0
  8  9  1  0  0  0
  8 22  1  0  0  0
  9 10  1  0  0  0
  9 27  2  0  0  0
 10 11  2  0  0  0
 10 15  1  0  0  0
 11 12  1  0  0  0
 11 96  1  0  0  0
 12 13  2  0  0  0
 12 97  1  0  0  0
 13 14  1  0  0  0
 13 31  1  0  0  0
 14 15  2  0  0  0
 14 98  1  0  0  0
 15 99  1  0  0  0
 16 17  2  0  0  0
 16 21  1  0  0  0
 16 31  1  0  0  0
 17 18  1  0  0  0
 17100  1  0  0  0
 18 19  2  0  0  0
 18101  1  0  0  0
 19 20  1  0  0  0
 19 24  1  0  0  0
 20 21  2  0  0  0
 20102  1  0  0  0
 21 23  1  0  0  0
 22 28  1  0  0  0
 22 32  2  0  0  0
 26 27  1  0  0  0
 28103  1  0  0  0
 28104  1  0  0  0
 29105  1  0  0  0
 29106  1  0  0  0
 33 34  1  0  0  0
 33 66  1  0  0  0
 33 70  2  0  0  0
 34 36  1  0  0  0
 34 59  1  0  0  0
 34107  1  0  0  0
 35 44  2  0  0  0
 35 45  1  0  0  0
 35 68  1  0  0  0
 36 56  1  0  0  0
 36108  1  0  0  0
 37 39  1  0  0  0
 37 47  1  0  0  0
 37 66  1  0  0  0
 37109  1  0  0  0
 38 43  2  0  0  0
 38 46  1  0  0  0
 38 47  1  0  0  0
 39 64  1  0  0  0
 39 67  2  0  0  0
 40 52  1  0  0  0
 40 53  2  0  0  0
 40 58  1  0  0  0
 41110  1  0  0  0
 41111  1  0  0  0
 41112  1  0  0  0
 41 48  1  0  0  0
 42 43  1  0  0  0
 42 66  1  0  0  0
 42113  1  0  0  0
 42114  1  0  0  0
 43 44  1  0  0  0
 44115  1  0  0  0
 45 46  2  0  0  0
 45116  1  0  0  0
 46117  1  0  0  0
 47118  1  0  0  0
 47119  1  0  0  0
 48 56  1  0  0  0
 48 65  1  0  0  0
 48120  1  0  0  0
 49 50  1  0  0  0
 49 53  1  0  0  0
 49 64  1  0  0  0
 49121  1  0  0  0
 50 51  1  0  0  0
 50122  1  0  0  0
 50123  1  0  0  0
 51 52  1  0  0  0
 51124  1  0  0  0
 51125  1  0  0  0
 52126  1  0  0  0
 52127  1  0  0  0
 53 54  1  0  0  0
 54 55  2  0  0  0
 54128  1  0  0  0
 55 57  1  0  0  0
 55129  1  0  0  0
 56 69  2  0  0  0
 57 58  2  0  0  0
 57130  1  0  0  0
 58131  1  0  0  0
 59 60  1  0  0  0
 59 61  1  0  0  0
 59 62  1  0  0  0
 60132  1  0  0  0
 60133  1  0  0  0
 60134  1  0  0  0
 61135  1  0  0  0
 61136  1  0  0  0
 61137  1  0  0  0
 62138  1  0  0  0
 62139  1  0  0  0
 62140  1  0  0  0
 63 65  1  0  0  0
 63141  1  0  0  0
 63142  1  0  0  0
 63143  1  0  0  0
 64144  1  0  0  0
 65145  1  0  0  0
 68 83  1  0  0  0
 71 73  2  0  0  0
 71 75  1  0  0  0
 71146  1  0  0  0
 72 74  1  0  0  0
 72 75  2  0  0  0
 72147  1  0  0  0
 73 76  1  0  0  0
 73148  1  0  0  0
 74 76  2  0  0  0
 74149  1  0  0  0
 75 82  1  0  0  0
 76 85  1  0  0  0
 77 81  1  0  0  0
 77 84  1  0  0  0
 77 86  2  0  0  0
 78 79  1  0  0  0
 78 80  1  0  0  0
 78150  1  0  0  0
 78151  1  0  0  0
 79 81  1  0  0  0
 79152  1  0  0  0
 79153  1  0  0  0
 80 84  1  0  0  0
 80154  1  0  0  0
 80155  1  0  0  0
 81 83  1  0  0  0
 81156  1  0  0  0
 82 84  1  0  0  0
 82157  1  0  0  0
 82158  1  0  0  0
 83159  1  0  0  0
 83160  1  0  0  0
 85161  1  0  0  0
M  ISO  4   1 100  68 101  83 101  85 100
M  END
> <chiral flag>
0

> <version>
0

> <s_m_source_file>
/data/baiqing/PycharmProjects/Reinvent-master-3.2/result/LINK_invent/BTK/process_docking_weight1_custom_product_contain_oxygen_bond_distance_aromatic_linkinvent_7_9_3/rearranged_h_0051.sdf

> <i_m_source_file_index>
98

> <r_mmod_Potential_Energy-OPLS-2005>
-6.02867269515991

> <r_mmod_Stretch_Energy-OPLS-2005>
44.7336883544922

> <r_mmod_Bend_Energy-OPLS-2005>
116.380973815918

> <r_mmod_Torsional_Energy-OPLS-2005>
223.16015625

> <r_mmod_Improper_Torsional_Energy-OPLS-2005>
3.87772941589355

> <r_mmod_Van_der_Waal_Energy-OPLS-2005>
179.599227905273

> <r_mmod_Electrostatic_Energy-OPLS-2005>
-354.474914550781

> <r_mmod_Solvation_Energy-OPLS-2005>
-231.817169189453

> <b_mmod_Minimization_Converged-OPLS-2005>
0

> <r_mmod_RMS_Derivative-OPLS-2005>
3.96007657051086

$$$$
