0
                    3D
 Structure written by MMmdl.
164173  0  0  1  0            999 V2000
  -30.6407  -14.7291   20.4153 C   0  0  0  0  0  0
  -30.4496  -12.4217   19.4789 C   0  0  0  0  0  0
  -29.5216  -12.3791   18.2437 C   0  0  0  0  0  0
  -28.0359  -12.2998   18.6538 C   0  0  0  0  0  0
  -27.6440  -13.2174   19.8444 C   0  0  2  0  0  0
  -28.6969  -13.1919   20.9713 C   0  0  0  0  0  0
  -25.2561  -13.8170   20.5690 C   0  0  0  0  0  0
  -24.1832  -13.0442   20.9204 C   0  0  0  0  0  0
  -24.6410  -11.6923   20.8789 C   0  0  0  0  0  0
  -23.9077  -10.4300   21.0408 C   0  0  0  0  0  0
  -24.3613   -9.4201   21.9169 C   0  0  0  0  0  0
  -23.6310   -8.2232   22.0732 C   0  0  0  0  0  0
  -22.4299   -8.0267   21.3517 C   0  0  0  0  0  0
  -21.9930   -9.0251   20.4631 C   0  0  0  0  0  0
  -22.7255  -10.2139   20.3042 C   0  0  0  0  0  0
  -21.6872   -6.0741   22.5276 C   0  0  0  0  0  0
  -21.4008   -6.5642   23.8206 C   0  0  0  0  0  0
  -21.3659   -5.6787   24.9165 C   0  0  0  0  0  0
  -21.6042   -4.3053   24.7212 C   0  0  0  0  0  0
  -21.8823   -3.8152   23.4334 C   0  0  0  0  0  0
  -21.9192   -4.6966   22.3397 C   0  0  0  0  0  0
  -22.7856  -13.5217   21.1881 C   0  0  0  0  0  0
  -22.1657   -4.2161   21.0978 F   0  0  0  0  0  0
  -21.5641   -3.4524   25.7712 F   0  0  0  0  0  0
  -29.9941  -13.5140   20.3661 N   0  0  0  0  0  0
  -26.2978  -12.9328   20.3305 N   0  0  0  0  0  0
  -25.9331  -11.6522   20.5833 N   0  0  0  0  0  0
  -22.0477  -12.8208   22.0424 N   0  0  0  0  0  0
  -25.4321  -15.1887   20.4107 N   0  0  0  0  0  0
  -31.8614  -14.7782   20.2388 O   0  0  0  0  0  0
  -21.6640   -6.8881   21.4236 O   0  0  0  0  0  0
  -22.3534  -14.5524   20.6740 O   0  0  0  0  0  0
  -24.6258  -31.8591   23.2022 C   0  0  0  0  0  0
  -25.9103  -32.4786   23.8360 C   0  0  1  0  0  0
  -27.2464  -27.3345   20.1302 C   0  0  0  0  0  0
  -25.5932  -33.8591   24.2298 N   0  0  0  0  0  0
  -23.4210  -30.4796   21.5427 C   0  0  2  0  0  0
  -24.8744  -28.9327   20.1154 C   0  0  0  0  0  0
  -22.7471  -29.4619   22.4934 C   0  0  0  0  0  0
  -18.0283  -28.1377   22.8469 C   0  0  0  0  0  0
  -24.1486  -36.7292   23.2636 C   0  0  0  0  0  0
  -25.9567  -30.8013   21.3635 C   0  0  0  0  0  0
  -26.0388  -29.4245   20.7151 C   0  0  0  0  0  0
  -27.2290  -28.6393   20.7068 C   0  0  0  0  0  0
  -26.0571  -26.8907   19.5054 C   0  0  0  0  0  0
  -24.8830  -27.6697   19.4996 C   0  0  0  0  0  0
  -23.6381  -29.8064   20.1609 C   0  0  0  0  0  0
  -25.4117  -36.3099   24.0331 C   0  0  1  0  0  0
  -20.5884  -28.3688   23.1275 C   0  0  2  0  0  0
  -20.6778  -26.9407   22.5402 C   0  0  0  0  0  0
  -19.5766  -26.6377   21.5189 C   0  0  0  0  0  0
  -18.1943  -26.7928   22.1591 C   0  0  0  0  0  0
  -19.1529  -28.8846   23.2884 C   0  0  0  0  0  0
  -18.9448  -30.1441   23.8905 C   0  0  0  0  0  0
  -17.6449  -30.6595   24.0547 C   0  0  0  0  0  0
  -25.9051  -34.9456   23.5109 C   0  0  0  0  0  0
  -16.5342  -29.9081   23.6320 C   0  0  0  0  0  0
  -16.7267  -28.6493   23.0351 C   0  0  0  0  0  0
  -26.4511  -31.6572   25.0694 C   0  0  0  0  0  0
  -25.3774  -31.3639   26.1426 C   0  0  0  0  0  0
  -27.0346  -30.3022   24.6062 C   0  0  0  0  0  0
  -27.6109  -32.4258   25.7467 C   0  0  0  0  0  0
  -27.5584  -37.1796   24.8469 C   0  0  0  0  0  0
  -21.4183  -29.3048   22.3681 N   0  0  0  0  0  0
  -26.4296  -37.3794   23.9419 N   0  0  0  0  0  0
  -24.6873  -31.0621   22.0961 N   0  0  0  0  0  0
  -23.4190  -28.8164   23.3047 O   0  0  0  0  0  0
  -28.3801  -26.5092   20.1961 O   0  0  0  0  0  0
  -26.5594  -34.8918   22.4658 O   0  0  0  0  0  0
  -23.5419  -32.1367   23.7352 O   0  0  0  0  0  0
  -31.2485  -19.3982   20.6252 C   0  0  0  0  0  0
  -28.9850  -19.3593   21.4311 C   0  0  0  0  0  0
  -31.2223  -17.9845   20.4485 C   0  0  0  0  0  0
  -28.9700  -17.9358   21.2868 C   0  0  0  0  0  0
  -30.1227  -20.1401   21.0917 C   0  0  0  0  0  0
  -30.0670  -17.2087   20.7394 C   0  0  0  0  0  0
  -31.1249  -22.1321   22.0790 C   0  0  0  0  0  0
  -31.3053  -23.6566   22.1992 C   0  0  0  0  0  0
  -30.0242  -24.4696   21.9723 C   0  0  0  0  0  0
  -29.1006  -22.5174   20.6858 C   0  0  0  0  0  0
  -29.3941  -24.0893   20.6308 C   0  0  1  0  0  0
  -28.3701  -16.9922   18.4080 C   0  0  0  0  0  0
  -28.1756  -25.0445   20.2472 C   0  0  0  0  0  0
  -29.5208  -16.0117   18.7266 C   0  0  0  0  0  0
  -30.1732  -21.6075   21.2519 N   0  0  0  0  0  0
  -29.8777  -15.8706   20.1615 N   0  0  0  0  0  0
  -31.8915  -21.4343   22.7511 O   0  0  0  0  0  0
  -31.4813  -12.5573   19.1538 H   0  0  0  0  0  0
  -30.4254  -11.4722   20.0133 H   0  0  0  0  0  0
  -29.7709  -11.4979   17.6525 H   0  0  0  0  0  0
  -29.7079  -13.2141   17.5717 H   0  0  0  0  0  0
  -27.8473  -11.2612   18.9325 H   0  0  0  0  0  0
  -27.3959  -12.5017   17.7923 H   0  0  0  0  0  0
  -27.6140  -14.2284   19.4538 H   0  0  0  0  0  0
  -28.7265  -12.2225   21.4674 H   0  0  0  0  0  0
  -28.4471  -13.9307   21.7366 H   0  0  0  0  0  0
  -25.2732   -9.5708   22.4763 H   0  0  0  0  0  0
  -24.0030   -7.4620   22.7443 H   0  0  0  0  0  0
  -21.0859   -8.8779   19.8935 H   0  0  0  0  0  0
  -22.3693  -10.9687   19.6179 H   0  0  0  0  0  0
  -21.1976   -7.6146   23.9728 H   0  0  0  0  0  0
  -21.1490   -6.0498   25.9082 H   0  0  0  0  0  0
  -22.0605   -2.7620   23.2812 H   0  0  0  0  0  0
  -22.4084  -11.9852   22.4798 H   0  0  0  0  0  0
  -21.1108  -13.1255   22.2621 H   0  0  0  0  0  0
  -24.6750  -15.8554   20.5156 H   0  0  0  0  0  0
  -26.3007  -15.6161   20.1172 H   0  0  0  0  0  0
  -26.7151  -32.5488   23.1111 H   0  0  0  0  0  0
  -25.0174  -33.9751   25.0497 H   0  0  0  0  0  0
  -22.7163  -31.3006   21.3947 H   0  0  0  0  0  0
  -23.3766  -35.9605   23.3293 H   0  0  0  0  0  0
  -24.3581  -36.8917   22.2055 H   0  0  0  0  0  0
  -23.7202  -37.6475   23.6653 H   0  0  0  0  0  0
  -26.0645  -31.5589   20.5862 H   0  0  0  0  0  0
  -26.8472  -30.8670   21.9776 H   0  0  0  0  0  0
  -28.1239  -29.0187   21.1797 H   0  0  0  0  0  0
  -26.0146  -25.9272   19.0199 H   0  0  0  0  0  0
  -23.9910  -27.2886   19.0216 H   0  0  0  0  0  0
  -23.7558  -30.5778   19.3992 H   0  0  0  0  0  0
  -22.7626  -29.2282   19.8612 H   0  0  0  0  0  0
  -25.1284  -36.1965   25.0822 H   0  0  0  0  0  0
  -20.9960  -28.3247   24.1401 H   0  0  0  0  0  0
  -20.5658  -26.2298   23.3603 H   0  0  0  0  0  0
  -21.6652  -26.7447   22.1199 H   0  0  0  0  0  0
  -19.6940  -25.6278   21.1248 H   0  0  0  0  0  0
  -19.6732  -27.3166   20.6707 H   0  0  0  0  0  0
  -17.4220  -26.6656   21.3994 H   0  0  0  0  0  0
  -18.0364  -26.0070   22.8992 H   0  0  0  0  0  0
  -19.7925  -30.7249   24.2293 H   0  0  0  0  0  0
  -17.5009  -31.6277   24.5137 H   0  0  0  0  0  0
  -15.5344  -30.2986   23.7669 H   0  0  0  0  0  0
  -15.8658  -28.0825   22.7061 H   0  0  0  0  0  0
  -24.6001  -30.6942   25.7726 H   0  0  0  0  0  0
  -24.8909  -32.2768   26.4881 H   0  0  0  0  0  0
  -25.8137  -30.8802   27.0178 H   0  0  0  0  0  0
  -26.2869  -29.6765   24.1187 H   0  0  0  0  0  0
  -27.4202  -29.7285   25.4498 H   0  0  0  0  0  0
  -27.8668  -30.4353   23.9152 H   0  0  0  0  0  0
  -27.2775  -33.3580   26.2048 H   0  0  0  0  0  0
  -28.3944  -32.6764   25.0297 H   0  0  0  0  0  0
  -28.0749  -31.8356   26.5382 H   0  0  0  0  0  0
  -28.2586  -38.0108   24.7540 H   0  0  0  0  0  0
  -28.1083  -36.2637   24.6262 H   0  0  0  0  0  0
  -27.2300  -37.1406   25.8869 H   0  0  0  0  0  0
  -20.9364  -29.8771   21.6881 H   0  0  0  0  0  0
  -26.0178  -38.2862   24.1443 H   0  0  0  0  0  0
  -32.1541  -19.9262   20.3609 H   0  0  0  0  0  0
  -28.1036  -19.8563   21.8090 H   0  0  0  0  0  0
  -32.0858  -17.5066   20.0066 H   0  0  0  0  0  0
  -28.0490  -17.4124   21.5014 H   0  0  0  0  0  0
  -32.0696  -23.9561   21.4797 H   0  0  0  0  0  0
  -31.7119  -23.8897   23.1850 H   0  0  0  0  0  0
  -30.2591  -25.5357   21.9981 H   0  0  0  0  0  0
  -29.3220  -24.2872   22.7883 H   0  0  0  0  0  0
  -28.8470  -22.1715   19.6816 H   0  0  0  0  0  0
  -28.2059  -22.3624   21.2912 H   0  0  0  0  0  0
  -30.1517  -24.2481   19.8596 H   0  0  0  0  0  0
  -28.0890  -16.9420   17.3553 H   0  0  0  0  0  0
  -28.6506  -18.0287   18.5985 H   0  0  0  0  0  0
  -27.4761  -16.7697   18.9884 H   0  0  0  0  0  0
  -27.3535  -24.8359   20.9339 H   0  0  0  0  0  0
  -27.8408  -24.7291   19.2599 H   0  0  0  0  0  0
  -30.4127  -16.3197   18.1767 H   0  0  0  0  0  0
  -29.2263  -15.0705   18.2913 H   0  0  0  0  0  0
  1 25  1  0  0  0
  1 30  2  0  0  0
  1 86  1  0  0  0
  2  3  1  0  0  0
  2 25  1  0  0  0
  2 88  1  0  0  0
  2 89  1  0  0  0
  3  4  1  0  0  0
  3 90  1  0  0  0
  3 91  1  0  0  0
  4  5  1  0  0  0
  4 92  1  0  0  0
  4 93  1  0  0  0
  5  6  1  0  0  0
  5 26  1  0  0  0
  5 94  1  0  0  0
  6 25  1  0  0  0
  6 95  1  0  0  0
  6 96  1  0  0  0
  7  8  2  0  0  0
  7 26  1  0  0  0
  7 29  1  0  0  0
  8  9  1  0  0  0
  8 22  1  0  0  0
  9 10  1  0  0  0
  9 27  2  0  0  0
 10 11  2  0  0  0
 10 15  1  0  0  0
 11 12  1  0  0  0
 11 97  1  0  0  0
 12 13  2  0  0  0
 12 98  1  0  0  0
 13 14  1  0  0  0
 13 31  1  0  0  0
 14 15  2  0  0  0
 14 99  1  0  0  0
 15100  1  0  0  0
 16 17  2  0  0  0
 16 21  1  0  0  0
 16 31  1  0  0  0
 17 18  1  0  0  0
 17101  1  0  0  0
 18 19  2  0  0  0
 18102  1  0  0  0
 19 20  1  0  0  0
 19 24  1  0  0  0
 20 21  2  0  0  0
 20103  1  0  0  0
 21 23  1  0  0  0
 22 28  1  0  0  0
 22 32  2  0  0  0
 26 27  1  0  0  0
 28104  1  0  0  0
 28105  1  0  0  0
 29106  1  0  0  0
 29107  1  0  0  0
 33 34  1  0  0  0
 33 66  1  0  0  0
 33 70  2  0  0  0
 34 36  1  0  0  0
 34 59  1  0  0  0
 34108  1  0  0  0
 35 44  2  0  0  0
 35 45  1  0  0  0
 35 68  1  0  0  0
 36 56  1  0  0  0
 36109  1  0  0  0
 37 39  1  0  0  0
 37 47  1  0  0  0
 37 66  1  0  0  0
 37110  1  0  0  0
 38 43  2  0  0  0
 38 46  1  0  0  0
 38 47  1  0  0  0
 39 64  1  0  0  0
 39 67  2  0  0  0
 40 52  1  0  0  0
 40 53  2  0  0  0
 40 58  1  0  0  0
 41111  1  0  0  0
 41112  1  0  0  0
 41113  1  0  0  0
 41 48  1  0  0  0
 42 43  1  0  0  0
 42 66  1  0  0  0
 42114  1  0  0  0
 42115  1  0  0  0
 43 44  1  0  0  0
 44116  1  0  0  0
 45 46  2  0  0  0
 45117  1  0  0  0
 46118  1  0  0  0
 47119  1  0  0  0
 47120  1  0  0  0
 48 56  1  0  0  0
 48 65  1  0  0  0
 48121  1  0  0  0
 49 50  1  0  0  0
 49 53  1  0  0  0
 49 64  1  0  0  0
 49122  1  0  0  0
 50 51  1  0  0  0
 50123  1  0  0  0
 50124  1  0  0  0
 51 52  1  0  0  0
 51125  1  0  0  0
 51126  1  0  0  0
 52127  1  0  0  0
 52128  1  0  0  0
 53 54  1  0  0  0
 54 55  2  0  0  0
 54129  1  0  0  0
 55 57  1  0  0  0
 55130  1  0  0  0
 56 69  2  0  0  0
 57 58  2  0  0  0
 57131  1  0  0  0
 58132  1  0  0  0
 59 60  1  0  0  0
 59 61  1  0  0  0
 59 62  1  0  0  0
 60133  1  0  0  0
 60134  1  0  0  0
 60135  1  0  0  0
 61136  1  0  0  0
 61137  1  0  0  0
 61138  1  0  0  0
 62139  1  0  0  0
 62140  1  0  0  0
 62141  1  0  0  0
 63 65  1  0  0  0
 63142  1  0  0  0
 63143  1  0  0  0
 63144  1  0  0  0
 64145  1  0  0  0
 65146  1  0  0  0
 68 83  1  0  0  0
 71 73  2  0  0  0
 71 75  1  0  0  0
 71147  1  0  0  0
 72 74  1  0  0  0
 72 75  2  0  0  0
 72148  1  0  0  0
 73 76  1  0  0  0
 73149  1  0  0  0
 74 76  2  0  0  0
 74150  1  0  0  0
 75 85  1  0  0  0
 76 86  1  0  0  0
 77 78  1  0  0  0
 77 85  1  0  0  0
 77 87  2  0  0  0
 78 79  1  0  0  0
 78151  1  0  0  0
 78152  1  0  0  0
 79 81  1  0  0  0
 79153  1  0  0  0
 79154  1  0  0  0
 80 81  1  0  0  0
 80 85  1  0  0  0
 80155  1  0  0  0
 80156  1  0  0  0
 81 83  1  0  0  0
 81157  1  0  0  0
 82 84  1  0  0  0
 82158  1  0  0  0
 82159  1  0  0  0
 82160  1  0  0  0
 83161  1  0  0  0
 83162  1  0  0  0
 84 86  1  0  0  0
 84163  1  0  0  0
 84164  1  0  0  0
M  ISO  4   1 100  68 101  83 101  86 100
M  END
> <chiral flag>
0

> <version>
0

> <s_m_source_file>
/data/baiqing/PycharmProjects/Reinvent-master-3.2/result/LINK_invent/BTK/process_docking_weight1_custom_product_contain_oxygen_bond_distance_aromatic_linkinvent_7_9_3/rearranged_h_0098.sdf

> <i_m_source_file_index>
1

> <r_mmod_Potential_Energy-OPLS-2005>
445.068511962891

> <r_mmod_Stretch_Energy-OPLS-2005>
96.3405609130859

> <r_mmod_Bend_Energy-OPLS-2005>
151.986450195312

> <r_mmod_Torsional_Energy-OPLS-2005>
401.349151611328

> <r_mmod_Improper_Torsional_Energy-OPLS-2005>
22.5196437835693

> <r_mmod_Van_der_Waal_Energy-OPLS-2005>
155.307586669922

> <r_mmod_Electrostatic_Energy-OPLS-2005>
-250.514770507812

> <r_mmod_Solvation_Energy-OPLS-2005>
-204.730392456055

> <b_mmod_Minimization_Converged-OPLS-2005>
0

> <r_mmod_RMS_Derivative-OPLS-2005>
4.06729650497437

$$$$
1
                    3D
 Structure written by MMmdl.
158166  0  0  1  0            999 V2000
  -30.7198  -14.4664   20.6385 C   0  0  0  0  0  0
  -30.4321  -12.3343   19.4162 C   0  0  0  0  0  0
  -29.4960  -12.5204   18.2049 C   0  0  0  0  0  0
  -28.0204  -12.3644   18.6191 C   0  0  0  0  0  0
  -27.6616  -13.2052   19.8719 C   0  0  2  0  0  0
  -28.7001  -12.9869   20.9940 C   0  0  0  0  0  0
  -25.2547  -13.8110   20.5603 C   0  0  0  0  0  0
  -24.1815  -13.0402   20.9172 C   0  0  0  0  0  0
  -24.6379  -11.6876   20.8735 C   0  0  0  0  0  0
  -23.9048  -10.4273   21.0422 C   0  0  0  0  0  0
  -24.3604   -9.4191   21.9203 C   0  0  0  0  0  0
  -23.6278   -8.2222   22.0769 C   0  0  0  0  0  0
  -22.4268   -8.0264   21.3549 C   0  0  0  0  0  0
  -21.9894   -9.0240   20.4659 C   0  0  0  0  0  0
  -22.7215  -10.2118   20.3076 C   0  0  0  0  0  0
  -21.6837   -6.0728   22.5275 C   0  0  0  0  0  0
  -21.4000   -6.5637   23.8214 C   0  0  0  0  0  0
  -21.3658   -5.6794   24.9177 C   0  0  0  0  0  0
  -21.6047   -4.3058   24.7226 C   0  0  0  0  0  0
  -21.8816   -3.8151   23.4347 C   0  0  0  0  0  0
  -21.9175   -4.6961   22.3399 C   0  0  0  0  0  0
  -22.7855  -13.5229   21.1828 C   0  0  0  0  0  0
  -22.1645   -4.2149   21.0979 F   0  0  0  0  0  0
  -21.5642   -3.4548   25.7749 F   0  0  0  0  0  0
  -30.0353  -13.3032   20.4517 N   0  0  0  0  0  0
  -26.3005  -12.9295   20.3311 N   0  0  0  0  0  0
  -25.9301  -11.6456   20.5730 N   0  0  0  0  0  0
  -22.0472  -12.8277   22.0403 N   0  0  0  0  0  0
  -25.4162  -15.1793   20.3882 N   0  0  0  0  0  0
  -31.8084  -14.6923   20.1022 O   0  0  0  0  0  0
  -21.6618   -6.8873   21.4243 O   0  0  0  0  0  0
  -22.3566  -14.5539   20.6652 O   0  0  0  0  0  0
  -24.6168  -31.8652   23.2059 C   0  0  0  0  0  0
  -25.9060  -32.4802   23.8360 C   0  0  1  0  0  0
  -27.2383  -27.4176   20.1023 C   0  0  0  0  0  0
  -25.5915  -33.8599   24.2301 N   0  0  0  0  0  0
  -23.4051  -30.4858   21.5469 C   0  0  2  0  0  0
  -24.8531  -28.9438   20.1162 C   0  0  0  0  0  0
  -22.7416  -29.4645   22.4989 C   0  0  0  0  0  0
  -18.0273  -28.1363   22.8481 C   0  0  0  0  0  0
  -24.1483  -36.7314   23.2635 C   0  0  0  0  0  0
  -25.9335  -30.8246   21.3589 C   0  0  0  0  0  0
  -26.0123  -29.4557   20.7124 C   0  0  0  0  0  0
  -27.2106  -28.7012   20.6985 C   0  0  0  0  0  0
  -26.0641  -26.9193   19.5024 C   0  0  0  0  0  0
  -24.8761  -27.6766   19.5049 C   0  0  0  0  0  0
  -23.6149  -29.8120   20.1631 C   0  0  0  0  0  0
  -25.4099  -36.3097   24.0329 C   0  0  1  0  0  0
  -20.5868  -28.3651   23.1312 C   0  0  2  0  0  0
  -20.6765  -26.9401   22.5370 C   0  0  0  0  0  0
  -19.5738  -26.6411   21.5154 C   0  0  0  0  0  0
  -18.1916  -26.7935   22.1574 C   0  0  0  0  0  0
  -19.1528  -28.8815   23.2901 C   0  0  0  0  0  0
  -18.9455  -30.1416   23.8920 C   0  0  0  0  0  0
  -17.6454  -30.6553   24.0574 C   0  0  0  0  0  0
  -25.9031  -34.9462   23.5106 C   0  0  0  0  0  0
  -16.5339  -29.9069   23.6319 C   0  0  0  0  0  0
  -16.7265  -28.6494   23.0328 C   0  0  0  0  0  0
  -26.4473  -31.6595   25.0704 C   0  0  0  0  0  0
  -25.3740  -31.3746   26.1463 C   0  0  0  0  0  0
  -27.0300  -30.3032   24.6094 C   0  0  0  0  0  0
  -27.6041  -32.4324   25.7487 C   0  0  0  0  0  0
  -27.5570  -37.1813   24.8463 C   0  0  0  0  0  0
  -21.4144  -29.3039   22.3744 N   0  0  0  0  0  0
  -26.4286  -37.3781   23.9399 N   0  0  0  0  0  0
  -24.6700  -31.0732   22.0969 N   0  0  0  0  0  0
  -23.4189  -28.8187   23.3029 O   0  0  0  0  0  0
  -28.4049  -26.6792   20.0741 O   0  0  0  0  0  0
  -26.5595  -34.8927   22.4668 O   0  0  0  0  0  0
  -23.5364  -32.1415   23.7458 O   0  0  0  0  0  0
  -28.3374  -19.4993   20.5735 C   0  0  0  0  0  0
  -30.6400  -20.1663   20.2313 C   0  0  0  0  0  0
  -28.7666  -18.2794   21.1594 C   0  0  0  0  0  0
  -30.1516  -17.9653   21.2341 C   0  0  0  0  0  0
  -29.2656  -20.4575   20.1096 C   0  0  0  0  0  0
  -31.0782  -18.9363   20.7759 C   0  0  0  0  0  0
  -27.7189  -17.3452   21.7399 C   0  0  0  0  0  0
  -30.6784  -16.6657   21.8863 C   0  0  0  0  0  0
  -28.5672  -24.1817   19.7035 C   0  0  0  0  0  0
  -28.7667  -22.8180   20.4295 C   0  0  0  0  0  0
  -28.3600  -25.3720   20.6824 C   0  0  0  0  0  0
  -28.8267  -21.6634   19.5227 N   0  0  0  0  0  0
  -30.1162  -15.3842   21.4173 N   0  0  0  0  0  0
  -32.4101  -18.7046   20.8754 F   0  0  0  0  0  0
  -31.4715  -12.4561   19.1055 H   0  0  0  0  0  0
  -30.3622  -11.3187   19.8085 H   0  0  0  0  0  0
  -29.7436  -11.8027   17.4219 H   0  0  0  0  0  0
  -29.6507  -13.5097   17.7702 H   0  0  0  0  0  0
  -27.8411  -11.3073   18.8201 H   0  0  0  0  0  0
  -27.3713  -12.6348   17.7843 H   0  0  0  0  0  0
  -27.7070  -14.2536   19.5742 H   0  0  0  0  0  0
  -28.6794  -11.9504   21.3331 H   0  0  0  0  0  0
  -28.4394  -13.5778   21.8722 H   0  0  0  0  0  0
  -25.2748   -9.5671   22.4777 H   0  0  0  0  0  0
  -23.9972   -7.4621   22.7505 H   0  0  0  0  0  0
  -21.0804   -8.8756   19.8997 H   0  0  0  0  0  0
  -22.3660  -10.9656   19.6191 H   0  0  0  0  0  0
  -21.1993   -7.6149   23.9724 H   0  0  0  0  0  0
  -21.1486   -6.0524   25.9081 H   0  0  0  0  0  0
  -22.0598   -2.7611   23.2838 H   0  0  0  0  0  0
  -22.4038  -11.9899   22.4766 H   0  0  0  0  0  0
  -21.1102  -13.1374   22.2591 H   0  0  0  0  0  0
  -24.6418  -15.8269   20.4825 H   0  0  0  0  0  0
  -26.2505  -15.6091   20.0122 H   0  0  0  0  0  0
  -26.7136  -32.5510   23.1130 H   0  0  0  0  0  0
  -25.0084  -33.9743   25.0461 H   0  0  0  0  0  0
  -22.6943  -31.3030   21.4041 H   0  0  0  0  0  0
  -23.3719  -35.9671   23.3308 H   0  0  0  0  0  0
  -24.3575  -36.8925   22.2049 H   0  0  0  0  0  0
  -23.7260  -37.6536   23.6644 H   0  0  0  0  0  0
  -26.0390  -31.5833   20.5823 H   0  0  0  0  0  0
  -26.8240  -30.8845   21.9741 H   0  0  0  0  0  0
  -28.1067  -29.0941   21.1551 H   0  0  0  0  0  0
  -26.0714  -25.9506   19.0228 H   0  0  0  0  0  0
  -23.9892  -27.2786   19.0319 H   0  0  0  0  0  0
  -23.7246  -30.5817   19.3982 H   0  0  0  0  0  0
  -22.7394  -29.2307   19.8678 H   0  0  0  0  0  0
  -25.1273  -36.1948   25.0822 H   0  0  0  0  0  0
  -20.9974  -28.3159   24.1424 H   0  0  0  0  0  0
  -20.5672  -26.2232   23.3522 H   0  0  0  0  0  0
  -21.6625  -26.7445   22.1142 H   0  0  0  0  0  0
  -19.6896  -25.6348   21.1128 H   0  0  0  0  0  0
  -19.6667  -27.3271   20.6730 H   0  0  0  0  0  0
  -17.4207  -26.6759   21.3950 H   0  0  0  0  0  0
  -18.0289  -26.0020   22.8909 H   0  0  0  0  0  0
  -19.7931  -30.7219   24.2303 H   0  0  0  0  0  0
  -17.5004  -31.6221   24.5185 H   0  0  0  0  0  0
  -15.5342  -30.2967   23.7624 H   0  0  0  0  0  0
  -15.8671  -28.0826   22.7001 H   0  0  0  0  0  0
  -24.5874  -30.7126   25.7823 H   0  0  0  0  0  0
  -24.8980  -32.2938   26.4906 H   0  0  0  0  0  0
  -25.8090  -30.8926   27.0224 H   0  0  0  0  0  0
  -26.2857  -29.6816   24.1107 H   0  0  0  0  0  0
  -27.4025  -29.7248   25.4555 H   0  0  0  0  0  0
  -27.8704  -30.4345   23.9266 H   0  0  0  0  0  0
  -27.2620  -33.3586   26.2111 H   0  0  0  0  0  0
  -28.3831  -32.6946   25.0318 H   0  0  0  0  0  0
  -28.0713  -31.8422   26.5380 H   0  0  0  0  0  0
  -28.2601  -38.0100   24.7470 H   0  0  0  0  0  0
  -28.1049  -36.2624   24.6313 H   0  0  0  0  0  0
  -27.2289  -37.1497   25.8873 H   0  0  0  0  0  0
  -20.9316  -29.8805   21.6998 H   0  0  0  0  0  0
  -26.0166  -38.2861   24.1385 H   0  0  0  0  0  0
  -27.2794  -19.7113   20.5028 H   0  0  0  0  0  0
  -31.3777  -20.8776   19.8918 H   0  0  0  0  0  0
  -28.0145  -16.9762   22.7232 H   0  0  0  0  0  0
  -27.5761  -16.4908   21.0832 H   0  0  0  0  0  0
  -26.7599  -17.8494   21.8604 H   0  0  0  0  0  0
  -30.4675  -16.7384   22.9550 H   0  0  0  0  0  0
  -31.7673  -16.6266   21.8278 H   0  0  0  0  0  0
  -27.7150  -24.1238   19.0252 H   0  0  0  0  0  0
  -29.4379  -24.3827   19.0792 H   0  0  0  0  0  0
  -27.9423  -22.6604   21.1282 H   0  0  0  0  0  0
  -29.6756  -22.8600   21.0315 H   0  0  0  0  0  0
  -29.1599  -25.3528   21.4241 H   0  0  0  0  0  0
  -27.4391  -25.2241   21.2491 H   0  0  0  0  0  0
  -27.9539  -21.5494   19.0093 H   0  0  0  0  0  0
  -29.2263  -15.1146   21.8043 H   0  0  0  0  0  0
  1 25  1  0  0  0
  1 30  2  0  0  0
  1 83  1  0  0  0
  2  3  1  0  0  0
  2 25  1  0  0  0
  2 85  1  0  0  0
  2 86  1  0  0  0
  3  4  1  0  0  0
  3 87  1  0  0  0
  3 88  1  0  0  0
  4  5  1  0  0  0
  4 89  1  0  0  0
  4 90  1  0  0  0
  5  6  1  0  0  0
  5 26  1  0  0  0
  5 91  1  0  0  0
  6 25  1  0  0  0
  6 92  1  0  0  0
  6 93  1  0  0  0
  7  8  2  0  0  0
  7 26  1  0  0  0
  7 29  1  0  0  0
  8  9  1  0  0  0
  8 22  1  0  0  0
  9 10  1  0  0  0
  9 27  2  0  0  0
 10 11  2  0  0  0
 10 15  1  0  0  0
 11 12  1  0  0  0
 11 94  1  0  0  0
 12 13  2  0  0  0
 12 95  1  0  0  0
 13 14  1  0  0  0
 13 31  1  0  0  0
 14 15  2  0  0  0
 14 96  1  0  0  0
 15 97  1  0  0  0
 16 17  2  0  0  0
 16 21  1  0  0  0
 16 31  1  0  0  0
 17 18  1  0  0  0
 17 98  1  0  0  0
 18 19  2  0  0  0
 18 99  1  0  0  0
 19 20  1  0  0  0
 19 24  1  0  0  0
 20 21  2  0  0  0
 20100  1  0  0  0
 21 23  1  0  0  0
 22 28  1  0  0  0
 22 32  2  0  0  0
 26 27  1  0  0  0
 28101  1  0  0  0
 28102  1  0  0  0
 29103  1  0  0  0
 29104  1  0  0  0
 33 34  1  0  0  0
 33 66  1  0  0  0
 33 70  2  0  0  0
 34 36  1  0  0  0
 34 59  1  0  0  0
 34105  1  0  0  0
 35 44  2  0  0  0
 35 45  1  0  0  0
 35 68  1  0  0  0
 36 56  1  0  0  0
 36106  1  0  0  0
 37 39  1  0  0  0
 37 47  1  0  0  0
 37 66  1  0  0  0
 37107  1  0  0  0
 38 43  2  0  0  0
 38 46  1  0  0  0
 38 47  1  0  0  0
 39 64  1  0  0  0
 39 67  2  0  0  0
 40 52  1  0  0  0
 40 53  2  0  0  0
 40 58  1  0  0  0
 41108  1  0  0  0
 41109  1  0  0  0
 41110  1  0  0  0
 41 48  1  0  0  0
 42 43  1  0  0  0
 42 66  1  0  0  0
 42111  1  0  0  0
 42112  1  0  0  0
 43 44  1  0  0  0
 44113  1  0  0  0
 45 46  2  0  0  0
 45114  1  0  0  0
 46115  1  0  0  0
 47116  1  0  0  0
 47117  1  0  0  0
 48 56  1  0  0  0
 48 65  1  0  0  0
 48118  1  0  0  0
 49 50  1  0  0  0
 49 53  1  0  0  0
 49 64  1  0  0  0
 49119  1  0  0  0
 50 51  1  0  0  0
 50120  1  0  0  0
 50121  1  0  0  0
 51 52  1  0  0  0
 51122  1  0  0  0
 51123  1  0  0  0
 52124  1  0  0  0
 52125  1  0  0  0
 53 54  1  0  0  0
 54 55  2  0  0  0
 54126  1  0  0  0
 55 57  1  0  0  0
 55127  1  0  0  0
 56 69  2  0  0  0
 57 58  2  0  0  0
 57128  1  0  0  0
 58129  1  0  0  0
 59 60  1  0  0  0
 59 61  1  0  0  0
 59 62  1  0  0  0
 60130  1  0  0  0
 60131  1  0  0  0
 60132  1  0  0  0
 61133  1  0  0  0
 61134  1  0  0  0
 61135  1  0  0  0
 62136  1  0  0  0
 62137  1  0  0  0
 62138  1  0  0  0
 63 65  1  0  0  0
 63139  1  0  0  0
 63140  1  0  0  0
 63141  1  0  0  0
 64142  1  0  0  0
 65143  1  0  0  0
 68 81  1  0  0  0
 71 73  2  0  0  0
 71 75  1  0  0  0
 71144  1  0  0  0
 72 75  2  0  0  0
 72 76  1  0  0  0
 72145  1  0  0  0
 73 74  1  0  0  0
 73 77  1  0  0  0
 74 76  2  0  0  0
 74 78  1  0  0  0
 75 82  1  0  0  0
 76 84  1  0  0  0
 77146  1  0  0  0
 77147  1  0  0  0
 77148  1  0  0  0
 78 83  1  0  0  0
 78149  1  0  0  0
 78150  1  0  0  0
 79 80  1  0  0  0
 79 81  1  0  0  0
 79151  1  0  0  0
 79152  1  0  0  0
 80 82  1  0  0  0
 80153  1  0  0  0
 80154  1  0  0  0
 81155  1  0  0  0
 81156  1  0  0  0
 82157  1  0  0  0
 83158  1  0  0  0
M  ISO  4   1 100  68 101  81 101  83 100
M  END
> <chiral flag>
0

> <version>
0

> <s_m_source_file>
/data/baiqing/PycharmProjects/Reinvent-master-3.2/result/LINK_invent/BTK/process_docking_weight1_custom_product_contain_oxygen_bond_distance_aromatic_linkinvent_7_9_3/rearranged_h_0098.sdf

> <i_m_source_file_index>
2

> <r_mmod_Potential_Energy-OPLS-2005>
-46.3755073547363

> <r_mmod_Stretch_Energy-OPLS-2005>
41.651611328125

> <r_mmod_Bend_Energy-OPLS-2005>
95.4192352294922

> <r_mmod_Torsional_Energy-OPLS-2005>
226.581848144531

> <r_mmod_Improper_Torsional_Energy-OPLS-2005>
7.57739782333374

> <r_mmod_Van_der_Waal_Energy-OPLS-2005>
144.017318725586

> <r_mmod_Electrostatic_Energy-OPLS-2005>
-353.033081054688

> <r_mmod_Solvation_Energy-OPLS-2005>
-220.886779785156

> <b_mmod_Minimization_Converged-OPLS-2005>
0

> <r_mmod_RMS_Derivative-OPLS-2005>
2.50229263305664

$$$$
2
                    3D
 Structure written by MMmdl.
161170  0  0  1  0            999 V2000
  -30.6609  -14.6356   20.5744 C   0  0  0  0  0  0
  -30.4256  -12.4069   19.4731 C   0  0  0  0  0  0
  -29.5095  -12.5360   18.2375 C   0  0  0  0  0  0
  -28.0322  -12.3673   18.6372 C   0  0  0  0  0  0
  -27.6510  -13.2314   19.8668 C   0  0  2  0  0  0
  -28.6846  -13.0773   21.0000 C   0  0  0  0  0  0
  -25.2528  -13.8212   20.5728 C   0  0  0  0  0  0
  -24.1808  -13.0429   20.9210 C   0  0  0  0  0  0
  -24.6427  -11.6914   20.8752 C   0  0  0  0  0  0
  -23.9116  -10.4270   21.0422 C   0  0  0  0  0  0
  -24.3662   -9.4178   21.9198 C   0  0  0  0  0  0
  -23.6323   -8.2215   22.0767 C   0  0  0  0  0  0
  -22.4299   -8.0273   21.3550 C   0  0  0  0  0  0
  -21.9947   -9.0252   20.4650 C   0  0  0  0  0  0
  -22.7292  -10.2124   20.3074 C   0  0  0  0  0  0
  -21.6847   -6.0754   22.5280 C   0  0  0  0  0  0
  -21.4023   -6.5666   23.8223 C   0  0  0  0  0  0
  -21.3672   -5.6807   24.9177 C   0  0  0  0  0  0
  -21.6052   -4.3071   24.7222 C   0  0  0  0  0  0
  -21.8836   -3.8163   23.4344 C   0  0  0  0  0  0
  -21.9197   -4.6978   22.3399 C   0  0  0  0  0  0
  -22.7823  -13.5185   21.1875 C   0  0  0  0  0  0
  -22.1675   -4.2179   21.0974 F   0  0  0  0  0  0
  -21.5599   -3.4554   25.7736 F   0  0  0  0  0  0
  -30.0058  -13.4287   20.4550 N   0  0  0  0  0  0
  -26.2966  -12.9422   20.3311 N   0  0  0  0  0  0
  -25.9356  -11.6570   20.5738 N   0  0  0  0  0  0
  -22.0482  -12.8153   22.0440 N   0  0  0  0  0  0
  -25.4208  -15.1940   20.4221 N   0  0  0  0  0  0
  -31.7601  -14.8063   20.0386 O   0  0  0  0  0  0
  -21.6637   -6.8890   21.4249 O   0  0  0  0  0  0
  -22.3483  -14.5471   20.6713 O   0  0  0  0  0  0
  -24.6272  -31.8583   23.2026 C   0  0  0  0  0  0
  -25.9122  -32.4774   23.8353 C   0  0  1  0  0  0
  -27.2171  -27.3188   20.1148 C   0  0  0  0  0  0
  -25.5951  -33.8577   24.2289 N   0  0  0  0  0  0
  -23.4185  -30.4830   21.5447 C   0  0  2  0  0  0
  -24.8625  -28.9326   20.1141 C   0  0  0  0  0  0
  -22.7464  -29.4645   22.4942 C   0  0  0  0  0  0
  -18.0285  -28.1401   22.8477 C   0  0  0  0  0  0
  -24.1496  -36.7283   23.2638 C   0  0  0  0  0  0
  -25.9600  -30.7905   21.3705 C   0  0  0  0  0  0
  -26.0331  -29.4167   20.7129 C   0  0  0  0  0  0
  -27.2176  -28.6225   20.6998 C   0  0  0  0  0  0
  -26.0272  -26.8797   19.4989 C   0  0  0  0  0  0
  -24.8597  -27.6688   19.4996 C   0  0  0  0  0  0
  -23.6312  -29.8156   20.1613 C   0  0  0  0  0  0
  -25.4120  -36.3077   24.0330 C   0  0  1  0  0  0
  -20.5880  -28.3720   23.1276 C   0  0  2  0  0  0
  -20.6785  -26.9443   22.5407 C   0  0  0  0  0  0
  -19.5767  -26.6399   21.5206 C   0  0  0  0  0  0
  -18.1939  -26.7945   22.1607 C   0  0  0  0  0  0
  -19.1531  -28.8871   23.2872 C   0  0  0  0  0  0
  -18.9462  -30.1462   23.8896 C   0  0  0  0  0  0
  -17.6469  -30.6597   24.0567 C   0  0  0  0  0  0
  -25.9056  -34.9447   23.5102 C   0  0  0  0  0  0
  -16.5359  -29.9092   23.6334 C   0  0  0  0  0  0
  -16.7276  -28.6513   23.0353 C   0  0  0  0  0  0
  -26.4510  -31.6571   25.0722 C   0  0  0  0  0  0
  -25.3759  -31.3669   26.1461 C   0  0  0  0  0  0
  -27.0370  -30.3008   24.6164 C   0  0  0  0  0  0
  -27.6093  -32.4306   25.7473 C   0  0  0  0  0  0
  -27.5584  -37.1781   24.8455 C   0  0  0  0  0  0
  -21.4185  -29.3049   22.3659 N   0  0  0  0  0  0
  -26.4286  -37.3782   23.9418 N   0  0  0  0  0  0
  -24.6872  -31.0610   22.0958 N   0  0  0  0  0  0
  -23.4185  -28.8192   23.3035 O   0  0  0  0  0  0
  -28.3359  -26.4790   20.1117 O   0  0  0  0  0  0
  -26.5616  -34.8900   22.4666 O   0  0  0  0  0  0
  -23.5448  -32.1407   23.7361 O   0  0  0  0  0  0
  -29.5638  -18.7880   19.0652 C   0  0  0  0  0  0
  -29.5422  -19.5077   21.3477 C   0  0  0  0  0  0
  -29.7303  -17.4271   19.4709 C   0  0  0  0  0  0
  -29.6963  -18.1442   21.7518 C   0  0  0  0  0  0
  -29.5177  -19.8889   19.9821 C   0  0  0  0  0  0
  -29.8438  -17.0521   20.8359 C   0  0  0  0  0  0
  -30.3997  -21.6888   18.5591 C   0  0  0  0  0  0
  -30.4255  -23.1344   18.0357 C   0  0  0  0  0  0
  -30.0846  -24.1858   19.0933 C   0  0  0  0  0  0
  -28.7923  -22.4018   20.3126 C   0  0  0  0  0  0
  -28.7093  -23.8767   19.6729 C   0  0  1  0  0  0
  -30.1427  -15.4529   22.7560 C   0  0  0  0  0  0
  -28.1770  -25.0801   20.5788 C   0  0  0  0  0  0
  -29.5245  -21.3115   19.5437 N   0  0  0  0  0  0
  -30.0692  -15.6574   21.2983 N   0  0  0  0  0  0
  -31.2015  -20.9135   18.0267 O   0  0  0  0  0  0
  -31.4752  -12.5062   19.1903 H   0  0  0  0  0  0
  -30.3361  -11.4112   19.9093 H   0  0  0  0  0  0
  -29.7789  -11.7958   17.4828 H   0  0  0  0  0  0
  -29.6526  -13.5154   17.7765 H   0  0  0  0  0  0
  -27.8635  -11.3107   18.8550 H   0  0  0  0  0  0
  -27.3885  -12.6143   17.7913 H   0  0  0  0  0  0
  -27.6749  -14.2719   19.5378 H   0  0  0  0  0  0
  -28.6894  -12.0567   21.3894 H   0  0  0  0  0  0
  -28.3947  -13.7095   21.8377 H   0  0  0  0  0  0
  -25.2821   -9.5633   22.4756 H   0  0  0  0  0  0
  -24.0050   -7.4611   22.7486 H   0  0  0  0  0  0
  -21.0897   -8.8780   19.8921 H   0  0  0  0  0  0
  -22.3800  -10.9670   19.6171 H   0  0  0  0  0  0
  -21.2037   -7.6182   23.9756 H   0  0  0  0  0  0
  -21.1476   -6.0517   25.9088 H   0  0  0  0  0  0
  -22.0611   -2.7630   23.2831 H   0  0  0  0  0  0
  -22.4136  -11.9818   22.4792 H   0  0  0  0  0  0
  -21.1085  -13.1114   22.2627 H   0  0  0  0  0  0
  -24.6562  -15.8472   20.5497 H   0  0  0  0  0  0
  -26.2800  -15.6417   20.1246 H   0  0  0  0  0  0
  -26.7194  -32.5437   23.1099 H   0  0  0  0  0  0
  -25.0121  -33.9724   25.0449 H   0  0  0  0  0  0
  -22.7140  -31.3042   21.4016 H   0  0  0  0  0  0
  -23.3772  -35.9598   23.3273 H   0  0  0  0  0  0
  -24.3593  -36.8952   22.2059 H   0  0  0  0  0  0
  -23.7222  -37.6460   23.6693 H   0  0  0  0  0  0
  -26.0889  -31.5531   20.6021 H   0  0  0  0  0  0
  -26.8429  -30.8408   21.9975 H   0  0  0  0  0  0
  -28.1210  -28.9893   21.1674 H   0  0  0  0  0  0
  -25.9955  -25.9126   19.0185 H   0  0  0  0  0  0
  -23.9614  -27.2934   19.0293 H   0  0  0  0  0  0
  -23.7533  -30.5918   19.4055 H   0  0  0  0  0  0
  -22.7505  -29.2466   19.8607 H   0  0  0  0  0  0
  -25.1294  -36.1920   25.0822 H   0  0  0  0  0  0
  -20.9970  -28.3308   24.1397 H   0  0  0  0  0  0
  -20.5719  -26.2320   23.3598 H   0  0  0  0  0  0
  -21.6657  -26.7486   22.1190 H   0  0  0  0  0  0
  -19.6943  -25.6307   21.1238 H   0  0  0  0  0  0
  -19.6713  -27.3201   20.6730 H   0  0  0  0  0  0
  -17.4210  -26.6697   21.4005 H   0  0  0  0  0  0
  -18.0341  -26.0085   22.9004 H   0  0  0  0  0  0
  -19.7937  -30.7274   24.2283 H   0  0  0  0  0  0
  -17.5021  -31.6282   24.5168 H   0  0  0  0  0  0
  -15.5354  -30.3006   23.7653 H   0  0  0  0  0  0
  -15.8676  -28.0830   22.7079 H   0  0  0  0  0  0
  -24.5961  -30.6997   25.7765 H   0  0  0  0  0  0
  -24.8912  -32.2814   26.4897 H   0  0  0  0  0  0
  -25.8118  -30.8836   27.0216 H   0  0  0  0  0  0
  -26.2937  -29.6718   24.1266 H   0  0  0  0  0  0
  -27.4168  -29.7307   25.4645 H   0  0  0  0  0  0
  -27.8756  -30.4309   23.9324 H   0  0  0  0  0  0
  -27.2749  -33.3635   26.2016 H   0  0  0  0  0  0
  -28.3904  -32.6815   25.0286 H   0  0  0  0  0  0
  -28.0757  -31.8444   26.5400 H   0  0  0  0  0  0
  -28.2554  -38.0119   24.7579 H   0  0  0  0  0  0
  -28.1132  -36.2662   24.6204 H   0  0  0  0  0  0
  -27.2317  -37.1340   25.8855 H   0  0  0  0  0  0
  -20.9376  -29.8711   21.6811 H   0  0  0  0  0  0
  -26.0165  -38.2844   24.1476 H   0  0  0  0  0  0
  -29.5087  -18.9818   18.0036 H   0  0  0  0  0  0
  -29.4950  -20.2665   22.1180 H   0  0  0  0  0  0
  -29.7878  -16.6678   18.7020 H   0  0  0  0  0  0
  -29.7260  -17.9653   22.8155 H   0  0  0  0  0  0
  -29.7290  -23.2035   17.1993 H   0  0  0  0  0  0
  -31.4122  -23.3486   17.6251 H   0  0  0  0  0  0
  -30.0959  -25.1781   18.6380 H   0  0  0  0  0  0
  -30.8435  -24.1959   19.8788 H   0  0  0  0  0  0
  -27.7819  -22.0489   20.5243 H   0  0  0  0  0  0
  -29.2849  -22.4844   21.2817 H   0  0  0  0  0  0
  -28.0152  -23.8215   18.8298 H   0  0  0  0  0  0
  -29.2289  -15.7895   23.2437 H   0  0  0  0  0  0
  -30.9818  -16.0094   23.1761 H   0  0  0  0  0  0
  -30.2862  -14.4105   23.0442 H   0  0  0  0  0  0
  -28.7041  -25.0336   21.5320 H   0  0  0  0  0  0
  -27.1361  -24.8776   20.8390 H   0  0  0  0  0  0
  1 25  1  0  0  0
  1 30  2  0  0  0
  1 85  1  0  0  0
  2  3  1  0  0  0
  2 25  1  0  0  0
  2 87  1  0  0  0
  2 88  1  0  0  0
  3  4  1  0  0  0
  3 89  1  0  0  0
  3 90  1  0  0  0
  4  5  1  0  0  0
  4 91  1  0  0  0
  4 92  1  0  0  0
  5  6  1  0  0  0
  5 26  1  0  0  0
  5 93  1  0  0  0
  6 25  1  0  0  0
  6 94  1  0  0  0
  6 95  1  0  0  0
  7  8  2  0  0  0
  7 26  1  0  0  0
  7 29  1  0  0  0
  8  9  1  0  0  0
  8 22  1  0  0  0
  9 10  1  0  0  0
  9 27  2  0  0  0
 10 11  2  0  0  0
 10 15  1  0  0  0
 11 12  1  0  0  0
 11 96  1  0  0  0
 12 13  2  0  0  0
 12 97  1  0  0  0
 13 14  1  0  0  0
 13 31  1  0  0  0
 14 15  2  0  0  0
 14 98  1  0  0  0
 15 99  1  0  0  0
 16 17  2  0  0  0
 16 21  1  0  0  0
 16 31  1  0  0  0
 17 18  1  0  0  0
 17100  1  0  0  0
 18 19  2  0  0  0
 18101  1  0  0  0
 19 20  1  0  0  0
 19 24  1  0  0  0
 20 21  2  0  0  0
 20102  1  0  0  0
 21 23  1  0  0  0
 22 28  1  0  0  0
 22 32  2  0  0  0
 26 27  1  0  0  0
 28103  1  0  0  0
 28104  1  0  0  0
 29105  1  0  0  0
 29106  1  0  0  0
 33 34  1  0  0  0
 33 66  1  0  0  0
 33 70  2  0  0  0
 34 36  1  0  0  0
 34 59  1  0  0  0
 34107  1  0  0  0
 35 44  2  0  0  0
 35 45  1  0  0  0
 35 68  1  0  0  0
 36 56  1  0  0  0
 36108  1  0  0  0
 37 39  1  0  0  0
 37 47  1  0  0  0
 37 66  1  0  0  0
 37109  1  0  0  0
 38 43  2  0  0  0
 38 46  1  0  0  0
 38 47  1  0  0  0
 39 64  1  0  0  0
 39 67  2  0  0  0
 40 52  1  0  0  0
 40 53  2  0  0  0
 40 58  1  0  0  0
 41110  1  0  0  0
 41111  1  0  0  0
 41112  1  0  0  0
 41 48  1  0  0  0
 42 43  1  0  0  0
 42 66  1  0  0  0
 42113  1  0  0  0
 42114  1  0  0  0
 43 44  1  0  0  0
 44115  1  0  0  0
 45 46  2  0  0  0
 45116  1  0  0  0
 46117  1  0  0  0
 47118  1  0  0  0
 47119  1  0  0  0
 48 56  1  0  0  0
 48 65  1  0  0  0
 48120  1  0  0  0
 49 50  1  0  0  0
 49 53  1  0  0  0
 49 64  1  0  0  0
 49121  1  0  0  0
 50 51  1  0  0  0
 50122  1  0  0  0
 50123  1  0  0  0
 51 52  1  0  0  0
 51124  1  0  0  0
 51125  1  0  0  0
 52126  1  0  0  0
 52127  1  0  0  0
 53 54  1  0  0  0
 54 55  2  0  0  0
 54128  1  0  0  0
 55 57  1  0  0  0
 55129  1  0  0  0
 56 69  2  0  0  0
 57 58  2  0  0  0
 57130  1  0  0  0
 58131  1  0  0  0
 59 60  1  0  0  0
 59 61  1  0  0  0
 59 62  1  0  0  0
 60132  1  0  0  0
 60133  1  0  0  0
 60134  1  0  0  0
 61135  1  0  0  0
 61136  1  0  0  0
 61137  1  0  0  0
 62138  1  0  0  0
 62139  1  0  0  0
 62140  1  0  0  0
 63 65  1  0  0  0
 63141  1  0  0  0
 63142  1  0  0  0
 63143  1  0  0  0
 64144  1  0  0  0
 65145  1  0  0  0
 68 83  1  0  0  0
 71 73  2  0  0  0
 71 75  1  0  0  0
 71146  1  0  0  0
 72 74  1  0  0  0
 72 75  2  0  0  0
 72147  1  0  0  0
 73 76  1  0  0  0
 73148  1  0  0  0
 74 76  2  0  0  0
 74149  1  0  0  0
 75 84  1  0  0  0
 76 85  1  0  0  0
 77 78  1  0  0  0
 77 84  1  0  0  0
 77 86  2  0  0  0
 78 79  1  0  0  0
 78150  1  0  0  0
 78151  1  0  0  0
 79 81  1  0  0  0
 79152  1  0  0  0
 79153  1  0  0  0
 80 81  1  0  0  0
 80 84  1  0  0  0
 80154  1  0  0  0
 80155  1  0  0  0
 81 83  1  0  0  0
 81156  1  0  0  0
 82 85  1  0  0  0
 82157  1  0  0  0
 82158  1  0  0  0
 82159  1  0  0  0
 83160  1  0  0  0
 83161  1  0  0  0
M  ISO  4   1 100  68 101  83 101  85 100
M  END
> <chiral flag>
0

> <version>
0

> <s_m_source_file>
/data/baiqing/PycharmProjects/Reinvent-master-3.2/result/LINK_invent/BTK/process_docking_weight1_custom_product_contain_oxygen_bond_distance_aromatic_linkinvent_7_9_3/rearranged_h_0098.sdf

> <i_m_source_file_index>
3

> <r_mmod_Potential_Energy-OPLS-2005>
334.823883056641

> <r_mmod_Stretch_Energy-OPLS-2005>
104.514198303223

> <r_mmod_Bend_Energy-OPLS-2005>
148.957931518555

> <r_mmod_Torsional_Energy-OPLS-2005>
344.450317382812

> <r_mmod_Improper_Torsional_Energy-OPLS-2005>
3.49670338630676

> <r_mmod_Van_der_Waal_Energy-OPLS-2005>
162.711791992188

> <r_mmod_Electrostatic_Energy-OPLS-2005>
-267.048675537109

> <r_mmod_Solvation_Energy-OPLS-2005>
-207.603317260742

> <b_mmod_Minimization_Converged-OPLS-2005>
0

> <r_mmod_RMS_Derivative-OPLS-2005>
3.35749626159668

$$$$
3
                    3D
 Structure written by MMmdl.
171180  0  0  1  0            999 V2000
  -30.7568  -14.4701   20.4585 C   0  0  0  0  0  0
  -30.3809  -12.3067   19.4106 C   0  0  0  0  0  0
  -29.4704  -12.4789   18.1846 C   0  0  0  0  0  0
  -27.9910  -12.3628   18.5968 C   0  0  0  0  0  0
  -27.6290  -13.2316   19.8324 C   0  0  2  0  0  0
  -28.6762  -13.1096   20.9567 C   0  0  0  0  0  0
  -25.2455  -13.8200   20.5673 C   0  0  0  0  0  0
  -24.1757  -13.0437   20.9159 C   0  0  0  0  0  0
  -24.6353  -11.6917   20.8723 C   0  0  0  0  0  0
  -23.9046  -10.4282   21.0412 C   0  0  0  0  0  0
  -24.3595   -9.4208   21.9195 C   0  0  0  0  0  0
  -23.6275   -8.2249   22.0775 C   0  0  0  0  0  0
  -22.4253   -8.0271   21.3571 C   0  0  0  0  0  0
  -21.9890   -9.0246   20.4673 C   0  0  0  0  0  0
  -22.7215  -10.2123   20.3077 C   0  0  0  0  0  0
  -21.6871   -6.0744   22.5277 C   0  0  0  0  0  0
  -21.4027   -6.5633   23.8213 C   0  0  0  0  0  0
  -21.3629   -5.6783   24.9166 C   0  0  0  0  0  0
  -21.6038   -4.3052   24.7210 C   0  0  0  0  0  0
  -21.8816   -3.8138   23.4331 C   0  0  0  0  0  0
  -21.9195   -4.6972   22.3403 C   0  0  0  0  0  0
  -22.7786  -13.5239   21.1801 C   0  0  0  0  0  0
  -22.1663   -4.2157   21.1000 F   0  0  0  0  0  0
  -21.5603   -3.4541   25.7723 F   0  0  0  0  0  0
  -29.9916  -13.3596   20.3598 N   0  0  0  0  0  0
  -26.2862  -12.9409   20.3216 N   0  0  0  0  0  0
  -25.9276  -11.6546   20.5693 N   0  0  0  0  0  0
  -22.0383  -12.8309   22.0367 N   0  0  0  0  0  0
  -25.4110  -15.1924   20.4150 N   0  0  0  0  0  0
  -31.9721  -14.3751   20.3602 O   0  0  0  0  0  0
  -21.6625   -6.8865   21.4231 O   0  0  0  0  0  0
  -22.3505  -14.5533   20.6582 O   0  0  0  0  0  0
  -24.6461  -31.8728   23.2362 C   0  0  0  0  0  0
  -25.9441  -32.4775   23.8471 C   0  0  1  0  0  0
  -27.1276  -27.3530   20.0198 C   0  0  0  0  0  0
  -25.6375  -33.8548   24.2504 N   0  0  0  0  0  0
  -23.4188  -30.5495   21.5712 C   0  0  2  0  0  0
  -24.8231  -29.0353   20.1311 C   0  0  0  0  0  0
  -22.7501  -29.4887   22.4839 C   0  0  0  0  0  0
  -18.0338  -28.1430   22.8432 C   0  0  0  0  0  0
  -24.1470  -36.7075   23.2643 C   0  0  0  0  0  0
  -25.9774  -30.8095   21.4098 C   0  0  0  0  0  0
  -26.0222  -29.4555   20.7174 C   0  0  0  0  0  0
  -27.1882  -28.6288   20.6658 C   0  0  0  0  0  0
  -25.8290  -26.9251   19.6249 C   0  0  0  0  0  0
  -24.7182  -27.7575   19.6035 C   0  0  0  0  0  0
  -23.6412  -29.9695   20.1638 C   0  0  0  0  0  0
  -25.4112  -36.2991   24.0391 C   0  0  1  0  0  0
  -20.5942  -28.3825   23.1140 C   0  0  2  0  0  0
  -20.6876  -26.9566   22.5321 C   0  0  0  0  0  0
  -19.5852  -26.6469   21.5116 C   0  0  0  0  0  0
  -18.2040  -26.8009   22.1502 C   0  0  0  0  0  0
  -19.1599  -28.8928   23.2783 C   0  0  0  0  0  0
  -18.9520  -30.1477   23.8887 C   0  0  0  0  0  0
  -17.6544  -30.6638   24.0572 C   0  0  0  0  0  0
  -25.9124  -34.9402   23.5166 C   0  0  0  0  0  0
  -16.5422  -29.9159   23.6277 C   0  0  0  0  0  0
  -16.7324  -28.6531   23.0354 C   0  0  0  0  0  0
  -26.4882  -31.6493   25.0750 C   0  0  0  0  0  0
  -25.4236  -31.3533   26.1531 C   0  0  0  0  0  0
  -27.0634  -30.2871   24.6137 C   0  0  0  0  0  0
  -27.6458  -32.4225   25.7554 C   0  0  0  0  0  0
  -27.5522  -37.1746   24.8514 C   0  0  0  0  0  0
  -21.4237  -29.3183   22.3484 N   0  0  0  0  0  0
  -26.4194  -37.3778   23.9501 N   0  0  0  0  0  0
  -24.6990  -31.0903   22.1238 N   0  0  0  0  0  0
  -23.4232  -28.8314   23.2839 O   0  0  0  0  0  0
  -28.2507  -26.5428   19.7205 O   0  0  0  0  0  0
  -26.5487  -34.8894   22.4587 O   0  0  0  0  0  0
  -23.5668  -32.1504   23.7806 O   0  0  0  0  0  0
  -30.8832  -19.4224   20.0204 C   0  0  0  0  0  0
  -30.9579  -20.4887   19.1202 C   0  0  0  0  0  0
  -29.4097  -18.2149   18.4942 C   0  0  0  0  0  0
  -30.2476  -18.2203   19.6424 C   0  0  0  0  0  0
  -30.2927  -20.4191   17.8882 C   0  0  0  0  0  0
  -29.4093  -19.3399   17.6173 C   0  0  0  0  0  0
  -29.3009  -22.8045   15.3905 C   0  0  0  0  0  0
  -28.5402  -24.0858   15.1181 C   0  0  0  0  0  0
  -27.8856  -24.6688   16.3657 C   0  0  0  0  0  0
  -29.4474  -23.3846   17.8540 C   0  0  0  0  0  0
  -28.8152  -24.8017   17.6198 C   0  0  2  0  0  0
  -32.2591  -16.9015   19.4943 C   0  0  0  0  0  0
  -27.6856  -18.4465   16.1439 C   0  0  0  0  0  0
  -30.6983  -21.4394   16.8315 C   0  0  0  0  0  0
  -27.9617  -25.3861   18.8276 C   0  0  0  0  0  0
  -30.9033  -16.9841   20.2667 C   0  0  2  0  0  0
  -29.7901  -22.5841   16.6361 N   0  0  0  0  0  0
  -30.1550  -15.6899   20.3597 N   0  0  0  0  0  0
  -29.4899  -22.0496   14.4276 O   0  0  0  0  0  0
  -28.6741  -19.4255   16.4471 O   0  0  0  0  0  0
  -31.4241  -12.3699   19.0955 H   0  0  0  0  0  0
  -30.2567  -11.3230   19.8613 H   0  0  0  0  0  0
  -29.7085  -11.7305   17.4277 H   0  0  0  0  0  0
  -29.6472  -13.4502   17.7190 H   0  0  0  0  0  0
  -27.7891  -11.3107   18.8051 H   0  0  0  0  0  0
  -27.3501  -12.6268   17.7571 H   0  0  0  0  0  0
  -27.6410  -14.2640   19.4867 H   0  0  0  0  0  0
  -28.6526  -12.1138   21.4011 H   0  0  0  0  0  0
  -28.4687  -13.8191   21.7591 H   0  0  0  0  0  0
  -25.2732   -9.5708   22.4796 H   0  0  0  0  0  0
  -23.9974   -7.4659   22.7523 H   0  0  0  0  0  0
  -21.0817   -8.8765   19.9017 H   0  0  0  0  0  0
  -22.3643  -10.9666   19.6207 H   0  0  0  0  0  0
  -21.2043   -7.6144   23.9713 H   0  0  0  0  0  0
  -21.1442   -6.0523   25.9076 H   0  0  0  0  0  0
  -22.0621   -2.7614   23.2836 H   0  0  0  0  0  0
  -22.3920  -12.0025   22.4901 H   0  0  0  0  0  0
  -21.1011  -13.1438   22.2472 H   0  0  0  0  0  0
  -24.6385  -15.8391   20.5324 H   0  0  0  0  0  0
  -26.2654  -15.6491   20.1269 H   0  0  0  0  0  0
  -26.7513  -32.5442   23.1177 H   0  0  0  0  0  0
  -25.1244  -33.9718   25.1138 H   0  0  0  0  0  0
  -22.7099  -31.3765   21.4791 H   0  0  0  0  0  0
  -23.3767  -35.9355   23.3366 H   0  0  0  0  0  0
  -24.3546  -36.8543   22.2026 H   0  0  0  0  0  0
  -23.7149  -37.6294   23.6536 H   0  0  0  0  0  0
  -26.1702  -31.6033   20.6876 H   0  0  0  0  0  0
  -26.8398  -30.7972   22.0632 H   0  0  0  0  0  0
  -28.1075  -28.9716   21.1223 H   0  0  0  0  0  0
  -25.5693  -25.9368   19.2811 H   0  0  0  0  0  0
  -23.7733  -27.4038   19.2106 H   0  0  0  0  0  0
  -23.8662  -30.7959   19.4847 H   0  0  0  0  0  0
  -22.7362  -29.5100   19.7670 H   0  0  0  0  0  0
  -25.1258  -36.1805   25.0861 H   0  0  0  0  0  0
  -21.0008  -28.3510   24.1282 H   0  0  0  0  0  0
  -20.5799  -26.2506   23.3551 H   0  0  0  0  0  0
  -21.6741  -26.7696   22.1123 H   0  0  0  0  0  0
  -19.7039  -25.6351   21.1245 H   0  0  0  0  0  0
  -19.6789  -27.3171   20.6552 H   0  0  0  0  0  0
  -17.4299  -26.6749   21.3883 H   0  0  0  0  0  0
  -18.0437  -26.0199   22.8914 H   0  0  0  0  0  0
  -19.8022  -30.7234   24.2344 H   0  0  0  0  0  0
  -17.5136  -31.6318   24.5164 H   0  0  0  0  0  0
  -15.5419  -30.3049   23.7669 H   0  0  0  0  0  0
  -15.8719  -28.0820   22.7128 H   0  0  0  0  0  0
  -24.6369  -30.6953   25.7797 H   0  0  0  0  0  0
  -24.9593  -32.2673   26.5190 H   0  0  0  0  0  0
  -25.8765  -30.8494   27.0085 H   0  0  0  0  0  0
  -26.3015  -29.6532   24.1576 H   0  0  0  0  0  0
  -27.4698  -29.7214   25.4520 H   0  0  0  0  0  0
  -27.8824  -30.3951   23.9051 H   0  0  0  0  0  0
  -27.3008  -33.3432   26.2235 H   0  0  0  0  0  0
  -28.4282  -32.6939   25.0456 H   0  0  0  0  0  0
  -28.1126  -31.8340   26.5445 H   0  0  0  0  0  0
  -28.2635  -37.9983   24.7552 H   0  0  0  0  0  0
  -28.0952  -36.2516   24.6333 H   0  0  0  0  0  0
  -27.2294  -37.1398   25.8955 H   0  0  0  0  0  0
  -20.9418  -29.8855   21.6668 H   0  0  0  0  0  0
  -26.0011  -38.2783   24.1644 H   0  0  0  0  0  0
  -31.5356  -19.4410   20.8834 H   0  0  0  0  0  0
  -31.6378  -21.3035   19.3299 H   0  0  0  0  0  0
  -28.8888  -17.3128   18.2153 H   0  0  0  0  0  0
  -27.7840  -23.8817   14.3534 H   0  0  0  0  0  0
  -29.2393  -24.7876   14.6729 H   0  0  0  0  0  0
  -27.0297  -24.0406   16.6246 H   0  0  0  0  0  0
  -27.4714  -25.6315   16.0738 H   0  0  0  0  0  0
  -28.7445  -22.7705   18.4139 H   0  0  0  0  0  0
  -30.3275  -23.4720   18.4950 H   0  0  0  0  0  0
  -29.6067  -25.5113   17.3927 H   0  0  0  0  0  0
  -32.6740  -17.8698   19.2246 H   0  0  0  0  0  0
  -32.1483  -16.3601   18.5535 H   0  0  0  0  0  0
  -33.0527  -16.4451   20.0848 H   0  0  0  0  0  0
  -27.1022  -18.8131   15.2968 H   0  0  0  0  0  0
  -26.9777  -18.2731   16.9550 H   0  0  0  0  0  0
  -28.1317  -17.4991   15.8387 H   0  0  0  0  0  0
  -30.8828  -20.8569   15.9256 H   0  0  0  0  0  0
  -31.6869  -21.8342   17.0685 H   0  0  0  0  0  0
  -27.5160  -24.5786   19.4114 H   0  0  0  0  0  0
  -27.1797  -25.7595   18.1812 H   0  0  0  0  0  0
  -31.1260  -17.2493   21.3027 H   0  0  0  0  0  0
  -29.1502  -15.7208   20.4084 H   0  0  0  0  0  0
  1 25  1  0  0  0
  1 30  2  0  0  0
  1 88  1  0  0  0
  2  3  1  0  0  0
  2 25  1  0  0  0
  2 91  1  0  0  0
  2 92  1  0  0  0
  3  4  1  0  0  0
  3 93  1  0  0  0
  3 94  1  0  0  0
  4  5  1  0  0  0
  4 95  1  0  0  0
  4 96  1  0  0  0
  5  6  1  0  0  0
  5 26  1  0  0  0
  5 97  1  0  0  0
  6 25  1  0  0  0
  6 98  1  0  0  0
  6 99  1  0  0  0
  7  8  2  0  0  0
  7 26  1  0  0  0
  7 29  1  0  0  0
  8  9  1  0  0  0
  8 22  1  0  0  0
  9 10  1  0  0  0
  9 27  2  0  0  0
 10 11  2  0  0  0
 10 15  1  0  0  0
 11 12  1  0  0  0
 11100  1  0  0  0
 12 13  2  0  0  0
 12101  1  0  0  0
 13 14  1  0  0  0
 13 31  1  0  0  0
 14 15  2  0  0  0
 14102  1  0  0  0
 15103  1  0  0  0
 16 17  2  0  0  0
 16 21  1  0  0  0
 16 31  1  0  0  0
 17 18  1  0  0  0
 17104  1  0  0  0
 18 19  2  0  0  0
 18105  1  0  0  0
 19 20  1  0  0  0
 19 24  1  0  0  0
 20 21  2  0  0  0
 20106  1  0  0  0
 21 23  1  0  0  0
 22 28  1  0  0  0
 22 32  2  0  0  0
 26 27  1  0  0  0
 28107  1  0  0  0
 28108  1  0  0  0
 29109  1  0  0  0
 29110  1  0  0  0
 33 34  1  0  0  0
 33 66  1  0  0  0
 33 70  2  0  0  0
 34 36  1  0  0  0
 34 59  1  0  0  0
 34111  1  0  0  0
 35 44  2  0  0  0
 35 45  1  0  0  0
 35 68  1  0  0  0
 36 56  1  0  0  0
 36112  1  0  0  0
 37 39  1  0  0  0
 37 47  1  0  0  0
 37 66  1  0  0  0
 37113  1  0  0  0
 38 43  2  0  0  0
 38 46  1  0  0  0
 38 47  1  0  0  0
 39 64  1  0  0  0
 39 67  2  0  0  0
 40 52  1  0  0  0
 40 53  2  0  0  0
 40 58  1  0  0  0
 41114  1  0  0  0
 41115  1  0  0  0
 41116  1  0  0  0
 41 48  1  0  0  0
 42 43  1  0  0  0
 42 66  1  0  0  0
 42117  1  0  0  0
 42118  1  0  0  0
 43 44  1  0  0  0
 44119  1  0  0  0
 45 46  2  0  0  0
 45120  1  0  0  0
 46121  1  0  0  0
 47122  1  0  0  0
 47123  1  0  0  0
 48 56  1  0  0  0
 48 65  1  0  0  0
 48124  1  0  0  0
 49 50  1  0  0  0
 49 53  1  0  0  0
 49 64  1  0  0  0
 49125  1  0  0  0
 50 51  1  0  0  0
 50126  1  0  0  0
 50127  1  0  0  0
 51 52  1  0  0  0
 51128  1  0  0  0
 51129  1  0  0  0
 52130  1  0  0  0
 52131  1  0  0  0
 53 54  1  0  0  0
 54 55  2  0  0  0
 54132  1  0  0  0
 55 57  1  0  0  0
 55133  1  0  0  0
 56 69  2  0  0  0
 57 58  2  0  0  0
 57134  1  0  0  0
 58135  1  0  0  0
 59 60  1  0  0  0
 59 61  1  0  0  0
 59 62  1  0  0  0
 60136  1  0  0  0
 60137  1  0  0  0
 60138  1  0  0  0
 61139  1  0  0  0
 61140  1  0  0  0
 61141  1  0  0  0
 62142  1  0  0  0
 62143  1  0  0  0
 62144  1  0  0  0
 63 65  1  0  0  0
 63145  1  0  0  0
 63146  1  0  0  0
 63147  1  0  0  0
 64148  1  0  0  0
 65149  1  0  0  0
 68 85  1  0  0  0
 71 72  2  0  0  0
 71 74  1  0  0  0
 71150  1  0  0  0
 72 75  1  0  0  0
 72151  1  0  0  0
 73 74  2  0  0  0
 73 76  1  0  0  0
 73152  1  0  0  0
 74 86  1  0  0  0
 75 76  2  0  0  0
 75 84  1  0  0  0
 76 90  1  0  0  0
 77 78  1  0  0  0
 77 87  1  0  0  0
 77 89  2  0  0  0
 78 79  1  0  0  0
 78153  1  0  0  0
 78154  1  0  0  0
 79 81  1  0  0  0
 79155  1  0  0  0
 79156  1  0  0  0
 80 81  1  0  0  0
 80 87  1  0  0  0
 80157  1  0  0  0
 80158  1  0  0  0
 81 85  1  0  0  0
 81159  1  0  0  0
 82160  1  0  0  0
 82161  1  0  0  0
 82162  1  0  0  0
 82 86  1  0  0  0
 83 90  1  0  0  0
 83163  1  0  0  0
 83164  1  0  0  0
 83165  1  0  0  0
 84 87  1  0  0  0
 84166  1  0  0  0
 84167  1  0  0  0
 85168  1  0  0  0
 85169  1  0  0  0
 86 88  1  0  0  0
 86170  1  0  0  0
 88171  1  0  0  0
M  ISO  4   1 100  68 101  85 101  88 100
M  END
> <chiral flag>
0

> <version>
0

> <s_m_source_file>
/data/baiqing/PycharmProjects/Reinvent-master-3.2/result/LINK_invent/BTK/process_docking_weight1_custom_product_contain_oxygen_bond_distance_aromatic_linkinvent_7_9_3/rearranged_h_0098.sdf

> <i_m_source_file_index>
4

> <r_mmod_Potential_Energy-OPLS-2005>
244.288635253906

> <r_mmod_Stretch_Energy-OPLS-2005>
70.4591827392578

> <r_mmod_Bend_Energy-OPLS-2005>
203.949508666992

> <r_mmod_Torsional_Energy-OPLS-2005>
303.693176269531

> <r_mmod_Improper_Torsional_Energy-OPLS-2005>
13.4596166610718

> <r_mmod_Van_der_Waal_Energy-OPLS-2005>
226.505401611328

> <r_mmod_Electrostatic_Energy-OPLS-2005>
-420.115936279297

> <r_mmod_Solvation_Energy-OPLS-2005>
-236.265274047852

> <b_mmod_Minimization_Converged-OPLS-2005>
0

> <r_mmod_RMS_Derivative-OPLS-2005>
10.4899845123291

$$$$
4
                    3D
 Structure written by MMmdl.
156164  0  0  1  0            999 V2000
  -30.6545  -14.6231   20.5792 C   0  0  0  0  0  0
  -30.4382  -12.4051   19.4566 C   0  0  0  0  0  0
  -29.5095  -12.5318   18.2272 C   0  0  0  0  0  0
  -28.0306  -12.3606   18.6276 C   0  0  0  0  0  0
  -27.6563  -13.2117   19.8680 C   0  0  2  0  0  0
  -28.6924  -13.0149   20.9924 C   0  0  0  0  0  0
  -25.2565  -13.8160   20.5653 C   0  0  0  0  0  0
  -24.1829  -13.0431   20.9165 C   0  0  0  0  0  0
  -24.6390  -11.6899   20.8718 C   0  0  0  0  0  0
  -23.9056  -10.4289   21.0400 C   0  0  0  0  0  0
  -24.3612   -9.4208   21.9181 C   0  0  0  0  0  0
  -23.6290   -8.2243   22.0754 C   0  0  0  0  0  0
  -22.4273   -8.0280   21.3545 C   0  0  0  0  0  0
  -21.9905   -9.0250   20.4646 C   0  0  0  0  0  0
  -22.7226  -10.2131   20.3052 C   0  0  0  0  0  0
  -21.6852   -6.0732   22.5275 C   0  0  0  0  0  0
  -21.4014   -6.5639   23.8207 C   0  0  0  0  0  0
  -21.3660   -5.6796   24.9173 C   0  0  0  0  0  0
  -21.6044   -4.3057   24.7226 C   0  0  0  0  0  0
  -21.8820   -3.8146   23.4348 C   0  0  0  0  0  0
  -21.9191   -4.6959   22.3402 C   0  0  0  0  0  0
  -22.7854  -13.5224   21.1846 C   0  0  0  0  0  0
  -22.1659   -4.2145   21.0979 F   0  0  0  0  0  0
  -21.5628   -3.4542   25.7740 F   0  0  0  0  0  0
  -30.0153  -13.4036   20.4663 N   0  0  0  0  0  0
  -26.2991  -12.9330   20.3297 N   0  0  0  0  0  0
  -25.9311  -11.6487   20.5716 N   0  0  0  0  0  0
  -22.0504  -12.8213   22.0406 N   0  0  0  0  0  0
  -25.4297  -15.1881   20.4070 N   0  0  0  0  0  0
  -31.7431  -14.8178   20.0253 O   0  0  0  0  0  0
  -21.6641   -6.8874   21.4237 O   0  0  0  0  0  0
  -22.3532  -14.5532   20.6705 O   0  0  0  0  0  0
  -24.6248  -31.8598   23.2025 C   0  0  0  0  0  0
  -25.9094  -32.4782   23.8355 C   0  0  1  0  0  0
  -27.2289  -27.3341   20.1208 C   0  0  0  0  0  0
  -25.5912  -33.8583   24.2282 N   0  0  0  0  0  0
  -23.4181  -30.4824   21.5448 C   0  0  2  0  0  0
  -24.8659  -28.9338   20.1146 C   0  0  0  0  0  0
  -22.7460  -29.4631   22.4948 C   0  0  0  0  0  0
  -18.0296  -28.1373   22.8492 C   0  0  0  0  0  0
  -24.1488  -36.7300   23.2638 C   0  0  0  0  0  0
  -25.9570  -30.7965   21.3695 C   0  0  0  0  0  0
  -26.0335  -29.4230   20.7154 C   0  0  0  0  0  0
  -27.2203  -28.6352   20.7056 C   0  0  0  0  0  0
  -26.0429  -26.8897   19.4989 C   0  0  0  0  0  0
  -24.8712  -27.6715   19.4985 C   0  0  0  0  0  0
  -23.6324  -29.8123   20.1619 C   0  0  0  0  0  0
  -25.4112  -36.3089   24.0330 C   0  0  1  0  0  0
  -20.5886  -28.3682   23.1292 C   0  0  2  0  0  0
  -20.6785  -26.9414   22.5399 C   0  0  0  0  0  0
  -19.5765  -26.6392   21.5202 C   0  0  0  0  0  0
  -18.1947  -26.7921   22.1619 C   0  0  0  0  0  0
  -19.1543  -28.8844   23.2891 C   0  0  0  0  0  0
  -18.9463  -30.1445   23.8906 C   0  0  0  0  0  0
  -17.6465  -30.6580   24.0564 C   0  0  0  0  0  0
  -25.9043  -34.9454   23.5106 C   0  0  0  0  0  0
  -16.5358  -29.9077   23.6330 C   0  0  0  0  0  0
  -16.7280  -28.6490   23.0355 C   0  0  0  0  0  0
  -26.4484  -31.6591   25.0721 C   0  0  0  0  0  0
  -25.3726  -31.3723   26.1454 C   0  0  0  0  0  0
  -27.0325  -30.3021   24.6153 C   0  0  0  0  0  0
  -27.6043  -32.4326   25.7494 C   0  0  0  0  0  0
  -27.5578  -37.1806   24.8464 C   0  0  0  0  0  0
  -21.4174  -29.3044   22.3691 N   0  0  0  0  0  0
  -26.4294  -37.3781   23.9404 N   0  0  0  0  0  0
  -24.6855  -31.0624   22.0966 N   0  0  0  0  0  0
  -23.4189  -28.8169   23.3022 O   0  0  0  0  0  0
  -28.3549  -26.5045   20.1221 O   0  0  0  0  0  0
  -26.5617  -34.8920   22.4673 O   0  0  0  0  0  0
  -23.5414  -32.1383   23.7366 O   0  0  0  0  0  0
  -29.5247  -18.2853   21.8315 C   0  0  0  0  0  0
  -29.3653  -19.6443   21.4388 C   0  0  0  0  0  0
  -30.1303  -17.6781   19.6051 C   0  0  0  0  0  0
  -29.9117  -17.2400   20.9380 C   0  0  0  0  0  0
  -29.5843  -20.0730   20.1072 C   0  0  0  0  0  0
  -29.9660  -19.0369   19.1855 C   0  0  0  0  0  0
  -30.0064  -15.7752   21.4411 C   0  0  0  0  0  0
  -29.5121  -20.2824   17.1698 C   0  0  0  0  0  0
  -28.9315  -23.9351   19.8631 C   0  0  0  0  0  0
  -28.1952  -25.1215   20.6210 C   0  0  0  0  0  0
  -28.9005  -22.4822   20.5212 C   0  0  0  0  0  0
  -29.6006  -15.5226   22.6174 N   0  0  0  0  0  0
  -30.2185  -19.2497   17.8462 O   0  0  0  0  0  0
  -29.4830  -21.4213   19.6968 O   0  0  0  0  0  0
  -31.4783  -12.5332   19.1528 H   0  0  0  0  0  0
  -30.3825  -11.3986   19.8750 H   0  0  0  0  0  0
  -29.7809  -11.7925   17.4724 H   0  0  0  0  0  0
  -29.6518  -13.5088   17.7628 H   0  0  0  0  0  0
  -27.8654  -11.3040   18.8420 H   0  0  0  0  0  0
  -27.3784  -12.6052   17.7886 H   0  0  0  0  0  0
  -27.6919  -14.2570   19.5608 H   0  0  0  0  0  0
  -28.7122  -11.9691   21.3030 H   0  0  0  0  0  0
  -28.3814  -13.5515   21.8827 H   0  0  0  0  0  0
  -25.2762   -9.5686   22.4748 H   0  0  0  0  0  0
  -23.9997   -7.4638   22.7480 H   0  0  0  0  0  0
  -21.0831   -8.8767   19.8957 H   0  0  0  0  0  0
  -22.3683  -10.9668   19.6158 H   0  0  0  0  0  0
  -21.2006   -7.6148   23.9708 H   0  0  0  0  0  0
  -21.1482   -6.0528   25.9075 H   0  0  0  0  0  0
  -22.0600   -2.7608   23.2848 H   0  0  0  0  0  0
  -22.4123  -11.9869   22.4785 H   0  0  0  0  0  0
  -21.1135  -13.1251   22.2642 H   0  0  0  0  0  0
  -24.6687  -15.8485   20.5216 H   0  0  0  0  0  0
  -26.2919  -15.6264   20.1075 H   0  0  0  0  0  0
  -26.7163  -32.5459   23.1109 H   0  0  0  0  0  0
  -25.0053  -33.9730   25.0422 H   0  0  0  0  0  0
  -22.7116  -31.3023   21.4002 H   0  0  0  0  0  0
  -23.3747  -35.9638   23.3308 H   0  0  0  0  0  0
  -24.3579  -36.8913   22.2051 H   0  0  0  0  0  0
  -23.7246  -37.6507   23.6657 H   0  0  0  0  0  0
  -26.0822  -31.5591   20.5995 H   0  0  0  0  0  0
  -26.8398  -30.8493   21.9953 H   0  0  0  0  0  0
  -28.1198  -29.0084   21.1744 H   0  0  0  0  0  0
  -26.0176  -25.9243   19.0133 H   0  0  0  0  0  0
  -23.9769  -27.2918   19.0234 H   0  0  0  0  0  0
  -23.7488  -30.5866   19.4022 H   0  0  0  0  0  0
  -22.7534  -29.2386   19.8631 H   0  0  0  0  0  0
  -25.1296  -36.1943   25.0826 H   0  0  0  0  0  0
  -20.9981  -28.3253   24.1412 H   0  0  0  0  0  0
  -20.5685  -26.2287   23.3587 H   0  0  0  0  0  0
  -21.6656  -26.7447   22.1195 H   0  0  0  0  0  0
  -19.6937  -25.6307   21.1217 H   0  0  0  0  0  0
  -19.6693  -27.3206   20.6734 H   0  0  0  0  0  0
  -17.4215  -26.6662   21.4026 H   0  0  0  0  0  0
  -18.0360  -26.0053   22.9007 H   0  0  0  0  0  0
  -19.7939  -30.7256   24.2284 H   0  0  0  0  0  0
  -17.5021  -31.6261   24.5159 H   0  0  0  0  0  0
  -15.5358  -30.2981   23.7652 H   0  0  0  0  0  0
  -15.8683  -28.0811   22.7068 H   0  0  0  0  0  0
  -24.5901  -30.7067   25.7792 H   0  0  0  0  0  0
  -24.8916  -32.2887   26.4885 H   0  0  0  0  0  0
  -25.8058  -30.8904   27.0226 H   0  0  0  0  0  0
  -26.2893  -29.6777   24.1179 H   0  0  0  0  0  0
  -27.4037  -29.7268   25.4643 H   0  0  0  0  0  0
  -27.8754  -30.4322   23.9362 H   0  0  0  0  0  0
  -27.2649  -33.3621   26.2080 H   0  0  0  0  0  0
  -28.3851  -32.6893   25.0321 H   0  0  0  0  0  0
  -28.0715  -31.8446   26.5403 H   0  0  0  0  0  0
  -28.2604  -38.0096   24.7504 H   0  0  0  0  0  0
  -28.1067  -36.2626   24.6303 H   0  0  0  0  0  0
  -27.2295  -37.1474   25.8868 H   0  0  0  0  0  0
  -20.9343  -29.8759   21.6897 H   0  0  0  0  0  0
  -26.0175  -38.2859   24.1399 H   0  0  0  0  0  0
  -29.3365  -18.0613   22.8717 H   0  0  0  0  0  0
  -29.0792  -20.3598   22.1957 H   0  0  0  0  0  0
  -30.4167  -16.9506   18.8591 H   0  0  0  0  0  0
  -30.0147  -21.2439   17.2770 H   0  0  0  0  0  0
  -28.4793  -20.3713   17.5106 H   0  0  0  0  0  0
  -29.4823  -20.0527   16.1047 H   0  0  0  0  0  0
  -29.9755  -24.2164   19.7227 H   0  0  0  0  0  0
  -28.5090  -23.8646   18.8608 H   0  0  0  0  0  0
  -28.5671  -25.1366   21.6459 H   0  0  0  0  0  0
  -27.1426  -24.8545   20.7197 H   0  0  0  0  0  0
  -27.8667  -22.2118   20.7393 H   0  0  0  0  0  0
  -29.4235  -22.5221   21.4775 H   0  0  0  0  0  0
  -29.2267  -16.3517   23.0600 H   0  0  0  0  0  0
  1 25  1  0  0  0
  1 30  2  0  0  0
  1 77  1  0  0  0
  2  3  1  0  0  0
  2 25  1  0  0  0
  2 85  1  0  0  0
  2 86  1  0  0  0
  3  4  1  0  0  0
  3 87  1  0  0  0
  3 88  1  0  0  0
  4  5  1  0  0  0
  4 89  1  0  0  0
  4 90  1  0  0  0
  5  6  1  0  0  0
  5 26  1  0  0  0
  5 91  1  0  0  0
  6 25  1  0  0  0
  6 92  1  0  0  0
  6 93  1  0  0  0
  7  8  2  0  0  0
  7 26  1  0  0  0
  7 29  1  0  0  0
  8  9  1  0  0  0
  8 22  1  0  0  0
  9 10  1  0  0  0
  9 27  2  0  0  0
 10 11  2  0  0  0
 10 15  1  0  0  0
 11 12  1  0  0  0
 11 94  1  0  0  0
 12 13  2  0  0  0
 12 95  1  0  0  0
 13 14  1  0  0  0
 13 31  1  0  0  0
 14 15  2  0  0  0
 14 96  1  0  0  0
 15 97  1  0  0  0
 16 17  2  0  0  0
 16 21  1  0  0  0
 16 31  1  0  0  0
 17 18  1  0  0  0
 17 98  1  0  0  0
 18 19  2  0  0  0
 18 99  1  0  0  0
 19 20  1  0  0  0
 19 24  1  0  0  0
 20 21  2  0  0  0
 20100  1  0  0  0
 21 23  1  0  0  0
 22 28  1  0  0  0
 22 32  2  0  0  0
 26 27  1  0  0  0
 28101  1  0  0  0
 28102  1  0  0  0
 29103  1  0  0  0
 29104  1  0  0  0
 33 34  1  0  0  0
 33 66  1  0  0  0
 33 70  2  0  0  0
 34 36  1  0  0  0
 34 59  1  0  0  0
 34105  1  0  0  0
 35 44  2  0  0  0
 35 45  1  0  0  0
 35 68  1  0  0  0
 36 56  1  0  0  0
 36106  1  0  0  0
 37 39  1  0  0  0
 37 47  1  0  0  0
 37 66  1  0  0  0
 37107  1  0  0  0
 38 43  2  0  0  0
 38 46  1  0  0  0
 38 47  1  0  0  0
 39 64  1  0  0  0
 39 67  2  0  0  0
 40 52  1  0  0  0
 40 53  2  0  0  0
 40 58  1  0  0  0
 41108  1  0  0  0
 41109  1  0  0  0
 41110  1  0  0  0
 41 48  1  0  0  0
 42 43  1  0  0  0
 42 66  1  0  0  0
 42111  1  0  0  0
 42112  1  0  0  0
 43 44  1  0  0  0
 44113  1  0  0  0
 45 46  2  0  0  0
 45114  1  0  0  0
 46115  1  0  0  0
 47116  1  0  0  0
 47117  1  0  0  0
 48 56  1  0  0  0
 48 65  1  0  0  0
 48118  1  0  0  0
 49 50  1  0  0  0
 49 53  1  0  0  0
 49 64  1  0  0  0
 49119  1  0  0  0
 50 51  1  0  0  0
 50120  1  0  0  0
 50121  1  0  0  0
 51 52  1  0  0  0
 51122  1  0  0  0
 51123  1  0  0  0
 52124  1  0  0  0
 52125  1  0  0  0
 53 54  1  0  0  0
 54 55  2  0  0  0
 54126  1  0  0  0
 55 57  1  0  0  0
 55127  1  0  0  0
 56 69  2  0  0  0
 57 58  2  0  0  0
 57128  1  0  0  0
 58129  1  0  0  0
 59 60  1  0  0  0
 59 61  1  0  0  0
 59 62  1  0  0  0
 60130  1  0  0  0
 60131  1  0  0  0
 60132  1  0  0  0
 61133  1  0  0  0
 61134  1  0  0  0
 61135  1  0  0  0
 62136  1  0  0  0
 62137  1  0  0  0
 62138  1  0  0  0
 63 65  1  0  0  0
 63139  1  0  0  0
 63140  1  0  0  0
 63141  1  0  0  0
 64142  1  0  0  0
 65143  1  0  0  0
 68 80  1  0  0  0
 71 72  2  0  0  0
 71 74  1  0  0  0
 71144  1  0  0  0
 72 75  1  0  0  0
 72145  1  0  0  0
 73 74  2  0  0  0
 73 76  1  0  0  0
 73146  1  0  0  0
 74 77  1  0  0  0
 75 76  2  0  0  0
 75 84  1  0  0  0
 76 83  1  0  0  0
 77 82  2  0  0  0
 78 83  1  0  0  0
 78147  1  0  0  0
 78148  1  0  0  0
 78149  1  0  0  0
 79 80  1  0  0  0
 79 81  1  0  0  0
 79150  1  0  0  0
 79151  1  0  0  0
 80152  1  0  0  0
 80153  1  0  0  0
 81 84  1  0  0  0
 81154  1  0  0  0
 81155  1  0  0  0
 82156  1  0  0  0
M  ISO  4   1 100  68 101  77 100  80 101
M  END
> <chiral flag>
0

> <version>
0

> <s_m_source_file>
/data/baiqing/PycharmProjects/Reinvent-master-3.2/result/LINK_invent/BTK/process_docking_weight1_custom_product_contain_oxygen_bond_distance_aromatic_linkinvent_7_9_3/rearranged_h_0098.sdf

> <i_m_source_file_index>
5

> <r_mmod_Potential_Energy-OPLS-2005>
216.069030761719

> <r_mmod_Stretch_Energy-OPLS-2005>
90.6702423095703

> <r_mmod_Bend_Energy-OPLS-2005>
160.263366699219

> <r_mmod_Torsional_Energy-OPLS-2005>
215.12060546875

> <r_mmod_Improper_Torsional_Energy-OPLS-2005>
2.3287353515625

> <r_mmod_Van_der_Waal_Energy-OPLS-2005>
157.438858032227

> <r_mmod_Electrostatic_Energy-OPLS-2005>
-242.926345825195

> <r_mmod_Solvation_Energy-OPLS-2005>
-206.341857910156

> <b_mmod_Minimization_Converged-OPLS-2005>
0

> <r_mmod_RMS_Derivative-OPLS-2005>
0.843963444232941

$$$$
5
                    3D
 Structure written by MMmdl.
156164  0  0  1  0            999 V2000
  -30.7242  -14.5165   20.5030 C   0  0  0  0  0  0
  -30.3949  -12.3079   19.4640 C   0  0  0  0  0  0
  -29.4937  -12.4989   18.2294 C   0  0  0  0  0  0
  -28.0137  -12.3597   18.6300 C   0  0  0  0  0  0
  -27.6473  -13.2224   19.8668 C   0  0  2  0  0  0
  -28.6866  -13.0626   21.0031 C   0  0  0  0  0  0
  -25.2470  -13.8215   20.5668 C   0  0  0  0  0  0
  -24.1742  -13.0441   20.9201 C   0  0  0  0  0  0
  -24.6336  -11.6920   20.8755 C   0  0  0  0  0  0
  -23.9033  -10.4282   21.0409 C   0  0  0  0  0  0
  -24.3586   -9.4189   21.9182 C   0  0  0  0  0  0
  -23.6260   -8.2218   22.0741 C   0  0  0  0  0  0
  -22.4234   -8.0267   21.3550 C   0  0  0  0  0  0
  -21.9884   -9.0228   20.4640 C   0  0  0  0  0  0
  -22.7206  -10.2116   20.3050 C   0  0  0  0  0  0
  -21.6844   -6.0703   22.5261 C   0  0  0  0  0  0
  -21.4021   -6.5618   23.8196 C   0  0  0  0  0  0
  -21.3659   -5.6787   24.9172 C   0  0  0  0  0  0
  -21.6050   -4.3046   24.7238 C   0  0  0  0  0  0
  -21.8805   -3.8114   23.4362 C   0  0  0  0  0  0
  -21.9181   -4.6923   22.3406 C   0  0  0  0  0  0
  -22.7778  -13.5222   21.1875 C   0  0  0  0  0  0
  -22.1644   -4.2101   21.0990 F   0  0  0  0  0  0
  -21.5624   -3.4533   25.7759 F   0  0  0  0  0  0
  -30.0212  -13.3459   20.4465 N   0  0  0  0  0  0
  -26.2912  -12.9396   20.3327 N   0  0  0  0  0  0
  -25.9257  -11.6539   20.5761 N   0  0  0  0  0  0
  -22.0429  -12.8204   22.0458 N   0  0  0  0  0  0
  -25.4172  -15.1921   20.4055 N   0  0  0  0  0  0
  -31.8769  -14.5707   20.0634 O   0  0  0  0  0  0
  -21.6617   -6.8847   21.4226 O   0  0  0  0  0  0
  -22.3442  -14.5503   20.6719 O   0  0  0  0  0  0
  -24.6136  -31.8691   23.2084 C   0  0  0  0  0  0
  -25.9022  -32.4813   23.8399 C   0  0  1  0  0  0
  -27.2329  -27.4289   20.0986 C   0  0  0  0  0  0
  -25.5886  -33.8617   24.2333 N   0  0  0  0  0  0
  -23.4029  -30.4925   21.5470 C   0  0  2  0  0  0
  -24.8514  -28.9546   20.1154 C   0  0  0  0  0  0
  -22.7414  -29.4675   22.4979 C   0  0  0  0  0  0
  -18.0259  -28.1384   22.8520 C   0  0  0  0  0  0
  -24.1480  -36.7326   23.2625 C   0  0  0  0  0  0
  -25.9317  -30.8292   21.3661 C   0  0  0  0  0  0
  -26.0111  -29.4627   20.7146 C   0  0  0  0  0  0
  -27.2074  -28.7064   20.7058 C   0  0  0  0  0  0
  -26.0596  -26.9403   19.4881 C   0  0  0  0  0  0
  -24.8699  -27.6919   19.4984 C   0  0  0  0  0  0
  -23.6148  -29.8228   20.1633 C   0  0  0  0  0  0
  -25.4101  -36.3120   24.0329 C   0  0  1  0  0  0
  -20.5863  -28.3690   23.1309 C   0  0  2  0  0  0
  -20.6738  -26.9440   22.5341 C   0  0  0  0  0  0
  -19.5699  -26.6425   21.5180 C   0  0  0  0  0  0
  -18.1890  -26.7975   22.1602 C   0  0  0  0  0  0
  -19.1516  -28.8857   23.2919 C   0  0  0  0  0  0
  -18.9445  -30.1431   23.8931 C   0  0  0  0  0  0
  -17.6452  -30.6596   24.0553 C   0  0  0  0  0  0
  -25.9043  -34.9477   23.5138 C   0  0  0  0  0  0
  -16.5349  -29.9097   23.6324 C   0  0  0  0  0  0
  -16.7252  -28.6488   23.0422 C   0  0  0  0  0  0
  -26.4472  -31.6603   25.0730 C   0  0  0  0  0  0
  -25.3745  -31.3689   26.1477 C   0  0  0  0  0  0
  -27.0320  -30.3048   24.6114 C   0  0  0  0  0  0
  -27.6067  -32.4321   25.7490 C   0  0  0  0  0  0
  -27.5586  -37.1809   24.8459 C   0  0  0  0  0  0
  -21.4146  -29.3094   22.3750 N   0  0  0  0  0  0
  -26.4298  -37.3790   23.9404 N   0  0  0  0  0  0
  -24.6667  -31.0810   22.0987 N   0  0  0  0  0  0
  -23.4177  -28.8229   23.3029 O   0  0  0  0  0  0
  -28.3734  -26.6532   20.0982 O   0  0  0  0  0  0
  -26.5589  -34.8930   22.4692 O   0  0  0  0  0  0
  -23.5333  -32.1442   23.7478 O   0  0  0  0  0  0
  -28.5530  -19.1138   23.2887 C   0  0  0  0  0  0
  -28.4905  -20.3339   22.5966 C   0  0  0  0  0  0
  -29.7034  -19.3272   20.7556 C   0  0  0  0  0  0
  -29.7377  -18.0629   21.4213 C   0  0  0  0  0  0
  -29.1829  -17.9816   22.7327 C   0  0  0  0  0  0
  -29.0761  -20.4698   21.3179 C   0  0  0  0  0  0
  -30.4825  -16.9194   20.7463 C   0  0  0  0  0  0
  -28.3138  -22.8182   20.7884 C   0  0  0  0  0  0
  -29.2870  -16.7502   23.6253 C   0  0  0  0  0  0
  -28.6708  -24.1219   20.0303 C   0  0  0  0  0  0
  -28.2301  -25.4025   20.8024 C   0  0  0  0  0  0
  -29.1096  -21.7334   20.6256 N   0  0  0  0  0  0
  -30.0684  -15.6326   20.9257 N   0  0  0  0  0  0
  -31.4082  -17.2461   19.9890 O   0  0  0  0  0  0
  -27.2902  -22.7961   21.4770 O   0  0  0  0  0  0
  -31.4485  -12.3361   19.1840 H   0  0  0  0  0  0
  -30.2393  -11.3151   19.8925 H   0  0  0  0  0  0
  -29.7513  -11.7736   17.4583 H   0  0  0  0  0  0
  -29.6580  -13.4845   17.7916 H   0  0  0  0  0  0
  -27.8487  -11.3068   18.8576 H   0  0  0  0  0  0
  -27.3599  -12.5952   17.7902 H   0  0  0  0  0  0
  -27.6764  -14.2616   19.5391 H   0  0  0  0  0  0
  -28.6560  -12.0434   21.3922 H   0  0  0  0  0  0
  -28.4458  -13.7023   21.8543 H   0  0  0  0  0  0
  -25.2729   -9.5641   22.4767 H   0  0  0  0  0  0
  -23.9952   -7.4601   22.7451 H   0  0  0  0  0  0
  -21.0815   -8.8719   19.8959 H   0  0  0  0  0  0
  -22.3643  -10.9633   19.6138 H   0  0  0  0  0  0
  -21.2039   -7.6125   23.9697 H   0  0  0  0  0  0
  -21.1503   -6.0523   25.9082 H   0  0  0  0  0  0
  -22.0599   -2.7572   23.2877 H   0  0  0  0  0  0
  -22.4068  -11.9886   22.4861 H   0  0  0  0  0  0
  -21.1039  -13.1192   22.2678 H   0  0  0  0  0  0
  -24.6482  -15.8487   20.4867 H   0  0  0  0  0  0
  -26.2695  -15.6227   20.0689 H   0  0  0  0  0  0
  -26.7116  -32.5553   23.1199 H   0  0  0  0  0  0
  -25.0088  -33.9795   25.0514 H   0  0  0  0  0  0
  -22.6859  -31.3021   21.4029 H   0  0  0  0  0  0
  -23.3753  -35.9657   23.3306 H   0  0  0  0  0  0
  -24.3569  -36.8917   22.2036 H   0  0  0  0  0  0
  -23.7241  -37.6530   23.6649 H   0  0  0  0  0  0
  -26.0440  -31.5923   20.5943 H   0  0  0  0  0  0
  -26.8173  -30.8872   21.9893 H   0  0  0  0  0  0
  -28.0970  -29.0902   21.1865 H   0  0  0  0  0  0
  -26.0694  -25.9717   19.0102 H   0  0  0  0  0  0
  -23.9816  -27.2942   19.0268 H   0  0  0  0  0  0
  -23.7224  -30.5932   19.4001 H   0  0  0  0  0  0
  -22.7399  -29.2395   19.8730 H   0  0  0  0  0  0
  -25.1290  -36.1987   25.0822 H   0  0  0  0  0  0
  -20.9972  -28.3202   24.1416 H   0  0  0  0  0  0
  -20.5758  -26.2272   23.3534 H   0  0  0  0  0  0
  -21.6573  -26.7527   22.1038 H   0  0  0  0  0  0
  -19.6878  -25.6354   21.1155 H   0  0  0  0  0  0
  -19.6674  -27.3242   20.6722 H   0  0  0  0  0  0
  -17.4205  -26.6840   21.3950 H   0  0  0  0  0  0
  -18.0244  -26.0095   22.8967 H   0  0  0  0  0  0
  -19.7904  -30.7178   24.2443 H   0  0  0  0  0  0
  -17.5035  -31.6242   24.5258 H   0  0  0  0  0  0
  -15.5361  -30.3020   23.7691 H   0  0  0  0  0  0
  -15.8656  -28.0763   22.7151 H   0  0  0  0  0  0
  -24.5922  -30.7033   25.7798 H   0  0  0  0  0  0
  -24.8953  -32.2846   26.4959 H   0  0  0  0  0  0
  -25.8095  -30.8832   27.0219 H   0  0  0  0  0  0
  -26.2877  -29.6791   24.1179 H   0  0  0  0  0  0
  -27.4097  -29.7279   25.4562 H   0  0  0  0  0  0
  -27.8714  -30.4344   23.9275 H   0  0  0  0  0  0
  -27.2698  -33.3598   26.2123 H   0  0  0  0  0  0
  -28.3866  -32.6894   25.0317 H   0  0  0  0  0  0
  -28.0781  -31.8420   26.5357 H   0  0  0  0  0  0
  -28.2603  -38.0096   24.7519 H   0  0  0  0  0  0
  -28.1075  -36.2641   24.6305 H   0  0  0  0  0  0
  -27.2296  -37.1478   25.8846 H   0  0  0  0  0  0
  -20.9406  -29.8901   21.6976 H   0  0  0  0  0  0
  -26.0202  -38.2871   24.1411 H   0  0  0  0  0  0
  -28.1259  -19.0652   24.2821 H   0  0  0  0  0  0
  -28.0105  -21.1629   23.0946 H   0  0  0  0  0  0
  -30.1906  -19.4250   19.7917 H   0  0  0  0  0  0
  -28.6880  -16.8737   24.5273 H   0  0  0  0  0  0
  -30.3219  -16.5939   23.9351 H   0  0  0  0  0  0
  -28.9115  -15.8456   23.1538 H   0  0  0  0  0  0
  -28.2022  -24.0759   19.0462 H   0  0  0  0  0  0
  -29.7461  -24.1601   19.8557 H   0  0  0  0  0  0
  -28.8372  -25.4803   21.7059 H   0  0  0  0  0  0
  -27.2052  -25.2747   21.1594 H   0  0  0  0  0  0
  -29.8372  -21.8403   19.9316 H   0  0  0  0  0  0
  -29.2004  -15.5030   21.4180 H   0  0  0  0  0  0
  1 25  1  0  0  0
  1 30  2  0  0  0
  1 83  1  0  0  0
  2  3  1  0  0  0
  2 25  1  0  0  0
  2 86  1  0  0  0
  2 87  1  0  0  0
  3  4  1  0  0  0
  3 88  1  0  0  0
  3 89  1  0  0  0
  4  5  1  0  0  0
  4 90  1  0  0  0
  4 91  1  0  0  0
  5  6  1  0  0  0
  5 26  1  0  0  0
  5 92  1  0  0  0
  6 25  1  0  0  0
  6 93  1  0  0  0
  6 94  1  0  0  0
  7  8  2  0  0  0
  7 26  1  0  0  0
  7 29  1  0  0  0
  8  9  1  0  0  0
  8 22  1  0  0  0
  9 10  1  0  0  0
  9 27  2  0  0  0
 10 11  2  0  0  0
 10 15  1  0  0  0
 11 12  1  0  0  0
 11 95  1  0  0  0
 12 13  2  0  0  0
 12 96  1  0  0  0
 13 14  1  0  0  0
 13 31  1  0  0  0
 14 15  2  0  0  0
 14 97  1  0  0  0
 15 98  1  0  0  0
 16 17  2  0  0  0
 16 21  1  0  0  0
 16 31  1  0  0  0
 17 18  1  0  0  0
 17 99  1  0  0  0
 18 19  2  0  0  0
 18100  1  0  0  0
 19 20  1  0  0  0
 19 24  1  0  0  0
 20 21  2  0  0  0
 20101  1  0  0  0
 21 23  1  0  0  0
 22 28  1  0  0  0
 22 32  2  0  0  0
 26 27  1  0  0  0
 28102  1  0  0  0
 28103  1  0  0  0
 29104  1  0  0  0
 29105  1  0  0  0
 33 34  1  0  0  0
 33 66  1  0  0  0
 33 70  2  0  0  0
 34 36  1  0  0  0
 34 59  1  0  0  0
 34106  1  0  0  0
 35 44  2  0  0  0
 35 45  1  0  0  0
 35 68  1  0  0  0
 36 56  1  0  0  0
 36107  1  0  0  0
 37 39  1  0  0  0
 37 47  1  0  0  0
 37 66  1  0  0  0
 37108  1  0  0  0
 38 43  2  0  0  0
 38 46  1  0  0  0
 38 47  1  0  0  0
 39 64  1  0  0  0
 39 67  2  0  0  0
 40 52  1  0  0  0
 40 53  2  0  0  0
 40 58  1  0  0  0
 41109  1  0  0  0
 41110  1  0  0  0
 41111  1  0  0  0
 41 48  1  0  0  0
 42 43  1  0  0  0
 42 66  1  0  0  0
 42112  1  0  0  0
 42113  1  0  0  0
 43 44  1  0  0  0
 44114  1  0  0  0
 45 46  2  0  0  0
 45115  1  0  0  0
 46116  1  0  0  0
 47117  1  0  0  0
 47118  1  0  0  0
 48 56  1  0  0  0
 48 65  1  0  0  0
 48119  1  0  0  0
 49 50  1  0  0  0
 49 53  1  0  0  0
 49 64  1  0  0  0
 49120  1  0  0  0
 50 51  1  0  0  0
 50121  1  0  0  0
 50122  1  0  0  0
 51 52  1  0  0  0
 51123  1  0  0  0
 51124  1  0  0  0
 52125  1  0  0  0
 52126  1  0  0  0
 53 54  1  0  0  0
 54 55  2  0  0  0
 54127  1  0  0  0
 55 57  1  0  0  0
 55128  1  0  0  0
 56 69  2  0  0  0
 57 58  2  0  0  0
 57129  1  0  0  0
 58130  1  0  0  0
 59 60  1  0  0  0
 59 61  1  0  0  0
 59 62  1  0  0  0
 60131  1  0  0  0
 60132  1  0  0  0
 60133  1  0  0  0
 61134  1  0  0  0
 61135  1  0  0  0
 61136  1  0  0  0
 62137  1  0  0  0
 62138  1  0  0  0
 62139  1  0  0  0
 63 65  1  0  0  0
 63140  1  0  0  0
 63141  1  0  0  0
 63142  1  0  0  0
 64143  1  0  0  0
 65144  1  0  0  0
 68 81  1  0  0  0
 71 72  2  0  0  0
 71 75  1  0  0  0
 71145  1  0  0  0
 72 76  1  0  0  0
 72146  1  0  0  0
 73 74  1  0  0  0
 73 76  2  0  0  0
 73147  1  0  0  0
 74 75  2  0  0  0
 74 77  1  0  0  0
 75 79  1  0  0  0
 76 82  1  0  0  0
 77 83  1  0  0  0
 77 84  2  0  0  0
 78 80  1  0  0  0
 78 82  1  0  0  0
 78 85  2  0  0  0
 79148  1  0  0  0
 79149  1  0  0  0
 79150  1  0  0  0
 80 81  1  0  0  0
 80151  1  0  0  0
 80152  1  0  0  0
 81153  1  0  0  0
 81154  1  0  0  0
 82155  1  0  0  0
 83156  1  0  0  0
M  ISO  4   1 100  68 101  81 101  83 100
M  END
> <chiral flag>
0

> <version>
0

> <s_m_source_file>
/data/baiqing/PycharmProjects/Reinvent-master-3.2/result/LINK_invent/BTK/process_docking_weight1_custom_product_contain_oxygen_bond_distance_aromatic_linkinvent_7_9_3/rearranged_h_0098.sdf

> <i_m_source_file_index>
6

> <r_mmod_Potential_Energy-OPLS-2005>
-103.192474365234

> <r_mmod_Stretch_Energy-OPLS-2005>
47.0823211669922

> <r_mmod_Bend_Energy-OPLS-2005>
111.122032165527

> <r_mmod_Torsional_Energy-OPLS-2005>
248.500778198242

> <r_mmod_Improper_Torsional_Energy-OPLS-2005>
4.56255102157593

> <r_mmod_Van_der_Waal_Energy-OPLS-2005>
174.913482666016

> <r_mmod_Electrostatic_Energy-OPLS-2005>
-469.566436767578

> <r_mmod_Solvation_Energy-OPLS-2005>
-240.539978027344

> <b_mmod_Minimization_Converged-OPLS-2005>
0

> <r_mmod_RMS_Derivative-OPLS-2005>
6.27608728408813

$$$$
6
                    3D
 Structure written by MMmdl.
157165  0  0  1  0            999 V2000
  -30.7316  -14.4385   20.6228 C   0  0  0  0  0  0
  -30.4129  -12.3047   19.4154 C   0  0  0  0  0  0
  -29.4863  -12.5225   18.2039 C   0  0  0  0  0  0
  -28.0094  -12.3781   18.6177 C   0  0  0  0  0  0
  -27.6611  -13.2090   19.8802 C   0  0  2  0  0  0
  -28.7012  -12.9838   20.9997 C   0  0  0  0  0  0
  -25.2578  -13.8158   20.5686 C   0  0  0  0  0  0
  -24.1832  -13.0430   20.9164 C   0  0  0  0  0  0
  -24.6394  -11.6904   20.8727 C   0  0  0  0  0  0
  -23.9058  -10.4293   21.0407 C   0  0  0  0  0  0
  -24.3614   -9.4204   21.9185 C   0  0  0  0  0  0
  -23.6290   -8.2240   22.0760 C   0  0  0  0  0  0
  -22.4275   -8.0282   21.3543 C   0  0  0  0  0  0
  -21.9907   -9.0253   20.4643 C   0  0  0  0  0  0
  -22.7231  -10.2133   20.3052 C   0  0  0  0  0  0
  -21.6855   -6.0725   22.5273 C   0  0  0  0  0  0
  -21.4018   -6.5635   23.8204 C   0  0  0  0  0  0
  -21.3666   -5.6795   24.9172 C   0  0  0  0  0  0
  -21.6051   -4.3055   24.7224 C   0  0  0  0  0  0
  -21.8821   -3.8139   23.4343 C   0  0  0  0  0  0
  -21.9195   -4.6954   22.3398 C   0  0  0  0  0  0
  -22.7852  -13.5222   21.1834 C   0  0  0  0  0  0
  -22.1663   -4.2142   21.0972 F   0  0  0  0  0  0
  -21.5634   -3.4540   25.7735 F   0  0  0  0  0  0
  -30.0333  -13.2836   20.4488 N   0  0  0  0  0  0
  -26.3025  -12.9336   20.3402 N   0  0  0  0  0  0
  -25.9320  -11.6488   20.5774 N   0  0  0  0  0  0
  -22.0511  -12.8209   22.0394 N   0  0  0  0  0  0
  -25.4297  -15.1879   20.4100 N   0  0  0  0  0  0
  -31.8195  -14.6452   20.0807 O   0  0  0  0  0  0
  -21.6644   -6.8872   21.4240 O   0  0  0  0  0  0
  -22.3534  -14.5536   20.6712 O   0  0  0  0  0  0
  -24.6146  -31.8680   23.2110 C   0  0  0  0  0  0
  -25.9038  -32.4819   23.8403 C   0  0  1  0  0  0
  -27.2259  -27.4098   20.0967 C   0  0  0  0  0  0
  -25.5887  -33.8612   24.2333 N   0  0  0  0  0  0
  -23.4055  -30.4916   21.5519 C   0  0  2  0  0  0
  -24.8487  -28.9635   20.1129 C   0  0  0  0  0  0
  -22.7435  -29.4650   22.4995 C   0  0  0  0  0  0
  -18.0283  -28.1361   22.8484 C   0  0  0  0  0  0
  -24.1493  -36.7308   23.2642 C   0  0  0  0  0  0
  -25.9378  -30.8266   21.3681 C   0  0  0  0  0  0
  -26.0126  -29.4612   20.7102 C   0  0  0  0  0  0
  -27.2022  -28.6918   20.7011 C   0  0  0  0  0  0
  -26.0368  -26.9425   19.4829 C   0  0  0  0  0  0
  -24.8574  -27.7036   19.4961 C   0  0  0  0  0  0
  -23.6117  -29.8286   20.1654 C   0  0  0  0  0  0
  -25.4110  -36.3103   24.0345 C   0  0  1  0  0  0
  -20.5884  -28.3639   23.1314 C   0  0  2  0  0  0
  -20.6767  -26.9373   22.5417 C   0  0  0  0  0  0
  -19.5745  -26.6376   21.5202 C   0  0  0  0  0  0
  -18.1931  -26.7903   22.1620 C   0  0  0  0  0  0
  -19.1539  -28.8817   23.2877 C   0  0  0  0  0  0
  -18.9464  -30.1425   23.8865 C   0  0  0  0  0  0
  -17.6466  -30.6560   24.0547 C   0  0  0  0  0  0
  -25.9048  -34.9467   23.5140 C   0  0  0  0  0  0
  -16.5356  -29.9055   23.6333 C   0  0  0  0  0  0
  -16.7269  -28.6489   23.0329 C   0  0  0  0  0  0
  -26.4440  -31.6606   25.0745 C   0  0  0  0  0  0
  -25.3694  -31.3720   26.1495 C   0  0  0  0  0  0
  -27.0289  -30.3053   24.6129 C   0  0  0  0  0  0
  -27.6028  -32.4325   25.7484 C   0  0  0  0  0  0
  -27.5573  -37.1806   24.8459 C   0  0  0  0  0  0
  -21.4174  -29.3014   22.3724 N   0  0  0  0  0  0
  -26.4295  -37.3791   23.9394 N   0  0  0  0  0  0
  -24.6711  -31.0764   22.1012 N   0  0  0  0  0  0
  -23.4205  -28.8191   23.3039 O   0  0  0  0  0  0
  -28.3872  -26.6492   20.1314 O   0  0  0  0  0  0
  -26.5611  -34.8920   22.4706 O   0  0  0  0  0  0
  -23.5343  -32.1442   23.7490 O   0  0  0  0  0  0
  -28.9546  -18.3302   21.7332 C   0  0  0  0  0  0
  -30.6412  -20.1376   20.3827 C   0  0  0  0  0  0
  -30.2680  -17.9296   21.4028 C   0  0  0  0  0  0
  -28.4988  -19.6307   21.4148 C   0  0  0  0  0  0
  -29.3385  -20.5473   20.7360 C   0  0  0  0  0  0
  -31.1029  -18.8449   20.7158 C   0  0  0  0  0  0
  -30.8221  -16.5862   21.8925 C   0  0  0  0  0  0
  -29.5137  -24.3446   20.1484 C   0  0  0  0  0  0
  -29.5201  -22.9972   20.9878 C   0  0  0  0  0  0
  -28.2732  -25.2451   19.7922 C   0  0  0  0  0  0
  -27.2235  -20.0379   21.8091 N   0  0  0  0  0  0
  -28.8361  -21.8217   20.4070 N   0  0  0  0  0  0
  -30.1565  -15.3686   21.4073 N   0  0  0  0  0  0
  -32.3698  -18.4983   20.3833 F   0  0  0  0  0  0
  -31.4589  -12.3953   19.1152 H   0  0  0  0  0  0
  -30.2994  -11.2907   19.8024 H   0  0  0  0  0  0
  -29.7224  -11.8146   17.4081 H   0  0  0  0  0  0
  -29.6569  -13.5170   17.7879 H   0  0  0  0  0  0
  -27.8206  -11.3202   18.8047 H   0  0  0  0  0  0
  -27.3581  -12.6652   17.7924 H   0  0  0  0  0  0
  -27.7085  -14.2595   19.5925 H   0  0  0  0  0  0
  -28.6730  -11.9477   21.3432 H   0  0  0  0  0  0
  -28.4555  -13.5844   21.8756 H   0  0  0  0  0  0
  -25.2764   -9.5685   22.4747 H   0  0  0  0  0  0
  -24.0005   -7.4636   22.7486 H   0  0  0  0  0  0
  -21.0837   -8.8762   19.8947 H   0  0  0  0  0  0
  -22.3691  -10.9667   19.6161 H   0  0  0  0  0  0
  -21.2012   -7.6148   23.9702 H   0  0  0  0  0  0
  -21.1492   -6.0528   25.9075 H   0  0  0  0  0  0
  -22.0594   -2.7597   23.2843 H   0  0  0  0  0  0
  -22.4153  -11.9855   22.4733 H   0  0  0  0  0  0
  -21.1143  -13.1235   22.2653 H   0  0  0  0  0  0
  -24.6640  -15.8439   20.5202 H   0  0  0  0  0  0
  -26.2873  -15.6285   20.1002 H   0  0  0  0  0  0
  -26.7100  -32.5514   23.1170 H   0  0  0  0  0  0
  -24.9975  -33.9770   25.0435 H   0  0  0  0  0  0
  -22.6939  -31.3085   21.4125 H   0  0  0  0  0  0
  -23.3751  -35.9651   23.3315 H   0  0  0  0  0  0
  -24.3570  -36.8911   22.2051 H   0  0  0  0  0  0
  -23.7265  -37.6529   23.6647 H   0  0  0  0  0  0
  -26.0574  -31.5960   20.6037 H   0  0  0  0  0  0
  -26.8245  -30.8753   21.9896 H   0  0  0  0  0  0
  -28.0983  -29.0689   21.1720 H   0  0  0  0  0  0
  -25.9814  -25.9829   18.9905 H   0  0  0  0  0  0
  -23.9640  -27.3136   19.0274 H   0  0  0  0  0  0
  -23.7134  -30.6035   19.4038 H   0  0  0  0  0  0
  -22.7369  -29.2422   19.8738 H   0  0  0  0  0  0
  -25.1289  -36.1976   25.0843 H   0  0  0  0  0  0
  -20.9945  -28.3176   24.1444 H   0  0  0  0  0  0
  -20.5668  -26.2222   23.3588 H   0  0  0  0  0  0
  -21.6622  -26.7407   22.1192 H   0  0  0  0  0  0
  -19.6899  -25.6295   21.1203 H   0  0  0  0  0  0
  -19.6681  -27.3197   20.6738 H   0  0  0  0  0  0
  -17.4192  -26.6640   21.4020 H   0  0  0  0  0  0
  -18.0303  -26.0053   22.9018 H   0  0  0  0  0  0
  -19.7941  -30.7248   24.2194 H   0  0  0  0  0  0
  -17.5026  -31.6237   24.5150 H   0  0  0  0  0  0
  -15.5346  -30.2929   23.7698 H   0  0  0  0  0  0
  -15.8674  -28.0810   22.7016 H   0  0  0  0  0  0
  -24.5876  -30.7054   25.7820 H   0  0  0  0  0  0
  -24.8849  -32.2878   26.4902 H   0  0  0  0  0  0
  -25.8032  -30.8923   27.0278 H   0  0  0  0  0  0
  -26.2858  -29.6811   24.1148 H   0  0  0  0  0  0
  -27.4029  -29.7295   25.4597 H   0  0  0  0  0  0
  -27.8703  -30.4367   23.9314 H   0  0  0  0  0  0
  -27.2676  -33.3634   26.2062 H   0  0  0  0  0  0
  -28.3827  -32.6859   25.0287 H   0  0  0  0  0  0
  -28.0716  -31.8450   26.5383 H   0  0  0  0  0  0
  -28.2600  -38.0090   24.7506 H   0  0  0  0  0  0
  -28.1075  -36.2639   24.6311 H   0  0  0  0  0  0
  -27.2299  -37.1473   25.8862 H   0  0  0  0  0  0
  -20.9329  -29.8758   21.6964 H   0  0  0  0  0  0
  -26.0199  -38.2872   24.1411 H   0  0  0  0  0  0
  -28.3177  -17.6495   22.2811 H   0  0  0  0  0  0
  -31.3019  -20.8076   19.8512 H   0  0  0  0  0  0
  -30.7349  -16.5822   22.9797 H   0  0  0  0  0  0
  -31.8969  -16.5456   21.7044 H   0  0  0  0  0  0
  -29.2806  -24.8047   21.1086 H   0  0  0  0  0  0
  -29.0863  -23.7688   19.3322 H   0  0  0  0  0  0
  -29.0722  -23.1350   21.9768 H   0  0  0  0  0  0
  -30.5621  -22.7438   21.1920 H   0  0  0  0  0  0
  -27.3915  -24.8193   20.2827 H   0  0  0  0  0  0
  -28.0679  -25.2404   18.7142 H   0  0  0  0  0  0
  -26.7467  -19.4236   22.4611 H   0  0  0  0  0  0
  -27.1729  -20.9974   22.1326 H   0  0  0  0  0  0
  -27.8287  -21.8200   20.5515 H   0  0  0  0  0  0
  -29.2594  -15.1345   21.8049 H   0  0  0  0  0  0
  1 25  1  0  0  0
  1 30  2  0  0  0
  1 83  1  0  0  0
  2  3  1  0  0  0
  2 25  1  0  0  0
  2 85  1  0  0  0
  2 86  1  0  0  0
  3  4  1  0  0  0
  3 87  1  0  0  0
  3 88  1  0  0  0
  4  5  1  0  0  0
  4 89  1  0  0  0
  4 90  1  0  0  0
  5  6  1  0  0  0
  5 26  1  0  0  0
  5 91  1  0  0  0
  6 25  1  0  0  0
  6 92  1  0  0  0
  6 93  1  0  0  0
  7  8  2  0  0  0
  7 26  1  0  0  0
  7 29  1  0  0  0
  8  9  1  0  0  0
  8 22  1  0  0  0
  9 10  1  0  0  0
  9 27  2  0  0  0
 10 11  2  0  0  0
 10 15  1  0  0  0
 11 12  1  0  0  0
 11 94  1  0  0  0
 12 13  2  0  0  0
 12 95  1  0  0  0
 13 14  1  0  0  0
 13 31  1  0  0  0
 14 15  2  0  0  0
 14 96  1  0  0  0
 15 97  1  0  0  0
 16 17  2  0  0  0
 16 21  1  0  0  0
 16 31  1  0  0  0
 17 18  1  0  0  0
 17 98  1  0  0  0
 18 19  2  0  0  0
 18 99  1  0  0  0
 19 20  1  0  0  0
 19 24  1  0  0  0
 20 21  2  0  0  0
 20100  1  0  0  0
 21 23  1  0  0  0
 22 28  1  0  0  0
 22 32  2  0  0  0
 26 27  1  0  0  0
 28101  1  0  0  0
 28102  1  0  0  0
 29103  1  0  0  0
 29104  1  0  0  0
 33 34  1  0  0  0
 33 66  1  0  0  0
 33 70  2  0  0  0
 34 36  1  0  0  0
 34 59  1  0  0  0
 34105  1  0  0  0
 35 44  2  0  0  0
 35 45  1  0  0  0
 35 68  1  0  0  0
 36 56  1  0  0  0
 36106  1  0  0  0
 37 39  1  0  0  0
 37 47  1  0  0  0
 37 66  1  0  0  0
 37107  1  0  0  0
 38 43  2  0  0  0
 38 46  1  0  0  0
 38 47  1  0  0  0
 39 64  1  0  0  0
 39 67  2  0  0  0
 40 52  1  0  0  0
 40 53  2  0  0  0
 40 58  1  0  0  0
 41108  1  0  0  0
 41109  1  0  0  0
 41110  1  0  0  0
 41 48  1  0  0  0
 42 43  1  0  0  0
 42 66  1  0  0  0
 42111  1  0  0  0
 42112  1  0  0  0
 43 44  1  0  0  0
 44113  1  0  0  0
 45 46  2  0  0  0
 45114  1  0  0  0
 46115  1  0  0  0
 47116  1  0  0  0
 47117  1  0  0  0
 48 56  1  0  0  0
 48 65  1  0  0  0
 48118  1  0  0  0
 49 50  1  0  0  0
 49 53  1  0  0  0
 49 64  1  0  0  0
 49119  1  0  0  0
 50 51  1  0  0  0
 50120  1  0  0  0
 50121  1  0  0  0
 51 52  1  0  0  0
 51122  1  0  0  0
 51123  1  0  0  0
 52124  1  0  0  0
 52125  1  0  0  0
 53 54  1  0  0  0
 54 55  2  0  0  0
 54126  1  0  0  0
 55 57  1  0  0  0
 55127  1  0  0  0
 56 69  2  0  0  0
 57 58  2  0  0  0
 57128  1  0  0  0
 58129  1  0  0  0
 59 60  1  0  0  0
 59 61  1  0  0  0
 59 62  1  0  0  0
 60130  1  0  0  0
 60131  1  0  0  0
 60132  1  0  0  0
 61133  1  0  0  0
 61134  1  0  0  0
 61135  1  0  0  0
 62136  1  0  0  0
 62137  1  0  0  0
 62138  1  0  0  0
 63 65  1  0  0  0
 63139  1  0  0  0
 63140  1  0  0  0
 63141  1  0  0  0
 64142  1  0  0  0
 65143  1  0  0  0
 68 80  1  0  0  0
 71 73  2  0  0  0
 71 74  1  0  0  0
 71144  1  0  0  0
 72 75  1  0  0  0
 72 76  2  0  0  0
 72145  1  0  0  0
 73 76  1  0  0  0
 73 77  1  0  0  0
 74 75  2  0  0  0
 74 81  1  0  0  0
 75 82  1  0  0  0
 76 84  1  0  0  0
 77 83  1  0  0  0
 77146  1  0  0  0
 77147  1  0  0  0
 78 79  1  0  0  0
 78 80  1  0  0  0
 78148  1  0  0  0
 78149  1  0  0  0
 79 82  1  0  0  0
 79150  1  0  0  0
 79151  1  0  0  0
 80152  1  0  0  0
 80153  1  0  0  0
 81154  1  0  0  0
 81155  1  0  0  0
 82156  1  0  0  0
 83157  1  0  0  0
M  ISO  4   1 100  68 101  80 101  83 100
M  END
> <chiral flag>
0

> <version>
0

> <s_m_source_file>
/data/baiqing/PycharmProjects/Reinvent-master-3.2/result/LINK_invent/BTK/process_docking_weight1_custom_product_contain_oxygen_bond_distance_aromatic_linkinvent_7_9_3/rearranged_h_0098.sdf

> <i_m_source_file_index>
7

> <r_mmod_Potential_Energy-OPLS-2005>
96.2027435302734

> <r_mmod_Stretch_Energy-OPLS-2005>
45.2633781433105

> <r_mmod_Bend_Energy-OPLS-2005>
330.298950195312

> <r_mmod_Torsional_Energy-OPLS-2005>
226.444122314453

> <r_mmod_Improper_Torsional_Energy-OPLS-2005>
12.2044849395752

> <r_mmod_Van_der_Waal_Energy-OPLS-2005>
184.851272583008

> <r_mmod_Electrostatic_Energy-OPLS-2005>
-487.356719970703

> <r_mmod_Solvation_Energy-OPLS-2005>
-228.351364135742

> <b_mmod_Minimization_Converged-OPLS-2005>
0

> <r_mmod_RMS_Derivative-OPLS-2005>
2.69087314605713

$$$$
7
                    3D
 Structure written by MMmdl.
158166  0  0  1  0            999 V2000
  -30.6939  -14.4596   20.4226 C   0  0  0  0  0  0
  -30.4312  -12.2701   19.3937 C   0  0  0  0  0  0
  -29.4889  -12.4561   18.1839 C   0  0  0  0  0  0
  -28.0108  -12.3234   18.6094 C   0  0  0  0  0  0
  -27.6556  -13.1881   19.8442 C   0  0  2  0  0  0
  -28.7178  -13.0093   20.9634 C   0  0  0  0  0  0
  -25.2632  -13.8131   20.5775 C   0  0  0  0  0  0
  -24.1839  -13.0412   20.9157 C   0  0  0  0  0  0
  -24.6377  -11.6896   20.8712 C   0  0  0  0  0  0
  -23.9020  -10.4297   21.0376 C   0  0  0  0  0  0
  -24.3578   -9.4209   21.9143 C   0  0  0  0  0  0
  -23.6251   -8.2246   22.0727 C   0  0  0  0  0  0
  -22.4228   -8.0271   21.3507 C   0  0  0  0  0  0
  -21.9858   -9.0248   20.4612 C   0  0  0  0  0  0
  -22.7192  -10.2135   20.3009 C   0  0  0  0  0  0
  -21.6825   -6.0722   22.5254 C   0  0  0  0  0  0
  -21.4025   -6.5635   23.8195 C   0  0  0  0  0  0
  -21.3669   -5.6776   24.9150 C   0  0  0  0  0  0
  -21.6041   -4.3034   24.7199 C   0  0  0  0  0  0
  -21.8829   -3.8126   23.4322 C   0  0  0  0  0  0
  -21.9188   -4.6950   22.3388 C   0  0  0  0  0  0
  -22.7873  -13.5240   21.1811 C   0  0  0  0  0  0
  -22.1666   -4.2133   21.0968 F   0  0  0  0  0  0
  -21.5627   -3.4536   25.7726 F   0  0  0  0  0  0
  -30.0611  -13.2640   20.3949 N   0  0  0  0  0  0
  -26.3002  -12.9257   20.3307 N   0  0  0  0  0  0
  -25.9266  -11.6432   20.5676 N   0  0  0  0  0  0
  -22.0490  -12.8251   22.0385 N   0  0  0  0  0  0
  -25.4392  -15.1854   20.4471 N   0  0  0  0  0  0
  -31.8868  -14.6491   20.1619 O   0  0  0  0  0  0
  -21.6613   -6.8848   21.4196 O   0  0  0  0  0  0
  -22.3585  -14.5545   20.6640 O   0  0  0  0  0  0
  -24.6102  -31.8705   23.2130 C   0  0  0  0  0  0
  -25.9025  -32.4832   23.8389 C   0  0  1  0  0  0
  -27.2387  -27.4634   20.0939 C   0  0  0  0  0  0
  -25.5886  -33.8625   24.2348 N   0  0  0  0  0  0
  -23.3993  -30.4887   21.5520 C   0  0  2  0  0  0
  -24.8494  -28.9537   20.1214 C   0  0  0  0  0  0
  -22.7397  -29.4663   22.5019 C   0  0  0  0  0  0
  -18.0285  -28.1374   22.8500 C   0  0  0  0  0  0
  -24.1485  -36.7311   23.2627 C   0  0  0  0  0  0
  -25.9216  -30.8413   21.3611 C   0  0  0  0  0  0
  -26.0048  -29.4724   20.7196 C   0  0  0  0  0  0
  -27.2061  -28.7306   20.7128 C   0  0  0  0  0  0
  -26.0740  -26.9488   19.4902 C   0  0  0  0  0  0
  -24.8719  -27.6851   19.5090 C   0  0  0  0  0  0
  -23.6099  -29.8178   20.1681 C   0  0  0  0  0  0
  -25.4103  -36.3118   24.0333 C   0  0  1  0  0  0
  -20.5851  -28.3658   23.1360 C   0  0  2  0  0  0
  -20.6739  -26.9353   22.5570 C   0  0  0  0  0  0
  -19.5809  -26.6339   21.5249 C   0  0  0  0  0  0
  -18.1918  -26.7942   22.1574 C   0  0  0  0  0  0
  -19.1511  -28.8849   23.2924 C   0  0  0  0  0  0
  -18.9447  -30.1453   23.8917 C   0  0  0  0  0  0
  -17.6434  -30.6599   24.0547 C   0  0  0  0  0  0
  -25.9018  -34.9484   23.5133 C   0  0  0  0  0  0
  -16.5339  -29.9061   23.6328 C   0  0  0  0  0  0
  -16.7266  -28.6485   23.0362 C   0  0  0  0  0  0
  -26.4460  -31.6603   25.0708 C   0  0  0  0  0  0
  -25.3735  -31.3708   26.1486 C   0  0  0  0  0  0
  -27.0263  -30.3045   24.6039 C   0  0  0  0  0  0
  -27.6051  -32.4319   25.7461 C   0  0  0  0  0  0
  -27.5577  -37.1824   24.8472 C   0  0  0  0  0  0
  -21.4129  -29.2975   22.3699 N   0  0  0  0  0  0
  -26.4308  -37.3797   23.9385 N   0  0  0  0  0  0
  -24.6609  -31.0807   22.1013 N   0  0  0  0  0  0
  -23.4204  -28.8256   23.3070 O   0  0  0  0  0  0
  -28.4066  -26.7495   20.0389 O   0  0  0  0  0  0
  -26.5590  -34.8941   22.4705 O   0  0  0  0  0  0
  -23.5320  -32.1460   23.7569 O   0  0  0  0  0  0
  -28.7737  -17.1405   21.6524 C   0  0  0  0  0  0
  -28.6571  -18.4535   22.1084 C   0  0  0  0  0  0
  -30.8723  -17.7161   20.5237 C   0  0  0  0  0  0
  -30.7475  -19.0501   20.9821 C   0  0  0  0  0  0
  -29.8778  -16.7616   20.8681 C   0  0  0  0  0  0
  -29.6137  -19.4270   21.7457 C   0  0  0  0  0  0
  -28.1195  -24.4912   20.9601 C   0  0  0  0  0  0
  -31.7971  -20.0823   20.6166 C   0  0  0  0  0  0
  -28.6615  -25.9156   21.1754 C   0  0  0  0  0  0
  -27.5146  -22.3329   22.0347 C   0  0  0  0  0  0
  -28.3622  -21.3059   21.2636 C   0  0  0  0  0  0
  -29.8081  -15.4513   20.3679 N   0  0  0  0  0  0
  -28.0822  -23.6814   22.0245 N   0  0  0  0  0  0
  -27.7360  -24.1231   19.8452 O   0  0  0  0  0  0
  -29.3879  -20.7389   22.0767 O   0  0  0  0  0  0
  -31.4745  -12.3746   19.0866 H   0  0  0  0  0  0
  -30.3369  -11.2727   19.8177 H   0  0  0  0  0  0
  -29.7201  -11.7128   17.4204 H   0  0  0  0  0  0
  -29.6571  -13.4241   17.7140 H   0  0  0  0  0  0
  -27.8244  -11.2719   18.8331 H   0  0  0  0  0  0
  -27.3528  -12.5762   17.7810 H   0  0  0  0  0  0
  -27.6662  -14.2172   19.4898 H   0  0  0  0  0  0
  -28.6786  -12.0061   21.3826 H   0  0  0  0  0  0
  -28.5069  -13.6783   21.8000 H   0  0  0  0  0  0
  -25.2709   -9.5742   22.4711 H   0  0  0  0  0  0
  -23.9981   -7.4666   22.7459 H   0  0  0  0  0  0
  -21.0781   -8.8734   19.8944 H   0  0  0  0  0  0
  -22.3581  -10.9663   19.6131 H   0  0  0  0  0  0
  -21.2039   -7.6145   23.9711 H   0  0  0  0  0  0
  -21.1454   -6.0488   25.9054 H   0  0  0  0  0  0
  -22.0603   -2.7580   23.2812 H   0  0  0  0  0  0
  -22.4140  -11.9934   22.4794 H   0  0  0  0  0  0
  -21.1101  -13.1285   22.2604 H   0  0  0  0  0  0
  -24.6851  -15.8402   20.6184 H   0  0  0  0  0  0
  -26.2925  -15.6447   20.1644 H   0  0  0  0  0  0
  -26.7093  -32.5561   23.1144 H   0  0  0  0  0  0
  -25.0021  -33.9773   25.0488 H   0  0  0  0  0  0
  -22.6883  -31.3036   21.4096 H   0  0  0  0  0  0
  -23.3729  -35.9667   23.3334 H   0  0  0  0  0  0
  -24.3573  -36.8898   22.2038 H   0  0  0  0  0  0
  -23.7293  -37.6540   23.6620 H   0  0  0  0  0  0
  -26.0284  -31.6066   20.5897 H   0  0  0  0  0  0
  -26.8097  -30.9048   21.9766 H   0  0  0  0  0  0
  -28.1050  -29.1255   21.1715 H   0  0  0  0  0  0
  -26.0975  -25.9871   18.9942 H   0  0  0  0  0  0
  -23.9803  -27.2852   19.0388 H   0  0  0  0  0  0
  -23.7132  -30.5963   19.4105 H   0  0  0  0  0  0
  -22.7363  -29.2335   19.8715 H   0  0  0  0  0  0
  -25.1295  -36.1965   25.0829 H   0  0  0  0  0  0
  -20.9895  -28.3369   24.1506 H   0  0  0  0  0  0
  -21.6690  -26.7317   22.1532 H   0  0  0  0  0  0
  -20.5450  -26.2343   23.3813 H   0  0  0  0  0  0
  -19.6997  -25.6236   21.1340 H   0  0  0  0  0  0
  -19.6873  -27.3120   20.6760 H   0  0  0  0  0  0
  -18.0199  -26.0039   22.8892 H   0  0  0  0  0  0
  -17.4261  -26.6760   21.3869 H   0  0  0  0  0  0
  -19.7903  -30.7279   24.2298 H   0  0  0  0  0  0
  -17.5006  -31.6303   24.5100 H   0  0  0  0  0  0
  -15.5318  -30.2961   23.7611 H   0  0  0  0  0  0
  -15.8690  -28.0801   22.7054 H   0  0  0  0  0  0
  -24.5872  -30.7089   25.7817 H   0  0  0  0  0  0
  -24.8934  -32.2861   26.4969 H   0  0  0  0  0  0
  -25.8102  -30.8841   27.0225 H   0  0  0  0  0  0
  -26.2764  -29.6848   24.1099 H   0  0  0  0  0  0
  -27.4046  -29.7259   25.4479 H   0  0  0  0  0  0
  -27.8620  -30.4339   23.9157 H   0  0  0  0  0  0
  -27.2652  -33.3600   26.2080 H   0  0  0  0  0  0
  -28.3830  -32.6941   25.0262 H   0  0  0  0  0  0
  -28.0743  -31.8408   26.5345 H   0  0  0  0  0  0
  -28.2638  -38.0082   24.7476 H   0  0  0  0  0  0
  -28.1042  -36.2623   24.6347 H   0  0  0  0  0  0
  -27.2286  -37.1536   25.8879 H   0  0  0  0  0  0
  -20.9277  -29.8726   21.6948 H   0  0  0  0  0  0
  -26.0201  -38.2875   24.1382 H   0  0  0  0  0  0
  -28.0036  -16.4182   21.8836 H   0  0  0  0  0  0
  -27.8055  -18.7122   22.7110 H   0  0  0  0  0  0
  -31.6996  -17.4389   19.8778 H   0  0  0  0  0  0
  -32.7885  -19.6310   20.5257 H   0  0  0  0  0  0
  -31.8520  -20.8405   21.3984 H   0  0  0  0  0  0
  -31.5474  -20.5836   19.6786 H   0  0  0  0  0  0
  -29.7422  -25.8496   21.3081 H   0  0  0  0  0  0
  -28.2547  -26.3423   22.0960 H   0  0  0  0  0  0
  -27.3528  -21.9957   23.0586 H   0  0  0  0  0  0
  -26.5235  -22.3848   21.5797 H   0  0  0  0  0  0
  -28.8352  -21.7382   20.3838 H   0  0  0  0  0  0
  -27.6819  -20.5395   20.8825 H   0  0  0  0  0  0
  -28.8723  -15.0850   20.3479 H   0  0  0  0  0  0
  -28.3995  -24.0496   22.9126 H   0  0  0  0  0  0
  1 25  1  0  0  0
  1 30  2  0  0  0
  1 82  1  0  0  0
  2  3  1  0  0  0
  2 25  1  0  0  0
  2 86  1  0  0  0
  2 87  1  0  0  0
  3  4  1  0  0  0
  3 88  1  0  0  0
  3 89  1  0  0  0
  4  5  1  0  0  0
  4 90  1  0  0  0
  4 91  1  0  0  0
  5  6  1  0  0  0
  5 26  1  0  0  0
  5 92  1  0  0  0
  6 25  1  0  0  0
  6 93  1  0  0  0
  6 94  1  0  0  0
  7  8  2  0  0  0
  7 26  1  0  0  0
  7 29  1  0  0  0
  8  9  1  0  0  0
  8 22  1  0  0  0
  9 10  1  0  0  0
  9 27  2  0  0  0
 10 11  2  0  0  0
 10 15  1  0  0  0
 11 12  1  0  0  0
 11 95  1  0  0  0
 12 13  2  0  0  0
 12 96  1  0  0  0
 13 14  1  0  0  0
 13 31  1  0  0  0
 14 15  2  0  0  0
 14 97  1  0  0  0
 15 98  1  0  0  0
 16 17  2  0  0  0
 16 21  1  0  0  0
 16 31  1  0  0  0
 17 18  1  0  0  0
 17 99  1  0  0  0
 18 19  2  0  0  0
 18100  1  0  0  0
 19 20  1  0  0  0
 19 24  1  0  0  0
 20 21  2  0  0  0
 20101  1  0  0  0
 21 23  1  0  0  0
 22 28  1  0  0  0
 22 32  2  0  0  0
 26 27  1  0  0  0
 28102  1  0  0  0
 28103  1  0  0  0
 29104  1  0  0  0
 29105  1  0  0  0
 33 34  1  0  0  0
 33 66  1  0  0  0
 33 70  2  0  0  0
 34 36  1  0  0  0
 34 59  1  0  0  0
 34106  1  0  0  0
 35 44  2  0  0  0
 35 45  1  0  0  0
 35 68  1  0  0  0
 36 56  1  0  0  0
 36107  1  0  0  0
 37 39  1  0  0  0
 37 47  1  0  0  0
 37 66  1  0  0  0
 37108  1  0  0  0
 38 43  2  0  0  0
 38 46  1  0  0  0
 38 47  1  0  0  0
 39 64  1  0  0  0
 39 67  2  0  0  0
 40 52  1  0  0  0
 40 53  2  0  0  0
 40 58  1  0  0  0
 41109  1  0  0  0
 41110  1  0  0  0
 41111  1  0  0  0
 41 48  1  0  0  0
 42 43  1  0  0  0
 42 66  1  0  0  0
 42112  1  0  0  0
 42113  1  0  0  0
 43 44  1  0  0  0
 44114  1  0  0  0
 45 46  2  0  0  0
 45115  1  0  0  0
 46116  1  0  0  0
 47117  1  0  0  0
 47118  1  0  0  0
 48 56  1  0  0  0
 48 65  1  0  0  0
 48119  1  0  0  0
 49 50  1  0  0  0
 49 53  1  0  0  0
 49 64  1  0  0  0
 49120  1  0  0  0
 50 51  1  0  0  0
 50121  1  0  0  0
 50122  1  0  0  0
 51 52  1  0  0  0
 51123  1  0  0  0
 51124  1  0  0  0
 52125  1  0  0  0
 52126  1  0  0  0
 53 54  1  0  0  0
 54 55  2  0  0  0
 54127  1  0  0  0
 55 57  1  0  0  0
 55128  1  0  0  0
 56 69  2  0  0  0
 57 58  2  0  0  0
 57129  1  0  0  0
 58130  1  0  0  0
 59 60  1  0  0  0
 59 61  1  0  0  0
 59 62  1  0  0  0
 60131  1  0  0  0
 60132  1  0  0  0
 60133  1  0  0  0
 61134  1  0  0  0
 61135  1  0  0  0
 61136  1  0  0  0
 62137  1  0  0  0
 62138  1  0  0  0
 62139  1  0  0  0
 63 65  1  0  0  0
 63140  1  0  0  0
 63141  1  0  0  0
 63142  1  0  0  0
 64143  1  0  0  0
 65144  1  0  0  0
 68 79  1  0  0  0
 71 72  2  0  0  0
 71 75  1  0  0  0
 71145  1  0  0  0
 72 76  1  0  0  0
 72146  1  0  0  0
 73 74  1  0  0  0
 73 75  2  0  0  0
 73147  1  0  0  0
 74 76  2  0  0  0
 74 78  1  0  0  0
 75 82  1  0  0  0
 76 85  1  0  0  0
 77 79  1  0  0  0
 77 83  1  0  0  0
 77 84  2  0  0  0
 78148  1  0  0  0
 78149  1  0  0  0
 78150  1  0  0  0
 79151  1  0  0  0
 79152  1  0  0  0
 80 81  1  0  0  0
 80 83  1  0  0  0
 80153  1  0  0  0
 80154  1  0  0  0
 81 85  1  0  0  0
 81155  1  0  0  0
 81156  1  0  0  0
 82157  1  0  0  0
 83158  1  0  0  0
M  ISO  4   1 100  68 101  79 101  82 100
M  END
> <chiral flag>
0

> <version>
0

> <s_m_source_file>
/data/baiqing/PycharmProjects/Reinvent-master-3.2/result/LINK_invent/BTK/process_docking_weight1_custom_product_contain_oxygen_bond_distance_aromatic_linkinvent_7_9_3/rearranged_h_0098.sdf

> <i_m_source_file_index>
8

> <r_mmod_Potential_Energy-OPLS-2005>
-65.0361785888672

> <r_mmod_Stretch_Energy-OPLS-2005>
33.6049156188965

> <r_mmod_Bend_Energy-OPLS-2005>
98.5562591552734

> <r_mmod_Torsional_Energy-OPLS-2005>
294.778930664062

> <r_mmod_Improper_Torsional_Energy-OPLS-2005>
13.5138101577759

> <r_mmod_Van_der_Waal_Energy-OPLS-2005>
150.709732055664

> <r_mmod_Electrostatic_Energy-OPLS-2005>
-429.427429199219

> <r_mmod_Solvation_Energy-OPLS-2005>
-245.470291137695

> <b_mmod_Minimization_Converged-OPLS-2005>
0

> <r_mmod_RMS_Derivative-OPLS-2005>
8.91125011444092

$$$$
8
                    3D
 Structure written by MMmdl.
158167  0  0  1  0            999 V2000
  -30.6274  -14.6237   20.4944 C   0  0  0  0  0  0
  -30.4380  -12.3807   19.4454 C   0  0  0  0  0  0
  -29.5042  -12.5041   18.2204 C   0  0  0  0  0  0
  -28.0268  -12.3460   18.6341 C   0  0  0  0  0  0
  -27.6541  -13.2141   19.8656 C   0  0  2  0  0  0
  -28.7016  -13.0602   20.9918 C   0  0  0  0  0  0
  -25.2567  -13.8160   20.5702 C   0  0  0  0  0  0
  -24.1822  -13.0426   20.9160 C   0  0  0  0  0  0
  -24.6392  -11.6897   20.8722 C   0  0  0  0  0  0
  -23.9062  -10.4282   21.0395 C   0  0  0  0  0  0
  -24.3615   -9.4202   21.9178 C   0  0  0  0  0  0
  -23.6290   -8.2239   22.0750 C   0  0  0  0  0  0
  -22.4273   -8.0276   21.3541 C   0  0  0  0  0  0
  -21.9908   -9.0246   20.4641 C   0  0  0  0  0  0
  -22.7234  -10.2125   20.3047 C   0  0  0  0  0  0
  -21.6852   -6.0736   22.5278 C   0  0  0  0  0  0
  -21.4013   -6.5640   23.8211 C   0  0  0  0  0  0
  -21.3660   -5.6792   24.9172 C   0  0  0  0  0  0
  -21.6044   -4.3056   24.7222 C   0  0  0  0  0  0
  -21.8821   -3.8148   23.4344 C   0  0  0  0  0  0
  -21.9192   -4.6964   22.3401 C   0  0  0  0  0  0
  -22.7849  -13.5227   21.1839 C   0  0  0  0  0  0
  -22.1661   -4.2150   21.0978 F   0  0  0  0  0  0
  -21.5629   -3.4542   25.7739 F   0  0  0  0  0  0
  -30.0178  -13.3987   20.4270 N   0  0  0  0  0  0
  -26.3000  -12.9341   20.3354 N   0  0  0  0  0  0
  -25.9325  -11.6493   20.5766 N   0  0  0  0  0  0
  -22.0500  -12.8213   22.0400 N   0  0  0  0  0  0
  -25.4282  -15.1886   20.4205 N   0  0  0  0  0  0
  -31.7915  -14.7834   20.1168 O   0  0  0  0  0  0
  -21.6638   -6.8876   21.4240 O   0  0  0  0  0  0
  -22.3527  -14.5540   20.6707 O   0  0  0  0  0  0
  -24.6262  -31.8603   23.2044 C   0  0  0  0  0  0
  -25.9115  -32.4784   23.8366 C   0  0  1  0  0  0
  -27.2238  -27.3287   20.1095 C   0  0  0  0  0  0
  -25.5938  -33.8584   24.2294 N   0  0  0  0  0  0
  -23.4186  -30.4870   21.5456 C   0  0  2  0  0  0
  -24.8641  -28.9444   20.1111 C   0  0  0  0  0  0
  -22.7470  -29.4639   22.4925 C   0  0  0  0  0  0
  -18.0288  -28.1388   22.8477 C   0  0  0  0  0  0
  -24.1491  -36.7286   23.2636 C   0  0  0  0  0  0
  -25.9602  -30.7949   21.3735 C   0  0  0  0  0  0
  -26.0343  -29.4237   20.7133 C   0  0  0  0  0  0
  -27.2178  -28.6287   20.7007 C   0  0  0  0  0  0
  -26.0265  -26.8995   19.4888 C   0  0  0  0  0  0
  -24.8618  -27.6871   19.4911 C   0  0  0  0  0  0
  -23.6330  -29.8248   20.1599 C   0  0  0  0  0  0
  -25.4111  -36.3083   24.0337 C   0  0  1  0  0  0
  -20.5886  -28.3696   23.1270 C   0  0  2  0  0  0
  -20.6781  -26.9419   22.5394 C   0  0  0  0  0  0
  -19.5755  -26.6383   21.5202 C   0  0  0  0  0  0
  -18.1934  -26.7929   22.1615 C   0  0  0  0  0  0
  -19.1540  -28.8856   23.2875 C   0  0  0  0  0  0
  -18.9471  -30.1455   23.8898 C   0  0  0  0  0  0
  -17.6471  -30.6591   24.0561 C   0  0  0  0  0  0
  -25.9052  -34.9454   23.5111 C   0  0  0  0  0  0
  -16.5359  -29.9090   23.6331 C   0  0  0  0  0  0
  -16.7275  -28.6508   23.0346 C   0  0  0  0  0  0
  -26.4501  -31.6583   25.0726 C   0  0  0  0  0  0
  -25.3743  -31.3708   26.1458 C   0  0  0  0  0  0
  -27.0343  -30.3012   24.6165 C   0  0  0  0  0  0
  -27.6076  -32.4301   25.7490 C   0  0  0  0  0  0
  -27.5582  -37.1791   24.8463 C   0  0  0  0  0  0
  -21.4184  -29.3062   22.3677 N   0  0  0  0  0  0
  -26.4285  -37.3779   23.9423 N   0  0  0  0  0  0
  -24.6871  -31.0629   22.0985 N   0  0  0  0  0  0
  -23.4198  -28.8165   23.2990 O   0  0  0  0  0  0
  -28.3461  -26.4864   20.1492 O   0  0  0  0  0  0
  -26.5609  -34.8922   22.4671 O   0  0  0  0  0  0
  -23.5428  -32.1388   23.7386 O   0  0  0  0  0  0
  -31.1081  -19.2603   20.3327 C   0  0  0  0  0  0
  -31.0919  -17.8348   20.3473 C   0  0  0  0  0  0
  -28.7967  -19.3263   20.9969 C   0  0  0  0  0  0
  -29.9787  -20.0543   20.6989 C   0  0  0  0  0  0
  -29.9271  -17.1168   20.7189 C   0  0  0  0  0  0
  -28.7789  -17.8994   21.0151 C   0  0  0  0  0  0
  -31.0673  -22.0117   21.6608 C   0  0  0  0  0  0
  -31.2937  -23.5254   21.7883 C   0  0  0  0  0  0
  -30.0176  -24.3610   21.6767 C   0  0  0  0  0  0
  -28.9963  -22.4625   20.3696 C   0  0  0  0  0  0
  -29.3146  -24.0315   20.3659 C   0  0  1  0  0  0
  -28.1090  -25.0264   20.0964 C   0  0  0  0  0  0
  -30.0771  -21.5205   20.8554 N   0  0  0  0  0  0
  -29.8098  -15.6652   20.8302 N   0  0  0  0  0  0
  -31.8352  -21.2892   22.3068 O   0  0  0  0  0  0
  -27.6317  -17.2589   21.3462 F   0  0  0  0  0  0
  -31.4781  -12.5052   19.1402 H   0  0  0  0  0  0
  -30.3729  -11.3832   19.8829 H   0  0  0  0  0  0
  -29.7630  -11.7538   17.4723 H   0  0  0  0  0  0
  -29.6484  -13.4744   17.7419 H   0  0  0  0  0  0
  -27.8594  -11.2924   18.8612 H   0  0  0  0  0  0
  -27.3717  -12.5813   17.7942 H   0  0  0  0  0  0
  -27.6729  -14.2505   19.5278 H   0  0  0  0  0  0
  -28.7095  -12.0369   21.3694 H   0  0  0  0  0  0
  -28.4522  -13.6885   21.8484 H   0  0  0  0  0  0
  -25.2762   -9.5682   22.4748 H   0  0  0  0  0  0
  -24.0002   -7.4634   22.7470 H   0  0  0  0  0  0
  -21.0839   -8.8758   19.8949 H   0  0  0  0  0  0
  -22.3690  -10.9660   19.6152 H   0  0  0  0  0  0
  -21.2004   -7.6148   23.9715 H   0  0  0  0  0  0
  -21.1481   -6.0522   25.9074 H   0  0  0  0  0  0
  -22.0602   -2.7610   23.2844 H   0  0  0  0  0  0
  -22.4123  -11.9861   22.4762 H   0  0  0  0  0  0
  -21.1123  -13.1236   22.2630 H   0  0  0  0  0  0
  -24.6726  -15.8446   20.5821 H   0  0  0  0  0  0
  -26.3076  -15.6498   20.2255 H   0  0  0  0  0  0
  -26.7180  -32.5456   23.1109 H   0  0  0  0  0  0
  -25.0119  -33.9738   25.0465 H   0  0  0  0  0  0
  -22.7124  -31.3079   21.4044 H   0  0  0  0  0  0
  -23.3771  -35.9599   23.3274 H   0  0  0  0  0  0
  -24.3592  -36.8923   22.2055 H   0  0  0  0  0  0
  -23.7222  -37.6475   23.6667 H   0  0  0  0  0  0
  -26.0911  -31.5605   20.6075 H   0  0  0  0  0  0
  -26.8411  -30.8408   22.0021 H   0  0  0  0  0  0
  -28.1163  -28.9942   21.1782 H   0  0  0  0  0  0
  -25.9567  -25.9417   18.9977 H   0  0  0  0  0  0
  -23.9652  -27.3139   19.0157 H   0  0  0  0  0  0
  -23.7542  -30.6036   19.4059 H   0  0  0  0  0  0
  -22.7529  -29.2565   19.8545 H   0  0  0  0  0  0
  -25.1288  -36.1930   25.0829 H   0  0  0  0  0  0
  -20.9984  -28.3271   24.1387 H   0  0  0  0  0  0
  -20.5675  -26.2314   23.3599 H   0  0  0  0  0  0
  -21.6654  -26.7440   22.1193 H   0  0  0  0  0  0
  -19.6922  -25.6294   21.1239 H   0  0  0  0  0  0
  -19.6694  -27.3188   20.6729 H   0  0  0  0  0  0
  -17.4201  -26.6671   21.4023 H   0  0  0  0  0  0
  -18.0338  -26.0071   22.9012 H   0  0  0  0  0  0
  -19.7950  -30.7266   24.2273 H   0  0  0  0  0  0
  -17.5032  -31.6277   24.5153 H   0  0  0  0  0  0
  -15.5364  -30.2996   23.7665 H   0  0  0  0  0  0
  -15.8671  -28.0835   22.7056 H   0  0  0  0  0  0
  -24.5952  -30.7011   25.7797 H   0  0  0  0  0  0
  -24.8894  -32.2864   26.4861 H   0  0  0  0  0  0
  -25.8080  -30.8919   27.0247 H   0  0  0  0  0  0
  -26.2907  -29.6757   24.1210 H   0  0  0  0  0  0
  -27.4082  -29.7270   25.4653 H   0  0  0  0  0  0
  -27.8759  -30.4314   23.9356 H   0  0  0  0  0  0
  -27.2724  -33.3634   26.2027 H   0  0  0  0  0  0
  -28.3911  -32.6789   25.0319 H   0  0  0  0  0  0
  -28.0708  -31.8434   26.5435 H   0  0  0  0  0  0
  -28.2570  -38.0117   24.7555 H   0  0  0  0  0  0
  -28.1108  -36.2653   24.6227 H   0  0  0  0  0  0
  -27.2313  -37.1359   25.8868 H   0  0  0  0  0  0
  -20.9360  -29.8812   21.6911 H   0  0  0  0  0  0
  -26.0166  -38.2846   24.1457 H   0  0  0  0  0  0
  -32.0369  -19.7505   20.0757 H   0  0  0  0  0  0
  -31.9997  -17.3075   20.0926 H   0  0  0  0  0  0
  -27.8971  -19.8548   21.2759 H   0  0  0  0  0  0
  -31.9977  -23.8203   21.0089 H   0  0  0  0  0  0
  -31.7838  -23.7357   22.7396 H   0  0  0  0  0  0
  -30.2728  -25.4208   21.7160 H   0  0  0  0  0  0
  -29.3582  -24.1663   22.5240 H   0  0  0  0  0  0
  -28.7017  -22.1571   19.3654 H   0  0  0  0  0  0
  -28.1223  -22.2912   20.9991 H   0  0  0  0  0  0
  -30.0307  -24.2105   19.5622 H   0  0  0  0  0  0
  -27.3139  -24.7882   20.8051 H   0  0  0  0  0  0
  -27.7295  -24.7735   19.1067 H   0  0  0  0  0  0
  -28.8924  -15.3664   21.1237 H   0  0  0  0  0  0
  1 25  1  0  0  0
  1 30  2  0  0  0
  1 84  1  0  0  0
  2  3  1  0  0  0
  2 25  1  0  0  0
  2 87  1  0  0  0
  2 88  1  0  0  0
  3  4  1  0  0  0
  3 89  1  0  0  0
  3 90  1  0  0  0
  4  5  1  0  0  0
  4 91  1  0  0  0
  4 92  1  0  0  0
  5  6  1  0  0  0
  5 26  1  0  0  0
  5 93  1  0  0  0
  6 25  1  0  0  0
  6 94  1  0  0  0
  6 95  1  0  0  0
  7  8  2  0  0  0
  7 26  1  0  0  0
  7 29  1  0  0  0
  8  9  1  0  0  0
  8 22  1  0  0  0
  9 10  1  0  0  0
  9 27  2  0  0  0
 10 11  2  0  0  0
 10 15  1  0  0  0
 11 12  1  0  0  0
 11 96  1  0  0  0
 12 13  2  0  0  0
 12 97  1  0  0  0
 13 14  1  0  0  0
 13 31  1  0  0  0
 14 15  2  0  0  0
 14 98  1  0  0  0
 15 99  1  0  0  0
 16 17  2  0  0  0
 16 21  1  0  0  0
 16 31  1  0  0  0
 17 18  1  0  0  0
 17100  1  0  0  0
 18 19  2  0  0  0
 18101  1  0  0  0
 19 20  1  0  0  0
 19 24  1  0  0  0
 20 21  2  0  0  0
 20102  1  0  0  0
 21 23  1  0  0  0
 22 28  1  0  0  0
 22 32  2  0  0  0
 26 27  1  0  0  0
 28103  1  0  0  0
 28104  1  0  0  0
 29105  1  0  0  0
 29106  1  0  0  0
 33 34  1  0  0  0
 33 66  1  0  0  0
 33 70  2  0  0  0
 34 36  1  0  0  0
 34 59  1  0  0  0
 34107  1  0  0  0
 35 44  2  0  0  0
 35 45  1  0  0  0
 35 68  1  0  0  0
 36 56  1  0  0  0
 36108  1  0  0  0
 37 39  1  0  0  0
 37 47  1  0  0  0
 37 66  1  0  0  0
 37109  1  0  0  0
 38 43  2  0  0  0
 38 46  1  0  0  0
 38 47  1  0  0  0
 39 64  1  0  0  0
 39 67  2  0  0  0
 40 52  1  0  0  0
 40 53  2  0  0  0
 40 58  1  0  0  0
 41110  1  0  0  0
 41111  1  0  0  0
 41112  1  0  0  0
 41 48  1  0  0  0
 42 43  1  0  0  0
 42 66  1  0  0  0
 42113  1  0  0  0
 42114  1  0  0  0
 43 44  1  0  0  0
 44115  1  0  0  0
 45 46  2  0  0  0
 45116  1  0  0  0
 46117  1  0  0  0
 47118  1  0  0  0
 47119  1  0  0  0
 48 56  1  0  0  0
 48 65  1  0  0  0
 48120  1  0  0  0
 49 50  1  0  0  0
 49 53  1  0  0  0
 49 64  1  0  0  0
 49121  1  0  0  0
 50 51  1  0  0  0
 50122  1  0  0  0
 50123  1  0  0  0
 51 52  1  0  0  0
 51124  1  0  0  0
 51125  1  0  0  0
 52126  1  0  0  0
 52127  1  0  0  0
 53 54  1  0  0  0
 54 55  2  0  0  0
 54128  1  0  0  0
 55 57  1  0  0  0
 55129  1  0  0  0
 56 69  2  0  0  0
 57 58  2  0  0  0
 57130  1  0  0  0
 58131  1  0  0  0
 59 60  1  0  0  0
 59 61  1  0  0  0
 59 62  1  0  0  0
 60132  1  0  0  0
 60133  1  0  0  0
 60134  1  0  0  0
 61135  1  0  0  0
 61136  1  0  0  0
 61137  1  0  0  0
 62138  1  0  0  0
 62139  1  0  0  0
 62140  1  0  0  0
 63 65  1  0  0  0
 63141  1  0  0  0
 63142  1  0  0  0
 63143  1  0  0  0
 64144  1  0  0  0
 65145  1  0  0  0
 68 82  1  0  0  0
 71 72  2  0  0  0
 71 74  1  0  0  0
 71146  1  0  0  0
 72 75  1  0  0  0
 72147  1  0  0  0
 73 74  2  0  0  0
 73 76  1  0  0  0
 73148  1  0  0  0
 74 83  1  0  0  0
 75 76  2  0  0  0
 75 84  1  0  0  0
 76 86  1  0  0  0
 77 78  1  0  0  0
 77 83  1  0  0  0
 77 85  2  0  0  0
 78 79  1  0  0  0
 78149  1  0  0  0
 78150  1  0  0  0
 79 81  1  0  0  0
 79151  1  0  0  0
 79152  1  0  0  0
 80 81  1  0  0  0
 80 83  1  0  0  0
 80153  1  0  0  0
 80154  1  0  0  0
 81 82  1  0  0  0
 81155  1  0  0  0
 82156  1  0  0  0
 82157  1  0  0  0
 84158  1  0  0  0
M  ISO  4   1 100  68 101  82 101  84 100
M  END
> <chiral flag>
0

> <version>
0

> <s_m_source_file>
/data/baiqing/PycharmProjects/Reinvent-master-3.2/result/LINK_invent/BTK/process_docking_weight1_custom_product_contain_oxygen_bond_distance_aromatic_linkinvent_7_9_3/rearranged_h_0098.sdf

> <i_m_source_file_index>
9

> <r_mmod_Potential_Energy-OPLS-2005>
107.240104675293

> <r_mmod_Stretch_Energy-OPLS-2005>
82.9357223510742

> <r_mmod_Bend_Energy-OPLS-2005>
137.735961914062

> <r_mmod_Torsional_Energy-OPLS-2005>
273.721435546875

> <r_mmod_Improper_Torsional_Energy-OPLS-2005>
4.68192100524902

> <r_mmod_Van_der_Waal_Energy-OPLS-2005>
159.299835205078

> <r_mmod_Electrostatic_Energy-OPLS-2005>
-382.914001464844

> <r_mmod_Solvation_Energy-OPLS-2005>
-212.034591674805

> <b_mmod_Minimization_Converged-OPLS-2005>
0

> <r_mmod_RMS_Derivative-OPLS-2005>
0.928914606571198

$$$$
9
                    3D
 Structure written by MMmdl.
158167  0  0  1  0            999 V2000
  -30.6625  -14.6779   20.4060 C   0  0  0  0  0  0
  -30.4248  -12.4086   19.4521 C   0  0  0  0  0  0
  -29.5067  -12.5050   18.2162 C   0  0  0  0  0  0
  -28.0346  -12.3312   18.6412 C   0  0  0  0  0  0
  -27.6404  -13.2312   19.8446 C   0  0  2  0  0  0
  -28.6904  -13.1770   20.9755 C   0  0  0  0  0  0
  -25.2505  -13.8203   20.5696 C   0  0  0  0  0  0
  -24.1803  -13.0391   20.9195 C   0  0  0  0  0  0
  -24.6401  -11.6881   20.8697 C   0  0  0  0  0  0
  -23.9021  -10.4267   21.0375 C   0  0  0  0  0  0
  -24.3568   -9.4211   21.9170 C   0  0  0  0  0  0
  -23.6242   -8.2246   22.0757 C   0  0  0  0  0  0
  -22.4258   -8.0239   21.3541 C   0  0  0  0  0  0
  -21.9851   -9.0205   20.4678 C   0  0  0  0  0  0
  -22.7166  -10.2092   20.3051 C   0  0  0  0  0  0
  -21.6858   -6.0681   22.5254 C   0  0  0  0  0  0
  -21.4026   -6.5610   23.8181 C   0  0  0  0  0  0
  -21.3671   -5.6777   24.9172 C   0  0  0  0  0  0
  -21.6054   -4.3032   24.7244 C   0  0  0  0  0  0
  -21.8807   -3.8102   23.4367 C   0  0  0  0  0  0
  -21.9213   -4.6907   22.3412 C   0  0  0  0  0  0
  -22.7859  -13.5197   21.1873 C   0  0  0  0  0  0
  -22.1684   -4.2066   21.0984 F   0  0  0  0  0  0
  -21.5638   -3.4530   25.7779 F   0  0  0  0  0  0
  -29.9973  -13.4805   20.3744 N   0  0  0  0  0  0
  -26.2926  -12.9380   20.3257 N   0  0  0  0  0  0
  -25.9330  -11.6513   20.5648 N   0  0  0  0  0  0
  -22.0499  -12.8185   22.0452 N   0  0  0  0  0  0
  -25.4123  -15.1941   20.4233 N   0  0  0  0  0  0
  -31.8674  -14.7258   20.1581 O   0  0  0  0  0  0
  -21.6684   -6.8794   21.4197 O   0  0  0  0  0  0
  -22.3536  -14.5488   20.6750 O   0  0  0  0  0  0
  -24.6244  -31.8542   23.2064 C   0  0  0  0  0  0
  -25.9096  -32.4697   23.8340 C   0  0  1  0  0  0
  -27.1938  -27.2895   20.0734 C   0  0  0  0  0  0
  -25.5971  -33.8531   24.2258 N   0  0  0  0  0  0
  -23.4176  -30.4841   21.5485 C   0  0  2  0  0  0
  -24.8574  -28.9383   20.1149 C   0  0  0  0  0  0
  -22.7445  -29.4622   22.4954 C   0  0  0  0  0  0
  -18.0267  -28.1413   22.8440 C   0  0  0  0  0  0
  -24.1514  -36.7244   23.2635 C   0  0  0  0  0  0
  -25.9652  -30.7627   21.3955 C   0  0  0  0  0  0
  -26.0272  -29.3929   20.7309 C   0  0  0  0  0  0
  -27.1942  -28.5669   20.7260 C   0  0  0  0  0  0
  -26.0063  -26.9233   19.4080 C   0  0  0  0  0  0
  -24.8451  -27.7065   19.4572 C   0  0  0  0  0  0
  -23.6282  -29.8147   20.1659 C   0  0  0  0  0  0
  -25.4135  -36.3018   24.0302 C   0  0  1  0  0  0
  -20.5858  -28.3744   23.1257 C   0  0  2  0  0  0
  -20.6765  -26.9467   22.5399 C   0  0  0  0  0  0
  -19.5756  -26.6411   21.5182 C   0  0  0  0  0  0
  -18.1933  -26.7934   22.1605 C   0  0  0  0  0  0
  -19.1514  -28.8875   23.2837 C   0  0  0  0  0  0
  -18.9449  -30.1478   23.8868 C   0  0  0  0  0  0
  -17.6459  -30.6608   24.0550 C   0  0  0  0  0  0
  -25.9082  -34.9395   23.5047 C   0  0  0  0  0  0
  -16.5343  -29.9104   23.6335 C   0  0  0  0  0  0
  -16.7248  -28.6533   23.0320 C   0  0  0  0  0  0
  -26.4540  -31.6517   25.0678 C   0  0  0  0  0  0
  -25.3797  -31.3628   26.1385 C   0  0  0  0  0  0
  -27.0408  -30.2885   24.6257 C   0  0  0  0  0  0
  -27.6082  -32.4261   25.7440 C   0  0  0  0  0  0
  -27.5582  -37.1769   24.8457 C   0  0  0  0  0  0
  -21.4166  -29.3076   22.3646 N   0  0  0  0  0  0
  -26.4300  -37.3712   23.9383 N   0  0  0  0  0  0
  -24.6860  -31.0553   22.1044 N   0  0  0  0  0  0
  -23.4155  -28.8152   23.3032 O   0  0  0  0  0  0
  -28.2854  -26.4057   20.1164 O   0  0  0  0  0  0
  -26.5658  -34.8861   22.4629 O   0  0  0  0  0  0
  -23.5434  -32.1406   23.7394 O   0  0  0  0  0  0
  -28.8620  -19.2060   20.8250 C   0  0  0  0  0  0
  -30.0632  -19.2097   18.7452 C   0  0  0  0  0  0
  -28.3630  -20.5141   20.5440 C   0  0  0  0  0  0
  -29.5378  -20.5091   18.4511 C   0  0  0  0  0  0
  -29.7414  -18.5209   19.9499 C   0  0  0  0  0  0
  -28.6877  -21.2124   19.3531 C   0  0  0  0  0  0
  -26.9921  -22.3978   18.1917 C   0  0  0  0  0  0
  -25.8058  -23.1825   18.7219 C   0  0  0  0  0  0
  -26.3078  -23.6324   20.1084 C   0  0  0  0  0  0
  -27.8359  -23.6822   19.9438 C   0  0  2  0  0  0
  -30.5227  -17.2297   20.4102 C   0  0  0  0  0  0
  -28.3067  -25.1155   19.3603 C   0  0  0  0  0  0
  -28.0628  -22.5005   19.0102 N   0  0  0  0  0  0
  -29.9338  -15.8414   20.4706 N   0  0  0  0  0  0
  -26.9206  -21.7346   17.1498 O   0  0  0  0  0  0
  -31.4728  -12.4871   19.1671 H   0  0  0  0  0  0
  -30.3180  -11.4333   19.9235 H   0  0  0  0  0  0
  -29.7715  -11.7533   17.4697 H   0  0  0  0  0  0
  -29.6429  -13.4682   17.7300 H   0  0  0  0  0  0
  -27.8917  -11.2804   18.8972 H   0  0  0  0  0  0
  -27.3694  -12.5325   17.8053 H   0  0  0  0  0  0
  -27.6305  -14.2552   19.4679 H   0  0  0  0  0  0
  -28.6987  -12.1972   21.4595 H   0  0  0  0  0  0
  -28.4565  -13.9017   21.7597 H   0  0  0  0  0  0
  -25.2698   -9.5704   22.4760 H   0  0  0  0  0  0
  -23.9967   -7.4631   22.7466 H   0  0  0  0  0  0
  -21.0777   -8.8689   19.8971 H   0  0  0  0  0  0
  -22.3573  -10.9620   19.6169 H   0  0  0  0  0  0
  -21.2009   -7.6113   23.9646 H   0  0  0  0  0  0
  -21.1520   -6.0541   25.9059 H   0  0  0  0  0  0
  -22.0578   -2.7538   23.2936 H   0  0  0  0  0  0
  -22.4176  -11.9892   22.4848 H   0  0  0  0  0  0
  -21.1101  -13.1162   22.2620 H   0  0  0  0  0  0
  -24.6264  -15.8249   20.5474 H   0  0  0  0  0  0
  -26.2520  -15.6533   20.0848 H   0  0  0  0  0  0
  -26.7150  -32.5339   23.1081 H   0  0  0  0  0  0
  -25.0047  -33.9663   25.0351 H   0  0  0  0  0  0
  -22.7166  -31.3103   21.4046 H   0  0  0  0  0  0
  -23.3762  -35.9595   23.3271 H   0  0  0  0  0  0
  -24.3588  -36.8886   22.2053 H   0  0  0  0  0  0
  -23.7327  -37.6445   23.6695 H   0  0  0  0  0  0
  -26.1332  -31.5339   20.6467 H   0  0  0  0  0  0
  -26.8316  -30.7862   22.0449 H   0  0  0  0  0  0
  -28.0768  -28.8833   21.2667 H   0  0  0  0  0  0
  -25.9255  -26.0067   18.8545 H   0  0  0  0  0  0
  -23.9414  -27.3559   18.9765 H   0  0  0  0  0  0
  -23.7578  -30.5857   19.4088 H   0  0  0  0  0  0
  -22.7487  -29.2445   19.8564 H   0  0  0  0  0  0
  -25.1353  -36.1829   25.0802 H   0  0  0  0  0  0
  -20.9932  -28.3347   24.1376 H   0  0  0  0  0  0
  -20.5677  -26.2354   23.3619 H   0  0  0  0  0  0
  -21.6636  -26.7504   22.1197 H   0  0  0  0  0  0
  -19.6944  -25.6321   21.1221 H   0  0  0  0  0  0
  -19.6675  -27.3217   20.6713 H   0  0  0  0  0  0
  -17.4193  -26.6629   21.4024 H   0  0  0  0  0  0
  -18.0390  -26.0086   22.9033 H   0  0  0  0  0  0
  -19.7937  -30.7285   24.2240 H   0  0  0  0  0  0
  -17.5018  -31.6275   24.5208 H   0  0  0  0  0  0
  -15.5347  -30.3006   23.7689 H   0  0  0  0  0  0
  -15.8641  -28.0858   22.7042 H   0  0  0  0  0  0
  -24.5999  -30.6968   25.7669 H   0  0  0  0  0  0
  -24.8994  -32.2792   26.4812 H   0  0  0  0  0  0
  -25.8118  -30.8771   27.0158 H   0  0  0  0  0  0
  -26.3008  -29.6543   24.1326 H   0  0  0  0  0  0
  -27.4069  -29.7202   25.4856 H   0  0  0  0  0  0
  -27.8939  -30.4032   23.9536 H   0  0  0  0  0  0
  -27.2664  -33.3556   26.2037 H   0  0  0  0  0  0
  -28.3900  -32.6829   25.0257 H   0  0  0  0  0  0
  -28.0793  -31.8380   26.5367 H   0  0  0  0  0  0
  -28.2585  -38.0076   24.7458 H   0  0  0  0  0  0
  -28.1102  -36.2586   24.6357 H   0  0  0  0  0  0
  -27.2252  -37.1464   25.8847 H   0  0  0  0  0  0
  -20.9428  -29.8721   21.6737 H   0  0  0  0  0  0
  -26.0148  -38.2774   24.1372 H   0  0  0  0  0  0
  -28.5922  -18.7409   21.7622 H   0  0  0  0  0  0
  -30.7385  -18.7492   18.0343 H   0  0  0  0  0  0
  -27.7002  -20.9778   21.2626 H   0  0  0  0  0  0
  -29.7958  -20.9785   17.5085 H   0  0  0  0  0  0
  -24.9115  -22.5597   18.7885 H   0  0  0  0  0  0
  -25.6093  -24.0010   18.0343 H   0  0  0  0  0  0
  -25.8617  -24.5549   20.4651 H   0  0  0  0  0  0
  -26.0338  -22.8757   20.8521 H   0  0  0  0  0  0
  -28.3363  -23.4935   20.8968 H   0  0  0  0  0  0
  -30.8331  -17.4516   21.4370 H   0  0  0  0  0  0
  -31.4557  -17.1967   19.8426 H   0  0  0  0  0  0
  -29.3624  -24.9980   19.1198 H   0  0  0  0  0  0
  -27.8577  -25.2790   18.3791 H   0  0  0  0  0  0
  -28.9418  -15.7568   20.6175 H   0  0  0  0  0  0
  1 25  1  0  0  0
  1 30  2  0  0  0
  1 84  1  0  0  0
  2  3  1  0  0  0
  2 25  1  0  0  0
  2 86  1  0  0  0
  2 87  1  0  0  0
  3  4  1  0  0  0
  3 88  1  0  0  0
  3 89  1  0  0  0
  4  5  1  0  0  0
  4 90  1  0  0  0
  4 91  1  0  0  0
  5  6  1  0  0  0
  5 26  1  0  0  0
  5 92  1  0  0  0
  6 25  1  0  0  0
  6 93  1  0  0  0
  6 94  1  0  0  0
  7  8  2  0  0  0
  7 26  1  0  0  0
  7 29  1  0  0  0
  8  9  1  0  0  0
  8 22  1  0  0  0
  9 10  1  0  0  0
  9 27  2  0  0  0
 10 11  2  0  0  0
 10 15  1  0  0  0
 11 12  1  0  0  0
 11 95  1  0  0  0
 12 13  2  0  0  0
 12 96  1  0  0  0
 13 14  1  0  0  0
 13 31  1  0  0  0
 14 15  2  0  0  0
 14 97  1  0  0  0
 15 98  1  0  0  0
 16 17  2  0  0  0
 16 21  1  0  0  0
 16 31  1  0  0  0
 17 18  1  0  0  0
 17 99  1  0  0  0
 18 19  2  0  0  0
 18100  1  0  0  0
 19 20  1  0  0  0
 19 24  1  0  0  0
 20 21  2  0  0  0
 20101  1  0  0  0
 21 23  1  0  0  0
 22 28  1  0  0  0
 22 32  2  0  0  0
 26 27  1  0  0  0
 28102  1  0  0  0
 28103  1  0  0  0
 29104  1  0  0  0
 29105  1  0  0  0
 33 34  1  0  0  0
 33 66  1  0  0  0
 33 70  2  0  0  0
 34 36  1  0  0  0
 34 59  1  0  0  0
 34106  1  0  0  0
 35 44  2  0  0  0
 35 45  1  0  0  0
 35 68  1  0  0  0
 36 56  1  0  0  0
 36107  1  0  0  0
 37 39  1  0  0  0
 37 47  1  0  0  0
 37 66  1  0  0  0
 37108  1  0  0  0
 38 43  2  0  0  0
 38 46  1  0  0  0
 38 47  1  0  0  0
 39 64  1  0  0  0
 39 67  2  0  0  0
 40 52  1  0  0  0
 40 53  2  0  0  0
 40 58  1  0  0  0
 41109  1  0  0  0
 41110  1  0  0  0
 41111  1  0  0  0
 41 48  1  0  0  0
 42 43  1  0  0  0
 42 66  1  0  0  0
 42112  1  0  0  0
 42113  1  0  0  0
 43 44  1  0  0  0
 44114  1  0  0  0
 45 46  2  0  0  0
 45115  1  0  0  0
 46116  1  0  0  0
 47117  1  0  0  0
 47118  1  0  0  0
 48 56  1  0  0  0
 48 65  1  0  0  0
 48119  1  0  0  0
 49 50  1  0  0  0
 49 53  1  0  0  0
 49 64  1  0  0  0
 49120  1  0  0  0
 50 51  1  0  0  0
 50121  1  0  0  0
 50122  1  0  0  0
 51 52  1  0  0  0
 51123  1  0  0  0
 51124  1  0  0  0
 52125  1  0  0  0
 52126  1  0  0  0
 53 54  1  0  0  0
 54 55  2  0  0  0
 54127  1  0  0  0
 55 57  1  0  0  0
 55128  1  0  0  0
 56 69  2  0  0  0
 57 58  2  0  0  0
 57129  1  0  0  0
 58130  1  0  0  0
 59 60  1  0  0  0
 59 61  1  0  0  0
 59 62  1  0  0  0
 60131  1  0  0  0
 60132  1  0  0  0
 60133  1  0  0  0
 61134  1  0  0  0
 61135  1  0  0  0
 61136  1  0  0  0
 62137  1  0  0  0
 62138  1  0  0  0
 62139  1  0  0  0
 63 65  1  0  0  0
 63140  1  0  0  0
 63141  1  0  0  0
 63142  1  0  0  0
 64143  1  0  0  0
 65144  1  0  0  0
 68 82  1  0  0  0
 71 73  2  0  0  0
 71 75  1  0  0  0
 71145  1  0  0  0
 72 74  1  0  0  0
 72 75  2  0  0  0
 72146  1  0  0  0
 73 76  1  0  0  0
 73147  1  0  0  0
 74 76  2  0  0  0
 74148  1  0  0  0
 75 81  1  0  0  0
 76 83  1  0  0  0
 77 78  1  0  0  0
 77 83  1  0  0  0
 77 85  2  0  0  0
 78 79  1  0  0  0
 78149  1  0  0  0
 78150  1  0  0  0
 79 80  1  0  0  0
 79151  1  0  0  0
 79152  1  0  0  0
 80 82  1  0  0  0
 80 83  1  0  0  0
 80153  1  0  0  0
 81 84  1  0  0  0
 81154  1  0  0  0
 81155  1  0  0  0
 82156  1  0  0  0
 82157  1  0  0  0
 84158  1  0  0  0
M  ISO  4   1 100  68 101  82 101  84 100
M  END
> <chiral flag>
0

> <version>
0

> <s_m_source_file>
/data/baiqing/PycharmProjects/Reinvent-master-3.2/result/LINK_invent/BTK/process_docking_weight1_custom_product_contain_oxygen_bond_distance_aromatic_linkinvent_7_9_3/rearranged_h_0098.sdf

> <i_m_source_file_index>
10

> <r_mmod_Potential_Energy-OPLS-2005>
200.177627563477

> <r_mmod_Stretch_Energy-OPLS-2005>
93.7256851196289

> <r_mmod_Bend_Energy-OPLS-2005>
198.210494995117

> <r_mmod_Torsional_Energy-OPLS-2005>
300.895935058594

> <r_mmod_Improper_Torsional_Energy-OPLS-2005>
10.1942958831787

> <r_mmod_Van_der_Waal_Energy-OPLS-2005>
142.989303588867

> <r_mmod_Electrostatic_Energy-OPLS-2005>
-393.434478759766

> <r_mmod_Solvation_Energy-OPLS-2005>
-224.472412109375

> <b_mmod_Minimization_Converged-OPLS-2005>
0

> <r_mmod_RMS_Derivative-OPLS-2005>
8.20101070404053

$$$$
10
                    3D
 Structure written by MMmdl.
154162  0  0  1  0            999 V2000
  -30.6781  -14.5756   20.5067 C   0  0  0  0  0  0
  -30.4152  -12.3573   19.4332 C   0  0  0  0  0  0
  -29.4939  -12.4998   18.2041 C   0  0  0  0  0  0
  -28.0149  -12.3559   18.6179 C   0  0  0  0  0  0
  -27.6484  -13.2221   19.8552 C   0  0  2  0  0  0
  -28.6947  -13.0852   20.9818 C   0  0  0  0  0  0
  -25.2557  -13.8187   20.5691 C   0  0  0  0  0  0
  -24.1836  -13.0432   20.9210 C   0  0  0  0  0  0
  -24.6412  -11.6908   20.8749 C   0  0  0  0  0  0
  -23.9088  -10.4285   21.0421 C   0  0  0  0  0  0
  -24.3630   -9.4199   21.9202 C   0  0  0  0  0  0
  -23.6305   -8.2234   22.0763 C   0  0  0  0  0  0
  -22.4288   -8.0284   21.3557 C   0  0  0  0  0  0
  -21.9929   -9.0263   20.4659 C   0  0  0  0  0  0
  -22.7266  -10.2138   20.3065 C   0  0  0  0  0  0
  -21.6853   -6.0741   22.5292 C   0  0  0  0  0  0
  -21.4014   -6.5638   23.8232 C   0  0  0  0  0  0
  -21.3663   -5.6794   24.9188 C   0  0  0  0  0  0
  -21.6030   -4.3059   24.7241 C   0  0  0  0  0  0
  -21.8819   -3.8147   23.4365 C   0  0  0  0  0  0
  -21.9196   -4.6962   22.3416 C   0  0  0  0  0  0
  -22.7861  -13.5230   21.1868 C   0  0  0  0  0  0
  -22.1665   -4.2141   21.1001 F   0  0  0  0  0  0
  -21.5624   -3.4545   25.7759 F   0  0  0  0  0  0
  -30.0079  -13.3913   20.4004 N   0  0  0  0  0  0
  -26.2973  -12.9378   20.3296 N   0  0  0  0  0  0
  -25.9339  -11.6523   20.5749 N   0  0  0  0  0  0
  -22.0508  -12.8213   22.0416 N   0  0  0  0  0  0
  -25.4257  -15.1906   20.4108 N   0  0  0  0  0  0
  -31.8576  -14.6825   20.1604 O   0  0  0  0  0  0
  -21.6650   -6.8881   21.4258 O   0  0  0  0  0  0
  -22.3555  -14.5548   20.6734 O   0  0  0  0  0  0
  -24.6206  -31.8612   23.2067 C   0  0  0  0  0  0
  -25.9070  -32.4784   23.8375 C   0  0  1  0  0  0
  -27.2150  -27.3711   20.1120 C   0  0  0  0  0  0
  -25.5893  -33.8585   24.2305 N   0  0  0  0  0  0
  -23.4122  -30.4837   21.5505 C   0  0  2  0  0  0
  -24.8562  -28.9476   20.1092 C   0  0  0  0  0  0
  -22.7456  -29.4598   22.4987 C   0  0  0  0  0  0
  -18.0276  -28.1374   22.8475 C   0  0  0  0  0  0
  -24.1492  -36.7295   23.2646 C   0  0  0  0  0  0
  -25.9466  -30.8129   21.3664 C   0  0  0  0  0  0
  -26.0229  -29.4443   20.7082 C   0  0  0  0  0  0
  -27.2112  -28.6652   20.6981 C   0  0  0  0  0  0
  -26.0332  -26.9055   19.5029 C   0  0  0  0  0  0
  -24.8596  -27.6825   19.4980 C   0  0  0  0  0  0
  -23.6221  -29.8215   20.1631 C   0  0  0  0  0  0
  -25.4110  -36.3081   24.0338 C   0  0  1  0  0  0
  -20.5869  -28.3641   23.1322 C   0  0  2  0  0  0
  -20.6767  -26.9375   22.5419 C   0  0  0  0  0  0
  -19.5752  -26.6379   21.5217 C   0  0  0  0  0  0
  -18.1927  -26.7919   22.1622 C   0  0  0  0  0  0
  -19.1526  -28.8833   23.2878 C   0  0  0  0  0  0
  -18.9458  -30.1448   23.8877 C   0  0  0  0  0  0
  -17.6449  -30.6582   24.0562 C   0  0  0  0  0  0
  -25.9033  -34.9449   23.5129 C   0  0  0  0  0  0
  -16.5340  -29.9072   23.6332 C   0  0  0  0  0  0
  -16.7251  -28.6497   23.0332 C   0  0  0  0  0  0
  -26.4475  -31.6586   25.0726 C   0  0  0  0  0  0
  -25.3713  -31.3720   26.1460 C   0  0  0  0  0  0
  -27.0326  -30.3023   24.6145 C   0  0  0  0  0  0
  -27.6052  -32.4318   25.7477 C   0  0  0  0  0  0
  -27.5582  -37.1792   24.8469 C   0  0  0  0  0  0
  -21.4171  -29.3007   22.3740 N   0  0  0  0  0  0
  -26.4294  -37.3769   23.9420 N   0  0  0  0  0  0
  -24.6791  -31.0669   22.0995 N   0  0  0  0  0  0
  -23.4204  -28.8154   23.3058 O   0  0  0  0  0  0
  -28.3313  -26.5469   20.1228 O   0  0  0  0  0  0
  -26.5607  -34.8901   22.4696 O   0  0  0  0  0  0
  -23.5374  -32.1411   23.7417 O   0  0  0  0  0  0
  -31.9303  -18.2364   22.6464 C   0  0  0  0  0  0
  -31.4598  -19.4508   22.1221 C   0  0  0  0  0  0
  -31.4144  -17.0185   22.1811 C   0  0  0  0  0  0
  -29.9044  -18.2400   20.6862 C   0  0  0  0  0  0
  -30.4391  -19.4914   21.1455 C   0  0  0  0  0  0
  -30.4136  -16.9868   21.1845 C   0  0  0  0  0  0
  -30.0703  -20.8799   20.6235 C   0  0  0  0  0  0
  -28.5533  -23.9338   20.1674 C   0  0  0  0  0  0
  -28.4109  -22.7123   21.1503 C   0  0  0  0  0  0
  -28.1794  -25.2974   20.8630 C   0  0  0  0  0  0
  -29.9287  -15.6886   20.7656 N   0  0  0  0  0  0
  -28.8037  -21.3259   20.7480 N   0  0  0  0  0  0
  -30.9748  -21.6397   20.2668 O   0  0  0  0  0  0
  -31.4629  -12.4414   19.1403 H   0  0  0  0  0  0
  -30.3067  -11.3648   19.8762 H   0  0  0  0  0  0
  -29.7449  -11.7489   17.4548 H   0  0  0  0  0  0
  -29.6508  -13.4701   17.7291 H   0  0  0  0  0  0
  -27.8339  -11.3028   18.8352 H   0  0  0  0  0  0
  -27.3649  -12.6079   17.7786 H   0  0  0  0  0  0
  -27.6656  -14.2582   19.5159 H   0  0  0  0  0  0
  -28.6901  -12.0737   21.3906 H   0  0  0  0  0  0
  -28.4607  -13.7511   21.8147 H   0  0  0  0  0  0
  -25.2774   -9.5656   22.4788 H   0  0  0  0  0  0
  -24.0008   -7.4611   22.7472 H   0  0  0  0  0  0
  -21.0858   -8.8793   19.8962 H   0  0  0  0  0  0
  -22.3744  -10.9680   19.6164 H   0  0  0  0  0  0
  -21.2006   -7.6147   23.9725 H   0  0  0  0  0  0
  -21.1489   -6.0533   25.9091 H   0  0  0  0  0  0
  -22.0593   -2.7608   23.2885 H   0  0  0  0  0  0
  -22.4145  -11.9859   22.4757 H   0  0  0  0  0  0
  -21.1126  -13.1230   22.2635 H   0  0  0  0  0  0
  -24.6556  -15.8422   20.5168 H   0  0  0  0  0  0
  -26.2667  -15.6308   20.0613 H   0  0  0  0  0  0
  -26.7141  -32.5468   23.1124 H   0  0  0  0  0  0
  -25.0013  -33.9720   25.0434 H   0  0  0  0  0  0
  -22.7039  -31.3031   21.4143 H   0  0  0  0  0  0
  -23.3732  -35.9646   23.3319 H   0  0  0  0  0  0
  -24.3590  -36.8910   22.2062 H   0  0  0  0  0  0
  -23.7248  -37.6502   23.6655 H   0  0  0  0  0  0
  -26.0654  -31.5832   20.6023 H   0  0  0  0  0  0
  -26.8303  -30.8621   21.9922 H   0  0  0  0  0  0
  -28.1144  -29.0392   21.1636 H   0  0  0  0  0  0
  -26.0176  -25.9280   19.0430 H   0  0  0  0  0  0
  -23.9627  -27.3031   19.0263 H   0  0  0  0  0  0
  -23.7289  -30.6026   19.4105 H   0  0  0  0  0  0
  -22.7423  -29.2477   19.8635 H   0  0  0  0  0  0
  -25.1282  -36.1967   25.0826 H   0  0  0  0  0  0
  -20.9933  -28.3201   24.1454 H   0  0  0  0  0  0
  -20.5721  -26.2221   23.3599 H   0  0  0  0  0  0
  -21.6632  -26.7452   22.1194 H   0  0  0  0  0  0
  -19.6919  -25.6301   21.1229 H   0  0  0  0  0  0
  -19.6715  -27.3202   20.6764 H   0  0  0  0  0  0
  -17.4199  -26.6661   21.4007 H   0  0  0  0  0  0
  -18.0316  -26.0070   22.9027 H   0  0  0  0  0  0
  -19.7935  -30.7277   24.2228 H   0  0  0  0  0  0
  -17.5003  -31.6264   24.5153 H   0  0  0  0  0  0
  -15.5330  -30.2957   23.7700 H   0  0  0  0  0  0
  -15.8657  -28.0840   22.7015 H   0  0  0  0  0  0
  -24.5902  -30.7052   25.7795 H   0  0  0  0  0  0
  -24.8856  -32.2877   26.4843 H   0  0  0  0  0  0
  -25.8026  -30.8941   27.0269 H   0  0  0  0  0  0
  -26.2904  -29.6764   24.1172 H   0  0  0  0  0  0
  -27.4057  -29.7277   25.4631 H   0  0  0  0  0  0
  -27.8748  -30.4328   23.9347 H   0  0  0  0  0  0
  -27.2687  -33.3634   26.2044 H   0  0  0  0  0  0
  -28.3851  -32.6846   25.0288 H   0  0  0  0  0  0
  -28.0720  -31.8441   26.5404 H   0  0  0  0  0  0
  -28.2581  -38.0099   24.7501 H   0  0  0  0  0  0
  -28.1085  -36.2621   24.6304 H   0  0  0  0  0  0
  -27.2291  -37.1452   25.8866 H   0  0  0  0  0  0
  -20.9352  -29.8705   21.6936 H   0  0  0  0  0  0
  -26.0188  -38.2852   24.1415 H   0  0  0  0  0  0
  -32.6973  -18.2389   23.4088 H   0  0  0  0  0  0
  -31.8955  -20.3721   22.4824 H   0  0  0  0  0  0
  -31.8026  -16.1058   22.6108 H   0  0  0  0  0  0
  -29.1470  -18.2461   19.9149 H   0  0  0  0  0  0
  -27.9114  -23.7848   19.3003 H   0  0  0  0  0  0
  -29.5751  -23.9903   19.7924 H   0  0  0  0  0  0
  -27.3619  -22.6542   21.4492 H   0  0  0  0  0  0
  -28.9525  -22.9459   22.0680 H   0  0  0  0  0  0
  -28.8144  -25.4042   21.7424 H   0  0  0  0  0  0
  -27.1707  -25.2021   21.2715 H   0  0  0  0  0  0
  -28.9287  -15.5615   20.7467 H   0  0  0  0  0  0
  -28.1315  -20.6064   20.9841 H   0  0  0  0  0  0
  1 25  1  0  0  0
  1 30  2  0  0  0
  1 81  1  0  0  0
  2  3  1  0  0  0
  2 25  1  0  0  0
  2 84  1  0  0  0
  2 85  1  0  0  0
  3  4  1  0  0  0
  3 86  1  0  0  0
  3 87  1  0  0  0
  4  5  1  0  0  0
  4 88  1  0  0  0
  4 89  1  0  0  0
  5  6  1  0  0  0
  5 26  1  0  0  0
  5 90  1  0  0  0
  6 25  1  0  0  0
  6 91  1  0  0  0
  6 92  1  0  0  0
  7  8  2  0  0  0
  7 26  1  0  0  0
  7 29  1  0  0  0
  8  9  1  0  0  0
  8 22  1  0  0  0
  9 10  1  0  0  0
  9 27  2  0  0  0
 10 11  2  0  0  0
 10 15  1  0  0  0
 11 12  1  0  0  0
 11 93  1  0  0  0
 12 13  2  0  0  0
 12 94  1  0  0  0
 13 14  1  0  0  0
 13 31  1  0  0  0
 14 15  2  0  0  0
 14 95  1  0  0  0
 15 96  1  0  0  0
 16 17  2  0  0  0
 16 21  1  0  0  0
 16 31  1  0  0  0
 17 18  1  0  0  0
 17 97  1  0  0  0
 18 19  2  0  0  0
 18 98  1  0  0  0
 19 20  1  0  0  0
 19 24  1  0  0  0
 20 21  2  0  0  0
 20 99  1  0  0  0
 21 23  1  0  0  0
 22 28  1  0  0  0
 22 32  2  0  0  0
 26 27  1  0  0  0
 28100  1  0  0  0
 28101  1  0  0  0
 29102  1  0  0  0
 29103  1  0  0  0
 33 34  1  0  0  0
 33 66  1  0  0  0
 33 70  2  0  0  0
 34 36  1  0  0  0
 34 59  1  0  0  0
 34104  1  0  0  0
 35 44  2  0  0  0
 35 45  1  0  0  0
 35 68  1  0  0  0
 36 56  1  0  0  0
 36105  1  0  0  0
 37 39  1  0  0  0
 37 47  1  0  0  0
 37 66  1  0  0  0
 37106  1  0  0  0
 38 43  2  0  0  0
 38 46  1  0  0  0
 38 47  1  0  0  0
 39 64  1  0  0  0
 39 67  2  0  0  0
 40 52  1  0  0  0
 40 53  2  0  0  0
 40 58  1  0  0  0
 41107  1  0  0  0
 41108  1  0  0  0
 41109  1  0  0  0
 41 48  1  0  0  0
 42 43  1  0  0  0
 42 66  1  0  0  0
 42110  1  0  0  0
 42111  1  0  0  0
 43 44  1  0  0  0
 44112  1  0  0  0
 45 46  2  0  0  0
 45113  1  0  0  0
 46114  1  0  0  0
 47115  1  0  0  0
 47116  1  0  0  0
 48 56  1  0  0  0
 48 65  1  0  0  0
 48117  1  0  0  0
 49 50  1  0  0  0
 49 53  1  0  0  0
 49 64  1  0  0  0
 49118  1  0  0  0
 50 51  1  0  0  0
 50119  1  0  0  0
 50120  1  0  0  0
 51 52  1  0  0  0
 51121  1  0  0  0
 51122  1  0  0  0
 52123  1  0  0  0
 52124  1  0  0  0
 53 54  1  0  0  0
 54 55  2  0  0  0
 54125  1  0  0  0
 55 57  1  0  0  0
 55126  1  0  0  0
 56 69  2  0  0  0
 57 58  2  0  0  0
 57127  1  0  0  0
 58128  1  0  0  0
 59 60  1  0  0  0
 59 61  1  0  0  0
 59 62  1  0  0  0
 60129  1  0  0  0
 60130  1  0  0  0
 60131  1  0  0  0
 61132  1  0  0  0
 61133  1  0  0  0
 61134  1  0  0  0
 62135  1  0  0  0
 62136  1  0  0  0
 62137  1  0  0  0
 63 65  1  0  0  0
 63138  1  0  0  0
 63139  1  0  0  0
 63140  1  0  0  0
 64141  1  0  0  0
 65142  1  0  0  0
 68 80  1  0  0  0
 71 72  2  0  0  0
 71 73  1  0  0  0
 71143  1  0  0  0
 72 75  1  0  0  0
 72144  1  0  0  0
 73 76  2  0  0  0
 73145  1  0  0  0
 74 75  2  0  0  0
 74 76  1  0  0  0
 74146  1  0  0  0
 75 77  1  0  0  0
 76 81  1  0  0  0
 77 82  1  0  0  0
 77 83  2  0  0  0
 78 79  1  0  0  0
 78 80  1  0  0  0
 78147  1  0  0  0
 78148  1  0  0  0
 79 82  1  0  0  0
 79149  1  0  0  0
 79150  1  0  0  0
 80151  1  0  0  0
 80152  1  0  0  0
 81153  1  0  0  0
 82154  1  0  0  0
M  ISO  4   1 100  68 101  80 101  81 100
M  END
> <chiral flag>
0

> <version>
0

> <s_m_source_file>
/data/baiqing/PycharmProjects/Reinvent-master-3.2/result/LINK_invent/BTK/process_docking_weight1_custom_product_contain_oxygen_bond_distance_aromatic_linkinvent_7_9_3/rearranged_h_0098.sdf

> <i_m_source_file_index>
11

> <r_mmod_Potential_Energy-OPLS-2005>
-6.84075784683228

> <r_mmod_Stretch_Energy-OPLS-2005>
57.7708206176758

> <r_mmod_Bend_Energy-OPLS-2005>
122.469619750977

> <r_mmod_Torsional_Energy-OPLS-2005>
278.912048339844

> <r_mmod_Improper_Torsional_Energy-OPLS-2005>
10.5075798034668

> <r_mmod_Van_der_Waal_Energy-OPLS-2005>
143.249465942383

> <r_mmod_Electrostatic_Energy-OPLS-2005>
-409.116546630859

> <r_mmod_Solvation_Energy-OPLS-2005>
-243.69189453125

> <b_mmod_Minimization_Converged-OPLS-2005>
0

> <r_mmod_RMS_Derivative-OPLS-2005>
3.05263543128967

$$$$
11
                    3D
 Structure written by MMmdl.
161170  0  0  1  0            999 V2000
  -30.5005  -15.0411   20.3879 C   0  0  0  0  0  0
  -30.4406  -12.6409   19.5252 C   0  0  0  0  0  0
  -29.5319  -12.5419   18.2750 C   0  0  0  0  0  0
  -28.0650  -12.3185   18.6869 C   0  0  0  0  0  0
  -27.6269  -13.2595   19.8393 C   0  0  2  0  0  0
  -28.6636  -13.3196   20.9819 C   0  0  0  0  0  0
  -25.2433  -13.8239   20.5731 C   0  0  0  0  0  0
  -24.1764  -13.0448   20.9248 C   0  0  0  0  0  0
  -24.6385  -11.6935   20.8745 C   0  0  0  0  0  0
  -23.9070  -10.4300   21.0397 C   0  0  0  0  0  0
  -24.3618   -9.4217   21.9180 C   0  0  0  0  0  0
  -23.6296   -8.2248   22.0749 C   0  0  0  0  0  0
  -22.4275   -8.0281   21.3543 C   0  0  0  0  0  0
  -21.9913   -9.0252   20.4643 C   0  0  0  0  0  0
  -22.7238  -10.2134   20.3053 C   0  0  0  0  0  0
  -21.6850   -6.0724   22.5272 C   0  0  0  0  0  0
  -21.4016   -6.5632   23.8208 C   0  0  0  0  0  0
  -21.3669   -5.6784   24.9174 C   0  0  0  0  0  0
  -21.6049   -4.3045   24.7225 C   0  0  0  0  0  0
  -21.8817   -3.8136   23.4346 C   0  0  0  0  0  0
  -21.9194   -4.6951   22.3399 C   0  0  0  0  0  0
  -22.7781  -13.5208   21.1910 C   0  0  0  0  0  0
  -22.1657   -4.2137   21.0977 F   0  0  0  0  0  0
  -21.5641   -3.4532   25.7739 F   0  0  0  0  0  0
  -29.9360  -13.7549   20.3905 N   0  0  0  0  0  0
  -26.2863  -12.9488   20.3233 N   0  0  0  0  0  0
  -25.9324  -11.6604   20.5720 N   0  0  0  0  0  0
  -22.0422  -12.8195   22.0461 N   0  0  0  0  0  0
  -25.4102  -15.1970   20.4197 N   0  0  0  0  0  0
  -31.6905  -15.0999   20.0541 O   0  0  0  0  0  0
  -21.6645   -6.8870   21.4234 O   0  0  0  0  0  0
  -22.3460  -14.5512   20.6753 O   0  0  0  0  0  0
  -24.6494  -31.8358   23.1810 C   0  0  0  0  0  0
  -25.9235  -32.4660   23.8225 C   0  0  1  0  0  0
  -27.2215  -27.0632   20.1624 C   0  0  0  0  0  0
  -25.5957  -33.8469   24.2145 N   0  0  0  0  0  0
  -23.4567  -30.4517   21.5268 C   0  0  2  0  0  0
  -24.9092  -28.8632   20.1061 C   0  0  0  0  0  0
  -22.7592  -29.4507   22.4834 C   0  0  0  0  0  0
  -18.0306  -28.1393   22.8474 C   0  0  0  0  0  0
  -24.1480  -36.7230   23.2647 C   0  0  0  0  0  0
  -26.0158  -30.6865   21.3903 C   0  0  0  0  0  0
  -26.0849  -29.2896   20.7348 C   0  0  0  0  0  0
  -27.2351  -28.4052   20.7460 C   0  0  0  0  0  0
  -26.0227  -26.7576   19.4820 C   0  0  0  0  0  0
  -24.8967  -27.6154   19.4613 C   0  0  0  0  0  0
  -23.6855  -29.7704   20.1492 C   0  0  0  0  0  0
  -25.4119  -36.3014   24.0314 C   0  0  1  0  0  0
  -20.5922  -28.3721   23.1213 C   0  0  2  0  0  0
  -20.6783  -26.9416   22.5400 C   0  0  0  0  0  0
  -19.5762  -26.6375   21.5204 C   0  0  0  0  0  0
  -18.1945  -26.7932   22.1617 C   0  0  0  0  0  0
  -19.1566  -28.8880   23.2831 C   0  0  0  0  0  0
  -18.9481  -30.1476   23.8860 C   0  0  0  0  0  0
  -17.6478  -30.6589   24.0555 C   0  0  0  0  0  0
  -25.9076  -34.9393   23.5042 C   0  0  0  0  0  0
  -16.5366  -29.9076   23.6351 C   0  0  0  0  0  0
  -16.7289  -28.6495   23.0368 C   0  0  0  0  0  0
  -26.4537  -31.6569   25.0705 C   0  0  0  0  0  0
  -25.3700  -31.3786   26.1389 C   0  0  0  0  0  0
  -27.0427  -30.2961   24.6351 C   0  0  0  0  0  0
  -27.6048  -32.4365   25.7498 C   0  0  0  0  0  0
  -27.5568  -37.1773   24.8470 C   0  0  0  0  0  0
  -21.4279  -29.3032   22.3574 N   0  0  0  0  0  0
  -26.4276  -37.3736   23.9416 N   0  0  0  0  0  0
  -24.7275  -31.0148   22.0874 N   0  0  0  0  0  0
  -23.4204  -28.8067   23.3017 O   0  0  0  0  0  0
  -28.2784  -26.0643   20.2735 O   0  0  0  0  0  0
  -26.5663  -34.8907   22.4623 O   0  0  0  0  0  0
  -23.5597  -32.1261   23.6998 O   0  0  0  0  0  0
  -29.9655  -19.2294   18.2134 C   0  0  0  0  0  0
  -29.5947  -20.4037   18.9152 C   0  0  0  0  0  0
  -30.0721  -17.9503   18.8160 C   0  0  0  0  0  0
  -29.3321  -18.9904   20.8737 C   0  0  0  0  0  0
  -29.2999  -20.4006   20.2923 C   0  0  0  0  0  0
  -29.7490  -17.7226   20.1699 C   0  0  0  0  0  0
  -27.8093  -22.7317   23.3379 C   0  0  0  0  0  0
  -29.0738  -21.8674   23.4864 C   0  0  0  0  0  0
  -27.3121  -23.0856   21.9340 C   0  0  0  0  0  0
  -29.9743  -21.7200   22.2248 C   0  0  0  0  0  0
  -28.4859  -23.1948   20.9591 C   0  0  2  0  0  0
  -28.8624  -18.7759   22.3007 C   0  0  0  0  0  0
  -28.2767  -24.5145   19.8910 C   0  0  0  0  0  0
  -29.2435  -21.7695   20.9490 N   0  0  0  0  0  0
  -29.7326  -16.2332   20.6551 N   0  0  0  0  0  0
  -27.1907  -23.1102   24.3361 O   0  0  0  0  0  0
  -31.4762  -12.7992   19.2188 H   0  0  0  0  0  0
  -30.4414  -11.6983   20.0760 H   0  0  0  0  0  0
  -29.8664  -11.7289   17.6288 H   0  0  0  0  0  0
  -29.6159  -13.4557   17.6854 H   0  0  0  0  0  0
  -27.9711  -11.2802   19.0073 H   0  0  0  0  0  0
  -27.4037  -12.4350   17.8273 H   0  0  0  0  0  0
  -27.5810  -14.2555   19.3977 H   0  0  0  0  0  0
  -28.7649  -12.3512   21.4737 H   0  0  0  0  0  0
  -28.3438  -14.0232   21.7518 H   0  0  0  0  0  0
  -25.2757   -9.5704   22.4756 H   0  0  0  0  0  0
  -24.0007   -7.4644   22.7466 H   0  0  0  0  0  0
  -21.0844   -8.8767   19.8952 H   0  0  0  0  0  0
  -22.3684  -10.9672   19.6165 H   0  0  0  0  0  0
  -21.1998   -7.6136   23.9710 H   0  0  0  0  0  0
  -21.1501   -6.0514   25.9080 H   0  0  0  0  0  0
  -22.0588   -2.7595   23.2848 H   0  0  0  0  0  0
  -22.4034  -11.9865   22.4865 H   0  0  0  0  0  0
  -21.1033  -13.1210   22.2653 H   0  0  0  0  0  0
  -24.6431  -15.8490   20.5474 H   0  0  0  0  0  0
  -26.2496  -15.6397   20.0681 H   0  0  0  0  0  0
  -26.7305  -32.5243   23.0952 H   0  0  0  0  0  0
  -25.0116  -33.9572   25.0304 H   0  0  0  0  0  0
  -22.7639  -31.2806   21.3658 H   0  0  0  0  0  0
  -23.3758  -35.9543   23.3294 H   0  0  0  0  0  0
  -24.3558  -36.8880   22.2065 H   0  0  0  0  0  0
  -23.7222  -37.6414   23.6694 H   0  0  0  0  0  0
  -26.1799  -31.4364   20.6147 H   0  0  0  0  0  0
  -26.8819  -30.7399   22.0389 H   0  0  0  0  0  0
  -28.1259  -28.7262   21.2675 H   0  0  0  0  0  0
  -25.9169  -25.8077   18.9820 H   0  0  0  0  0  0
  -24.0023  -27.2887   18.9487 H   0  0  0  0  0  0
  -23.8204  -30.5381   19.3865 H   0  0  0  0  0  0
  -22.7992  -29.2092   19.8454 H   0  0  0  0  0  0
  -25.1311  -36.1832   25.0806 H   0  0  0  0  0  0
  -21.0016  -28.3321   24.1330 H   0  0  0  0  0  0
  -20.5664  -26.2332   23.3620 H   0  0  0  0  0  0
  -21.6651  -26.7409   22.1206 H   0  0  0  0  0  0
  -19.6918  -25.6277   21.1251 H   0  0  0  0  0  0
  -19.6705  -27.3172   20.6723 H   0  0  0  0  0  0
  -17.4211  -26.6674   21.4023 H   0  0  0  0  0  0
  -18.0350  -26.0077   22.9020 H   0  0  0  0  0  0
  -19.7959  -30.7301   24.2207 H   0  0  0  0  0  0
  -17.5031  -31.6269   24.5154 H   0  0  0  0  0  0
  -15.5365  -30.2959   23.7701 H   0  0  0  0  0  0
  -15.8689  -28.0797   22.7109 H   0  0  0  0  0  0
  -24.5874  -30.7149   25.7702 H   0  0  0  0  0  0
  -24.8900  -32.2978   26.4754 H   0  0  0  0  0  0
  -25.7959  -30.8993   27.0212 H   0  0  0  0  0  0
  -26.3078  -29.6663   24.1327 H   0  0  0  0  0  0
  -27.3980  -29.7299   25.4971 H   0  0  0  0  0  0
  -27.9002  -30.4189   23.9731 H   0  0  0  0  0  0
  -27.2624  -33.3694   26.1991 H   0  0  0  0  0  0
  -28.3895  -32.6888   25.0352 H   0  0  0  0  0  0
  -28.0671  -31.8553   26.5487 H   0  0  0  0  0  0
  -28.2582  -38.0073   24.7514 H   0  0  0  0  0  0
  -28.1064  -36.2603   24.6293 H   0  0  0  0  0  0
  -27.2280  -37.1418   25.8871 H   0  0  0  0  0  0
  -20.9503  -29.8713   21.6716 H   0  0  0  0  0  0
  -26.0134  -38.2798   24.1430 H   0  0  0  0  0  0
  -30.1996  -19.3181   17.1619 H   0  0  0  0  0  0
  -29.6124  -21.3433   18.3810 H   0  0  0  0  0  0
  -30.3631  -17.1163   18.1931 H   0  0  0  0  0  0
  -28.7508  -20.8934   23.8439 H   0  0  0  0  0  0
  -29.6724  -22.2817   24.2974 H   0  0  0  0  0  0
  -26.7844  -24.0370   21.9938 H   0  0  0  0  0  0
  -26.5942  -22.3389   21.5966 H   0  0  0  0  0  0
  -30.5959  -20.8293   22.3104 H   0  0  0  0  0  0
  -30.7105  -22.5265   22.2226 H   0  0  0  0  0  0
  -29.2195  -23.7674   21.5286 H   0  0  0  0  0  0
  -28.0175  -19.4258   22.5182 H   0  0  0  0  0  0
  -29.6636  -18.9541   23.0163 H   0  0  0  0  0  0
  -28.5111  -17.7569   22.4571 H   0  0  0  0  0  0
  -27.3937  -24.2992   19.2928 H   0  0  0  0  0  0
  -29.0953  -24.4342   19.1741 H   0  0  0  0  0  0
  -28.8880  -16.0008   21.1547 H   0  0  0  0  0  0
  1 25  1  0  0  0
  1 30  2  0  0  0
  1 85  1  0  0  0
  2  3  1  0  0  0
  2 25  1  0  0  0
  2 87  1  0  0  0
  2 88  1  0  0  0
  3  4  1  0  0  0
  3 89  1  0  0  0
  3 90  1  0  0  0
  4  5  1  0  0  0
  4 91  1  0  0  0
  4 92  1  0  0  0
  5  6  1  0  0  0
  5 26  1  0  0  0
  5 93  1  0  0  0
  6 25  1  0  0  0
  6 94  1  0  0  0
  6 95  1  0  0  0
  7  8  2  0  0  0
  7 26  1  0  0  0
  7 29  1  0  0  0
  8  9  1  0  0  0
  8 22  1  0  0  0
  9 10  1  0  0  0
  9 27  2  0  0  0
 10 11  2  0  0  0
 10 15  1  0  0  0
 11 12  1  0  0  0
 11 96  1  0  0  0
 12 13  2  0  0  0
 12 97  1  0  0  0
 13 14  1  0  0  0
 13 31  1  0  0  0
 14 15  2  0  0  0
 14 98  1  0  0  0
 15 99  1  0  0  0
 16 17  2  0  0  0
 16 21  1  0  0  0
 16 31  1  0  0  0
 17 18  1  0  0  0
 17100  1  0  0  0
 18 19  2  0  0  0
 18101  1  0  0  0
 19 20  1  0  0  0
 19 24  1  0  0  0
 20 21  2  0  0  0
 20102  1  0  0  0
 21 23  1  0  0  0
 22 28  1  0  0  0
 22 32  2  0  0  0
 26 27  1  0  0  0
 28103  1  0  0  0
 28104  1  0  0  0
 29105  1  0  0  0
 29106  1  0  0  0
 33 34  1  0  0  0
 33 66  1  0  0  0
 33 70  2  0  0  0
 34 36  1  0  0  0
 34 59  1  0  0  0
 34107  1  0  0  0
 35 44  2  0  0  0
 35 45  1  0  0  0
 35 68  1  0  0  0
 36 56  1  0  0  0
 36108  1  0  0  0
 37 39  1  0  0  0
 37 47  1  0  0  0
 37 66  1  0  0  0
 37109  1  0  0  0
 38 43  2  0  0  0
 38 46  1  0  0  0
 38 47  1  0  0  0
 39 64  1  0  0  0
 39 67  2  0  0  0
 40 52  1  0  0  0
 40 53  2  0  0  0
 40 58  1  0  0  0
 41110  1  0  0  0
 41111  1  0  0  0
 41112  1  0  0  0
 41 48  1  0  0  0
 42 43  1  0  0  0
 42 66  1  0  0  0
 42113  1  0  0  0
 42114  1  0  0  0
 43 44  1  0  0  0
 44115  1  0  0  0
 45 46  2  0  0  0
 45116  1  0  0  0
 46117  1  0  0  0
 47118  1  0  0  0
 47119  1  0  0  0
 48 56  1  0  0  0
 48 65  1  0  0  0
 48120  1  0  0  0
 49 50  1  0  0  0
 49 53  1  0  0  0
 49 64  1  0  0  0
 49121  1  0  0  0
 50 51  1  0  0  0
 50122  1  0  0  0
 50123  1  0  0  0
 51 52  1  0  0  0
 51124  1  0  0  0
 51125  1  0  0  0
 52126  1  0  0  0
 52127  1  0  0  0
 53 54  1  0  0  0
 54 55  2  0  0  0
 54128  1  0  0  0
 55 57  1  0  0  0
 55129  1  0  0  0
 56 69  2  0  0  0
 57 58  2  0  0  0
 57130  1  0  0  0
 58131  1  0  0  0
 59 60  1  0  0  0
 59 61  1  0  0  0
 59 62  1  0  0  0
 60132  1  0  0  0
 60133  1  0  0  0
 60134  1  0  0  0
 61135  1  0  0  0
 61136  1  0  0  0
 61137  1  0  0  0
 62138  1  0  0  0
 62139  1  0  0  0
 62140  1  0  0  0
 63 65  1  0  0  0
 63141  1  0  0  0
 63142  1  0  0  0
 63143  1  0  0  0
 64144  1  0  0  0
 65145  1  0  0  0
 68 83  1  0  0  0
 71 72  2  0  0  0
 71 73  1  0  0  0
 71146  1  0  0  0
 72 75  1  0  0  0
 72147  1  0  0  0
 73 76  2  0  0  0
 73148  1  0  0  0
 74 75  2  0  0  0
 74 76  1  0  0  0
 74 82  1  0  0  0
 75 84  1  0  0  0
 76 85  1  0  0  0
 77 78  1  0  0  0
 77 79  1  0  0  0
 77 86  2  0  0  0
 78 80  1  0  0  0
 78149  1  0  0  0
 78150  1  0  0  0
 79 81  1  0  0  0
 79151  1  0  0  0
 79152  1  0  0  0
 80 84  1  0  0  0
 80153  1  0  0  0
 80154  1  0  0  0
 81 83  1  0  0  0
 81 84  1  0  0  0
 81155  1  0  0  0
 82156  1  0  0  0
 82157  1  0  0  0
 82158  1  0  0  0
 83159  1  0  0  0
 83160  1  0  0  0
 85161  1  0  0  0
M  ISO  4   1 100  68 101  83 101  85 100
M  END
> <chiral flag>
0

> <version>
0

> <s_m_source_file>
/data/baiqing/PycharmProjects/Reinvent-master-3.2/result/LINK_invent/BTK/process_docking_weight1_custom_product_contain_oxygen_bond_distance_aromatic_linkinvent_7_9_3/rearranged_h_0098.sdf

> <i_m_source_file_index>
12

> <r_mmod_Potential_Energy-OPLS-2005>
792.663879394531

> <r_mmod_Stretch_Energy-OPLS-2005>
357.272521972656

> <r_mmod_Bend_Energy-OPLS-2005>
430.983673095703

> <r_mmod_Torsional_Energy-OPLS-2005>
248.139099121094

> <r_mmod_Improper_Torsional_Energy-OPLS-2005>
5.69680881500244

> <r_mmod_Van_der_Waal_Energy-OPLS-2005>
143.562896728516

> <r_mmod_Electrostatic_Energy-OPLS-2005>
-416.073120117188

> <r_mmod_Solvation_Energy-OPLS-2005>
-237.458877563477

> <b_mmod_Minimization_Converged-OPLS-2005>
0

> <r_mmod_RMS_Derivative-OPLS-2005>
1.54233634471893

$$$$
12
                    3D
 Structure written by MMmdl.
156164  0  0  1  0            999 V2000
  -30.6729  -14.6608   20.5040 C   0  0  0  0  0  0
  -30.4258  -12.3810   19.4798 C   0  0  0  0  0  0
  -29.5129  -12.5127   18.2415 C   0  0  0  0  0  0
  -28.0336  -12.3584   18.6430 C   0  0  0  0  0  0
  -27.6499  -13.2345   19.8668 C   0  0  2  0  0  0
  -28.6830  -13.1219   21.0091 C   0  0  0  0  0  0
  -25.2507  -13.8183   20.5656 C   0  0  0  0  0  0
  -24.1799  -13.0430   20.9155 C   0  0  0  0  0  0
  -24.6410  -11.6914   20.8728 C   0  0  0  0  0  0
  -23.9090  -10.4294   21.0404 C   0  0  0  0  0  0
  -24.3638   -9.4209   21.9181 C   0  0  0  0  0  0
  -23.6310   -8.2247   22.0752 C   0  0  0  0  0  0
  -22.4287   -8.0288   21.3547 C   0  0  0  0  0  0
  -21.9927   -9.0261   20.4642 C   0  0  0  0  0  0
  -22.7263  -10.2138   20.3053 C   0  0  0  0  0  0
  -21.6854   -6.0745   22.5282 C   0  0  0  0  0  0
  -21.4017   -6.5647   23.8218 C   0  0  0  0  0  0
  -21.3664   -5.6797   24.9176 C   0  0  0  0  0  0
  -21.6045   -4.3060   24.7225 C   0  0  0  0  0  0
  -21.8820   -3.8154   23.4346 C   0  0  0  0  0  0
  -21.9193   -4.6972   22.3403 C   0  0  0  0  0  0
  -22.7827  -13.5216   21.1849 C   0  0  0  0  0  0
  -22.1661   -4.2162   21.0980 F   0  0  0  0  0  0
  -21.5629   -3.4540   25.7736 F   0  0  0  0  0  0
  -30.0074  -13.4090   20.4527 N   0  0  0  0  0  0
  -26.2975  -12.9421   20.3334 N   0  0  0  0  0  0
  -25.9348  -11.6552   20.5767 N   0  0  0  0  0  0
  -22.0493  -12.8195   22.0410 N   0  0  0  0  0  0
  -25.4168  -15.1891   20.4072 N   0  0  0  0  0  0
  -31.8078  -14.7980   20.0484 O   0  0  0  0  0  0
  -21.6643   -6.8891   21.4245 O   0  0  0  0  0  0
  -22.3505  -14.5532   20.6720 O   0  0  0  0  0  0
  -24.6260  -31.8594   23.2027 C   0  0  0  0  0  0
  -25.9111  -32.4774   23.8350 C   0  0  1  0  0  0
  -27.2229  -27.3171   20.1189 C   0  0  0  0  0  0
  -25.5933  -33.8577   24.2279 N   0  0  0  0  0  0
  -23.4192  -30.4842   21.5447 C   0  0  2  0  0  0
  -24.8656  -28.9394   20.1100 C   0  0  0  0  0  0
  -22.7471  -29.4625   22.4928 C   0  0  0  0  0  0
  -18.0289  -28.1383   22.8484 C   0  0  0  0  0  0
  -24.1492  -36.7292   23.2638 C   0  0  0  0  0  0
  -25.9599  -30.7909   21.3736 C   0  0  0  0  0  0
  -26.0340  -29.4184   20.7154 C   0  0  0  0  0  0
  -27.2153  -28.6188   20.7095 C   0  0  0  0  0  0
  -26.0306  -26.8921   19.4886 C   0  0  0  0  0  0
  -24.8660  -27.6823   19.4875 C   0  0  0  0  0  0
  -23.6340  -29.8198   20.1594 C   0  0  0  0  0  0
  -25.4115  -36.3080   24.0329 C   0  0  1  0  0  0
  -20.5886  -28.3691   23.1279 C   0  0  2  0  0  0
  -20.6774  -26.9413   22.5407 C   0  0  0  0  0  0
  -19.5753  -26.6383   21.5208 C   0  0  0  0  0  0
  -18.1934  -26.7924   22.1621 C   0  0  0  0  0  0
  -19.1540  -28.8853   23.2878 C   0  0  0  0  0  0
  -18.9466  -30.1455   23.8899 C   0  0  0  0  0  0
  -17.6466  -30.6585   24.0566 C   0  0  0  0  0  0
  -25.9052  -34.9449   23.5101 C   0  0  0  0  0  0
  -16.5357  -29.9085   23.6326 C   0  0  0  0  0  0
  -16.7277  -28.6503   23.0347 C   0  0  0  0  0  0
  -26.4502  -31.6579   25.0717 C   0  0  0  0  0  0
  -25.3736  -31.3708   26.1442 C   0  0  0  0  0  0
  -27.0344  -30.3004   24.6160 C   0  0  0  0  0  0
  -27.6058  -32.4309   25.7496 C   0  0  0  0  0  0
  -27.5580  -37.1801   24.8465 C   0  0  0  0  0  0
  -21.4185  -29.3047   22.3674 N   0  0  0  0  0  0
  -26.4291  -37.3779   23.9410 N   0  0  0  0  0  0
  -24.6870  -31.0609   22.0973 N   0  0  0  0  0  0
  -23.4197  -28.8165   23.3004 O   0  0  0  0  0  0
  -28.3417  -26.4703   20.1766 O   0  0  0  0  0  0
  -26.5619  -34.8914   22.4665 O   0  0  0  0  0  0
  -23.5426  -32.1390   23.7363 O   0  0  0  0  0  0
  -31.1558  -19.3393   20.5741 C   0  0  0  0  0  0
  -28.8021  -19.3732   20.9856 C   0  0  0  0  0  0
  -29.9820  -20.1180   20.7453 C   0  0  0  0  0  0
  -31.1814  -17.9167   20.6393 C   0  0  0  0  0  0
  -28.8053  -17.9327   21.0605 C   0  0  0  0  0  0
  -29.9914  -17.1490   20.8713 C   0  0  0  0  0  0
  -30.0981  -21.6577   20.8427 C   0  0  0  0  0  0
  -26.5933  -17.9133   21.9958 C   0  0  0  0  0  0
  -29.3135  -24.0471   20.5082 C   0  0  0  0  0  0
  -28.1317  -25.0064   20.0560 C   0  0  0  0  0  0
  -32.4428  -17.3398   20.5266 N   0  0  0  0  0  0
  -29.1337  -22.5414   20.4384 N   0  0  0  0  0  0
  -31.1609  -22.1055   21.2798 O   0  0  0  0  0  0
  -29.8492  -15.7302   20.9837 O   0  0  0  0  0  0
  -27.6609  -17.2208   21.3568 O   0  0  0  0  0  0
  -31.4742  -12.4833   19.1944 H   0  0  0  0  0  0
  -30.3310  -11.3882   19.9227 H   0  0  0  0  0  0
  -29.7783  -11.7640   17.4942 H   0  0  0  0  0  0
  -29.6674  -13.4843   17.7694 H   0  0  0  0  0  0
  -27.8637  -11.3063   18.8723 H   0  0  0  0  0  0
  -27.3874  -12.5922   17.7962 H   0  0  0  0  0  0
  -27.6628  -14.2690   19.5209 H   0  0  0  0  0  0
  -28.6736  -12.1203   21.4409 H   0  0  0  0  0  0
  -28.4339  -13.8054   21.8229 H   0  0  0  0  0  0
  -25.2786   -9.5684   22.4754 H   0  0  0  0  0  0
  -24.0023   -7.4636   22.7471 H   0  0  0  0  0  0
  -21.0859   -8.8781   19.8945 H   0  0  0  0  0  0
  -22.3725  -10.9675   19.6160 H   0  0  0  0  0  0
  -21.2011   -7.6153   23.9727 H   0  0  0  0  0  0
  -21.1485   -6.0523   25.9081 H   0  0  0  0  0  0
  -22.0595   -2.7616   23.2837 H   0  0  0  0  0  0
  -22.4118  -11.9849   22.4777 H   0  0  0  0  0  0
  -21.1108  -13.1203   22.2633 H   0  0  0  0  0  0
  -24.6551  -15.8431   20.5428 H   0  0  0  0  0  0
  -26.3015  -15.6423   20.2110 H   0  0  0  0  0  0
  -26.7174  -32.5453   23.1096 H   0  0  0  0  0  0
  -25.0092  -33.9720   25.0430 H   0  0  0  0  0  0
  -22.7138  -31.3056   21.4018 H   0  0  0  0  0  0
  -23.3753  -35.9626   23.3300 H   0  0  0  0  0  0
  -24.3583  -36.8915   22.2054 H   0  0  0  0  0  0
  -23.7242  -37.6491   23.6658 H   0  0  0  0  0  0
  -26.0896  -31.5547   20.6053 H   0  0  0  0  0  0
  -26.8405  -30.8399   22.0022 H   0  0  0  0  0  0
  -28.1107  -28.9798   21.1951 H   0  0  0  0  0  0
  -25.9693  -25.9322   18.9981 H   0  0  0  0  0  0
  -23.9699  -27.3107   19.0088 H   0  0  0  0  0  0
  -23.7560  -30.5967   19.4036 H   0  0  0  0  0  0
  -22.7536  -29.2510   19.8546 H   0  0  0  0  0  0
  -25.1292  -36.1935   25.0822 H   0  0  0  0  0  0
  -20.9981  -28.3274   24.1398 H   0  0  0  0  0  0
  -20.5674  -26.2309   23.3613 H   0  0  0  0  0  0
  -21.6644  -26.7443   22.1207 H   0  0  0  0  0  0
  -19.6918  -25.6295   21.1240 H   0  0  0  0  0  0
  -19.6686  -27.3195   20.6739 H   0  0  0  0  0  0
  -17.4199  -26.6676   21.4025 H   0  0  0  0  0  0
  -18.0338  -26.0067   22.9021 H   0  0  0  0  0  0
  -19.7948  -30.7264   24.2272 H   0  0  0  0  0  0
  -17.5026  -31.6265   24.5169 H   0  0  0  0  0  0
  -15.5358  -30.2991   23.7642 H   0  0  0  0  0  0
  -15.8682  -28.0824   22.7056 H   0  0  0  0  0  0
  -24.5919  -30.7053   25.7768 H   0  0  0  0  0  0
  -24.8921  -32.2874   26.4859 H   0  0  0  0  0  0
  -25.8067  -30.8893   27.0219 H   0  0  0  0  0  0
  -26.2916  -29.6756   24.1189 H   0  0  0  0  0  0
  -27.4055  -29.7258   25.4656 H   0  0  0  0  0  0
  -27.8780  -30.4292   23.9373 H   0  0  0  0  0  0
  -27.2662  -33.3604   26.2072 H   0  0  0  0  0  0
  -28.3875  -32.6873   25.0333 H   0  0  0  0  0  0
  -28.0715  -31.8432   26.5415 H   0  0  0  0  0  0
  -28.2591  -38.0104   24.7511 H   0  0  0  0  0  0
  -28.1080  -36.2634   24.6287 H   0  0  0  0  0  0
  -27.2299  -37.1447   25.8868 H   0  0  0  0  0  0
  -20.9362  -29.8785   21.6898 H   0  0  0  0  0  0
  -26.0175  -38.2855   24.1410 H   0  0  0  0  0  0
  -32.0900  -19.8667   20.4326 H   0  0  0  0  0  0
  -27.8952  -19.9331   21.1559 H   0  0  0  0  0  0
  -26.0499  -18.5406   21.2881 H   0  0  0  0  0  0
  -26.9426  -18.5263   22.8289 H   0  0  0  0  0  0
  -25.8875  -17.1923   22.4079 H   0  0  0  0  0  0
  -29.5714  -24.3026   21.5373 H   0  0  0  0  0  0
  -30.1922  -24.3036   19.9147 H   0  0  0  0  0  0
  -27.2510  -24.7347   20.6397 H   0  0  0  0  0  0
  -27.8992  -24.7823   19.0146 H   0  0  0  0  0  0
  -32.4521  -16.3442   20.2848 H   0  0  0  0  0  0
  -33.1581  -17.8609   20.0310 H   0  0  0  0  0  0
  -28.2751  -22.1750   20.0517 H   0  0  0  0  0  0
  1 25  1  0  0  0
  1 30  2  0  0  0
  1 84  1  0  0  0
  2  3  1  0  0  0
  2 25  1  0  0  0
  2 86  1  0  0  0
  2 87  1  0  0  0
  3  4  1  0  0  0
  3 88  1  0  0  0
  3 89  1  0  0  0
  4  5  1  0  0  0
  4 90  1  0  0  0
  4 91  1  0  0  0
  5  6  1  0  0  0
  5 26  1  0  0  0
  5 92  1  0  0  0
  6 25  1  0  0  0
  6 93  1  0  0  0
  6 94  1  0  0  0
  7  8  2  0  0  0
  7 26  1  0  0  0
  7 29  1  0  0  0
  8  9  1  0  0  0
  8 22  1  0  0  0
  9 10  1  0  0  0
  9 27  2  0  0  0
 10 11  2  0  0  0
 10 15  1  0  0  0
 11 12  1  0  0  0
 11 95  1  0  0  0
 12 13  2  0  0  0
 12 96  1  0  0  0
 13 14  1  0  0  0
 13 31  1  0  0  0
 14 15  2  0  0  0
 14 97  1  0  0  0
 15 98  1  0  0  0
 16 17  2  0  0  0
 16 21  1  0  0  0
 16 31  1  0  0  0
 17 18  1  0  0  0
 17 99  1  0  0  0
 18 19  2  0  0  0
 18100  1  0  0  0
 19 20  1  0  0  0
 19 24  1  0  0  0
 20 21  2  0  0  0
 20101  1  0  0  0
 21 23  1  0  0  0
 22 28  1  0  0  0
 22 32  2  0  0  0
 26 27  1  0  0  0
 28102  1  0  0  0
 28103  1  0  0  0
 29104  1  0  0  0
 29105  1  0  0  0
 33 34  1  0  0  0
 33 66  1  0  0  0
 33 70  2  0  0  0
 34 36  1  0  0  0
 34 59  1  0  0  0
 34106  1  0  0  0
 35 44  2  0  0  0
 35 45  1  0  0  0
 35 68  1  0  0  0
 36 56  1  0  0  0
 36107  1  0  0  0
 37 39  1  0  0  0
 37 47  1  0  0  0
 37 66  1  0  0  0
 37108  1  0  0  0
 38 43  2  0  0  0
 38 46  1  0  0  0
 38 47  1  0  0  0
 39 64  1  0  0  0
 39 67  2  0  0  0
 40 52  1  0  0  0
 40 53  2  0  0  0
 40 58  1  0  0  0
 41109  1  0  0  0
 41110  1  0  0  0
 41111  1  0  0  0
 41 48  1  0  0  0
 42 43  1  0  0  0
 42 66  1  0  0  0
 42112  1  0  0  0
 42113  1  0  0  0
 43 44  1  0  0  0
 44114  1  0  0  0
 45 46  2  0  0  0
 45115  1  0  0  0
 46116  1  0  0  0
 47117  1  0  0  0
 47118  1  0  0  0
 48 56  1  0  0  0
 48 65  1  0  0  0
 48119  1  0  0  0
 49 50  1  0  0  0
 49 53  1  0  0  0
 49 64  1  0  0  0
 49120  1  0  0  0
 50 51  1  0  0  0
 50121  1  0  0  0
 50122  1  0  0  0
 51 52  1  0  0  0
 51123  1  0  0  0
 51124  1  0  0  0
 52125  1  0  0  0
 52126  1  0  0  0
 53 54  1  0  0  0
 54 55  2  0  0  0
 54127  1  0  0  0
 55 57  1  0  0  0
 55128  1  0  0  0
 56 69  2  0  0  0
 57 58  2  0  0  0
 57129  1  0  0  0
 58130  1  0  0  0
 59 60  1  0  0  0
 59 61  1  0  0  0
 59 62  1  0  0  0
 60131  1  0  0  0
 60132  1  0  0  0
 60133  1  0  0  0
 61134  1  0  0  0
 61135  1  0  0  0
 61136  1  0  0  0
 62137  1  0  0  0
 62138  1  0  0  0
 62139  1  0  0  0
 63 65  1  0  0  0
 63140  1  0  0  0
 63141  1  0  0  0
 63142  1  0  0  0
 64143  1  0  0  0
 65144  1  0  0  0
 68 80  1  0  0  0
 71 73  2  0  0  0
 71 74  1  0  0  0
 71145  1  0  0  0
 72 73  1  0  0  0
 72 75  2  0  0  0
 72146  1  0  0  0
 73 77  1  0  0  0
 74 76  2  0  0  0
 74 81  1  0  0  0
 75 76  1  0  0  0
 75 85  1  0  0  0
 76 84  1  0  0  0
 77 82  1  0  0  0
 77 83  2  0  0  0
 78 85  1  0  0  0
 78147  1  0  0  0
 78148  1  0  0  0
 78149  1  0  0  0
 79 80  1  0  0  0
 79 82  1  0  0  0
 79150  1  0  0  0
 79151  1  0  0  0
 80152  1  0  0  0
 80153  1  0  0  0
 81154  1  0  0  0
 81155  1  0  0  0
 82156  1  0  0  0
M  ISO  4   1 100  68 101  80 101  84 100
M  END
> <chiral flag>
0

> <version>
0

> <s_m_source_file>
/data/baiqing/PycharmProjects/Reinvent-master-3.2/result/LINK_invent/BTK/process_docking_weight1_custom_product_contain_oxygen_bond_distance_aromatic_linkinvent_7_9_3/rearranged_h_0098.sdf

> <i_m_source_file_index>
13

> <r_mmod_Potential_Energy-OPLS-2005>
-30.3829364776611

> <r_mmod_Stretch_Energy-OPLS-2005>
92.7410507202148

> <r_mmod_Bend_Energy-OPLS-2005>
172.23193359375

> <r_mmod_Torsional_Energy-OPLS-2005>
179.781265258789

> <r_mmod_Improper_Torsional_Energy-OPLS-2005>
8.34593868255615

> <r_mmod_Van_der_Waal_Energy-OPLS-2005>
163.491302490234

> <r_mmod_Electrostatic_Energy-OPLS-2005>
-469.676788330078

> <r_mmod_Solvation_Energy-OPLS-2005>
-227.077880859375

> <b_mmod_Minimization_Converged-OPLS-2005>
0

> <r_mmod_RMS_Derivative-OPLS-2005>
1.11945593357086

$$$$
13
                    3D
 Structure written by MMmdl.
162170  0  0  1  0            999 V2000
  -30.7805  -14.3130   20.7471 C   0  0  0  0  0  0
  -30.4144  -12.2979   19.3650 C   0  0  0  0  0  0
  -29.4713  -12.5411   18.1743 C   0  0  0  0  0  0
  -27.9989  -12.3863   18.5978 C   0  0  0  0  0  0
  -27.6627  -13.1982   19.8751 C   0  0  2  0  0  0
  -28.6976  -12.9155   20.9816 C   0  0  0  0  0  0
  -25.2593  -13.8152   20.5659 C   0  0  0  0  0  0
  -24.1841  -13.0447   20.9166 C   0  0  0  0  0  0
  -24.6377  -11.6908   20.8720 C   0  0  0  0  0  0
  -23.9042  -10.4299   21.0408 C   0  0  0  0  0  0
  -24.3600   -9.4216   21.9185 C   0  0  0  0  0  0
  -23.6286   -8.2246   22.0751 C   0  0  0  0  0  0
  -22.4269   -8.0276   21.3537 C   0  0  0  0  0  0
  -21.9904   -9.0248   20.4640 C   0  0  0  0  0  0
  -22.7220  -10.2134   20.3054 C   0  0  0  0  0  0
  -21.6852   -6.0730   22.5277 C   0  0  0  0  0  0
  -21.4013   -6.5635   23.8213 C   0  0  0  0  0  0
  -21.3661   -5.6790   24.9175 C   0  0  0  0  0  0
  -21.6047   -4.3052   24.7226 C   0  0  0  0  0  0
  -21.8820   -3.8145   23.4350 C   0  0  0  0  0  0
  -21.9191   -4.6960   22.3405 C   0  0  0  0  0  0
  -22.7871  -13.5244   21.1848 C   0  0  0  0  0  0
  -22.1658   -4.2149   21.0981 F   0  0  0  0  0  0
  -21.5635   -3.4538   25.7743 F   0  0  0  0  0  0
  -30.0440  -13.2140   20.4521 N   0  0  0  0  0  0
  -26.3018  -12.9312   20.3341 N   0  0  0  0  0  0
  -25.9287  -11.6475   20.5717 N   0  0  0  0  0  0
  -22.0506  -12.8220   22.0391 N   0  0  0  0  0  0
  -25.4338  -15.1867   20.4067 N   0  0  0  0  0  0
  -31.7635  -14.6797   20.0943 O   0  0  0  0  0  0
  -21.6633   -6.8877   21.4239 O   0  0  0  0  0  0
  -22.3556  -14.5561   20.6715 O   0  0  0  0  0  0
  -24.6116  -31.8696   23.2119 C   0  0  0  0  0  0
  -25.9021  -32.4834   23.8406 C   0  0  1  0  0  0
  -27.2326  -27.4634   20.0924 C   0  0  0  0  0  0
  -25.5879  -33.8636   24.2338 N   0  0  0  0  0  0
  -23.3980  -30.4919   21.5524 C   0  0  2  0  0  0
  -24.8446  -28.9559   20.1219 C   0  0  0  0  0  0
  -22.7391  -29.4674   22.5026 C   0  0  0  0  0  0
  -18.0262  -28.1385   22.8506 C   0  0  0  0  0  0
  -24.1478  -36.7320   23.2638 C   0  0  0  0  0  0
  -25.9226  -30.8411   21.3621 C   0  0  0  0  0  0
  -26.0011  -29.4735   20.7206 C   0  0  0  0  0  0
  -27.2001  -28.7300   20.7122 C   0  0  0  0  0  0
  -26.0683  -26.9493   19.4915 C   0  0  0  0  0  0
  -24.8700  -27.6887   19.5097 C   0  0  0  0  0  0
  -23.6051  -29.8206   20.1687 C   0  0  0  0  0  0
  -25.4100  -36.3118   24.0336 C   0  0  1  0  0  0
  -20.5850  -28.3666   23.1331 C   0  0  2  0  0  0
  -20.6757  -26.9404   22.5422 C   0  0  0  0  0  0
  -19.5737  -26.6394   21.5213 C   0  0  0  0  0  0
  -18.1903  -26.7937   22.1612 C   0  0  0  0  0  0
  -19.1508  -28.8840   23.2909 C   0  0  0  0  0  0
  -18.9445  -30.1446   23.8920 C   0  0  0  0  0  0
  -17.6451  -30.6585   24.0579 C   0  0  0  0  0  0
  -25.9031  -34.9486   23.5138 C   0  0  0  0  0  0
  -16.5341  -29.9091   23.6339 C   0  0  0  0  0  0
  -16.7255  -28.6514   23.0349 C   0  0  0  0  0  0
  -26.4455  -31.6606   25.0727 C   0  0  0  0  0  0
  -25.3727  -31.3692   26.1479 C   0  0  0  0  0  0
  -27.0297  -30.3060   24.6080 C   0  0  0  0  0  0
  -27.6039  -32.4327   25.7478 C   0  0  0  0  0  0
  -27.5586  -37.1803   24.8457 C   0  0  0  0  0  0
  -21.4127  -29.3033   22.3752 N   0  0  0  0  0  0
  -26.4284  -37.3805   23.9417 N   0  0  0  0  0  0
  -24.6622  -31.0825   22.1006 N   0  0  0  0  0  0
  -23.4168  -28.8219   23.3061 O   0  0  0  0  0  0
  -28.3978  -26.7514   19.9950 O   0  0  0  0  0  0
  -26.5606  -34.8931   22.4704 O   0  0  0  0  0  0
  -23.5314  -32.1448   23.7520 O   0  0  0  0  0  0
  -31.9461  -18.1803   22.0685 C   0  0  0  0  0  0
  -29.3455  -19.2457   22.1322 C   0  0  0  0  0  0
  -30.8584  -17.3273   22.3411 C   0  0  0  0  0  0
  -29.5417  -17.8637   22.3688 C   0  0  0  0  0  0
  -31.7437  -19.5521   21.8508 C   0  0  0  0  0  0
  -30.4469  -20.1032   21.8940 C   0  0  0  0  0  0
  -28.3286  -16.9981   22.6798 C   0  0  0  0  0  0
  -31.1784  -15.8705   22.6627 C   0  0  0  0  0  0
  -28.3660  -24.5448   21.0358 C   0  0  0  0  0  0
  -29.4298  -23.6160   21.6444 C   0  0  0  0  0  0
  -28.7785  -26.0265   21.1570 C   0  0  0  0  0  0
  -29.1011  -22.1133   21.6339 C   0  0  0  0  0  0
  -32.8359  -20.3824   21.6071 N   0  0  0  0  0  0
  -30.4286  -14.8848   21.9012 N   0  0  0  0  0  0
  -30.3643  -21.4690   21.7266 O   0  0  0  0  0  0
  -31.4528  -12.4216   19.0524 H   0  0  0  0  0  0
  -30.3310  -11.2669   19.7122 H   0  0  0  0  0  0
  -29.7013  -11.8491   17.3636 H   0  0  0  0  0  0
  -29.6335  -13.5435   17.7752 H   0  0  0  0  0  0
  -27.8063  -11.3257   18.7677 H   0  0  0  0  0  0
  -27.3407  -12.6862   17.7809 H   0  0  0  0  0  0
  -27.7280  -14.2558   19.6183 H   0  0  0  0  0  0
  -28.6580  -11.8652   21.2741 H   0  0  0  0  0  0
  -28.4293  -13.4712   21.8801 H   0  0  0  0  0  0
  -25.2753   -9.5697   22.4750 H   0  0  0  0  0  0
  -24.0004   -7.4644   22.7477 H   0  0  0  0  0  0
  -21.0835   -8.8767   19.8942 H   0  0  0  0  0  0
  -22.3686  -10.9671   19.6159 H   0  0  0  0  0  0
  -21.2006   -7.6139   23.9712 H   0  0  0  0  0  0
  -21.1480   -6.0519   25.9074 H   0  0  0  0  0  0
  -22.0598   -2.7611   23.2850 H   0  0  0  0  0  0
  -22.4118  -11.9862   22.4742 H   0  0  0  0  0  0
  -21.1136  -13.1250   22.2630 H   0  0  0  0  0  0
  -24.6706  -15.8456   20.5171 H   0  0  0  0  0  0
  -26.2907  -15.6210   20.0877 H   0  0  0  0  0  0
  -26.7093  -32.5569   23.1181 H   0  0  0  0  0  0
  -25.0034  -33.9803   25.0487 H   0  0  0  0  0  0
  -22.6850  -31.3066   21.4116 H   0  0  0  0  0  0
  -23.3742  -35.9652   23.3296 H   0  0  0  0  0  0
  -24.3582  -36.8942   22.2061 H   0  0  0  0  0  0
  -23.7229  -37.6517   23.6664 H   0  0  0  0  0  0
  -26.0258  -31.6022   20.5868 H   0  0  0  0  0  0
  -26.8147  -30.9020   21.9732 H   0  0  0  0  0  0
  -28.0991  -29.1332   21.1577 H   0  0  0  0  0  0
  -26.0956  -25.9847   19.0030 H   0  0  0  0  0  0
  -23.9829  -27.2837   19.0419 H   0  0  0  0  0  0
  -23.7089  -30.5913   19.4041 H   0  0  0  0  0  0
  -22.7299  -29.2373   19.8787 H   0  0  0  0  0  0
  -25.1274  -36.1990   25.0829 H   0  0  0  0  0  0
  -20.9935  -28.3224   24.1451 H   0  0  0  0  0  0
  -20.5656  -26.2273   23.3607 H   0  0  0  0  0  0
  -21.6630  -26.7440   22.1230 H   0  0  0  0  0  0
  -19.6898  -25.6306   21.1242 H   0  0  0  0  0  0
  -19.6671  -27.3219   20.6754 H   0  0  0  0  0  0
  -17.4181  -26.6711   21.3993 H   0  0  0  0  0  0
  -18.0263  -26.0062   22.8977 H   0  0  0  0  0  0
  -19.7916  -30.7274   24.2282 H   0  0  0  0  0  0
  -17.4996  -31.6266   24.5173 H   0  0  0  0  0  0
  -15.5341  -30.3003   23.7643 H   0  0  0  0  0  0
  -15.8655  -28.0853   22.7040 H   0  0  0  0  0  0
  -24.5908  -30.7022   25.7824 H   0  0  0  0  0  0
  -24.8895  -32.2830   26.4943 H   0  0  0  0  0  0
  -25.8090  -30.8866   27.0233 H   0  0  0  0  0  0
  -26.2834  -29.6812   24.1152 H   0  0  0  0  0  0
  -27.4104  -29.7303   25.4529 H   0  0  0  0  0  0
  -27.8642  -30.4408   23.9194 H   0  0  0  0  0  0
  -27.2676  -33.3636   26.2055 H   0  0  0  0  0  0
  -28.3829  -32.6875   25.0282 H   0  0  0  0  0  0
  -28.0714  -31.8448   26.5384 H   0  0  0  0  0  0
  -28.2583  -38.0123   24.7547 H   0  0  0  0  0  0
  -28.1101  -36.2654   24.6224 H   0  0  0  0  0  0
  -27.2316  -37.1409   25.8862 H   0  0  0  0  0  0
  -20.9285  -29.8774   21.6995 H   0  0  0  0  0  0
  -26.0174  -38.2880   24.1429 H   0  0  0  0  0  0
  -32.9489  -17.7762   22.0458 H   0  0  0  0  0  0
  -28.3402  -19.6389   22.1670 H   0  0  0  0  0  0
  -27.4441  -17.6037   22.8827 H   0  0  0  0  0  0
  -28.5037  -16.3768   23.5592 H   0  0  0  0  0  0
  -28.0940  -16.3463   21.8374 H   0  0  0  0  0  0
  -30.9682  -15.7071   23.7196 H   0  0  0  0  0  0
  -32.2469  -15.6790   22.5482 H   0  0  0  0  0  0
  -27.3908  -24.3908   21.5001 H   0  0  0  0  0  0
  -28.2473  -24.2837   19.9832 H   0  0  0  0  0  0
  -29.6493  -23.9235   22.6672 H   0  0  0  0  0  0
  -30.3524  -23.7679   21.0820 H   0  0  0  0  0  0
  -29.8642  -26.1083   21.2235 H   0  0  0  0  0  0
  -28.3858  -26.4645   22.0772 H   0  0  0  0  0  0
  -28.5995  -21.8171   20.7115 H   0  0  0  0  0  0
  -28.4512  -21.8683   22.4754 H   0  0  0  0  0  0
  -33.7265  -20.1201   22.0171 H   0  0  0  0  0  0
  -32.6454  -21.3767   21.6903 H   0  0  0  0  0  0
  -29.6329  -14.4729   22.3628 H   0  0  0  0  0  0
  1 25  1  0  0  0
  1 30  2  0  0  0
  1 84  1  0  0  0
  2  3  1  0  0  0
  2 25  1  0  0  0
  2 86  1  0  0  0
  2 87  1  0  0  0
  3  4  1  0  0  0
  3 88  1  0  0  0
  3 89  1  0  0  0
  4  5  1  0  0  0
  4 90  1  0  0  0
  4 91  1  0  0  0
  5  6  1  0  0  0
  5 26  1  0  0  0
  5 92  1  0  0  0
  6 25  1  0  0  0
  6 93  1  0  0  0
  6 94  1  0  0  0
  7  8  2  0  0  0
  7 26  1  0  0  0
  7 29  1  0  0  0
  8  9  1  0  0  0
  8 22  1  0  0  0
  9 10  1  0  0  0
  9 27  2  0  0  0
 10 11  2  0  0  0
 10 15  1  0  0  0
 11 12  1  0  0  0
 11 95  1  0  0  0
 12 13  2  0  0  0
 12 96  1  0  0  0
 13 14  1  0  0  0
 13 31  1  0  0  0
 14 15  2  0  0  0
 14 97  1  0  0  0
 15 98  1  0  0  0
 16 17  2  0  0  0
 16 21  1  0  0  0
 16 31  1  0  0  0
 17 18  1  0  0  0
 17 99  1  0  0  0
 18 19  2  0  0  0
 18100  1  0  0  0
 19 20  1  0  0  0
 19 24  1  0  0  0
 20 21  2  0  0  0
 20101  1  0  0  0
 21 23  1  0  0  0
 22 28  1  0  0  0
 22 32  2  0  0  0
 26 27  1  0  0  0
 28102  1  0  0  0
 28103  1  0  0  0
 29104  1  0  0  0
 29105  1  0  0  0
 33 34  1  0  0  0
 33 66  1  0  0  0
 33 70  2  0  0  0
 34 36  1  0  0  0
 34 59  1  0  0  0
 34106  1  0  0  0
 35 44  2  0  0  0
 35 45  1  0  0  0
 35 68  1  0  0  0
 36 56  1  0  0  0
 36107  1  0  0  0
 37 39  1  0  0  0
 37 47  1  0  0  0
 37 66  1  0  0  0
 37108  1  0  0  0
 38 43  2  0  0  0
 38 46  1  0  0  0
 38 47  1  0  0  0
 39 64  1  0  0  0
 39 67  2  0  0  0
 40 52  1  0  0  0
 40 53  2  0  0  0
 40 58  1  0  0  0
 41109  1  0  0  0
 41110  1  0  0  0
 41111  1  0  0  0
 41 48  1  0  0  0
 42 43  1  0  0  0
 42 66  1  0  0  0
 42112  1  0  0  0
 42113  1  0  0  0
 43 44  1  0  0  0
 44114  1  0  0  0
 45 46  2  0  0  0
 45115  1  0  0  0
 46116  1  0  0  0
 47117  1  0  0  0
 47118  1  0  0  0
 48 56  1  0  0  0
 48 65  1  0  0  0
 48119  1  0  0  0
 49 50  1  0  0  0
 49 53  1  0  0  0
 49 64  1  0  0  0
 49120  1  0  0  0
 50 51  1  0  0  0
 50121  1  0  0  0
 50122  1  0  0  0
 51 52  1  0  0  0
 51123  1  0  0  0
 51124  1  0  0  0
 52125  1  0  0  0
 52126  1  0  0  0
 53 54  1  0  0  0
 54 55  2  0  0  0
 54127  1  0  0  0
 55 57  1  0  0  0
 55128  1  0  0  0
 56 69  2  0  0  0
 57 58  2  0  0  0
 57129  1  0  0  0
 58130  1  0  0  0
 59 60  1  0  0  0
 59 61  1  0  0  0
 59 62  1  0  0  0
 60131  1  0  0  0
 60132  1  0  0  0
 60133  1  0  0  0
 61134  1  0  0  0
 61135  1  0  0  0
 61136  1  0  0  0
 62137  1  0  0  0
 62138  1  0  0  0
 62139  1  0  0  0
 63 65  1  0  0  0
 63140  1  0  0  0
 63141  1  0  0  0
 63142  1  0  0  0
 64143  1  0  0  0
 65144  1  0  0  0
 68 81  1  0  0  0
 71 73  2  0  0  0
 71 75  1  0  0  0
 71145  1  0  0  0
 72 74  2  0  0  0
 72 76  1  0  0  0
 72146  1  0  0  0
 73 74  1  0  0  0
 73 78  1  0  0  0
 74 77  1  0  0  0
 75 76  2  0  0  0
 75 83  1  0  0  0
 76 85  1  0  0  0
 77147  1  0  0  0
 77148  1  0  0  0
 77149  1  0  0  0
 78 84  1  0  0  0
 78150  1  0  0  0
 78151  1  0  0  0
 79 80  1  0  0  0
 79 81  1  0  0  0
 79152  1  0  0  0
 79153  1  0  0  0
 80 82  1  0  0  0
 80154  1  0  0  0
 80155  1  0  0  0
 81156  1  0  0  0
 81157  1  0  0  0
 82 85  1  0  0  0
 82158  1  0  0  0
 82159  1  0  0  0
 83160  1  0  0  0
 83161  1  0  0  0
 84162  1  0  0  0
M  ISO  4   1 100  68 101  81 101  84 100
M  END
> <chiral flag>
0

> <version>
0

> <s_m_source_file>
/data/baiqing/PycharmProjects/Reinvent-master-3.2/result/LINK_invent/BTK/process_docking_weight1_custom_product_contain_oxygen_bond_distance_aromatic_linkinvent_7_9_3/rearranged_h_0098.sdf

> <i_m_source_file_index>
14

> <r_mmod_Potential_Energy-OPLS-2005>
-150.508636474609

> <r_mmod_Stretch_Energy-OPLS-2005>
31.7533378601074

> <r_mmod_Bend_Energy-OPLS-2005>
103.795372009277

> <r_mmod_Torsional_Energy-OPLS-2005>
231.329040527344

> <r_mmod_Improper_Torsional_Energy-OPLS-2005>
7.3507604598999

> <r_mmod_Van_der_Waal_Energy-OPLS-2005>
152.547515869141

> <r_mmod_Electrostatic_Energy-OPLS-2005>
-458.935729980469

> <r_mmod_Solvation_Energy-OPLS-2005>
-225.965560913086

> <b_mmod_Minimization_Converged-OPLS-2005>
0

> <r_mmod_RMS_Derivative-OPLS-2005>
1.86766088008881

$$$$
14
                    3D
 Structure written by MMmdl.
157165  0  0  1  0            999 V2000
  -30.6905  -14.4878   20.5070 C   0  0  0  0  0  0
  -30.4235  -12.2925   19.4401 C   0  0  0  0  0  0
  -29.5024  -12.4800   18.2151 C   0  0  0  0  0  0
  -28.0210  -12.3471   18.6241 C   0  0  0  0  0  0
  -27.6602  -13.2041   19.8676 C   0  0  2  0  0  0
  -28.7030  -13.0158   20.9962 C   0  0  0  0  0  0
  -25.2595  -13.8147   20.5678 C   0  0  0  0  0  0
  -24.1844  -13.0424   20.9171 C   0  0  0  0  0  0
  -24.6385  -11.6894   20.8727 C   0  0  0  0  0  0
  -23.9036  -10.4289   21.0389 C   0  0  0  0  0  0
  -24.3591   -9.4212   21.9169 C   0  0  0  0  0  0
  -23.6286   -8.2235   22.0740 C   0  0  0  0  0  0
  -22.4267   -8.0261   21.3533 C   0  0  0  0  0  0
  -21.9892   -9.0226   20.4624 C   0  0  0  0  0  0
  -22.7203  -10.2116   20.3037 C   0  0  0  0  0  0
  -21.6856   -6.0721   22.5279 C   0  0  0  0  0  0
  -21.4005   -6.5630   23.8204 C   0  0  0  0  0  0
  -21.3664   -5.6785   24.9172 C   0  0  0  0  0  0
  -21.6047   -4.3049   24.7224 C   0  0  0  0  0  0
  -21.8822   -3.8132   23.4347 C   0  0  0  0  0  0
  -21.9189   -4.6949   22.3399 C   0  0  0  0  0  0
  -22.7867  -13.5222   21.1832 C   0  0  0  0  0  0
  -22.1666   -4.2135   21.0981 F   0  0  0  0  0  0
  -21.5633   -3.4533   25.7739 F   0  0  0  0  0  0
  -30.0358  -13.2974   20.4416 N   0  0  0  0  0  0
  -26.3017  -12.9310   20.3322 N   0  0  0  0  0  0
  -25.9308  -11.6473   20.5735 N   0  0  0  0  0  0
  -22.0503  -12.8230   22.0400 N   0  0  0  0  0  0
  -25.4317  -15.1864   20.4115 N   0  0  0  0  0  0
  -31.8485  -14.6353   20.1100 O   0  0  0  0  0  0
  -21.6630   -6.8863   21.4237 O   0  0  0  0  0  0
  -22.3564  -14.5530   20.6680 O   0  0  0  0  0  0
  -24.6161  -31.8663   23.2077 C   0  0  0  0  0  0
  -25.9054  -32.4817   23.8371 C   0  0  1  0  0  0
  -27.2296  -27.4274   20.1005 C   0  0  0  0  0  0
  -25.5913  -33.8614   24.2298 N   0  0  0  0  0  0
  -23.4041  -30.4906   21.5488 C   0  0  2  0  0  0
  -24.8497  -28.9552   20.1113 C   0  0  0  0  0  0
  -22.7410  -29.4656   22.4978 C   0  0  0  0  0  0
  -18.0274  -28.1373   22.8514 C   0  0  0  0  0  0
  -24.1476  -36.7305   23.2637 C   0  0  0  0  0  0
  -25.9332  -30.8321   21.3603 C   0  0  0  0  0  0
  -26.0113  -29.4675   20.7039 C   0  0  0  0  0  0
  -27.2102  -28.7149   20.6885 C   0  0  0  0  0  0
  -26.0522  -26.9300   19.5043 C   0  0  0  0  0  0
  -24.8640  -27.6861   19.5069 C   0  0  0  0  0  0
  -23.6111  -29.8236   20.1625 C   0  0  0  0  0  0
  -25.4111  -36.3120   24.0332 C   0  0  1  0  0  0
  -20.5870  -28.3655   23.1325 C   0  0  2  0  0  0
  -20.6776  -26.9395   22.5412 C   0  0  0  0  0  0
  -19.5748  -26.6386   21.5222 C   0  0  0  0  0  0
  -18.1925  -26.7925   22.1633 C   0  0  0  0  0  0
  -19.1523  -28.8834   23.2915 C   0  0  0  0  0  0
  -18.9448  -30.1459   23.8904 C   0  0  0  0  0  0
  -17.6446  -30.6584   24.0573 C   0  0  0  0  0  0
  -25.9044  -34.9486   23.5109 C   0  0  0  0  0  0
  -16.5340  -29.9079   23.6346 C   0  0  0  0  0  0
  -16.7261  -28.6497   23.0362 C   0  0  0  0  0  0
  -26.4484  -31.6603   25.0706 C   0  0  0  0  0  0
  -25.3734  -31.3728   26.1433 C   0  0  0  0  0  0
  -27.0332  -30.3051   24.6114 C   0  0  0  0  0  0
  -27.6063  -32.4325   25.7468 C   0  0  0  0  0  0
  -27.5579  -37.1804   24.8471 C   0  0  0  0  0  0
  -21.4130  -29.3021   22.3726 N   0  0  0  0  0  0
  -26.4292  -37.3815   23.9416 N   0  0  0  0  0  0
  -24.6695  -31.0782   22.0971 N   0  0  0  0  0  0
  -23.4178  -28.8207   23.3031 O   0  0  0  0  0  0
  -28.3757  -26.6610   20.0935 O   0  0  0  0  0  0
  -26.5600  -34.8951   22.4668 O   0  0  0  0  0  0
  -23.5359  -32.1403   23.7487 O   0  0  0  0  0  0
  -29.0886  -19.1313   23.0830 C   0  0  0  0  0  0
  -29.4126  -17.9844   22.3298 C   0  0  0  0  0  0
  -29.0667  -20.4064   22.4806 C   0  0  0  0  0  0
  -29.7222  -19.3970   20.3747 C   0  0  0  0  0  0
  -29.7241  -18.1013   20.9576 C   0  0  0  0  0  0
  -29.3814  -20.5582   21.1080 C   0  0  0  0  0  0
  -29.2538  -16.8515   18.7913 C   0  0  0  0  0  0
  -28.9114  -24.1991   20.1845 C   0  0  0  0  0  0
  -28.2861  -25.4450   20.8628 C   0  0  0  0  0  0
  -28.9256  -22.9517   21.1144 C   0  0  0  0  0  0
  -30.0735  -16.8710   20.0977 C   0  0  2  0  0  0
  -29.9021  -15.5537   20.7461 N   0  0  0  0  0  0
  -29.3826  -21.7730   20.4342 O   0  0  0  0  0  0
  -31.4711  -12.3752   19.1463 H   0  0  0  0  0  0
  -30.3099  -11.2904   19.8569 H   0  0  0  0  0  0
  -29.7455  -11.7446   17.4464 H   0  0  0  0  0  0
  -29.6754  -13.4587   17.7662 H   0  0  0  0  0  0
  -27.8356  -11.2942   18.8378 H   0  0  0  0  0  0
  -27.3710  -12.6003   17.7856 H   0  0  0  0  0  0
  -27.6915  -14.2443   19.5433 H   0  0  0  0  0  0
  -28.6764  -11.9935   21.3738 H   0  0  0  0  0  0
  -28.4785  -13.6539   21.8526 H   0  0  0  0  0  0
  -25.2740   -9.5699   22.4737 H   0  0  0  0  0  0
  -23.9996   -7.4631   22.7474 H   0  0  0  0  0  0
  -21.0814   -8.8725   19.8944 H   0  0  0  0  0  0
  -22.3647  -10.9639   19.6137 H   0  0  0  0  0  0
  -21.1999   -7.6139   23.9710 H   0  0  0  0  0  0
  -21.1492   -6.0515   25.9079 H   0  0  0  0  0  0
  -22.0601   -2.7594   23.2844 H   0  0  0  0  0  0
  -22.4113  -11.9888   22.4800 H   0  0  0  0  0  0
  -21.1101  -13.1241   22.2555 H   0  0  0  0  0  0
  -24.6664  -15.8404   20.5322 H   0  0  0  0  0  0
  -26.2795  -15.6291   20.0817 H   0  0  0  0  0  0
  -26.7130  -32.5528   23.1138 H   0  0  0  0  0  0
  -25.0118  -33.9775   25.0478 H   0  0  0  0  0  0
  -22.6942  -31.3082   21.4124 H   0  0  0  0  0  0
  -23.3769  -35.9609   23.3315 H   0  0  0  0  0  0
  -24.3563  -36.8896   22.2047 H   0  0  0  0  0  0
  -23.7195  -37.6498   23.6632 H   0  0  0  0  0  0
  -26.0514  -31.6032   20.5980 H   0  0  0  0  0  0
  -26.8164  -30.8774   21.9852 H   0  0  0  0  0  0
  -28.1067  -29.1097   21.1442 H   0  0  0  0  0  0
  -26.0495  -25.9518   19.0426 H   0  0  0  0  0  0
  -23.9715  -27.2868   19.0416 H   0  0  0  0  0  0
  -23.7154  -30.5972   19.4004 H   0  0  0  0  0  0
  -22.7356  -29.2393   19.8734 H   0  0  0  0  0  0
  -25.1300  -36.1980   25.0827 H   0  0  0  0  0  0
  -20.9967  -28.3203   24.1444 H   0  0  0  0  0  0
  -20.5714  -26.2259   23.3595 H   0  0  0  0  0  0
  -21.6645  -26.7462   22.1192 H   0  0  0  0  0  0
  -19.6903  -25.6302   21.1245 H   0  0  0  0  0  0
  -19.6690  -27.3215   20.6772 H   0  0  0  0  0  0
  -17.4211  -26.6710   21.4010 H   0  0  0  0  0  0
  -18.0300  -26.0039   22.9001 H   0  0  0  0  0  0
  -19.7915  -30.7298   24.2245 H   0  0  0  0  0  0
  -17.4992  -31.6261   24.5176 H   0  0  0  0  0  0
  -15.5342  -30.2976   23.7671 H   0  0  0  0  0  0
  -15.8666  -28.0828   22.7056 H   0  0  0  0  0  0
  -24.5881  -30.7116   25.7746 H   0  0  0  0  0  0
  -24.8971  -32.2911   26.4876 H   0  0  0  0  0  0
  -25.8057  -30.8859   27.0184 H   0  0  0  0  0  0
  -26.2875  -29.6776   24.1215 H   0  0  0  0  0  0
  -27.4152  -29.7338   25.4587 H   0  0  0  0  0  0
  -27.8692  -30.4399   23.9246 H   0  0  0  0  0  0
  -27.2674  -33.3620   26.2070 H   0  0  0  0  0  0
  -28.3854  -32.6886   25.0267 H   0  0  0  0  0  0
  -28.0763  -31.8434   26.5360 H   0  0  0  0  0  0
  -28.2625  -38.0080   24.7545 H   0  0  0  0  0  0
  -28.1050  -36.2625   24.6277 H   0  0  0  0  0  0
  -27.2303  -37.1417   25.8874 H   0  0  0  0  0  0
  -20.9270  -29.8728   21.6949 H   0  0  0  0  0  0
  -26.0188  -38.2894   24.1425 H   0  0  0  0  0  0
  -28.8517  -19.0306   24.1343 H   0  0  0  0  0  0
  -29.4204  -17.0213   22.8201 H   0  0  0  0  0  0
  -28.8107  -21.2561   23.0970 H   0  0  0  0  0  0
  -29.9787  -19.5180   19.3321 H   0  0  0  0  0  0
  -29.4418  -17.7261   18.1701 H   0  0  0  0  0  0
  -28.1835  -16.8182   18.9984 H   0  0  0  0  0  0
  -29.5015  -15.9837   18.1785 H   0  0  0  0  0  0
  -29.9307  -24.4249   19.8692 H   0  0  0  0  0  0
  -28.3518  -23.9688   19.2766 H   0  0  0  0  0  0
  -28.7949  -25.6312   21.8079 H   0  0  0  0  0  0
  -27.2540  -25.2046   21.1269 H   0  0  0  0  0  0
  -27.9197  -22.7794   21.5018 H   0  0  0  0  0  0
  -29.5711  -23.1514   21.9714 H   0  0  0  0  0  0
  -31.1226  -17.0024   19.8259 H   0  0  0  0  0  0
  -28.9781  -15.3432   21.0896 H   0  0  0  0  0  0
  1 25  1  0  0  0
  1 30  2  0  0  0
  1 82  1  0  0  0
  2  3  1  0  0  0
  2 25  1  0  0  0
  2 84  1  0  0  0
  2 85  1  0  0  0
  3  4  1  0  0  0
  3 86  1  0  0  0
  3 87  1  0  0  0
  4  5  1  0  0  0
  4 88  1  0  0  0
  4 89  1  0  0  0
  5  6  1  0  0  0
  5 26  1  0  0  0
  5 90  1  0  0  0
  6 25  1  0  0  0
  6 91  1  0  0  0
  6 92  1  0  0  0
  7  8  2  0  0  0
  7 26  1  0  0  0
  7 29  1  0  0  0
  8  9  1  0  0  0
  8 22  1  0  0  0
  9 10  1  0  0  0
  9 27  2  0  0  0
 10 11  2  0  0  0
 10 15  1  0  0  0
 11 12  1  0  0  0
 11 93  1  0  0  0
 12 13  2  0  0  0
 12 94  1  0  0  0
 13 14  1  0  0  0
 13 31  1  0  0  0
 14 15  2  0  0  0
 14 95  1  0  0  0
 15 96  1  0  0  0
 16 17  2  0  0  0
 16 21  1  0  0  0
 16 31  1  0  0  0
 17 18  1  0  0  0
 17 97  1  0  0  0
 18 19  2  0  0  0
 18 98  1  0  0  0
 19 20  1  0  0  0
 19 24  1  0  0  0
 20 21  2  0  0  0
 20 99  1  0  0  0
 21 23  1  0  0  0
 22 28  1  0  0  0
 22 32  2  0  0  0
 26 27  1  0  0  0
 28100  1  0  0  0
 28101  1  0  0  0
 29102  1  0  0  0
 29103  1  0  0  0
 33 34  1  0  0  0
 33 66  1  0  0  0
 33 70  2  0  0  0
 34 36  1  0  0  0
 34 59  1  0  0  0
 34104  1  0  0  0
 35 44  2  0  0  0
 35 45  1  0  0  0
 35 68  1  0  0  0
 36 56  1  0  0  0
 36105  1  0  0  0
 37 39  1  0  0  0
 37 47  1  0  0  0
 37 66  1  0  0  0
 37106  1  0  0  0
 38 43  2  0  0  0
 38 46  1  0  0  0
 38 47  1  0  0  0
 39 64  1  0  0  0
 39 67  2  0  0  0
 40 52  1  0  0  0
 40 53  2  0  0  0
 40 58  1  0  0  0
 41107  1  0  0  0
 41108  1  0  0  0
 41109  1  0  0  0
 41 48  1  0  0  0
 42 43  1  0  0  0
 42 66  1  0  0  0
 42110  1  0  0  0
 42111  1  0  0  0
 43 44  1  0  0  0
 44112  1  0  0  0
 45 46  2  0  0  0
 45113  1  0  0  0
 46114  1  0  0  0
 47115  1  0  0  0
 47116  1  0  0  0
 48 56  1  0  0  0
 48 65  1  0  0  0
 48117  1  0  0  0
 49 50  1  0  0  0
 49 53  1  0  0  0
 49 64  1  0  0  0
 49118  1  0  0  0
 50 51  1  0  0  0
 50119  1  0  0  0
 50120  1  0  0  0
 51 52  1  0  0  0
 51121  1  0  0  0
 51122  1  0  0  0
 52123  1  0  0  0
 52124  1  0  0  0
 53 54  1  0  0  0
 54 55  2  0  0  0
 54125  1  0  0  0
 55 57  1  0  0  0
 55126  1  0  0  0
 56 69  2  0  0  0
 57 58  2  0  0  0
 57127  1  0  0  0
 58128  1  0  0  0
 59 60  1  0  0  0
 59 61  1  0  0  0
 59 62  1  0  0  0
 60129  1  0  0  0
 60130  1  0  0  0
 60131  1  0  0  0
 61132  1  0  0  0
 61133  1  0  0  0
 61134  1  0  0  0
 62135  1  0  0  0
 62136  1  0  0  0
 62137  1  0  0  0
 63 65  1  0  0  0
 63138  1  0  0  0
 63139  1  0  0  0
 63140  1  0  0  0
 64141  1  0  0  0
 65142  1  0  0  0
 68 79  1  0  0  0
 71 72  2  0  0  0
 71 73  1  0  0  0
 71143  1  0  0  0
 72 75  1  0  0  0
 72144  1  0  0  0
 73 76  2  0  0  0
 73145  1  0  0  0
 74 75  2  0  0  0
 74 76  1  0  0  0
 74146  1  0  0  0
 75 81  1  0  0  0
 76 83  1  0  0  0
 77147  1  0  0  0
 77148  1  0  0  0
 77149  1  0  0  0
 77 81  1  0  0  0
 78 79  1  0  0  0
 78 80  1  0  0  0
 78150  1  0  0  0
 78151  1  0  0  0
 79152  1  0  0  0
 79153  1  0  0  0
 80 83  1  0  0  0
 80154  1  0  0  0
 80155  1  0  0  0
 81 82  1  0  0  0
 81156  1  0  0  0
 82157  1  0  0  0
M  ISO  4   1 100  68 101  79 101  82 100
M  END
> <chiral flag>
0

> <version>
0

> <s_m_source_file>
/data/baiqing/PycharmProjects/Reinvent-master-3.2/result/LINK_invent/BTK/process_docking_weight1_custom_product_contain_oxygen_bond_distance_aromatic_linkinvent_7_9_3/rearranged_h_0098.sdf

> <i_m_source_file_index>
15

> <r_mmod_Potential_Energy-OPLS-2005>
-85.9354934692383

> <r_mmod_Stretch_Energy-OPLS-2005>
40.0851097106934

> <r_mmod_Bend_Energy-OPLS-2005>
96.7484512329102

> <r_mmod_Torsional_Energy-OPLS-2005>
226.418045043945

> <r_mmod_Improper_Torsional_Energy-OPLS-2005>
8.78788471221924

> <r_mmod_Van_der_Waal_Energy-OPLS-2005>
152.586181640625

> <r_mmod_Electrostatic_Energy-OPLS-2005>
-418.30224609375

> <r_mmod_Solvation_Energy-OPLS-2005>
-208.879730224609

> <b_mmod_Minimization_Converged-OPLS-2005>
0

> <r_mmod_RMS_Derivative-OPLS-2005>
2.45546007156372

$$$$
15
                    3D
 Structure written by MMmdl.
158167  0  0  1  0            999 V2000
  -30.6176  -14.6357   20.5169 C   0  0  0  0  0  0
  -30.4414  -12.3928   19.4541 C   0  0  0  0  0  0
  -29.5095  -12.5169   18.2270 C   0  0  0  0  0  0
  -28.0315  -12.3544   18.6365 C   0  0  0  0  0  0
  -27.6572  -13.2149   19.8726 C   0  0  2  0  0  0
  -28.7008  -13.0528   21.0006 C   0  0  0  0  0  0
  -25.2585  -13.8167   20.5718 C   0  0  0  0  0  0
  -24.1839  -13.0438   20.9187 C   0  0  0  0  0  0
  -24.6398  -11.6903   20.8730 C   0  0  0  0  0  0
  -23.9067  -10.4291   21.0399 C   0  0  0  0  0  0
  -24.3618   -9.4208   21.9184 C   0  0  0  0  0  0
  -23.6295   -8.2245   22.0760 C   0  0  0  0  0  0
  -22.4279   -8.0282   21.3548 C   0  0  0  0  0  0
  -21.9913   -9.0254   20.4647 C   0  0  0  0  0  0
  -22.7239  -10.2133   20.3057 C   0  0  0  0  0  0
  -21.6856   -6.0736   22.5278 C   0  0  0  0  0  0
  -21.4009   -6.5636   23.8210 C   0  0  0  0  0  0
  -21.3666   -5.6793   24.9173 C   0  0  0  0  0  0
  -21.6051   -4.3057   24.7223 C   0  0  0  0  0  0
  -21.8816   -3.8150   23.4341 C   0  0  0  0  0  0
  -21.9190   -4.6966   22.3398 C   0  0  0  0  0  0
  -22.7860  -13.5243   21.1847 C   0  0  0  0  0  0
  -22.1662   -4.2151   21.0975 F   0  0  0  0  0  0
  -21.5636   -3.4547   25.7734 F   0  0  0  0  0  0
  -30.0192  -13.4032   20.4445 N   0  0  0  0  0  0
  -26.3012  -12.9342   20.3364 N   0  0  0  0  0  0
  -25.9330  -11.6495   20.5760 N   0  0  0  0  0  0
  -22.0498  -12.8234   22.0396 N   0  0  0  0  0  0
  -25.4316  -15.1892   20.4175 N   0  0  0  0  0  0
  -31.7647  -14.8190   20.0973 O   0  0  0  0  0  0
  -21.6642   -6.8880   21.4242 O   0  0  0  0  0  0
  -22.3554  -14.5557   20.6703 O   0  0  0  0  0  0
  -24.6258  -31.8579   23.2006 C   0  0  0  0  0  0
  -25.9108  -32.4766   23.8313 C   0  0  1  0  0  0
  -27.2261  -27.3156   20.1204 C   0  0  0  0  0  0
  -25.5923  -33.8564   24.2239 N   0  0  0  0  0  0
  -23.4200  -30.4786   21.5452 C   0  0  2  0  0  0
  -24.8679  -28.9340   20.1112 C   0  0  0  0  0  0
  -22.7478  -29.4586   22.4953 C   0  0  0  0  0  0
  -18.0282  -28.1373   22.8473 C   0  0  0  0  0  0
  -24.1497  -36.7296   23.2642 C   0  0  0  0  0  0
  -25.9602  -30.7870   21.3729 C   0  0  0  0  0  0
  -26.0353  -29.4135   20.7183 C   0  0  0  0  0  0
  -27.2195  -28.6162   20.7129 C   0  0  0  0  0  0
  -26.0411  -26.8965   19.4762 C   0  0  0  0  0  0
  -24.8733  -27.6817   19.4785 C   0  0  0  0  0  0
  -23.6340  -29.8125   20.1612 C   0  0  0  0  0  0
  -25.4121  -36.3073   24.0321 C   0  0  1  0  0  0
  -20.5878  -28.3657   23.1304 C   0  0  2  0  0  0
  -20.6762  -26.9378   22.5424 C   0  0  0  0  0  0
  -19.5748  -26.6365   21.5213 C   0  0  0  0  0  0
  -18.1922  -26.7915   22.1612 C   0  0  0  0  0  0
  -19.1534  -28.8836   23.2878 C   0  0  0  0  0  0
  -18.9460  -30.1450   23.8873 C   0  0  0  0  0  0
  -17.6458  -30.6568   24.0558 C   0  0  0  0  0  0
  -25.9053  -34.9447   23.5076 C   0  0  0  0  0  0
  -16.5351  -29.9056   23.6342 C   0  0  0  0  0  0
  -16.7269  -28.6493   23.0323 C   0  0  0  0  0  0
  -26.4489  -31.6581   25.0689 C   0  0  0  0  0  0
  -25.3717  -31.3718   26.1413 C   0  0  0  0  0  0
  -27.0332  -30.3002   24.6143 C   0  0  0  0  0  0
  -27.6034  -32.4331   25.7467 C   0  0  0  0  0  0
  -27.5579  -37.1808   24.8466 C   0  0  0  0  0  0
  -21.4189  -29.3021   22.3717 N   0  0  0  0  0  0
  -26.4293  -37.3773   23.9409 N   0  0  0  0  0  0
  -24.6874  -31.0576   22.0967 N   0  0  0  0  0  0
  -23.4206  -28.8112   23.3014 O   0  0  0  0  0  0
  -28.3407  -26.4632   20.1421 O   0  0  0  0  0  0
  -26.5619  -34.8927   22.4642 O   0  0  0  0  0  0
  -23.5428  -32.1376   23.7338 O   0  0  0  0  0  0
  -30.6385  -19.2830   19.9128 C   0  0  0  0  0  0
  -30.7861  -17.8722   20.0925 C   0  0  0  0  0  0
  -28.6878  -17.8353   21.2506 C   0  0  0  0  0  0
  -28.5256  -19.2434   21.0662 C   0  0  0  0  0  0
  -29.5182  -20.0257   20.3954 C   0  0  0  0  0  0
  -29.8026  -17.1030   20.7657 C   0  0  0  0  0  0
  -29.0782  -22.5307   20.9205 C   0  0  0  0  0  0
  -29.3287  -23.4857   18.7650 C   0  0  0  0  0  0
  -29.8383  -22.0255   18.8207 C   0  0  0  0  0  0
  -29.2097  -23.9316   20.2258 C   0  0  1  0  0  0
  -27.2223  -19.8559   21.5522 C   0  0  0  0  0  0
  -28.1116  -25.0480   20.5357 C   0  0  0  0  0  0
  -29.4076  -21.4749   20.1081 N   0  0  0  0  0  0
  -29.8165  -15.6514   20.9655 N   0  0  0  0  0  0
  -28.7473  -22.4409   22.1054 O   0  0  0  0  0  0
  -31.4828  -12.5217   19.1542 H   0  0  0  0  0  0
  -30.3789  -11.3929   19.8857 H   0  0  0  0  0  0
  -29.7738  -11.7701   17.4776 H   0  0  0  0  0  0
  -29.6516  -13.4899   17.7530 H   0  0  0  0  0  0
  -27.8660  -11.2991   18.8571 H   0  0  0  0  0  0
  -27.3777  -12.5960   17.7977 H   0  0  0  0  0  0
  -27.6808  -14.2542   19.5457 H   0  0  0  0  0  0
  -28.7097  -12.0244   21.3649 H   0  0  0  0  0  0
  -28.4413  -13.6648   21.8652 H   0  0  0  0  0  0
  -25.2763   -9.5692   22.4757 H   0  0  0  0  0  0
  -24.0008   -7.4642   22.7487 H   0  0  0  0  0  0
  -21.0847   -8.8769   19.8953 H   0  0  0  0  0  0
  -22.3700  -10.9672   19.6167 H   0  0  0  0  0  0
  -21.1991   -7.6141   23.9713 H   0  0  0  0  0  0
  -21.1500   -6.0523   25.9076 H   0  0  0  0  0  0
  -22.0589   -2.7613   23.2840 H   0  0  0  0  0  0
  -22.4111  -11.9882   22.4759 H   0  0  0  0  0  0
  -21.1127  -13.1277   22.2615 H   0  0  0  0  0  0
  -24.6667  -15.8442   20.5352 H   0  0  0  0  0  0
  -26.2821  -15.6299   20.0906 H   0  0  0  0  0  0
  -26.7163  -32.5434   23.1050 H   0  0  0  0  0  0
  -25.0115  -33.9690   25.0414 H   0  0  0  0  0  0
  -22.7152  -31.3001   21.4024 H   0  0  0  0  0  0
  -23.3755  -35.9630   23.3285 H   0  0  0  0  0  0
  -24.3612  -36.8934   22.2063 H   0  0  0  0  0  0
  -23.7251  -37.6491   23.6681 H   0  0  0  0  0  0
  -26.0906  -31.5490   20.6033 H   0  0  0  0  0  0
  -26.8411  -30.8366   22.0007 H   0  0  0  0  0  0
  -28.1154  -28.9795   21.1952 H   0  0  0  0  0  0
  -26.0034  -25.9509   18.9554 H   0  0  0  0  0  0
  -23.9833  -27.3156   18.9851 H   0  0  0  0  0  0
  -23.7492  -30.5882   19.4039 H   0  0  0  0  0  0
  -22.7553  -29.2382   19.8616 H   0  0  0  0  0  0
  -25.1310  -36.1913   25.0812 H   0  0  0  0  0  0
  -20.9955  -28.3210   24.1428 H   0  0  0  0  0  0
  -20.5656  -26.2249   23.3610 H   0  0  0  0  0  0
  -21.6632  -26.7396   22.1226 H   0  0  0  0  0  0
  -19.6904  -25.6276   21.1238 H   0  0  0  0  0  0
  -19.6704  -27.3183   20.6753 H   0  0  0  0  0  0
  -17.4199  -26.6671   21.4004 H   0  0  0  0  0  0
  -18.0309  -26.0050   22.9002 H   0  0  0  0  0  0
  -19.7936  -30.7285   24.2204 H   0  0  0  0  0  0
  -17.5005  -31.6247   24.5159 H   0  0  0  0  0  0
  -15.5348  -30.2941   23.7692 H   0  0  0  0  0  0
  -15.8673  -28.0833   22.6995 H   0  0  0  0  0  0
  -24.5944  -30.6991   25.7768 H   0  0  0  0  0  0
  -24.8844  -32.2873   26.4773 H   0  0  0  0  0  0
  -25.8052  -30.8979   27.0227 H   0  0  0  0  0  0
  -26.2893  -29.6749   24.1190 H   0  0  0  0  0  0
  -27.4052  -29.7267   25.4643 H   0  0  0  0  0  0
  -27.8747  -30.4285   23.9331 H   0  0  0  0  0  0
  -27.2635  -33.3672   26.1952 H   0  0  0  0  0  0
  -28.3888  -32.6820   25.0317 H   0  0  0  0  0  0
  -28.0632  -31.8504   26.5458 H   0  0  0  0  0  0
  -28.2590  -38.0112   24.7516 H   0  0  0  0  0  0
  -28.1080  -36.2642   24.6286 H   0  0  0  0  0  0
  -27.2304  -37.1451   25.8871 H   0  0  0  0  0  0
  -20.9361  -29.8777   21.6967 H   0  0  0  0  0  0
  -26.0165  -38.2844   24.1411 H   0  0  0  0  0  0
  -31.4216  -19.8006   19.3781 H   0  0  0  0  0  0
  -31.6663  -17.3904   19.6911 H   0  0  0  0  0  0
  -27.9051  -17.2936   21.7636 H   0  0  0  0  0  0
  -28.3513  -23.5187   18.2816 H   0  0  0  0  0  0
  -29.9974  -24.1282   18.1916 H   0  0  0  0  0  0
  -30.9282  -22.0116   18.7737 H   0  0  0  0  0  0
  -29.4650  -21.4335   17.9837 H   0  0  0  0  0  0
  -30.1740  -24.3211   20.5517 H   0  0  0  0  0  0
  -26.4485  -19.0976   21.6750 H   0  0  0  0  0  0
  -26.8401  -20.5875   20.8406 H   0  0  0  0  0  0
  -27.3600  -20.3392   22.5189 H   0  0  0  0  0  0
  -27.9742  -25.0750   21.6176 H   0  0  0  0  0  0
  -27.1669  -24.6674   20.1531 H   0  0  0  0  0  0
  -28.9702  -15.2908   21.3787 H   0  0  0  0  0  0
  1 25  1  0  0  0
  1 30  2  0  0  0
  1 84  1  0  0  0
  2  3  1  0  0  0
  2 25  1  0  0  0
  2 86  1  0  0  0
  2 87  1  0  0  0
  3  4  1  0  0  0
  3 88  1  0  0  0
  3 89  1  0  0  0
  4  5  1  0  0  0
  4 90  1  0  0  0
  4 91  1  0  0  0
  5  6  1  0  0  0
  5 26  1  0  0  0
  5 92  1  0  0  0
  6 25  1  0  0  0
  6 93  1  0  0  0
  6 94  1  0  0  0
  7  8  2  0  0  0
  7 26  1  0  0  0
  7 29  1  0  0  0
  8  9  1  0  0  0
  8 22  1  0  0  0
  9 10  1  0  0  0
  9 27  2  0  0  0
 10 11  2  0  0  0
 10 15  1  0  0  0
 11 12  1  0  0  0
 11 95  1  0  0  0
 12 13  2  0  0  0
 12 96  1  0  0  0
 13 14  1  0  0  0
 13 31  1  0  0  0
 14 15  2  0  0  0
 14 97  1  0  0  0
 15 98  1  0  0  0
 16 17  2  0  0  0
 16 21  1  0  0  0
 16 31  1  0  0  0
 17 18  1  0  0  0
 17 99  1  0  0  0
 18 19  2  0  0  0
 18100  1  0  0  0
 19 20  1  0  0  0
 19 24  1  0  0  0
 20 21  2  0  0  0
 20101  1  0  0  0
 21 23  1  0  0  0
 22 28  1  0  0  0
 22 32  2  0  0  0
 26 27  1  0  0  0
 28102  1  0  0  0
 28103  1  0  0  0
 29104  1  0  0  0
 29105  1  0  0  0
 33 34  1  0  0  0
 33 66  1  0  0  0
 33 70  2  0  0  0
 34 36  1  0  0  0
 34 59  1  0  0  0
 34106  1  0  0  0
 35 44  2  0  0  0
 35 45  1  0  0  0
 35 68  1  0  0  0
 36 56  1  0  0  0
 36107  1  0  0  0
 37 39  1  0  0  0
 37 47  1  0  0  0
 37 66  1  0  0  0
 37108  1  0  0  0
 38 43  2  0  0  0
 38 46  1  0  0  0
 38 47  1  0  0  0
 39 64  1  0  0  0
 39 67  2  0  0  0
 40 52  1  0  0  0
 40 53  2  0  0  0
 40 58  1  0  0  0
 41109  1  0  0  0
 41110  1  0  0  0
 41111  1  0  0  0
 41 48  1  0  0  0
 42 43  1  0  0  0
 42 66  1  0  0  0
 42112  1  0  0  0
 42113  1  0  0  0
 43 44  1  0  0  0
 44114  1  0  0  0
 45 46  2  0  0  0
 45115  1  0  0  0
 46116  1  0  0  0
 47117  1  0  0  0
 47118  1  0  0  0
 48 56  1  0  0  0
 48 65  1  0  0  0
 48119  1  0  0  0
 49 50  1  0  0  0
 49 53  1  0  0  0
 49 64  1  0  0  0
 49120  1  0  0  0
 50 51  1  0  0  0
 50121  1  0  0  0
 50122  1  0  0  0
 51 52  1  0  0  0
 51123  1  0  0  0
 51124  1  0  0  0
 52125  1  0  0  0
 52126  1  0  0  0
 53 54  1  0  0  0
 54 55  2  0  0  0
 54127  1  0  0  0
 55 57  1  0  0  0
 55128  1  0  0  0
 56 69  2  0  0  0
 57 58  2  0  0  0
 57129  1  0  0  0
 58130  1  0  0  0
 59 60  1  0  0  0
 59 61  1  0  0  0
 59 62  1  0  0  0
 60131  1  0  0  0
 60132  1  0  0  0
 60133  1  0  0  0
 61134  1  0  0  0
 61135  1  0  0  0
 61136  1  0  0  0
 62137  1  0  0  0
 62138  1  0  0  0
 62139  1  0  0  0
 63 65  1  0  0  0
 63140  1  0  0  0
 63141  1  0  0  0
 63142  1  0  0  0
 64143  1  0  0  0
 65144  1  0  0  0
 68 82  1  0  0  0
 71 72  2  0  0  0
 71 75  1  0  0  0
 71145  1  0  0  0
 72 76  1  0  0  0
 72146  1  0  0  0
 73 74  1  0  0  0
 73 76  2  0  0  0
 73147  1  0  0  0
 74 75  2  0  0  0
 74 81  1  0  0  0
 75 83  1  0  0  0
 76 84  1  0  0  0
 77 80  1  0  0  0
 77 83  1  0  0  0
 77 85  2  0  0  0
 78 79  1  0  0  0
 78 80  1  0  0  0
 78148  1  0  0  0
 78149  1  0  0  0
 79 83  1  0  0  0
 79150  1  0  0  0
 79151  1  0  0  0
 80 82  1  0  0  0
 80152  1  0  0  0
 81153  1  0  0  0
 81154  1  0  0  0
 81155  1  0  0  0
 82156  1  0  0  0
 82157  1  0  0  0
 84158  1  0  0  0
M  ISO  4   1 100  68 101  82 101  84 100
M  END
> <chiral flag>
0

> <version>
0

> <s_m_source_file>
/data/baiqing/PycharmProjects/Reinvent-master-3.2/result/LINK_invent/BTK/process_docking_weight1_custom_product_contain_oxygen_bond_distance_aromatic_linkinvent_7_9_3/rearranged_h_0098.sdf

> <i_m_source_file_index>
16

> <r_mmod_Potential_Energy-OPLS-2005>
159.015396118164

> <r_mmod_Stretch_Energy-OPLS-2005>
82.5393447875977

> <r_mmod_Bend_Energy-OPLS-2005>
171.828002929688

> <r_mmod_Torsional_Energy-OPLS-2005>
283.124420166016

> <r_mmod_Improper_Torsional_Energy-OPLS-2005>
4.01111459732056

> <r_mmod_Van_der_Waal_Energy-OPLS-2005>
140.410415649414

> <r_mmod_Electrostatic_Energy-OPLS-2005>
-352.791564941406

> <r_mmod_Solvation_Energy-OPLS-2005>
-217.417953491211

> <b_mmod_Minimization_Converged-OPLS-2005>
0

> <r_mmod_RMS_Derivative-OPLS-2005>
1.37205469608307

$$$$
16
                    3D
 Structure written by MMmdl.
161170  0  0  1  0            999 V2000
  -30.7262  -14.6097   20.4953 C   0  0  0  0  0  0
  -30.4180  -12.3855   19.4485 C   0  0  0  0  0  0
  -29.4976  -12.4909   18.2183 C   0  0  0  0  0  0
  -28.0237  -12.3404   18.6344 C   0  0  0  0  0  0
  -27.6483  -13.2288   19.8501 C   0  0  2  0  0  0
  -28.6982  -13.1469   20.9801 C   0  0  0  0  0  0
  -25.2555  -13.8197   20.5692 C   0  0  0  0  0  0
  -24.1830  -13.0455   20.9165 C   0  0  0  0  0  0
  -24.6418  -11.6924   20.8704 C   0  0  0  0  0  0
  -23.9091  -10.4308   21.0376 C   0  0  0  0  0  0
  -24.3631   -9.4227   21.9165 C   0  0  0  0  0  0
  -23.6300   -8.2265   22.0755 C   0  0  0  0  0  0
  -22.4284   -8.0292   21.3546 C   0  0  0  0  0  0
  -21.9911   -9.0266   20.4641 C   0  0  0  0  0  0
  -22.7242  -10.2148   20.3032 C   0  0  0  0  0  0
  -21.6862   -6.0733   22.5269 C   0  0  0  0  0  0
  -21.4017   -6.5639   23.8206 C   0  0  0  0  0  0
  -21.3668   -5.6795   24.9164 C   0  0  0  0  0  0
  -21.6036   -4.3059   24.7212 C   0  0  0  0  0  0
  -21.8828   -3.8144   23.4342 C   0  0  0  0  0  0
  -21.9196   -4.6958   22.3388 C   0  0  0  0  0  0
  -22.7854  -13.5237   21.1842 C   0  0  0  0  0  0
  -22.1667   -4.2152   21.0974 F   0  0  0  0  0  0
  -21.5634   -3.4540   25.7732 F   0  0  0  0  0  0
  -30.0128  -13.4449   20.3933 N   0  0  0  0  0  0
  -26.2990  -12.9398   20.3288 N   0  0  0  0  0  0
  -25.9339  -11.6541   20.5719 N   0  0  0  0  0  0
  -22.0502  -12.8202   22.0367 N   0  0  0  0  0  0
  -25.4277  -15.1934   20.4196 N   0  0  0  0  0  0
  -31.9059  -14.6568   20.1436 O   0  0  0  0  0  0
  -21.6648   -6.8882   21.4242 O   0  0  0  0  0  0
  -22.3529  -14.5529   20.6676 O   0  0  0  0  0  0
  -24.6257  -31.8624   23.2070 C   0  0  0  0  0  0
  -25.9107  -32.4788   23.8388 C   0  0  1  0  0  0
  -27.2114  -27.3177   20.1015 C   0  0  0  0  0  0
  -25.5928  -33.8593   24.2319 N   0  0  0  0  0  0
  -23.4182  -30.4895   21.5513 C   0  0  2  0  0  0
  -24.8629  -28.9553   20.1065 C   0  0  0  0  0  0
  -22.7468  -29.4640   22.4956 C   0  0  0  0  0  0
  -18.0282  -28.1379   22.8478 C   0  0  0  0  0  0
  -24.1498  -36.7280   23.2637 C   0  0  0  0  0  0
  -25.9619  -30.7867   21.3853 C   0  0  0  0  0  0
  -26.0331  -29.4176   20.7216 C   0  0  0  0  0  0
  -27.2086  -28.6068   20.7195 C   0  0  0  0  0  0
  -26.0246  -26.9369   19.4256 C   0  0  0  0  0  0
  -24.8602  -27.7190   19.4523 C   0  0  0  0  0  0
  -23.6328  -29.8379   20.1622 C   0  0  0  0  0  0
  -25.4118  -36.3090   24.0339 C   0  0  1  0  0  0
  -20.5888  -28.3695   23.1274 C   0  0  2  0  0  0
  -20.6779  -26.9414   22.5409 C   0  0  0  0  0  0
  -19.5771  -26.6399   21.5202 C   0  0  0  0  0  0
  -18.1949  -26.7919   22.1613 C   0  0  0  0  0  0
  -19.1531  -28.8855   23.2878 C   0  0  0  0  0  0
  -18.9458  -30.1451   23.8918 C   0  0  0  0  0  0
  -17.6457  -30.6596   24.0559 C   0  0  0  0  0  0
  -25.9064  -34.9458   23.5133 C   0  0  0  0  0  0
  -16.5351  -29.9098   23.6307 C   0  0  0  0  0  0
  -16.7262  -28.6498   23.0348 C   0  0  0  0  0  0
  -26.4497  -31.6563   25.0734 C   0  0  0  0  0  0
  -25.3737  -31.3670   26.1457 C   0  0  0  0  0  0
  -27.0327  -30.2986   24.6159 C   0  0  0  0  0  0
  -27.6096  -32.4269   25.7475 C   0  0  0  0  0  0
  -27.5586  -37.1791   24.8463 C   0  0  0  0  0  0
  -21.4183  -29.3046   22.3670 N   0  0  0  0  0  0
  -26.4297  -37.3773   23.9412 N   0  0  0  0  0  0
  -24.6870  -31.0628   22.1042 N   0  0  0  0  0  0
  -23.4174  -28.8176   23.3051 O   0  0  0  0  0  0
  -28.3069  -26.4342   20.1775 O   0  0  0  0  0  0
  -26.5631  -34.8906   22.4701 O   0  0  0  0  0  0
  -23.5424  -32.1439   23.7386 O   0  0  0  0  0  0
  -29.0471  -18.6947   19.9421 C   0  0  0  0  0  0
  -30.6512  -19.6254   21.4690 C   0  0  0  0  0  0
  -28.5245  -20.0056   19.7376 C   0  0  0  0  0  0
  -30.1178  -20.9347   21.2717 C   0  0  0  0  0  0
  -30.1175  -18.4681   20.8352 C   0  0  0  0  0  0
  -29.0044  -21.1633   20.4240 C   0  0  0  0  0  0
  -27.3703  -23.7710   22.6996 C   0  0  0  0  0  0
  -26.6924  -22.4898   22.2127 C   0  0  0  0  0  0
  -28.7768  -24.0363   22.1608 C   0  0  0  0  0  0
  -26.9014  -22.2477   20.7033 C   0  0  0  0  0  0
  -28.8473  -23.8015   20.6346 C   0  0  2  0  0  0
  -30.7823  -17.0723   21.0922 C   0  0  0  0  0  0
  -28.0546  -24.9943   19.9052 C   0  0  0  0  0  0
  -28.3089  -22.4239   20.3032 N   0  0  0  0  0  0
  -30.0815  -15.7675   20.8349 N   0  0  0  0  0  0
  -26.8161  -24.5404   23.4876 O   0  0  0  0  0  0
  -31.4596  -12.4713   19.1406 H   0  0  0  0  0  0
  -30.3287  -11.4047   19.9215 H   0  0  0  0  0  0
  -29.7576  -11.7212   17.4924 H   0  0  0  0  0  0
  -29.6470  -13.4500   17.7166 H   0  0  0  0  0  0
  -27.8547  -11.2901   18.8747 H   0  0  0  0  0  0
  -27.3715  -12.5665   17.7889 H   0  0  0  0  0  0
  -27.6522  -14.2552   19.4843 H   0  0  0  0  0  0
  -28.7032  -12.1564   21.4350 H   0  0  0  0  0  0
  -28.4524  -13.8466   21.7796 H   0  0  0  0  0  0
  -25.2786   -9.5708   22.4725 H   0  0  0  0  0  0
  -24.0003   -7.4664   22.7476 H   0  0  0  0  0  0
  -21.0841   -8.8792   19.8948 H   0  0  0  0  0  0
  -22.3705  -10.9683   19.6132 H   0  0  0  0  0  0
  -21.2011   -7.6153   23.9709 H   0  0  0  0  0  0
  -21.1478   -6.0527   25.9075 H   0  0  0  0  0  0
  -22.0595   -2.7606   23.2835 H   0  0  0  0  0  0
  -22.4132  -11.9876   22.4766 H   0  0  0  0  0  0
  -21.1121  -13.1224   22.2568 H   0  0  0  0  0  0
  -24.6686  -15.8513   20.5565 H   0  0  0  0  0  0
  -26.2879  -15.6394   20.1299 H   0  0  0  0  0  0
  -26.7155  -32.5466   23.1116 H   0  0  0  0  0  0
  -25.0014  -33.9738   25.0419 H   0  0  0  0  0  0
  -22.7124  -31.3122   21.4163 H   0  0  0  0  0  0
  -23.3762  -35.9609   23.3309 H   0  0  0  0  0  0
  -24.3591  -36.8883   22.2050 H   0  0  0  0  0  0
  -23.7249  -37.6485   23.6643 H   0  0  0  0  0  0
  -26.1003  -31.5540   20.6227 H   0  0  0  0  0  0
  -26.8400  -30.8293   22.0181 H   0  0  0  0  0  0
  -28.0974  -28.9488   21.2313 H   0  0  0  0  0  0
  -25.9571  -26.0159   18.8682 H   0  0  0  0  0  0
  -23.9688  -27.3690   18.9490 H   0  0  0  0  0  0
  -23.7557  -30.6245   19.4165 H   0  0  0  0  0  0
  -22.7487  -29.2759   19.8537 H   0  0  0  0  0  0
  -25.1295  -36.1938   25.0827 H   0  0  0  0  0  0
  -20.9968  -28.3276   24.1402 H   0  0  0  0  0  0
  -20.5683  -26.2303   23.3613 H   0  0  0  0  0  0
  -21.6654  -26.7471   22.1212 H   0  0  0  0  0  0
  -19.6948  -25.6325   21.1221 H   0  0  0  0  0  0
  -19.6701  -27.3224   20.6750 H   0  0  0  0  0  0
  -17.4206  -26.6638   21.4034 H   0  0  0  0  0  0
  -18.0373  -26.0079   22.9034 H   0  0  0  0  0  0
  -19.7942  -30.7244   24.2318 H   0  0  0  0  0  0
  -17.5022  -31.6278   24.5161 H   0  0  0  0  0  0
  -15.5355  -30.3005   23.7643 H   0  0  0  0  0  0
  -15.8653  -28.0825   22.7065 H   0  0  0  0  0  0
  -24.5920  -30.7024   25.7744 H   0  0  0  0  0  0
  -24.8923  -32.2828   26.4904 H   0  0  0  0  0  0
  -25.8063  -30.8805   27.0210 H   0  0  0  0  0  0
  -26.2903  -29.6755   24.1156 H   0  0  0  0  0  0
  -27.3996  -29.7202   25.4646 H   0  0  0  0  0  0
  -27.8786  -30.4261   23.9402 H   0  0  0  0  0  0
  -27.2734  -33.3533   26.2125 H   0  0  0  0  0  0
  -28.3840  -32.6870   25.0252 H   0  0  0  0  0  0
  -28.0832  -31.8347   26.5306 H   0  0  0  0  0  0
  -28.2596  -38.0096   24.7522 H   0  0  0  0  0  0
  -28.1093  -36.2629   24.6278 H   0  0  0  0  0  0
  -27.2305  -37.1422   25.8865 H   0  0  0  0  0  0
  -20.9362  -29.8719   21.6837 H   0  0  0  0  0  0
  -26.0181  -38.2844   24.1419 H   0  0  0  0  0  0
  -28.6140  -17.8650   19.3993 H   0  0  0  0  0  0
  -31.4968  -19.5170   22.1376 H   0  0  0  0  0  0
  -27.7066  -20.1099   19.0385 H   0  0  0  0  0  0
  -30.5692  -21.7522   21.8144 H   0  0  0  0  0  0
  -25.6266  -22.5277   22.4405 H   0  0  0  0  0  0
  -27.1090  -21.6573   22.7769 H   0  0  0  0  0  0
  -29.4697  -23.3877   22.6900 H   0  0  0  0  0  0
  -29.0701  -25.0584   22.4004 H   0  0  0  0  0  0
  -26.2528  -22.8989   20.1187 H   0  0  0  0  0  0
  -26.5170  -21.2537   20.4766 H   0  0  0  0  0  0
  -29.8908  -23.8491   20.3204 H   0  0  0  0  0  0
  -31.0899  -17.0433   22.1406 H   0  0  0  0  0  0
  -31.7190  -17.0968   20.5306 H   0  0  0  0  0  0
  -27.0211  -24.8142   20.1782 H   0  0  0  0  0  0
  -28.1143  -24.8470   18.8248 H   0  0  0  0  0  0
  -29.0933  -15.7207   21.0285 H   0  0  0  0  0  0
  1 25  1  0  0  0
  1 30  2  0  0  0
  1 85  1  0  0  0
  2  3  1  0  0  0
  2 25  1  0  0  0
  2 87  1  0  0  0
  2 88  1  0  0  0
  3  4  1  0  0  0
  3 89  1  0  0  0
  3 90  1  0  0  0
  4  5  1  0  0  0
  4 91  1  0  0  0
  4 92  1  0  0  0
  5  6  1  0  0  0
  5 26  1  0  0  0
  5 93  1  0  0  0
  6 25  1  0  0  0
  6 94  1  0  0  0
  6 95  1  0  0  0
  7  8  2  0  0  0
  7 26  1  0  0  0
  7 29  1  0  0  0
  8  9  1  0  0  0
  8 22  1  0  0  0
  9 10  1  0  0  0
  9 27  2  0  0  0
 10 11  2  0  0  0
 10 15  1  0  0  0
 11 12  1  0  0  0
 11 96  1  0  0  0
 12 13  2  0  0  0
 12 97  1  0  0  0
 13 14  1  0  0  0
 13 31  1  0  0  0
 14 15  2  0  0  0
 14 98  1  0  0  0
 15 99  1  0  0  0
 16 17  2  0  0  0
 16 21  1  0  0  0
 16 31  1  0  0  0
 17 18  1  0  0  0
 17100  1  0  0  0
 18 19  2  0  0  0
 18101  1  0  0  0
 19 20  1  0  0  0
 19 24  1  0  0  0
 20 21  2  0  0  0
 20102  1  0  0  0
 21 23  1  0  0  0
 22 28  1  0  0  0
 22 32  2  0  0  0
 26 27  1  0  0  0
 28103  1  0  0  0
 28104  1  0  0  0
 29105  1  0  0  0
 29106  1  0  0  0
 33 34  1  0  0  0
 33 66  1  0  0  0
 33 70  2  0  0  0
 34 36  1  0  0  0
 34 59  1  0  0  0
 34107  1  0  0  0
 35 44  2  0  0  0
 35 45  1  0  0  0
 35 68  1  0  0  0
 36 56  1  0  0  0
 36108  1  0  0  0
 37 39  1  0  0  0
 37 47  1  0  0  0
 37 66  1  0  0  0
 37109  1  0  0  0
 38 43  2  0  0  0
 38 46  1  0  0  0
 38 47  1  0  0  0
 39 64  1  0  0  0
 39 67  2  0  0  0
 40 52  1  0  0  0
 40 53  2  0  0  0
 40 58  1  0  0  0
 41110  1  0  0  0
 41111  1  0  0  0
 41112  1  0  0  0
 41 48  1  0  0  0
 42 43  1  0  0  0
 42 66  1  0  0  0
 42113  1  0  0  0
 42114  1  0  0  0
 43 44  1  0  0  0
 44115  1  0  0  0
 45 46  2  0  0  0
 45116  1  0  0  0
 46117  1  0  0  0
 47118  1  0  0  0
 47119  1  0  0  0
 48 56  1  0  0  0
 48 65  1  0  0  0
 48120  1  0  0  0
 49 50  1  0  0  0
 49 53  1  0  0  0
 49 64  1  0  0  0
 49121  1  0  0  0
 50 51  1  0  0  0
 50122  1  0  0  0
 50123  1  0  0  0
 51 52  1  0  0  0
 51124  1  0  0  0
 51125  1  0  0  0
 52126  1  0  0  0
 52127  1  0  0  0
 53 54  1  0  0  0
 54 55  2  0  0  0
 54128  1  0  0  0
 55 57  1  0  0  0
 55129  1  0  0  0
 56 69  2  0  0  0
 57 58  2  0  0  0
 57130  1  0  0  0
 58131  1  0  0  0
 59 60  1  0  0  0
 59 61  1  0  0  0
 59 62  1  0  0  0
 60132  1  0  0  0
 60133  1  0  0  0
 60134  1  0  0  0
 61135  1  0  0  0
 61136  1  0  0  0
 61137  1  0  0  0
 62138  1  0  0  0
 62139  1  0  0  0
 62140  1  0  0  0
 63 65  1  0  0  0
 63141  1  0  0  0
 63142  1  0  0  0
 63143  1  0  0  0
 64144  1  0  0  0
 65145  1  0  0  0
 68 83  1  0  0  0
 71 73  2  0  0  0
 71 75  1  0  0  0
 71146  1  0  0  0
 72 74  1  0  0  0
 72 75  2  0  0  0
 72147  1  0  0  0
 73 76  1  0  0  0
 73148  1  0  0  0
 74 76  2  0  0  0
 74149  1  0  0  0
 75 82  1  0  0  0
 76 84  1  0  0  0
 77 78  1  0  0  0
 77 79  1  0  0  0
 77 86  2  0  0  0
 78 80  1  0  0  0
 78150  1  0  0  0
 78151  1  0  0  0
 79 81  1  0  0  0
 79152  1  0  0  0
 79153  1  0  0  0
 80 84  1  0  0  0
 80154  1  0  0  0
 80155  1  0  0  0
 81 83  1  0  0  0
 81 84  1  0  0  0
 81156  1  0  0  0
 82 85  1  0  0  0
 82157  1  0  0  0
 82158  1  0  0  0
 83159  1  0  0  0
 83160  1  0  0  0
 85161  1  0  0  0
M  ISO  4   1 100  68 101  83 101  85 100
M  END
> <chiral flag>
0

> <version>
0

> <s_m_source_file>
/data/baiqing/PycharmProjects/Reinvent-master-3.2/result/LINK_invent/BTK/process_docking_weight1_custom_product_contain_oxygen_bond_distance_aromatic_linkinvent_7_9_3/rearranged_h_0098.sdf

> <i_m_source_file_index>
17

> <r_mmod_Potential_Energy-OPLS-2005>
-28.2348861694336

> <r_mmod_Stretch_Energy-OPLS-2005>
84.4166717529297

> <r_mmod_Bend_Energy-OPLS-2005>
157.562957763672

> <r_mmod_Torsional_Energy-OPLS-2005>
187.375106811523

> <r_mmod_Improper_Torsional_Energy-OPLS-2005>
6.81537437438965

> <r_mmod_Van_der_Waal_Energy-OPLS-2005>
171.08430480957

> <r_mmod_Electrostatic_Energy-OPLS-2005>
-449.729187011719

> <r_mmod_Solvation_Energy-OPLS-2005>
-239.561599731445

> <b_mmod_Minimization_Converged-OPLS-2005>
0

> <r_mmod_RMS_Derivative-OPLS-2005>
3.53187847137451

$$$$
17
                    3D
 Structure written by MMmdl.
154162  0  0  1  0            999 V2000
  -30.7176  -14.4514   20.6220 C   0  0  0  0  0  0
  -30.4260  -12.3202   19.4028 C   0  0  0  0  0  0
  -29.4873  -12.5112   18.1953 C   0  0  0  0  0  0
  -28.0105  -12.3739   18.6150 C   0  0  0  0  0  0
  -27.6619  -13.2063   19.8772 C   0  0  2  0  0  0
  -28.7055  -12.9735   20.9921 C   0  0  0  0  0  0
  -25.2607  -13.8162   20.5692 C   0  0  0  0  0  0
  -24.1854  -13.0441   20.9172 C   0  0  0  0  0  0
  -24.6410  -11.6906   20.8751 C   0  0  0  0  0  0
  -23.9063  -10.4295   21.0410 C   0  0  0  0  0  0
  -24.3613   -9.4219   21.9198 C   0  0  0  0  0  0
  -23.6287   -8.2257   22.0769 C   0  0  0  0  0  0
  -22.4270   -8.0290   21.3551 C   0  0  0  0  0  0
  -21.9908   -9.0272   20.4654 C   0  0  0  0  0  0
  -22.7234  -10.2150   20.3065 C   0  0  0  0  0  0
  -21.6849   -6.0742   22.5285 C   0  0  0  0  0  0
  -21.4006   -6.5646   23.8218 C   0  0  0  0  0  0
  -21.3650   -5.6801   24.9177 C   0  0  0  0  0  0
  -21.6042   -4.3064   24.7232 C   0  0  0  0  0  0
  -21.8823   -3.8149   23.4353 C   0  0  0  0  0  0
  -21.9190   -4.6967   22.3404 C   0  0  0  0  0  0
  -22.7873  -13.5243   21.1830 C   0  0  0  0  0  0
  -22.1659   -4.2152   21.0984 F   0  0  0  0  0  0
  -21.5634   -3.4545   25.7742 F   0  0  0  0  0  0
  -30.0334  -13.2908   20.4367 N   0  0  0  0  0  0
  -26.3036  -12.9331   20.3381 N   0  0  0  0  0  0
  -25.9329  -11.6486   20.5767 N   0  0  0  0  0  0
  -22.0514  -12.8253   22.0397 N   0  0  0  0  0  0
  -25.4346  -15.1882   20.4101 N   0  0  0  0  0  0
  -31.8171  -14.6719   20.1076 O   0  0  0  0  0  0
  -21.6638   -6.8879   21.4241 O   0  0  0  0  0  0
  -22.3547  -14.5536   20.6660 O   0  0  0  0  0  0
  -24.6112  -31.8696   23.2119 C   0  0  0  0  0  0
  -25.9017  -32.4833   23.8413 C   0  0  1  0  0  0
  -27.2312  -27.4403   20.0974 C   0  0  0  0  0  0
  -25.5868  -33.8628   24.2329 N   0  0  0  0  0  0
  -23.4016  -30.4911   21.5520 C   0  0  2  0  0  0
  -24.8490  -28.9570   20.1159 C   0  0  0  0  0  0
  -22.7413  -29.4639   22.4991 C   0  0  0  0  0  0
  -18.0269  -28.1365   22.8487 C   0  0  0  0  0  0
  -24.1458  -36.7309   23.2655 C   0  0  0  0  0  0
  -25.9294  -30.8352   21.3660 C   0  0  0  0  0  0
  -26.0080  -29.4708   20.7125 C   0  0  0  0  0  0
  -27.2061  -28.7195   20.6984 C   0  0  0  0  0  0
  -26.0592  -26.9410   19.4920 C   0  0  0  0  0  0
  -24.8683  -27.6915   19.5031 C   0  0  0  0  0  0
  -23.6113  -29.8250   20.1656 C   0  0  0  0  0  0
  -25.4099  -36.3118   24.0335 C   0  0  1  0  0  0
  -20.5852  -28.3658   23.1324 C   0  0  2  0  0  0
  -20.6743  -26.9401   22.5433 C   0  0  0  0  0  0
  -19.5729  -26.6381   21.5210 C   0  0  0  0  0  0
  -18.1895  -26.7915   22.1613 C   0  0  0  0  0  0
  -19.1516  -28.8822   23.2898 C   0  0  0  0  0  0
  -18.9458  -30.1423   23.8930 C   0  0  0  0  0  0
  -17.6466  -30.6587   24.0564 C   0  0  0  0  0  0
  -25.9037  -34.9479   23.5140 C   0  0  0  0  0  0
  -16.5358  -29.9095   23.6317 C   0  0  0  0  0  0
  -16.7265  -28.6498   23.0363 C   0  0  0  0  0  0
  -26.4456  -31.6629   25.0744 C   0  0  0  0  0  0
  -25.3717  -31.3673   26.1466 C   0  0  0  0  0  0
  -27.0350  -30.3095   24.6118 C   0  0  0  0  0  0
  -27.5988  -32.4391   25.7534 C   0  0  0  0  0  0
  -27.5571  -37.1815   24.8478 C   0  0  0  0  0  0
  -21.4136  -29.3027   22.3741 N   0  0  0  0  0  0
  -26.4288  -37.3808   23.9410 N   0  0  0  0  0  0
  -24.6656  -31.0786   22.1019 N   0  0  0  0  0  0
  -23.4183  -28.8174   23.3035 O   0  0  0  0  0  0
  -28.3825  -26.6884   20.0971 O   0  0  0  0  0  0
  -26.5634  -34.8929   22.4727 O   0  0  0  0  0  0
  -23.5301  -32.1449   23.7500 O   0  0  0  0  0  0
  -30.7216  -18.3854   20.0548 C   0  0  0  0  0  0
  -30.3699  -19.6533   19.5415 C   0  0  0  0  0  0
  -28.8860  -20.0105   21.4321 C   0  0  0  0  0  0
  -30.1767  -17.9250   21.2733 C   0  0  0  0  0  0
  -29.4647  -20.4895   20.2322 C   0  0  0  0  0  0
  -29.2404  -18.7438   21.9496 C   0  0  0  0  0  0
  -28.7322  -24.2383   19.9189 C   0  0  0  0  0  0
  -30.6769  -16.6176   21.8973 C   0  0  0  0  0  0
  -28.6377  -22.8335   20.5526 C   0  0  0  0  0  0
  -28.2574  -25.4266   20.7793 C   0  0  0  0  0  0
  -29.1808  -21.7638   19.7037 N   0  0  0  0  0  0
  -30.0948  -15.3756   21.3728 N   0  0  0  0  0  0
  -29.1794  -24.3907   18.7752 O   0  0  0  0  0  0
  -28.6925  -18.3283   23.1184 F   0  0  0  0  0  0
  -31.4651  -12.4391   19.0896 H   0  0  0  0  0  0
  -30.3509  -11.3046   19.7950 H   0  0  0  0  0  0
  -29.7238  -11.7809   17.4211 H   0  0  0  0  0  0
  -29.6521  -13.4929   17.7490 H   0  0  0  0  0  0
  -27.8179  -11.3177   18.8044 H   0  0  0  0  0  0
  -27.3572  -12.6569   17.7886 H   0  0  0  0  0  0
  -27.7101  -14.2569   19.5899 H   0  0  0  0  0  0
  -28.6892  -11.9335   21.3218 H   0  0  0  0  0  0
  -28.4573  -13.5584   21.8791 H   0  0  0  0  0  0
  -25.2752   -9.5711   22.4786 H   0  0  0  0  0  0
  -24.0005   -7.4660   22.7496 H   0  0  0  0  0  0
  -21.0841   -8.8791   19.8956 H   0  0  0  0  0  0
  -22.3690  -10.9700   19.6188 H   0  0  0  0  0  0
  -21.2007   -7.6162   23.9716 H   0  0  0  0  0  0
  -21.1457   -6.0530   25.9080 H   0  0  0  0  0  0
  -22.0608   -2.7618   23.2852 H   0  0  0  0  0  0
  -22.4102  -11.9902   22.4786 H   0  0  0  0  0  0
  -21.1149  -13.1321   22.2628 H   0  0  0  0  0  0
  -24.6741  -15.8494   20.5247 H   0  0  0  0  0  0
  -26.2995  -15.6264   20.1178 H   0  0  0  0  0  0
  -26.7081  -32.5558   23.1177 H   0  0  0  0  0  0
  -24.9945  -33.9797   25.0421 H   0  0  0  0  0  0
  -22.6874  -31.3049   21.4139 H   0  0  0  0  0  0
  -23.3720  -35.9642   23.3326 H   0  0  0  0  0  0
  -24.3524  -36.8941   22.2072 H   0  0  0  0  0  0
  -23.7198  -37.6498   23.6697 H   0  0  0  0  0  0
  -26.0405  -31.6019   20.5973 H   0  0  0  0  0  0
  -26.8169  -30.8906   21.9846 H   0  0  0  0  0  0
  -28.1010  -29.1074   21.1632 H   0  0  0  0  0  0
  -26.0672  -25.9740   19.0076 H   0  0  0  0  0  0
  -23.9762  -27.2931   19.0384 H   0  0  0  0  0  0
  -23.7285  -30.6021   19.4096 H   0  0  0  0  0  0
  -22.7331  -29.2508   19.8667 H   0  0  0  0  0  0
  -25.1265  -36.2001   25.0826 H   0  0  0  0  0  0
  -20.9940  -28.3247   24.1445 H   0  0  0  0  0  0
  -20.5631  -26.2279   23.3616 H   0  0  0  0  0  0
  -21.6626  -26.7429   22.1262 H   0  0  0  0  0  0
  -19.6891  -25.6289   21.1258 H   0  0  0  0  0  0
  -19.6659  -27.3173   20.6719 H   0  0  0  0  0  0
  -17.4180  -26.6660   21.3995 H   0  0  0  0  0  0
  -18.0268  -26.0049   22.8991 H   0  0  0  0  0  0
  -19.7942  -30.7199   24.2339 H   0  0  0  0  0  0
  -17.5041  -31.6268   24.5165 H   0  0  0  0  0  0
  -15.5360  -30.3029   23.7604 H   0  0  0  0  0  0
  -15.8639  -28.0831   22.7091 H   0  0  0  0  0  0
  -24.5948  -30.6967   25.7786 H   0  0  0  0  0  0
  -24.8828  -32.2796   26.4898 H   0  0  0  0  0  0
  -25.8079  -30.8886   27.0242 H   0  0  0  0  0  0
  -26.2930  -29.6806   24.1194 H   0  0  0  0  0  0
  -27.4173  -29.7370   25.4578 H   0  0  0  0  0  0
  -27.8708  -30.4460   23.9250 H   0  0  0  0  0  0
  -27.2574  -33.3688   26.2108 H   0  0  0  0  0  0
  -28.3800  -32.6984   25.0379 H   0  0  0  0  0  0
  -28.0648  -31.8541   26.5474 H   0  0  0  0  0  0
  -28.2616  -38.0095   24.7555 H   0  0  0  0  0  0
  -28.1046  -36.2630   24.6306 H   0  0  0  0  0  0
  -27.2273  -37.1478   25.8878 H   0  0  0  0  0  0
  -20.9295  -29.8805   21.7007 H   0  0  0  0  0  0
  -26.0170  -38.2879   24.1443 H   0  0  0  0  0  0
  -31.4467  -17.7825   19.5251 H   0  0  0  0  0  0
  -30.8261  -19.9863   18.6194 H   0  0  0  0  0  0
  -28.1762  -20.6095   21.9841 H   0  0  0  0  0  0
  -30.4810  -16.6413   22.9703 H   0  0  0  0  0  0
  -31.7652  -16.5959   21.8144 H   0  0  0  0  0  0
  -27.5882  -22.6270   20.7680 H   0  0  0  0  0  0
  -29.1621  -22.8571   21.5099 H   0  0  0  0  0  0
  -28.8702  -25.4608   21.6798 H   0  0  0  0  0  0
  -27.2347  -25.2325   21.1065 H   0  0  0  0  0  0
  -29.6977  -22.0881   18.8880 H   0  0  0  0  0  0
  -29.1777  -15.1284   21.7126 H   0  0  0  0  0  0
  1 25  1  0  0  0
  1 30  2  0  0  0
  1 82  1  0  0  0
  2  3  1  0  0  0
  2 25  1  0  0  0
  2 85  1  0  0  0
  2 86  1  0  0  0
  3  4  1  0  0  0
  3 87  1  0  0  0
  3 88  1  0  0  0
  4  5  1  0  0  0
  4 89  1  0  0  0
  4 90  1  0  0  0
  5  6  1  0  0  0
  5 26  1  0  0  0
  5 91  1  0  0  0
  6 25  1  0  0  0
  6 92  1  0  0  0
  6 93  1  0  0  0
  7  8  2  0  0  0
  7 26  1  0  0  0
  7 29  1  0  0  0
  8  9  1  0  0  0
  8 22  1  0  0  0
  9 10  1  0  0  0
  9 27  2  0  0  0
 10 11  2  0  0  0
 10 15  1  0  0  0
 11 12  1  0  0  0
 11 94  1  0  0  0
 12 13  2  0  0  0
 12 95  1  0  0  0
 13 14  1  0  0  0
 13 31  1  0  0  0
 14 15  2  0  0  0
 14 96  1  0  0  0
 15 97  1  0  0  0
 16 17  2  0  0  0
 16 21  1  0  0  0
 16 31  1  0  0  0
 17 18  1  0  0  0
 17 98  1  0  0  0
 18 19  2  0  0  0
 18 99  1  0  0  0
 19 20  1  0  0  0
 19 24  1  0  0  0
 20 21  2  0  0  0
 20100  1  0  0  0
 21 23  1  0  0  0
 22 28  1  0  0  0
 22 32  2  0  0  0
 26 27  1  0  0  0
 28101  1  0  0  0
 28102  1  0  0  0
 29103  1  0  0  0
 29104  1  0  0  0
 33 34  1  0  0  0
 33 66  1  0  0  0
 33 70  2  0  0  0
 34 36  1  0  0  0
 34 59  1  0  0  0
 34105  1  0  0  0
 35 44  2  0  0  0
 35 45  1  0  0  0
 35 68  1  0  0  0
 36 56  1  0  0  0
 36106  1  0  0  0
 37 39  1  0  0  0
 37 47  1  0  0  0
 37 66  1  0  0  0
 37107  1  0  0  0
 38 43  2  0  0  0
 38 46  1  0  0  0
 38 47  1  0  0  0
 39 64  1  0  0  0
 39 67  2  0  0  0
 40 52  1  0  0  0
 40 53  2  0  0  0
 40 58  1  0  0  0
 41108  1  0  0  0
 41109  1  0  0  0
 41110  1  0  0  0
 41 48  1  0  0  0
 42 43  1  0  0  0
 42 66  1  0  0  0
 42111  1  0  0  0
 42112  1  0  0  0
 43 44  1  0  0  0
 44113  1  0  0  0
 45 46  2  0  0  0
 45114  1  0  0  0
 46115  1  0  0  0
 47116  1  0  0  0
 47117  1  0  0  0
 48 56  1  0  0  0
 48 65  1  0  0  0
 48118  1  0  0  0
 49 50  1  0  0  0
 49 53  1  0  0  0
 49 64  1  0  0  0
 49119  1  0  0  0
 50 51  1  0  0  0
 50120  1  0  0  0
 50121  1  0  0  0
 51 52  1  0  0  0
 51122  1  0  0  0
 51123  1  0  0  0
 52124  1  0  0  0
 52125  1  0  0  0
 53 54  1  0  0  0
 54 55  2  0  0  0
 54126  1  0  0  0
 55 57  1  0  0  0
 55127  1  0  0  0
 56 69  2  0  0  0
 57 58  2  0  0  0
 57128  1  0  0  0
 58129  1  0  0  0
 59 60  1  0  0  0
 59 61  1  0  0  0
 59 62  1  0  0  0
 60130  1  0  0  0
 60131  1  0  0  0
 60132  1  0  0  0
 61133  1  0  0  0
 61134  1  0  0  0
 61135  1  0  0  0
 62136  1  0  0  0
 62137  1  0  0  0
 62138  1  0  0  0
 63 65  1  0  0  0
 63139  1  0  0  0
 63140  1  0  0  0
 63141  1  0  0  0
 64142  1  0  0  0
 65143  1  0  0  0
 68 80  1  0  0  0
 71 72  2  0  0  0
 71 74  1  0  0  0
 71144  1  0  0  0
 72 75  1  0  0  0
 72145  1  0  0  0
 73 75  2  0  0  0
 73 76  1  0  0  0
 73146  1  0  0  0
 74 76  2  0  0  0
 74 78  1  0  0  0
 75 81  1  0  0  0
 76 84  1  0  0  0
 77 79  1  0  0  0
 77 80  1  0  0  0
 77 83  2  0  0  0
 78 82  1  0  0  0
 78147  1  0  0  0
 78148  1  0  0  0
 79 81  1  0  0  0
 79149  1  0  0  0
 79150  1  0  0  0
 80151  1  0  0  0
 80152  1  0  0  0
 81153  1  0  0  0
 82154  1  0  0  0
M  ISO  4   1 100  68 101  80 101  82 100
M  END
> <chiral flag>
0

> <version>
0

> <s_m_source_file>
/data/baiqing/PycharmProjects/Reinvent-master-3.2/result/LINK_invent/BTK/process_docking_weight1_custom_product_contain_oxygen_bond_distance_aromatic_linkinvent_7_9_3/rearranged_h_0098.sdf

> <i_m_source_file_index>
18

> <r_mmod_Potential_Energy-OPLS-2005>
-66.2934951782227

> <r_mmod_Stretch_Energy-OPLS-2005>
36.6823043823242

> <r_mmod_Bend_Energy-OPLS-2005>
96.3340682983398

> <r_mmod_Torsional_Energy-OPLS-2005>
210.37109375

> <r_mmod_Improper_Torsional_Energy-OPLS-2005>
3.87730360031128

> <r_mmod_Van_der_Waal_Energy-OPLS-2005>
150.372406005859

> <r_mmod_Electrostatic_Energy-OPLS-2005>
-343.213287353516

> <r_mmod_Solvation_Energy-OPLS-2005>
-231.441833496094

> <b_mmod_Minimization_Converged-OPLS-2005>
0

> <r_mmod_RMS_Derivative-OPLS-2005>
2.38762903213501

$$$$
18
                    3D
 Structure written by MMmdl.
170179  0  0  1  0            999 V2000
  -30.6444  -14.7133   20.3265 C   0  0  0  0  0  0
  -30.4242  -12.4162   19.4322 C   0  0  0  0  0  0
  -29.4832  -12.4333   18.2087 C   0  0  0  0  0  0
  -28.0135  -12.2973   18.6491 C   0  0  0  0  0  0
  -27.6363  -13.2159   19.8442 C   0  0  2  0  0  0
  -28.7032  -13.1975   20.9550 C   0  0  0  0  0  0
  -25.2538  -13.8167   20.5774 C   0  0  0  0  0  0
  -24.1798  -13.0431   20.9232 C   0  0  0  0  0  0
  -24.6371  -11.6904   20.8791 C   0  0  0  0  0  0
  -23.9046  -10.4287   21.0428 C   0  0  0  0  0  0
  -24.3604   -9.4199   21.9196 C   0  0  0  0  0  0
  -23.6287   -8.2231   22.0752 C   0  0  0  0  0  0
  -22.4270   -8.0274   21.3540 C   0  0  0  0  0  0
  -21.9905   -9.0249   20.4643 C   0  0  0  0  0  0
  -22.7227  -10.2132   20.3064 C   0  0  0  0  0  0
  -21.6850   -6.0732   22.5279 C   0  0  0  0  0  0
  -21.4012   -6.5637   23.8212 C   0  0  0  0  0  0
  -21.3659   -5.6790   24.9175 C   0  0  0  0  0  0
  -21.6044   -4.3052   24.7226 C   0  0  0  0  0  0
  -21.8818   -3.8145   23.4346 C   0  0  0  0  0  0
  -21.9191   -4.6961   22.3403 C   0  0  0  0  0  0
  -22.7820  -13.5229   21.1865 C   0  0  0  0  0  0
  -22.1660   -4.2147   21.0981 F   0  0  0  0  0  0
  -21.5632   -3.4536   25.7739 F   0  0  0  0  0  0
  -29.9838  -13.5115   20.3130 N   0  0  0  0  0  0
  -26.2946  -12.9337   20.3394 N   0  0  0  0  0  0
  -25.9307  -11.6500   20.5858 N   0  0  0  0  0  0
  -22.0451  -12.8227   22.0412 N   0  0  0  0  0  0
  -25.4272  -15.1887   20.4235 N   0  0  0  0  0  0
  -31.8742  -14.7175   20.4217 O   0  0  0  0  0  0
  -21.6633   -6.8873   21.4239 O   0  0  0  0  0  0
  -22.3516  -14.5536   20.6706 O   0  0  0  0  0  0
  -24.6256  -31.8587   23.2005 C   0  0  0  0  0  0
  -25.9104  -32.4772   23.8338 C   0  0  1  0  0  0
  -27.2216  -27.3078   20.1409 C   0  0  0  0  0  0
  -25.5920  -33.8573   24.2268 N   0  0  0  0  0  0
  -23.4195  -30.4794   21.5432 C   0  0  2  0  0  0
  -24.8663  -28.9222   20.1203 C   0  0  0  0  0  0
  -22.7463  -29.4618   22.4944 C   0  0  0  0  0  0
  -18.0283  -28.1384   22.8487 C   0  0  0  0  0  0
  -24.1486  -36.7293   23.2640 C   0  0  0  0  0  0
  -25.9585  -30.7861   21.3720 C   0  0  0  0  0  0
  -26.0326  -29.4072   20.7267 C   0  0  0  0  0  0
  -27.2158  -28.6120   20.7241 C   0  0  0  0  0  0
  -26.0410  -26.8721   19.5092 C   0  0  0  0  0  0
  -24.8714  -27.6595   19.5031 C   0  0  0  0  0  0
  -23.6358  -29.8063   20.1611 C   0  0  0  0  0  0
  -25.4111  -36.3081   24.0329 C   0  0  1  0  0  0
  -20.5879  -28.3688   23.1286 C   0  0  2  0  0  0
  -20.6774  -26.9413   22.5413 C   0  0  0  0  0  0
  -19.5752  -26.6385   21.5212 C   0  0  0  0  0  0
  -18.1930  -26.7928   22.1622 C   0  0  0  0  0  0
  -19.1534  -28.8853   23.2883 C   0  0  0  0  0  0
  -18.9458  -30.1456   23.8899 C   0  0  0  0  0  0
  -17.6459  -30.6589   24.0564 C   0  0  0  0  0  0
  -25.9045  -34.9449   23.5098 C   0  0  0  0  0  0
  -16.5351  -29.9087   23.6330 C   0  0  0  0  0  0
  -16.7271  -28.6504   23.0351 C   0  0  0  0  0  0
  -26.4493  -31.6584   25.0710 C   0  0  0  0  0  0
  -25.3733  -31.3721   26.1440 C   0  0  0  0  0  0
  -27.0335  -30.3009   24.6161 C   0  0  0  0  0  0
  -27.6052  -32.4319   25.7486 C   0  0  0  0  0  0
  -27.5577  -37.1803   24.8466 C   0  0  0  0  0  0
  -21.4178  -29.3041   22.3678 N   0  0  0  0  0  0
  -26.4290  -37.3777   23.9406 N   0  0  0  0  0  0
  -24.6865  -31.0592   22.0956 N   0  0  0  0  0  0
  -23.4182  -28.8182   23.3045 O   0  0  0  0  0  0
  -28.3651  -26.5090   20.0617 O   0  0  0  0  0  0
  -26.5618  -34.8923   22.4667 O   0  0  0  0  0  0
  -23.5422  -32.1388   23.7338 O   0  0  0  0  0  0
  -29.5677  -19.2810   20.9399 C   0  0  0  0  0  0
  -30.0202  -17.9190   20.8178 C   0  0  0  0  0  0
  -27.9600  -18.8774   19.2284 C   0  0  0  0  0  0
  -28.3937  -17.5295   19.0907 C   0  0  0  0  0  0
  -28.5136  -19.8149   20.1432 C   0  0  0  0  0  0
  -29.4648  -16.9967   19.8775 C   0  0  0  0  0  0
  -26.4550  -23.6288   20.9348 C   0  0  0  0  0  0
  -25.7830  -22.2697   20.7712 C   0  0  0  0  0  0
  -26.5550  -21.3093   19.8563 C   0  0  0  0  0  0
  -28.6865  -22.4479   20.5422 C   0  0  0  0  0  0
  -27.8493  -23.8167   20.3071 C   0  0  2  0  0  0
  -27.6696  -16.7258   18.0185 C   0  0  0  0  0  0
  -32.4664  -16.8975   16.6592 C   0  0  0  0  0  0
  -28.5025  -25.2121   20.7739 C   0  0  0  0  0  0
  -31.7529  -16.9341   18.0157 C   0  0  0  0  0  0
  -30.7564  -15.7641   18.1795 C   0  0  0  0  0  0
  -27.9652  -21.1581   20.2399 N   0  0  0  0  0  0
  -30.0940  -15.7043   19.5163 N   0  0  0  0  0  0
  -25.8814  -24.5180   21.5701 O   0  0  0  0  0  0
  -31.4612  -12.5384   19.1135 H   0  0  0  0  0  0
  -30.3732  -11.4595   19.9538 H   0  0  0  0  0  0
  -29.7427  -11.6224   17.5267 H   0  0  0  0  0  0
  -29.6013  -13.3514   17.6364 H   0  0  0  0  0  0
  -27.8608  -11.2544   18.9285 H   0  0  0  0  0  0
  -27.3473  -12.4829   17.8058 H   0  0  0  0  0  0
  -27.6137  -14.2281   19.4595 H   0  0  0  0  0  0
  -28.7440  -12.2268   21.4511 H   0  0  0  0  0  0
  -28.4702  -13.9383   21.7216 H   0  0  0  0  0  0
  -25.2743   -9.5680   22.4776 H   0  0  0  0  0  0
  -23.9999   -7.4619   22.7467 H   0  0  0  0  0  0
  -21.0838   -8.8769   19.8945 H   0  0  0  0  0  0
  -22.3687  -10.9677   19.6180 H   0  0  0  0  0  0
  -21.2003   -7.6144   23.9716 H   0  0  0  0  0  0
  -21.1484   -6.0519   25.9078 H   0  0  0  0  0  0
  -22.0598   -2.7608   23.2846 H   0  0  0  0  0  0
  -22.4061  -11.9897   22.4823 H   0  0  0  0  0  0
  -21.1065  -13.1259   22.2600 H   0  0  0  0  0  0
  -24.6677  -15.8473   20.5552 H   0  0  0  0  0  0
  -26.2989  -15.6336   20.1673 H   0  0  0  0  0  0
  -26.7173  -32.5445   23.1088 H   0  0  0  0  0  0
  -25.0080  -33.9711   25.0423 H   0  0  0  0  0  0
  -22.7140  -31.2997   21.3960 H   0  0  0  0  0  0
  -23.3747  -35.9627   23.3307 H   0  0  0  0  0  0
  -24.3580  -36.8907   22.2054 H   0  0  0  0  0  0
  -23.7241  -37.6498   23.6656 H   0  0  0  0  0  0
  -26.0856  -31.5427   20.5966 H   0  0  0  0  0  0
  -26.8409  -30.8422   21.9977 H   0  0  0  0  0  0
  -28.1202  -28.9889   21.1811 H   0  0  0  0  0  0
  -26.0237  -25.9118   19.0149 H   0  0  0  0  0  0
  -23.9797  -27.2846   19.0198 H   0  0  0  0  0  0
  -23.7595  -30.5778   19.4006 H   0  0  0  0  0  0
  -22.7555  -29.2362   19.8590 H   0  0  0  0  0  0
  -25.1294  -36.1936   25.0823 H   0  0  0  0  0  0
  -20.9972  -28.3266   24.1405 H   0  0  0  0  0  0
  -20.5676  -26.2297   23.3611 H   0  0  0  0  0  0
  -21.6644  -26.7445   22.1208 H   0  0  0  0  0  0
  -19.6913  -25.6295   21.1243 H   0  0  0  0  0  0
  -19.6692  -27.3194   20.6740 H   0  0  0  0  0  0
  -17.4201  -26.6676   21.4024 H   0  0  0  0  0  0
  -18.0335  -26.0068   22.9018 H   0  0  0  0  0  0
  -19.7936  -30.7269   24.2271 H   0  0  0  0  0  0
  -17.5016  -31.6269   24.5166 H   0  0  0  0  0  0
  -15.5353  -30.2993   23.7650 H   0  0  0  0  0  0
  -15.8670  -28.0826   22.7065 H   0  0  0  0  0  0
  -24.5911  -30.7064   25.7773 H   0  0  0  0  0  0
  -24.8923  -32.2887   26.4864 H   0  0  0  0  0  0
  -25.8068  -30.8905   27.0213 H   0  0  0  0  0  0
  -26.2902  -29.6761   24.1195 H   0  0  0  0  0  0
  -27.4043  -29.7267   25.4662 H   0  0  0  0  0  0
  -27.8767  -30.4295   23.9371 H   0  0  0  0  0  0
  -27.2657  -33.3616   26.2065 H   0  0  0  0  0  0
  -28.3866  -32.6882   25.0319 H   0  0  0  0  0  0
  -28.0715  -31.8444   26.5403 H   0  0  0  0  0  0
  -28.2601  -38.0094   24.7507 H   0  0  0  0  0  0
  -28.1067  -36.2625   24.6301 H   0  0  0  0  0  0
  -27.2296  -37.1465   25.8870 H   0  0  0  0  0  0
  -20.9359  -29.8748   21.6873 H   0  0  0  0  0  0
  -26.0173  -38.2854   24.1405 H   0  0  0  0  0  0
  -30.0480  -19.9191   21.6675 H   0  0  0  0  0  0
  -30.8612  -17.6079   21.4210 H   0  0  0  0  0  0
  -27.1725  -19.1916   18.5597 H   0  0  0  0  0  0
  -24.7749  -22.4208   20.3852 H   0  0  0  0  0  0
  -25.6767  -21.8275   21.7615 H   0  0  0  0  0  0
  -26.4965  -21.6480   18.8205 H   0  0  0  0  0  0
  -26.0234  -20.3590   19.9060 H   0  0  0  0  0  0
  -29.0202  -22.4121   21.5803 H   0  0  0  0  0  0
  -29.5937  -22.4815   19.9378 H   0  0  0  0  0  0
  -27.6900  -23.8963   19.2322 H   0  0  0  0  0  0
  -26.5916  -16.7750   18.1736 H   0  0  0  0  0  0
  -27.9409  -15.6765   17.9845 H   0  0  0  0  0  0
  -27.8815  -17.1473   17.0355 H   0  0  0  0  0  0
  -33.1666  -17.7281   16.5650 H   0  0  0  0  0  0
  -31.7549  -16.9703   15.8359 H   0  0  0  0  0  0
  -33.0314  -15.9732   16.5325 H   0  0  0  0  0  0
  -29.5788  -25.0400   20.7767 H   0  0  0  0  0  0
  -28.2780  -25.3934   21.8259 H   0  0  0  0  0  0
  -31.2420  -17.8931   18.1074 H   0  0  0  0  0  0
  -32.4980  -16.9039   18.8120 H   0  0  0  0  0  0
  -31.2931  -14.8402   17.9512 H   0  0  0  0  0  0
  -30.0176  -15.8272   17.3855 H   0  0  0  0  0  0
  1 25  1  0  0  0
  1 30  2  0  0  0
  1 88  1  0  0  0
  2  3  1  0  0  0
  2 25  1  0  0  0
  2 90  1  0  0  0
  2 91  1  0  0  0
  3  4  1  0  0  0
  3 92  1  0  0  0
  3 93  1  0  0  0
  4  5  1  0  0  0
  4 94  1  0  0  0
  4 95  1  0  0  0
  5  6  1  0  0  0
  5 26  1  0  0  0
  5 96  1  0  0  0
  6 25  1  0  0  0
  6 97  1  0  0  0
  6 98  1  0  0  0
  7  8  2  0  0  0
  7 26  1  0  0  0
  7 29  1  0  0  0
  8  9  1  0  0  0
  8 22  1  0  0  0
  9 10  1  0  0  0
  9 27  2  0  0  0
 10 11  2  0  0  0
 10 15  1  0  0  0
 11 12  1  0  0  0
 11 99  1  0  0  0
 12 13  2  0  0  0
 12100  1  0  0  0
 13 14  1  0  0  0
 13 31  1  0  0  0
 14 15  2  0  0  0
 14101  1  0  0  0
 15102  1  0  0  0
 16 17  2  0  0  0
 16 21  1  0  0  0
 16 31  1  0  0  0
 17 18  1  0  0  0
 17103  1  0  0  0
 18 19  2  0  0  0
 18104  1  0  0  0
 19 20  1  0  0  0
 19 24  1  0  0  0
 20 21  2  0  0  0
 20105  1  0  0  0
 21 23  1  0  0  0
 22 28  1  0  0  0
 22 32  2  0  0  0
 26 27  1  0  0  0
 28106  1  0  0  0
 28107  1  0  0  0
 29108  1  0  0  0
 29109  1  0  0  0
 33 34  1  0  0  0
 33 66  1  0  0  0
 33 70  2  0  0  0
 34 36  1  0  0  0
 34 59  1  0  0  0
 34110  1  0  0  0
 35 44  2  0  0  0
 35 45  1  0  0  0
 35 68  1  0  0  0
 36 56  1  0  0  0
 36111  1  0  0  0
 37 39  1  0  0  0
 37 47  1  0  0  0
 37 66  1  0  0  0
 37112  1  0  0  0
 38 43  2  0  0  0
 38 46  1  0  0  0
 38 47  1  0  0  0
 39 64  1  0  0  0
 39 67  2  0  0  0
 40 52  1  0  0  0
 40 53  2  0  0  0
 40 58  1  0  0  0
 41113  1  0  0  0
 41114  1  0  0  0
 41115  1  0  0  0
 41 48  1  0  0  0
 42 43  1  0  0  0
 42 66  1  0  0  0
 42116  1  0  0  0
 42117  1  0  0  0
 43 44  1  0  0  0
 44118  1  0  0  0
 45 46  2  0  0  0
 45119  1  0  0  0
 46120  1  0  0  0
 47121  1  0  0  0
 47122  1  0  0  0
 48 56  1  0  0  0
 48 65  1  0  0  0
 48123  1  0  0  0
 49 50  1  0  0  0
 49 53  1  0  0  0
 49 64  1  0  0  0
 49124  1  0  0  0
 50 51  1  0  0  0
 50125  1  0  0  0
 50126  1  0  0  0
 51 52  1  0  0  0
 51127  1  0  0  0
 51128  1  0  0  0
 52129  1  0  0  0
 52130  1  0  0  0
 53 54  1  0  0  0
 54 55  2  0  0  0
 54131  1  0  0  0
 55 57  1  0  0  0
 55132  1  0  0  0
 56 69  2  0  0  0
 57 58  2  0  0  0
 57133  1  0  0  0
 58134  1  0  0  0
 59 60  1  0  0  0
 59 61  1  0  0  0
 59 62  1  0  0  0
 60135  1  0  0  0
 60136  1  0  0  0
 60137  1  0  0  0
 61138  1  0  0  0
 61139  1  0  0  0
 61140  1  0  0  0
 62141  1  0  0  0
 62142  1  0  0  0
 62143  1  0  0  0
 63 65  1  0  0  0
 63144  1  0  0  0
 63145  1  0  0  0
 63146  1  0  0  0
 64147  1  0  0  0
 65148  1  0  0  0
 68 84  1  0  0  0
 71 72  2  0  0  0
 71 75  1  0  0  0
 71149  1  0  0  0
 72 76  1  0  0  0
 72150  1  0  0  0
 73 74  1  0  0  0
 73 75  2  0  0  0
 73151  1  0  0  0
 74 76  2  0  0  0
 74 82  1  0  0  0
 75 87  1  0  0  0
 76 88  1  0  0  0
 77 78  1  0  0  0
 77 81  1  0  0  0
 77 89  2  0  0  0
 78 79  1  0  0  0
 78152  1  0  0  0
 78153  1  0  0  0
 79 87  1  0  0  0
 79154  1  0  0  0
 79155  1  0  0  0
 80 81  1  0  0  0
 80 87  1  0  0  0
 80156  1  0  0  0
 80157  1  0  0  0
 81 84  1  0  0  0
 81158  1  0  0  0
 82159  1  0  0  0
 82160  1  0  0  0
 82161  1  0  0  0
 83 85  1  0  0  0
 83162  1  0  0  0
 83163  1  0  0  0
 83164  1  0  0  0
 84165  1  0  0  0
 84166  1  0  0  0
 85 86  1  0  0  0
 85167  1  0  0  0
 85168  1  0  0  0
 86 88  1  0  0  0
 86169  1  0  0  0
 86170  1  0  0  0
M  ISO  4   1 100  68 101  84 101  88 100
M  END
> <chiral flag>
0

> <version>
0

> <s_m_source_file>
/data/baiqing/PycharmProjects/Reinvent-master-3.2/result/LINK_invent/BTK/process_docking_weight1_custom_product_contain_oxygen_bond_distance_aromatic_linkinvent_7_9_3/rearranged_h_0098.sdf

> <i_m_source_file_index>
19

> <r_mmod_Potential_Energy-OPLS-2005>
383.479919433594

> <r_mmod_Stretch_Energy-OPLS-2005>
104.391426086426

> <r_mmod_Bend_Energy-OPLS-2005>
201.153228759766

> <r_mmod_Torsional_Energy-OPLS-2005>
329.844848632812

> <r_mmod_Improper_Torsional_Energy-OPLS-2005>
34.0880889892578

> <r_mmod_Van_der_Waal_Energy-OPLS-2005>
149.233001708984

> <r_mmod_Electrostatic_Energy-OPLS-2005>
-304.065124511719

> <r_mmod_Solvation_Energy-OPLS-2005>
-216.31315612793

> <b_mmod_Minimization_Converged-OPLS-2005>
0

> <r_mmod_RMS_Derivative-OPLS-2005>
0.54792058467865

$$$$
19
                    3D
 Structure written by MMmdl.
151159  0  0  1  0            999 V2000
  -30.4049  -15.2745   20.3705 C   0  0  0  0  0  0
  -30.4474  -12.8126   19.5251 C   0  0  0  0  0  0
  -29.5404  -12.5824   18.2884 C   0  0  0  0  0  0
  -28.0865  -12.3070   18.7127 C   0  0  0  0  0  0
  -27.6149  -13.2749   19.8262 C   0  0  2  0  0  0
  -28.6498  -13.4325   20.9603 C   0  0  0  0  0  0
  -25.2398  -13.8246   20.5749 C   0  0  0  0  0  0
  -24.1747  -13.0429   20.9239 C   0  0  0  0  0  0
  -24.6408  -11.6929   20.8748 C   0  0  0  0  0  0
  -23.9101  -10.4290   21.0398 C   0  0  0  0  0  0
  -24.3644   -9.4205   21.9180 C   0  0  0  0  0  0
  -23.6308   -8.2246   22.0753 C   0  0  0  0  0  0
  -22.4287   -8.0289   21.3546 C   0  0  0  0  0  0
  -21.9929   -9.0263   20.4645 C   0  0  0  0  0  0
  -22.7270  -10.2135   20.3052 C   0  0  0  0  0  0
  -21.6855   -6.0741   22.5281 C   0  0  0  0  0  0
  -21.4017   -6.5643   23.8216 C   0  0  0  0  0  0
  -21.3660   -5.6794   24.9176 C   0  0  0  0  0  0
  -21.6043   -4.3058   24.7224 C   0  0  0  0  0  0
  -21.8819   -3.8151   23.4345 C   0  0  0  0  0  0
  -21.9193   -4.6968   22.3401 C   0  0  0  0  0  0
  -22.7764  -13.5182   21.1893 C   0  0  0  0  0  0
  -22.1661   -4.2153   21.0978 F   0  0  0  0  0  0
  -21.5626   -3.4541   25.7736 F   0  0  0  0  0  0
  -29.8810  -13.9493   20.3392 N   0  0  0  0  0  0
  -26.2837  -12.9525   20.3229 N   0  0  0  0  0  0
  -25.9348  -11.6627   20.5716 N   0  0  0  0  0  0
  -22.0425  -12.8169   22.0453 N   0  0  0  0  0  0
  -25.3984  -15.1992   20.4242 N   0  0  0  0  0  0
  -31.6248  -15.3166   20.1491 O   0  0  0  0  0  0
  -21.6645   -6.8889   21.4245 O   0  0  0  0  0  0
  -22.3437  -14.5483   20.6738 O   0  0  0  0  0  0
  -24.6628  -31.8229   23.1703 C   0  0  0  0  0  0
  -25.9309  -32.4583   23.8170 C   0  0  1  0  0  0
  -27.2220  -26.9183   20.1898 C   0  0  0  0  0  0
  -25.5975  -33.8400   24.2068 N   0  0  0  0  0  0
  -23.4785  -30.4329   21.5194 C   0  0  2  0  0  0
  -24.9329  -28.8151   20.1157 C   0  0  0  0  0  0
  -22.7666  -29.4436   22.4786 C   0  0  0  0  0  0
  -18.0321  -28.1409   22.8465 C   0  0  0  0  0  0
  -24.1495  -36.7207   23.2647 C   0  0  0  0  0  0
  -26.0473  -30.6244   21.4045 C   0  0  0  0  0  0
  -26.1150  -29.2115   20.7535 C   0  0  0  0  0  0
  -27.2519  -28.2830   20.7688 C   0  0  0  0  0  0
  -26.0133  -26.6794   19.4970 C   0  0  0  0  0  0
  -24.9072  -27.5690   19.4681 C   0  0  0  0  0  0
  -23.7199  -29.7453   20.1468 C   0  0  0  0  0  0
  -25.4137  -36.2964   24.0297 C   0  0  1  0  0  0
  -20.5944  -28.3756   23.1186 C   0  0  2  0  0  0
  -20.6796  -26.9437   22.5403 C   0  0  0  0  0  0
  -19.5770  -26.6375   21.5214 C   0  0  0  0  0  0
  -18.1954  -26.7941   22.1623 C   0  0  0  0  0  0
  -19.1582  -28.8904   23.2812 C   0  0  0  0  0  0
  -18.9494  -30.1493   23.8848 C   0  0  0  0  0  0
  -17.6487  -30.6598   24.0552 C   0  0  0  0  0  0
  -25.9102  -34.9347   23.5007 C   0  0  0  0  0  0
  -16.5379  -29.9085   23.6340 C   0  0  0  0  0  0
  -16.7304  -28.6505   23.0361 C   0  0  0  0  0  0
  -26.4555  -31.6536   25.0707 C   0  0  0  0  0  0
  -25.3679  -31.3798   26.1364 C   0  0  0  0  0  0
  -27.0456  -30.2899   24.6462 C   0  0  0  0  0  0
  -27.6042  -32.4351   25.7510 C   0  0  0  0  0  0
  -27.5570  -37.1761   24.8465 C   0  0  0  0  0  0
  -21.4337  -29.3044   22.3535 N   0  0  0  0  0  0
  -26.4281  -37.3701   23.9405 N   0  0  0  0  0  0
  -24.7507  -30.9877   22.0848 N   0  0  0  0  0  0
  -23.4206  -28.8013   23.3040 O   0  0  0  0  0  0
  -28.2390  -25.8218   20.2279 O   0  0  0  0  0  0
  -26.5715  -34.8883   22.4603 O   0  0  0  0  0  0
  -23.5698  -32.1211   23.6784 O   0  0  0  0  0  0
  -28.0533  -20.3536   20.3876 C   0  0  0  0  0  0
  -30.5188  -19.1502   20.3044 C   0  0  0  0  0  0
  -29.0618  -21.4087   20.3056 C   0  0  0  0  0  0
  -30.3261  -20.6410   20.2727 C   0  0  0  0  0  0
  -29.5014  -18.1120   20.3917 C   0  0  0  0  0  0
  -28.2509  -18.8705   20.4300 C   0  0  0  0  0  0
  -28.9405  -23.1297   20.2621 C   0  0  0  0  0  0
  -28.0320  -24.2944   20.2639 C   0  0  0  0  0  0
  -32.6812  -20.9941   20.9022 C   0  0  0  0  0  0
  -29.5533  -16.4856   20.4591 N   0  0  0  0  0  0
  -31.4835  -21.4323   20.1937 N   0  0  0  0  0  0
  -27.1297  -18.0952   20.5138 O   0  0  0  0  0  0
  -31.4627  -13.0319   19.1927 H   0  0  0  0  0  0
  -30.5256  -11.9043   20.1253 H   0  0  0  0  0  0
  -29.9195  -11.7558   17.6862 H   0  0  0  0  0  0
  -29.5718  -13.4669   17.6501 H   0  0  0  0  0  0
  -28.0383  -11.2799   19.0765 H   0  0  0  0  0  0
  -27.4204  -12.3584   17.8506 H   0  0  0  0  0  0
  -27.5325  -14.2465   19.3373 H   0  0  0  0  0  0
  -28.8189  -12.4886   21.4810 H   0  0  0  0  0  0
  -28.2896  -14.1395   21.7090 H   0  0  0  0  0  0
  -25.2785   -9.5678   22.4761 H   0  0  0  0  0  0
  -24.0009   -7.4637   22.7477 H   0  0  0  0  0  0
  -21.0857   -8.8792   19.8952 H   0  0  0  0  0  0
  -22.3731  -10.9678   19.6165 H   0  0  0  0  0  0
  -21.2012   -7.6151   23.9721 H   0  0  0  0  0  0
  -21.1480   -6.0523   25.9078 H   0  0  0  0  0  0
  -22.0595   -2.7613   23.2845 H   0  0  0  0  0  0
  -22.4059  -11.9844   22.4852 H   0  0  0  0  0  0
  -21.1039  -13.1182   22.2658 H   0  0  0  0  0  0
  -24.6267  -15.8412   20.5656 H   0  0  0  0  0  0
  -26.2487  -15.6729   20.1447 H   0  0  0  0  0  0
  -26.7380  -32.5118   23.0885 H   0  0  0  0  0  0
  -25.0061  -33.9479   25.0178 H   0  0  0  0  0  0
  -22.7919  -31.2641   21.3465 H   0  0  0  0  0  0
  -23.3765  -35.9530   23.3285 H   0  0  0  0  0  0
  -24.3567  -36.8878   22.2065 H   0  0  0  0  0  0
  -23.7248  -37.6386   23.6722 H   0  0  0  0  0  0
  -26.2285  -31.3629   20.6222 H   0  0  0  0  0  0
  -26.9066  -30.6827   22.0606 H   0  0  0  0  0  0
  -28.1489  -28.5860   21.2904 H   0  0  0  0  0  0
  -25.8962  -25.7315   18.9922 H   0  0  0  0  0  0
  -24.0116  -27.2609   18.9463 H   0  0  0  0  0  0
  -23.8780  -30.5122   19.3878 H   0  0  0  0  0  0
  -22.8293  -29.2008   19.8284 H   0  0  0  0  0  0
  -25.1336  -36.1758   25.0788 H   0  0  0  0  0  0
  -21.0029  -28.3366   24.1311 H   0  0  0  0  0  0
  -20.5671  -26.2379   23.3648 H   0  0  0  0  0  0
  -21.6662  -26.7409   22.1215 H   0  0  0  0  0  0
  -19.6931  -25.6272   21.1279 H   0  0  0  0  0  0
  -19.6706  -27.3153   20.6717 H   0  0  0  0  0  0
  -17.4221  -26.6679   21.4030 H   0  0  0  0  0  0
  -18.0353  -26.0095   22.9032 H   0  0  0  0  0  0
  -19.7972  -30.7321   24.2195 H   0  0  0  0  0  0
  -17.5040  -31.6273   24.5166 H   0  0  0  0  0  0
  -15.5377  -30.2970   23.7696 H   0  0  0  0  0  0
  -15.8705  -28.0804   22.7107 H   0  0  0  0  0  0
  -24.5867  -30.7141   25.7677 H   0  0  0  0  0  0
  -24.8867  -32.3007   26.4669 H   0  0  0  0  0  0
  -25.7908  -30.9043   27.0223 H   0  0  0  0  0  0
  -26.3131  -29.6566   24.1447 H   0  0  0  0  0  0
  -27.3948  -29.7274   25.5131 H   0  0  0  0  0  0
  -27.9086  -30.4068   23.9905 H   0  0  0  0  0  0
  -27.2599  -33.3686   26.1973 H   0  0  0  0  0  0
  -28.3913  -32.6859   25.0386 H   0  0  0  0  0  0
  -28.0647  -31.8562   26.5526 H   0  0  0  0  0  0
  -28.2571  -38.0072   24.7504 H   0  0  0  0  0  0
  -28.1081  -36.2597   24.6299 H   0  0  0  0  0  0
  -27.2284  -37.1411   25.8866 H   0  0  0  0  0  0
  -20.9600  -29.8727   21.6651 H   0  0  0  0  0  0
  -26.0127  -38.2759   24.1408 H   0  0  0  0  0  0
  -27.0333  -20.7069   20.4253 H   0  0  0  0  0  0
  -31.5285  -18.7721   20.2535 H   0  0  0  0  0  0
  -29.9415  -23.5281   20.2165 H   0  0  0  0  0  0
  -26.9711  -24.0930   20.3084 H   0  0  0  0  0  0
  -33.3357  -21.8457   21.0946 H   0  0  0  0  0  0
  -33.2463  -20.2697   20.3137 H   0  0  0  0  0  0
  -32.4348  -20.5436   21.8655 H   0  0  0  0  0  0
  -28.6062  -16.1589   20.5836 H   0  0  0  0  0  0
  -31.3301  -22.4371   20.1811 H   0  0  0  0  0  0
  -26.3281  -18.6055   20.5610 H   0  0  0  0  0  0
  1 25  1  0  0  0
  1 30  2  0  0  0
  1 80  1  0  0  0
  2  3  1  0  0  0
  2 25  1  0  0  0
  2 83  1  0  0  0
  2 84  1  0  0  0
  3  4  1  0  0  0
  3 85  1  0  0  0
  3 86  1  0  0  0
  4  5  1  0  0  0
  4 87  1  0  0  0
  4 88  1  0  0  0
  5  6  1  0  0  0
  5 26  1  0  0  0
  5 89  1  0  0  0
  6 25  1  0  0  0
  6 90  1  0  0  0
  6 91  1  0  0  0
  7  8  2  0  0  0
  7 26  1  0  0  0
  7 29  1  0  0  0
  8  9  1  0  0  0
  8 22  1  0  0  0
  9 10  1  0  0  0
  9 27  2  0  0  0
 10 11  2  0  0  0
 10 15  1  0  0  0
 11 12  1  0  0  0
 11 92  1  0  0  0
 12 13  2  0  0  0
 12 93  1  0  0  0
 13 14  1  0  0  0
 13 31  1  0  0  0
 14 15  2  0  0  0
 14 94  1  0  0  0
 15 95  1  0  0  0
 16 17  2  0  0  0
 16 21  1  0  0  0
 16 31  1  0  0  0
 17 18  1  0  0  0
 17 96  1  0  0  0
 18 19  2  0  0  0
 18 97  1  0  0  0
 19 20  1  0  0  0
 19 24  1  0  0  0
 20 21  2  0  0  0
 20 98  1  0  0  0
 21 23  1  0  0  0
 22 28  1  0  0  0
 22 32  2  0  0  0
 26 27  1  0  0  0
 28 99  1  0  0  0
 28100  1  0  0  0
 29101  1  0  0  0
 29102  1  0  0  0
 33 34  1  0  0  0
 33 66  1  0  0  0
 33 70  2  0  0  0
 34 36  1  0  0  0
 34 59  1  0  0  0
 34103  1  0  0  0
 35 44  2  0  0  0
 35 45  1  0  0  0
 35 68  1  0  0  0
 36 56  1  0  0  0
 36104  1  0  0  0
 37 39  1  0  0  0
 37 47  1  0  0  0
 37 66  1  0  0  0
 37105  1  0  0  0
 38 43  2  0  0  0
 38 46  1  0  0  0
 38 47  1  0  0  0
 39 64  1  0  0  0
 39 67  2  0  0  0
 40 52  1  0  0  0
 40 53  2  0  0  0
 40 58  1  0  0  0
 41106  1  0  0  0
 41107  1  0  0  0
 41108  1  0  0  0
 41 48  1  0  0  0
 42 43  1  0  0  0
 42 66  1  0  0  0
 42109  1  0  0  0
 42110  1  0  0  0
 43 44  1  0  0  0
 44111  1  0  0  0
 45 46  2  0  0  0
 45112  1  0  0  0
 46113  1  0  0  0
 47114  1  0  0  0
 47115  1  0  0  0
 48 56  1  0  0  0
 48 65  1  0  0  0
 48116  1  0  0  0
 49 50  1  0  0  0
 49 53  1  0  0  0
 49 64  1  0  0  0
 49117  1  0  0  0
 50 51  1  0  0  0
 50118  1  0  0  0
 50119  1  0  0  0
 51 52  1  0  0  0
 51120  1  0  0  0
 51121  1  0  0  0
 52122  1  0  0  0
 52123  1  0  0  0
 53 54  1  0  0  0
 54 55  2  0  0  0
 54124  1  0  0  0
 55 57  1  0  0  0
 55125  1  0  0  0
 56 69  2  0  0  0
 57 58  2  0  0  0
 57126  1  0  0  0
 58127  1  0  0  0
 59 60  1  0  0  0
 59 61  1  0  0  0
 59 62  1  0  0  0
 60128  1  0  0  0
 60129  1  0  0  0
 60130  1  0  0  0
 61131  1  0  0  0
 61132  1  0  0  0
 61133  1  0  0  0
 62134  1  0  0  0
 62135  1  0  0  0
 62136  1  0  0  0
 63 65  1  0  0  0
 63137  1  0  0  0
 63138  1  0  0  0
 63139  1  0  0  0
 64140  1  0  0  0
 65141  1  0  0  0
 68 78  1  0  0  0
 71 73  2  0  0  0
 71 76  1  0  0  0
 71142  1  0  0  0
 72 74  2  0  0  0
 72 75  1  0  0  0
 72143  1  0  0  0
 73 74  1  0  0  0
 73 77  1  0  0  0
 74 81  1  0  0  0
 75 76  2  0  0  0
 75 80  1  0  0  0
 76 82  1  0  0  0
 77 78  2  0  0  0
 77144  1  0  0  0
 78145  1  0  0  0
 79 81  1  0  0  0
 79146  1  0  0  0
 79147  1  0  0  0
 79148  1  0  0  0
 80149  1  0  0  0
 81150  1  0  0  0
 82151  1  0  0  0
M  ISO  4   1 100  68 101  78 101  80 100
M  END
> <chiral flag>
0

> <version>
0

> <s_m_source_file>
/data/baiqing/PycharmProjects/Reinvent-master-3.2/result/LINK_invent/BTK/process_docking_weight1_custom_product_contain_oxygen_bond_distance_aromatic_linkinvent_7_9_3/rearranged_h_0098.sdf

> <i_m_source_file_index>
20

> <r_mmod_Potential_Energy-OPLS-2005>
1081.73742675781

> <r_mmod_Stretch_Energy-OPLS-2005>
507.246887207031

> <r_mmod_Bend_Energy-OPLS-2005>
421.606903076172

> <r_mmod_Torsional_Energy-OPLS-2005>
207.40168762207

> <r_mmod_Improper_Torsional_Energy-OPLS-2005>
6.57220315933228

> <r_mmod_Van_der_Waal_Energy-OPLS-2005>
132.584594726562

> <r_mmod_Electrostatic_Energy-OPLS-2005>
-426.783416748047

> <r_mmod_Solvation_Energy-OPLS-2005>
-234.992553710938

> <b_mmod_Minimization_Converged-OPLS-2005>
0

> <r_mmod_RMS_Derivative-OPLS-2005>
0.512824177742004

$$$$
20
                    3D
 Structure written by MMmdl.
163172  0  0  1  0            999 V2000
  -30.7055  -14.4827   20.5442 C   0  0  0  0  0  0
  -30.4228  -12.3019   19.4344 C   0  0  0  0  0  0
  -29.5020  -12.5046   18.2129 C   0  0  0  0  0  0
  -28.0204  -12.3727   18.6202 C   0  0  0  0  0  0
  -27.6626  -13.2130   19.8767 C   0  0  2  0  0  0
  -28.7063  -13.0067   20.9992 C   0  0  0  0  0  0
  -25.2588  -13.8166   20.5719 C   0  0  0  0  0  0
  -24.1830  -13.0432   20.9154 C   0  0  0  0  0  0
  -24.6399  -11.6903   20.8714 C   0  0  0  0  0  0
  -23.9069  -10.4286   21.0386 C   0  0  0  0  0  0
  -24.3618   -9.4199   21.9174 C   0  0  0  0  0  0
  -23.6283   -8.2240   22.0758 C   0  0  0  0  0  0
  -22.4259   -8.0287   21.3555 C   0  0  0  0  0  0
  -21.9896   -9.0255   20.4653 C   0  0  0  0  0  0
  -22.7230  -10.2129   20.3041 C   0  0  0  0  0  0
  -21.6854   -6.0741   22.5286 C   0  0  0  0  0  0
  -21.4020   -6.5643   23.8220 C   0  0  0  0  0  0
  -21.3655   -5.6795   24.9175 C   0  0  0  0  0  0
  -21.6040   -4.3058   24.7223 C   0  0  0  0  0  0
  -21.8817   -3.8155   23.4344 C   0  0  0  0  0  0
  -21.9190   -4.6970   22.3403 C   0  0  0  0  0  0
  -22.7856  -13.5237   21.1818 C   0  0  0  0  0  0
  -22.1663   -4.2161   21.0981 F   0  0  0  0  0  0
  -21.5610   -3.4545   25.7733 F   0  0  0  0  0  0
  -30.0387  -13.2999   20.4453 N   0  0  0  0  0  0
  -26.3036  -12.9354   20.3383 N   0  0  0  0  0  0
  -25.9328  -11.6499   20.5745 N   0  0  0  0  0  0
  -22.0488  -12.8241   22.0378 N   0  0  0  0  0  0
  -25.4293  -15.1892   20.4256 N   0  0  0  0  0  0
  -31.8474  -14.6367   20.1023 O   0  0  0  0  0  0
  -21.6629   -6.8883   21.4248 O   0  0  0  0  0  0
  -22.3534  -14.5549   20.6672 O   0  0  0  0  0  0
  -24.6162  -31.8684   23.2112 C   0  0  0  0  0  0
  -25.9054  -32.4826   23.8400 C   0  0  1  0  0  0
  -27.2272  -27.4230   20.0863 C   0  0  0  0  0  0
  -25.5906  -33.8622   24.2329 N   0  0  0  0  0  0
  -23.4031  -30.4955   21.5532 C   0  0  2  0  0  0
  -24.8458  -28.9658   20.1144 C   0  0  0  0  0  0
  -22.7412  -29.4671   22.4989 C   0  0  0  0  0  0
  -18.0273  -28.1381   22.8492 C   0  0  0  0  0  0
  -24.1490  -36.7312   23.2635 C   0  0  0  0  0  0
  -25.9359  -30.8300   21.3674 C   0  0  0  0  0  0
  -26.0105  -29.4665   20.7088 C   0  0  0  0  0  0
  -27.2039  -28.7036   20.6908 C   0  0  0  0  0  0
  -26.0367  -26.9490   19.4811 C   0  0  0  0  0  0
  -24.8540  -27.7059   19.4994 C   0  0  0  0  0  0
  -23.6104  -29.8343   20.1664 C   0  0  0  0  0  0
  -25.4113  -36.3115   24.0336 C   0  0  1  0  0  0
  -20.5863  -28.3672   23.1309 C   0  0  2  0  0  0
  -20.6767  -26.9409   22.5413 C   0  0  0  0  0  0
  -19.5745  -26.6390   21.5211 C   0  0  0  0  0  0
  -18.1923  -26.7929   22.1622 C   0  0  0  0  0  0
  -19.1524  -28.8843   23.2899 C   0  0  0  0  0  0
  -18.9452  -30.1449   23.8914 C   0  0  0  0  0  0
  -17.6457  -30.6587   24.0568 C   0  0  0  0  0  0
  -25.9041  -34.9478   23.5134 C   0  0  0  0  0  0
  -16.5347  -29.9092   23.6328 C   0  0  0  0  0  0
  -16.7265  -28.6507   23.0350 C   0  0  0  0  0  0
  -26.4474  -31.6606   25.0730 C   0  0  0  0  0  0
  -25.3734  -31.3708   26.1474 C   0  0  0  0  0  0
  -27.0304  -30.3049   24.6109 C   0  0  0  0  0  0
  -27.6051  -32.4327   25.7486 C   0  0  0  0  0  0
  -27.5584  -37.1815   24.8463 C   0  0  0  0  0  0
  -21.4138  -29.3038   22.3716 N   0  0  0  0  0  0
  -26.4299  -37.3799   23.9405 N   0  0  0  0  0  0
  -24.6703  -31.0782   22.1019 N   0  0  0  0  0  0
  -23.4184  -28.8203   23.3023 O   0  0  0  0  0  0
  -28.3889  -26.6651   20.1088 O   0  0  0  0  0  0
  -26.5603  -34.8927   22.4695 O   0  0  0  0  0  0
  -23.5356  -32.1437   23.7507 O   0  0  0  0  0  0
  -31.3761  -17.5593   20.5847 C   0  0  0  0  0  0
  -29.0365  -18.9544   19.9100 C   0  0  0  0  0  0
  -31.4604  -18.9022   20.1395 C   0  0  0  0  0  0
  -30.2825  -19.6062   19.7647 C   0  0  0  0  0  0
  -30.1306  -16.8901   20.6562 C   0  0  0  0  0  0
  -28.9609  -17.6155   20.3512 C   0  0  0  0  0  0
  -30.6452  -24.4871   19.3869 C   0  0  0  0  0  0
  -31.4198  -23.1882   19.6477 C   0  0  0  0  0  0
  -29.1405  -22.8619   20.2834 C   0  0  0  0  0  0
  -29.4389  -24.3807   20.3154 C   0  0  2  0  0  0
  -32.8340  -19.5483   20.0363 C   0  0  0  0  0  0
  -30.3384  -20.9901   19.0944 C   0  0  0  0  0  0
  -28.2275  -25.2485   19.9023 C   0  0  0  0  0  0
  -29.9845  -15.5147   21.0233 N   0  0  0  0  0  0
  -30.4248  -22.1511   20.0324 N   0  3  1  0  0  0
  -27.7569  -17.0005   20.4391 F   0  0  0  0  0  0
  -31.4704  -12.3844   19.1387 H   0  0  0  0  0  0
  -30.3075  -11.2951   19.8394 H   0  0  0  0  0  0
  -29.7407  -11.7773   17.4359 H   0  0  0  0  0  0
  -29.6804  -13.4879   17.7742 H   0  0  0  0  0  0
  -27.8234  -11.3176   18.8119 H   0  0  0  0  0  0
  -27.3768  -12.6542   17.7863 H   0  0  0  0  0  0
  -27.7002  -14.2595   19.5738 H   0  0  0  0  0  0
  -28.6808  -11.9753   21.3547 H   0  0  0  0  0  0
  -28.4744  -13.6215   21.8699 H   0  0  0  0  0  0
  -25.2763   -9.5674   22.4741 H   0  0  0  0  0  0
  -24.0001   -7.4631   22.7471 H   0  0  0  0  0  0
  -21.0824   -8.8759   19.8965 H   0  0  0  0  0  0
  -22.3684  -10.9658   19.6143 H   0  0  0  0  0  0
  -21.2031   -7.6154   23.9728 H   0  0  0  0  0  0
  -21.1473   -6.0525   25.9082 H   0  0  0  0  0  0
  -22.0600   -2.7617   23.2835 H   0  0  0  0  0  0
  -22.4103  -11.9907   22.4769 H   0  0  0  0  0  0
  -21.1106  -13.1271   22.2583 H   0  0  0  0  0  0
  -24.6708  -15.8435   20.5791 H   0  0  0  0  0  0
  -26.3070  -15.6550   20.2210 H   0  0  0  0  0  0
  -26.7125  -32.5530   23.1160 H   0  0  0  0  0  0
  -25.0064  -33.9788   25.0480 H   0  0  0  0  0  0
  -22.6930  -31.3137   21.4175 H   0  0  0  0  0  0
  -23.3752  -35.9645   23.3312 H   0  0  0  0  0  0
  -24.3585  -36.8909   22.2046 H   0  0  0  0  0  0
  -23.7242  -37.6521   23.6639 H   0  0  0  0  0  0
  -26.0543  -31.5993   20.6031 H   0  0  0  0  0  0
  -26.8220  -30.8773   21.9887 H   0  0  0  0  0  0
  -28.1015  -29.0861   21.1563 H   0  0  0  0  0  0
  -25.9890  -25.9907   18.9862 H   0  0  0  0  0  0
  -23.9582  -27.3143   19.0368 H   0  0  0  0  0  0
  -23.7207  -30.6116   19.4095 H   0  0  0  0  0  0
  -22.7330  -29.2574   19.8686 H   0  0  0  0  0  0
  -25.1291  -36.1983   25.0829 H   0  0  0  0  0  0
  -20.9961  -28.3245   24.1427 H   0  0  0  0  0  0
  -20.5675  -26.2283   23.3602 H   0  0  0  0  0  0
  -21.6639  -26.7457   22.1202 H   0  0  0  0  0  0
  -19.6908  -25.6304   21.1233 H   0  0  0  0  0  0
  -19.6681  -27.3205   20.6744 H   0  0  0  0  0  0
  -17.4193  -26.6677   21.4025 H   0  0  0  0  0  0
  -18.0325  -26.0066   22.9013 H   0  0  0  0  0  0
  -19.7932  -30.7257   24.2291 H   0  0  0  0  0  0
  -17.5017  -31.6271   24.5164 H   0  0  0  0  0  0
  -15.5352  -30.3003   23.7645 H   0  0  0  0  0  0
  -15.8661  -28.0837   22.7057 H   0  0  0  0  0  0
  -24.5896  -30.7075   25.7797 H   0  0  0  0  0  0
  -24.8941  -32.2865   26.4950 H   0  0  0  0  0  0
  -25.8080  -30.8844   27.0216 H   0  0  0  0  0  0
  -26.2848  -29.6815   24.1157 H   0  0  0  0  0  0
  -27.4067  -29.7283   25.4568 H   0  0  0  0  0  0
  -27.8690  -30.4372   23.9267 H   0  0  0  0  0  0
  -27.2673  -33.3620   26.2089 H   0  0  0  0  0  0
  -28.3841  -32.6900   25.0294 H   0  0  0  0  0  0
  -28.0741  -31.8435   26.5378 H   0  0  0  0  0  0
  -28.2611  -38.0105   24.7515 H   0  0  0  0  0  0
  -28.1074  -36.2639   24.6289 H   0  0  0  0  0  0
  -27.2301  -37.1466   25.8866 H   0  0  0  0  0  0
  -20.9301  -29.8771   21.6944 H   0  0  0  0  0  0
  -26.0189  -38.2880   24.1402 H   0  0  0  0  0  0
  -32.2836  -17.0322   20.8449 H   0  0  0  0  0  0
  -28.1220  -19.4625   19.6361 H   0  0  0  0  0  0
  -30.3217  -24.5150   18.3455 H   0  0  0  0  0  0
  -31.2444  -25.3799   19.5716 H   0  0  0  0  0  0
  -32.0941  -23.3304   20.4932 H   0  0  0  0  0  0
  -32.0453  -22.9208   18.7949 H   0  0  0  0  0  0
  -28.4257  -22.6577   19.4853 H   0  0  0  0  0  0
  -28.6786  -22.5195   21.2098 H   0  0  0  0  0  0
  -29.7460  -24.6495   21.3272 H   0  0  0  0  0  0
  -33.6066  -18.9160   20.4759 H   0  0  0  0  0  0
  -32.8571  -20.5015   20.5644 H   0  0  0  0  0  0
  -33.1074  -19.7226   18.9951 H   0  0  0  0  0  0
  -29.4872  -21.0979   18.4211 H   0  0  0  0  0  0
  -31.1916  -20.9789   18.4174 H   0  0  0  0  0  0
  -27.3757  -24.8984   20.4893 H   0  0  0  0  0  0
  -27.9975  -25.0607   18.8523 H   0  0  0  0  0  0
  -29.0568  -15.2594   21.3269 H   0  0  0  0  0  0
  -30.7425  -21.7748   20.9126 H   0  0  0  0  0  0
  1 25  1  0  0  0
  1 30  2  0  0  0
  1 84  1  0  0  0
  2  3  1  0  0  0
  2 25  1  0  0  0
  2 87  1  0  0  0
  2 88  1  0  0  0
  3  4  1  0  0  0
  3 89  1  0  0  0
  3 90  1  0  0  0
  4  5  1  0  0  0
  4 91  1  0  0  0
  4 92  1  0  0  0
  5  6  1  0  0  0
  5 26  1  0  0  0
  5 93  1  0  0  0
  6 25  1  0  0  0
  6 94  1  0  0  0
  6 95  1  0  0  0
  7  8  2  0  0  0
  7 26  1  0  0  0
  7 29  1  0  0  0
  8  9  1  0  0  0
  8 22  1  0  0  0
  9 10  1  0  0  0
  9 27  2  0  0  0
 10 11  2  0  0  0
 10 15  1  0  0  0
 11 12  1  0  0  0
 11 96  1  0  0  0
 12 13  2  0  0  0
 12 97  1  0  0  0
 13 14  1  0  0  0
 13 31  1  0  0  0
 14 15  2  0  0  0
 14 98  1  0  0  0
 15 99  1  0  0  0
 16 17  2  0  0  0
 16 21  1  0  0  0
 16 31  1  0  0  0
 17 18  1  0  0  0
 17100  1  0  0  0
 18 19  2  0  0  0
 18101  1  0  0  0
 19 20  1  0  0  0
 19 24  1  0  0  0
 20 21  2  0  0  0
 20102  1  0  0  0
 21 23  1  0  0  0
 22 28  1  0  0  0
 22 32  2  0  0  0
 26 27  1  0  0  0
 28103  1  0  0  0
 28104  1  0  0  0
 29105  1  0  0  0
 29106  1  0  0  0
 33 34  1  0  0  0
 33 66  1  0  0  0
 33 70  2  0  0  0
 34 36  1  0  0  0
 34 59  1  0  0  0
 34107  1  0  0  0
 35 44  2  0  0  0
 35 45  1  0  0  0
 35 68  1  0  0  0
 36 56  1  0  0  0
 36108  1  0  0  0
 37 39  1  0  0  0
 37 47  1  0  0  0
 37 66  1  0  0  0
 37109  1  0  0  0
 38 43  2  0  0  0
 38 46  1  0  0  0
 38 47  1  0  0  0
 39 64  1  0  0  0
 39 67  2  0  0  0
 40 52  1  0  0  0
 40 53  2  0  0  0
 40 58  1  0  0  0
 41110  1  0  0  0
 41111  1  0  0  0
 41112  1  0  0  0
 41 48  1  0  0  0
 42 43  1  0  0  0
 42 66  1  0  0  0
 42113  1  0  0  0
 42114  1  0  0  0
 43 44  1  0  0  0
 44115  1  0  0  0
 45 46  2  0  0  0
 45116  1  0  0  0
 46117  1  0  0  0
 47118  1  0  0  0
 47119  1  0  0  0
 48 56  1  0  0  0
 48 65  1  0  0  0
 48120  1  0  0  0
 49 50  1  0  0  0
 49 53  1  0  0  0
 49 64  1  0  0  0
 49121  1  0  0  0
 50 51  1  0  0  0
 50122  1  0  0  0
 50123  1  0  0  0
 51 52  1  0  0  0
 51124  1  0  0  0
 51125  1  0  0  0
 52126  1  0  0  0
 52127  1  0  0  0
 53 54  1  0  0  0
 54 55  2  0  0  0
 54128  1  0  0  0
 55 57  1  0  0  0
 55129  1  0  0  0
 56 69  2  0  0  0
 57 58  2  0  0  0
 57130  1  0  0  0
 58131  1  0  0  0
 59 60  1  0  0  0
 59 61  1  0  0  0
 59 62  1  0  0  0
 60132  1  0  0  0
 60133  1  0  0  0
 60134  1  0  0  0
 61135  1  0  0  0
 61136  1  0  0  0
 61137  1  0  0  0
 62138  1  0  0  0
 62139  1  0  0  0
 62140  1  0  0  0
 63 65  1  0  0  0
 63141  1  0  0  0
 63142  1  0  0  0
 63143  1  0  0  0
 64144  1  0  0  0
 65145  1  0  0  0
 68 83  1  0  0  0
 71 73  2  0  0  0
 71 75  1  0  0  0
 71146  1  0  0  0
 72 74  2  0  0  0
 72 76  1  0  0  0
 72147  1  0  0  0
 73 74  1  0  0  0
 73 81  1  0  0  0
 74 82  1  0  0  0
 75 76  2  0  0  0
 75 84  1  0  0  0
 76 86  1  0  0  0
 77 78  1  0  0  0
 77 80  1  0  0  0
 77148  1  0  0  0
 77149  1  0  0  0
 78 85  1  0  0  0
 78150  1  0  0  0
 78151  1  0  0  0
 79 80  1  0  0  0
 79 85  1  0  0  0
 79152  1  0  0  0
 79153  1  0  0  0
 80 83  1  0  0  0
 80154  1  0  0  0
 81155  1  0  0  0
 81156  1  0  0  0
 81157  1  0  0  0
 82158  1  0  0  0
 82159  1  0  0  0
 82 85  1  0  0  0
 83160  1  0  0  0
 83161  1  0  0  0
 84162  1  0  0  0
 85163  1  0  0  0
M  CHG  1  85   1
M  ISO  4   1 100  68 101  83 101  84 100
M  END
> <chiral flag>
0

> <version>
0

> <s_m_source_file>
/data/baiqing/PycharmProjects/Reinvent-master-3.2/result/LINK_invent/BTK/process_docking_weight1_custom_product_contain_oxygen_bond_distance_aromatic_linkinvent_7_9_3/rearranged_h_0098.sdf

> <i_m_source_file_index>
21

> <r_mmod_Potential_Energy-OPLS-2005>
-135.189559936523

> <r_mmod_Stretch_Energy-OPLS-2005>
40.2036552429199

> <r_mmod_Bend_Energy-OPLS-2005>
120.344535827637

> <r_mmod_Torsional_Energy-OPLS-2005>
282.245147705078

> <r_mmod_Improper_Torsional_Energy-OPLS-2005>
5.43026065826416

> <r_mmod_Van_der_Waal_Energy-OPLS-2005>
156.807281494141

> <r_mmod_Electrostatic_Energy-OPLS-2005>
-311.07568359375

> <r_mmod_Solvation_Energy-OPLS-2005>
-444.536010742188

> <b_mmod_Minimization_Converged-OPLS-2005>
0

> <r_mmod_RMS_Derivative-OPLS-2005>
1.56607925891876

$$$$
21
                    3D
 Structure written by MMmdl.
156164  0  0  1  0            999 V2000
  -30.6983  -14.6510   20.4729 C   0  0  0  0  0  0
  -30.4076  -12.3989   19.4654 C   0  0  0  0  0  0
  -29.4961  -12.4917   18.2263 C   0  0  0  0  0  0
  -28.0222  -12.3350   18.6417 C   0  0  0  0  0  0
  -27.6397  -13.2338   19.8488 C   0  0  2  0  0  0
  -28.6864  -13.1690   20.9832 C   0  0  0  0  0  0
  -25.2502  -13.8210   20.5706 C   0  0  0  0  0  0
  -24.1796  -13.0449   20.9215 C   0  0  0  0  0  0
  -24.6390  -11.6928   20.8756 C   0  0  0  0  0  0
  -23.9071  -10.4299   21.0410 C   0  0  0  0  0  0
  -24.3622   -9.4212   21.9186 C   0  0  0  0  0  0
  -23.6298   -8.2247   22.0753 C   0  0  0  0  0  0
  -22.4279   -8.0284   21.3544 C   0  0  0  0  0  0
  -21.9915   -9.0258   20.4646 C   0  0  0  0  0  0
  -22.7244  -10.2139   20.3057 C   0  0  0  0  0  0
  -21.6856   -6.0738   22.5278 C   0  0  0  0  0  0
  -21.4017   -6.5642   23.8212 C   0  0  0  0  0  0
  -21.3658   -5.6794   24.9173 C   0  0  0  0  0  0
  -21.6044   -4.3057   24.7224 C   0  0  0  0  0  0
  -21.8820   -3.8149   23.4345 C   0  0  0  0  0  0
  -21.9193   -4.6965   22.3402 C   0  0  0  0  0  0
  -22.7817  -13.5227   21.1867 C   0  0  0  0  0  0
  -22.1663   -4.2152   21.0979 F   0  0  0  0  0  0
  -21.5625   -3.4539   25.7736 F   0  0  0  0  0  0
  -29.9933  -13.4756   20.3929 N   0  0  0  0  0  0
  -26.2929  -12.9425   20.3294 N   0  0  0  0  0  0
  -25.9322  -11.6564   20.5769 N   0  0  0  0  0  0
  -22.0464  -12.8214   22.0421 N   0  0  0  0  0  0
  -25.4183  -15.1935   20.4116 N   0  0  0  0  0  0
  -31.8925  -14.6331   20.1657 O   0  0  0  0  0  0
  -21.6644   -6.8880   21.4240 O   0  0  0  0  0  0
  -22.3500  -14.5531   20.6714 O   0  0  0  0  0  0
  -24.6255  -31.8600   23.2032 C   0  0  0  0  0  0
  -25.9105  -32.4782   23.8359 C   0  0  1  0  0  0
  -27.2143  -27.3219   20.1275 C   0  0  0  0  0  0
  -25.5924  -33.8584   24.2288 N   0  0  0  0  0  0
  -23.4190  -30.4842   21.5453 C   0  0  2  0  0  0
  -24.8652  -28.9399   20.1103 C   0  0  0  0  0  0
  -22.7472  -29.4627   22.4938 C   0  0  0  0  0  0
  -18.0287  -28.1383   22.8489 C   0  0  0  0  0  0
  -24.1489  -36.7293   23.2638 C   0  0  0  0  0  0
  -25.9595  -30.7936   21.3729 C   0  0  0  0  0  0
  -26.0339  -29.4211   20.7157 C   0  0  0  0  0  0
  -27.2164  -28.6240   20.7128 C   0  0  0  0  0  0
  -26.0314  -26.8943   19.4896 C   0  0  0  0  0  0
  -24.8656  -27.6822   19.4863 C   0  0  0  0  0  0
  -23.6333  -29.8197   20.1600 C   0  0  0  0  0  0
  -25.4113  -36.3088   24.0333 C   0  0  1  0  0  0
  -20.5886  -28.3685   23.1286 C   0  0  2  0  0  0
  -20.6777  -26.9409   22.5411 C   0  0  0  0  0  0
  -19.5754  -26.6384   21.5213 C   0  0  0  0  0  0
  -18.1933  -26.7927   22.1624 C   0  0  0  0  0  0
  -19.1539  -28.8851   23.2883 C   0  0  0  0  0  0
  -18.9461  -30.1452   23.8900 C   0  0  0  0  0  0
  -17.6460  -30.6586   24.0562 C   0  0  0  0  0  0
  -25.9050  -34.9455   23.5111 C   0  0  0  0  0  0
  -16.5352  -29.9084   23.6330 C   0  0  0  0  0  0
  -16.7273  -28.6500   23.0355 C   0  0  0  0  0  0
  -26.4494  -31.6587   25.0724 C   0  0  0  0  0  0
  -25.3731  -31.3716   26.1452 C   0  0  0  0  0  0
  -27.0333  -30.3014   24.6168 C   0  0  0  0  0  0
  -27.6065  -32.4311   25.7489 C   0  0  0  0  0  0
  -27.5582  -37.1801   24.8464 C   0  0  0  0  0  0
  -21.4186  -29.3039   22.3678 N   0  0  0  0  0  0
  -26.4292  -37.3782   23.9412 N   0  0  0  0  0  0
  -24.6868  -31.0622   22.0976 N   0  0  0  0  0  0
  -23.4198  -28.8166   23.3014 O   0  0  0  0  0  0
  -28.3070  -26.4490   20.1620 O   0  0  0  0  0  0
  -26.5617  -34.8919   22.4677 O   0  0  0  0  0  0
  -23.5421  -32.1392   23.7366 O   0  0  0  0  0  0
  -28.9207  -18.8498   21.5954 C   0  0  0  0  0  0
  -29.6191  -20.7528   19.6459 C   0  0  0  0  0  0
  -29.7973  -18.4244   20.5660 C   0  0  0  0  0  0
  -30.1050  -19.4084   19.5646 C   0  0  0  0  0  0
  -28.4377  -20.1916   21.6649 C   0  0  0  0  0  0
  -28.8043  -21.1904   20.7160 C   0  0  0  0  0  0
  -30.5929  -17.1022   20.6732 C   0  0  0  0  0  0
  -31.0033  -19.0650   18.3836 C   0  0  0  0  0  0
  -28.7029  -23.7841   20.1622 C   0  0  0  0  0  0
  -28.0611  -25.1176   20.7654 C   0  0  0  0  0  0
  -27.5902  -20.5528   22.7134 N   0  0  0  0  0  0
  -28.3494  -22.5378   20.9158 N   0  0  0  0  0  0
  -30.0217  -15.8443   20.6604 N   0  0  0  0  0  0
  -31.8142  -17.2678   20.7733 O   0  0  0  0  0  0
  -31.4536  -12.4700   19.1624 H   0  0  0  0  0  0
  -30.3072  -11.4244   19.9463 H   0  0  0  0  0  0
  -29.7639  -11.7225   17.5005 H   0  0  0  0  0  0
  -29.6417  -13.4510   17.7267 H   0  0  0  0  0  0
  -27.8659  -11.2864   18.8972 H   0  0  0  0  0  0
  -27.3665  -12.5408   17.7949 H   0  0  0  0  0  0
  -27.6359  -14.2558   19.4697 H   0  0  0  0  0  0
  -28.7011  -12.1807   21.4453 H   0  0  0  0  0  0
  -28.4400  -13.8760   21.7770 H   0  0  0  0  0  0
  -25.2766   -9.5692   22.4762 H   0  0  0  0  0  0
  -24.0009   -7.4638   22.7471 H   0  0  0  0  0  0
  -21.0847   -8.8778   19.8951 H   0  0  0  0  0  0
  -22.3702  -10.9678   19.6167 H   0  0  0  0  0  0
  -21.2013   -7.6151   23.9716 H   0  0  0  0  0  0
  -21.1476   -6.0524   25.9077 H   0  0  0  0  0  0
  -22.0600   -2.7610   23.2845 H   0  0  0  0  0  0
  -22.4086  -11.9878   22.4812 H   0  0  0  0  0  0
  -21.1078  -13.1229   22.2623 H   0  0  0  0  0  0
  -24.6480  -15.8443   20.5218 H   0  0  0  0  0  0
  -26.2603  -15.6348   20.0659 H   0  0  0  0  0  0
  -26.7174  -32.5455   23.1110 H   0  0  0  0  0  0
  -25.0079  -33.9731   25.0438 H   0  0  0  0  0  0
  -22.7124  -31.3047   21.4031 H   0  0  0  0  0  0
  -23.3754  -35.9622   23.3298 H   0  0  0  0  0  0
  -24.3584  -36.8913   22.2054 H   0  0  0  0  0  0
  -23.7235  -37.6494   23.6657 H   0  0  0  0  0  0
  -26.0887  -31.5570   20.6043 H   0  0  0  0  0  0
  -26.8411  -30.8433   22.0004 H   0  0  0  0  0  0
  -28.1135  -28.9856   21.1955 H   0  0  0  0  0  0
  -26.0002  -25.9271   19.0076 H   0  0  0  0  0  0
  -23.9709  -27.3098   19.0061 H   0  0  0  0  0  0
  -23.7522  -30.5967   19.4041 H   0  0  0  0  0  0
  -22.7534  -29.2492   19.8572 H   0  0  0  0  0  0
  -25.1291  -36.1946   25.0825 H   0  0  0  0  0  0
  -20.9982  -28.3259   24.1405 H   0  0  0  0  0  0
  -20.5682  -26.2293   23.3608 H   0  0  0  0  0  0
  -21.6645  -26.7445   22.1202 H   0  0  0  0  0  0
  -19.6914  -25.6296   21.1241 H   0  0  0  0  0  0
  -19.6692  -27.3197   20.6746 H   0  0  0  0  0  0
  -17.4204  -26.6677   21.4025 H   0  0  0  0  0  0
  -18.0331  -26.0067   22.9018 H   0  0  0  0  0  0
  -19.7938  -30.7268   24.2272 H   0  0  0  0  0  0
  -17.5016  -31.6270   24.5158 H   0  0  0  0  0  0
  -15.5353  -30.2988   23.7654 H   0  0  0  0  0  0
  -15.8673  -28.0819   22.7074 H   0  0  0  0  0  0
  -24.5920  -30.7048   25.7780 H   0  0  0  0  0  0
  -24.8902  -32.2874   26.4873 H   0  0  0  0  0  0
  -25.8060  -30.8902   27.0230 H   0  0  0  0  0  0
  -26.2901  -29.6767   24.1199 H   0  0  0  0  0  0
  -27.4041  -29.7268   25.4667 H   0  0  0  0  0  0
  -27.8767  -30.4301   23.9380 H   0  0  0  0  0  0
  -27.2694  -33.3615   26.2070 H   0  0  0  0  0  0
  -28.3875  -32.6859   25.0313 H   0  0  0  0  0  0
  -28.0733  -31.8428   26.5399 H   0  0  0  0  0  0
  -28.2597  -38.0103   24.7525 H   0  0  0  0  0  0
  -28.1082  -36.2636   24.6273 H   0  0  0  0  0  0
  -27.2302  -37.1430   25.8867 H   0  0  0  0  0  0
  -20.9360  -29.8754   21.6884 H   0  0  0  0  0  0
  -26.0175  -38.2856   24.1418 H   0  0  0  0  0  0
  -28.6753  -18.1521   22.3838 H   0  0  0  0  0  0
  -29.9081  -21.4654   18.8864 H   0  0  0  0  0  0
  -30.8931  -19.7895   17.5758 H   0  0  0  0  0  0
  -30.7570  -18.0856   17.9719 H   0  0  0  0  0  0
  -32.0513  -19.0598   18.6847 H   0  0  0  0  0  0
  -29.7889  -23.8850   20.1386 H   0  0  0  0  0  0
  -28.3809  -23.6680   19.1265 H   0  0  0  0  0  0
  -28.4119  -25.2071   21.7943 H   0  0  0  0  0  0
  -26.9907  -24.9371   20.8663 H   0  0  0  0  0  0
  -27.1579  -19.7892   23.2213 H   0  0  0  0  0  0
  -26.9047  -21.2599   22.4738 H   0  0  0  0  0  0
  -27.9577  -22.6815   21.8422 H   0  0  0  0  0  0
  -29.0185  -15.8031   20.7124 H   0  0  0  0  0  0
  1 25  1  0  0  0
  1 30  2  0  0  0
  1 83  1  0  0  0
  2  3  1  0  0  0
  2 25  1  0  0  0
  2 85  1  0  0  0
  2 86  1  0  0  0
  3  4  1  0  0  0
  3 87  1  0  0  0
  3 88  1  0  0  0
  4  5  1  0  0  0
  4 89  1  0  0  0
  4 90  1  0  0  0
  5  6  1  0  0  0
  5 26  1  0  0  0
  5 91  1  0  0  0
  6 25  1  0  0  0
  6 92  1  0  0  0
  6 93  1  0  0  0
  7  8  2  0  0  0
  7 26  1  0  0  0
  7 29  1  0  0  0
  8  9  1  0  0  0
  8 22  1  0  0  0
  9 10  1  0  0  0
  9 27  2  0  0  0
 10 11  2  0  0  0
 10 15  1  0  0  0
 11 12  1  0  0  0
 11 94  1  0  0  0
 12 13  2  0  0  0
 12 95  1  0  0  0
 13 14  1  0  0  0
 13 31  1  0  0  0
 14 15  2  0  0  0
 14 96  1  0  0  0
 15 97  1  0  0  0
 16 17  2  0  0  0
 16 21  1  0  0  0
 16 31  1  0  0  0
 17 18  1  0  0  0
 17 98  1  0  0  0
 18 19  2  0  0  0
 18 99  1  0  0  0
 19 20  1  0  0  0
 19 24  1  0  0  0
 20 21  2  0  0  0
 20100  1  0  0  0
 21 23  1  0  0  0
 22 28  1  0  0  0
 22 32  2  0  0  0
 26 27  1  0  0  0
 28101  1  0  0  0
 28102  1  0  0  0
 29103  1  0  0  0
 29104  1  0  0  0
 33 34  1  0  0  0
 33 66  1  0  0  0
 33 70  2  0  0  0
 34 36  1  0  0  0
 34 59  1  0  0  0
 34105  1  0  0  0
 35 44  2  0  0  0
 35 45  1  0  0  0
 35 68  1  0  0  0
 36 56  1  0  0  0
 36106  1  0  0  0
 37 39  1  0  0  0
 37 47  1  0  0  0
 37 66  1  0  0  0
 37107  1  0  0  0
 38 43  2  0  0  0
 38 46  1  0  0  0
 38 47  1  0  0  0
 39 64  1  0  0  0
 39 67  2  0  0  0
 40 52  1  0  0  0
 40 53  2  0  0  0
 40 58  1  0  0  0
 41108  1  0  0  0
 41109  1  0  0  0
 41110  1  0  0  0
 41 48  1  0  0  0
 42 43  1  0  0  0
 42 66  1  0  0  0
 42111  1  0  0  0
 42112  1  0  0  0
 43 44  1  0  0  0
 44113  1  0  0  0
 45 46  2  0  0  0
 45114  1  0  0  0
 46115  1  0  0  0
 47116  1  0  0  0
 47117  1  0  0  0
 48 56  1  0  0  0
 48 65  1  0  0  0
 48118  1  0  0  0
 49 50  1  0  0  0
 49 53  1  0  0  0
 49 64  1  0  0  0
 49119  1  0  0  0
 50 51  1  0  0  0
 50120  1  0  0  0
 50121  1  0  0  0
 51 52  1  0  0  0
 51122  1  0  0  0
 51123  1  0  0  0
 52124  1  0  0  0
 52125  1  0  0  0
 53 54  1  0  0  0
 54 55  2  0  0  0
 54126  1  0  0  0
 55 57  1  0  0  0
 55127  1  0  0  0
 56 69  2  0  0  0
 57 58  2  0  0  0
 57128  1  0  0  0
 58129  1  0  0  0
 59 60  1  0  0  0
 59 61  1  0  0  0
 59 62  1  0  0  0
 60130  1  0  0  0
 60131  1  0  0  0
 60132  1  0  0  0
 61133  1  0  0  0
 61134  1  0  0  0
 61135  1  0  0  0
 62136  1  0  0  0
 62137  1  0  0  0
 62138  1  0  0  0
 63 65  1  0  0  0
 63139  1  0  0  0
 63140  1  0  0  0
 63141  1  0  0  0
 64142  1  0  0  0
 65143  1  0  0  0
 68 80  1  0  0  0
 71 73  2  0  0  0
 71 75  1  0  0  0
 71144  1  0  0  0
 72 74  2  0  0  0
 72 76  1  0  0  0
 72145  1  0  0  0
 73 74  1  0  0  0
 73 77  1  0  0  0
 74 78  1  0  0  0
 75 76  2  0  0  0
 75 81  1  0  0  0
 76 82  1  0  0  0
 77 83  1  0  0  0
 77 84  2  0  0  0
 78146  1  0  0  0
 78147  1  0  0  0
 78148  1  0  0  0
 79 80  1  0  0  0
 79 82  1  0  0  0
 79149  1  0  0  0
 79150  1  0  0  0
 80151  1  0  0  0
 80152  1  0  0  0
 81153  1  0  0  0
 81154  1  0  0  0
 82155  1  0  0  0
 83156  1  0  0  0
M  ISO  4   1 100  68 101  80 101  83 100
M  END
> <chiral flag>
0

> <version>
0

> <s_m_source_file>
/data/baiqing/PycharmProjects/Reinvent-master-3.2/result/LINK_invent/BTK/process_docking_weight1_custom_product_contain_oxygen_bond_distance_aromatic_linkinvent_7_9_3/rearranged_h_0098.sdf

> <i_m_source_file_index>
22

> <r_mmod_Potential_Energy-OPLS-2005>
-43.565845489502

> <r_mmod_Stretch_Energy-OPLS-2005>
80.4621124267578

> <r_mmod_Bend_Energy-OPLS-2005>
157.167251586914

> <r_mmod_Torsional_Energy-OPLS-2005>
250.856262207031

> <r_mmod_Improper_Torsional_Energy-OPLS-2005>
12.6339378356934

> <r_mmod_Van_der_Waal_Energy-OPLS-2005>
158.529602050781

> <r_mmod_Electrostatic_Energy-OPLS-2005>
-518.965087890625

> <r_mmod_Solvation_Energy-OPLS-2005>
-242.079208374023

> <b_mmod_Minimization_Converged-OPLS-2005>
0

> <r_mmod_RMS_Derivative-OPLS-2005>
0.45791420340538

$$$$
22
                    3D
 Structure written by MMmdl.
163171  0  0  1  0            999 V2000
  -30.7166  -14.5469   20.3934 C   0  0  0  0  0  0
  -30.4182  -12.3111   19.4317 C   0  0  0  0  0  0
  -29.4781  -12.3934   18.2079 C   0  0  0  0  0  0
  -28.0038  -12.3103   18.6375 C   0  0  0  0  0  0
  -27.6489  -13.2188   19.8458 C   0  0  2  0  0  0
  -28.7085  -13.1299   20.9667 C   0  0  0  0  0  0
  -25.2570  -13.8206   20.5723 C   0  0  0  0  0  0
  -24.1836  -13.0464   20.9207 C   0  0  0  0  0  0
  -24.6411  -11.6932   20.8786 C   0  0  0  0  0  0
  -23.9087  -10.4299   21.0426 C   0  0  0  0  0  0
  -24.3632   -9.4197   21.9193 C   0  0  0  0  0  0
  -23.6300   -8.2239   22.0757 C   0  0  0  0  0  0
  -22.4279   -8.0291   21.3549 C   0  0  0  0  0  0
  -21.9924   -9.0268   20.4652 C   0  0  0  0  0  0
  -22.7263  -10.2145   20.3064 C   0  0  0  0  0  0
  -21.6856   -6.0742   22.5279 C   0  0  0  0  0  0
  -21.4016   -6.5641   23.8211 C   0  0  0  0  0  0
  -21.3656   -5.6793   24.9173 C   0  0  0  0  0  0
  -21.6047   -4.3058   24.7228 C   0  0  0  0  0  0
  -21.8813   -3.8150   23.4346 C   0  0  0  0  0  0
  -21.9191   -4.6967   22.3404 C   0  0  0  0  0  0
  -22.7849  -13.5238   21.1855 C   0  0  0  0  0  0
  -22.1659   -4.2146   21.0985 F   0  0  0  0  0  0
  -21.5624   -3.4542   25.7743 F   0  0  0  0  0  0
  -30.0223  -13.3768   20.3617 N   0  0  0  0  0  0
  -26.3001  -12.9400   20.3351 N   0  0  0  0  0  0
  -25.9341  -11.6552   20.5832 N   0  0  0  0  0  0
  -22.0502  -12.8227   22.0410 N   0  0  0  0  0  0
  -25.4302  -15.1930   20.4156 N   0  0  0  0  0  0
  -31.9472  -14.5744   20.3547 O   0  0  0  0  0  0
  -21.6644   -6.8890   21.4242 O   0  0  0  0  0  0
  -22.3525  -14.5537   20.6702 O   0  0  0  0  0  0
  -24.6152  -31.8683   23.2122 C   0  0  0  0  0  0
  -25.9044  -32.4824   23.8412 C   0  0  1  0  0  0
  -27.2254  -27.4061   20.0871 C   0  0  0  0  0  0
  -25.5913  -33.8632   24.2331 N   0  0  0  0  0  0
  -23.4039  -30.4941   21.5542 C   0  0  2  0  0  0
  -24.8472  -28.9680   20.1109 C   0  0  0  0  0  0
  -22.7424  -29.4644   22.4990 C   0  0  0  0  0  0
  -18.0277  -28.1370   22.8494 C   0  0  0  0  0  0
  -24.1496  -36.7309   23.2626 C   0  0  0  0  0  0
  -25.9381  -30.8233   21.3742 C   0  0  0  0  0  0
  -26.0107  -29.4593   20.7135 C   0  0  0  0  0  0
  -27.1959  -28.6837   20.7049 C   0  0  0  0  0  0
  -26.0326  -26.9442   19.4747 C   0  0  0  0  0  0
  -24.8554  -27.7111   19.4907 C   0  0  0  0  0  0
  -23.6121  -29.8370   20.1653 C   0  0  0  0  0  0
  -25.4121  -36.3114   24.0316 C   0  0  1  0  0  0
  -20.5875  -28.3652   23.1321 C   0  0  2  0  0  0
  -20.6773  -26.9383   22.5427 C   0  0  0  0  0  0
  -19.5747  -26.6369   21.5231 C   0  0  0  0  0  0
  -18.1922  -26.7914   22.1630 C   0  0  0  0  0  0
  -19.1529  -28.8828   23.2900 C   0  0  0  0  0  0
  -18.9449  -30.1445   23.8892 C   0  0  0  0  0  0
  -17.6448  -30.6575   24.0572 C   0  0  0  0  0  0
  -25.9043  -34.9476   23.5117 C   0  0  0  0  0  0
  -16.5338  -29.9075   23.6337 C   0  0  0  0  0  0
  -16.7263  -28.6502   23.0336 C   0  0  0  0  0  0
  -26.4468  -31.6592   25.0735 C   0  0  0  0  0  0
  -25.3737  -31.3706   26.1481 C   0  0  0  0  0  0
  -27.0278  -30.3020   24.6133 C   0  0  0  0  0  0
  -27.6054  -32.4306   25.7485 C   0  0  0  0  0  0
  -27.5584  -37.1804   24.8451 C   0  0  0  0  0  0
  -21.4148  -29.3013   22.3716 N   0  0  0  0  0  0
  -26.4301  -37.3800   23.9394 N   0  0  0  0  0  0
  -24.6707  -31.0760   22.1045 N   0  0  0  0  0  0
  -23.4187  -28.8170   23.3027 O   0  0  0  0  0  0
  -28.3961  -26.6592   20.1429 O   0  0  0  0  0  0
  -26.5593  -34.8911   22.4673 O   0  0  0  0  0  0
  -23.5337  -32.1452   23.7498 O   0  0  0  0  0  0
  -28.5566  -17.4874   19.7386 C   0  0  0  0  0  0
  -28.2652  -18.8233   20.0751 C   0  0  0  0  0  0
  -30.2746  -17.4219   21.4541 C   0  0  0  0  0  0
  -29.9751  -18.7672   21.8070 C   0  0  0  0  0  0
  -29.6061  -16.7849   20.3762 C   0  0  0  0  0  0
  -29.0063  -19.4993   21.0650 C   0  0  0  0  0  0
  -29.4573  -21.9516   21.0185 C   0  0  0  0  0  0
  -30.7156  -19.4065   22.9703 C   0  0  0  0  0  0
  -31.3679  -16.9746   18.0706 C   0  0  0  0  0  0
  -28.7502  -23.3276   20.9393 C   0  0  0  0  0  0
  -29.4597  -24.3765   20.0248 C   0  0  0  0  0  0
  -30.4654  -15.7497   18.3318 C   0  0  0  0  0  0
  -28.5379  -25.4442   19.3767 C   0  0  0  0  0  0
  -28.6843  -20.8766   21.2853 N   0  0  0  0  0  0
  -30.0753  -15.5713   19.7568 N   0  0  0  0  0  0
  -30.6781  -21.8800   20.8586 O   0  0  0  0  0  0
  -31.4596  -12.4043   19.1149 H   0  0  0  0  0  0
  -30.3326  -11.3386   19.9193 H   0  0  0  0  0  0
  -29.7019  -11.5772   17.5201 H   0  0  0  0  0  0
  -29.6297  -13.3022   17.6337 H   0  0  0  0  0  0
  -27.8087  -11.2678   18.8905 H   0  0  0  0  0  0
  -27.3537  -12.5420   17.7931 H   0  0  0  0  0  0
  -27.6536  -14.2421   19.4707 H   0  0  0  0  0  0
  -28.6901  -12.1510   21.4475 H   0  0  0  0  0  0
  -28.5026  -13.8700   21.7419 H   0  0  0  0  0  0
  -25.2774   -9.5652   22.4772 H   0  0  0  0  0  0
  -23.9998   -7.4620   22.7472 H   0  0  0  0  0  0
  -21.0852   -8.8802   19.8960 H   0  0  0  0  0  0
  -22.3731  -10.9691   19.6175 H   0  0  0  0  0  0
  -21.2010   -7.6150   23.9711 H   0  0  0  0  0  0
  -21.1484   -6.0531   25.9075 H   0  0  0  0  0  0
  -22.0597   -2.7612   23.2856 H   0  0  0  0  0  0
  -22.4143  -11.9892   22.4792 H   0  0  0  0  0  0
  -21.1119  -13.1241   22.2632 H   0  0  0  0  0  0
  -24.6732  -15.8554   20.5424 H   0  0  0  0  0  0
  -26.3031  -15.6320   20.1529 H   0  0  0  0  0  0
  -26.7112  -32.5519   23.1169 H   0  0  0  0  0  0
  -25.0097  -33.9821   25.0497 H   0  0  0  0  0  0
  -22.6917  -31.3114   21.4215 H   0  0  0  0  0  0
  -23.3761  -35.9643   23.3310 H   0  0  0  0  0  0
  -24.3590  -36.8905   22.2037 H   0  0  0  0  0  0
  -23.7258  -37.6514   23.6641 H   0  0  0  0  0  0
  -26.0657  -31.5976   20.6156 H   0  0  0  0  0  0
  -26.8207  -30.8635   22.0012 H   0  0  0  0  0  0
  -28.0901  -29.0607   21.1835 H   0  0  0  0  0  0
  -25.9463  -25.9915   18.9817 H   0  0  0  0  0  0
  -23.9587  -27.3281   19.0222 H   0  0  0  0  0  0
  -23.7227  -30.6200   19.4144 H   0  0  0  0  0  0
  -22.7346  -29.2618   19.8630 H   0  0  0  0  0  0
  -25.1317  -36.1972   25.0811 H   0  0  0  0  0  0
  -20.9982  -28.3219   24.1439 H   0  0  0  0  0  0
  -20.5719  -26.2245   23.3610 H   0  0  0  0  0  0
  -21.6633  -26.7442   22.1190 H   0  0  0  0  0  0
  -19.6915  -25.6291   21.1230 H   0  0  0  0  0  0
  -19.6695  -27.3220   20.6799 H   0  0  0  0  0  0
  -17.4203  -26.6680   21.4013 H   0  0  0  0  0  0
  -18.0291  -26.0063   22.9030 H   0  0  0  0  0  0
  -19.7923  -30.7283   24.2230 H   0  0  0  0  0  0
  -17.4997  -31.6255   24.5169 H   0  0  0  0  0  0
  -15.5335  -30.2972   23.7661 H   0  0  0  0  0  0
  -15.8666  -28.0838   22.7012 H   0  0  0  0  0  0
  -24.5920  -30.7043   25.7810 H   0  0  0  0  0  0
  -24.8917  -32.2864   26.4917 H   0  0  0  0  0  0
  -25.8082  -30.8877   27.0245 H   0  0  0  0  0  0
  -26.2818  -29.6809   24.1161 H   0  0  0  0  0  0
  -27.3978  -29.7232   25.4604 H   0  0  0  0  0  0
  -27.8711  -30.4296   23.9343 H   0  0  0  0  0  0
  -27.2686  -33.3597   26.2099 H   0  0  0  0  0  0
  -28.3837  -32.6881   25.0290 H   0  0  0  0  0  0
  -28.0768  -31.8415   26.5359 H   0  0  0  0  0  0
  -28.2597  -38.0104   24.7524 H   0  0  0  0  0  0
  -28.1082  -36.2636   24.6271 H   0  0  0  0  0  0
  -27.2287  -37.1452   25.8845 H   0  0  0  0  0  0
  -20.9294  -29.8749   21.6957 H   0  0  0  0  0  0
  -26.0179  -38.2863   24.1439 H   0  0  0  0  0  0
  -28.0176  -17.0348   18.9187 H   0  0  0  0  0  0
  -27.4996  -19.3473   19.5200 H   0  0  0  0  0  0
  -31.0785  -16.9118   21.9673 H   0  0  0  0  0  0
  -31.1258  -18.6519   23.6424 H   0  0  0  0  0  0
  -30.0439  -20.0329   23.5577 H   0  0  0  0  0  0
  -31.5379  -20.0276   22.6141 H   0  0  0  0  0  0
  -31.6915  -16.9982   17.0298 H   0  0  0  0  0  0
  -32.2645  -16.9440   18.6914 H   0  0  0  0  0  0
  -30.8571  -17.9173   18.2645 H   0  0  0  0  0  0
  -28.6262  -23.7297   21.9448 H   0  0  0  0  0  0
  -27.7440  -23.1483   20.5596 H   0  0  0  0  0  0
  -29.9280  -23.8360   19.2006 H   0  0  0  0  0  0
  -30.2813  -24.8589   20.5549 H   0  0  0  0  0  0
  -31.0192  -14.8883   17.9529 H   0  0  0  0  0  0
  -29.5699  -15.8112   17.7134 H   0  0  0  0  0  0
  -27.6129  -24.9350   19.1336 H   0  0  0  0  0  0
  -28.9710  -25.7404   18.4198 H   0  0  0  0  0  0
  -27.6987  -21.0865   21.3579 H   0  0  0  0  0  0
  1 25  1  0  0  0
  1 30  2  0  0  0
  1 85  1  0  0  0
  2  3  1  0  0  0
  2 25  1  0  0  0
  2 87  1  0  0  0
  2 88  1  0  0  0
  3  4  1  0  0  0
  3 89  1  0  0  0
  3 90  1  0  0  0
  4  5  1  0  0  0
  4 91  1  0  0  0
  4 92  1  0  0  0
  5  6  1  0  0  0
  5 26  1  0  0  0
  5 93  1  0  0  0
  6 25  1  0  0  0
  6 94  1  0  0  0
  6 95  1  0  0  0
  7  8  2  0  0  0
  7 26  1  0  0  0
  7 29  1  0  0  0
  8  9  1  0  0  0
  8 22  1  0  0  0
  9 10  1  0  0  0
  9 27  2  0  0  0
 10 11  2  0  0  0
 10 15  1  0  0  0
 11 12  1  0  0  0
 11 96  1  0  0  0
 12 13  2  0  0  0
 12 97  1  0  0  0
 13 14  1  0  0  0
 13 31  1  0  0  0
 14 15  2  0  0  0
 14 98  1  0  0  0
 15 99  1  0  0  0
 16 17  2  0  0  0
 16 21  1  0  0  0
 16 31  1  0  0  0
 17 18  1  0  0  0
 17100  1  0  0  0
 18 19  2  0  0  0
 18101  1  0  0  0
 19 20  1  0  0  0
 19 24  1  0  0  0
 20 21  2  0  0  0
 20102  1  0  0  0
 21 23  1  0  0  0
 22 28  1  0  0  0
 22 32  2  0  0  0
 26 27  1  0  0  0
 28103  1  0  0  0
 28104  1  0  0  0
 29105  1  0  0  0
 29106  1  0  0  0
 33 34  1  0  0  0
 33 66  1  0  0  0
 33 70  2  0  0  0
 34 36  1  0  0  0
 34 59  1  0  0  0
 34107  1  0  0  0
 35 44  2  0  0  0
 35 45  1  0  0  0
 35 68  1  0  0  0
 36 56  1  0  0  0
 36108  1  0  0  0
 37 39  1  0  0  0
 37 47  1  0  0  0
 37 66  1  0  0  0
 37109  1  0  0  0
 38 43  2  0  0  0
 38 46  1  0  0  0
 38 47  1  0  0  0
 39 64  1  0  0  0
 39 67  2  0  0  0
 40 52  1  0  0  0
 40 53  2  0  0  0
 40 58  1  0  0  0
 41110  1  0  0  0
 41111  1  0  0  0
 41112  1  0  0  0
 41 48  1  0  0  0
 42 43  1  0  0  0
 42 66  1  0  0  0
 42113  1  0  0  0
 42114  1  0  0  0
 43 44  1  0  0  0
 44115  1  0  0  0
 45 46  2  0  0  0
 45116  1  0  0  0
 46117  1  0  0  0
 47118  1  0  0  0
 47119  1  0  0  0
 48 56  1  0  0  0
 48 65  1  0  0  0
 48120  1  0  0  0
 49 50  1  0  0  0
 49 53  1  0  0  0
 49 64  1  0  0  0
 49121  1  0  0  0
 50 51  1  0  0  0
 50122  1  0  0  0
 50123  1  0  0  0
 51 52  1  0  0  0
 51124  1  0  0  0
 51125  1  0  0  0
 52126  1  0  0  0
 52127  1  0  0  0
 53 54  1  0  0  0
 54 55  2  0  0  0
 54128  1  0  0  0
 55 57  1  0  0  0
 55129  1  0  0  0
 56 69  2  0  0  0
 57 58  2  0  0  0
 57130  1  0  0  0
 58131  1  0  0  0
 59 60  1  0  0  0
 59 61  1  0  0  0
 59 62  1  0  0  0
 60132  1  0  0  0
 60133  1  0  0  0
 60134  1  0  0  0
 61135  1  0  0  0
 61136  1  0  0  0
 61137  1  0  0  0
 62138  1  0  0  0
 62139  1  0  0  0
 62140  1  0  0  0
 63 65  1  0  0  0
 63141  1  0  0  0
 63142  1  0  0  0
 63143  1  0  0  0
 64144  1  0  0  0
 65145  1  0  0  0
 68 83  1  0  0  0
 71 72  2  0  0  0
 71 75  1  0  0  0
 71146  1  0  0  0
 72 76  1  0  0  0
 72147  1  0  0  0
 73 74  1  0  0  0
 73 75  2  0  0  0
 73148  1  0  0  0
 74 76  2  0  0  0
 74 78  1  0  0  0
 75 85  1  0  0  0
 76 84  1  0  0  0
 77 80  1  0  0  0
 77 84  1  0  0  0
 77 86  2  0  0  0
 78149  1  0  0  0
 78150  1  0  0  0
 78151  1  0  0  0
 79 82  1  0  0  0
 79152  1  0  0  0
 79153  1  0  0  0
 79154  1  0  0  0
 80 81  1  0  0  0
 80155  1  0  0  0
 80156  1  0  0  0
 81 83  1  0  0  0
 81157  1  0  0  0
 81158  1  0  0  0
 82 85  1  0  0  0
 82159  1  0  0  0
 82160  1  0  0  0
 83161  1  0  0  0
 83162  1  0  0  0
 84163  1  0  0  0
M  ISO  4   1 100  68 101  83 101  85 100
M  END
> <chiral flag>
0

> <version>
0

> <s_m_source_file>
/data/baiqing/PycharmProjects/Reinvent-master-3.2/result/LINK_invent/BTK/process_docking_weight1_custom_product_contain_oxygen_bond_distance_aromatic_linkinvent_7_9_3/rearranged_h_0098.sdf

> <i_m_source_file_index>
23

> <r_mmod_Potential_Energy-OPLS-2005>
191.570205688477

> <r_mmod_Stretch_Energy-OPLS-2005>
46.9710464477539

> <r_mmod_Bend_Energy-OPLS-2005>
124.990867614746

> <r_mmod_Torsional_Energy-OPLS-2005>
351.444366455078

> <r_mmod_Improper_Torsional_Energy-OPLS-2005>
30.9217433929443

> <r_mmod_Van_der_Waal_Energy-OPLS-2005>
155.539566040039

> <r_mmod_Electrostatic_Energy-OPLS-2005>
-348.808532714844

> <r_mmod_Solvation_Energy-OPLS-2005>
-215.063354492188

> <b_mmod_Minimization_Converged-OPLS-2005>
0

> <r_mmod_RMS_Derivative-OPLS-2005>
1.83238065242767

$$$$
23
                    3D
 Structure written by MMmdl.
167176  0  0  1  0            999 V2000
  -30.3270  -15.5610   20.2944 C   0  0  0  0  0  0
  -30.4062  -13.0054   19.5554 C   0  0  0  0  0  0
  -29.5409  -12.6613   18.3104 C   0  0  0  0  0  0
  -28.0883  -12.3603   18.7108 C   0  0  0  0  0  0
  -27.5851  -13.3238   19.8153 C   0  0  2  0  0  0
  -28.6034  -13.6123   20.9420 C   0  0  0  0  0  0
  -25.2245  -13.8306   20.5815 C   0  0  0  0  0  0
  -24.1652  -13.0411   20.9269 C   0  0  0  0  0  0
  -24.6360  -11.6933   20.8694 C   0  0  0  0  0  0
  -23.9085  -10.4273   21.0320 C   0  0  0  0  0  0
  -24.3637   -9.4211   21.9143 C   0  0  0  0  0  0
  -23.6311   -8.2246   22.0726 C   0  0  0  0  0  0
  -22.4292   -8.0267   21.3529 C   0  0  0  0  0  0
  -21.9934   -9.0206   20.4598 C   0  0  0  0  0  0
  -22.7234  -10.2090   20.3001 C   0  0  0  0  0  0
  -21.6887   -6.0700   22.5276 C   0  0  0  0  0  0
  -21.4006   -6.5593   23.8198 C   0  0  0  0  0  0
  -21.3714   -5.6764   24.9183 C   0  0  0  0  0  0
  -21.6083   -4.3023   24.7232 C   0  0  0  0  0  0
  -21.8819   -3.8114   23.4344 C   0  0  0  0  0  0
  -21.9203   -4.6931   22.3393 C   0  0  0  0  0  0
  -22.7690  -13.5123   21.1965 C   0  0  0  0  0  0
  -22.1658   -4.2104   21.0964 F   0  0  0  0  0  0
  -21.5696   -3.4510   25.7743 F   0  0  0  0  0  0
  -29.8045  -14.1977   20.3040 N   0  0  0  0  0  0
  -26.2692  -12.9657   20.3209 N   0  0  0  0  0  0
  -25.9309  -11.6689   20.5627 N   0  0  0  0  0  0
  -22.0380  -12.8044   22.0505 N   0  0  0  0  0  0
  -25.3783  -15.2069   20.4331 N   0  0  0  0  0  0
  -31.5437  -15.5060   20.0452 O   0  0  0  0  0  0
  -21.6694   -6.8824   21.4211 O   0  0  0  0  0  0
  -22.3342  -14.5436   20.6814 O   0  0  0  0  0  0
  -24.6769  -31.8039   23.1568 C   0  0  0  0  0  0
  -25.9367  -32.4498   23.8068 C   0  0  1  0  0  0
  -27.2255  -26.7539   20.2027 C   0  0  0  0  0  0
  -25.5966  -33.8320   24.1946 N   0  0  0  0  0  0
  -23.4997  -30.4147   21.5102 C   0  0  2  0  0  0
  -24.9577  -28.7639   20.1219 C   0  0  0  0  0  0
  -22.7699  -29.4361   22.4680 C   0  0  0  0  0  0
  -18.0269  -28.1428   22.8420 C   0  0  0  0  0  0
  -24.1501  -36.7168   23.2665 C   0  0  0  0  0  0
  -26.0821  -30.5609   21.4135 C   0  0  0  0  0  0
  -26.1520  -29.1301   20.7584 C   0  0  0  0  0  0
  -27.2770  -28.1551   20.7583 C   0  0  0  0  0  0
  -25.9985  -26.5842   19.5167 C   0  0  0  0  0  0
  -24.9165  -27.5134   19.4815 C   0  0  0  0  0  0
  -23.7576  -29.7241   20.1427 C   0  0  0  0  0  0
  -25.4147  -36.2878   24.0273 C   0  0  1  0  0  0
  -20.5916  -28.3794   23.1126 C   0  0  2  0  0  0
  -20.6757  -26.9463   22.5401 C   0  0  0  0  0  0
  -19.5749  -26.6392   21.5196 C   0  0  0  0  0  0
  -18.1922  -26.7948   22.1595 C   0  0  0  0  0  0
  -19.1543  -28.8918   23.2774 C   0  0  0  0  0  0
  -18.9483  -30.1482   23.8864 C   0  0  0  0  0  0
  -17.6487  -30.6620   24.0552 C   0  0  0  0  0  0
  -25.9119  -34.9281   23.4937 C   0  0  0  0  0  0
  -16.5360  -29.9116   23.6363 C   0  0  0  0  0  0
  -16.7262  -28.6537   23.0374 C   0  0  0  0  0  0
  -26.4590  -31.6491   25.0653 C   0  0  0  0  0  0
  -25.3697  -31.3794   26.1291 C   0  0  0  0  0  0
  -27.0544  -30.2830   24.6549 C   0  0  0  0  0  0
  -27.6011  -32.4322   25.7531 C   0  0  0  0  0  0
  -27.5534  -37.1739   24.8438 C   0  0  0  0  0  0
  -21.4333  -29.3061   22.3455 N   0  0  0  0  0  0
  -26.4234  -37.3655   23.9398 N   0  0  0  0  0  0
  -24.7758  -30.9543   22.0811 N   0  0  0  0  0  0
  -23.4155  -28.7921   23.2985 O   0  0  0  0  0  0
  -28.2144  -25.5705   20.2062 O   0  0  0  0  0  0
  -26.5764  -34.8824   22.4553 O   0  0  0  0  0  0
  -23.5810  -32.1066   23.6590 O   0  0  0  0  0  0
  -30.8604  -18.2351   17.7127 C   0  0  0  0  0  0
  -31.4909  -20.0233   19.2205 C   0  0  0  0  0  0
  -31.7244  -18.7589   16.7322 C   0  0  0  0  0  0
  -32.3559  -20.5484   18.2445 C   0  0  0  0  0  0
  -30.6581  -18.9160   18.9413 C   0  0  0  0  0  0
  -32.4349  -19.9650   16.9560 C   0  0  0  0  0  0
  -33.4126  -20.2118   14.6595 C   0  0  0  0  0  0
  -33.6727  -21.3511   13.6904 C   0  0  0  0  0  0
  -33.6660  -22.5976   14.5739 C   0  0  0  0  0  0
  -33.3875  -22.0990   15.9947 C   0  0  0  0  0  0
  -28.2119  -18.4685   18.9334 C   0  0  0  0  0  0
  -28.8265  -22.1522   19.9665 C   0  0  0  0  0  0
  -28.9102  -20.3132   20.5490 C   0  0  0  0  0  0
  -28.0453  -23.8468   20.4252 C   0  0  0  0  0  0
  -29.4556  -18.5977   19.8531 C   0  0  2  0  0  0
  -33.1170  -20.6665   15.8983 N   0  0  0  0  0  0
  -29.5559  -16.9045   20.3831 N   0  0  0  0  0  0
  -33.5183  -19.0351   14.3019 O   0  0  0  0  0  0
  -31.4254  -13.2159   19.2296 H   0  0  0  0  0  0
  -30.4905  -12.1355   20.2059 H   0  0  0  0  0  0
  -29.9596  -11.8102   17.7706 H   0  0  0  0  0  0
  -29.5617  -13.5125   17.6271 H   0  0  0  0  0  0
  -28.0344  -11.3282   19.0546 H   0  0  0  0  0  0
  -27.4369  -12.4299   17.8363 H   0  0  0  0  0  0
  -27.4550  -14.2750   19.3006 H   0  0  0  0  0  0
  -28.8252  -12.7155   21.5189 H   0  0  0  0  0  0
  -28.1808  -14.3361   21.6412 H   0  0  0  0  0  0
  -25.2745   -9.5758   22.4772 H   0  0  0  0  0  0
  -24.0045   -7.4648   22.7441 H   0  0  0  0  0  0
  -21.0903   -8.8649   19.8869 H   0  0  0  0  0  0
  -22.3609  -10.9632   19.6158 H   0  0  0  0  0  0
  -21.1898   -7.6086   23.9658 H   0  0  0  0  0  0
  -21.1612   -6.0512   25.9084 H   0  0  0  0  0  0
  -22.0542   -2.7562   23.2868 H   0  0  0  0  0  0
  -22.4054  -11.9715   22.4884 H   0  0  0  0  0  0
  -21.0944  -13.0968   22.2650 H   0  0  0  0  0  0
  -24.6059  -15.8500   20.5582 H   0  0  0  0  0  0
  -26.2077  -15.6558   20.0712 H   0  0  0  0  0  0
  -26.7431  -32.4998   23.0767 H   0  0  0  0  0  0
  -24.9966  -33.9421   24.9987 H   0  0  0  0  0  0
  -22.8223  -31.2522   21.3305 H   0  0  0  0  0  0
  -23.3759  -35.9493   23.3226 H   0  0  0  0  0  0
  -24.3591  -36.8940   22.2105 H   0  0  0  0  0  0
  -23.7279  -37.6321   23.6821 H   0  0  0  0  0  0
  -26.2730  -31.2948   20.6296 H   0  0  0  0  0  0
  -26.9329  -30.6333   22.0785 H   0  0  0  0  0  0
  -28.1850  -28.4609   21.2630 H   0  0  0  0  0  0
  -25.8498  -25.6422   19.0069 H   0  0  0  0  0  0
  -24.0158  -27.2262   18.9574 H   0  0  0  0  0  0
  -23.9468  -30.5008   19.4014 H   0  0  0  0  0  0
  -22.8612  -29.2066   19.8005 H   0  0  0  0  0  0
  -25.1381  -36.1626   25.0771 H   0  0  0  0  0  0
  -20.9980  -28.3440   24.1244 H   0  0  0  0  0  0
  -20.5597  -26.2435   23.3670 H   0  0  0  0  0  0
  -21.6634  -26.7394   22.1236 H   0  0  0  0  0  0
  -19.6948  -25.6288   21.1270 H   0  0  0  0  0  0
  -19.6734  -27.3158   20.6698 H   0  0  0  0  0  0
  -17.4192  -26.6622   21.4008 H   0  0  0  0  0  0
  -18.0352  -26.0110   22.9027 H   0  0  0  0  0  0
  -19.7994  -30.7264   24.2256 H   0  0  0  0  0  0
  -17.5077  -31.6319   24.5150 H   0  0  0  0  0  0
  -15.5378  -30.3047   23.7747 H   0  0  0  0  0  0
  -15.8626  -28.0884   22.7138 H   0  0  0  0  0  0
  -24.5919  -30.7095   25.7605 H   0  0  0  0  0  0
  -24.8889  -32.3038   26.4506 H   0  0  0  0  0  0
  -25.7924  -30.9123   27.0193 H   0  0  0  0  0  0
  -26.3276  -29.6403   24.1580 H   0  0  0  0  0  0
  -27.4008  -29.7307   25.5286 H   0  0  0  0  0  0
  -27.9210  -30.3909   24.0024 H   0  0  0  0  0  0
  -27.2515  -33.3682   26.1884 H   0  0  0  0  0  0
  -28.3997  -32.6769   25.0515 H   0  0  0  0  0  0
  -28.0448  -31.8591   26.5683 H   0  0  0  0  0  0
  -28.2458  -38.0109   24.7493 H   0  0  0  0  0  0
  -28.1103  -36.2627   24.6233 H   0  0  0  0  0  0
  -27.2224  -37.1308   25.8822 H   0  0  0  0  0  0
  -20.9562  -29.8839   21.6672 H   0  0  0  0  0  0
  -26.0036  -38.2663   24.1478 H   0  0  0  0  0  0
  -30.2855  -17.3586   17.4556 H   0  0  0  0  0  0
  -31.4165  -20.5588   20.1564 H   0  0  0  0  0  0
  -31.7378  -18.2643   15.7700 H   0  0  0  0  0  0
  -32.8951  -21.4541   18.4896 H   0  0  0  0  0  0
  -32.8649  -21.3863   12.9583 H   0  0  0  0  0  0
  -34.6149  -21.2246   13.1570 H   0  0  0  0  0  0
  -32.8864  -23.2941   14.2630 H   0  0  0  0  0  0
  -34.6166  -23.1297   14.5208 H   0  0  0  0  0  0
  -32.5441  -22.6364   16.4309 H   0  0  0  0  0  0
  -34.2542  -22.2668   16.6312 H   0  0  0  0  0  0
  -28.0630  -19.3725   18.3396 H   0  0  0  0  0  0
  -27.3015  -18.3295   19.5205 H   0  0  0  0  0  0
  -28.2496  -17.6349   18.2336 H   0  0  0  0  0  0
  -28.4897  -22.0358   18.9341 H   0  0  0  0  0  0
  -29.8785  -22.4164   19.8418 H   0  0  0  0  0  0
  -27.9028  -20.1359   20.9237 H   0  0  0  0  0  0
  -29.5032  -20.3882   21.4629 H   0  0  0  0  0  0
  -28.0712  -23.8115   21.5145 H   0  0  0  0  0  0
  -26.9898  -23.7014   20.1889 H   0  0  0  0  0  0
  -28.6455  -16.6502   20.7373 H   0  0  0  0  0  0
  1 25  1  0  0  0
  1 30  2  0  0  0
  1 87  1  0  0  0
  2  3  1  0  0  0
  2 25  1  0  0  0
  2 89  1  0  0  0
  2 90  1  0  0  0
  3  4  1  0  0  0
  3 91  1  0  0  0
  3 92  1  0  0  0
  4  5  1  0  0  0
  4 93  1  0  0  0
  4 94  1  0  0  0
  5  6  1  0  0  0
  5 26  1  0  0  0
  5 95  1  0  0  0
  6 25  1  0  0  0
  6 96  1  0  0  0
  6 97  1  0  0  0
  7  8  2  0  0  0
  7 26  1  0  0  0
  7 29  1  0  0  0
  8  9  1  0  0  0
  8 22  1  0  0  0
  9 10  1  0  0  0
  9 27  2  0  0  0
 10 11  2  0  0  0
 10 15  1  0  0  0
 11 12  1  0  0  0
 11 98  1  0  0  0
 12 13  2  0  0  0
 12 99  1  0  0  0
 13 14  1  0  0  0
 13 31  1  0  0  0
 14 15  2  0  0  0
 14100  1  0  0  0
 15101  1  0  0  0
 16 17  2  0  0  0
 16 21  1  0  0  0
 16 31  1  0  0  0
 17 18  1  0  0  0
 17102  1  0  0  0
 18 19  2  0  0  0
 18103  1  0  0  0
 19 20  1  0  0  0
 19 24  1  0  0  0
 20 21  2  0  0  0
 20104  1  0  0  0
 21 23  1  0  0  0
 22 28  1  0  0  0
 22 32  2  0  0  0
 26 27  1  0  0  0
 28105  1  0  0  0
 28106  1  0  0  0
 29107  1  0  0  0
 29108  1  0  0  0
 33 34  1  0  0  0
 33 66  1  0  0  0
 33 70  2  0  0  0
 34 36  1  0  0  0
 34 59  1  0  0  0
 34109  1  0  0  0
 35 44  2  0  0  0
 35 45  1  0  0  0
 35 68  1  0  0  0
 36 56  1  0  0  0
 36110  1  0  0  0
 37 39  1  0  0  0
 37 47  1  0  0  0
 37 66  1  0  0  0
 37111  1  0  0  0
 38 43  2  0  0  0
 38 46  1  0  0  0
 38 47  1  0  0  0
 39 64  1  0  0  0
 39 67  2  0  0  0
 40 52  1  0  0  0
 40 53  2  0  0  0
 40 58  1  0  0  0
 41112  1  0  0  0
 41113  1  0  0  0
 41114  1  0  0  0
 41 48  1  0  0  0
 42 43  1  0  0  0
 42 66  1  0  0  0
 42115  1  0  0  0
 42116  1  0  0  0
 43 44  1  0  0  0
 44117  1  0  0  0
 45 46  2  0  0  0
 45118  1  0  0  0
 46119  1  0  0  0
 47120  1  0  0  0
 47121  1  0  0  0
 48 56  1  0  0  0
 48 65  1  0  0  0
 48122  1  0  0  0
 49 50  1  0  0  0
 49 53  1  0  0  0
 49 64  1  0  0  0
 49123  1  0  0  0
 50 51  1  0  0  0
 50124  1  0  0  0
 50125  1  0  0  0
 51 52  1  0  0  0
 51126  1  0  0  0
 51127  1  0  0  0
 52128  1  0  0  0
 52129  1  0  0  0
 53 54  1  0  0  0
 54 55  2  0  0  0
 54130  1  0  0  0
 55 57  1  0  0  0
 55131  1  0  0  0
 56 69  2  0  0  0
 57 58  2  0  0  0
 57132  1  0  0  0
 58133  1  0  0  0
 59 60  1  0  0  0
 59 61  1  0  0  0
 59 62  1  0  0  0
 60134  1  0  0  0
 60135  1  0  0  0
 60136  1  0  0  0
 61137  1  0  0  0
 61138  1  0  0  0
 61139  1  0  0  0
 62140  1  0  0  0
 62141  1  0  0  0
 62142  1  0  0  0
 63 65  1  0  0  0
 63143  1  0  0  0
 63144  1  0  0  0
 63145  1  0  0  0
 64146  1  0  0  0
 65147  1  0  0  0
 68 84  1  0  0  0
 71 73  2  0  0  0
 71 75  1  0  0  0
 71148  1  0  0  0
 72 74  1  0  0  0
 72 75  2  0  0  0
 72149  1  0  0  0
 73 76  1  0  0  0
 73150  1  0  0  0
 74 76  2  0  0  0
 74151  1  0  0  0
 75 85  1  0  0  0
 76 86  1  0  0  0
 77 78  1  0  0  0
 77 86  1  0  0  0
 77 88  2  0  0  0
 78 79  1  0  0  0
 78152  1  0  0  0
 78153  1  0  0  0
 79 80  1  0  0  0
 79154  1  0  0  0
 79155  1  0  0  0
 80 86  1  0  0  0
 80156  1  0  0  0
 80157  1  0  0  0
 81158  1  0  0  0
 81159  1  0  0  0
 81160  1  0  0  0
 81 85  1  0  0  0
 82 83  1  0  0  0
 82 84  1  0  0  0
 82161  1  0  0  0
 82162  1  0  0  0
 83 85  1  0  0  0
 83163  1  0  0  0
 83164  1  0  0  0
 84165  1  0  0  0
 84166  1  0  0  0
 85 87  1  0  0  0
 87167  1  0  0  0
M  ISO  4   1 100  68 101  84 101  87 100
M  END
> <chiral flag>
0

> <version>
0

> <s_m_source_file>
/data/baiqing/PycharmProjects/Reinvent-master-3.2/result/LINK_invent/BTK/process_docking_weight1_custom_product_contain_oxygen_bond_distance_aromatic_linkinvent_7_9_3/rearranged_h_0098.sdf

> <i_m_source_file_index>
24

> <r_mmod_Potential_Energy-OPLS-2005>
2428.8583984375

> <r_mmod_Stretch_Energy-OPLS-2005>
1124.41723632812

> <r_mmod_Bend_Energy-OPLS-2005>
688.4609375

> <r_mmod_Torsional_Energy-OPLS-2005>
307.859405517578

> <r_mmod_Improper_Torsional_Energy-OPLS-2005>
6.09431743621826

> <r_mmod_Van_der_Waal_Energy-OPLS-2005>
138.83088684082

> <r_mmod_Electrostatic_Energy-OPLS-2005>
-379.559051513672

> <r_mmod_Solvation_Energy-OPLS-2005>
-241.684509277344

> <b_mmod_Minimization_Converged-OPLS-2005>
0

> <r_mmod_RMS_Derivative-OPLS-2005>
6.3604793548584

$$$$
24
                    3D
 Structure written by MMmdl.
163171  0  0  1  0            999 V2000
  -30.7346  -14.4781   20.6001 C   0  0  0  0  0  0
  -30.4165  -12.3246   19.4222 C   0  0  0  0  0  0
  -29.4949  -12.5220   18.2044 C   0  0  0  0  0  0
  -28.0170  -12.3766   18.6152 C   0  0  0  0  0  0
  -27.6597  -13.2168   19.8707 C   0  0  2  0  0  0
  -28.7018  -13.0187   20.9939 C   0  0  0  0  0  0
  -25.2570  -13.8184   20.5692 C   0  0  0  0  0  0
  -24.1825  -13.0459   20.9182 C   0  0  0  0  0  0
  -24.6384  -11.6925   20.8712 C   0  0  0  0  0  0
  -23.9056  -10.4308   21.0388 C   0  0  0  0  0  0
  -24.3613   -9.4227   21.9167 C   0  0  0  0  0  0
  -23.6294   -8.2263   22.0753 C   0  0  0  0  0  0
  -22.4269   -8.0294   21.3560 C   0  0  0  0  0  0
  -21.9898   -9.0260   20.4653 C   0  0  0  0  0  0
  -22.7223  -10.2143   20.3050 C   0  0  0  0  0  0
  -21.6867   -6.0732   22.5282 C   0  0  0  0  0  0
  -21.4021   -6.5633   23.8216 C   0  0  0  0  0  0
  -21.3664   -5.6782   24.9172 C   0  0  0  0  0  0
  -21.6053   -4.3049   24.7224 C   0  0  0  0  0  0
  -21.8817   -3.8146   23.4337 C   0  0  0  0  0  0
  -21.9194   -4.6964   22.3398 C   0  0  0  0  0  0
  -22.7846  -13.5252   21.1844 C   0  0  0  0  0  0
  -22.1665   -4.2149   21.0973 F   0  0  0  0  0  0
  -21.5629   -3.4525   25.7733 F   0  0  0  0  0  0
  -30.0323  -13.3190   20.4399 N   0  0  0  0  0  0
  -26.3015  -12.9371   20.3352 N   0  0  0  0  0  0
  -25.9315  -11.6518   20.5728 N   0  0  0  0  0  0
  -22.0462  -12.8281   22.0409 N   0  0  0  0  0  0
  -25.4269  -15.1905   20.4150 N   0  0  0  0  0  0
  -31.8251  -14.6523   20.0523 O   0  0  0  0  0  0
  -21.6654   -6.8882   21.4251 O   0  0  0  0  0  0
  -22.3545  -14.5555   20.6666 O   0  0  0  0  0  0
  -24.6193  -31.8660   23.2093 C   0  0  0  0  0  0
  -25.9069  -32.4802   23.8391 C   0  0  1  0  0  0
  -27.2196  -27.4098   20.0992 C   0  0  0  0  0  0
  -25.5946  -33.8604   24.2328 N   0  0  0  0  0  0
  -23.4064  -30.4899   21.5535 C   0  0  2  0  0  0
  -24.8489  -28.9542   20.1131 C   0  0  0  0  0  0
  -22.7433  -29.4638   22.5016 C   0  0  0  0  0  0
  -18.0288  -28.1392   22.8467 C   0  0  0  0  0  0
  -24.1490  -36.7294   23.2636 C   0  0  0  0  0  0
  -25.9382  -30.8262   21.3632 C   0  0  0  0  0  0
  -26.0132  -29.4613   20.7054 C   0  0  0  0  0  0
  -27.2052  -28.6985   20.6880 C   0  0  0  0  0  0
  -26.0407  -26.9267   19.4920 C   0  0  0  0  0  0
  -24.8590  -27.6883   19.5033 C   0  0  0  0  0  0
  -23.6136  -29.8248   20.1678 C   0  0  0  0  0  0
  -25.4112  -36.3087   24.0344 C   0  0  1  0  0  0
  -20.5871  -28.3672   23.1329 C   0  0  2  0  0  0
  -20.6780  -26.9407   22.5392 C   0  0  0  0  0  0
  -19.5792  -26.6431   21.5158 C   0  0  0  0  0  0
  -18.1919  -26.8009   22.1483 C   0  0  0  0  0  0
  -19.1523  -28.8839   23.2914 C   0  0  0  0  0  0
  -18.9456  -30.1445   23.8919 C   0  0  0  0  0  0
  -17.6456  -30.6576   24.0568 C   0  0  0  0  0  0
  -25.9052  -34.9462   23.5122 C   0  0  0  0  0  0
  -16.5345  -29.9088   23.6325 C   0  0  0  0  0  0
  -16.7269  -28.6520   23.0317 C   0  0  0  0  0  0
  -26.4496  -31.6591   25.0720 C   0  0  0  0  0  0
  -25.3754  -31.3706   26.1460 C   0  0  0  0  0  0
  -27.0329  -30.3034   24.6091 C   0  0  0  0  0  0
  -27.6084  -32.4314   25.7474 C   0  0  0  0  0  0
  -27.5588  -37.1805   24.8470 C   0  0  0  0  0  0
  -21.4149  -29.3066   22.3769 N   0  0  0  0  0  0
  -26.4294  -37.3784   23.9421 N   0  0  0  0  0  0
  -24.6736  -31.0745   22.0998 N   0  0  0  0  0  0
  -23.4189  -28.8139   23.3037 O   0  0  0  0  0  0
  -28.3597  -26.6327   20.1223 O   0  0  0  0  0  0
  -26.5583  -34.8905   22.4661 O   0  0  0  0  0  0
  -23.5378  -32.1430   23.7467 O   0  0  0  0  0  0
  -28.6787  -20.0102   21.9985 C   0  0  0  0  0  0
  -30.5911  -18.7630   20.3689 C   0  0  0  0  0  0
  -29.0097  -18.6494   22.2151 C   0  0  0  0  0  0
  -30.0420  -18.0309   21.4519 C   0  0  0  0  0  0
  -30.2528  -20.1207   20.1620 C   0  0  0  0  0  0
  -29.3295  -20.7752   21.0091 C   0  0  0  0  0  0
  -28.2723  -17.8999   23.3127 C   0  0  0  0  0  0
  -32.2440  -16.8226   21.9057 C   0  0  0  0  0  0
  -28.5165  -24.1882   19.5329 C   0  0  0  0  0  0
  -28.2268  -22.7067   19.9308 C   0  0  0  0  0  0
  -28.1857  -25.2725   20.5942 C   0  0  0  0  0  0
  -30.7008  -16.7032   21.9036 C   0  0  2  0  0  0
  -30.8855  -20.8668   19.1725 N   0  0  0  0  0  0
  -29.1408  -22.1753   20.9441 N   0  0  0  0  0  0
  -30.1521  -15.4349   21.3562 N   0  0  0  0  0  0
  -31.4618  -12.4087   19.1212 H   0  0  0  0  0  0
  -30.3091  -11.3172   19.8270 H   0  0  0  0  0  0
  -29.7390  -11.8003   17.4227 H   0  0  0  0  0  0
  -29.6646  -13.5105   17.7746 H   0  0  0  0  0  0
  -27.8296  -11.3206   18.8100 H   0  0  0  0  0  0
  -27.3684  -12.6528   17.7829 H   0  0  0  0  0  0
  -27.6990  -14.2632   19.5659 H   0  0  0  0  0  0
  -28.6800  -11.9899   21.3556 H   0  0  0  0  0  0
  -28.4541  -13.6364   21.8575 H   0  0  0  0  0  0
  -25.2744   -9.5728   22.4746 H   0  0  0  0  0  0
  -24.0017   -7.4658   22.7469 H   0  0  0  0  0  0
  -21.0830   -8.8769   19.8946 H   0  0  0  0  0  0
  -22.3663  -10.9683   19.6169 H   0  0  0  0  0  0
  -21.2019   -7.6141   23.9725 H   0  0  0  0  0  0
  -21.1488   -6.0505   25.9080 H   0  0  0  0  0  0
  -22.0588   -2.7609   23.2834 H   0  0  0  0  0  0
  -22.4046  -11.9962   22.4858 H   0  0  0  0  0  0
  -21.1077  -13.1328   22.2570 H   0  0  0  0  0  0
  -24.6543  -15.8395   20.5137 H   0  0  0  0  0  0
  -26.2856  -15.6398   20.1223 H   0  0  0  0  0  0
  -26.7139  -32.5519   23.1154 H   0  0  0  0  0  0
  -25.0158  -33.9767   25.0510 H   0  0  0  0  0  0
  -22.6957  -31.3060   21.4128 H   0  0  0  0  0  0
  -23.3746  -35.9637   23.3295 H   0  0  0  0  0  0
  -24.3578  -36.8897   22.2050 H   0  0  0  0  0  0
  -23.7233  -37.6503   23.6631 H   0  0  0  0  0  0
  -26.0526  -31.5924   20.5948 H   0  0  0  0  0  0
  -26.8244  -30.8748   21.9853 H   0  0  0  0  0  0
  -28.1035  -29.0821   21.1507 H   0  0  0  0  0  0
  -26.0290  -25.9573   19.0117 H   0  0  0  0  0  0
  -23.9655  -27.2933   19.0412 H   0  0  0  0  0  0
  -23.7269  -30.6006   19.4095 H   0  0  0  0  0  0
  -22.7335  -29.2496   19.8711 H   0  0  0  0  0  0
  -25.1286  -36.1975   25.0843 H   0  0  0  0  0  0
  -20.9946  -28.3220   24.1467 H   0  0  0  0  0  0
  -20.5644  -26.2259   23.3530 H   0  0  0  0  0  0
  -21.6665  -26.7452   22.1205 H   0  0  0  0  0  0
  -19.6946  -25.6332   21.1192 H   0  0  0  0  0  0
  -19.6797  -27.3229   20.6694 H   0  0  0  0  0  0
  -17.4282  -26.6985   21.3756 H   0  0  0  0  0  0
  -18.0139  -26.0047   22.8729 H   0  0  0  0  0  0
  -19.7926  -30.7247   24.2299 H   0  0  0  0  0  0
  -17.4988  -31.6244   24.5202 H   0  0  0  0  0  0
  -15.5342  -30.2970   23.7639 H   0  0  0  0  0  0
  -15.8675  -28.0860   22.6965 H   0  0  0  0  0  0
  -24.5942  -30.7037   25.7786 H   0  0  0  0  0  0
  -24.8929  -32.2863   26.4903 H   0  0  0  0  0  0
  -25.8117  -30.8890   27.0214 H   0  0  0  0  0  0
  -26.2871  -29.6782   24.1158 H   0  0  0  0  0  0
  -27.4109  -29.7291   25.4557 H   0  0  0  0  0  0
  -27.8697  -30.4345   23.9216 H   0  0  0  0  0  0
  -27.2726  -33.3614   26.2072 H   0  0  0  0  0  0
  -28.3883  -32.6873   25.0288 H   0  0  0  0  0  0
  -28.0749  -31.8416   26.5377 H   0  0  0  0  0  0
  -28.2618  -38.0094   24.7513 H   0  0  0  0  0  0
  -28.1072  -36.2624   24.6304 H   0  0  0  0  0  0
  -27.2295  -37.1462   25.8870 H   0  0  0  0  0  0
  -20.9276  -29.8889   21.7098 H   0  0  0  0  0  0
  -26.0179  -38.2865   24.1415 H   0  0  0  0  0  0
  -27.9485  -20.4851   22.6396 H   0  0  0  0  0  0
  -31.3561  -18.3127   19.7524 H   0  0  0  0  0  0
  -27.3544  -18.4163   23.5966 H   0  0  0  0  0  0
  -28.8872  -17.7988   24.2071 H   0  0  0  0  0  0
  -27.9859  -16.9045   22.9730 H   0  0  0  0  0  0
  -32.5593  -17.6922   22.4863 H   0  0  0  0  0  0
  -32.6564  -16.9423   20.9027 H   0  0  0  0  0  0
  -32.7165  -15.9477   22.3512 H   0  0  0  0  0  0
  -27.9275  -24.4071   18.6429 H   0  0  0  0  0  0
  -29.5557  -24.2873   19.2216 H   0  0  0  0  0  0
  -28.2842  -22.0836   19.0360 H   0  0  0  0  0  0
  -27.2031  -22.6141   20.2972 H   0  0  0  0  0  0
  -28.8551  -25.1443   21.4429 H   0  0  0  0  0  0
  -27.1862  -25.0987   21.0000 H   0  0  0  0  0  0
  -30.4764  -16.6134   22.9663 H   0  0  0  0  0  0
  -30.4616  -21.7904   19.1188 H   0  0  0  0  0  0
  -30.9549  -20.4231   18.2636 H   0  0  0  0  0  0
  -28.9216  -22.5521   21.8609 H   0  0  0  0  0  0
  -29.2440  -15.1808   21.7131 H   0  0  0  0  0  0
  1 25  1  0  0  0
  1 30  2  0  0  0
  1 85  1  0  0  0
  2  3  1  0  0  0
  2 25  1  0  0  0
  2 86  1  0  0  0
  2 87  1  0  0  0
  3  4  1  0  0  0
  3 88  1  0  0  0
  3 89  1  0  0  0
  4  5  1  0  0  0
  4 90  1  0  0  0
  4 91  1  0  0  0
  5  6  1  0  0  0
  5 26  1  0  0  0
  5 92  1  0  0  0
  6 25  1  0  0  0
  6 93  1  0  0  0
  6 94  1  0  0  0
  7  8  2  0  0  0
  7 26  1  0  0  0
  7 29  1  0  0  0
  8  9  1  0  0  0
  8 22  1  0  0  0
  9 10  1  0  0  0
  9 27  2  0  0  0
 10 11  2  0  0  0
 10 15  1  0  0  0
 11 12  1  0  0  0
 11 95  1  0  0  0
 12 13  2  0  0  0
 12 96  1  0  0  0
 13 14  1  0  0  0
 13 31  1  0  0  0
 14 15  2  0  0  0
 14 97  1  0  0  0
 15 98  1  0  0  0
 16 17  2  0  0  0
 16 21  1  0  0  0
 16 31  1  0  0  0
 17 18  1  0  0  0
 17 99  1  0  0  0
 18 19  2  0  0  0
 18100  1  0  0  0
 19 20  1  0  0  0
 19 24  1  0  0  0
 20 21  2  0  0  0
 20101  1  0  0  0
 21 23  1  0  0  0
 22 28  1  0  0  0
 22 32  2  0  0  0
 26 27  1  0  0  0
 28102  1  0  0  0
 28103  1  0  0  0
 29104  1  0  0  0
 29105  1  0  0  0
 33 34  1  0  0  0
 33 66  1  0  0  0
 33 70  2  0  0  0
 34 36  1  0  0  0
 34 59  1  0  0  0
 34106  1  0  0  0
 35 44  2  0  0  0
 35 45  1  0  0  0
 35 68  1  0  0  0
 36 56  1  0  0  0
 36107  1  0  0  0
 37 39  1  0  0  0
 37 47  1  0  0  0
 37 66  1  0  0  0
 37108  1  0  0  0
 38 43  2  0  0  0
 38 46  1  0  0  0
 38 47  1  0  0  0
 39 64  1  0  0  0
 39 67  2  0  0  0
 40 52  1  0  0  0
 40 53  2  0  0  0
 40 58  1  0  0  0
 41109  1  0  0  0
 41110  1  0  0  0
 41111  1  0  0  0
 41 48  1  0  0  0
 42 43  1  0  0  0
 42 66  1  0  0  0
 42112  1  0  0  0
 42113  1  0  0  0
 43 44  1  0  0  0
 44114  1  0  0  0
 45 46  2  0  0  0
 45115  1  0  0  0
 46116  1  0  0  0
 47117  1  0  0  0
 47118  1  0  0  0
 48 56  1  0  0  0
 48 65  1  0  0  0
 48119  1  0  0  0
 49 50  1  0  0  0
 49 53  1  0  0  0
 49 64  1  0  0  0
 49120  1  0  0  0
 50 51  1  0  0  0
 50121  1  0  0  0
 50122  1  0  0  0
 51 52  1  0  0  0
 51123  1  0  0  0
 51124  1  0  0  0
 52125  1  0  0  0
 52126  1  0  0  0
 53 54  1  0  0  0
 54 55  2  0  0  0
 54127  1  0  0  0
 55 57  1  0  0  0
 55128  1  0  0  0
 56 69  2  0  0  0
 57 58  2  0  0  0
 57129  1  0  0  0
 58130  1  0  0  0
 59 60  1  0  0  0
 59 61  1  0  0  0
 59 62  1  0  0  0
 60131  1  0  0  0
 60132  1  0  0  0
 60133  1  0  0  0
 61134  1  0  0  0
 61135  1  0  0  0
 61136  1  0  0  0
 62137  1  0  0  0
 62138  1  0  0  0
 62139  1  0  0  0
 63 65  1  0  0  0
 63140  1  0  0  0
 63141  1  0  0  0
 63142  1  0  0  0
 64143  1  0  0  0
 65144  1  0  0  0
 68 81  1  0  0  0
 71 73  2  0  0  0
 71 76  1  0  0  0
 71145  1  0  0  0
 72 74  2  0  0  0
 72 75  1  0  0  0
 72146  1  0  0  0
 73 74  1  0  0  0
 73 77  1  0  0  0
 74 82  1  0  0  0
 75 76  2  0  0  0
 75 83  1  0  0  0
 76 84  1  0  0  0
 77147  1  0  0  0
 77148  1  0  0  0
 77149  1  0  0  0
 78150  1  0  0  0
 78151  1  0  0  0
 78152  1  0  0  0
 78 82  1  0  0  0
 79 80  1  0  0  0
 79 81  1  0  0  0
 79153  1  0  0  0
 79154  1  0  0  0
 80 84  1  0  0  0
 80155  1  0  0  0
 80156  1  0  0  0
 81157  1  0  0  0
 81158  1  0  0  0
 82 85  1  0  0  0
 82159  1  0  0  0
 83160  1  0  0  0
 83161  1  0  0  0
 84162  1  0  0  0
 85163  1  0  0  0
M  ISO  4   1 100  68 101  81 101  85 100
M  END
> <chiral flag>
0

> <version>
0

> <s_m_source_file>
/data/baiqing/PycharmProjects/Reinvent-master-3.2/result/LINK_invent/BTK/process_docking_weight1_custom_product_contain_oxygen_bond_distance_aromatic_linkinvent_7_9_3/rearranged_h_0098.sdf

> <i_m_source_file_index>
25

> <r_mmod_Potential_Energy-OPLS-2005>
-114.409332275391

> <r_mmod_Stretch_Energy-OPLS-2005>
44.4102058410645

> <r_mmod_Bend_Energy-OPLS-2005>
114.298065185547

> <r_mmod_Torsional_Energy-OPLS-2005>
253.667388916016

> <r_mmod_Improper_Torsional_Energy-OPLS-2005>
13.7180461883545

> <r_mmod_Van_der_Waal_Energy-OPLS-2005>
157.046310424805

> <r_mmod_Electrostatic_Energy-OPLS-2005>
-491.495666503906

> <r_mmod_Solvation_Energy-OPLS-2005>
-221.656295776367

> <b_mmod_Minimization_Converged-OPLS-2005>
0

> <r_mmod_RMS_Derivative-OPLS-2005>
3.21359491348267

$$$$
25
                    3D
 Structure written by MMmdl.
160169  0  0  1  0            999 V2000
  -30.6242  -14.6317   20.4617 C   0  0  0  0  0  0
  -30.4374  -12.3788   19.4392 C   0  0  0  0  0  0
  -29.5018  -12.4924   18.2151 C   0  0  0  0  0  0
  -28.0256  -12.3361   18.6341 C   0  0  0  0  0  0
  -27.6505  -13.2135   19.8591 C   0  0  2  0  0  0
  -28.7031  -13.0755   20.9827 C   0  0  0  0  0  0
  -25.2546  -13.8143   20.5731 C   0  0  0  0  0  0
  -24.1799  -13.0402   20.9163 C   0  0  0  0  0  0
  -24.6382  -11.6883   20.8718 C   0  0  0  0  0  0
  -23.9055  -10.4277   21.0384 C   0  0  0  0  0  0
  -24.3611   -9.4203   21.9171 C   0  0  0  0  0  0
  -23.6287   -8.2238   22.0750 C   0  0  0  0  0  0
  -22.4272   -8.0271   21.3535 C   0  0  0  0  0  0
  -21.9901   -9.0238   20.4633 C   0  0  0  0  0  0
  -22.7225  -10.2118   20.3035 C   0  0  0  0  0  0
  -21.6850   -6.0734   22.5281 C   0  0  0  0  0  0
  -21.4009   -6.5640   23.8213 C   0  0  0  0  0  0
  -21.3659   -5.6794   24.9176 C   0  0  0  0  0  0
  -21.6047   -4.3056   24.7225 C   0  0  0  0  0  0
  -21.8817   -3.8145   23.4346 C   0  0  0  0  0  0
  -21.9191   -4.6963   22.3404 C   0  0  0  0  0  0
  -22.7831  -13.5210   21.1854 C   0  0  0  0  0  0
  -22.1660   -4.2152   21.0978 F   0  0  0  0  0  0
  -21.5636   -3.4539   25.7737 F   0  0  0  0  0  0
  -30.0151  -13.4073   20.4068 N   0  0  0  0  0  0
  -26.2990  -12.9335   20.3352 N   0  0  0  0  0  0
  -25.9318  -11.6488   20.5756 N   0  0  0  0  0  0
  -22.0481  -12.8196   22.0402 N   0  0  0  0  0  0
  -25.4134  -15.1891   20.4349 N   0  0  0  0  0  0
  -31.8101  -14.7795   20.1548 O   0  0  0  0  0  0
  -21.6631   -6.8870   21.4239 O   0  0  0  0  0  0
  -22.3522  -14.5543   20.6742 O   0  0  0  0  0  0
  -24.6244  -31.8610   23.2041 C   0  0  0  0  0  0
  -25.9097  -32.4794   23.8360 C   0  0  1  0  0  0
  -27.2270  -27.3350   20.1105 C   0  0  0  0  0  0
  -25.5926  -33.8594   24.2296 N   0  0  0  0  0  0
  -23.4178  -30.4881   21.5427 C   0  0  2  0  0  0
  -24.8649  -28.9460   20.1094 C   0  0  0  0  0  0
  -22.7458  -29.4654   22.4891 C   0  0  0  0  0  0
  -18.0279  -28.1417   22.8483 C   0  0  0  0  0  0
  -24.1492  -36.7279   23.2640 C   0  0  0  0  0  0
  -25.9582  -30.7991   21.3709 C   0  0  0  0  0  0
  -26.0330  -29.4278   20.7125 C   0  0  0  0  0  0
  -27.2176  -28.6344   20.7025 C   0  0  0  0  0  0
  -26.0329  -26.9029   19.4873 C   0  0  0  0  0  0
  -24.8659  -27.6880   19.4890 C   0  0  0  0  0  0
  -23.6331  -29.8254   20.1575 C   0  0  0  0  0  0
  -25.4113  -36.3089   24.0343 C   0  0  1  0  0  0
  -20.5884  -28.3716   23.1265 C   0  0  2  0  0  0
  -20.6779  -26.9439   22.5392 C   0  0  0  0  0  0
  -19.5754  -26.6394   21.5207 C   0  0  0  0  0  0
  -18.1929  -26.7963   22.1615 C   0  0  0  0  0  0
  -19.1536  -28.8869   23.2890 C   0  0  0  0  0  0
  -18.9476  -30.1470   23.8919 C   0  0  0  0  0  0
  -17.6484  -30.6621   24.0568 C   0  0  0  0  0  0
  -25.9040  -34.9463   23.5116 C   0  0  0  0  0  0
  -16.5364  -29.9129   23.6343 C   0  0  0  0  0  0
  -16.7268  -28.6545   23.0355 C   0  0  0  0  0  0
  -26.4479  -31.6599   25.0722 C   0  0  0  0  0  0
  -25.3713  -31.3744   26.1445 C   0  0  0  0  0  0
  -27.0319  -30.3035   24.6155 C   0  0  0  0  0  0
  -27.6061  -32.4304   25.7483 C   0  0  0  0  0  0
  -27.5588  -37.1788   24.8470 C   0  0  0  0  0  0
  -21.4168  -29.3090   22.3662 N   0  0  0  0  0  0
  -26.4288  -37.3790   23.9431 N   0  0  0  0  0  0
  -24.6854  -31.0647   22.0968 N   0  0  0  0  0  0
  -23.4196  -28.8167   23.2940 O   0  0  0  0  0  0
  -28.3525  -26.4982   20.1581 O   0  0  0  0  0  0
  -26.5597  -34.8935   22.4670 O   0  0  0  0  0  0
  -23.5415  -32.1368   23.7397 O   0  0  0  0  0  0
  -31.1621  -19.2556   20.9027 C   0  0  0  0  0  0
  -31.1414  -17.8333   20.8264 C   0  0  0  0  0  0
  -28.8067  -19.3564   20.4260 C   0  0  0  0  0  0
  -29.9890  -20.0655   20.7693 C   0  0  0  0  0  0
  -29.9382  -17.1346   20.5729 C   0  0  0  0  0  0
  -28.7870  -17.9315   20.3245 C   0  0  0  0  0  0
  -30.7303  -21.9993   22.0810 C   0  0  0  0  0  0
  -30.9907  -23.5036   22.2228 C   0  0  0  0  0  0
  -29.7668  -24.3551   21.8909 C   0  0  0  0  0  0
  -29.0465  -22.4836   20.3405 C   0  0  0  0  0  0
  -29.3134  -24.0590   20.4652 C   0  0  1  0  0  0
  -28.1359  -25.0396   20.0503 C   0  0  0  0  0  0
  -30.0063  -21.5264   21.0220 N   0  0  0  0  0  0
  -27.6061  -17.2869   19.9548 N   0  0  0  0  0  0
  -29.7741  -15.6877   20.6229 N   0  0  0  0  0  0
  -31.2132  -21.2741   22.9580 O   0  0  0  0  0  0
  -31.4785  -12.5032   19.1349 H   0  0  0  0  0  0
  -30.3699  -11.3856   19.8862 H   0  0  0  0  0  0
  -29.7599  -11.7348   17.4740 H   0  0  0  0  0  0
  -29.6456  -13.4581   17.7267 H   0  0  0  0  0  0
  -27.8640  -11.2842   18.8724 H   0  0  0  0  0  0
  -27.3672  -12.5593   17.7935 H   0  0  0  0  0  0
  -27.6591  -14.2445   19.5082 H   0  0  0  0  0  0
  -28.7119  -12.0591   21.3792 H   0  0  0  0  0  0
  -28.4610  -13.7233   21.8267 H   0  0  0  0  0  0
  -25.2761   -9.5694   22.4735 H   0  0  0  0  0  0
  -24.0004   -7.4635   22.7470 H   0  0  0  0  0  0
  -21.0836   -8.8743   19.8936 H   0  0  0  0  0  0
  -22.3681  -10.9650   19.6138 H   0  0  0  0  0  0
  -21.1987   -7.6147   23.9718 H   0  0  0  0  0  0
  -21.1487   -6.0523   25.9080 H   0  0  0  0  0  0
  -22.0593   -2.7610   23.2841 H   0  0  0  0  0  0
  -22.4090  -11.9832   22.4750 H   0  0  0  0  0  0
  -21.1109  -13.1226   22.2638 H   0  0  0  0  0  0
  -24.6357  -15.8183   20.5946 H   0  0  0  0  0  0
  -26.2869  -15.6951   20.3056 H   0  0  0  0  0  0
  -26.7165  -32.5466   23.1114 H   0  0  0  0  0  0
  -25.0130  -33.9744   25.0481 H   0  0  0  0  0  0
  -22.7131  -31.3101   21.4008 H   0  0  0  0  0  0
  -23.3784  -35.9581   23.3273 H   0  0  0  0  0  0
  -24.3593  -36.8908   22.2059 H   0  0  0  0  0  0
  -23.7207  -37.6464   23.6655 H   0  0  0  0  0  0
  -26.0843  -31.5649   20.6039 H   0  0  0  0  0  0
  -26.8401  -30.8475   21.9973 H   0  0  0  0  0  0
  -28.1135  -29.0021   21.1827 H   0  0  0  0  0  0
  -25.9722  -25.9425   18.9967 H   0  0  0  0  0  0
  -23.9707  -27.3126   19.0131 H   0  0  0  0  0  0
  -23.7556  -30.6037   19.4036 H   0  0  0  0  0  0
  -22.7542  -29.2552   19.8503 H   0  0  0  0  0  0
  -25.1296  -36.1940   25.0839 H   0  0  0  0  0  0
  -20.9984  -28.3298   24.1381 H   0  0  0  0  0  0
  -20.5672  -26.2338   23.3597 H   0  0  0  0  0  0
  -21.6647  -26.7466   22.1184 H   0  0  0  0  0  0
  -19.6920  -25.6294   21.1260 H   0  0  0  0  0  0
  -19.6714  -27.3178   20.6724 H   0  0  0  0  0  0
  -17.4198  -26.6704   21.4021 H   0  0  0  0  0  0
  -18.0335  -26.0115   22.9020 H   0  0  0  0  0  0
  -19.7959  -30.7270   24.2304 H   0  0  0  0  0  0
  -17.5054  -31.6312   24.5154 H   0  0  0  0  0  0
  -15.5375  -30.3058   23.7670 H   0  0  0  0  0  0
  -15.8656  -28.0877   22.7073 H   0  0  0  0  0  0
  -24.5942  -30.7024   25.7777 H   0  0  0  0  0  0
  -24.8836  -32.2905   26.4785 H   0  0  0  0  0  0
  -25.8032  -30.9001   27.0267 H   0  0  0  0  0  0
  -26.2886  -29.6787   24.1186 H   0  0  0  0  0  0
  -27.4049  -29.7287   25.4643 H   0  0  0  0  0  0
  -27.8737  -30.4348   23.9355 H   0  0  0  0  0  0
  -27.2726  -33.3662   26.1975 H   0  0  0  0  0  0
  -28.3914  -32.6735   25.0312 H   0  0  0  0  0  0
  -28.0656  -31.8450   26.5456 H   0  0  0  0  0  0
  -28.2573  -38.0119   24.7556 H   0  0  0  0  0  0
  -28.1114  -36.2647   24.6235 H   0  0  0  0  0  0
  -27.2310  -37.1351   25.8873 H   0  0  0  0  0  0
  -20.9318  -29.8865   21.6933 H   0  0  0  0  0  0
  -26.0174  -38.2859   24.1467 H   0  0  0  0  0  0
  -32.1117  -19.7233   21.1245 H   0  0  0  0  0  0
  -32.0569  -17.2873   21.0017 H   0  0  0  0  0  0
  -27.8907  -19.9082   20.2718 H   0  0  0  0  0  0
  -31.8207  -23.7654   21.5665 H   0  0  0  0  0  0
  -31.3236  -23.7198   23.2387 H   0  0  0  0  0  0
  -30.0146  -25.4119   21.9993 H   0  0  0  0  0  0
  -28.9592  -24.1491   22.5953 H   0  0  0  0  0  0
  -28.9899  -22.2199   19.2838 H   0  0  0  0  0  0
  -28.0575  -22.2762   20.7513 H   0  0  0  0  0  0
  -30.1491  -24.2923   19.8030 H   0  0  0  0  0  0
  -27.2679  -24.7779   20.6585 H   0  0  0  0  0  0
  -27.8717  -24.8096   19.0172 H   0  0  0  0  0  0
  -26.8693  -17.9175   19.6565 H   0  0  0  0  0  0
  -27.7557  -16.5917   19.2325 H   0  0  0  0  0  0
  -28.8076  -15.4176   20.7168 H   0  0  0  0  0  0
  1 25  1  0  0  0
  1 30  2  0  0  0
  1 85  1  0  0  0
  2  3  1  0  0  0
  2 25  1  0  0  0
  2 87  1  0  0  0
  2 88  1  0  0  0
  3  4  1  0  0  0
  3 89  1  0  0  0
  3 90  1  0  0  0
  4  5  1  0  0  0
  4 91  1  0  0  0
  4 92  1  0  0  0
  5  6  1  0  0  0
  5 26  1  0  0  0
  5 93  1  0  0  0
  6 25  1  0  0  0
  6 94  1  0  0  0
  6 95  1  0  0  0
  7  8  2  0  0  0
  7 26  1  0  0  0
  7 29  1  0  0  0
  8  9  1  0  0  0
  8 22  1  0  0  0
  9 10  1  0  0  0
  9 27  2  0  0  0
 10 11  2  0  0  0
 10 15  1  0  0  0
 11 12  1  0  0  0
 11 96  1  0  0  0
 12 13  2  0  0  0
 12 97  1  0  0  0
 13 14  1  0  0  0
 13 31  1  0  0  0
 14 15  2  0  0  0
 14 98  1  0  0  0
 15 99  1  0  0  0
 16 17  2  0  0  0
 16 21  1  0  0  0
 16 31  1  0  0  0
 17 18  1  0  0  0
 17100  1  0  0  0
 18 19  2  0  0  0
 18101  1  0  0  0
 19 20  1  0  0  0
 19 24  1  0  0  0
 20 21  2  0  0  0
 20102  1  0  0  0
 21 23  1  0  0  0
 22 28  1  0  0  0
 22 32  2  0  0  0
 26 27  1  0  0  0
 28103  1  0  0  0
 28104  1  0  0  0
 29105  1  0  0  0
 29106  1  0  0  0
 33 34  1  0  0  0
 33 66  1  0  0  0
 33 70  2  0  0  0
 34 36  1  0  0  0
 34 59  1  0  0  0
 34107  1  0  0  0
 35 44  2  0  0  0
 35 45  1  0  0  0
 35 68  1  0  0  0
 36 56  1  0  0  0
 36108  1  0  0  0
 37 39  1  0  0  0
 37 47  1  0  0  0
 37 66  1  0  0  0
 37109  1  0  0  0
 38 43  2  0  0  0
 38 46  1  0  0  0
 38 47  1  0  0  0
 39 64  1  0  0  0
 39 67  2  0  0  0
 40 52  1  0  0  0
 40 53  2  0  0  0
 40 58  1  0  0  0
 41110  1  0  0  0
 41111  1  0  0  0
 41112  1  0  0  0
 41 48  1  0  0  0
 42 43  1  0  0  0
 42 66  1  0  0  0
 42113  1  0  0  0
 42114  1  0  0  0
 43 44  1  0  0  0
 44115  1  0  0  0
 45 46  2  0  0  0
 45116  1  0  0  0
 46117  1  0  0  0
 47118  1  0  0  0
 47119  1  0  0  0
 48 56  1  0  0  0
 48 65  1  0  0  0
 48120  1  0  0  0
 49 50  1  0  0  0
 49 53  1  0  0  0
 49 64  1  0  0  0
 49121  1  0  0  0
 50 51  1  0  0  0
 50122  1  0  0  0
 50123  1  0  0  0
 51 52  1  0  0  0
 51124  1  0  0  0
 51125  1  0  0  0
 52126  1  0  0  0
 52127  1  0  0  0
 53 54  1  0  0  0
 54 55  2  0  0  0
 54128  1  0  0  0
 55 57  1  0  0  0
 55129  1  0  0  0
 56 69  2  0  0  0
 57 58  2  0  0  0
 57130  1  0  0  0
 58131  1  0  0  0
 59 60  1  0  0  0
 59 61  1  0  0  0
 59 62  1  0  0  0
 60132  1  0  0  0
 60133  1  0  0  0
 60134  1  0  0  0
 61135  1  0  0  0
 61136  1  0  0  0
 61137  1  0  0  0
 62138  1  0  0  0
 62139  1  0  0  0
 62140  1  0  0  0
 63 65  1  0  0  0
 63141  1  0  0  0
 63142  1  0  0  0
 63143  1  0  0  0
 64144  1  0  0  0
 65145  1  0  0  0
 68 82  1  0  0  0
 71 72  2  0  0  0
 71 74  1  0  0  0
 71146  1  0  0  0
 72 75  1  0  0  0
 72147  1  0  0  0
 73 74  2  0  0  0
 73 76  1  0  0  0
 73148  1  0  0  0
 74 83  1  0  0  0
 75 76  2  0  0  0
 75 85  1  0  0  0
 76 84  1  0  0  0
 77 78  1  0  0  0
 77 83  1  0  0  0
 77 86  2  0  0  0
 78 79  1  0  0  0
 78149  1  0  0  0
 78150  1  0  0  0
 79 81  1  0  0  0
 79151  1  0  0  0
 79152  1  0  0  0
 80 81  1  0  0  0
 80 83  1  0  0  0
 80153  1  0  0  0
 80154  1  0  0  0
 81 82  1  0  0  0
 81155  1  0  0  0
 82156  1  0  0  0
 82157  1  0  0  0
 84158  1  0  0  0
 84159  1  0  0  0
 85160  1  0  0  0
M  ISO  4   1 100  68 101  82 101  85 100
M  END
> <chiral flag>
0

> <version>
0

> <s_m_source_file>
/data/baiqing/PycharmProjects/Reinvent-master-3.2/result/LINK_invent/BTK/process_docking_weight1_custom_product_contain_oxygen_bond_distance_aromatic_linkinvent_7_9_3/rearranged_h_0098.sdf

> <i_m_source_file_index>
26

> <r_mmod_Potential_Energy-OPLS-2005>
40.9131889343262

> <r_mmod_Stretch_Energy-OPLS-2005>
84.1154174804688

> <r_mmod_Bend_Energy-OPLS-2005>
136.44172668457

> <r_mmod_Torsional_Energy-OPLS-2005>
286.580596923828

> <r_mmod_Improper_Torsional_Energy-OPLS-2005>
12.3378562927246

> <r_mmod_Van_der_Waal_Energy-OPLS-2005>
164.841171264648

> <r_mmod_Electrostatic_Energy-OPLS-2005>
-467.493072509766

> <r_mmod_Solvation_Energy-OPLS-2005>
-222.039672851562

> <b_mmod_Minimization_Converged-OPLS-2005>
0

> <r_mmod_RMS_Derivative-OPLS-2005>
1.71051549911499

$$$$
26
                    3D
 Structure written by MMmdl.
156164  0  0  1  0            999 V2000
  -30.7559  -14.4239   20.5952 C   0  0  0  0  0  0
  -30.4040  -12.2980   19.4030 C   0  0  0  0  0  0
  -29.4779  -12.5065   18.1901 C   0  0  0  0  0  0
  -28.0027  -12.3638   18.6123 C   0  0  0  0  0  0
  -27.6540  -13.2110   19.8652 C   0  0  2  0  0  0
  -28.6999  -13.0112   20.9848 C   0  0  0  0  0  0
  -25.2579  -13.8183   20.5689 C   0  0  0  0  0  0
  -24.1842  -13.0453   20.9201 C   0  0  0  0  0  0
  -24.6396  -11.6922   20.8738 C   0  0  0  0  0  0
  -23.9078  -10.4299   21.0417 C   0  0  0  0  0  0
  -24.3620   -9.4211   21.9195 C   0  0  0  0  0  0
  -23.6299   -8.2245   22.0755 C   0  0  0  0  0  0
  -22.4287   -8.0287   21.3546 C   0  0  0  0  0  0
  -21.9929   -9.0261   20.4646 C   0  0  0  0  0  0
  -22.7252  -10.2140   20.3061 C   0  0  0  0  0  0
  -21.6852   -6.0751   22.5289 C   0  0  0  0  0  0
  -21.4005   -6.5657   23.8220 C   0  0  0  0  0  0
  -21.3644   -5.6815   24.9177 C   0  0  0  0  0  0
  -21.6048   -4.3070   24.7225 C   0  0  0  0  0  0
  -21.8816   -3.8169   23.4342 C   0  0  0  0  0  0
  -21.9189   -4.6991   22.3403 C   0  0  0  0  0  0
  -22.7871  -13.5234   21.1878 C   0  0  0  0  0  0
  -22.1669   -4.2176   21.0984 F   0  0  0  0  0  0
  -21.5624   -3.4551   25.7741 F   0  0  0  0  0  0
  -30.0253  -13.2930   20.4164 N   0  0  0  0  0  0
  -26.2992  -12.9362   20.3333 N   0  0  0  0  0  0
  -25.9311  -11.6511   20.5756 N   0  0  0  0  0  0
  -22.0516  -12.8194   22.0405 N   0  0  0  0  0  0
  -25.4333  -15.1892   20.4081 N   0  0  0  0  0  0
  -31.9070  -14.5292   20.1612 O   0  0  0  0  0  0
  -21.6629   -6.8895   21.4258 O   0  0  0  0  0  0
  -22.3562  -14.5545   20.6745 O   0  0  0  0  0  0
  -24.6127  -31.8691   23.2149 C   0  0  0  0  0  0
  -25.9018  -32.4829   23.8445 C   0  0  1  0  0  0
  -27.2347  -27.4575   20.1061 C   0  0  0  0  0  0
  -25.5905  -33.8633   24.2376 N   0  0  0  0  0  0
  -23.4020  -30.4905   21.5542 C   0  0  2  0  0  0
  -24.8483  -28.9604   20.1180 C   0  0  0  0  0  0
  -22.7407  -29.4663   22.5024 C   0  0  0  0  0  0
  -18.0257  -28.1359   22.8515 C   0  0  0  0  0  0
  -24.1474  -36.7297   23.2642 C   0  0  0  0  0  0
  -25.9276  -30.8443   21.3631 C   0  0  0  0  0  0
  -26.0069  -29.4809   20.7080 C   0  0  0  0  0  0
  -27.2061  -28.7377   20.6960 C   0  0  0  0  0  0
  -26.0641  -26.9407   19.5116 C   0  0  0  0  0  0
  -24.8694  -27.6878   19.5177 C   0  0  0  0  0  0
  -23.6080  -29.8236   20.1706 C   0  0  0  0  0  0
  -25.4102  -36.3114   24.0342 C   0  0  1  0  0  0
  -20.5856  -28.3667   23.1311 C   0  0  2  0  0  0
  -20.6759  -26.9401   22.5413 C   0  0  0  0  0  0
  -19.5741  -26.6385   21.5209 C   0  0  0  0  0  0
  -18.1909  -26.7921   22.1613 C   0  0  0  0  0  0
  -19.1514  -28.8820   23.2901 C   0  0  0  0  0  0
  -18.9443  -30.1429   23.8907 C   0  0  0  0  0  0
  -17.6451  -30.6579   24.0574 C   0  0  0  0  0  0
  -25.9034  -34.9475   23.5154 C   0  0  0  0  0  0
  -16.5338  -29.9092   23.6339 C   0  0  0  0  0  0
  -16.7253  -28.6495   23.0391 C   0  0  0  0  0  0
  -26.4483  -31.6599   25.0743 C   0  0  0  0  0  0
  -25.3751  -31.3654   26.1484 C   0  0  0  0  0  0
  -27.0371  -30.3064   24.6108 C   0  0  0  0  0  0
  -27.6074  -32.4336   25.7495 C   0  0  0  0  0  0
  -27.5584  -37.1779   24.8457 C   0  0  0  0  0  0
  -21.4141  -29.3028   22.3712 N   0  0  0  0  0  0
  -26.4285  -37.3805   23.9429 N   0  0  0  0  0  0
  -24.6656  -31.0821   22.1030 N   0  0  0  0  0  0
  -23.4157  -28.8201   23.3064 O   0  0  0  0  0  0
  -28.3892  -26.7174   20.1196 O   0  0  0  0  0  0
  -26.5596  -34.8905   22.4711 O   0  0  0  0  0  0
  -23.5309  -32.1443   23.7535 O   0  0  0  0  0  0
  -29.1797  -19.5825   19.4502 C   0  0  0  0  0  0
  -29.0850  -20.1186   21.8167 C   0  0  0  0  0  0
  -29.9377  -17.9261   21.0964 C   0  0  0  0  0  0
  -29.7114  -18.3053   19.7390 C   0  0  0  0  0  0
  -28.8849  -20.5060   20.4738 C   0  0  0  0  0  0
  -29.6096  -18.8437   22.1253 C   0  0  0  0  0  0
  -30.6592  -16.6486   21.4471 C   0  0  0  0  0  0
  -28.5141  -24.2594   20.1751 C   0  0  0  0  0  0
  -30.0814  -17.4127   18.5577 C   0  0  0  0  0  0
  -28.6231  -22.9420   20.9649 C   0  0  0  0  0  0
  -28.3247  -25.5611   20.9713 C   0  0  0  0  0  0
  -28.4078  -21.7750   20.1026 N   0  0  0  0  0  0
  -30.0847  -15.4908   21.0664 N   0  0  0  0  0  0
  -31.7556  -16.7173   22.0184 O   0  0  0  0  0  0
  -28.5741  -24.2532   18.9390 O   0  0  0  0  0  0
  -29.8075  -18.5169   23.4278 F   0  0  0  0  0  0
  -31.4462  -12.3770   19.0911 H   0  0  0  0  0  0
  -30.2906  -11.2897   19.8018 H   0  0  0  0  0  0
  -29.7120  -11.7864   17.4039 H   0  0  0  0  0  0
  -29.6432  -13.4951   17.7591 H   0  0  0  0  0  0
  -27.8210  -11.3086   18.8177 H   0  0  0  0  0  0
  -27.3442  -12.6289   17.7839 H   0  0  0  0  0  0
  -27.6933  -14.2543   19.5554 H   0  0  0  0  0  0
  -28.6725  -11.9868   21.3585 H   0  0  0  0  0  0
  -28.4725  -13.6434   21.8457 H   0  0  0  0  0  0
  -25.2757   -9.5678   22.4776 H   0  0  0  0  0  0
  -24.0018   -7.4623   22.7459 H   0  0  0  0  0  0
  -21.0873   -8.8775   19.8932 H   0  0  0  0  0  0
  -22.3728  -10.9687   19.6165 H   0  0  0  0  0  0
  -21.2000   -7.6166   23.9733 H   0  0  0  0  0  0
  -21.1471   -6.0537   25.9081 H   0  0  0  0  0  0
  -22.0606   -2.7639   23.2837 H   0  0  0  0  0  0
  -22.4151  -11.9825   22.4723 H   0  0  0  0  0  0
  -21.1132  -13.1210   22.2633 H   0  0  0  0  0  0
  -24.6654  -15.8438   20.5028 H   0  0  0  0  0  0
  -26.2832  -15.6249   20.0743 H   0  0  0  0  0  0
  -26.7097  -32.5548   23.1228 H   0  0  0  0  0  0
  -25.0090  -33.9831   25.0546 H   0  0  0  0  0  0
  -22.6892  -31.3043   21.4157 H   0  0  0  0  0  0
  -23.3747  -35.9614   23.3280 H   0  0  0  0  0  0
  -24.3575  -36.8945   22.2060 H   0  0  0  0  0  0
  -23.7193  -37.6469   23.6689 H   0  0  0  0  0  0
  -26.0363  -31.6127   20.5950 H   0  0  0  0  0  0
  -26.8150  -30.8946   21.9841 H   0  0  0  0  0  0
  -28.1034  -29.1416   21.1466 H   0  0  0  0  0  0
  -26.0752  -25.9650   19.0487 H   0  0  0  0  0  0
  -23.9757  -27.2808   19.0637 H   0  0  0  0  0  0
  -23.7117  -30.5977   19.4101 H   0  0  0  0  0  0
  -22.7324  -29.2377   19.8851 H   0  0  0  0  0  0
  -25.1269  -36.1984   25.0829 H   0  0  0  0  0  0
  -20.9948  -28.3250   24.1438 H   0  0  0  0  0  0
  -20.5668  -26.2280   23.3608 H   0  0  0  0  0  0
  -21.6627  -26.7446   22.1192 H   0  0  0  0  0  0
  -19.6908  -25.6296   21.1232 H   0  0  0  0  0  0
  -19.6674  -27.3199   20.6749 H   0  0  0  0  0  0
  -17.4183  -26.6698   21.3988 H   0  0  0  0  0  0
  -18.0254  -26.0031   22.8970 H   0  0  0  0  0  0
  -19.7923  -30.7250   24.2280 H   0  0  0  0  0  0
  -17.5006  -31.6270   24.5169 H   0  0  0  0  0  0
  -15.5335  -30.3004   23.7654 H   0  0  0  0  0  0
  -15.8648  -28.0815   22.7131 H   0  0  0  0  0  0
  -24.6034  -30.6874   25.7833 H   0  0  0  0  0  0
  -24.8795  -32.2750   26.4871 H   0  0  0  0  0  0
  -25.8126  -30.8926   27.0284 H   0  0  0  0  0  0
  -26.2939  -29.6726   24.1260 H   0  0  0  0  0  0
  -27.4275  -29.7387   25.4567 H   0  0  0  0  0  0
  -27.8683  -30.4422   23.9190 H   0  0  0  0  0  0
  -27.2755  -33.3708   26.1984 H   0  0  0  0  0  0
  -28.3916  -32.6773   25.0311 H   0  0  0  0  0  0
  -28.0682  -31.8490   26.5462 H   0  0  0  0  0  0
  -28.2561  -38.0123   24.7609 H   0  0  0  0  0  0
  -28.1136  -36.2654   24.6188 H   0  0  0  0  0  0
  -27.2304  -37.1306   25.8860 H   0  0  0  0  0  0
  -20.9274  -29.8729   21.6932 H   0  0  0  0  0  0
  -26.0155  -38.2870   24.1492 H   0  0  0  0  0  0
  -29.0308  -19.8657   18.4174 H   0  0  0  0  0  0
  -28.8572  -20.7917   22.6297 H   0  0  0  0  0  0
  -30.1263  -17.9839   17.6275 H   0  0  0  0  0  0
  -29.3410  -16.6232   18.4187 H   0  0  0  0  0  0
  -31.0626  -16.9531   18.6860 H   0  0  0  0  0  0
  -27.8945  -22.9494   21.7774 H   0  0  0  0  0  0
  -29.6116  -22.8989   21.4270 H   0  0  0  0  0  0
  -29.1028  -25.6403   21.7290 H   0  0  0  0  0  0
  -27.3740  -25.5093   21.5075 H   0  0  0  0  0  0
  -28.4442  -22.0100   19.1120 H   0  0  0  0  0  0
  -29.0823  -15.4670   20.9873 H   0  0  0  0  0  0
  1 25  1  0  0  0
  1 30  2  0  0  0
  1 83  1  0  0  0
  2  3  1  0  0  0
  2 25  1  0  0  0
  2 87  1  0  0  0
  2 88  1  0  0  0
  3  4  1  0  0  0
  3 89  1  0  0  0
  3 90  1  0  0  0
  4  5  1  0  0  0
  4 91  1  0  0  0
  4 92  1  0  0  0
  5  6  1  0  0  0
  5 26  1  0  0  0
  5 93  1  0  0  0
  6 25  1  0  0  0
  6 94  1  0  0  0
  6 95  1  0  0  0
  7  8  2  0  0  0
  7 26  1  0  0  0
  7 29  1  0  0  0
  8  9  1  0  0  0
  8 22  1  0  0  0
  9 10  1  0  0  0
  9 27  2  0  0  0
 10 11  2  0  0  0
 10 15  1  0  0  0
 11 12  1  0  0  0
 11 96  1  0  0  0
 12 13  2  0  0  0
 12 97  1  0  0  0
 13 14  1  0  0  0
 13 31  1  0  0  0
 14 15  2  0  0  0
 14 98  1  0  0  0
 15 99  1  0  0  0
 16 17  2  0  0  0
 16 21  1  0  0  0
 16 31  1  0  0  0
 17 18  1  0  0  0
 17100  1  0  0  0
 18 19  2  0  0  0
 18101  1  0  0  0
 19 20  1  0  0  0
 19 24  1  0  0  0
 20 21  2  0  0  0
 20102  1  0  0  0
 21 23  1  0  0  0
 22 28  1  0  0  0
 22 32  2  0  0  0
 26 27  1  0  0  0
 28103  1  0  0  0
 28104  1  0  0  0
 29105  1  0  0  0
 29106  1  0  0  0
 33 34  1  0  0  0
 33 66  1  0  0  0
 33 70  2  0  0  0
 34 36  1  0  0  0
 34 59  1  0  0  0
 34107  1  0  0  0
 35 44  2  0  0  0
 35 45  1  0  0  0
 35 68  1  0  0  0
 36 56  1  0  0  0
 36108  1  0  0  0
 37 39  1  0  0  0
 37 47  1  0  0  0
 37 66  1  0  0  0
 37109  1  0  0  0
 38 43  2  0  0  0
 38 46  1  0  0  0
 38 47  1  0  0  0
 39 64  1  0  0  0
 39 67  2  0  0  0
 40 52  1  0  0  0
 40 53  2  0  0  0
 40 58  1  0  0  0
 41110  1  0  0  0
 41111  1  0  0  0
 41112  1  0  0  0
 41 48  1  0  0  0
 42 43  1  0  0  0
 42 66  1  0  0  0
 42113  1  0  0  0
 42114  1  0  0  0
 43 44  1  0  0  0
 44115  1  0  0  0
 45 46  2  0  0  0
 45116  1  0  0  0
 46117  1  0  0  0
 47118  1  0  0  0
 47119  1  0  0  0
 48 56  1  0  0  0
 48 65  1  0  0  0
 48120  1  0  0  0
 49 50  1  0  0  0
 49 53  1  0  0  0
 49 64  1  0  0  0
 49121  1  0  0  0
 50 51  1  0  0  0
 50122  1  0  0  0
 50123  1  0  0  0
 51 52  1  0  0  0
 51124  1  0  0  0
 51125  1  0  0  0
 52126  1  0  0  0
 52127  1  0  0  0
 53 54  1  0  0  0
 54 55  2  0  0  0
 54128  1  0  0  0
 55 57  1  0  0  0
 55129  1  0  0  0
 56 69  2  0  0  0
 57 58  2  0  0  0
 57130  1  0  0  0
 58131  1  0  0  0
 59 60  1  0  0  0
 59 61  1  0  0  0
 59 62  1  0  0  0
 60132  1  0  0  0
 60133  1  0  0  0
 60134  1  0  0  0
 61135  1  0  0  0
 61136  1  0  0  0
 61137  1  0  0  0
 62138  1  0  0  0
 62139  1  0  0  0
 62140  1  0  0  0
 63 65  1  0  0  0
 63141  1  0  0  0
 63142  1  0  0  0
 63143  1  0  0  0
 64144  1  0  0  0
 65145  1  0  0  0
 68 81  1  0  0  0
 71 74  2  0  0  0
 71 75  1  0  0  0
 71146  1  0  0  0
 72 75  2  0  0  0
 72 76  1  0  0  0
 72147  1  0  0  0
 73 74  1  0  0  0
 73 76  2  0  0  0
 73 77  1  0  0  0
 74 79  1  0  0  0
 75 82  1  0  0  0
 76 86  1  0  0  0
 77 83  1  0  0  0
 77 84  2  0  0  0
 78 80  1  0  0  0
 78 81  1  0  0  0
 78 85  2  0  0  0
 79148  1  0  0  0
 79149  1  0  0  0
 79150  1  0  0  0
 80 82  1  0  0  0
 80151  1  0  0  0
 80152  1  0  0  0
 81153  1  0  0  0
 81154  1  0  0  0
 82155  1  0  0  0
 83156  1  0  0  0
M  ISO  4   1 100  68 101  81 101  83 100
M  END
> <chiral flag>
0

> <version>
0

> <s_m_source_file>
/data/baiqing/PycharmProjects/Reinvent-master-3.2/result/LINK_invent/BTK/process_docking_weight1_custom_product_contain_oxygen_bond_distance_aromatic_linkinvent_7_9_3/rearranged_h_0098.sdf

> <i_m_source_file_index>
27

> <r_mmod_Potential_Energy-OPLS-2005>
12.2316722869873

> <r_mmod_Stretch_Energy-OPLS-2005>
35.7087249755859

> <r_mmod_Bend_Energy-OPLS-2005>
94.6155548095703

> <r_mmod_Torsional_Energy-OPLS-2005>
270.920318603516

> <r_mmod_Improper_Torsional_Energy-OPLS-2005>
8.70365524291992

> <r_mmod_Van_der_Waal_Energy-OPLS-2005>
157.929321289062

> <r_mmod_Electrostatic_Energy-OPLS-2005>
-327.171264648438

> <r_mmod_Solvation_Energy-OPLS-2005>
-242.971710205078

> <b_mmod_Minimization_Converged-OPLS-2005>
0

> <r_mmod_RMS_Derivative-OPLS-2005>
3.38539266586304

$$$$
27
                    3D
 Structure written by MMmdl.
157165  0  0  1  0            999 V2000
  -30.8153  -14.3531   20.5915 C   0  0  0  0  0  0
  -30.3894  -12.2455   19.4222 C   0  0  0  0  0  0
  -29.4861  -12.5139   18.2068 C   0  0  0  0  0  0
  -28.0127  -12.3642   18.6220 C   0  0  0  0  0  0
  -27.6671  -13.2096   19.8778 C   0  0  2  0  0  0
  -28.7081  -13.0209   21.0076 C   0  0  0  0  0  0
  -25.2626  -13.8182   20.5732 C   0  0  0  0  0  0
  -24.1866  -13.0458   20.9172 C   0  0  0  0  0  0
  -24.6412  -11.6921   20.8735 C   0  0  0  0  0  0
  -23.9066  -10.4314   21.0384 C   0  0  0  0  0  0
  -24.3620   -9.4230   21.9153 C   0  0  0  0  0  0
  -23.6289   -8.2267   22.0742 C   0  0  0  0  0  0
  -22.4271   -8.0315   21.3534 C   0  0  0  0  0  0
  -21.9912   -9.0273   20.4630 C   0  0  0  0  0  0
  -22.7241  -10.2149   20.3025 C   0  0  0  0  0  0
  -21.6851   -6.0759   22.5259 C   0  0  0  0  0  0
  -21.4021   -6.5651   23.8202 C   0  0  0  0  0  0
  -21.3660   -5.6802   24.9152 C   0  0  0  0  0  0
  -21.6025   -4.3059   24.7211 C   0  0  0  0  0  0
  -21.8822   -3.8161   23.4332 C   0  0  0  0  0  0
  -21.9205   -4.6976   22.3396 C   0  0  0  0  0  0
  -22.7882  -13.5227   21.1842 C   0  0  0  0  0  0
  -22.1671   -4.2173   21.0962 F   0  0  0  0  0  0
  -21.5618   -3.4546   25.7709 F   0  0  0  0  0  0
  -30.0538  -13.2407   20.4494 N   0  0  0  0  0  0
  -26.3075  -12.9358   20.3414 N   0  0  0  0  0  0
  -25.9341  -11.6504   20.5818 N   0  0  0  0  0  0
  -22.0540  -12.8196   22.0402 N   0  0  0  0  0  0
  -25.4391  -15.1909   20.4141 N   0  0  0  0  0  0
  -31.8614  -14.5326   19.9703 O   0  0  0  0  0  0
  -21.6648   -6.8905   21.4226 O   0  0  0  0  0  0
  -22.3558  -14.5530   20.6703 O   0  0  0  0  0  0
  -24.6083  -31.8682   23.2149 C   0  0  0  0  0  0
  -25.9003  -32.4841   23.8394 C   0  0  1  0  0  0
  -27.2379  -27.4784   20.0690 C   0  0  0  0  0  0
  -25.5896  -33.8643   24.2331 N   0  0  0  0  0  0
  -23.3906  -30.4985   21.5498 C   0  0  2  0  0  0
  -24.8380  -28.9625   20.1185 C   0  0  0  0  0  0
  -22.7341  -29.4680   22.4940 C   0  0  0  0  0  0
  -18.0213  -28.1345   22.8540 C   0  0  0  0  0  0
  -24.1498  -36.7334   23.2632 C   0  0  0  0  0  0
  -25.9198  -30.8416   21.3646 C   0  0  0  0  0  0
  -25.9924  -29.4809   20.7147 C   0  0  0  0  0  0
  -27.1897  -28.7381   20.6981 C   0  0  0  0  0  0
  -26.0616  -26.9594   19.4790 C   0  0  0  0  0  0
  -24.8618  -27.6936   19.5123 C   0  0  0  0  0  0
  -23.6038  -29.8314   20.1634 C   0  0  0  0  0  0
  -25.4119  -36.3129   24.0329 C   0  0  1  0  0  0
  -20.5830  -28.3651   23.1302 C   0  0  2  0  0  0
  -20.6729  -26.9393   22.5388 C   0  0  0  0  0  0
  -19.5657  -26.6278   21.5262 C   0  0  0  0  0  0
  -18.1835  -26.7904   22.1649 C   0  0  0  0  0  0
  -19.1500  -28.8811   23.2902 C   0  0  0  0  0  0
  -18.9451  -30.1435   23.8915 C   0  0  0  0  0  0
  -17.6490  -30.6587   24.0614 C   0  0  0  0  0  0
  -25.9042  -34.9499   23.5124 C   0  0  0  0  0  0
  -16.5358  -29.9106   23.6387 C   0  0  0  0  0  0
  -16.7228  -28.6507   23.0413 C   0  0  0  0  0  0
  -26.4497  -31.6658   25.0730 C   0  0  0  0  0  0
  -25.3777  -31.3664   26.1463 C   0  0  0  0  0  0
  -27.0268  -30.3102   24.6086 C   0  0  0  0  0  0
  -27.6137  -32.4318   25.7498 C   0  0  0  0  0  0
  -27.5590  -37.1850   24.8474 C   0  0  0  0  0  0
  -21.4060  -29.3037   22.3696 N   0  0  0  0  0  0
  -26.4309  -37.3817   23.9415 N   0  0  0  0  0  0
  -24.6571  -31.0847   22.1011 N   0  0  0  0  0  0
  -23.4123  -28.8239   23.2986 O   0  0  0  0  0  0
  -28.4551  -26.8371   20.0563 O   0  0  0  0  0  0
  -26.5598  -34.8957   22.4674 O   0  0  0  0  0  0
  -23.5317  -32.1382   23.7633 O   0  0  0  0  0  0
  -28.6289  -18.7298   23.5695 C   0  0  0  0  0  0
  -29.4983  -17.6737   23.2363 C   0  0  0  0  0  0
  -28.4207  -19.7832   22.6566 C   0  0  0  0  0  0
  -29.8730  -18.6839   21.0456 C   0  0  0  0  0  0
  -30.1204  -17.6567   21.9763 C   0  0  0  0  0  0
  -29.0668  -19.7800   21.3945 C   0  0  0  0  0  0
  -31.0725  -16.5483   21.6207 C   0  0  0  0  0  0
  -28.1624  -24.4529   20.2501 C   0  0  0  0  0  0
  -28.8223  -23.1186   19.8877 C   0  0  0  0  0  0
  -28.6203  -25.6111   19.3582 C   0  0  0  0  0  0
  -28.5349  -22.0569   20.9480 C   0  0  0  0  0  0
  -30.3742  -15.2822   21.4375 N   0  0  0  0  0  0
  -28.9795  -20.7971   20.4731 O   0  0  0  0  0  0
  -31.4414  -12.2659   19.1349 H   0  0  0  0  0  0
  -30.2112  -11.2440   19.8184 H   0  0  0  0  0  0
  -29.7241  -11.8297   17.3904 H   0  0  0  0  0  0
  -29.6661  -13.5248   17.8318 H   0  0  0  0  0  0
  -27.8238  -11.3065   18.8188 H   0  0  0  0  0  0
  -27.3581  -12.6441   17.7963 H   0  0  0  0  0  0
  -27.7084  -14.2556   19.5731 H   0  0  0  0  0  0
  -28.6533  -12.0147   21.4259 H   0  0  0  0  0  0
  -28.4821  -13.6941   21.8340 H   0  0  0  0  0  0
  -25.2771   -9.5721   22.4727 H   0  0  0  0  0  0
  -24.0009   -7.4663   22.7460 H   0  0  0  0  0  0
  -21.0868   -8.8790   19.8937 H   0  0  0  0  0  0
  -22.3699  -10.9686   19.6158 H   0  0  0  0  0  0
  -21.2029   -7.6163   23.9705 H   0  0  0  0  0  0
  -21.1461   -6.0532   25.9057 H   0  0  0  0  0  0
  -22.0613   -2.7635   23.2812 H   0  0  0  0  0  0
  -22.4159  -11.9818   22.4701 H   0  0  0  0  0  0
  -21.1164  -13.1210   22.2659 H   0  0  0  0  0  0
  -24.6803  -15.8561   20.5117 H   0  0  0  0  0  0
  -26.3031  -15.6216   20.1087 H   0  0  0  0  0  0
  -26.7046  -32.5569   23.1128 H   0  0  0  0  0  0
  -25.0051  -33.9812   25.0483 H   0  0  0  0  0  0
  -22.6723  -31.3099   21.4061 H   0  0  0  0  0  0
  -23.3765  -35.9668   23.3331 H   0  0  0  0  0  0
  -24.3560  -36.8920   22.2040 H   0  0  0  0  0  0
  -23.7290  -37.6568   23.6609 H   0  0  0  0  0  0
  -26.0331  -31.6066   20.5946 H   0  0  0  0  0  0
  -26.8104  -30.8874   21.9813 H   0  0  0  0  0  0
  -28.0859  -29.1375   21.1511 H   0  0  0  0  0  0
  -26.0525  -26.0008   18.9807 H   0  0  0  0  0  0
  -23.9657  -27.2892   19.0584 H   0  0  0  0  0  0
  -23.7307  -30.6103   19.4107 H   0  0  0  0  0  0
  -22.7272  -29.2632   19.8477 H   0  0  0  0  0  0
  -25.1327  -36.1972   25.0831 H   0  0  0  0  0  0
  -20.9941  -28.3210   24.1431 H   0  0  0  0  0  0
  -20.5754  -26.2278   23.3578 H   0  0  0  0  0  0
  -21.6553  -26.7424   22.1083 H   0  0  0  0  0  0
  -19.6795  -25.6139   21.1376 H   0  0  0  0  0  0
  -19.6626  -27.3085   20.6774 H   0  0  0  0  0  0
  -17.4127  -26.6720   21.3995 H   0  0  0  0  0  0
  -18.0124  -26.0045   22.9018 H   0  0  0  0  0  0
  -19.7977  -30.7249   24.2165 H   0  0  0  0  0  0
  -17.5107  -31.6247   24.5286 H   0  0  0  0  0  0
  -15.5376  -30.3041   23.7692 H   0  0  0  0  0  0
  -15.8611  -28.0860   22.7106 H   0  0  0  0  0  0
  -24.6008  -30.6979   25.7737 H   0  0  0  0  0  0
  -24.8888  -32.2749   26.4985 H   0  0  0  0  0  0
  -25.8161  -30.8766   27.0168 H   0  0  0  0  0  0
  -26.2728  -29.6903   24.1214 H   0  0  0  0  0  0
  -27.4073  -29.7345   25.4541 H   0  0  0  0  0  0
  -27.8593  -30.4413   23.9164 H   0  0  0  0  0  0
  -27.2842  -33.3601   26.2178 H   0  0  0  0  0  0
  -28.3943  -32.6891   25.0322 H   0  0  0  0  0  0
  -28.0802  -31.8327   26.5337 H   0  0  0  0  0  0
  -28.2665  -38.0096   24.7489 H   0  0  0  0  0  0
  -28.1030  -36.2642   24.6340 H   0  0  0  0  0  0
  -27.2283  -37.1569   25.8867 H   0  0  0  0  0  0
  -20.9152  -29.8740   21.6966 H   0  0  0  0  0  0
  -26.0196  -38.2906   24.1376 H   0  0  0  0  0  0
  -28.1398  -18.7431   24.5354 H   0  0  0  0  0  0
  -29.6987  -16.8873   23.9518 H   0  0  0  0  0  0
  -27.7716  -20.5939   22.9540 H   0  0  0  0  0  0
  -30.3403  -18.6572   20.0690 H   0  0  0  0  0  0
  -31.8285  -16.4478   22.4013 H   0  0  0  0  0  0
  -31.6222  -16.8461   20.7196 H   0  0  0  0  0  0
  -28.4131  -24.6975   21.2831 H   0  0  0  0  0  0
  -27.0780  -24.3494   20.2168 H   0  0  0  0  0  0
  -29.9027  -23.2505   19.8021 H   0  0  0  0  0  0
  -28.4652  -22.7853   18.9158 H   0  0  0  0  0  0
  -28.1445  -25.6120   18.3777 H   0  0  0  0  0  0
  -29.6900  -25.5167   19.1636 H   0  0  0  0  0  0
  -29.0503  -22.3321   21.8689 H   0  0  0  0  0  0
  -27.4667  -22.0184   21.1573 H   0  0  0  0  0  0
  -29.5054  -15.1255   21.9234 H   0  0  0  0  0  0
  1 25  1  0  0  0
  1 30  2  0  0  0
  1 82  1  0  0  0
  2  3  1  0  0  0
  2 25  1  0  0  0
  2 84  1  0  0  0
  2 85  1  0  0  0
  3  4  1  0  0  0
  3 86  1  0  0  0
  3 87  1  0  0  0
  4  5  1  0  0  0
  4 88  1  0  0  0
  4 89  1  0  0  0
  5  6  1  0  0  0
  5 26  1  0  0  0
  5 90  1  0  0  0
  6 25  1  0  0  0
  6 91  1  0  0  0
  6 92  1  0  0  0
  7  8  2  0  0  0
  7 26  1  0  0  0
  7 29  1  0  0  0
  8  9  1  0  0  0
  8 22  1  0  0  0
  9 10  1  0  0  0
  9 27  2  0  0  0
 10 11  2  0  0  0
 10 15  1  0  0  0
 11 12  1  0  0  0
 11 93  1  0  0  0
 12 13  2  0  0  0
 12 94  1  0  0  0
 13 14  1  0  0  0
 13 31  1  0  0  0
 14 15  2  0  0  0
 14 95  1  0  0  0
 15 96  1  0  0  0
 16 17  2  0  0  0
 16 21  1  0  0  0
 16 31  1  0  0  0
 17 18  1  0  0  0
 17 97  1  0  0  0
 18 19  2  0  0  0
 18 98  1  0  0  0
 19 20  1  0  0  0
 19 24  1  0  0  0
 20 21  2  0  0  0
 20 99  1  0  0  0
 21 23  1  0  0  0
 22 28  1  0  0  0
 22 32  2  0  0  0
 26 27  1  0  0  0
 28100  1  0  0  0
 28101  1  0  0  0
 29102  1  0  0  0
 29103  1  0  0  0
 33 34  1  0  0  0
 33 66  1  0  0  0
 33 70  2  0  0  0
 34 36  1  0  0  0
 34 59  1  0  0  0
 34104  1  0  0  0
 35 44  2  0  0  0
 35 45  1  0  0  0
 35 68  1  0  0  0
 36 56  1  0  0  0
 36105  1  0  0  0
 37 39  1  0  0  0
 37 47  1  0  0  0
 37 66  1  0  0  0
 37106  1  0  0  0
 38 43  2  0  0  0
 38 46  1  0  0  0
 38 47  1  0  0  0
 39 64  1  0  0  0
 39 67  2  0  0  0
 40 52  1  0  0  0
 40 53  2  0  0  0
 40 58  1  0  0  0
 41107  1  0  0  0
 41108  1  0  0  0
 41109  1  0  0  0
 41 48  1  0  0  0
 42 43  1  0  0  0
 42 66  1  0  0  0
 42110  1  0  0  0
 42111  1  0  0  0
 43 44  1  0  0  0
 44112  1  0  0  0
 45 46  2  0  0  0
 45113  1  0  0  0
 46114  1  0  0  0
 47115  1  0  0  0
 47116  1  0  0  0
 48 56  1  0  0  0
 48 65  1  0  0  0
 48117  1  0  0  0
 49 50  1  0  0  0
 49 53  1  0  0  0
 49 64  1  0  0  0
 49118  1  0  0  0
 50 51  1  0  0  0
 50119  1  0  0  0
 50120  1  0  0  0
 51 52  1  0  0  0
 51121  1  0  0  0
 51122  1  0  0  0
 52123  1  0  0  0
 52124  1  0  0  0
 53 54  1  0  0  0
 54 55  2  0  0  0
 54125  1  0  0  0
 55 57  1  0  0  0
 55126  1  0  0  0
 56 69  2  0  0  0
 57 58  2  0  0  0
 57127  1  0  0  0
 58128  1  0  0  0
 59 60  1  0  0  0
 59 61  1  0  0  0
 59 62  1  0  0  0
 60129  1  0  0  0
 60130  1  0  0  0
 60131  1  0  0  0
 61132  1  0  0  0
 61133  1  0  0  0
 61134  1  0  0  0
 62135  1  0  0  0
 62136  1  0  0  0
 62137  1  0  0  0
 63 65  1  0  0  0
 63138  1  0  0  0
 63139  1  0  0  0
 63140  1  0  0  0
 64141  1  0  0  0
 65142  1  0  0  0
 68 80  1  0  0  0
 71 72  2  0  0  0
 71 73  1  0  0  0
 71143  1  0  0  0
 72 75  1  0  0  0
 72144  1  0  0  0
 73 76  2  0  0  0
 73145  1  0  0  0
 74 75  2  0  0  0
 74 76  1  0  0  0
 74146  1  0  0  0
 75 77  1  0  0  0
 76 83  1  0  0  0
 77 82  1  0  0  0
 77147  1  0  0  0
 77148  1  0  0  0
 78 79  1  0  0  0
 78 80  1  0  0  0
 78149  1  0  0  0
 78150  1  0  0  0
 79 81  1  0  0  0
 79151  1  0  0  0
 79152  1  0  0  0
 80153  1  0  0  0
 80154  1  0  0  0
 81 83  1  0  0  0
 81155  1  0  0  0
 81156  1  0  0  0
 82157  1  0  0  0
M  ISO  4   1 100  68 101  80 101  82 100
M  END
> <chiral flag>
0

> <version>
0

> <s_m_source_file>
/data/baiqing/PycharmProjects/Reinvent-master-3.2/result/LINK_invent/BTK/process_docking_weight1_custom_product_contain_oxygen_bond_distance_aromatic_linkinvent_7_9_3/rearranged_h_0098.sdf

> <i_m_source_file_index>
28

> <r_mmod_Potential_Energy-OPLS-2005>
-125.341361999512

> <r_mmod_Stretch_Energy-OPLS-2005>
30.6156558990479

> <r_mmod_Bend_Energy-OPLS-2005>
100.467796325684

> <r_mmod_Torsional_Energy-OPLS-2005>
193.217971801758

> <r_mmod_Improper_Torsional_Energy-OPLS-2005>
1.81170618534088

> <r_mmod_Van_der_Waal_Energy-OPLS-2005>
166.986968994141

> <r_mmod_Electrostatic_Energy-OPLS-2005>
-425.561737060547

> <r_mmod_Solvation_Energy-OPLS-2005>
-205.597183227539

> <b_mmod_Minimization_Converged-OPLS-2005>
0

> <r_mmod_RMS_Derivative-OPLS-2005>
5.74475574493408

$$$$
28
                    3D
 Structure written by MMmdl.
163172  0  0  1  0            999 V2000
  -30.5778  -14.7430   20.4914 C   0  0  0  0  0  0
  -30.4512  -12.4589   19.4685 C   0  0  0  0  0  0
  -29.5170  -12.5155   18.2371 C   0  0  0  0  0  0
  -28.0424  -12.3351   18.6499 C   0  0  0  0  0  0
  -27.6497  -13.2217   19.8606 C   0  0  2  0  0  0
  -28.6954  -13.1157   20.9932 C   0  0  0  0  0  0
  -25.2504  -13.8131   20.5579 C   0  0  0  0  0  0
  -24.1800  -13.0408   20.9158 C   0  0  0  0  0  0
  -24.6396  -11.6891   20.8747 C   0  0  0  0  0  0
  -23.9062  -10.4280   21.0411 C   0  0  0  0  0  0
  -24.3612   -9.4196   21.9187 C   0  0  0  0  0  0
  -23.6284   -8.2235   22.0755 C   0  0  0  0  0  0
  -22.4269   -8.0276   21.3543 C   0  0  0  0  0  0
  -21.9899   -9.0251   20.4648 C   0  0  0  0  0  0
  -22.7232  -10.2127   20.3059 C   0  0  0  0  0  0
  -21.6850   -6.0728   22.5274 C   0  0  0  0  0  0
  -21.4016   -6.5634   23.8209 C   0  0  0  0  0  0
  -21.3658   -5.6785   24.9170 C   0  0  0  0  0  0
  -21.6043   -4.3050   24.7221 C   0  0  0  0  0  0
  -21.8822   -3.8139   23.4344 C   0  0  0  0  0  0
  -21.9195   -4.6955   22.3398 C   0  0  0  0  0  0
  -22.7829  -13.5213   21.1832 C   0  0  0  0  0  0
  -22.1663   -4.2140   21.0976 F   0  0  0  0  0  0
  -21.5623   -3.4535   25.7736 F   0  0  0  0  0  0
  -30.0009  -13.4925   20.4277 N   0  0  0  0  0  0
  -26.2974  -12.9348   20.3311 N   0  0  0  0  0  0
  -25.9341  -11.6503   20.5797 N   0  0  0  0  0  0
  -22.0473  -12.8227   22.0411 N   0  0  0  0  0  0
  -25.4112  -15.1825   20.3831 N   0  0  0  0  0  0
  -31.7438  -14.9125   20.1199 O   0  0  0  0  0  0
  -21.6636   -6.8871   21.4237 O   0  0  0  0  0  0
  -22.3516  -14.5519   20.6682 O   0  0  0  0  0  0
  -24.6296  -31.8562   23.1988 C   0  0  0  0  0  0
  -25.9123  -32.4760   23.8338 C   0  0  1  0  0  0
  -27.2307  -27.2831   20.1295 C   0  0  0  0  0  0
  -25.5920  -33.8560   24.2260 N   0  0  0  0  0  0
  -23.4275  -30.4765   21.5414 C   0  0  2  0  0  0
  -24.8798  -28.9211   20.1165 C   0  0  0  0  0  0
  -22.7494  -29.4601   22.4918 C   0  0  0  0  0  0
  -18.0290  -28.1388   22.8476 C   0  0  0  0  0  0
  -24.1487  -36.7287   23.2638 C   0  0  0  0  0  0
  -25.9719  -30.7739   21.3782 C   0  0  0  0  0  0
  -26.0498  -29.3948   20.7269 C   0  0  0  0  0  0
  -27.2320  -28.5862   20.7274 C   0  0  0  0  0  0
  -26.0413  -26.8669   19.5013 C   0  0  0  0  0  0
  -24.8778  -27.6617   19.4956 C   0  0  0  0  0  0
  -23.6481  -29.8060   20.1597 C   0  0  0  0  0  0
  -25.4110  -36.3071   24.0329 C   0  0  1  0  0  0
  -20.5891  -28.3696   23.1270 C   0  0  2  0  0  0
  -20.6774  -26.9413   22.5411 C   0  0  0  0  0  0
  -19.5756  -26.6381   21.5207 C   0  0  0  0  0  0
  -18.1935  -26.7930   22.1615 C   0  0  0  0  0  0
  -19.1542  -28.8859   23.2866 C   0  0  0  0  0  0
  -18.9464  -30.1458   23.8891 C   0  0  0  0  0  0
  -17.6464  -30.6585   24.0566 C   0  0  0  0  0  0
  -25.9052  -34.9442   23.5099 C   0  0  0  0  0  0
  -16.5356  -29.9085   23.6331 C   0  0  0  0  0  0
  -16.7276  -28.6504   23.0349 C   0  0  0  0  0  0
  -26.4493  -31.6582   25.0724 C   0  0  0  0  0  0
  -25.3719  -31.3748   26.1452 C   0  0  0  0  0  0
  -27.0336  -30.2995   24.6212 C   0  0  0  0  0  0
  -27.6055  -32.4322   25.7486 C   0  0  0  0  0  0
  -27.5582  -37.1787   24.8456 C   0  0  0  0  0  0
  -21.4204  -29.3041   22.3655 N   0  0  0  0  0  0
  -26.4284  -37.3771   23.9414 N   0  0  0  0  0  0
  -24.6949  -31.0534   22.0959 N   0  0  0  0  0  0
  -23.4193  -28.8152   23.3024 O   0  0  0  0  0  0
  -28.3033  -26.3727   20.0891 O   0  0  0  0  0  0
  -26.5631  -34.8916   22.4672 O   0  0  0  0  0  0
  -23.5448  -32.1375   23.7286 O   0  0  0  0  0  0
  -28.4344  -19.3765   21.1855 C   0  0  0  0  0  0
  -30.7894  -18.1336   20.3365 C   0  0  0  0  0  0
  -29.4927  -20.2518   20.8185 C   0  0  0  0  0  0
  -30.6741  -19.5711   20.3798 C   0  0  0  0  0  0
  -29.7359  -17.2701   20.7624 C   0  0  0  0  0  0
  -28.5476  -17.9391   21.1826 C   0  0  0  0  0  0
  -28.7004  -24.0770   21.2370 C   0  0  0  0  0  0
  -28.4350  -25.4425   21.1378 C   0  0  0  0  0  0
  -28.8849  -23.4945   22.6207 C   0  0  0  0  0  0
  -29.1496  -21.9871   22.4838 C   0  0  0  0  0  0
  -28.9182  -22.8449   20.2789 C   0  0  1  0  0  0
  -29.7950  -23.1698   19.0660 C   0  0  0  0  0  0
  -26.4040  -17.7046   22.2538 C   0  0  0  0  0  0
  -29.4599  -21.6888   21.0875 N   0  0  0  0  0  0
  -31.7704  -20.3575   20.0307 N   0  0  0  0  0  0
  -29.7328  -15.7839   20.8327 N   0  0  0  0  0  0
  -27.5267  -17.1133   21.6082 O   0  0  0  0  0  0
  -31.4862  -12.6138   19.1589 H   0  0  0  0  0  0
  -30.4218  -11.4722   19.9336 H   0  0  0  0  0  0
  -29.7995  -11.7482   17.5151 H   0  0  0  0  0  0
  -29.6393  -13.4733   17.7284 H   0  0  0  0  0  0
  -27.8984  -11.2838   18.9032 H   0  0  0  0  0  0
  -27.3850  -12.5349   17.8029 H   0  0  0  0  0  0
  -27.6542  -14.2501   19.4987 H   0  0  0  0  0  0
  -28.7324  -12.1000   21.3898 H   0  0  0  0  0  0
  -28.4214  -13.7535   21.8352 H   0  0  0  0  0  0
  -25.2759   -9.5669   22.4763 H   0  0  0  0  0  0
  -23.9989   -7.4627   22.7477 H   0  0  0  0  0  0
  -21.0824   -8.8777   19.8959 H   0  0  0  0  0  0
  -22.3692  -10.9669   19.6169 H   0  0  0  0  0  0
  -21.2014   -7.6143   23.9709 H   0  0  0  0  0  0
  -21.1473   -6.0516   25.9071 H   0  0  0  0  0  0
  -22.0603   -2.7600   23.2850 H   0  0  0  0  0  0
  -22.4082  -11.9892   22.4810 H   0  0  0  0  0  0
  -21.1101  -13.1279   22.2625 H   0  0  0  0  0  0
  -24.6363  -15.8286   20.4790 H   0  0  0  0  0  0
  -26.2738  -15.6368   20.1118 H   0  0  0  0  0  0
  -26.7194  -32.5426   23.1090 H   0  0  0  0  0  0
  -25.0055  -33.9696   25.0397 H   0  0  0  0  0  0
  -22.7232  -31.2977   21.3928 H   0  0  0  0  0  0
  -23.3750  -35.9616   23.3285 H   0  0  0  0  0  0
  -24.3582  -36.8923   22.2056 H   0  0  0  0  0  0
  -23.7234  -37.6482   23.6673 H   0  0  0  0  0  0
  -26.1072  -31.5329   20.6063 H   0  0  0  0  0  0
  -26.8500  -30.8275   22.0099 H   0  0  0  0  0  0
  -28.1328  -28.9460   21.2044 H   0  0  0  0  0  0
  -26.0123  -25.8968   19.0257 H   0  0  0  0  0  0
  -23.9822  -27.2917   19.0153 H   0  0  0  0  0  0
  -23.7694  -30.5805   19.4014 H   0  0  0  0  0  0
  -22.7679  -29.2364   19.8564 H   0  0  0  0  0  0
  -25.1286  -36.1920   25.0821 H   0  0  0  0  0  0
  -20.9979  -28.3278   24.1393 H   0  0  0  0  0  0
  -20.5656  -26.2309   23.3615 H   0  0  0  0  0  0
  -21.6645  -26.7426   22.1219 H   0  0  0  0  0  0
  -19.6916  -25.6290   21.1241 H   0  0  0  0  0  0
  -19.6698  -27.3187   20.6736 H   0  0  0  0  0  0
  -17.4202  -26.6672   21.4021 H   0  0  0  0  0  0
  -18.0337  -26.0074   22.9013 H   0  0  0  0  0  0
  -19.7942  -30.7275   24.2255 H   0  0  0  0  0  0
  -17.5020  -31.6264   24.5171 H   0  0  0  0  0  0
  -15.5357  -30.2987   23.7660 H   0  0  0  0  0  0
  -15.8674  -28.0825   22.7069 H   0  0  0  0  0  0
  -24.5892  -30.7093   25.7792 H   0  0  0  0  0  0
  -24.8917  -32.2928   26.4852 H   0  0  0  0  0  0
  -25.8040  -30.8949   27.0241 H   0  0  0  0  0  0
  -26.2921  -29.6742   24.1227 H   0  0  0  0  0  0
  -27.4000  -29.7261   25.4737 H   0  0  0  0  0  0
  -27.8806  -30.4260   23.9465 H   0  0  0  0  0  0
  -27.2668  -33.3621   26.2064 H   0  0  0  0  0  0
  -28.3858  -32.6881   25.0306 H   0  0  0  0  0  0
  -28.0731  -31.8450   26.5398 H   0  0  0  0  0  0
  -28.2584  -38.0100   24.7528 H   0  0  0  0  0  0
  -28.1092  -36.2635   24.6240 H   0  0  0  0  0  0
  -27.2312  -37.1386   25.8861 H   0  0  0  0  0  0
  -20.9388  -29.8762   21.6860 H   0  0  0  0  0  0
  -26.0164  -38.2839   24.1441 H   0  0  0  0  0  0
  -27.5229  -19.8406   21.5249 H   0  0  0  0  0  0
  -31.7183  -17.6900   20.0076 H   0  0  0  0  0  0
  -28.3485  -25.9875   22.0679 H   0  0  0  0  0  0
  -28.0116  -23.6873   23.2454 H   0  0  0  0  0  0
  -29.7393  -23.9831   23.0909 H   0  0  0  0  0  0
  -28.2649  -21.4441   22.8164 H   0  0  0  0  0  0
  -29.9727  -21.6820   23.1319 H   0  0  0  0  0  0
  -27.9307  -22.5495   19.9199 H   0  0  0  0  0  0
  -30.7954  -23.4785   19.3707 H   0  0  0  0  0  0
  -29.3632  -23.9819   18.4799 H   0  0  0  0  0  0
  -29.8946  -22.3073   18.4062 H   0  0  0  0  0  0
  -25.8214  -18.3140   21.5615 H   0  0  0  0  0  0
  -26.7025  -18.3129   23.1091 H   0  0  0  0  0  0
  -25.7472  -16.9203   22.6294 H   0  0  0  0  0  0
  -32.3643  -20.0249   19.2798 H   0  0  0  0  0  0
  -31.5262  -21.3404   19.9374 H   0  0  0  0  0  0
  -28.8401  -15.4349   21.1487 H   0  0  0  0  0  0
  1 25  1  0  0  0
  1 30  2  0  0  0
  1 86  1  0  0  0
  2  3  1  0  0  0
  2 25  1  0  0  0
  2 88  1  0  0  0
  2 89  1  0  0  0
  3  4  1  0  0  0
  3 90  1  0  0  0
  3 91  1  0  0  0
  4  5  1  0  0  0
  4 92  1  0  0  0
  4 93  1  0  0  0
  5  6  1  0  0  0
  5 26  1  0  0  0
  5 94  1  0  0  0
  6 25  1  0  0  0
  6 95  1  0  0  0
  6 96  1  0  0  0
  7  8  2  0  0  0
  7 26  1  0  0  0
  7 29  1  0  0  0
  8  9  1  0  0  0
  8 22  1  0  0  0
  9 10  1  0  0  0
  9 27  2  0  0  0
 10 11  2  0  0  0
 10 15  1  0  0  0
 11 12  1  0  0  0
 11 97  1  0  0  0
 12 13  2  0  0  0
 12 98  1  0  0  0
 13 14  1  0  0  0
 13 31  1  0  0  0
 14 15  2  0  0  0
 14 99  1  0  0  0
 15100  1  0  0  0
 16 17  2  0  0  0
 16 21  1  0  0  0
 16 31  1  0  0  0
 17 18  1  0  0  0
 17101  1  0  0  0
 18 19  2  0  0  0
 18102  1  0  0  0
 19 20  1  0  0  0
 19 24  1  0  0  0
 20 21  2  0  0  0
 20103  1  0  0  0
 21 23  1  0  0  0
 22 28  1  0  0  0
 22 32  2  0  0  0
 26 27  1  0  0  0
 28104  1  0  0  0
 28105  1  0  0  0
 29106  1  0  0  0
 29107  1  0  0  0
 33 34  1  0  0  0
 33 66  1  0  0  0
 33 70  2  0  0  0
 34 36  1  0  0  0
 34 59  1  0  0  0
 34108  1  0  0  0
 35 44  2  0  0  0
 35 45  1  0  0  0
 35 68  1  0  0  0
 36 56  1  0  0  0
 36109  1  0  0  0
 37 39  1  0  0  0
 37 47  1  0  0  0
 37 66  1  0  0  0
 37110  1  0  0  0
 38 43  2  0  0  0
 38 46  1  0  0  0
 38 47  1  0  0  0
 39 64  1  0  0  0
 39 67  2  0  0  0
 40 52  1  0  0  0
 40 53  2  0  0  0
 40 58  1  0  0  0
 41111  1  0  0  0
 41112  1  0  0  0
 41113  1  0  0  0
 41 48  1  0  0  0
 42 43  1  0  0  0
 42 66  1  0  0  0
 42114  1  0  0  0
 42115  1  0  0  0
 43 44  1  0  0  0
 44116  1  0  0  0
 45 46  2  0  0  0
 45117  1  0  0  0
 46118  1  0  0  0
 47119  1  0  0  0
 47120  1  0  0  0
 48 56  1  0  0  0
 48 65  1  0  0  0
 48121  1  0  0  0
 49 50  1  0  0  0
 49 53  1  0  0  0
 49 64  1  0  0  0
 49122  1  0  0  0
 50 51  1  0  0  0
 50123  1  0  0  0
 50124  1  0  0  0
 51 52  1  0  0  0
 51125  1  0  0  0
 51126  1  0  0  0
 52127  1  0  0  0
 52128  1  0  0  0
 53 54  1  0  0  0
 54 55  2  0  0  0
 54129  1  0  0  0
 55 57  1  0  0  0
 55130  1  0  0  0
 56 69  2  0  0  0
 57 58  2  0  0  0
 57131  1  0  0  0
 58132  1  0  0  0
 59 60  1  0  0  0
 59 61  1  0  0  0
 59 62  1  0  0  0
 60133  1  0  0  0
 60134  1  0  0  0
 60135  1  0  0  0
 61136  1  0  0  0
 61137  1  0  0  0
 61138  1  0  0  0
 62139  1  0  0  0
 62140  1  0  0  0
 62141  1  0  0  0
 63 65  1  0  0  0
 63142  1  0  0  0
 63143  1  0  0  0
 63144  1  0  0  0
 64145  1  0  0  0
 65146  1  0  0  0
 68 78  1  0  0  0
 71 73  2  0  0  0
 71 76  1  0  0  0
 71147  1  0  0  0
 72 74  2  0  0  0
 72 75  1  0  0  0
 72148  1  0  0  0
 73 74  1  0  0  0
 73 84  1  0  0  0
 74 85  1  0  0  0
 75 76  2  0  0  0
 75 86  1  0  0  0
 76 87  1  0  0  0
 77 78  2  0  0  0
 77 79  1  0  0  0
 77 81  1  0  0  0
 78149  1  0  0  0
 79 80  1  0  0  0
 79150  1  0  0  0
 79151  1  0  0  0
 80 84  1  0  0  0
 80152  1  0  0  0
 80153  1  0  0  0
 81 82  1  0  0  0
 81 84  1  0  0  0
 81154  1  0  0  0
 82155  1  0  0  0
 82156  1  0  0  0
 82157  1  0  0  0
 83 87  1  0  0  0
 83158  1  0  0  0
 83159  1  0  0  0
 83160  1  0  0  0
 85161  1  0  0  0
 85162  1  0  0  0
 86163  1  0  0  0
M  ISO  4   1 100  68 101  78 101  86 100
M  END
> <chiral flag>
0

> <version>
0

> <s_m_source_file>
/data/baiqing/PycharmProjects/Reinvent-master-3.2/result/LINK_invent/BTK/process_docking_weight1_custom_product_contain_oxygen_bond_distance_aromatic_linkinvent_7_9_3/rearranged_h_0098.sdf

> <i_m_source_file_index>
29

> <r_mmod_Potential_Energy-OPLS-2005>
176.887954711914

> <r_mmod_Stretch_Energy-OPLS-2005>
103.510162353516

> <r_mmod_Bend_Energy-OPLS-2005>
247.232070922852

> <r_mmod_Torsional_Energy-OPLS-2005>
286.525451660156

> <r_mmod_Improper_Torsional_Energy-OPLS-2005>
12.7880191802979

> <r_mmod_Van_der_Waal_Energy-OPLS-2005>
133.700057983398

> <r_mmod_Electrostatic_Energy-OPLS-2005>
-473.988525390625

> <r_mmod_Solvation_Energy-OPLS-2005>
-212.399383544922

> <b_mmod_Minimization_Converged-OPLS-2005>
0

> <r_mmod_RMS_Derivative-OPLS-2005>
0.972396314144135

$$$$
29
                    3D
 Structure written by MMmdl.
158167  0  0  1  0            999 V2000
  -30.6718  -14.5801   20.4730 C   0  0  0  0  0  0
  -30.4239  -12.3520   19.4408 C   0  0  0  0  0  0
  -29.4995  -12.4668   18.2127 C   0  0  0  0  0  0
  -28.0193  -12.3276   18.6273 C   0  0  0  0  0  0
  -27.6433  -13.2162   19.8441 C   0  0  2  0  0  0
  -28.6903  -13.0976   20.9746 C   0  0  0  0  0  0
  -25.2496  -13.8173   20.5638 C   0  0  0  0  0  0
  -24.1788  -13.0430   20.9200 C   0  0  0  0  0  0
  -24.6363  -11.6912   20.8751 C   0  0  0  0  0  0
  -23.9037  -10.4292   21.0411 C   0  0  0  0  0  0
  -24.3604   -9.4208   21.9196 C   0  0  0  0  0  0
  -23.6288   -8.2239   22.0765 C   0  0  0  0  0  0
  -22.4270   -8.0270   21.3541 C   0  0  0  0  0  0
  -21.9904   -9.0231   20.4638 C   0  0  0  0  0  0
  -22.7226  -10.2118   20.3042 C   0  0  0  0  0  0
  -21.6843   -6.0731   22.5290 C   0  0  0  0  0  0
  -21.4009   -6.5635   23.8227 C   0  0  0  0  0  0
  -21.3658   -5.6786   24.9186 C   0  0  0  0  0  0
  -21.6050   -4.3043   24.7226 C   0  0  0  0  0  0
  -21.8820   -3.8139   23.4344 C   0  0  0  0  0  0
  -21.9196   -4.6964   22.3403 C   0  0  0  0  0  0
  -22.7809  -13.5216   21.1861 C   0  0  0  0  0  0
  -22.1660   -4.2146   21.0973 F   0  0  0  0  0  0
  -21.5636   -3.4519   25.7740 F   0  0  0  0  0  0
  -30.0095  -13.3922   20.3945 N   0  0  0  0  0  0
  -26.2925  -12.9360   20.3232 N   0  0  0  0  0  0
  -25.9279  -11.6516   20.5728 N   0  0  0  0  0  0
  -22.0428  -12.8231   22.0417 N   0  0  0  0  0  0
  -25.4122  -15.1894   20.4058 N   0  0  0  0  0  0
  -31.8659  -14.6806   20.1798 O   0  0  0  0  0  0
  -21.6632   -6.8871   21.4246 O   0  0  0  0  0  0
  -22.3504  -14.5520   20.6696 O   0  0  0  0  0  0
  -24.6238  -31.8593   23.2044 C   0  0  0  0  0  0
  -25.9096  -32.4769   23.8372 C   0  0  1  0  0  0
  -27.2092  -27.3612   20.1171 C   0  0  0  0  0  0
  -25.5933  -33.8581   24.2306 N   0  0  0  0  0  0
  -23.4155  -30.4873   21.5417 C   0  0  2  0  0  0
  -24.8558  -28.9394   20.1125 C   0  0  0  0  0  0
  -22.7444  -29.4652   22.4906 C   0  0  0  0  0  0
  -18.0269  -28.1441   22.8536 C   0  0  0  0  0  0
  -24.1475  -36.7296   23.2647 C   0  0  0  0  0  0
  -25.9509  -30.8033   21.3647 C   0  0  0  0  0  0
  -26.0214  -29.4313   20.7187 C   0  0  0  0  0  0
  -27.2056  -28.6488   20.7198 C   0  0  0  0  0  0
  -26.0318  -26.8998   19.4981 C   0  0  0  0  0  0
  -24.8591  -27.6750   19.4975 C   0  0  0  0  0  0
  -23.6271  -29.8207   20.1571 C   0  0  0  0  0  0
  -25.4096  -36.3091   24.0349 C   0  0  1  0  0  0
  -20.5874  -28.3724   23.1285 C   0  0  2  0  0  0
  -20.6775  -26.9452   22.5402 C   0  0  0  0  0  0
  -19.5714  -26.6411   21.5239 C   0  0  0  0  0  0
  -18.1897  -26.7996   22.1656 C   0  0  0  0  0  0
  -19.1531  -28.8900   23.2911 C   0  0  0  0  0  0
  -18.9455  -30.1522   23.8904 C   0  0  0  0  0  0
  -17.6458  -30.6641   24.0604 C   0  0  0  0  0  0
  -25.9035  -34.9461   23.5113 C   0  0  0  0  0  0
  -16.5348  -29.9142   23.6371 C   0  0  0  0  0  0
  -16.7256  -28.6565   23.0370 C   0  0  0  0  0  0
  -26.4512  -31.6574   25.0715 C   0  0  0  0  0  0
  -25.3783  -31.3645   26.1441 C   0  0  0  0  0  0
  -27.0364  -30.3042   24.6080 C   0  0  0  0  0  0
  -27.6069  -32.4308   25.7498 C   0  0  0  0  0  0
  -27.5558  -37.1815   24.8474 C   0  0  0  0  0  0
  -21.4152  -29.3100   22.3691 N   0  0  0  0  0  0
  -26.4266  -37.3786   23.9425 N   0  0  0  0  0  0
  -24.6827  -31.0673   22.0952 N   0  0  0  0  0  0
  -23.4178  -28.8163   23.2951 O   0  0  0  0  0  0
  -28.3193  -26.5366   20.1089 O   0  0  0  0  0  0
  -26.5556  -34.8929   22.4657 O   0  0  0  0  0  0
  -23.5415  -32.1338   23.7409 O   0  0  0  0  0  0
  -31.7510  -18.6695   21.9640 C   0  0  0  0  0  0
  -31.1324  -19.7386   21.2911 C   0  0  0  0  0  0
  -31.3559  -17.3424   21.7115 C   0  0  0  0  0  0
  -29.6965  -18.1550   20.1141 C   0  0  0  0  0  0
  -30.0998  -19.5069   20.3562 C   0  0  0  0  0  0
  -30.3231  -17.0575   20.7877 C   0  0  0  0  0  0
  -29.5711  -20.6928   19.5570 C   0  0  0  0  0  0
  -27.8470  -23.0402   21.8691 C   0  0  0  0  0  0
  -28.3816  -21.6480   21.5159 C   0  0  0  0  0  0
  -28.9372  -23.1566   19.7172 C   0  0  0  0  0  0
  -27.9428  -23.9424   20.6207 C   0  0  2  0  0  0
  -28.2815  -25.4262   21.0497 C   0  0  0  0  0  0
  -29.0465  -21.7618   20.2251 N   0  0  0  0  0  0
  -29.8951  -15.6912   20.5982 N   0  0  0  0  0  0
  -29.7494  -20.7048   18.3360 O   0  0  0  0  0  0
  -31.4634  -12.4672   19.1357 H   0  0  0  0  0  0
  -30.3499  -11.3652   19.8986 H   0  0  0  0  0  0
  -29.7600  -11.7023   17.4766 H   0  0  0  0  0  0
  -29.6547  -13.4271   17.7181 H   0  0  0  0  0  0
  -27.8506  -11.2777   18.8738 H   0  0  0  0  0  0
  -27.3675  -12.5463   17.7800 H   0  0  0  0  0  0
  -27.6540  -14.2447   19.4839 H   0  0  0  0  0  0
  -28.6795  -12.0973   21.4079 H   0  0  0  0  0  0
  -28.4538  -13.7846   21.7896 H   0  0  0  0  0  0
  -25.2751   -9.5701   22.4775 H   0  0  0  0  0  0
  -24.0009   -7.4627   22.7481 H   0  0  0  0  0  0
  -21.0846   -8.8713   19.8935 H   0  0  0  0  0  0
  -22.3670  -10.9637   19.6128 H   0  0  0  0  0  0
  -21.1981   -7.6147   23.9730 H   0  0  0  0  0  0
  -21.1484   -6.0509   25.9094 H   0  0  0  0  0  0
  -22.0598   -2.7604   23.2833 H   0  0  0  0  0  0
  -22.4019  -11.9891   22.4819 H   0  0  0  0  0  0
  -21.1025  -13.1259   22.2554 H   0  0  0  0  0  0
  -24.6281  -15.8262   20.5119 H   0  0  0  0  0  0
  -26.2469  -15.6461   20.0620 H   0  0  0  0  0  0
  -26.7159  -32.5427   23.1123 H   0  0  0  0  0  0
  -25.0265  -33.9758   25.0573 H   0  0  0  0  0  0
  -22.7113  -31.3083   21.3994 H   0  0  0  0  0  0
  -23.3741  -35.9623   23.3296 H   0  0  0  0  0  0
  -24.3600  -36.8893   22.2067 H   0  0  0  0  0  0
  -23.7215  -37.6505   23.6642 H   0  0  0  0  0  0
  -26.0660  -31.5548   20.5842 H   0  0  0  0  0  0
  -26.8442  -30.8641   21.9741 H   0  0  0  0  0  0
  -28.1031  -29.0208   21.1943 H   0  0  0  0  0  0
  -26.0208  -25.9297   19.0192 H   0  0  0  0  0  0
  -23.9650  -27.2888   19.0241 H   0  0  0  0  0  0
  -23.7453  -30.5929   19.3964 H   0  0  0  0  0  0
  -22.7489  -29.2462   19.8578 H   0  0  0  0  0  0
  -25.1283  -36.1937   25.0841 H   0  0  0  0  0  0
  -21.0004  -28.3256   24.1390 H   0  0  0  0  0  0
  -20.5719  -26.2333   23.3604 H   0  0  0  0  0  0
  -21.6625  -26.7497   22.1156 H   0  0  0  0  0  0
  -19.6827  -25.6299   21.1297 H   0  0  0  0  0  0
  -19.6638  -27.3217   20.6760 H   0  0  0  0  0  0
  -17.4188  -26.6819   21.4024 H   0  0  0  0  0  0
  -18.0226  -26.0129   22.9027 H   0  0  0  0  0  0
  -19.7917  -30.7379   24.2223 H   0  0  0  0  0  0
  -17.4997  -31.6310   24.5219 H   0  0  0  0  0  0
  -15.5350  -30.3054   23.7702 H   0  0  0  0  0  0
  -15.8651  -28.0911   22.7045 H   0  0  0  0  0  0
  -24.5985  -30.6943   25.7785 H   0  0  0  0  0  0
  -24.8955  -32.2792   26.4895 H   0  0  0  0  0  0
  -25.8184  -30.8827   27.0183 H   0  0  0  0  0  0
  -26.2891  -29.6756   24.1216 H   0  0  0  0  0  0
  -27.4258  -29.7304   25.4498 H   0  0  0  0  0  0
  -27.8672  -30.4419   23.9159 H   0  0  0  0  0  0
  -27.2660  -33.3626   26.2045 H   0  0  0  0  0  0
  -28.3917  -32.6814   25.0340 H   0  0  0  0  0  0
  -28.0688  -31.8422   26.5440 H   0  0  0  0  0  0
  -28.2576  -38.0114   24.7543 H   0  0  0  0  0  0
  -28.1051  -36.2651   24.6276 H   0  0  0  0  0  0
  -27.2296  -37.1440   25.8881 H   0  0  0  0  0  0
  -20.9265  -29.8921   21.7035 H   0  0  0  0  0  0
  -26.0123  -38.2841   24.1456 H   0  0  0  0  0  0
  -32.5408  -18.8702   22.6752 H   0  0  0  0  0  0
  -31.4770  -20.7496   21.4739 H   0  0  0  0  0  0
  -31.8490  -16.5447   22.2494 H   0  0  0  0  0  0
  -28.9173  -17.9641   19.3877 H   0  0  0  0  0  0
  -28.4699  -23.4383   22.6722 H   0  0  0  0  0  0
  -26.8291  -22.9861   22.2591 H   0  0  0  0  0  0
  -27.5688  -20.9231   21.4450 H   0  0  0  0  0  0
  -29.0714  -21.2951   22.2853 H   0  0  0  0  0  0
  -29.9252  -23.6169   19.7453 H   0  0  0  0  0  0
  -28.6047  -23.1776   18.6770 H   0  0  0  0  0  0
  -26.9661  -23.9244   20.1345 H   0  0  0  0  0  0
  -29.2523  -25.4201   21.5432 H   0  0  0  0  0  0
  -27.5756  -25.6820   21.8440 H   0  0  0  0  0  0
  -28.9005  -15.5348   20.5338 H   0  0  0  0  0  0
  1 25  1  0  0  0
  1 30  2  0  0  0
  1 84  1  0  0  0
  2  3  1  0  0  0
  2 25  1  0  0  0
  2 86  1  0  0  0
  2 87  1  0  0  0
  3  4  1  0  0  0
  3 88  1  0  0  0
  3 89  1  0  0  0
  4  5  1  0  0  0
  4 90  1  0  0  0
  4 91  1  0  0  0
  5  6  1  0  0  0
  5 26  1  0  0  0
  5 92  1  0  0  0
  6 25  1  0  0  0
  6 93  1  0  0  0
  6 94  1  0  0  0
  7  8  2  0  0  0
  7 26  1  0  0  0
  7 29  1  0  0  0
  8  9  1  0  0  0
  8 22  1  0  0  0
  9 10  1  0  0  0
  9 27  2  0  0  0
 10 11  2  0  0  0
 10 15  1  0  0  0
 11 12  1  0  0  0
 11 95  1  0  0  0
 12 13  2  0  0  0
 12 96  1  0  0  0
 13 14  1  0  0  0
 13 31  1  0  0  0
 14 15  2  0  0  0
 14 97  1  0  0  0
 15 98  1  0  0  0
 16 17  2  0  0  0
 16 21  1  0  0  0
 16 31  1  0  0  0
 17 18  1  0  0  0
 17 99  1  0  0  0
 18 19  2  0  0  0
 18100  1  0  0  0
 19 20  1  0  0  0
 19 24  1  0  0  0
 20 21  2  0  0  0
 20101  1  0  0  0
 21 23  1  0  0  0
 22 28  1  0  0  0
 22 32  2  0  0  0
 26 27  1  0  0  0
 28102  1  0  0  0
 28103  1  0  0  0
 29104  1  0  0  0
 29105  1  0  0  0
 33 34  1  0  0  0
 33 66  1  0  0  0
 33 70  2  0  0  0
 34 36  1  0  0  0
 34 59  1  0  0  0
 34106  1  0  0  0
 35 44  2  0  0  0
 35 45  1  0  0  0
 35 68  1  0  0  0
 36 56  1  0  0  0
 36107  1  0  0  0
 37 39  1  0  0  0
 37 47  1  0  0  0
 37 66  1  0  0  0
 37108  1  0  0  0
 38 43  2  0  0  0
 38 46  1  0  0  0
 38 47  1  0  0  0
 39 64  1  0  0  0
 39 67  2  0  0  0
 40 52  1  0  0  0
 40 53  2  0  0  0
 40 58  1  0  0  0
 41109  1  0  0  0
 41110  1  0  0  0
 41111  1  0  0  0
 41 48  1  0  0  0
 42 43  1  0  0  0
 42 66  1  0  0  0
 42112  1  0  0  0
 42113  1  0  0  0
 43 44  1  0  0  0
 44114  1  0  0  0
 45 46  2  0  0  0
 45115  1  0  0  0
 46116  1  0  0  0
 47117  1  0  0  0
 47118  1  0  0  0
 48 56  1  0  0  0
 48 65  1  0  0  0
 48119  1  0  0  0
 49 50  1  0  0  0
 49 53  1  0  0  0
 49 64  1  0  0  0
 49120  1  0  0  0
 50 51  1  0  0  0
 50121  1  0  0  0
 50122  1  0  0  0
 51 52  1  0  0  0
 51123  1  0  0  0
 51124  1  0  0  0
 52125  1  0  0  0
 52126  1  0  0  0
 53 54  1  0  0  0
 54 55  2  0  0  0
 54127  1  0  0  0
 55 57  1  0  0  0
 55128  1  0  0  0
 56 69  2  0  0  0
 57 58  2  0  0  0
 57129  1  0  0  0
 58130  1  0  0  0
 59 60  1  0  0  0
 59 61  1  0  0  0
 59 62  1  0  0  0
 60131  1  0  0  0
 60132  1  0  0  0
 60133  1  0  0  0
 61134  1  0  0  0
 61135  1  0  0  0
 61136  1  0  0  0
 62137  1  0  0  0
 62138  1  0  0  0
 62139  1  0  0  0
 63 65  1  0  0  0
 63140  1  0  0  0
 63141  1  0  0  0
 63142  1  0  0  0
 64143  1  0  0  0
 65144  1  0  0  0
 68 82  1  0  0  0
 71 72  2  0  0  0
 71 73  1  0  0  0
 71145  1  0  0  0
 72 75  1  0  0  0
 72146  1  0  0  0
 73 76  2  0  0  0
 73147  1  0  0  0
 74 75  2  0  0  0
 74 76  1  0  0  0
 74148  1  0  0  0
 75 77  1  0  0  0
 76 84  1  0  0  0
 77 83  1  0  0  0
 77 85  2  0  0  0
 78 79  1  0  0  0
 78 81  1  0  0  0
 78149  1  0  0  0
 78150  1  0  0  0
 79 83  1  0  0  0
 79151  1  0  0  0
 79152  1  0  0  0
 80 81  1  0  0  0
 80 83  1  0  0  0
 80153  1  0  0  0
 80154  1  0  0  0
 81 82  1  0  0  0
 81155  1  0  0  0
 82156  1  0  0  0
 82157  1  0  0  0
 84158  1  0  0  0
M  ISO  4   1 100  68 101  82 101  84 100
M  END
> <chiral flag>
0

> <version>
0

> <s_m_source_file>
/data/baiqing/PycharmProjects/Reinvent-master-3.2/result/LINK_invent/BTK/process_docking_weight1_custom_product_contain_oxygen_bond_distance_aromatic_linkinvent_7_9_3/rearranged_h_0098.sdf

> <i_m_source_file_index>
30

> <r_mmod_Potential_Energy-OPLS-2005>
169.051147460938

> <r_mmod_Stretch_Energy-OPLS-2005>
53.4390640258789

> <r_mmod_Bend_Energy-OPLS-2005>
127.432281494141

> <r_mmod_Torsional_Energy-OPLS-2005>
373.084411621094

> <r_mmod_Improper_Torsional_Energy-OPLS-2005>
8.83628559112549

> <r_mmod_Van_der_Waal_Energy-OPLS-2005>
138.704925537109

> <r_mmod_Electrostatic_Energy-OPLS-2005>
-337.401184082031

> <r_mmod_Solvation_Energy-OPLS-2005>
-232.789245605469

> <b_mmod_Minimization_Converged-OPLS-2005>
0

> <r_mmod_RMS_Derivative-OPLS-2005>
4.11057090759277

$$$$
30
                    3D
 Structure written by MMmdl.
161170  0  0  1  0            999 V2000
  -30.7383  -14.4535   20.6234 C   0  0  0  0  0  0
  -30.4158  -12.3204   19.4140 C   0  0  0  0  0  0
  -29.4855  -12.5123   18.2012 C   0  0  0  0  0  0
  -28.0105  -12.3647   18.6195 C   0  0  0  0  0  0
  -27.6586  -13.2097   19.8730 C   0  0  2  0  0  0
  -28.7005  -13.0001   20.9936 C   0  0  0  0  0  0
  -25.2576  -13.8171   20.5681 C   0  0  0  0  0  0
  -24.1829  -13.0447   20.9177 C   0  0  0  0  0  0
  -24.6384  -11.6913   20.8737 C   0  0  0  0  0  0
  -23.9056  -10.4295   21.0408 C   0  0  0  0  0  0
  -24.3610   -9.4210   21.9185 C   0  0  0  0  0  0
  -23.6290   -8.2246   22.0751 C   0  0  0  0  0  0
  -22.4274   -8.0281   21.3541 C   0  0  0  0  0  0
  -21.9905   -9.0251   20.4643 C   0  0  0  0  0  0
  -22.7230  -10.2134   20.3054 C   0  0  0  0  0  0
  -21.6849   -6.0734   22.5278 C   0  0  0  0  0  0
  -21.4013   -6.5638   23.8211 C   0  0  0  0  0  0
  -21.3659   -5.6791   24.9175 C   0  0  0  0  0  0
  -21.6043   -4.3055   24.7225 C   0  0  0  0  0  0
  -21.8819   -3.8147   23.4347 C   0  0  0  0  0  0
  -21.9195   -4.6964   22.3404 C   0  0  0  0  0  0
  -22.7852  -13.5239   21.1852 C   0  0  0  0  0  0
  -22.1662   -4.2151   21.0980 F   0  0  0  0  0  0
  -21.5631   -3.4537   25.7737 F   0  0  0  0  0  0
  -30.0306  -13.3047   20.4394 N   0  0  0  0  0  0
  -26.3009  -12.9343   20.3367 N   0  0  0  0  0  0
  -25.9314  -11.6500   20.5775 N   0  0  0  0  0  0
  -22.0494  -12.8222   22.0405 N   0  0  0  0  0  0
  -25.4317  -15.1889   20.4088 N   0  0  0  0  0  0
  -31.8278  -14.6533   20.0787 O   0  0  0  0  0  0
  -21.6639   -6.8879   21.4240 O   0  0  0  0  0  0
  -22.3537  -14.5552   20.6716 O   0  0  0  0  0  0
  -24.6150  -31.8673   23.2103 C   0  0  0  0  0  0
  -25.9040  -32.4820   23.8394 C   0  0  1  0  0  0
  -27.2235  -27.4185   20.0911 C   0  0  0  0  0  0
  -25.5891  -33.8618   24.2318 N   0  0  0  0  0  0
  -23.4027  -30.4935   21.5515 C   0  0  2  0  0  0
  -24.8456  -28.9621   20.1110 C   0  0  0  0  0  0
  -22.7413  -29.4656   22.4986 C   0  0  0  0  0  0
  -18.0270  -28.1383   22.8490 C   0  0  0  0  0  0
  -24.1480  -36.7299   23.2646 C   0  0  0  0  0  0
  -25.9345  -30.8274   21.3661 C   0  0  0  0  0  0
  -26.0085  -29.4629   20.7090 C   0  0  0  0  0  0
  -27.2003  -28.7003   20.6930 C   0  0  0  0  0  0
  -26.0415  -26.9441   19.4745 C   0  0  0  0  0  0
  -24.8580  -27.7026   19.4909 C   0  0  0  0  0  0
  -23.6096  -29.8309   20.1644 C   0  0  0  0  0  0
  -25.4109  -36.3110   24.0348 C   0  0  1  0  0  0
  -20.5864  -28.3657   23.1315 C   0  0  2  0  0  0
  -20.6758  -26.9395   22.5413 C   0  0  0  0  0  0
  -19.5738  -26.6385   21.5208 C   0  0  0  0  0  0
  -18.1915  -26.7923   22.1627 C   0  0  0  0  0  0
  -19.1528  -28.8839   23.2894 C   0  0  0  0  0  0
  -18.9466  -30.1442   23.8901 C   0  0  0  0  0  0
  -17.6475  -30.6584   24.0569 C   0  0  0  0  0  0
  -25.9043  -34.9476   23.5134 C   0  0  0  0  0  0
  -16.5355  -29.9092   23.6337 C   0  0  0  0  0  0
  -16.7261  -28.6515   23.0346 C   0  0  0  0  0  0
  -26.4460  -31.6602   25.0723 C   0  0  0  0  0  0
  -25.3727  -31.3715   26.1478 C   0  0  0  0  0  0
  -27.0294  -30.3052   24.6087 C   0  0  0  0  0  0
  -27.6032  -32.4320   25.7491 C   0  0  0  0  0  0
  -27.5576  -37.1800   24.8475 C   0  0  0  0  0  0
  -21.4142  -29.3025   22.3721 N   0  0  0  0  0  0
  -26.4286  -37.3798   23.9431 N   0  0  0  0  0  0
  -24.6695  -31.0773   22.1005 N   0  0  0  0  0  0
  -23.4184  -28.8191   23.3020 O   0  0  0  0  0  0
  -28.3816  -26.6618   20.1231 O   0  0  0  0  0  0
  -26.5609  -34.8928   22.4695 O   0  0  0  0  0  0
  -23.5347  -32.1421   23.7501 O   0  0  0  0  0  0
  -29.3313  -18.4585   21.7581 C   0  0  0  0  0  0
  -31.7180  -18.7932   21.4680 C   0  0  0  0  0  0
  -29.1270  -19.8605   21.6737 C   0  0  0  0  0  0
  -31.5181  -20.1862   21.3872 C   0  0  0  0  0  0
  -30.6377  -17.9164   21.7078 C   0  0  0  0  0  0
  -30.2288  -20.7440   21.5531 C   0  0  0  0  0  0
  -30.6275  -22.7511   22.8262 C   0  0  0  0  0  0
  -30.5777  -24.2735   22.9996 C   0  0  0  0  0  0
  -29.4107  -24.9409   22.2746 C   0  0  0  0  0  0
  -29.1970  -22.9217   20.7937 C   0  0  0  0  0  0
  -29.3549  -24.4769   20.8185 C   0  0  1  0  0  0
  -30.9463  -16.4584   22.0839 C   0  0  0  0  0  0
  -28.2331  -25.2264   20.0556 C   0  0  0  0  0  0
  -30.0848  -22.1687   21.7171 N   0  0  0  0  0  0
  -30.1912  -15.3756   21.4370 N   0  0  0  0  0  0
  -31.1977  -22.1098   23.7167 O   0  0  0  0  0  0
  -31.4590  -12.4175   19.1076 H   0  0  0  0  0  0
  -30.3203  -11.3098   19.8144 H   0  0  0  0  0  0
  -29.7259  -11.7870   17.4226 H   0  0  0  0  0  0
  -29.6471  -13.4987   17.7634 H   0  0  0  0  0  0
  -27.8276  -11.3085   18.8228 H   0  0  0  0  0  0
  -27.3546  -12.6307   17.7901 H   0  0  0  0  0  0
  -27.7011  -14.2567   19.5720 H   0  0  0  0  0  0
  -28.6810  -11.9656   21.3405 H   0  0  0  0  0  0
  -28.4512  -13.6027   21.8678 H   0  0  0  0  0  0
  -25.2756   -9.5688   22.4758 H   0  0  0  0  0  0
  -24.0003   -7.4632   22.7468 H   0  0  0  0  0  0
  -21.0841   -8.8766   19.8946 H   0  0  0  0  0  0
  -22.3690  -10.9671   19.6160 H   0  0  0  0  0  0
  -21.1999   -7.6147   23.9716 H   0  0  0  0  0  0
  -21.1481   -6.0520   25.9076 H   0  0  0  0  0  0
  -22.0600   -2.7609   23.2844 H   0  0  0  0  0  0
  -22.4108  -11.9871   22.4770 H   0  0  0  0  0  0
  -21.1123  -13.1246   22.2636 H   0  0  0  0  0  0
  -24.6705  -15.8505   20.5179 H   0  0  0  0  0  0
  -26.2923  -15.6224   20.0967 H   0  0  0  0  0  0
  -26.7105  -32.5520   23.1150 H   0  0  0  0  0  0
  -25.0032  -33.9783   25.0454 H   0  0  0  0  0  0
  -22.6920  -31.3113   21.4157 H   0  0  0  0  0  0
  -23.3750  -35.9621   23.3324 H   0  0  0  0  0  0
  -24.3565  -36.8894   22.2054 H   0  0  0  0  0  0
  -23.7215  -37.6504   23.6641 H   0  0  0  0  0  0
  -26.0520  -31.5958   20.6005 H   0  0  0  0  0  0
  -26.8203  -30.8750   21.9877 H   0  0  0  0  0  0
  -28.0968  -29.0812   21.1619 H   0  0  0  0  0  0
  -26.0140  -25.9877   18.9737 H   0  0  0  0  0  0
  -23.9658  -27.3144   19.0191 H   0  0  0  0  0  0
  -23.7178  -30.6068   19.4063 H   0  0  0  0  0  0
  -22.7318  -29.2534   19.8674 H   0  0  0  0  0  0
  -25.1275  -36.1975   25.0839 H   0  0  0  0  0  0
  -20.9955  -28.3216   24.1439 H   0  0  0  0  0  0
  -20.5665  -26.2262   23.3599 H   0  0  0  0  0  0
  -21.6628  -26.7435   22.1204 H   0  0  0  0  0  0
  -19.6908  -25.6303   21.1223 H   0  0  0  0  0  0
  -19.6687  -27.3211   20.6749 H   0  0  0  0  0  0
  -17.4185  -26.6673   21.4027 H   0  0  0  0  0  0
  -18.0320  -26.0063   22.9025 H   0  0  0  0  0  0
  -19.7947  -30.7248   24.2270 H   0  0  0  0  0  0
  -17.5036  -31.6272   24.5160 H   0  0  0  0  0  0
  -15.5357  -30.3003   23.7664 H   0  0  0  0  0  0
  -15.8661  -28.0842   22.7055 H   0  0  0  0  0  0
  -24.5903  -30.7054   25.7827 H   0  0  0  0  0  0
  -24.8916  -32.2873   26.4921 H   0  0  0  0  0  0
  -25.8087  -30.8897   27.0239 H   0  0  0  0  0  0
  -26.2832  -29.6827   24.1133 H   0  0  0  0  0  0
  -27.4078  -29.7273   25.4528 H   0  0  0  0  0  0
  -27.8660  -30.4403   23.9229 H   0  0  0  0  0  0
  -27.2645  -33.3615   26.2088 H   0  0  0  0  0  0
  -28.3832  -32.6889   25.0308 H   0  0  0  0  0  0
  -28.0701  -31.8426   26.5396 H   0  0  0  0  0  0
  -28.2602  -38.0089   24.7516 H   0  0  0  0  0  0
  -28.1058  -36.2617   24.6298 H   0  0  0  0  0  0
  -27.2291  -37.1450   25.8877 H   0  0  0  0  0  0
  -20.9301  -29.8762   21.6960 H   0  0  0  0  0  0
  -26.0178  -38.2879   24.1431 H   0  0  0  0  0  0
  -28.4862  -17.8109   21.9465 H   0  0  0  0  0  0
  -32.7279  -18.4097   21.4227 H   0  0  0  0  0  0
  -28.1273  -20.2545   21.7958 H   0  0  0  0  0  0
  -32.3777  -20.8334   21.2800 H   0  0  0  0  0  0
  -31.5202  -24.6770   22.6286 H   0  0  0  0  0  0
  -30.5352  -24.5141   24.0624 H   0  0  0  0  0  0
  -29.5286  -26.0238   22.3278 H   0  0  0  0  0  0
  -28.4726  -24.7092   22.7815 H   0  0  0  0  0  0
  -29.3587  -22.5590   19.7777 H   0  0  0  0  0  0
  -28.1690  -22.6622   21.0495 H   0  0  0  0  0  0
  -30.3032  -24.7319   20.3413 H   0  0  0  0  0  0
  -30.7590  -16.3693   23.1548 H   0  0  0  0  0  0
  -32.0201  -16.2846   21.9848 H   0  0  0  0  0  0
  -27.2843  -24.9104   20.4934 H   0  0  0  0  0  0
  -28.2219  -24.9187   19.0097 H   0  0  0  0  0  0
  -29.2789  -15.1655   21.8125 H   0  0  0  0  0  0
  1 25  1  0  0  0
  1 30  2  0  0  0
  1 85  1  0  0  0
  2  3  1  0  0  0
  2 25  1  0  0  0
  2 87  1  0  0  0
  2 88  1  0  0  0
  3  4  1  0  0  0
  3 89  1  0  0  0
  3 90  1  0  0  0
  4  5  1  0  0  0
  4 91  1  0  0  0
  4 92  1  0  0  0
  5  6  1  0  0  0
  5 26  1  0  0  0
  5 93  1  0  0  0
  6 25  1  0  0  0
  6 94  1  0  0  0
  6 95  1  0  0  0
  7  8  2  0  0  0
  7 26  1  0  0  0
  7 29  1  0  0  0
  8  9  1  0  0  0
  8 22  1  0  0  0
  9 10  1  0  0  0
  9 27  2  0  0  0
 10 11  2  0  0  0
 10 15  1  0  0  0
 11 12  1  0  0  0
 11 96  1  0  0  0
 12 13  2  0  0  0
 12 97  1  0  0  0
 13 14  1  0  0  0
 13 31  1  0  0  0
 14 15  2  0  0  0
 14 98  1  0  0  0
 15 99  1  0  0  0
 16 17  2  0  0  0
 16 21  1  0  0  0
 16 31  1  0  0  0
 17 18  1  0  0  0
 17100  1  0  0  0
 18 19  2  0  0  0
 18101  1  0  0  0
 19 20  1  0  0  0
 19 24  1  0  0  0
 20 21  2  0  0  0
 20102  1  0  0  0
 21 23  1  0  0  0
 22 28  1  0  0  0
 22 32  2  0  0  0
 26 27  1  0  0  0
 28103  1  0  0  0
 28104  1  0  0  0
 29105  1  0  0  0
 29106  1  0  0  0
 33 34  1  0  0  0
 33 66  1  0  0  0
 33 70  2  0  0  0
 34 36  1  0  0  0
 34 59  1  0  0  0
 34107  1  0  0  0
 35 44  2  0  0  0
 35 45  1  0  0  0
 35 68  1  0  0  0
 36 56  1  0  0  0
 36108  1  0  0  0
 37 39  1  0  0  0
 37 47  1  0  0  0
 37 66  1  0  0  0
 37109  1  0  0  0
 38 43  2  0  0  0
 38 46  1  0  0  0
 38 47  1  0  0  0
 39 64  1  0  0  0
 39 67  2  0  0  0
 40 52  1  0  0  0
 40 53  2  0  0  0
 40 58  1  0  0  0
 41110  1  0  0  0
 41111  1  0  0  0
 41112  1  0  0  0
 41 48  1  0  0  0
 42 43  1  0  0  0
 42 66  1  0  0  0
 42113  1  0  0  0
 42114  1  0  0  0
 43 44  1  0  0  0
 44115  1  0  0  0
 45 46  2  0  0  0
 45116  1  0  0  0
 46117  1  0  0  0
 47118  1  0  0  0
 47119  1  0  0  0
 48 56  1  0  0  0
 48 65  1  0  0  0
 48120  1  0  0  0
 49 50  1  0  0  0
 49 53  1  0  0  0
 49 64  1  0  0  0
 49121  1  0  0  0
 50 51  1  0  0  0
 50122  1  0  0  0
 50123  1  0  0  0
 51 52  1  0  0  0
 51124  1  0  0  0
 51125  1  0  0  0
 52126  1  0  0  0
 52127  1  0  0  0
 53 54  1  0  0  0
 54 55  2  0  0  0
 54128  1  0  0  0
 55 57  1  0  0  0
 55129  1  0  0  0
 56 69  2  0  0  0
 57 58  2  0  0  0
 57130  1  0  0  0
 58131  1  0  0  0
 59 60  1  0  0  0
 59 61  1  0  0  0
 59 62  1  0  0  0
 60132  1  0  0  0
 60133  1  0  0  0
 60134  1  0  0  0
 61135  1  0  0  0
 61136  1  0  0  0
 61137  1  0  0  0
 62138  1  0  0  0
 62139  1  0  0  0
 62140  1  0  0  0
 63 65  1  0  0  0
 63141  1  0  0  0
 63142  1  0  0  0
 63143  1  0  0  0
 64144  1  0  0  0
 65145  1  0  0  0
 68 83  1  0  0  0
 71 73  2  0  0  0
 71 75  1  0  0  0
 71146  1  0  0  0
 72 74  1  0  0  0
 72 75  2  0  0  0
 72147  1  0  0  0
 73 76  1  0  0  0
 73148  1  0  0  0
 74 76  2  0  0  0
 74149  1  0  0  0
 75 82  1  0  0  0
 76 84  1  0  0  0
 77 78  1  0  0  0
 77 84  1  0  0  0
 77 86  2  0  0  0
 78 79  1  0  0  0
 78150  1  0  0  0
 78151  1  0  0  0
 79 81  1  0  0  0
 79152  1  0  0  0
 79153  1  0  0  0
 80 81  1  0  0  0
 80 84  1  0  0  0
 80154  1  0  0  0
 80155  1  0  0  0
 81 83  1  0  0  0
 81156  1  0  0  0
 82 85  1  0  0  0
 82157  1  0  0  0
 82158  1  0  0  0
 83159  1  0  0  0
 83160  1  0  0  0
 85161  1  0  0  0
M  ISO  4   1 100  68 101  83 101  85 100
M  END
> <chiral flag>
0

> <version>
0

> <s_m_source_file>
/data/baiqing/PycharmProjects/Reinvent-master-3.2/result/LINK_invent/BTK/process_docking_weight1_custom_product_contain_oxygen_bond_distance_aromatic_linkinvent_7_9_3/rearranged_h_0098.sdf

> <i_m_source_file_index>
31

> <r_mmod_Potential_Energy-OPLS-2005>
4.68270874023438

> <r_mmod_Stretch_Energy-OPLS-2005>
44.2813720703125

> <r_mmod_Bend_Energy-OPLS-2005>
103.789657592773

> <r_mmod_Torsional_Energy-OPLS-2005>
276.015960693359

> <r_mmod_Improper_Torsional_Energy-OPLS-2005>
3.86651659011841

> <r_mmod_Van_der_Waal_Energy-OPLS-2005>
167.382125854492

> <r_mmod_Electrostatic_Energy-OPLS-2005>
-377.897888183594

> <r_mmod_Solvation_Energy-OPLS-2005>
-226.050811767578

> <b_mmod_Minimization_Converged-OPLS-2005>
0

> <r_mmod_RMS_Derivative-OPLS-2005>
1.20815706253052

$$$$
31
                    3D
 Structure written by MMmdl.
157165  0  0  1  0            999 V2000
  -30.7102  -14.4911   20.5837 C   0  0  0  0  0  0
  -30.4096  -12.3220   19.4384 C   0  0  0  0  0  0
  -29.5009  -12.5279   18.2109 C   0  0  0  0  0  0
  -28.0165  -12.3961   18.6123 C   0  0  0  0  0  0
  -27.6557  -13.2250   19.8757 C   0  0  2  0  0  0
  -28.6924  -13.0213   21.0008 C   0  0  0  0  0  0
  -25.2486  -13.8200   20.5666 C   0  0  0  0  0  0
  -24.1773  -13.0431   20.9161 C   0  0  0  0  0  0
  -24.6366  -11.6915   20.8712 C   0  0  0  0  0  0
  -23.9062  -10.4293   21.0429 C   0  0  0  0  0  0
  -24.3613   -9.4196   21.9191 C   0  0  0  0  0  0
  -23.6260   -8.2245   22.0787 C   0  0  0  0  0  0
  -22.4228   -8.0292   21.3581 C   0  0  0  0  0  0
  -21.9862   -9.0287   20.4697 C   0  0  0  0  0  0
  -22.7233  -10.2139   20.3073 C   0  0  0  0  0  0
  -21.6844   -6.0717   22.5264 C   0  0  0  0  0  0
  -21.4056   -6.5640   23.8204 C   0  0  0  0  0  0
  -21.3658   -5.6792   24.9168 C   0  0  0  0  0  0
  -21.6021   -4.3054   24.7214 C   0  0  0  0  0  0
  -21.8817   -3.8140   23.4341 C   0  0  0  0  0  0
  -21.9193   -4.6951   22.3394 C   0  0  0  0  0  0
  -22.7790  -13.5212   21.1836 C   0  0  0  0  0  0
  -22.1644   -4.2155   21.0956 F   0  0  0  0  0  0
  -21.5613   -3.4536   25.7726 F   0  0  0  0  0  0
  -30.0199  -13.3235   20.4422 N   0  0  0  0  0  0
  -26.2965  -12.9419   20.3348 N   0  0  0  0  0  0
  -25.9298  -11.6562   20.5718 N   0  0  0  0  0  0
  -22.0395  -12.8268   22.0410 N   0  0  0  0  0  0
  -25.4153  -15.1914   20.4096 N   0  0  0  0  0  0
  -31.8369  -14.6458   20.1092 O   0  0  0  0  0  0
  -21.6620   -6.8865   21.4234 O   0  0  0  0  0  0
  -22.3465  -14.5514   20.6669 O   0  0  0  0  0  0
  -24.6026  -31.8674   23.2133 C   0  0  0  0  0  0
  -25.8909  -32.4839   23.8404 C   0  0  1  0  0  0
  -27.2399  -27.4429   20.0747 C   0  0  0  0  0  0
  -25.5758  -33.8641   24.2300 N   0  0  0  0  0  0
  -23.3943  -30.4857   21.5542 C   0  0  2  0  0  0
  -24.8456  -28.9569   20.1168 C   0  0  0  0  0  0
  -22.7343  -29.4588   22.5023 C   0  0  0  0  0  0
  -18.0256  -28.1324   22.8512 C   0  0  0  0  0  0
  -24.1469  -36.7316   23.2647 C   0  0  0  0  0  0
  -25.9255  -30.8241   21.3824 C   0  0  0  0  0  0
  -26.0031  -29.4633   20.7187 C   0  0  0  0  0  0
  -27.1958  -28.7078   20.7066 C   0  0  0  0  0  0
  -26.0623  -26.9550   19.4597 C   0  0  0  0  0  0
  -24.8676  -27.6987   19.4934 C   0  0  0  0  0  0
  -23.6045  -29.8161   20.1695 C   0  0  0  0  0  0
  -25.4094  -36.3138   24.0345 C   0  0  1  0  0  0
  -20.5827  -28.3556   23.1355 C   0  0  2  0  0  0
  -20.6709  -26.9299   22.5431 C   0  0  0  0  0  0
  -19.5709  -26.6338   21.5203 C   0  0  0  0  0  0
  -18.1891  -26.7892   22.1626 C   0  0  0  0  0  0
  -19.1497  -28.8777   23.2939 C   0  0  0  0  0  0
  -18.9448  -30.1375   23.8935 C   0  0  0  0  0  0
  -17.6449  -30.6558   24.0549 C   0  0  0  0  0  0
  -25.9002  -34.9493   23.5148 C   0  0  0  0  0  0
  -16.5344  -29.9051   23.6326 C   0  0  0  0  0  0
  -16.7238  -28.6465   23.0381 C   0  0  0  0  0  0
  -26.4347  -31.6662   25.0750 C   0  0  0  0  0  0
  -25.3612  -31.3794   26.1512 C   0  0  0  0  0  0
  -27.0165  -30.3102   24.6170 C   0  0  0  0  0  0
  -27.5950  -32.4388   25.7447 C   0  0  0  0  0  0
  -27.5602  -37.1784   24.8439 C   0  0  0  0  0  0
  -21.4091  -29.2923   22.3764 N   0  0  0  0  0  0
  -26.4293  -37.3819   23.9420 N   0  0  0  0  0  0
  -24.6574  -31.0725   22.1076 N   0  0  0  0  0  0
  -23.4143  -28.8142   23.3063 O   0  0  0  0  0  0
  -28.4365  -26.7512   20.0826 O   0  0  0  0  0  0
  -26.5623  -34.8949   22.4745 O   0  0  0  0  0  0
  -23.5215  -32.1442   23.7509 O   0  0  0  0  0  0
  -29.9358  -18.6682   20.1230 C   0  0  0  0  0  0
  -29.5896  -20.0257   19.9317 C   0  0  0  0  0  0
  -29.2691  -20.2679   22.3230 C   0  0  0  0  0  0
  -30.0161  -18.1076   21.4212 C   0  0  0  0  0  0
  -29.5908  -18.9044   22.5171 C   0  0  0  0  0  0
  -29.3277  -20.8617   21.0449 C   0  0  0  0  0  0
  -29.7384  -23.1612   20.1548 C   0  0  0  0  0  0
  -29.4897  -18.3494   23.9287 C   0  0  0  0  0  0
  -30.7327  -16.7556   21.6315 C   0  0  0  0  0  0
  -29.5599  -24.6528   20.4955 C   0  0  0  0  0  0
  -28.4821  -25.3770   19.6658 C   0  0  0  0  0  0
  -29.1058  -22.2707   20.9445 N   0  0  0  0  0  0
  -30.0706  -15.5129   21.1973 N   0  0  0  0  0  0
  -30.4712  -22.8446   19.2147 O   0  0  0  0  0  0
  -31.4634  -12.3930   19.1627 H   0  0  0  0  0  0
  -30.2787  -11.3187   19.8468 H   0  0  0  0  0  0
  -29.7472  -11.8056   17.4307 H   0  0  0  0  0  0
  -29.6895  -13.5106   17.7742 H   0  0  0  0  0  0
  -27.8141  -11.3419   18.7894 H   0  0  0  0  0  0
  -27.3819  -12.6974   17.7765 H   0  0  0  0  0  0
  -27.6951  -14.2745   19.5839 H   0  0  0  0  0  0
  -28.6650  -11.9937   21.3654 H   0  0  0  0  0  0
  -28.4499  -13.6462   21.8614 H   0  0  0  0  0  0
  -25.2774   -9.5659   22.4755 H   0  0  0  0  0  0
  -24.0000   -7.4609   22.7461 H   0  0  0  0  0  0
  -21.0814   -8.8803   19.8970 H   0  0  0  0  0  0
  -22.3723  -10.9678   19.6170 H   0  0  0  0  0  0
  -21.2098   -7.6146   23.9720 H   0  0  0  0  0  0
  -21.1469   -6.0514   25.9071 H   0  0  0  0  0  0
  -22.0602   -2.7603   23.2820 H   0  0  0  0  0  0
  -22.4016  -12.0005   22.4917 H   0  0  0  0  0  0
  -21.1034  -13.1369   22.2623 H   0  0  0  0  0  0
  -24.6439  -15.8426   20.5123 H   0  0  0  0  0  0
  -26.2713  -15.6447   20.1146 H   0  0  0  0  0  0
  -26.6952  -32.5528   23.1135 H   0  0  0  0  0  0
  -24.9768  -33.9816   25.0347 H   0  0  0  0  0  0
  -22.6816  -31.3010   21.4112 H   0  0  0  0  0  0
  -23.3778  -35.9596   23.3279 H   0  0  0  0  0  0
  -24.3592  -36.8972   22.2072 H   0  0  0  0  0  0
  -23.7177  -37.6486   23.6692 H   0  0  0  0  0  0
  -26.0558  -31.6019   20.6290 H   0  0  0  0  0  0
  -26.8025  -30.8611   22.0164 H   0  0  0  0  0  0
  -28.0869  -29.0889   21.1879 H   0  0  0  0  0  0
  -26.0374  -26.0140   18.9319 H   0  0  0  0  0  0
  -23.9778  -27.3013   19.0253 H   0  0  0  0  0  0
  -23.7010  -30.5854   19.4030 H   0  0  0  0  0  0
  -22.7349  -29.2212   19.8848 H   0  0  0  0  0  0
  -25.1276  -36.2013   25.0845 H   0  0  0  0  0  0
  -20.9915  -28.3063   24.1471 H   0  0  0  0  0  0
  -20.5538  -26.2129   23.3567 H   0  0  0  0  0  0
  -21.6588  -26.7274   22.1266 H   0  0  0  0  0  0
  -19.6841  -25.6253   21.1214 H   0  0  0  0  0  0
  -19.6685  -27.3148   20.6736 H   0  0  0  0  0  0
  -17.4142  -26.6616   21.4056 H   0  0  0  0  0  0
  -18.0306  -26.0012   22.8997 H   0  0  0  0  0  0
  -19.7920  -30.7179   24.2325 H   0  0  0  0  0  0
  -17.5017  -31.6269   24.5070 H   0  0  0  0  0  0
  -15.5340  -30.2972   23.7646 H   0  0  0  0  0  0
  -15.8631  -28.0777   22.7122 H   0  0  0  0  0  0
  -24.5704  -30.7246   25.7833 H   0  0  0  0  0  0
  -24.8879  -32.2967   26.5032 H   0  0  0  0  0  0
  -25.7925  -30.8868   27.0234 H   0  0  0  0  0  0
  -26.2723  -29.6929   24.1130 H   0  0  0  0  0  0
  -27.3804  -29.7301   25.4658 H   0  0  0  0  0  0
  -27.8619  -30.4431   23.9419 H   0  0  0  0  0  0
  -27.2578  -33.3652   26.2108 H   0  0  0  0  0  0
  -28.3644  -32.7030   25.0180 H   0  0  0  0  0  0
  -28.0732  -31.8485   26.5268 H   0  0  0  0  0  0
  -28.2564  -38.0136   24.7602 H   0  0  0  0  0  0
  -28.1160  -36.2694   24.6109 H   0  0  0  0  0  0
  -27.2344  -37.1239   25.8840 H   0  0  0  0  0  0
  -20.9210  -29.8630   21.7004 H   0  0  0  0  0  0
  -26.0196  -38.2879   24.1529 H   0  0  0  0  0  0
  -30.2022  -18.0713   19.2619 H   0  0  0  0  0  0
  -29.5683  -20.4326   18.9301 H   0  0  0  0  0  0
  -29.0232  -20.8775   23.1845 H   0  0  0  0  0  0
  -28.5938  -18.7360   24.4140 H   0  0  0  0  0  0
  -30.3560  -18.6393   24.5244 H   0  0  0  0  0  0
  -29.3950  -17.2641   23.9433 H   0  0  0  0  0  0
  -31.0154  -16.6190   22.6747 H   0  0  0  0  0  0
  -31.6933  -16.8669   21.1294 H   0  0  0  0  0  0
  -30.5178  -25.1572   20.3580 H   0  0  0  0  0  0
  -29.3251  -24.7512   21.5545 H   0  0  0  0  0  0
  -27.5413  -24.8517   19.8267 H   0  0  0  0  0  0
  -28.7143  -25.3345   18.6005 H   0  0  0  0  0  0
  -28.5548  -22.6806   21.6877 H   0  0  0  0  0  0
  -29.1228  -15.3563   21.5056 H   0  0  0  0  0  0
  1 25  1  0  0  0
  1 30  2  0  0  0
  1 83  1  0  0  0
  2  3  1  0  0  0
  2 25  1  0  0  0
  2 85  1  0  0  0
  2 86  1  0  0  0
  3  4  1  0  0  0
  3 87  1  0  0  0
  3 88  1  0  0  0
  4  5  1  0  0  0
  4 89  1  0  0  0
  4 90  1  0  0  0
  5  6  1  0  0  0
  5 26  1  0  0  0
  5 91  1  0  0  0
  6 25  1  0  0  0
  6 92  1  0  0  0
  6 93  1  0  0  0
  7  8  2  0  0  0
  7 26  1  0  0  0
  7 29  1  0  0  0
  8  9  1  0  0  0
  8 22  1  0  0  0
  9 10  1  0  0  0
  9 27  2  0  0  0
 10 11  2  0  0  0
 10 15  1  0  0  0
 11 12  1  0  0  0
 11 94  1  0  0  0
 12 13  2  0  0  0
 12 95  1  0  0  0
 13 14  1  0  0  0
 13 31  1  0  0  0
 14 15  2  0  0  0
 14 96  1  0  0  0
 15 97  1  0  0  0
 16 17  2  0  0  0
 16 21  1  0  0  0
 16 31  1  0  0  0
 17 18  1  0  0  0
 17 98  1  0  0  0
 18 19  2  0  0  0
 18 99  1  0  0  0
 19 20  1  0  0  0
 19 24  1  0  0  0
 20 21  2  0  0  0
 20100  1  0  0  0
 21 23  1  0  0  0
 22 28  1  0  0  0
 22 32  2  0  0  0
 26 27  1  0  0  0
 28101  1  0  0  0
 28102  1  0  0  0
 29103  1  0  0  0
 29104  1  0  0  0
 33 34  1  0  0  0
 33 66  1  0  0  0
 33 70  2  0  0  0
 34 36  1  0  0  0
 34 59  1  0  0  0
 34105  1  0  0  0
 35 44  2  0  0  0
 35 45  1  0  0  0
 35 68  1  0  0  0
 36 56  1  0  0  0
 36106  1  0  0  0
 37 39  1  0  0  0
 37 47  1  0  0  0
 37 66  1  0  0  0
 37107  1  0  0  0
 38 43  2  0  0  0
 38 46  1  0  0  0
 38 47  1  0  0  0
 39 64  1  0  0  0
 39 67  2  0  0  0
 40 52  1  0  0  0
 40 53  2  0  0  0
 40 58  1  0  0  0
 41108  1  0  0  0
 41109  1  0  0  0
 41110  1  0  0  0
 41 48  1  0  0  0
 42 43  1  0  0  0
 42 66  1  0  0  0
 42111  1  0  0  0
 42112  1  0  0  0
 43 44  1  0  0  0
 44113  1  0  0  0
 45 46  2  0  0  0
 45114  1  0  0  0
 46115  1  0  0  0
 47116  1  0  0  0
 47117  1  0  0  0
 48 56  1  0  0  0
 48 65  1  0  0  0
 48118  1  0  0  0
 49 50  1  0  0  0
 49 53  1  0  0  0
 49 64  1  0  0  0
 49119  1  0  0  0
 50 51  1  0  0  0
 50120  1  0  0  0
 50121  1  0  0  0
 51 52  1  0  0  0
 51122  1  0  0  0
 51123  1  0  0  0
 52124  1  0  0  0
 52125  1  0  0  0
 53 54  1  0  0  0
 54 55  2  0  0  0
 54126  1  0  0  0
 55 57  1  0  0  0
 55127  1  0  0  0
 56 69  2  0  0  0
 57 58  2  0  0  0
 57128  1  0  0  0
 58129  1  0  0  0
 59 60  1  0  0  0
 59 61  1  0  0  0
 59 62  1  0  0  0
 60130  1  0  0  0
 60131  1  0  0  0
 60132  1  0  0  0
 61133  1  0  0  0
 61134  1  0  0  0
 61135  1  0  0  0
 62136  1  0  0  0
 62137  1  0  0  0
 62138  1  0  0  0
 63 65  1  0  0  0
 63139  1  0  0  0
 63140  1  0  0  0
 63141  1  0  0  0
 64142  1  0  0  0
 65143  1  0  0  0
 68 81  1  0  0  0
 71 72  2  0  0  0
 71 74  1  0  0  0
 71144  1  0  0  0
 72 76  1  0  0  0
 72145  1  0  0  0
 73 75  1  0  0  0
 73 76  2  0  0  0
 73146  1  0  0  0
 74 75  2  0  0  0
 74 79  1  0  0  0
 75 78  1  0  0  0
 76 82  1  0  0  0
 77 80  1  0  0  0
 77 82  1  0  0  0
 77 84  2  0  0  0
 78147  1  0  0  0
 78148  1  0  0  0
 78149  1  0  0  0
 79 83  1  0  0  0
 79150  1  0  0  0
 79151  1  0  0  0
 80 81  1  0  0  0
 80152  1  0  0  0
 80153  1  0  0  0
 81154  1  0  0  0
 81155  1  0  0  0
 82156  1  0  0  0
 83157  1  0  0  0
M  ISO  4   1 100  68 101  81 101  83 100
M  END
> <chiral flag>
0

> <version>
0

> <s_m_source_file>
/data/baiqing/PycharmProjects/Reinvent-master-3.2/result/LINK_invent/BTK/process_docking_weight1_custom_product_contain_oxygen_bond_distance_aromatic_linkinvent_7_9_3/rearranged_h_0098.sdf

> <i_m_source_file_index>
32

> <r_mmod_Potential_Energy-OPLS-2005>
-122.232391357422

> <r_mmod_Stretch_Energy-OPLS-2005>
38.7317771911621

> <r_mmod_Bend_Energy-OPLS-2005>
109.371124267578

> <r_mmod_Torsional_Energy-OPLS-2005>
230.382019042969

> <r_mmod_Improper_Torsional_Energy-OPLS-2005>
3.91771697998047

> <r_mmod_Van_der_Waal_Energy-OPLS-2005>
160.414901733398

> <r_mmod_Electrostatic_Energy-OPLS-2005>
-448.855590820312

> <r_mmod_Solvation_Energy-OPLS-2005>
-230.894653320312

> <b_mmod_Minimization_Converged-OPLS-2005>
0

> <r_mmod_RMS_Derivative-OPLS-2005>
5.10821676254272

$$$$
32
                    3D
 Structure written by MMmdl.
162170  0  0  1  0            999 V2000
  -30.7509  -14.3880   20.6338 C   0  0  0  0  0  0
  -30.4134  -12.2837   19.4018 C   0  0  0  0  0  0
  -29.4839  -12.5113   18.1944 C   0  0  0  0  0  0
  -28.0063  -12.3751   18.6090 C   0  0  0  0  0  0
  -27.6624  -13.2036   19.8755 C   0  0  2  0  0  0
  -28.7019  -12.9574   20.9915 C   0  0  0  0  0  0
  -25.2585  -13.8154   20.5675 C   0  0  0  0  0  0
  -24.1831  -13.0434   20.9163 C   0  0  0  0  0  0
  -24.6380  -11.6901   20.8718 C   0  0  0  0  0  0
  -23.9045  -10.4290   21.0391 C   0  0  0  0  0  0
  -24.3601   -9.4211   21.9173 C   0  0  0  0  0  0
  -23.6282   -8.2246   22.0752 C   0  0  0  0  0  0
  -22.4267   -8.0274   21.3541 C   0  0  0  0  0  0
  -21.9893   -9.0245   20.4645 C   0  0  0  0  0  0
  -22.7215  -10.2127   20.3049 C   0  0  0  0  0  0
  -21.6854   -6.0731   22.5278 C   0  0  0  0  0  0
  -21.4014   -6.5637   23.8210 C   0  0  0  0  0  0
  -21.3658   -5.6792   24.9173 C   0  0  0  0  0  0
  -21.6044   -4.3055   24.7226 C   0  0  0  0  0  0
  -21.8819   -3.8145   23.4348 C   0  0  0  0  0  0
  -21.9193   -4.6960   22.3403 C   0  0  0  0  0  0
  -22.7854  -13.5236   21.1831 C   0  0  0  0  0  0
  -22.1661   -4.2146   21.0980 F   0  0  0  0  0  0
  -21.5628   -3.4540   25.7739 F   0  0  0  0  0  0
  -30.0392  -13.2481   20.4458 N   0  0  0  0  0  0
  -26.3021  -12.9322   20.3366 N   0  0  0  0  0  0
  -25.9305  -11.6482   20.5748 N   0  0  0  0  0  0
  -22.0498  -12.8240   22.0395 N   0  0  0  0  0  0
  -25.4319  -15.1869   20.4102 N   0  0  0  0  0  0
  -31.8309  -14.6099   20.0804 O   0  0  0  0  0  0
  -21.6637   -6.8870   21.4238 O   0  0  0  0  0  0
  -22.3537  -14.5537   20.6672 O   0  0  0  0  0  0
  -24.6109  -31.8712   23.2121 C   0  0  0  0  0  0
  -25.9015  -32.4839   23.8406 C   0  0  1  0  0  0
  -27.2339  -27.4667   20.0855 C   0  0  0  0  0  0
  -25.5901  -33.8641   24.2341 N   0  0  0  0  0  0
  -23.3978  -30.4940   21.5522 C   0  0  2  0  0  0
  -24.8440  -28.9613   20.1180 C   0  0  0  0  0  0
  -22.7398  -29.4672   22.5010 C   0  0  0  0  0  0
  -18.0274  -28.1370   22.8498 C   0  0  0  0  0  0
  -24.1494  -36.7327   23.2640 C   0  0  0  0  0  0
  -25.9235  -30.8442   21.3613 C   0  0  0  0  0  0
  -26.0015  -29.4797   20.7126 C   0  0  0  0  0  0
  -27.2017  -28.7373   20.6961 C   0  0  0  0  0  0
  -26.0642  -26.9549   19.4874 C   0  0  0  0  0  0
  -24.8679  -27.6953   19.5063 C   0  0  0  0  0  0
  -23.6049  -29.8244   20.1673 C   0  0  0  0  0  0
  -25.4113  -36.3127   24.0341 C   0  0  1  0  0  0
  -20.5864  -28.3656   23.1342 C   0  0  2  0  0  0
  -20.6766  -26.9396   22.5430 C   0  0  0  0  0  0
  -19.5743  -26.6383   21.5227 C   0  0  0  0  0  0
  -18.1918  -26.7918   22.1633 C   0  0  0  0  0  0
  -19.1522  -28.8829   23.2919 C   0  0  0  0  0  0
  -18.9448  -30.1437   23.8922 C   0  0  0  0  0  0
  -17.6451  -30.6580   24.0566 C   0  0  0  0  0  0
  -25.9044  -34.9489   23.5143 C   0  0  0  0  0  0
  -16.5344  -29.9079   23.6324 C   0  0  0  0  0  0
  -16.7264  -28.6497   23.0345 C   0  0  0  0  0  0
  -26.4450  -31.6603   25.0718 C   0  0  0  0  0  0
  -25.3731  -31.3684   26.1477 C   0  0  0  0  0  0
  -27.0272  -30.3055   24.6055 C   0  0  0  0  0  0
  -27.6046  -32.4306   25.7468 C   0  0  0  0  0  0
  -27.5587  -37.1815   24.8466 C   0  0  0  0  0  0
  -21.4130  -29.3033   22.3751 N   0  0  0  0  0  0
  -26.4302  -37.3809   23.9414 N   0  0  0  0  0  0
  -24.6620  -31.0843   22.1003 N   0  0  0  0  0  0
  -23.4189  -28.8205   23.3027 O   0  0  0  0  0  0
  -28.4021  -26.7476   20.0476 O   0  0  0  0  0  0
  -26.5603  -34.8937   22.4698 O   0  0  0  0  0  0
  -23.5315  -32.1442   23.7540 O   0  0  0  0  0  0
  -29.7478  -19.5352   21.7949 C   0  0  0  0  0  0
  -28.8475  -20.6175   21.8168 C   0  0  0  0  0  0
  -28.9876  -18.9388   19.5601 C   0  0  0  0  0  0
  -29.8328  -18.6946   20.6641 C   0  0  0  0  0  0
  -28.0334  -20.8888   20.6938 C   0  0  0  0  0  0
  -28.0903  -20.0251   19.5761 C   0  0  0  0  0  0
  -28.0091  -24.3348   20.3374 C   0  0  0  0  0  0
  -32.2791  -18.1969   20.4705 C   0  0  0  0  0  0
  -27.5301  -23.2375   21.2966 C   0  0  0  0  0  0
  -28.4447  -25.6617   20.9774 C   0  0  0  0  0  0
  -30.7987  -16.5844   21.7887 C   0  0  0  0  0  0
  -30.8761  -17.5836   20.5987 C   0  0  1  0  0  0
  -27.2506  -20.2547   18.4838 N   0  0  0  0  0  0
  -27.1671  -21.9901   20.6151 N   0  0  0  0  0  0
  -30.1859  -15.3037   21.4316 N   0  0  0  0  0  0
  -28.0368  -24.1510   19.1137 O   0  0  0  0  0  0
  -31.4578  -12.3755   19.0976 H   0  0  0  0  0  0
  -30.3075  -11.2663   19.7816 H   0  0  0  0  0  0
  -29.7163  -11.7996   17.4011 H   0  0  0  0  0  0
  -29.6589  -13.5039   17.7761 H   0  0  0  0  0  0
  -27.8081  -11.3184   18.7914 H   0  0  0  0  0  0
  -27.3572  -12.6656   17.7827 H   0  0  0  0  0  0
  -27.7157  -14.2554   19.5933 H   0  0  0  0  0  0
  -28.6667  -11.9160   21.3144 H   0  0  0  0  0  0
  -28.4600  -13.5409   21.8799 H   0  0  0  0  0  0
  -25.2746   -9.5700   22.4741 H   0  0  0  0  0  0
  -23.9999   -7.4642   22.7473 H   0  0  0  0  0  0
  -21.0825   -8.8752   19.8952 H   0  0  0  0  0  0
  -22.3662  -10.9659   19.6157 H   0  0  0  0  0  0
  -21.2005   -7.6146   23.9712 H   0  0  0  0  0  0
  -21.1479   -6.0523   25.9075 H   0  0  0  0  0  0
  -22.0600   -2.7610   23.2849 H   0  0  0  0  0  0
  -22.4113  -11.9912   22.4804 H   0  0  0  0  0  0
  -21.1110  -13.1265   22.2583 H   0  0  0  0  0  0
  -24.6692  -15.8460   20.5229 H   0  0  0  0  0  0
  -26.2940  -15.6270   20.1130 H   0  0  0  0  0  0
  -26.7076  -32.5569   23.1168 H   0  0  0  0  0  0
  -25.0057  -33.9800   25.0488 H   0  0  0  0  0  0
  -22.6857  -31.3100   21.4115 H   0  0  0  0  0  0
  -23.3757  -35.9664   23.3321 H   0  0  0  0  0  0
  -24.3586  -36.8922   22.2052 H   0  0  0  0  0  0
  -23.7242  -37.6537   23.6635 H   0  0  0  0  0  0
  -26.0354  -31.6090   20.5913 H   0  0  0  0  0  0
  -26.8133  -30.8999   21.9757 H   0  0  0  0  0  0
  -28.0987  -29.1340   21.1510 H   0  0  0  0  0  0
  -26.0783  -25.9928   18.9946 H   0  0  0  0  0  0
  -23.9784  -27.2931   19.0421 H   0  0  0  0  0  0
  -23.7109  -30.5987   19.4064 H   0  0  0  0  0  0
  -22.7289  -29.2425   19.8740 H   0  0  0  0  0  0
  -25.1281  -36.2006   25.0831 H   0  0  0  0  0  0
  -20.9956  -28.3209   24.1463 H   0  0  0  0  0  0
  -20.5690  -26.2250   23.3606 H   0  0  0  0  0  0
  -21.6627  -26.7450   22.1197 H   0  0  0  0  0  0
  -19.6911  -25.6306   21.1232 H   0  0  0  0  0  0
  -19.6682  -27.3218   20.6779 H   0  0  0  0  0  0
  -17.4191  -26.6690   21.4026 H   0  0  0  0  0  0
  -18.0299  -26.0052   22.9016 H   0  0  0  0  0  0
  -19.7927  -30.7249   24.2296 H   0  0  0  0  0  0
  -17.5010  -31.6264   24.5161 H   0  0  0  0  0  0
  -15.5348  -30.2991   23.7635 H   0  0  0  0  0  0
  -15.8661  -28.0828   22.7039 H   0  0  0  0  0  0
  -24.5909  -30.7023   25.7817 H   0  0  0  0  0  0
  -24.8911  -32.2828   26.4958 H   0  0  0  0  0  0
  -25.8102  -30.8835   27.0219 H   0  0  0  0  0  0
  -26.2795  -29.6820   24.1134 H   0  0  0  0  0  0
  -27.4096  -29.7277   25.4482 H   0  0  0  0  0  0
  -27.8608  -30.4400   23.9153 H   0  0  0  0  0  0
  -27.2689  -33.3599   26.2082 H   0  0  0  0  0  0
  -28.3828  -32.6880   25.0269 H   0  0  0  0  0  0
  -28.0736  -31.8401   26.5343 H   0  0  0  0  0  0
  -28.2611  -38.0107   24.7522 H   0  0  0  0  0  0
  -28.1070  -36.2642   24.6278 H   0  0  0  0  0  0
  -27.2308  -37.1454   25.8869 H   0  0  0  0  0  0
  -20.9280  -29.8756   21.6978 H   0  0  0  0  0  0
  -26.0202  -38.2897   24.1394 H   0  0  0  0  0  0
  -30.3901  -19.3681   22.6476 H   0  0  0  0  0  0
  -28.8110  -21.2289   22.7057 H   0  0  0  0  0  0
  -29.0465  -18.2995   18.6905 H   0  0  0  0  0  0
  -32.3413  -18.8513   19.5999 H   0  0  0  0  0  0
  -33.0341  -17.4202   20.3451 H   0  0  0  0  0  0
  -32.5478  -18.7836   21.3489 H   0  0  0  0  0  0
  -26.6543  -23.6130   21.8264 H   0  0  0  0  0  0
  -28.3060  -23.1039   22.0478 H   0  0  0  0  0  0
  -29.4684  -25.5472   21.3319 H   0  0  0  0  0  0
  -27.8268  -25.8700   21.8518 H   0  0  0  0  0  0
  -30.2689  -17.0077   22.6416 H   0  0  0  0  0  0
  -31.8025  -16.3676   22.1591 H   0  0  0  0  0  0
  -30.7052  -17.0394   19.6689 H   0  0  0  0  0  0
  -27.1533  -19.4841   17.8324 H   0  0  0  0  0  0
  -26.3418  -20.6302   18.7299 H   0  0  0  0  0  0
  -26.9323  -22.1566   19.6379 H   0  0  0  0  0  0
  -29.2907  -15.0790   21.8397 H   0  0  0  0  0  0
  1 25  1  0  0  0
  1 30  2  0  0  0
  1 85  1  0  0  0
  2  3  1  0  0  0
  2 25  1  0  0  0
  2 87  1  0  0  0
  2 88  1  0  0  0
  3  4  1  0  0  0
  3 89  1  0  0  0
  3 90  1  0  0  0
  4  5  1  0  0  0
  4 91  1  0  0  0
  4 92  1  0  0  0
  5  6  1  0  0  0
  5 26  1  0  0  0
  5 93  1  0  0  0
  6 25  1  0  0  0
  6 94  1  0  0  0
  6 95  1  0  0  0
  7  8  2  0  0  0
  7 26  1  0  0  0
  7 29  1  0  0  0
  8  9  1  0  0  0
  8 22  1  0  0  0
  9 10  1  0  0  0
  9 27  2  0  0  0
 10 11  2  0  0  0
 10 15  1  0  0  0
 11 12  1  0  0  0
 11 96  1  0  0  0
 12 13  2  0  0  0
 12 97  1  0  0  0
 13 14  1  0  0  0
 13 31  1  0  0  0
 14 15  2  0  0  0
 14 98  1  0  0  0
 15 99  1  0  0  0
 16 17  2  0  0  0
 16 21  1  0  0  0
 16 31  1  0  0  0
 17 18  1  0  0  0
 17100  1  0  0  0
 18 19  2  0  0  0
 18101  1  0  0  0
 19 20  1  0  0  0
 19 24  1  0  0  0
 20 21  2  0  0  0
 20102  1  0  0  0
 21 23  1  0  0  0
 22 28  1  0  0  0
 22 32  2  0  0  0
 26 27  1  0  0  0
 28103  1  0  0  0
 28104  1  0  0  0
 29105  1  0  0  0
 29106  1  0  0  0
 33 34  1  0  0  0
 33 66  1  0  0  0
 33 70  2  0  0  0
 34 36  1  0  0  0
 34 59  1  0  0  0
 34107  1  0  0  0
 35 44  2  0  0  0
 35 45  1  0  0  0
 35 68  1  0  0  0
 36 56  1  0  0  0
 36108  1  0  0  0
 37 39  1  0  0  0
 37 47  1  0  0  0
 37 66  1  0  0  0
 37109  1  0  0  0
 38 43  2  0  0  0
 38 46  1  0  0  0
 38 47  1  0  0  0
 39 64  1  0  0  0
 39 67  2  0  0  0
 40 52  1  0  0  0
 40 53  2  0  0  0
 40 58  1  0  0  0
 41110  1  0  0  0
 41111  1  0  0  0
 41112  1  0  0  0
 41 48  1  0  0  0
 42 43  1  0  0  0
 42 66  1  0  0  0
 42113  1  0  0  0
 42114  1  0  0  0
 43 44  1  0  0  0
 44115  1  0  0  0
 45 46  2  0  0  0
 45116  1  0  0  0
 46117  1  0  0  0
 47118  1  0  0  0
 47119  1  0  0  0
 48 56  1  0  0  0
 48 65  1  0  0  0
 48120  1  0  0  0
 49 50  1  0  0  0
 49 53  1  0  0  0
 49 64  1  0  0  0
 49121  1  0  0  0
 50 51  1  0  0  0
 50122  1  0  0  0
 50123  1  0  0  0
 51 52  1  0  0  0
 51124  1  0  0  0
 51125  1  0  0  0
 52126  1  0  0  0
 52127  1  0  0  0
 53 54  1  0  0  0
 54 55  2  0  0  0
 54128  1  0  0  0
 55 57  1  0  0  0
 55129  1  0  0  0
 56 69  2  0  0  0
 57 58  2  0  0  0
 57130  1  0  0  0
 58131  1  0  0  0
 59 60  1  0  0  0
 59 61  1  0  0  0
 59 62  1  0  0  0
 60132  1  0  0  0
 60133  1  0  0  0
 60134  1  0  0  0
 61135  1  0  0  0
 61136  1  0  0  0
 61137  1  0  0  0
 62138  1  0  0  0
 62139  1  0  0  0
 62140  1  0  0  0
 63 65  1  0  0  0
 63141  1  0  0  0
 63142  1  0  0  0
 63143  1  0  0  0
 64144  1  0  0  0
 65145  1  0  0  0
 68 80  1  0  0  0
 71 72  2  0  0  0
 71 74  1  0  0  0
 71146  1  0  0  0
 72 75  1  0  0  0
 72147  1  0  0  0
 73 74  2  0  0  0
 73 76  1  0  0  0
 73148  1  0  0  0
 74 82  1  0  0  0
 75 76  2  0  0  0
 75 84  1  0  0  0
 76 83  1  0  0  0
 77 79  1  0  0  0
 77 80  1  0  0  0
 77 86  2  0  0  0
 78149  1  0  0  0
 78150  1  0  0  0
 78151  1  0  0  0
 78 82  1  0  0  0
 79 84  1  0  0  0
 79152  1  0  0  0
 79153  1  0  0  0
 80154  1  0  0  0
 80155  1  0  0  0
 81 82  1  0  0  0
 81 85  1  0  0  0
 81156  1  0  0  0
 81157  1  0  0  0
 82158  1  0  0  0
 83159  1  0  0  0
 83160  1  0  0  0
 84161  1  0  0  0
 85162  1  0  0  0
M  ISO  4   1 100  68 101  80 101  85 100
M  END
> <chiral flag>
0

> <version>
0

> <s_m_source_file>
/data/baiqing/PycharmProjects/Reinvent-master-3.2/result/LINK_invent/BTK/process_docking_weight1_custom_product_contain_oxygen_bond_distance_aromatic_linkinvent_7_9_3/rearranged_h_0098.sdf

> <i_m_source_file_index>
33

> <r_mmod_Potential_Energy-OPLS-2005>
-163.174163818359

> <r_mmod_Stretch_Energy-OPLS-2005>
33.2553176879883

> <r_mmod_Bend_Energy-OPLS-2005>
94.0387268066406

> <r_mmod_Torsional_Energy-OPLS-2005>
242.006729125977

> <r_mmod_Improper_Torsional_Energy-OPLS-2005>
11.8576984405518

> <r_mmod_Van_der_Waal_Energy-OPLS-2005>
163.349746704102

> <r_mmod_Electrostatic_Energy-OPLS-2005>
-475.791778564453

> <r_mmod_Solvation_Energy-OPLS-2005>
-239.319030761719

> <b_mmod_Minimization_Converged-OPLS-2005>
0

> <r_mmod_RMS_Derivative-OPLS-2005>
1.31996333599091

$$$$
33
                    3D
 Structure written by MMmdl.
159167  0  0  1  0            999 V2000
  -30.7035  -14.6606   20.6195 C   0  0  0  0  0  0
  -30.4234  -12.4485   19.4653 C   0  0  0  0  0  0
  -29.4998  -12.5396   18.2321 C   0  0  0  0  0  0
  -28.0319  -12.3407   18.6430 C   0  0  0  0  0  0
  -27.6457  -13.2320   19.8480 C   0  0  2  0  0  0
  -28.6778  -13.1307   20.9857 C   0  0  0  0  0  0
  -25.2501  -13.8222   20.5581 C   0  0  0  0  0  0
  -24.1828  -13.0459   20.9197 C   0  0  0  0  0  0
  -24.6428  -11.6951   20.8761 C   0  0  0  0  0  0
  -23.9110  -10.4312   21.0407 C   0  0  0  0  0  0
  -24.3661   -9.4214   21.9181 C   0  0  0  0  0  0
  -23.6323   -8.2251   22.0733 C   0  0  0  0  0  0
  -22.4303   -8.0283   21.3525 C   0  0  0  0  0  0
  -21.9959   -9.0290   20.4636 C   0  0  0  0  0  0
  -22.7294  -10.2144   20.3043 C   0  0  0  0  0  0
  -21.6860   -6.0734   22.5276 C   0  0  0  0  0  0
  -21.4023   -6.5636   23.8213 C   0  0  0  0  0  0
  -21.3649   -5.6779   24.9167 C   0  0  0  0  0  0
  -21.6035   -4.3053   24.7225 C   0  0  0  0  0  0
  -21.8833   -3.8145   23.4346 C   0  0  0  0  0  0
  -21.9220   -4.6961   22.3395 C   0  0  0  0  0  0
  -22.7833  -13.5195   21.1899 C   0  0  0  0  0  0
  -22.1662   -4.2139   21.0977 F   0  0  0  0  0  0
  -21.5640   -3.4539   25.7744 F   0  0  0  0  0  0
  -30.0100  -13.4755   20.4550 N   0  0  0  0  0  0
  -26.2956  -12.9429   20.3235 N   0  0  0  0  0  0
  -25.9357  -11.6582   20.5781 N   0  0  0  0  0  0
  -22.0489  -12.8174   22.0448 N   0  0  0  0  0  0
  -25.4104  -15.1932   20.3769 N   0  0  0  0  0  0
  -31.7618  -14.8413   20.0072 O   0  0  0  0  0  0
  -21.6653   -6.8882   21.4222 O   0  0  0  0  0  0
  -22.3512  -14.5510   20.6740 O   0  0  0  0  0  0
  -24.6198  -31.8642   23.2067 C   0  0  0  0  0  0
  -25.9041  -32.4831   23.8406 C   0  0  1  0  0  0
  -27.2212  -27.3066   20.1220 C   0  0  0  0  0  0
  -25.5865  -33.8635   24.2321 N   0  0  0  0  0  0
  -23.4141  -30.4884   21.5500 C   0  0  2  0  0  0
  -24.8642  -28.9433   20.1113 C   0  0  0  0  0  0
  -22.7408  -29.4654   22.4943 C   0  0  0  0  0  0
  -18.0267  -28.1374   22.8490 C   0  0  0  0  0  0
  -24.1491  -36.7325   23.2642 C   0  0  0  0  0  0
  -25.9537  -30.7948   21.3749 C   0  0  0  0  0  0
  -26.0318  -29.4184   20.7178 C   0  0  0  0  0  0
  -27.2095  -28.6096   20.7195 C   0  0  0  0  0  0
  -26.0357  -26.9029   19.4654 C   0  0  0  0  0  0
  -24.8672  -27.6906   19.4770 C   0  0  0  0  0  0
  -23.6328  -29.8281   20.1637 C   0  0  0  0  0  0
  -25.4119  -36.3138   24.0343 C   0  0  1  0  0  0
  -20.5857  -28.3687   23.1285 C   0  0  2  0  0  0
  -20.6761  -26.9425   22.5389 C   0  0  0  0  0  0
  -19.5725  -26.6374   21.5204 C   0  0  0  0  0  0
  -18.1912  -26.7917   22.1626 C   0  0  0  0  0  0
  -19.1514  -28.8844   23.2881 C   0  0  0  0  0  0
  -18.9448  -30.1441   23.8904 C   0  0  0  0  0  0
  -17.6468  -30.6597   24.0553 C   0  0  0  0  0  0
  -25.9034  -34.9493   23.5143 C   0  0  0  0  0  0
  -16.5345  -29.9091   23.6326 C   0  0  0  0  0  0
  -16.7247  -28.6488   23.0385 C   0  0  0  0  0  0
  -26.4461  -31.6601   25.0725 C   0  0  0  0  0  0
  -25.3705  -31.3664   26.1435 C   0  0  0  0  0  0
  -27.0299  -30.3053   24.6087 C   0  0  0  0  0  0
  -27.6038  -32.4306   25.7487 C   0  0  0  0  0  0
  -27.5592  -37.1836   24.8470 C   0  0  0  0  0  0
  -21.4131  -29.3081   22.3703 N   0  0  0  0  0  0
  -26.4314  -37.3804   23.9399 N   0  0  0  0  0  0
  -24.6820  -31.0646   22.1018 N   0  0  0  0  0  0
  -23.4144  -28.8183   23.3012 O   0  0  0  0  0  0
  -28.3349  -26.4446   20.2033 O   0  0  0  0  0  0
  -26.5608  -34.8936   22.4714 O   0  0  0  0  0  0
  -23.5376  -32.1435   23.7402 O   0  0  0  0  0  0
  -30.0929  -17.7832   20.0459 C   0  0  0  0  0  0
  -29.9746  -19.2178   19.9318 C   0  0  0  0  0  0
  -30.0821  -17.9986   22.4222 C   0  0  0  0  0  0
  -30.1489  -17.1050   21.3055 C   0  0  0  0  0  0
  -30.0105  -19.4137   22.3110 C   0  0  0  0  0  0
  -29.9308  -20.0777   21.0680 C   0  0  0  0  0  0
  -31.6432  -15.5157   23.6011 C   0  0  0  0  0  0
  -29.1636  -23.9325   20.6601 C   0  0  0  0  0  0
  -30.3055  -15.1599   22.9228 C   0  0  0  0  0  0
  -28.1622  -24.9775   19.9744 C   0  0  0  0  0  0
  -29.0281  -22.3635   20.3384 C   0  0  0  0  0  0
  -30.0369  -20.2001   23.4614 N   0  0  0  0  0  0
  -30.2482  -15.6200   21.5150 N   0  0  0  0  0  0
  -29.9495  -21.4979   21.0854 O   0  0  0  0  0  0
  -31.4619  -12.5699   19.1610 H   0  0  0  0  0  0
  -30.3638  -11.4552   19.9117 H   0  0  0  0  0  0
  -29.7869  -11.7918   17.4923 H   0  0  0  0  0  0
  -29.6143  -13.5100   17.7462 H   0  0  0  0  0  0
  -27.9016  -11.2882   18.9006 H   0  0  0  0  0  0
  -27.3692  -12.5264   17.7979 H   0  0  0  0  0  0
  -27.6559  -14.2637   19.4913 H   0  0  0  0  0  0
  -28.6955  -12.1262   21.4098 H   0  0  0  0  0  0
  -28.3562  -13.7952   21.7853 H   0  0  0  0  0  0
  -25.2795   -9.5642   22.4786 H   0  0  0  0  0  0
  -24.0019   -7.4615   22.7427 H   0  0  0  0  0  0
  -21.0913   -8.8846   19.8921 H   0  0  0  0  0  0
  -22.3799  -10.9702   19.6148 H   0  0  0  0  0  0
  -21.1991   -7.6145   23.9734 H   0  0  0  0  0  0
  -21.1444   -6.0483   25.9065 H   0  0  0  0  0  0
  -22.0625   -2.7610   23.2848 H   0  0  0  0  0  0
  -22.4097  -11.9852   22.4884 H   0  0  0  0  0  0
  -21.1053  -13.1099   22.2619 H   0  0  0  0  0  0
  -24.6215  -15.8305   20.4028 H   0  0  0  0  0  0
  -26.2429  -15.6187   19.9855 H   0  0  0  0  0  0
  -26.7085  -32.5528   23.1154 H   0  0  0  0  0  0
  -24.9988  -33.9821   25.0444 H   0  0  0  0  0  0
  -22.7069  -31.3102   21.4123 H   0  0  0  0  0  0
  -23.3781  -35.9625   23.3303 H   0  0  0  0  0  0
  -24.3577  -36.8942   22.2054 H   0  0  0  0  0  0
  -23.7233  -37.6517   23.6664 H   0  0  0  0  0  0
  -26.0660  -31.5668   20.6106 H   0  0  0  0  0  0
  -26.8381  -30.8588   21.9948 H   0  0  0  0  0  0
  -28.1006  -28.9630   21.2159 H   0  0  0  0  0  0
  -25.9860  -25.9613   18.9383 H   0  0  0  0  0  0
  -23.9711  -27.3315   18.9908 H   0  0  0  0  0  0
  -23.7579  -30.6158   19.4194 H   0  0  0  0  0  0
  -22.7489  -29.2698   19.8513 H   0  0  0  0  0  0
  -25.1312  -36.2012   25.0841 H   0  0  0  0  0  0
  -20.9944  -28.3259   24.1399 H   0  0  0  0  0  0
  -20.5685  -26.2299   23.3573 H   0  0  0  0  0  0
  -21.6636  -26.7482   22.1174 H   0  0  0  0  0  0
  -19.6895  -25.6268   21.1276 H   0  0  0  0  0  0
  -19.6674  -27.3133   20.6693 H   0  0  0  0  0  0
  -17.4188  -26.6651   21.4030 H   0  0  0  0  0  0
  -18.0328  -26.0052   22.9006 H   0  0  0  0  0  0
  -19.7926  -30.7237   24.2302 H   0  0  0  0  0  0
  -17.5024  -31.6297   24.5113 H   0  0  0  0  0  0
  -15.5349  -30.3029   23.7636 H   0  0  0  0  0  0
  -15.8638  -28.0806   22.7165 H   0  0  0  0  0  0
  -24.5932  -30.6965   25.7744 H   0  0  0  0  0  0
  -24.8817  -32.2781   26.4868 H   0  0  0  0  0  0
  -25.8027  -30.8850   27.0216 H   0  0  0  0  0  0
  -26.2847  -29.6820   24.1123 H   0  0  0  0  0  0
  -27.4064  -29.7262   25.4533 H   0  0  0  0  0  0
  -27.8677  -30.4391   23.9240 H   0  0  0  0  0  0
  -27.2694  -33.3630   26.2044 H   0  0  0  0  0  0
  -28.3850  -32.6816   25.0301 H   0  0  0  0  0  0
  -28.0685  -31.8426   26.5409 H   0  0  0  0  0  0
  -28.2641  -38.0105   24.7507 H   0  0  0  0  0  0
  -28.1068  -36.2652   24.6329 H   0  0  0  0  0  0
  -27.2300  -37.1508   25.8866 H   0  0  0  0  0  0
  -20.9282  -29.8844   21.6954 H   0  0  0  0  0  0
  -26.0224  -38.2886   24.1381 H   0  0  0  0  0  0
  -30.1543  -17.2059   19.1358 H   0  0  0  0  0  0
  -29.9662  -19.6632   18.9482 H   0  0  0  0  0  0
  -30.1265  -17.6189   23.4287 H   0  0  0  0  0  0
  -32.2585  -16.1594   22.9730 H   0  0  0  0  0  0
  -32.2304  -14.6236   23.8178 H   0  0  0  0  0  0
  -31.4814  -16.0437   24.5423 H   0  0  0  0  0  0
  -29.0647  -24.0423   21.7419 H   0  0  0  0  0  0
  -30.1820  -24.2391   20.4268 H   0  0  0  0  0  0
  -29.4626  -15.5782   23.4734 H   0  0  0  0  0  0
  -30.1689  -14.0856   23.0326 H   0  0  0  0  0  0
  -27.1616  -24.6671   20.2754 H   0  0  0  0  0  0
  -28.2078  -24.8109   18.8991 H   0  0  0  0  0  0
  -29.1735  -22.1960   19.2718 H   0  0  0  0  0  0
  -28.0111  -22.0528   20.5778 H   0  0  0  0  0  0
  -29.8505  -21.1843   23.2978 H   0  0  0  0  0  0
  -29.5725  -19.8446   24.2907 H   0  0  0  0  0  0
  1 25  1  0  0  0
  1 30  2  0  0  0
  1 83  1  0  0  0
  2  3  1  0  0  0
  2 25  1  0  0  0
  2 85  1  0  0  0
  2 86  1  0  0  0
  3  4  1  0  0  0
  3 87  1  0  0  0
  3 88  1  0  0  0
  4  5  1  0  0  0
  4 89  1  0  0  0
  4 90  1  0  0  0
  5  6  1  0  0  0
  5 26  1  0  0  0
  5 91  1  0  0  0
  6 25  1  0  0  0
  6 92  1  0  0  0
  6 93  1  0  0  0
  7  8  2  0  0  0
  7 26  1  0  0  0
  7 29  1  0  0  0
  8  9  1  0  0  0
  8 22  1  0  0  0
  9 10  1  0  0  0
  9 27  2  0  0  0
 10 11  2  0  0  0
 10 15  1  0  0  0
 11 12  1  0  0  0
 11 94  1  0  0  0
 12 13  2  0  0  0
 12 95  1  0  0  0
 13 14  1  0  0  0
 13 31  1  0  0  0
 14 15  2  0  0  0
 14 96  1  0  0  0
 15 97  1  0  0  0
 16 17  2  0  0  0
 16 21  1  0  0  0
 16 31  1  0  0  0
 17 18  1  0  0  0
 17 98  1  0  0  0
 18 19  2  0  0  0
 18 99  1  0  0  0
 19 20  1  0  0  0
 19 24  1  0  0  0
 20 21  2  0  0  0
 20100  1  0  0  0
 21 23  1  0  0  0
 22 28  1  0  0  0
 22 32  2  0  0  0
 26 27  1  0  0  0
 28101  1  0  0  0
 28102  1  0  0  0
 29103  1  0  0  0
 29104  1  0  0  0
 33 34  1  0  0  0
 33 66  1  0  0  0
 33 70  2  0  0  0
 34 36  1  0  0  0
 34 59  1  0  0  0
 34105  1  0  0  0
 35 44  2  0  0  0
 35 45  1  0  0  0
 35 68  1  0  0  0
 36 56  1  0  0  0
 36106  1  0  0  0
 37 39  1  0  0  0
 37 47  1  0  0  0
 37 66  1  0  0  0
 37107  1  0  0  0
 38 43  2  0  0  0
 38 46  1  0  0  0
 38 47  1  0  0  0
 39 64  1  0  0  0
 39 67  2  0  0  0
 40 52  1  0  0  0
 40 53  2  0  0  0
 40 58  1  0  0  0
 41108  1  0  0  0
 41109  1  0  0  0
 41110  1  0  0  0
 41 48  1  0  0  0
 42 43  1  0  0  0
 42 66  1  0  0  0
 42111  1  0  0  0
 42112  1  0  0  0
 43 44  1  0  0  0
 44113  1  0  0  0
 45 46  2  0  0  0
 45114  1  0  0  0
 46115  1  0  0  0
 47116  1  0  0  0
 47117  1  0  0  0
 48 56  1  0  0  0
 48 65  1  0  0  0
 48118  1  0  0  0
 49 50  1  0  0  0
 49 53  1  0  0  0
 49 64  1  0  0  0
 49119  1  0  0  0
 50 51  1  0  0  0
 50120  1  0  0  0
 50121  1  0  0  0
 51 52  1  0  0  0
 51122  1  0  0  0
 51123  1  0  0  0
 52124  1  0  0  0
 52125  1  0  0  0
 53 54  1  0  0  0
 54 55  2  0  0  0
 54126  1  0  0  0
 55 57  1  0  0  0
 55127  1  0  0  0
 56 69  2  0  0  0
 57 58  2  0  0  0
 57128  1  0  0  0
 58129  1  0  0  0
 59 60  1  0  0  0
 59 61  1  0  0  0
 59 62  1  0  0  0
 60130  1  0  0  0
 60131  1  0  0  0
 60132  1  0  0  0
 61133  1  0  0  0
 61134  1  0  0  0
 61135  1  0  0  0
 62136  1  0  0  0
 62137  1  0  0  0
 62138  1  0  0  0
 63 65  1  0  0  0
 63139  1  0  0  0
 63140  1  0  0  0
 63141  1  0  0  0
 64142  1  0  0  0
 65143  1  0  0  0
 68 80  1  0  0  0
 71 72  2  0  0  0
 71 74  1  0  0  0
 71144  1  0  0  0
 72 76  1  0  0  0
 72145  1  0  0  0
 73 74  2  0  0  0
 73 75  1  0  0  0
 73146  1  0  0  0
 74 83  1  0  0  0
 75 76  2  0  0  0
 75 82  1  0  0  0
 76 84  1  0  0  0
 77 79  1  0  0  0
 77147  1  0  0  0
 77148  1  0  0  0
 77149  1  0  0  0
 78 80  1  0  0  0
 78 81  1  0  0  0
 78150  1  0  0  0
 78151  1  0  0  0
 79 83  1  0  0  0
 79152  1  0  0  0
 79153  1  0  0  0
 80154  1  0  0  0
 80155  1  0  0  0
 81 84  1  0  0  0
 81156  1  0  0  0
 81157  1  0  0  0
 82158  1  0  0  0
 82159  1  0  0  0
M  ISO  4   1 100  68 101  80 101  83 100
M  END
> <chiral flag>
0

> <version>
0

> <s_m_source_file>
/data/baiqing/PycharmProjects/Reinvent-master-3.2/result/LINK_invent/BTK/process_docking_weight1_custom_product_contain_oxygen_bond_distance_aromatic_linkinvent_7_9_3/rearranged_h_0098.sdf

> <i_m_source_file_index>
34

> <r_mmod_Potential_Energy-OPLS-2005>
301.681396484375

> <r_mmod_Stretch_Energy-OPLS-2005>
107.662841796875

> <r_mmod_Bend_Energy-OPLS-2005>
170.921096801758

> <r_mmod_Torsional_Energy-OPLS-2005>
303.291229248047

> <r_mmod_Improper_Torsional_Energy-OPLS-2005>
8.11441326141357

> <r_mmod_Van_der_Waal_Energy-OPLS-2005>
158.112609863281

> <r_mmod_Electrostatic_Energy-OPLS-2005>
-300.214172363281

> <r_mmod_Solvation_Energy-OPLS-2005>
-203.22932434082

> <b_mmod_Minimization_Converged-OPLS-2005>
0

> <r_mmod_RMS_Derivative-OPLS-2005>
5.3114709854126

$$$$
34
                    3D
 Structure written by MMmdl.
158166  0  0  1  0            999 V2000
  -30.7181  -14.4916   20.5828 C   0  0  0  0  0  0
  -30.4184  -12.3399   19.4008 C   0  0  0  0  0  0
  -29.4724  -12.4916   18.1914 C   0  0  0  0  0  0
  -28.0021  -12.3373   18.6253 C   0  0  0  0  0  0
  -27.6486  -13.1917   19.8702 C   0  0  2  0  0  0
  -28.7040  -13.0175   20.9843 C   0  0  0  0  0  0
  -25.2582  -13.8141   20.5737 C   0  0  0  0  0  0
  -24.1810  -13.0438   20.9207 C   0  0  0  0  0  0
  -24.6335  -11.6897   20.8761 C   0  0  0  0  0  0
  -23.9006  -10.4298   21.0429 C   0  0  0  0  0  0
  -24.3573   -9.4207   21.9195 C   0  0  0  0  0  0
  -23.6267   -8.2231   22.0758 C   0  0  0  0  0  0
  -22.4252   -8.0271   21.3542 C   0  0  0  0  0  0
  -21.9877   -9.0236   20.4642 C   0  0  0  0  0  0
  -22.7194  -10.2127   20.3063 C   0  0  0  0  0  0
  -21.6849   -6.0727   22.5276 C   0  0  0  0  0  0
  -21.4010   -6.5633   23.8210 C   0  0  0  0  0  0
  -21.3652   -5.6786   24.9174 C   0  0  0  0  0  0
  -21.6045   -4.3049   24.7223 C   0  0  0  0  0  0
  -21.8822   -3.8139   23.4345 C   0  0  0  0  0  0
  -21.9197   -4.6956   22.3401 C   0  0  0  0  0  0
  -22.7839  -13.5264   21.1828 C   0  0  0  0  0  0
  -22.1670   -4.2146   21.0977 F   0  0  0  0  0  0
  -21.5621   -3.4530   25.7732 F   0  0  0  0  0  0
  -30.0202  -13.3346   20.4099 N   0  0  0  0  0  0
  -26.2965  -12.9249   20.3422 N   0  0  0  0  0  0
  -25.9259  -11.6422   20.5837 N   0  0  0  0  0  0
  -22.0445  -12.8282   22.0387 N   0  0  0  0  0  0
  -25.4344  -15.1857   20.4146 N   0  0  0  0  0  0
  -31.8475  -14.6621   20.1198 O   0  0  0  0  0  0
  -21.6633   -6.8857   21.4234 O   0  0  0  0  0  0
  -22.3549  -14.5564   20.6671 O   0  0  0  0  0  0
  -24.6170  -31.8631   23.2009 C   0  0  0  0  0  0
  -25.9046  -32.4782   23.8326 C   0  0  1  0  0  0
  -27.2607  -27.4156   20.0981 C   0  0  0  0  0  0
  -25.5906  -33.8580   24.2277 N   0  0  0  0  0  0
  -23.4108  -30.4807   21.5371 C   0  0  2  0  0  0
  -24.8666  -28.9413   20.1095 C   0  0  0  0  0  0
  -22.7418  -29.4640   22.4905 C   0  0  0  0  0  0
  -18.0284  -28.1362   22.8465 C   0  0  0  0  0  0
  -24.1495  -36.7299   23.2635 C   0  0  0  0  0  0
  -25.9394  -30.8213   21.3617 C   0  0  0  0  0  0
  -26.0199  -29.4530   20.7141 C   0  0  0  0  0  0
  -27.2171  -28.6963   20.7058 C   0  0  0  0  0  0
  -26.0847  -26.9222   19.4877 C   0  0  0  0  0  0
  -24.8995  -27.6809   19.4893 C   0  0  0  0  0  0
  -23.6250  -29.8027   20.1562 C   0  0  0  0  0  0
  -25.4119  -36.3081   24.0331 C   0  0  1  0  0  0
  -20.5872  -28.3648   23.1296 C   0  0  2  0  0  0
  -20.6755  -26.9402   22.5295 C   0  0  0  0  0  0
  -19.5753  -26.6497   21.5066 C   0  0  0  0  0  0
  -18.1927  -26.7962   22.1506 C   0  0  0  0  0  0
  -19.1530  -28.8811   23.2908 C   0  0  0  0  0  0
  -18.9483  -30.1373   23.8985 C   0  0  0  0  0  0
  -17.6501  -30.6537   24.0651 C   0  0  0  0  0  0
  -25.9048  -34.9446   23.5107 C   0  0  0  0  0  0
  -16.5384  -29.9074   23.6346 C   0  0  0  0  0  0
  -16.7283  -28.6503   23.0324 C   0  0  0  0  0  0
  -26.4492  -31.6570   25.0658 C   0  0  0  0  0  0
  -25.3755  -31.3674   26.1394 C   0  0  0  0  0  0
  -27.0348  -30.3012   24.6084 C   0  0  0  0  0  0
  -27.6056  -32.4298   25.7438 C   0  0  0  0  0  0
  -27.5586  -37.1799   24.8468 C   0  0  0  0  0  0
  -21.4135  -29.3041   22.3699 N   0  0  0  0  0  0
  -26.4303  -37.3778   23.9402 N   0  0  0  0  0  0
  -24.6720  -31.0730   22.0902 N   0  0  0  0  0  0
  -23.4173  -28.8180   23.2962 O   0  0  0  0  0  0
  -28.4513  -26.7026   20.1240 O   0  0  0  0  0  0
  -26.5618  -34.8922   22.4673 O   0  0  0  0  0  0
  -23.5366  -32.1383   23.7421 O   0  0  0  0  0  0
  -28.1334  -17.5768   18.7455 C   0  0  0  0  0  0
  -28.8910  -16.5219   19.2869 C   0  0  0  0  0  0
  -29.2035  -17.8098   21.3239 C   0  0  0  0  0  0
  -27.9048  -18.7591   19.4775 C   0  0  0  0  0  0
  -29.3999  -16.6013   20.6027 C   0  0  0  0  0  0
  -28.4875  -18.9023   20.7644 C   0  0  0  0  0  0
  -27.0122  -19.8201   18.8579 C   0  0  0  0  0  0
  -27.8749  -24.3053   20.7029 C   0  0  0  0  0  0
  -28.7759  -23.1498   21.2657 C   0  0  0  0  0  0
  -28.5157  -25.3216   19.6991 C   0  0  0  0  0  0
  -30.0950  -15.5054   21.2225 N   0  0  0  0  0  0
  -28.5235  -21.8019   20.6802 N   0  0  0  0  0  0
  -26.9521  -20.5224   22.2774 O   0  0  0  0  0  0
  -29.4503  -20.5025   22.6951 O   0  0  0  0  0  0
  -28.3220  -20.4361   21.7510 S   0  0  0  0  0  0
  -31.4545  -12.4580   19.0791 H   0  0  0  0  0  0
  -30.3503  -11.3344   19.8209 H   0  0  0  0  0  0
  -29.7147  -11.7510   17.4288 H   0  0  0  0  0  0
  -29.6175  -13.4666   17.7233 H   0  0  0  0  0  0
  -27.8331  -11.2817   18.8434 H   0  0  0  0  0  0
  -27.3349  -12.5814   17.7970 H   0  0  0  0  0  0
  -27.6627  -14.2273   19.5474 H   0  0  0  0  0  0
  -28.7039  -11.9906   21.3521 H   0  0  0  0  0  0
  -28.4670  -13.6420   21.8465 H   0  0  0  0  0  0
  -25.2712   -9.5705   22.4784 H   0  0  0  0  0  0
  -23.9984   -7.4632   22.7483 H   0  0  0  0  0  0
  -21.0812   -8.8741   19.8953 H   0  0  0  0  0  0
  -22.3637  -10.9662   19.6180 H   0  0  0  0  0  0
  -21.2001   -7.6139   23.9712 H   0  0  0  0  0  0
  -21.1473   -6.0513   25.9073 H   0  0  0  0  0  0
  -22.0609   -2.7603   23.2842 H   0  0  0  0  0  0
  -22.4028  -11.9948   22.4814 H   0  0  0  0  0  0
  -21.1061  -13.1327   22.2541 H   0  0  0  0  0  0
  -24.6723  -15.8461   20.5240 H   0  0  0  0  0  0
  -26.3034  -15.6245   20.1359 H   0  0  0  0  0  0
  -26.7114  -32.5503   23.1093 H   0  0  0  0  0  0
  -25.0050  -33.9726   25.0416 H   0  0  0  0  0  0
  -22.6985  -31.2952   21.3878 H   0  0  0  0  0  0
  -23.3752  -35.9637   23.3311 H   0  0  0  0  0  0
  -24.3584  -36.8911   22.2045 H   0  0  0  0  0  0
  -23.7263  -37.6511   23.6658 H   0  0  0  0  0  0
  -26.0645  -31.5885   20.5961 H   0  0  0  0  0  0
  -26.8219  -30.8723   21.9875 H   0  0  0  0  0  0
  -28.1080  -29.0910   21.1771 H   0  0  0  0  0  0
  -26.0680  -25.9580   18.9999 H   0  0  0  0  0  0
  -24.0216  -27.2883   19.0000 H   0  0  0  0  0  0
  -23.7180  -30.5673   19.3859 H   0  0  0  0  0  0
  -22.7562  -29.2073   19.8681 H   0  0  0  0  0  0
  -25.1305  -36.1927   25.0830 H   0  0  0  0  0  0
  -21.0002  -28.3158   24.1374 H   0  0  0  0  0  0
  -20.5632  -26.2220   23.3423 H   0  0  0  0  0  0
  -21.6637  -26.7481   22.1093 H   0  0  0  0  0  0
  -19.6914  -25.6488   21.0890 H   0  0  0  0  0  0
  -19.6646  -27.3444   20.6706 H   0  0  0  0  0  0
  -17.4189  -26.6779   21.3881 H   0  0  0  0  0  0
  -18.0319  -26.0000   22.8794 H   0  0  0  0  0  0
  -19.7966  -30.7136   24.2430 H   0  0  0  0  0  0
  -17.5072  -31.6184   24.5320 H   0  0  0  0  0  0
  -15.5385  -30.3018   23.7686 H   0  0  0  0  0  0
  -15.8672  -28.0894   22.6976 H   0  0  0  0  0  0
  -24.5912  -30.7072   25.7701 H   0  0  0  0  0  0
  -24.8976  -32.2826   26.4883 H   0  0  0  0  0  0
  -25.8084  -30.8776   27.0121 H   0  0  0  0  0  0
  -26.2901  -29.6715   24.1216 H   0  0  0  0  0  0
  -27.4183  -29.7314   25.4554 H   0  0  0  0  0  0
  -27.8697  -30.4309   23.9197 H   0  0  0  0  0  0
  -27.2664  -33.3570   26.2074 H   0  0  0  0  0  0
  -28.3844  -32.6912   25.0258 H   0  0  0  0  0  0
  -28.0765  -31.8387   26.5309 H   0  0  0  0  0  0
  -28.2610  -38.0089   24.7512 H   0  0  0  0  0  0
  -28.1076  -36.2621   24.6302 H   0  0  0  0  0  0
  -27.2298  -37.1457   25.8869 H   0  0  0  0  0  0
  -20.9307  -29.8746   21.6897 H   0  0  0  0  0  0
  -26.0181  -38.2860   24.1397 H   0  0  0  0  0  0
  -27.7164  -17.4644   17.7533 H   0  0  0  0  0  0
  -29.0550  -15.6501   18.6705 H   0  0  0  0  0  0
  -29.5946  -17.9089   22.3252 H   0  0  0  0  0  0
  -27.6119  -20.6216   18.4254 H   0  0  0  0  0  0
  -26.3228  -20.2386   19.5919 H   0  0  0  0  0  0
  -26.4065  -19.3954   18.0561 H   0  0  0  0  0  0
  -27.5194  -24.8841   21.5592 H   0  0  0  0  0  0
  -26.9659  -23.8972   20.2629 H   0  0  0  0  0  0
  -28.5767  -23.0766   22.3391 H   0  0  0  0  0  0
  -29.8378  -23.3911   21.1916 H   0  0  0  0  0  0
  -29.5679  -25.0827   19.5395 H   0  0  0  0  0  0
  -28.0785  -25.2107   18.7096 H   0  0  0  0  0  0
  -30.6020  -15.7851   22.0486 H   0  0  0  0  0  0
  -27.7764  -21.8025   19.9804 H   0  0  0  0  0  0
  1 25  1  0  0  0
  1 30  2  0  0  0
  1 81  1  0  0  0
  2  3  1  0  0  0
  2 25  1  0  0  0
  2 86  1  0  0  0
  2 87  1  0  0  0
  3  4  1  0  0  0
  3 88  1  0  0  0
  3 89  1  0  0  0
  4  5  1  0  0  0
  4 90  1  0  0  0
  4 91  1  0  0  0
  5  6  1  0  0  0
  5 26  1  0  0  0
  5 92  1  0  0  0
  6 25  1  0  0  0
  6 93  1  0  0  0
  6 94  1  0  0  0
  7  8  2  0  0  0
  7 26  1  0  0  0
  7 29  1  0  0  0
  8  9  1  0  0  0
  8 22  1  0  0  0
  9 10  1  0  0  0
  9 27  2  0  0  0
 10 11  2  0  0  0
 10 15  1  0  0  0
 11 12  1  0  0  0
 11 95  1  0  0  0
 12 13  2  0  0  0
 12 96  1  0  0  0
 13 14  1  0  0  0
 13 31  1  0  0  0
 14 15  2  0  0  0
 14 97  1  0  0  0
 15 98  1  0  0  0
 16 17  2  0  0  0
 16 21  1  0  0  0
 16 31  1  0  0  0
 17 18  1  0  0  0
 17 99  1  0  0  0
 18 19  2  0  0  0
 18100  1  0  0  0
 19 20  1  0  0  0
 19 24  1  0  0  0
 20 21  2  0  0  0
 20101  1  0  0  0
 21 23  1  0  0  0
 22 28  1  0  0  0
 22 32  2  0  0  0
 26 27  1  0  0  0
 28102  1  0  0  0
 28103  1  0  0  0
 29104  1  0  0  0
 29105  1  0  0  0
 33 34  1  0  0  0
 33 66  1  0  0  0
 33 70  2  0  0  0
 34 36  1  0  0  0
 34 59  1  0  0  0
 34106  1  0  0  0
 35 44  2  0  0  0
 35 45  1  0  0  0
 35 68  1  0  0  0
 36 56  1  0  0  0
 36107  1  0  0  0
 37 39  1  0  0  0
 37 47  1  0  0  0
 37 66  1  0  0  0
 37108  1  0  0  0
 38 43  2  0  0  0
 38 46  1  0  0  0
 38 47  1  0  0  0
 39 64  1  0  0  0
 39 67  2  0  0  0
 40 52  1  0  0  0
 40 53  2  0  0  0
 40 58  1  0  0  0
 41109  1  0  0  0
 41110  1  0  0  0
 41111  1  0  0  0
 41 48  1  0  0  0
 42 43  1  0  0  0
 42 66  1  0  0  0
 42112  1  0  0  0
 42113  1  0  0  0
 43 44  1  0  0  0
 44114  1  0  0  0
 45 46  2  0  0  0
 45115  1  0  0  0
 46116  1  0  0  0
 47117  1  0  0  0
 47118  1  0  0  0
 48 56  1  0  0  0
 48 65  1  0  0  0
 48119  1  0  0  0
 49 50  1  0  0  0
 49 53  1  0  0  0
 49 64  1  0  0  0
 49120  1  0  0  0
 50 51  1  0  0  0
 50121  1  0  0  0
 50122  1  0  0  0
 51 52  1  0  0  0
 51123  1  0  0  0
 51124  1  0  0  0
 52125  1  0  0  0
 52126  1  0  0  0
 53 54  1  0  0  0
 54 55  2  0  0  0
 54127  1  0  0  0
 55 57  1  0  0  0
 55128  1  0  0  0
 56 69  2  0  0  0
 57 58  2  0  0  0
 57129  1  0  0  0
 58130  1  0  0  0
 59 60  1  0  0  0
 59 61  1  0  0  0
 59 62  1  0  0  0
 60131  1  0  0  0
 60132  1  0  0  0
 60133  1  0  0  0
 61134  1  0  0  0
 61135  1  0  0  0
 61136  1  0  0  0
 62137  1  0  0  0
 62138  1  0  0  0
 62139  1  0  0  0
 63 65  1  0  0  0
 63140  1  0  0  0
 63141  1  0  0  0
 63142  1  0  0  0
 64143  1  0  0  0
 65144  1  0  0  0
 68 80  1  0  0  0
 71 72  2  0  0  0
 71 74  1  0  0  0
 71145  1  0  0  0
 72 75  1  0  0  0
 72146  1  0  0  0
 73 75  2  0  0  0
 73 76  1  0  0  0
 73147  1  0  0  0
 74 76  2  0  0  0
 74 77  1  0  0  0
 75 81  1  0  0  0
 76 85  1  0  0  0
 77148  1  0  0  0
 77149  1  0  0  0
 77150  1  0  0  0
 78 79  1  0  0  0
 78 80  1  0  0  0
 78151  1  0  0  0
 78152  1  0  0  0
 79 82  1  0  0  0
 79153  1  0  0  0
 79154  1  0  0  0
 80155  1  0  0  0
 80156  1  0  0  0
 81157  1  0  0  0
 82158  1  0  0  0
 82 85  1  0  0  0
 83 85  2  0  0  0
 84 85  2  0  0  0
M  ISO  4   1 100  68 101  80 101  81 100
M  END
> <chiral flag>
0

> <version>
0

> <s_m_source_file>
/data/baiqing/PycharmProjects/Reinvent-master-3.2/result/LINK_invent/BTK/process_docking_weight1_custom_product_contain_oxygen_bond_distance_aromatic_linkinvent_7_9_3/rearranged_h_0098.sdf

> <i_m_source_file_index>
35

> <r_mmod_Potential_Energy-OPLS-2005>
-22.1878490447998

> <r_mmod_Stretch_Energy-OPLS-2005>
46.0544319152832

> <r_mmod_Bend_Energy-OPLS-2005>
121.816383361816

> <r_mmod_Torsional_Energy-OPLS-2005>
285.861968994141

> <r_mmod_Improper_Torsional_Energy-OPLS-2005>
9.52693271636963

> <r_mmod_Van_der_Waal_Energy-OPLS-2005>
140.678344726562

> <r_mmod_Electrostatic_Energy-OPLS-2005>
-403.676574707031

> <r_mmod_Solvation_Energy-OPLS-2005>
-239.658157348633

> <b_mmod_Minimization_Converged-OPLS-2005>
0

> <r_mmod_RMS_Derivative-OPLS-2005>
5.87843894958496

$$$$
35
                    3D
 Structure written by MMmdl.
161169  0  0  1  0            999 V2000
  -30.7069  -14.4473   20.4841 C   0  0  0  0  0  0
  -30.4136  -12.2633   19.4376 C   0  0  0  0  0  0
  -29.4960  -12.4751   18.2140 C   0  0  0  0  0  0
  -28.0139  -12.3538   18.6202 C   0  0  0  0  0  0
  -27.6588  -13.2045   19.8700 C   0  0  2  0  0  0
  -28.7020  -13.0136   20.9989 C   0  0  0  0  0  0
  -25.2591  -13.8155   20.5693 C   0  0  0  0  0  0
  -24.1839  -13.0438   20.9181 C   0  0  0  0  0  0
  -24.6383  -11.6905   20.8737 C   0  0  0  0  0  0
  -23.9050  -10.4293   21.0407 C   0  0  0  0  0  0
  -24.3605   -9.4207   21.9180 C   0  0  0  0  0  0
  -23.6284   -8.2241   22.0747 C   0  0  0  0  0  0
  -22.4263   -8.0281   21.3545 C   0  0  0  0  0  0
  -21.9900   -9.0253   20.4642 C   0  0  0  0  0  0
  -22.7226  -10.2132   20.3048 C   0  0  0  0  0  0
  -21.6851   -6.0735   22.5281 C   0  0  0  0  0  0
  -21.4014   -6.5640   23.8214 C   0  0  0  0  0  0
  -21.3656   -5.6791   24.9178 C   0  0  0  0  0  0
  -21.6043   -4.3054   24.7227 C   0  0  0  0  0  0
  -21.8822   -3.8147   23.4347 C   0  0  0  0  0  0
  -21.9192   -4.6964   22.3405 C   0  0  0  0  0  0
  -22.7865  -13.5242   21.1850 C   0  0  0  0  0  0
  -22.1659   -4.2154   21.0983 F   0  0  0  0  0  0
  -21.5632   -3.4532   25.7734 F   0  0  0  0  0  0
  -30.0393  -13.2683   20.4412 N   0  0  0  0  0  0
  -26.3011  -12.9317   20.3350 N   0  0  0  0  0  0
  -25.9305  -11.6481   20.5762 N   0  0  0  0  0  0
  -22.0505  -12.8224   22.0399 N   0  0  0  0  0  0
  -25.4315  -15.1875   20.4142 N   0  0  0  0  0  0
  -31.8863  -14.5717   20.1482 O   0  0  0  0  0  0
  -21.6633   -6.8875   21.4240 O   0  0  0  0  0  0
  -22.3550  -14.5552   20.6706 O   0  0  0  0  0  0
  -24.6112  -31.8704   23.2126 C   0  0  0  0  0  0
  -25.9024  -32.4832   23.8404 C   0  0  1  0  0  0
  -27.2305  -27.4618   20.0940 C   0  0  0  0  0  0
  -25.5902  -33.8631   24.2343 N   0  0  0  0  0  0
  -23.3963  -30.4957   21.5524 C   0  0  2  0  0  0
  -24.8409  -28.9647   20.1149 C   0  0  0  0  0  0
  -22.7388  -29.4678   22.5005 C   0  0  0  0  0  0
  -18.0272  -28.1376   22.8495 C   0  0  0  0  0  0
  -24.1491  -36.7314   23.2637 C   0  0  0  0  0  0
  -25.9224  -30.8441   21.3611 C   0  0  0  0  0  0
  -25.9985  -29.4805   20.7104 C   0  0  0  0  0  0
  -27.1967  -28.7363   20.6966 C   0  0  0  0  0  0
  -26.0596  -26.9602   19.4805 C   0  0  0  0  0  0
  -24.8646  -27.7019   19.4982 C   0  0  0  0  0  0
  -23.6018  -29.8282   20.1665 C   0  0  0  0  0  0
  -25.4109  -36.3115   24.0341 C   0  0  1  0  0  0
  -20.5860  -28.3658   23.1328 C   0  0  2  0  0  0
  -20.6767  -26.9398   22.5418 C   0  0  0  0  0  0
  -19.5749  -26.6387   21.5213 C   0  0  0  0  0  0
  -18.1925  -26.7925   22.1620 C   0  0  0  0  0  0
  -19.1520  -28.8832   23.2912 C   0  0  0  0  0  0
  -18.9450  -30.1441   23.8917 C   0  0  0  0  0  0
  -17.6455  -30.6584   24.0568 C   0  0  0  0  0  0
  -25.9033  -34.9482   23.5134 C   0  0  0  0  0  0
  -16.5345  -29.9089   23.6325 C   0  0  0  0  0  0
  -16.7262  -28.6507   23.0341 C   0  0  0  0  0  0
  -26.4465  -31.6599   25.0714 C   0  0  0  0  0  0
  -25.3743  -31.3699   26.1472 C   0  0  0  0  0  0
  -27.0289  -30.3049   24.6057 C   0  0  0  0  0  0
  -27.6049  -32.4303   25.7469 C   0  0  0  0  0  0
  -27.5585  -37.1809   24.8464 C   0  0  0  0  0  0
  -21.4123  -29.3030   22.3740 N   0  0  0  0  0  0
  -26.4297  -37.3795   23.9411 N   0  0  0  0  0  0
  -24.6614  -31.0836   22.1007 N   0  0  0  0  0  0
  -23.4179  -28.8220   23.3032 O   0  0  0  0  0  0
  -28.4115  -26.7585   20.0888 O   0  0  0  0  0  0
  -26.5584  -34.8927   22.4689 O   0  0  0  0  0  0
  -23.5314  -32.1445   23.7543 O   0  0  0  0  0  0
  -30.8664  -20.1622   20.4642 C   0  0  0  0  0  0
  -28.5083  -20.0465   19.8831 C   0  0  0  0  0  0
  -30.9756  -18.7637   20.3310 C   0  0  0  0  0  0
  -29.8540  -18.0052   19.9114 C   0  0  0  0  0  0
  -29.6547  -20.8195   20.1811 C   0  0  0  0  0  0
  -28.5971  -18.6379   19.7387 C   0  0  0  0  0  0
  -28.9233  -23.0900   19.4668 C   0  0  0  0  0  0
  -32.3290  -18.1178   20.5788 C   0  0  0  0  0  0
  -26.2677  -18.4685   19.1463 C   0  0  0  0  0  0
  -30.0254  -16.5498   19.4831 C   0  0  0  0  0  0
  -29.2944  -24.5726   19.5370 C   0  0  0  0  0  0
  -28.3332  -25.3714   20.4283 C   0  0  0  0  0  0
  -29.6603  -22.2425   20.2073 N   0  0  0  0  0  0
  -29.9050  -15.5204   20.5217 N   0  0  0  0  0  0
  -27.9900  -22.7431   18.7384 O   0  0  0  0  0  0
  -27.5213  -17.8430   19.3949 O   0  0  0  0  0  0
  -31.4628  -12.3322   19.1435 H   0  0  0  0  0  0
  -30.2841  -11.2604   19.8466 H   0  0  0  0  0  0
  -29.7299  -11.7438   17.4381 H   0  0  0  0  0  0
  -29.6801  -13.4565   17.7740 H   0  0  0  0  0  0
  -27.8134  -11.3007   18.8212 H   0  0  0  0  0  0
  -27.3698  -12.6302   17.7846 H   0  0  0  0  0  0
  -27.6888  -14.2447   19.5485 H   0  0  0  0  0  0
  -28.6592  -11.9981   21.3940 H   0  0  0  0  0  0
  -28.4891  -13.6734   21.8415 H   0  0  0  0  0  0
  -25.2758   -9.5684   22.4743 H   0  0  0  0  0  0
  -24.0005   -7.4629   22.7455 H   0  0  0  0  0  0
  -21.0835   -8.8763   19.8941 H   0  0  0  0  0  0
  -22.3689  -10.9665   19.6146 H   0  0  0  0  0  0
  -21.2003   -7.6149   23.9718 H   0  0  0  0  0  0
  -21.1473   -6.0523   25.9082 H   0  0  0  0  0  0
  -22.0600   -2.7610   23.2846 H   0  0  0  0  0  0
  -22.4120  -11.9880   22.4779 H   0  0  0  0  0  0
  -21.1127  -13.1253   22.2609 H   0  0  0  0  0  0
  -24.6650  -15.8397   20.5368 H   0  0  0  0  0  0
  -26.2854  -15.6352   20.1063 H   0  0  0  0  0  0
  -26.7095  -32.5550   23.1169 H   0  0  0  0  0  0
  -25.0090  -33.9797   25.0511 H   0  0  0  0  0  0
  -22.6838  -31.3114   21.4163 H   0  0  0  0  0  0
  -23.3749  -35.9651   23.3305 H   0  0  0  0  0  0
  -24.3594  -36.8912   22.2050 H   0  0  0  0  0  0
  -23.7245  -37.6525   23.6637 H   0  0  0  0  0  0
  -26.0309  -31.6103   20.5924 H   0  0  0  0  0  0
  -26.8124  -30.8972   21.9766 H   0  0  0  0  0  0
  -28.0921  -29.1323   21.1553 H   0  0  0  0  0  0
  -26.0634  -26.0068   18.9710 H   0  0  0  0  0  0
  -23.9765  -27.3038   19.0261 H   0  0  0  0  0  0
  -23.7081  -30.6027   19.4063 H   0  0  0  0  0  0
  -22.7261  -29.2468   19.8722 H   0  0  0  0  0  0
  -25.1286  -36.1980   25.0834 H   0  0  0  0  0  0
  -20.9956  -28.3215   24.1447 H   0  0  0  0  0  0
  -20.5680  -26.2262   23.3598 H   0  0  0  0  0  0
  -21.6639  -26.7457   22.1203 H   0  0  0  0  0  0
  -19.6914  -25.6304   21.1227 H   0  0  0  0  0  0
  -19.6691  -27.3210   20.6755 H   0  0  0  0  0  0
  -17.4199  -26.6676   21.4014 H   0  0  0  0  0  0
  -18.0324  -26.0062   22.9012 H   0  0  0  0  0  0
  -19.7928  -30.7252   24.2288 H   0  0  0  0  0  0
  -17.5012  -31.6264   24.5167 H   0  0  0  0  0  0
  -15.5346  -30.2997   23.7643 H   0  0  0  0  0  0
  -15.8661  -28.0838   22.7036 H   0  0  0  0  0  0
  -24.5907  -30.7054   25.7814 H   0  0  0  0  0  0
  -24.8947  -32.2858   26.4936 H   0  0  0  0  0  0
  -25.8107  -30.8856   27.0217 H   0  0  0  0  0  0
  -26.2823  -29.6811   24.1128 H   0  0  0  0  0  0
  -27.4105  -29.7275   25.4486 H   0  0  0  0  0  0
  -27.8636  -30.4386   23.9169 H   0  0  0  0  0  0
  -27.2682  -33.3591   26.2085 H   0  0  0  0  0  0
  -28.3842  -32.6875   25.0282 H   0  0  0  0  0  0
  -28.0737  -31.8400   26.5352 H   0  0  0  0  0  0
  -28.2602  -38.0108   24.7520 H   0  0  0  0  0  0
  -28.1084  -36.2641   24.6277 H   0  0  0  0  0  0
  -27.2309  -37.1443   25.8868 H   0  0  0  0  0  0
  -20.9274  -29.8748   21.6967 H   0  0  0  0  0  0
  -26.0187  -38.2875   24.1408 H   0  0  0  0  0  0
  -31.7409  -20.7407   20.7299 H   0  0  0  0  0  0
  -27.5676  -20.5515   19.7303 H   0  0  0  0  0  0
  -32.9667  -18.7595   21.1879 H   0  0  0  0  0  0
  -32.8434  -17.9336   19.6354 H   0  0  0  0  0  0
  -32.2244  -17.1720   21.1090 H   0  0  0  0  0  0
  -25.5299  -17.7114   18.8821 H   0  0  0  0  0  0
  -26.3303  -19.1675   18.3110 H   0  0  0  0  0  0
  -25.8971  -18.9925   20.0287 H   0  0  0  0  0  0
  -30.9688  -16.4819   18.9386 H   0  0  0  0  0  0
  -29.2845  -16.3130   18.7186 H   0  0  0  0  0  0
  -29.2463  -24.9608   18.5187 H   0  0  0  0  0  0
  -30.3253  -24.7085   19.8649 H   0  0  0  0  0  0
  -28.6347  -25.2658   21.4708 H   0  0  0  0  0  0
  -27.3273  -24.9552   20.3781 H   0  0  0  0  0  0
  -30.4182  -22.6691   20.7227 H   0  0  0  0  0  0
  -28.9709  -15.3556   20.8628 H   0  0  0  0  0  0
  1 25  1  0  0  0
  1 30  2  0  0  0
  1 84  1  0  0  0
  2  3  1  0  0  0
  2 25  1  0  0  0
  2 87  1  0  0  0
  2 88  1  0  0  0
  3  4  1  0  0  0
  3 89  1  0  0  0
  3 90  1  0  0  0
  4  5  1  0  0  0
  4 91  1  0  0  0
  4 92  1  0  0  0
  5  6  1  0  0  0
  5 26  1  0  0  0
  5 93  1  0  0  0
  6 25  1  0  0  0
  6 94  1  0  0  0
  6 95  1  0  0  0
  7  8  2  0  0  0
  7 26  1  0  0  0
  7 29  1  0  0  0
  8  9  1  0  0  0
  8 22  1  0  0  0
  9 10  1  0  0  0
  9 27  2  0  0  0
 10 11  2  0  0  0
 10 15  1  0  0  0
 11 12  1  0  0  0
 11 96  1  0  0  0
 12 13  2  0  0  0
 12 97  1  0  0  0
 13 14  1  0  0  0
 13 31  1  0  0  0
 14 15  2  0  0  0
 14 98  1  0  0  0
 15 99  1  0  0  0
 16 17  2  0  0  0
 16 21  1  0  0  0
 16 31  1  0  0  0
 17 18  1  0  0  0
 17100  1  0  0  0
 18 19  2  0  0  0
 18101  1  0  0  0
 19 20  1  0  0  0
 19 24  1  0  0  0
 20 21  2  0  0  0
 20102  1  0  0  0
 21 23  1  0  0  0
 22 28  1  0  0  0
 22 32  2  0  0  0
 26 27  1  0  0  0
 28103  1  0  0  0
 28104  1  0  0  0
 29105  1  0  0  0
 29106  1  0  0  0
 33 34  1  0  0  0
 33 66  1  0  0  0
 33 70  2  0  0  0
 34 36  1  0  0  0
 34 59  1  0  0  0
 34107  1  0  0  0
 35 44  2  0  0  0
 35 45  1  0  0  0
 35 68  1  0  0  0
 36 56  1  0  0  0
 36108  1  0  0  0
 37 39  1  0  0  0
 37 47  1  0  0  0
 37 66  1  0  0  0
 37109  1  0  0  0
 38 43  2  0  0  0
 38 46  1  0  0  0
 38 47  1  0  0  0
 39 64  1  0  0  0
 39 67  2  0  0  0
 40 52  1  0  0  0
 40 53  2  0  0  0
 40 58  1  0  0  0
 41110  1  0  0  0
 41111  1  0  0  0
 41112  1  0  0  0
 41 48  1  0  0  0
 42 43  1  0  0  0
 42 66  1  0  0  0
 42113  1  0  0  0
 42114  1  0  0  0
 43 44  1  0  0  0
 44115  1  0  0  0
 45 46  2  0  0  0
 45116  1  0  0  0
 46117  1  0  0  0
 47118  1  0  0  0
 47119  1  0  0  0
 48 56  1  0  0  0
 48 65  1  0  0  0
 48120  1  0  0  0
 49 50  1  0  0  0
 49 53  1  0  0  0
 49 64  1  0  0  0
 49121  1  0  0  0
 50 51  1  0  0  0
 50122  1  0  0  0
 50123  1  0  0  0
 51 52  1  0  0  0
 51124  1  0  0  0
 51125  1  0  0  0
 52126  1  0  0  0
 52127  1  0  0  0
 53 54  1  0  0  0
 54 55  2  0  0  0
 54128  1  0  0  0
 55 57  1  0  0  0
 55129  1  0  0  0
 56 69  2  0  0  0
 57 58  2  0  0  0
 57130  1  0  0  0
 58131  1  0  0  0
 59 60  1  0  0  0
 59 61  1  0  0  0
 59 62  1  0  0  0
 60132  1  0  0  0
 60133  1  0  0  0
 60134  1  0  0  0
 61135  1  0  0  0
 61136  1  0  0  0
 61137  1  0  0  0
 62138  1  0  0  0
 62139  1  0  0  0
 62140  1  0  0  0
 63 65  1  0  0  0
 63141  1  0  0  0
 63142  1  0  0  0
 63143  1  0  0  0
 64144  1  0  0  0
 65145  1  0  0  0
 68 82  1  0  0  0
 71 73  2  0  0  0
 71 75  1  0  0  0
 71146  1  0  0  0
 72 75  2  0  0  0
 72 76  1  0  0  0
 72147  1  0  0  0
 73 74  1  0  0  0
 73 78  1  0  0  0
 74 76  2  0  0  0
 74 80  1  0  0  0
 75 83  1  0  0  0
 76 86  1  0  0  0
 77 81  1  0  0  0
 77 83  1  0  0  0
 77 85  2  0  0  0
 78148  1  0  0  0
 78149  1  0  0  0
 78150  1  0  0  0
 79 86  1  0  0  0
 79151  1  0  0  0
 79152  1  0  0  0
 79153  1  0  0  0
 80 84  1  0  0  0
 80154  1  0  0  0
 80155  1  0  0  0
 81 82  1  0  0  0
 81156  1  0  0  0
 81157  1  0  0  0
 82158  1  0  0  0
 82159  1  0  0  0
 83160  1  0  0  0
 84161  1  0  0  0
M  ISO  4   1 100  68 101  82 101  84 100
M  END
> <chiral flag>
0

> <version>
0

> <s_m_source_file>
/data/baiqing/PycharmProjects/Reinvent-master-3.2/result/LINK_invent/BTK/process_docking_weight1_custom_product_contain_oxygen_bond_distance_aromatic_linkinvent_7_9_3/rearranged_h_0098.sdf

> <i_m_source_file_index>
36

> <r_mmod_Potential_Energy-OPLS-2005>
-64.0994873046875

> <r_mmod_Stretch_Energy-OPLS-2005>
33.9206123352051

> <r_mmod_Bend_Energy-OPLS-2005>
102.62784576416

> <r_mmod_Torsional_Energy-OPLS-2005>
270.759307861328

> <r_mmod_Improper_Torsional_Energy-OPLS-2005>
15.003776550293

> <r_mmod_Van_der_Waal_Energy-OPLS-2005>
165.29508972168

> <r_mmod_Electrostatic_Energy-OPLS-2005>
-443.147918701172

> <r_mmod_Solvation_Energy-OPLS-2005>
-224.314910888672

> <b_mmod_Minimization_Converged-OPLS-2005>
0

> <r_mmod_RMS_Derivative-OPLS-2005>
1.03150749206543

$$$$
36
                    3D
 Structure written by MMmdl.
154162  0  0  1  0            999 V2000
  -30.6577  -14.5618   20.4841 C   0  0  0  0  0  0
  -30.4160  -12.3289   19.4443 C   0  0  0  0  0  0
  -29.5052  -12.5044   18.2116 C   0  0  0  0  0  0
  -28.0210  -12.3704   18.6142 C   0  0  0  0  0  0
  -27.6503  -13.2279   19.8584 C   0  0  2  0  0  0
  -28.6928  -13.0622   20.9848 C   0  0  0  0  0  0
  -25.2494  -13.8194   20.5752 C   0  0  0  0  0  0
  -24.1792  -13.0439   20.9263 C   0  0  0  0  0  0
  -24.6417  -11.6933   20.8776 C   0  0  0  0  0  0
  -23.9115  -10.4299   21.0402 C   0  0  0  0  0  0
  -24.3662   -9.4196   21.9169 C   0  0  0  0  0  0
  -23.6349   -8.2234   22.0739 C   0  0  0  0  0  0
  -22.4304   -8.0323   21.3570 C   0  0  0  0  0  0
  -21.9951   -9.0279   20.4648 C   0  0  0  0  0  0
  -22.7282  -10.2152   20.3046 C   0  0  0  0  0  0
  -21.6853   -6.0774   22.5307 C   0  0  0  0  0  0
  -21.4012   -6.5653   23.8245 C   0  0  0  0  0  0
  -21.3678   -5.6790   24.9199 C   0  0  0  0  0  0
  -21.6028   -4.3060   24.7224 C   0  0  0  0  0  0
  -21.8811   -3.8174   23.4335 C   0  0  0  0  0  0
  -21.9178   -4.6999   22.3410 C   0  0  0  0  0  0
  -22.7799  -13.5220   21.1874 C   0  0  0  0  0  0
  -22.1636   -4.2203   21.0982 F   0  0  0  0  0  0
  -21.5635   -3.4527   25.7729 F   0  0  0  0  0  0
  -30.0161  -13.3594   20.4189 N   0  0  0  0  0  0
  -26.2978  -12.9440   20.3316 N   0  0  0  0  0  0
  -25.9334  -11.6580   20.5732 N   0  0  0  0  0  0
  -22.0419  -12.8256   22.0432 N   0  0  0  0  0  0
  -25.4023  -15.1910   20.4159 N   0  0  0  0  0  0
  -31.8317  -14.6945   20.1292 O   0  0  0  0  0  0
  -21.6648   -6.8934   21.4280 O   0  0  0  0  0  0
  -22.3497  -14.5519   20.6717 O   0  0  0  0  0  0
  -24.6184  -31.8673   23.2040 C   0  0  0  0  0  0
  -25.9063  -32.4811   23.8371 C   0  0  1  0  0  0
  -27.2216  -27.3677   20.1002 C   0  0  0  0  0  0
  -25.5916  -33.8610   24.2298 N   0  0  0  0  0  0
  -23.4086  -30.4891   21.5482 C   0  0  2  0  0  0
  -24.8543  -28.9525   20.1045 C   0  0  0  0  0  0
  -22.7446  -29.4648   22.4958 C   0  0  0  0  0  0
  -18.0293  -28.1347   22.8491 C   0  0  0  0  0  0
  -24.1501  -36.7296   23.2640 C   0  0  0  0  0  0
  -25.9437  -30.8073   21.3744 C   0  0  0  0  0  0
  -26.0159  -29.4389   20.7107 C   0  0  0  0  0  0
  -27.1984  -28.6521   20.7078 C   0  0  0  0  0  0
  -26.0356  -26.9113   19.4823 C   0  0  0  0  0  0
  -24.8615  -27.6915   19.4849 C   0  0  0  0  0  0
  -23.6192  -29.8281   20.1592 C   0  0  0  0  0  0
  -25.4110  -36.3098   24.0340 C   0  0  1  0  0  0
  -20.5883  -28.3665   23.1291 C   0  0  2  0  0  0
  -20.6770  -26.9392   22.5405 C   0  0  0  0  0  0
  -19.5747  -26.6364   21.5204 C   0  0  0  0  0  0
  -18.1925  -26.7898   22.1615 C   0  0  0  0  0  0
  -19.1535  -28.8812   23.2893 C   0  0  0  0  0  0
  -18.9462  -30.1413   23.8914 C   0  0  0  0  0  0
  -17.6471  -30.6567   24.0536 C   0  0  0  0  0  0
  -25.9060  -34.9464   23.5128 C   0  0  0  0  0  0
  -16.5364  -29.9049   23.6296 C   0  0  0  0  0  0
  -16.7275  -28.6456   23.0354 C   0  0  0  0  0  0
  -26.4456  -31.6579   25.0714 C   0  0  0  0  0  0
  -25.3703  -31.3712   26.1467 C   0  0  0  0  0  0
  -27.0291  -30.3010   24.6114 C   0  0  0  0  0  0
  -27.6031  -32.4293   25.7473 C   0  0  0  0  0  0
  -27.5590  -37.1797   24.8450 C   0  0  0  0  0  0
  -21.4162  -29.3025   22.3688 N   0  0  0  0  0  0
  -26.4287  -37.3779   23.9426 N   0  0  0  0  0  0
  -24.6750  -31.0692   22.1006 N   0  0  0  0  0  0
  -23.4206  -28.8229   23.3039 O   0  0  0  0  0  0
  -28.3803  -26.5959   20.1454 O   0  0  0  0  0  0
  -26.5629  -34.8924   22.4701 O   0  0  0  0  0  0
  -23.5357  -32.1481   23.7377 O   0  0  0  0  0  0
  -26.9639  -19.0178   20.5049 C   0  0  0  0  0  0
  -27.8947  -17.9577   20.5572 C   0  0  0  0  0  0
  -27.3951  -20.3632   20.4639 C   0  0  0  0  0  0
  -29.7007  -19.5821   20.4714 C   0  0  0  0  0  0
  -29.2832  -18.2145   20.5547 C   0  0  0  0  0  0
  -28.7774  -20.6700   20.4396 C   0  0  0  0  0  0
  -30.3352  -17.0706   20.6577 C   0  0  0  0  0  0
  -27.7294  -24.0882   20.3348 C   0  0  0  0  0  0
  -28.4303  -25.2596   19.5634 C   0  0  0  0  0  0
  -28.6174  -23.0449   21.1005 C   0  0  0  0  0  0
  -29.8859  -15.6514   20.7481 N   0  0  0  0  0  0
  -29.2433  -21.9807   20.3337 O   0  0  0  0  0  0
  -31.4681  -12.4023   19.1609 H   0  0  0  0  0  0
  -30.2999  -11.3292   19.8700 H   0  0  0  0  0  0
  -29.7544  -11.7694   17.4442 H   0  0  0  0  0  0
  -29.6822  -13.4836   17.7617 H   0  0  0  0  0  0
  -27.8322  -11.3196   18.8256 H   0  0  0  0  0  0
  -27.3779  -12.6209   17.7698 H   0  0  0  0  0  0
  -27.6724  -14.2668   19.5287 H   0  0  0  0  0  0
  -28.6737  -12.0475   21.3795 H   0  0  0  0  0  0
  -28.4697  -13.7160   21.8283 H   0  0  0  0  0  0
  -25.2815   -9.5676   22.4736 H   0  0  0  0  0  0
  -24.0050   -7.4626   22.7476 H   0  0  0  0  0  0
  -21.0863   -8.8841   19.8995 H   0  0  0  0  0  0
  -22.3765  -10.9694   19.6164 H   0  0  0  0  0  0
  -21.2019   -7.6170   23.9776 H   0  0  0  0  0  0
  -21.1492   -6.0509   25.9102 H   0  0  0  0  0  0
  -22.0567   -2.7639   23.2799 H   0  0  0  0  0  0
  -22.4001  -11.9949   22.4938 H   0  0  0  0  0  0
  -21.1047  -13.1302   22.2619 H   0  0  0  0  0  0
  -24.6244  -15.8285   20.5374 H   0  0  0  0  0  0
  -26.2144  -15.6281   20.0038 H   0  0  0  0  0  0
  -26.7136  -32.5493   23.1129 H   0  0  0  0  0  0
  -25.0036  -33.9773   25.0435 H   0  0  0  0  0  0
  -22.6966  -31.3050   21.4103 H   0  0  0  0  0  0
  -23.3778  -35.9613   23.3272 H   0  0  0  0  0  0
  -24.3610  -36.8959   22.2065 H   0  0  0  0  0  0
  -23.7247  -37.6482   23.6694 H   0  0  0  0  0  0
  -26.0810  -31.5778   20.6173 H   0  0  0  0  0  0
  -26.8224  -30.8480   22.0047 H   0  0  0  0  0  0
  -28.0890  -29.0189   21.1991 H   0  0  0  0  0  0
  -25.9864  -25.9477   19.0033 H   0  0  0  0  0  0
  -23.9699  -27.3103   19.0089 H   0  0  0  0  0  0
  -23.7300  -30.6125   19.4094 H   0  0  0  0  0  0
  -22.7405  -29.2580   19.8554 H   0  0  0  0  0  0
  -25.1285  -36.1933   25.0822 H   0  0  0  0  0  0
  -20.9963  -28.3233   24.1417 H   0  0  0  0  0  0
  -20.5675  -26.2273   23.3599 H   0  0  0  0  0  0
  -21.6650  -26.7429   22.1205 H   0  0  0  0  0  0
  -19.6913  -25.6279   21.1221 H   0  0  0  0  0  0
  -19.6672  -27.3177   20.6735 H   0  0  0  0  0  0
  -17.4203  -26.6659   21.4001 H   0  0  0  0  0  0
  -18.0323  -26.0022   22.8993 H   0  0  0  0  0  0
  -19.7956  -30.7193   24.2309 H   0  0  0  0  0  0
  -17.5041  -31.6251   24.5141 H   0  0  0  0  0  0
  -15.5366  -30.2958   23.7599 H   0  0  0  0  0  0
  -15.8687  -28.0751   22.7080 H   0  0  0  0  0  0
  -24.5800  -30.7162   25.7783 H   0  0  0  0  0  0
  -24.8989  -32.2891   26.4980 H   0  0  0  0  0  0
  -25.8020  -30.8783   27.0195 H   0  0  0  0  0  0
  -26.2851  -29.6785   24.1129 H   0  0  0  0  0  0
  -27.4030  -29.7210   25.4567 H   0  0  0  0  0  0
  -27.8710  -30.4323   23.9309 H   0  0  0  0  0  0
  -27.2650  -33.3563   26.2104 H   0  0  0  0  0  0
  -28.3802  -32.6906   25.0284 H   0  0  0  0  0  0
  -28.0760  -31.8401   26.5345 H   0  0  0  0  0  0
  -28.2557  -38.0142   24.7552 H   0  0  0  0  0  0
  -28.1140  -36.2679   24.6184 H   0  0  0  0  0  0
  -27.2339  -37.1335   25.8859 H   0  0  0  0  0  0
  -20.9318  -29.8737   21.6911 H   0  0  0  0  0  0
  -26.0168  -38.2861   24.1420 H   0  0  0  0  0  0
  -25.9013  -18.7957   20.4978 H   0  0  0  0  0  0
  -27.5238  -16.9431   20.6068 H   0  0  0  0  0  0
  -26.6529  -21.1480   20.4219 H   0  0  0  0  0  0
  -30.7618  -19.8051   20.4570 H   0  0  0  0  0  0
  -30.9501  -17.2711   21.5389 H   0  0  0  0  0  0
  -31.0067  -17.1733   19.8042 H   0  0  0  0  0  0
  -27.0922  -23.5386   19.6420 H   0  0  0  0  0  0
  -27.0393  -24.5270   21.0575 H   0  0  0  0  0  0
  -28.0495  -25.3112   18.5440 H   0  0  0  0  0  0
  -29.4810  -25.0083   19.4223 H   0  0  0  0  0  0
  -28.0320  -22.6163   21.9146 H   0  0  0  0  0  0
  -29.4164  -23.5925   21.6037 H   0  0  0  0  0  0
  -28.9294  -15.4769   21.0005 H   0  0  0  0  0  0
  1 25  1  0  0  0
  1 30  2  0  0  0
  1 81  1  0  0  0
  2  3  1  0  0  0
  2 25  1  0  0  0
  2 83  1  0  0  0
  2 84  1  0  0  0
  3  4  1  0  0  0
  3 85  1  0  0  0
  3 86  1  0  0  0
  4  5  1  0  0  0
  4 87  1  0  0  0
  4 88  1  0  0  0
  5  6  1  0  0  0
  5 26  1  0  0  0
  5 89  1  0  0  0
  6 25  1  0  0  0
  6 90  1  0  0  0
  6 91  1  0  0  0
  7  8  2  0  0  0
  7 26  1  0  0  0
  7 29  1  0  0  0
  8  9  1  0  0  0
  8 22  1  0  0  0
  9 10  1  0  0  0
  9 27  2  0  0  0
 10 11  2  0  0  0
 10 15  1  0  0  0
 11 12  1  0  0  0
 11 92  1  0  0  0
 12 13  2  0  0  0
 12 93  1  0  0  0
 13 14  1  0  0  0
 13 31  1  0  0  0
 14 15  2  0  0  0
 14 94  1  0  0  0
 15 95  1  0  0  0
 16 17  2  0  0  0
 16 21  1  0  0  0
 16 31  1  0  0  0
 17 18  1  0  0  0
 17 96  1  0  0  0
 18 19  2  0  0  0
 18 97  1  0  0  0
 19 20  1  0  0  0
 19 24  1  0  0  0
 20 21  2  0  0  0
 20 98  1  0  0  0
 21 23  1  0  0  0
 22 28  1  0  0  0
 22 32  2  0  0  0
 26 27  1  0  0  0
 28 99  1  0  0  0
 28100  1  0  0  0
 29101  1  0  0  0
 29102  1  0  0  0
 33 34  1  0  0  0
 33 66  1  0  0  0
 33 70  2  0  0  0
 34 36  1  0  0  0
 34 59  1  0  0  0
 34103  1  0  0  0
 35 44  2  0  0  0
 35 45  1  0  0  0
 35 68  1  0  0  0
 36 56  1  0  0  0
 36104  1  0  0  0
 37 39  1  0  0  0
 37 47  1  0  0  0
 37 66  1  0  0  0
 37105  1  0  0  0
 38 43  2  0  0  0
 38 46  1  0  0  0
 38 47  1  0  0  0
 39 64  1  0  0  0
 39 67  2  0  0  0
 40 52  1  0  0  0
 40 53  2  0  0  0
 40 58  1  0  0  0
 41106  1  0  0  0
 41107  1  0  0  0
 41108  1  0  0  0
 41 48  1  0  0  0
 42 43  1  0  0  0
 42 66  1  0  0  0
 42109  1  0  0  0
 42110  1  0  0  0
 43 44  1  0  0  0
 44111  1  0  0  0
 45 46  2  0  0  0
 45112  1  0  0  0
 46113  1  0  0  0
 47114  1  0  0  0
 47115  1  0  0  0
 48 56  1  0  0  0
 48 65  1  0  0  0
 48116  1  0  0  0
 49 50  1  0  0  0
 49 53  1  0  0  0
 49 64  1  0  0  0
 49117  1  0  0  0
 50 51  1  0  0  0
 50118  1  0  0  0
 50119  1  0  0  0
 51 52  1  0  0  0
 51120  1  0  0  0
 51121  1  0  0  0
 52122  1  0  0  0
 52123  1  0  0  0
 53 54  1  0  0  0
 54 55  2  0  0  0
 54124  1  0  0  0
 55 57  1  0  0  0
 55125  1  0  0  0
 56 69  2  0  0  0
 57 58  2  0  0  0
 57126  1  0  0  0
 58127  1  0  0  0
 59 60  1  0  0  0
 59 61  1  0  0  0
 59 62  1  0  0  0
 60128  1  0  0  0
 60129  1  0  0  0
 60130  1  0  0  0
 61131  1  0  0  0
 61132  1  0  0  0
 61133  1  0  0  0
 62134  1  0  0  0
 62135  1  0  0  0
 62136  1  0  0  0
 63 65  1  0  0  0
 63137  1  0  0  0
 63138  1  0  0  0
 63139  1  0  0  0
 64140  1  0  0  0
 65141  1  0  0  0
 68 79  1  0  0  0
 71 72  2  0  0  0
 71 73  1  0  0  0
 71142  1  0  0  0
 72 75  1  0  0  0
 72143  1  0  0  0
 73 76  2  0  0  0
 73144  1  0  0  0
 74 75  2  0  0  0
 74 76  1  0  0  0
 74145  1  0  0  0
 75 77  1  0  0  0
 76 82  1  0  0  0
 77 81  1  0  0  0
 77146  1  0  0  0
 77147  1  0  0  0
 78 79  1  0  0  0
 78 80  1  0  0  0
 78148  1  0  0  0
 78149  1  0  0  0
 79150  1  0  0  0
 79151  1  0  0  0
 80 82  1  0  0  0
 80152  1  0  0  0
 80153  1  0  0  0
 81154  1  0  0  0
M  ISO  4   1 100  68 101  79 101  81 100
M  END
> <chiral flag>
0

> <version>
0

> <s_m_source_file>
/data/baiqing/PycharmProjects/Reinvent-master-3.2/result/LINK_invent/BTK/process_docking_weight1_custom_product_contain_oxygen_bond_distance_aromatic_linkinvent_7_9_3/rearranged_h_0098.sdf

> <i_m_source_file_index>
37

> <r_mmod_Potential_Energy-OPLS-2005>
-50.6910629272461

> <r_mmod_Stretch_Energy-OPLS-2005>
55.6032676696777

> <r_mmod_Bend_Energy-OPLS-2005>
126.554336547852

> <r_mmod_Torsional_Energy-OPLS-2005>
215.807098388672

> <r_mmod_Improper_Torsional_Energy-OPLS-2005>
5.35020971298218

> <r_mmod_Van_der_Waal_Energy-OPLS-2005>
142.424987792969

> <r_mmod_Electrostatic_Energy-OPLS-2005>
-414.575347900391

> <r_mmod_Solvation_Energy-OPLS-2005>
-211.39289855957

> <b_mmod_Minimization_Converged-OPLS-2005>
0

> <r_mmod_RMS_Derivative-OPLS-2005>
5.73570251464844

$$$$
37
                    3D
 Structure written by MMmdl.
152160  0  0  1  0            999 V2000
  -30.7539  -14.4608   20.5956 C   0  0  0  0  0  0
  -30.4198  -12.3154   19.4219 C   0  0  0  0  0  0
  -29.4885  -12.5067   18.2070 C   0  0  0  0  0  0
  -28.0148  -12.3624   18.6281 C   0  0  0  0  0  0
  -27.6643  -13.2147   19.8782 C   0  0  2  0  0  0
  -28.7118  -13.0159   20.9993 C   0  0  0  0  0  0
  -25.2610  -13.8184   20.5730 C   0  0  0  0  0  0
  -24.1852  -13.0452   20.9197 C   0  0  0  0  0  0
  -24.6424  -11.6926   20.8768 C   0  0  0  0  0  0
  -23.9100  -10.4299   21.0428 C   0  0  0  0  0  0
  -24.3638   -9.4203   21.9202 C   0  0  0  0  0  0
  -23.6300   -8.2244   22.0763 C   0  0  0  0  0  0
  -22.4281   -8.0295   21.3561 C   0  0  0  0  0  0
  -21.9942   -9.0273   20.4662 C   0  0  0  0  0  0
  -22.7280  -10.2144   20.3072 C   0  0  0  0  0  0
  -21.6854   -6.0754   22.5278 C   0  0  0  0  0  0
  -21.4009   -6.5647   23.8216 C   0  0  0  0  0  0
  -21.3656   -5.6793   24.9173 C   0  0  0  0  0  0
  -21.6043   -4.3058   24.7221 C   0  0  0  0  0  0
  -21.8821   -3.8164   23.4335 C   0  0  0  0  0  0
  -21.9189   -4.6984   22.3396 C   0  0  0  0  0  0
  -22.7864  -13.5245   21.1839 C   0  0  0  0  0  0
  -22.1657   -4.2179   21.0976 F   0  0  0  0  0  0
  -21.5632   -3.4533   25.7730 F   0  0  0  0  0  0
  -30.0419  -13.3105   20.4420 N   0  0  0  0  0  0
  -26.3064  -12.9376   20.3450 N   0  0  0  0  0  0
  -25.9357  -11.6523   20.5812 N   0  0  0  0  0  0
  -22.0493  -12.8236   22.0385 N   0  0  0  0  0  0
  -25.4313  -15.1902   20.4144 N   0  0  0  0  0  0
  -31.8457  -14.6340   20.0481 O   0  0  0  0  0  0
  -21.6637   -6.8900   21.4241 O   0  0  0  0  0  0
  -22.3549  -14.5545   20.6676 O   0  0  0  0  0  0
  -24.6148  -31.8685   23.2069 C   0  0  0  0  0  0
  -25.9034  -32.4822   23.8362 C   0  0  1  0  0  0
  -27.2299  -27.4091   20.1002 C   0  0  0  0  0  0
  -25.5904  -33.8621   24.2293 N   0  0  0  0  0  0
  -23.4040  -30.4908   21.5500 C   0  0  2  0  0  0
  -24.8532  -28.9643   20.1085 C   0  0  0  0  0  0
  -22.7386  -29.4651   22.4966 C   0  0  0  0  0  0
  -18.0241  -28.1358   22.8507 C   0  0  0  0  0  0
  -24.1488  -36.7313   23.2644 C   0  0  0  0  0  0
  -25.9371  -30.8275   21.3645 C   0  0  0  0  0  0
  -26.0154  -29.4626   20.7083 C   0  0  0  0  0  0
  -27.2082  -28.6939   20.7002 C   0  0  0  0  0  0
  -26.0437  -26.9458   19.4758 C   0  0  0  0  0  0
  -24.8643  -27.7074   19.4870 C   0  0  0  0  0  0
  -23.6159  -29.8300   20.1633 C   0  0  0  0  0  0
  -25.4113  -36.3104   24.0335 C   0  0  1  0  0  0
  -20.5834  -28.3679   23.1318 C   0  0  2  0  0  0
  -20.6738  -26.9367   22.5497 C   0  0  0  0  0  0
  -19.5678  -26.6245   21.5344 C   0  0  0  0  0  0
  -18.1891  -26.7842   22.1787 C   0  0  0  0  0  0
  -19.1489  -28.8847   23.2893 C   0  0  0  0  0  0
  -18.9403  -30.1464   23.8891 C   0  0  0  0  0  0
  -17.6398  -30.6584   24.0537 C   0  0  0  0  0  0
  -25.9037  -34.9476   23.5105 C   0  0  0  0  0  0
  -16.5311  -29.9063   23.6290 C   0  0  0  0  0  0
  -16.7223  -28.6472   23.0338 C   0  0  0  0  0  0
  -26.4453  -31.6607   25.0695 C   0  0  0  0  0  0
  -25.3691  -31.3721   26.1414 C   0  0  0  0  0  0
  -27.0291  -30.3048   24.6075 C   0  0  0  0  0  0
  -27.6024  -32.4321   25.7481 C   0  0  0  0  0  0
  -27.5578  -37.1830   24.8467 C   0  0  0  0  0  0
  -21.4115  -29.3040   22.3698 N   0  0  0  0  0  0
  -26.4297  -37.3786   23.9408 N   0  0  0  0  0  0
  -24.6697  -31.0749   22.0994 N   0  0  0  0  0  0
  -23.4158  -28.8212   23.3028 O   0  0  0  0  0  0
  -28.3752  -26.6236   20.1488 O   0  0  0  0  0  0
  -26.5592  -34.8939   22.4661 O   0  0  0  0  0  0
  -23.5345  -32.1469   23.7453 O   0  0  0  0  0  0
  -28.9089  -18.3582   21.4107 C   0  0  0  0  0  0
  -28.6890  -19.7590   21.1763 C   0  0  0  0  0  0
  -30.2359  -18.0016   21.4096 C   0  0  0  0  0  0
  -29.8477  -20.4750   20.9778 C   0  0  0  0  0  0
  -30.8962  -16.6796   21.7411 C   0  0  0  0  0  0
  -29.3400  -24.2805   20.4827 C   0  0  0  0  0  0
  -28.9421  -22.7706   20.4935 C   0  0  0  0  0  0
  -28.1660  -25.1939   20.0400 C   0  0  0  0  0  0
  -30.0541  -21.8518   20.7566 N   0  0  0  0  0  0
  -30.1988  -15.4398   21.3384 N   0  0  0  0  0  0
  -31.2293  -19.4059   21.0655 S   0  0  0  0  0  0
  -31.4616  -12.4018   19.1086 H   0  0  0  0  0  0
  -30.3235  -11.3081   19.8267 H   0  0  0  0  0  0
  -29.7256  -11.7776   17.4311 H   0  0  0  0  0  0
  -29.6514  -13.4904   17.7621 H   0  0  0  0  0  0
  -27.8321  -11.3079   18.8357 H   0  0  0  0  0  0
  -27.3571  -12.6278   17.8002 H   0  0  0  0  0  0
  -27.7050  -14.2615   19.5731 H   0  0  0  0  0  0
  -28.6957  -11.9856   21.3580 H   0  0  0  0  0  0
  -28.4746  -13.6302   21.8676 H   0  0  0  0  0  0
  -25.2783   -9.5654   22.4783 H   0  0  0  0  0  0
  -24.0007   -7.4625   22.7471 H   0  0  0  0  0  0
  -21.0889   -8.8812   19.8956 H   0  0  0  0  0  0
  -22.3773  -10.9689   19.6180 H   0  0  0  0  0  0
  -21.1998   -7.6153   23.9734 H   0  0  0  0  0  0
  -21.1476   -6.0516   25.9079 H   0  0  0  0  0  0
  -22.0607   -2.7628   23.2822 H   0  0  0  0  0  0
  -22.4089  -11.9888   22.4765 H   0  0  0  0  0  0
  -21.1106  -13.1259   22.2573 H   0  0  0  0  0  0
  -24.6673  -15.8472   20.5413 H   0  0  0  0  0  0
  -26.2876  -15.6364   20.1078 H   0  0  0  0  0  0
  -26.7112  -32.5523   23.1143 H   0  0  0  0  0  0
  -25.0064  -33.9774   25.0440 H   0  0  0  0  0  0
  -22.6913  -31.3052   21.4096 H   0  0  0  0  0  0
  -23.3755  -35.9644   23.3317 H   0  0  0  0  0  0
  -24.3563  -36.8916   22.2054 H   0  0  0  0  0  0
  -23.7249  -37.6529   23.6650 H   0  0  0  0  0  0
  -26.0519  -31.5980   20.5999 H   0  0  0  0  0  0
  -26.8225  -30.8815   21.9852 H   0  0  0  0  0  0
  -28.1035  -29.0693   21.1759 H   0  0  0  0  0  0
  -26.0013  -25.9899   18.9768 H   0  0  0  0  0  0
  -23.9739  -27.3210   19.0090 H   0  0  0  0  0  0
  -23.7283  -30.6060   19.4058 H   0  0  0  0  0  0
  -22.7407  -29.2524   19.8608 H   0  0  0  0  0  0
  -25.1305  -36.1967   25.0833 H   0  0  0  0  0  0
  -20.9885  -28.3291   24.1453 H   0  0  0  0  0  0
  -20.5583  -26.2284   23.3731 H   0  0  0  0  0  0
  -21.6630  -26.7368   22.1375 H   0  0  0  0  0  0
  -19.6784  -25.6111   21.1499 H   0  0  0  0  0  0
  -19.6547  -27.2962   20.6785 H   0  0  0  0  0  0
  -17.4120  -26.6478   21.4238 H   0  0  0  0  0  0
  -18.0338  -26.0052   22.9258 H   0  0  0  0  0  0
  -19.7841  -30.7313   24.2276 H   0  0  0  0  0  0
  -17.4897  -31.6297   24.5079 H   0  0  0  0  0  0
  -15.5324  -30.2959   23.7619 H   0  0  0  0  0  0
  -15.8614  -28.0800   22.7059 H   0  0  0  0  0  0
  -24.5866  -30.7074   25.7726 H   0  0  0  0  0  0
  -24.8870  -32.2884   26.4840 H   0  0  0  0  0  0
  -25.8006  -30.8885   27.0181 H   0  0  0  0  0  0
  -26.2841  -29.6820   24.1094 H   0  0  0  0  0  0
  -27.4040  -29.7273   25.4535 H   0  0  0  0  0  0
  -27.8680  -30.4375   23.9233 H   0  0  0  0  0  0
  -27.2640  -33.3623   26.2061 H   0  0  0  0  0  0
  -28.3847  -32.6880   25.0320 H   0  0  0  0  0  0
  -28.0667  -31.8420   26.5397 H   0  0  0  0  0  0
  -28.2624  -38.0103   24.7493 H   0  0  0  0  0  0
  -28.1051  -36.2638   24.6327 H   0  0  0  0  0  0
  -27.2277  -37.1509   25.8864 H   0  0  0  0  0  0
  -20.9288  -29.8767   21.6910 H   0  0  0  0  0  0
  -26.0193  -38.2872   24.1384 H   0  0  0  0  0  0
  -28.0919  -17.6787   21.6128 H   0  0  0  0  0  0
  -27.6933  -20.1789   21.1820 H   0  0  0  0  0  0
  -31.9157  -16.6978   21.3517 H   0  0  0  0  0  0
  -31.0270  -16.6260   22.8219 H   0  0  0  0  0  0
  -30.1849  -24.4479   19.8153 H   0  0  0  0  0  0
  -29.6703  -24.5784   21.4778 H   0  0  0  0  0  0
  -28.5011  -22.5033   19.5306 H   0  0  0  0  0  0
  -28.1653  -22.6173   21.2423 H   0  0  0  0  0  0
  -27.3002  -24.9131   20.6436 H   0  0  0  0  0  0
  -27.9297  -24.9443   19.0042 H   0  0  0  0  0  0
  -30.9865  -22.1878   20.5188 H   0  0  0  0  0  0
  -29.3032  -15.2484   21.7592 H   0  0  0  0  0  0
  1 25  1  0  0  0
  1 30  2  0  0  0
  1 80  1  0  0  0
  2  3  1  0  0  0
  2 25  1  0  0  0
  2 82  1  0  0  0
  2 83  1  0  0  0
  3  4  1  0  0  0
  3 84  1  0  0  0
  3 85  1  0  0  0
  4  5  1  0  0  0
  4 86  1  0  0  0
  4 87  1  0  0  0
  5  6  1  0  0  0
  5 26  1  0  0  0
  5 88  1  0  0  0
  6 25  1  0  0  0
  6 89  1  0  0  0
  6 90  1  0  0  0
  7  8  2  0  0  0
  7 26  1  0  0  0
  7 29  1  0  0  0
  8  9  1  0  0  0
  8 22  1  0  0  0
  9 10  1  0  0  0
  9 27  2  0  0  0
 10 11  2  0  0  0
 10 15  1  0  0  0
 11 12  1  0  0  0
 11 91  1  0  0  0
 12 13  2  0  0  0
 12 92  1  0  0  0
 13 14  1  0  0  0
 13 31  1  0  0  0
 14 15  2  0  0  0
 14 93  1  0  0  0
 15 94  1  0  0  0
 16 17  2  0  0  0
 16 21  1  0  0  0
 16 31  1  0  0  0
 17 18  1  0  0  0
 17 95  1  0  0  0
 18 19  2  0  0  0
 18 96  1  0  0  0
 19 20  1  0  0  0
 19 24  1  0  0  0
 20 21  2  0  0  0
 20 97  1  0  0  0
 21 23  1  0  0  0
 22 28  1  0  0  0
 22 32  2  0  0  0
 26 27  1  0  0  0
 28 98  1  0  0  0
 28 99  1  0  0  0
 29100  1  0  0  0
 29101  1  0  0  0
 33 34  1  0  0  0
 33 66  1  0  0  0
 33 70  2  0  0  0
 34 36  1  0  0  0
 34 59  1  0  0  0
 34102  1  0  0  0
 35 44  2  0  0  0
 35 45  1  0  0  0
 35 68  1  0  0  0
 36 56  1  0  0  0
 36103  1  0  0  0
 37 39  1  0  0  0
 37 47  1  0  0  0
 37 66  1  0  0  0
 37104  1  0  0  0
 38 43  2  0  0  0
 38 46  1  0  0  0
 38 47  1  0  0  0
 39 64  1  0  0  0
 39 67  2  0  0  0
 40 52  1  0  0  0
 40 53  2  0  0  0
 40 58  1  0  0  0
 41105  1  0  0  0
 41106  1  0  0  0
 41107  1  0  0  0
 41 48  1  0  0  0
 42 43  1  0  0  0
 42 66  1  0  0  0
 42108  1  0  0  0
 42109  1  0  0  0
 43 44  1  0  0  0
 44110  1  0  0  0
 45 46  2  0  0  0
 45111  1  0  0  0
 46112  1  0  0  0
 47113  1  0  0  0
 47114  1  0  0  0
 48 56  1  0  0  0
 48 65  1  0  0  0
 48115  1  0  0  0
 49 50  1  0  0  0
 49 53  1  0  0  0
 49 64  1  0  0  0
 49116  1  0  0  0
 50 51  1  0  0  0
 50117  1  0  0  0
 50118  1  0  0  0
 51 52  1  0  0  0
 51119  1  0  0  0
 51120  1  0  0  0
 52121  1  0  0  0
 52122  1  0  0  0
 53 54  1  0  0  0
 54 55  2  0  0  0
 54123  1  0  0  0
 55 57  1  0  0  0
 55124  1  0  0  0
 56 69  2  0  0  0
 57 58  2  0  0  0
 57125  1  0  0  0
 58126  1  0  0  0
 59 60  1  0  0  0
 59 61  1  0  0  0
 59 62  1  0  0  0
 60127  1  0  0  0
 60128  1  0  0  0
 60129  1  0  0  0
 61130  1  0  0  0
 61131  1  0  0  0
 61132  1  0  0  0
 62133  1  0  0  0
 62134  1  0  0  0
 62135  1  0  0  0
 63 65  1  0  0  0
 63136  1  0  0  0
 63137  1  0  0  0
 63138  1  0  0  0
 64139  1  0  0  0
 65140  1  0  0  0
 68 78  1  0  0  0
 71 72  1  0  0  0
 71 73  2  0  0  0
 71141  1  0  0  0
 72 74  2  0  0  0
 72142  1  0  0  0
 73 75  1  0  0  0
 73 81  1  0  0  0
 74 79  1  0  0  0
 74 81  1  0  0  0
 75 80  1  0  0  0
 75143  1  0  0  0
 75144  1  0  0  0
 76 77  1  0  0  0
 76 78  1  0  0  0
 76145  1  0  0  0
 76146  1  0  0  0
 77 79  1  0  0  0
 77147  1  0  0  0
 77148  1  0  0  0
 78149  1  0  0  0
 78150  1  0  0  0
 79151  1  0  0  0
 80152  1  0  0  0
M  ISO  4   1 100  68 101  78 101  80 100
M  END
> <chiral flag>
0

> <version>
0

> <s_m_source_file>
/data/baiqing/PycharmProjects/Reinvent-master-3.2/result/LINK_invent/BTK/process_docking_weight1_custom_product_contain_oxygen_bond_distance_aromatic_linkinvent_7_9_3/rearranged_h_0098.sdf

> <i_m_source_file_index>
38

> <r_mmod_Potential_Energy-OPLS-2005>
-119.573623657227

> <r_mmod_Stretch_Energy-OPLS-2005>
40.084300994873

> <r_mmod_Bend_Energy-OPLS-2005>
106.241889953613

> <r_mmod_Torsional_Energy-OPLS-2005>
189.396621704102

> <r_mmod_Improper_Torsional_Energy-OPLS-2005>
2.92561817169189

> <r_mmod_Van_der_Waal_Energy-OPLS-2005>
135.256530761719

> <r_mmod_Electrostatic_Energy-OPLS-2005>
-382.473754882812

> <r_mmod_Solvation_Energy-OPLS-2005>
-226.804351806641

> <b_mmod_Minimization_Converged-OPLS-2005>
0

> <r_mmod_RMS_Derivative-OPLS-2005>
3.65444660186768

$$$$
38
                    3D
 Structure written by MMmdl.
158167  0  0  1  0            999 V2000
  -30.6789  -14.4732   20.5973 C   0  0  0  0  0  0
  -30.4327  -12.3144   19.4214 C   0  0  0  0  0  0
  -29.4987  -12.4991   18.2058 C   0  0  0  0  0  0
  -28.0176  -12.3682   18.6146 C   0  0  0  0  0  0
  -27.6650  -13.2014   19.8767 C   0  0  2  0  0  0
  -28.7033  -12.9554   20.9944 C   0  0  0  0  0  0
  -25.2585  -13.8145   20.5666 C   0  0  0  0  0  0
  -24.1844  -13.0444   20.9188 C   0  0  0  0  0  0
  -24.6394  -11.6908   20.8774 C   0  0  0  0  0  0
  -23.9065  -10.4306   21.0438 C   0  0  0  0  0  0
  -24.3623   -9.4212   21.9187 C   0  0  0  0  0  0
  -23.6313   -8.2244   22.0739 C   0  0  0  0  0  0
  -22.4288   -8.0291   21.3552 C   0  0  0  0  0  0
  -21.9922   -9.0265   20.4647 C   0  0  0  0  0  0
  -22.7246  -10.2149   20.3070 C   0  0  0  0  0  0
  -21.6841   -6.0752   22.5295 C   0  0  0  0  0  0
  -21.4013   -6.5648   23.8234 C   0  0  0  0  0  0
  -21.3663   -5.6789   24.9187 C   0  0  0  0  0  0
  -21.6032   -4.3053   24.7226 C   0  0  0  0  0  0
  -21.8823   -3.8160   23.4347 C   0  0  0  0  0  0
  -21.9190   -4.6981   22.3411 C   0  0  0  0  0  0
  -22.7866  -13.5259   21.1840 C   0  0  0  0  0  0
  -22.1655   -4.2167   21.0987 F   0  0  0  0  0  0
  -21.5623   -3.4538   25.7739 F   0  0  0  0  0  0
  -30.0365  -13.2802   20.4584 N   0  0  0  0  0  0
  -26.3021  -12.9315   20.3357 N   0  0  0  0  0  0
  -25.9308  -11.6479   20.5792 N   0  0  0  0  0  0
  -22.0500  -12.8294   22.0416 N   0  0  0  0  0  0
  -25.4287  -15.1861   20.4047 N   0  0  0  0  0  0
  -31.7785  -14.6871   20.0813 O   0  0  0  0  0  0
  -21.6631   -6.8908   21.4265 O   0  0  0  0  0  0
  -22.3572  -14.5563   20.6650 O   0  0  0  0  0  0
  -24.6168  -31.8659   23.2068 C   0  0  0  0  0  0
  -25.9051  -32.4817   23.8373 C   0  0  1  0  0  0
  -27.2316  -27.4134   20.1201 C   0  0  0  0  0  0
  -25.5905  -33.8613   24.2306 N   0  0  0  0  0  0
  -23.4062  -30.4886   21.5441 C   0  0  2  0  0  0
  -24.8551  -28.9444   20.1173 C   0  0  0  0  0  0
  -22.7414  -29.4669   22.4961 C   0  0  0  0  0  0
  -18.0276  -28.1383   22.8494 C   0  0  0  0  0  0
  -24.1486  -36.7304   23.2642 C   0  0  0  0  0  0
  -25.9357  -30.8227   21.3645 C   0  0  0  0  0  0
  -26.0132  -29.4533   20.7197 C   0  0  0  0  0  0
  -27.2070  -28.6937   20.7213 C   0  0  0  0  0  0
  -26.0641  -26.9214   19.5062 C   0  0  0  0  0  0
  -24.8751  -27.6767   19.5068 C   0  0  0  0  0  0
  -23.6190  -29.8149   20.1610 C   0  0  0  0  0  0
  -25.4111  -36.3102   24.0342 C   0  0  1  0  0  0
  -20.5872  -28.3680   23.1314 C   0  0  2  0  0  0
  -20.6772  -26.9416   22.5421 C   0  0  0  0  0  0
  -19.5754  -26.6397   21.5211 C   0  0  0  0  0  0
  -18.1931  -26.7933   22.1619 C   0  0  0  0  0  0
  -19.1526  -28.8849   23.2903 C   0  0  0  0  0  0
  -18.9459  -30.1457   23.8916 C   0  0  0  0  0  0
  -17.6468  -30.6592   24.0574 C   0  0  0  0  0  0
  -25.9036  -34.9471   23.5113 C   0  0  0  0  0  0
  -16.5359  -29.9095   23.6335 C   0  0  0  0  0  0
  -16.7270  -28.6512   23.0352 C   0  0  0  0  0  0
  -26.4481  -31.6598   25.0707 C   0  0  0  0  0  0
  -25.3766  -31.3715   26.1471 C   0  0  0  0  0  0
  -27.0307  -30.3037   24.6083 C   0  0  0  0  0  0
  -27.6046  -32.4333   25.7487 C   0  0  0  0  0  0
  -27.5575  -37.1810   24.8467 C   0  0  0  0  0  0
  -21.4144  -29.3040   22.3708 N   0  0  0  0  0  0
  -26.4289  -37.3793   23.9413 N   0  0  0  0  0  0
  -24.6704  -31.0754   22.0965 N   0  0  0  0  0  0
  -23.4174  -28.8224   23.3025 O   0  0  0  0  0  0
  -28.3742  -26.6425   20.1039 O   0  0  0  0  0  0
  -26.5602  -34.8937   22.4674 O   0  0  0  0  0  0
  -23.5353  -32.1418   23.7448 O   0  0  0  0  0  0
  -28.6594  -18.8714   20.5575 C   0  0  0  0  0  0
  -28.7251  -17.4888   20.8628 C   0  0  0  0  0  0
  -31.0821  -18.9779   20.6062 C   0  0  0  0  0  0
  -29.8436  -19.6331   20.4054 C   0  0  0  0  0  0
  -29.9695  -16.8279   21.0137 C   0  0  0  0  0  0
  -31.1508  -17.6064   20.9355 C   0  0  0  0  0  0
  -29.8411  -21.0650   19.8997 C   0  0  0  0  0  0
  -28.0483  -23.3760   22.1871 C   0  0  0  0  0  0
  -28.2960  -21.9288   21.7194 C   0  0  0  0  0  0
  -29.1512  -23.4486   20.0711 C   0  0  0  0  0  0
  -28.1491  -24.2456   20.9278 C   0  0  2  0  0  0
  -28.5165  -25.7358   21.2141 C   0  0  0  0  0  0
  -29.1029  -22.0370   20.5038 N   0  0  0  0  0  0
  -29.9758  -15.4156   21.2635 N   0  0  0  0  0  0
  -30.5678  -21.3270   18.9373 O   0  0  0  0  0  0
  -32.3622  -17.0596   21.1901 F   0  0  0  0  0  0
  -31.4735  -12.4295   19.1170 H   0  0  0  0  0  0
  -30.3531  -11.2988   19.8111 H   0  0  0  0  0  0
  -29.7368  -11.7613   17.4380 H   0  0  0  0  0  0
  -29.6672  -13.4772   17.7547 H   0  0  0  0  0  0
  -27.8210  -11.3135   18.8053 H   0  0  0  0  0  0
  -27.3709  -12.6467   17.7819 H   0  0  0  0  0  0
  -27.7219  -14.2548   19.5970 H   0  0  0  0  0  0
  -28.6794  -11.9079   21.2966 H   0  0  0  0  0  0
  -28.4497  -13.5162   21.8962 H   0  0  0  0  0  0
  -25.2782   -9.5677   22.4740 H   0  0  0  0  0  0
  -24.0017   -7.4638   22.7448 H   0  0  0  0  0  0
  -21.0842   -8.8804   19.8977 H   0  0  0  0  0  0
  -22.3719  -10.9679   19.6175 H   0  0  0  0  0  0
  -21.2011   -7.6156   23.9758 H   0  0  0  0  0  0
  -21.1466   -6.0506   25.9090 H   0  0  0  0  0  0
  -22.0597   -2.7623   23.2841 H   0  0  0  0  0  0
  -22.4096  -11.9984   22.4862 H   0  0  0  0  0  0
  -21.1110  -13.1322   22.2591 H   0  0  0  0  0  0
  -24.6548  -15.8333   20.5063 H   0  0  0  0  0  0
  -26.2607  -15.6185   20.0262 H   0  0  0  0  0  0
  -26.7118  -32.5521   23.1131 H   0  0  0  0  0  0
  -25.0097  -33.9769   25.0477 H   0  0  0  0  0  0
  -22.6965  -31.3065   21.3990 H   0  0  0  0  0  0
  -23.3742  -35.9643   23.3332 H   0  0  0  0  0  0
  -24.3580  -36.8876   22.2048 H   0  0  0  0  0  0
  -23.7251  -37.6525   23.6633 H   0  0  0  0  0  0
  -26.0539  -31.5824   20.5906 H   0  0  0  0  0  0
  -26.8225  -30.8787   21.9840 H   0  0  0  0  0  0
  -28.1036  -29.0789   21.1873 H   0  0  0  0  0  0
  -26.0749  -25.9490   19.0349 H   0  0  0  0  0  0
  -23.9859  -27.2767   19.0389 H   0  0  0  0  0  0
  -23.7337  -30.5845   19.3982 H   0  0  0  0  0  0
  -22.7436  -29.2358   19.8626 H   0  0  0  0  0  0
  -25.1288  -36.1959   25.0838 H   0  0  0  0  0  0
  -20.9985  -28.3244   24.1418 H   0  0  0  0  0  0
  -20.5664  -26.2283   23.3609 H   0  0  0  0  0  0
  -21.6644  -26.7440   22.1217 H   0  0  0  0  0  0
  -19.6911  -25.6305   21.1228 H   0  0  0  0  0  0
  -19.6689  -27.3218   20.6757 H   0  0  0  0  0  0
  -17.4199  -26.6692   21.4016 H   0  0  0  0  0  0
  -18.0320  -26.0067   22.9009 H   0  0  0  0  0  0
  -19.7943  -30.7265   24.2274 H   0  0  0  0  0  0
  -17.5028  -31.6267   24.5171 H   0  0  0  0  0  0
  -15.5360  -30.3000   23.7660 H   0  0  0  0  0  0
  -15.8670  -28.0845   22.7045 H   0  0  0  0  0  0
  -24.5934  -30.7049   25.7828 H   0  0  0  0  0  0
  -24.8979  -32.2874   26.4940 H   0  0  0  0  0  0
  -25.8159  -30.8887   27.0204 H   0  0  0  0  0  0
  -26.2828  -29.6821   24.1133 H   0  0  0  0  0  0
  -27.4057  -29.7267   25.4541 H   0  0  0  0  0  0
  -27.8687  -30.4355   23.9238 H   0  0  0  0  0  0
  -27.2626  -33.3603   26.2114 H   0  0  0  0  0  0
  -28.3850  -32.6945   25.0321 H   0  0  0  0  0  0
  -28.0721  -31.8428   26.5373 H   0  0  0  0  0  0
  -28.2611  -38.0091   24.7506 H   0  0  0  0  0  0
  -28.1056  -36.2623   24.6300 H   0  0  0  0  0  0
  -27.2302  -37.1468   25.8875 H   0  0  0  0  0  0
  -20.9300  -29.8765   21.6937 H   0  0  0  0  0  0
  -26.0174  -38.2869   24.1402 H   0  0  0  0  0  0
  -27.6942  -19.3272   20.3800 H   0  0  0  0  0  0
  -27.8024  -16.9300   20.9455 H   0  0  0  0  0  0
  -32.0033  -19.5308   20.4937 H   0  0  0  0  0  0
  -28.8242  -23.6655   22.8988 H   0  0  0  0  0  0
  -27.0889  -23.4902   22.6929 H   0  0  0  0  0  0
  -27.3498  -21.4419   21.4777 H   0  0  0  0  0  0
  -28.7929  -21.3327   22.4887 H   0  0  0  0  0  0
  -30.1643  -23.8214   20.2266 H   0  0  0  0  0  0
  -28.9229  -23.5419   19.0074 H   0  0  0  0  0  0
  -27.1767  -24.2126   20.4358 H   0  0  0  0  0  0
  -29.5525  -25.7874   21.5504 H   0  0  0  0  0  0
  -27.9267  -26.0931   22.0609 H   0  0  0  0  0  0
  -29.1325  -15.0483   21.6741 H   0  0  0  0  0  0
  1 25  1  0  0  0
  1 30  2  0  0  0
  1 84  1  0  0  0
  2  3  1  0  0  0
  2 25  1  0  0  0
  2 87  1  0  0  0
  2 88  1  0  0  0
  3  4  1  0  0  0
  3 89  1  0  0  0
  3 90  1  0  0  0
  4  5  1  0  0  0
  4 91  1  0  0  0
  4 92  1  0  0  0
  5  6  1  0  0  0
  5 26  1  0  0  0
  5 93  1  0  0  0
  6 25  1  0  0  0
  6 94  1  0  0  0
  6 95  1  0  0  0
  7  8  2  0  0  0
  7 26  1  0  0  0
  7 29  1  0  0  0
  8  9  1  0  0  0
  8 22  1  0  0  0
  9 10  1  0  0  0
  9 27  2  0  0  0
 10 11  2  0  0  0
 10 15  1  0  0  0
 11 12  1  0  0  0
 11 96  1  0  0  0
 12 13  2  0  0  0
 12 97  1  0  0  0
 13 14  1  0  0  0
 13 31  1  0  0  0
 14 15  2  0  0  0
 14 98  1  0  0  0
 15 99  1  0  0  0
 16 17  2  0  0  0
 16 21  1  0  0  0
 16 31  1  0  0  0
 17 18  1  0  0  0
 17100  1  0  0  0
 18 19  2  0  0  0
 18101  1  0  0  0
 19 20  1  0  0  0
 19 24  1  0  0  0
 20 21  2  0  0  0
 20102  1  0  0  0
 21 23  1  0  0  0
 22 28  1  0  0  0
 22 32  2  0  0  0
 26 27  1  0  0  0
 28103  1  0  0  0
 28104  1  0  0  0
 29105  1  0  0  0
 29106  1  0  0  0
 33 34  1  0  0  0
 33 66  1  0  0  0
 33 70  2  0  0  0
 34 36  1  0  0  0
 34 59  1  0  0  0
 34107  1  0  0  0
 35 44  2  0  0  0
 35 45  1  0  0  0
 35 68  1  0  0  0
 36 56  1  0  0  0
 36108  1  0  0  0
 37 39  1  0  0  0
 37 47  1  0  0  0
 37 66  1  0  0  0
 37109  1  0  0  0
 38 43  2  0  0  0
 38 46  1  0  0  0
 38 47  1  0  0  0
 39 64  1  0  0  0
 39 67  2  0  0  0
 40 52  1  0  0  0
 40 53  2  0  0  0
 40 58  1  0  0  0
 41110  1  0  0  0
 41111  1  0  0  0
 41112  1  0  0  0
 41 48  1  0  0  0
 42 43  1  0  0  0
 42 66  1  0  0  0
 42113  1  0  0  0
 42114  1  0  0  0
 43 44  1  0  0  0
 44115  1  0  0  0
 45 46  2  0  0  0
 45116  1  0  0  0
 46117  1  0  0  0
 47118  1  0  0  0
 47119  1  0  0  0
 48 56  1  0  0  0
 48 65  1  0  0  0
 48120  1  0  0  0
 49 50  1  0  0  0
 49 53  1  0  0  0
 49 64  1  0  0  0
 49121  1  0  0  0
 50 51  1  0  0  0
 50122  1  0  0  0
 50123  1  0  0  0
 51 52  1  0  0  0
 51124  1  0  0  0
 51125  1  0  0  0
 52126  1  0  0  0
 52127  1  0  0  0
 53 54  1  0  0  0
 54 55  2  0  0  0
 54128  1  0  0  0
 55 57  1  0  0  0
 55129  1  0  0  0
 56 69  2  0  0  0
 57 58  2  0  0  0
 57130  1  0  0  0
 58131  1  0  0  0
 59 60  1  0  0  0
 59 61  1  0  0  0
 59 62  1  0  0  0
 60132  1  0  0  0
 60133  1  0  0  0
 60134  1  0  0  0
 61135  1  0  0  0
 61136  1  0  0  0
 61137  1  0  0  0
 62138  1  0  0  0
 62139  1  0  0  0
 62140  1  0  0  0
 63 65  1  0  0  0
 63141  1  0  0  0
 63142  1  0  0  0
 63143  1  0  0  0
 64144  1  0  0  0
 65145  1  0  0  0
 68 82  1  0  0  0
 71 72  2  0  0  0
 71 74  1  0  0  0
 71146  1  0  0  0
 72 75  1  0  0  0
 72147  1  0  0  0
 73 74  2  0  0  0
 73 76  1  0  0  0
 73148  1  0  0  0
 74 77  1  0  0  0
 75 76  2  0  0  0
 75 84  1  0  0  0
 76 86  1  0  0  0
 77 83  1  0  0  0
 77 85  2  0  0  0
 78 79  1  0  0  0
 78 81  1  0  0  0
 78149  1  0  0  0
 78150  1  0  0  0
 79 83  1  0  0  0
 79151  1  0  0  0
 79152  1  0  0  0
 80 81  1  0  0  0
 80 83  1  0  0  0
 80153  1  0  0  0
 80154  1  0  0  0
 81 82  1  0  0  0
 81155  1  0  0  0
 82156  1  0  0  0
 82157  1  0  0  0
 84158  1  0  0  0
M  ISO  4   1 100  68 101  82 101  84 100
M  END
> <chiral flag>
0

> <version>
0

> <s_m_source_file>
/data/baiqing/PycharmProjects/Reinvent-master-3.2/result/LINK_invent/BTK/process_docking_weight1_custom_product_contain_oxygen_bond_distance_aromatic_linkinvent_7_9_3/rearranged_h_0098.sdf

> <i_m_source_file_index>
39

> <r_mmod_Potential_Energy-OPLS-2005>
61.5994758605957

> <r_mmod_Stretch_Energy-OPLS-2005>
42.0884399414062

> <r_mmod_Bend_Energy-OPLS-2005>
121.888999938965

> <r_mmod_Torsional_Energy-OPLS-2005>
345.329681396484

> <r_mmod_Improper_Torsional_Energy-OPLS-2005>
5.24740695953369

> <r_mmod_Van_der_Waal_Energy-OPLS-2005>
143.141616821289

> <r_mmod_Electrostatic_Energy-OPLS-2005>
-371.111633300781

> <r_mmod_Solvation_Energy-OPLS-2005>
-238.52311706543

> <b_mmod_Minimization_Converged-OPLS-2005>
0

> <r_mmod_RMS_Derivative-OPLS-2005>
3.09271645545959

$$$$
39
                    3D
 Structure written by MMmdl.
163172  0  0  1  0            999 V2000
  -30.7112  -14.4571   20.6142 C   0  0  0  0  0  0
  -30.4235  -12.3181   19.4072 C   0  0  0  0  0  0
  -29.4884  -12.5122   18.1970 C   0  0  0  0  0  0
  -28.0114  -12.3684   18.6145 C   0  0  0  0  0  0
  -27.6600  -13.2060   19.8732 C   0  0  2  0  0  0
  -28.7018  -12.9757   20.9891 C   0  0  0  0  0  0
  -25.2580  -13.8160   20.5681 C   0  0  0  0  0  0
  -24.1827  -13.0434   20.9155 C   0  0  0  0  0  0
  -24.6383  -11.6902   20.8720 C   0  0  0  0  0  0
  -23.9051  -10.4290   21.0396 C   0  0  0  0  0  0
  -24.3608   -9.4208   21.9178 C   0  0  0  0  0  0
  -23.6286   -8.2243   22.0753 C   0  0  0  0  0  0
  -22.4268   -8.0278   21.3543 C   0  0  0  0  0  0
  -21.9900   -9.0248   20.4644 C   0  0  0  0  0  0
  -22.7225  -10.2128   20.3048 C   0  0  0  0  0  0
  -21.6852   -6.0731   22.5277 C   0  0  0  0  0  0
  -21.4013   -6.5638   23.8210 C   0  0  0  0  0  0
  -21.3658   -5.6791   24.9173 C   0  0  0  0  0  0
  -21.6045   -4.3053   24.7224 C   0  0  0  0  0  0
  -21.8820   -3.8144   23.4346 C   0  0  0  0  0  0
  -21.9194   -4.6959   22.3402 C   0  0  0  0  0  0
  -22.7852  -13.5234   21.1832 C   0  0  0  0  0  0
  -22.1662   -4.2145   21.0979 F   0  0  0  0  0  0
  -21.5629   -3.4537   25.7737 F   0  0  0  0  0  0
  -30.0305  -13.2924   20.4364 N   0  0  0  0  0  0
  -26.3016  -12.9328   20.3365 N   0  0  0  0  0  0
  -25.9310  -11.6486   20.5757 N   0  0  0  0  0  0
  -22.0499  -12.8226   22.0395 N   0  0  0  0  0  0
  -25.4314  -15.1880   20.4146 N   0  0  0  0  0  0
  -31.8220  -14.6670   20.1187 O   0  0  0  0  0  0
  -21.6638   -6.8872   21.4239 O   0  0  0  0  0  0
  -22.3533  -14.5542   20.6691 O   0  0  0  0  0  0
  -24.6142  -31.8670   23.2080 C   0  0  0  0  0  0
  -25.9033  -32.4817   23.8381 C   0  0  1  0  0  0
  -27.2370  -27.4325   20.1031 C   0  0  0  0  0  0
  -25.5889  -33.8615   24.2315 N   0  0  0  0  0  0
  -23.4022  -30.4887   21.5488 C   0  0  2  0  0  0
  -24.8491  -28.9481   20.1186 C   0  0  0  0  0  0
  -22.7406  -29.4654   22.4993 C   0  0  0  0  0  0
  -18.0270  -28.1376   22.8496 C   0  0  0  0  0  0
  -24.1485  -36.7310   23.2640 C   0  0  0  0  0  0
  -25.9296  -30.8337   21.3583 C   0  0  0  0  0  0
  -26.0089  -29.4663   20.7086 C   0  0  0  0  0  0
  -27.2079  -28.7183   20.6904 C   0  0  0  0  0  0
  -26.0607  -26.9223   19.5146 C   0  0  0  0  0  0
  -24.8699  -27.6759   19.5180 C   0  0  0  0  0  0
  -23.6106  -29.8155   20.1655 C   0  0  0  0  0  0
  -25.4106  -36.3107   24.0339 C   0  0  1  0  0  0
  -20.5858  -28.3660   23.1323 C   0  0  2  0  0  0
  -20.6759  -26.9399   22.5420 C   0  0  0  0  0  0
  -19.5741  -26.6385   21.5213 C   0  0  0  0  0  0
  -18.1918  -26.7924   22.1622 C   0  0  0  0  0  0
  -19.1518  -28.8834   23.2908 C   0  0  0  0  0  0
  -18.9448  -30.1441   23.8917 C   0  0  0  0  0  0
  -17.6453  -30.6585   24.0568 C   0  0  0  0  0  0
  -25.9032  -34.9474   23.5126 C   0  0  0  0  0  0
  -16.5343  -29.9090   23.6325 C   0  0  0  0  0  0
  -16.7259  -28.6505   23.0348 C   0  0  0  0  0  0
  -26.4467  -31.6597   25.0709 C   0  0  0  0  0  0
  -25.3740  -31.3702   26.1464 C   0  0  0  0  0  0
  -27.0295  -30.3043   24.6069 C   0  0  0  0  0  0
  -27.6042  -32.4316   25.7473 C   0  0  0  0  0  0
  -27.5579  -37.1808   24.8466 C   0  0  0  0  0  0
  -21.4133  -29.3028   22.3731 N   0  0  0  0  0  0
  -26.4292  -37.3790   23.9411 N   0  0  0  0  0  0
  -24.6672  -31.0774   22.0974 N   0  0  0  0  0  0
  -23.4179  -28.8203   23.3040 O   0  0  0  0  0  0
  -28.4129  -26.7157   20.0774 O   0  0  0  0  0  0
  -26.5597  -34.8929   22.4689 O   0  0  0  0  0  0
  -23.5335  -32.1417   23.7479 O   0  0  0  0  0  0
  -31.2155  -18.6398   20.3718 C   0  0  0  0  0  0
  -30.9485  -19.8959   19.7906 C   0  0  0  0  0  0
  -28.6817  -19.8134   20.6494 C   0  0  0  0  0  0
  -30.2308  -17.9541   21.1137 C   0  0  0  0  0  0
  -29.6760  -20.5072   19.9160 C   0  0  0  0  0  0
  -28.9492  -18.5530   21.2419 C   0  0  0  0  0  0
  -29.7769  -22.0584   18.0407 C   0  0  0  0  0  0
  -29.7627  -23.4959   17.5038 C   0  0  0  0  0  0
  -29.7324  -24.5641   18.6000 C   0  0  0  0  0  0
  -28.8384  -22.8590   20.2123 C   0  0  0  0  0  0
  -28.5905  -24.2600   19.5683 C   0  0  1  0  0  0
  -30.6330  -16.6553   21.8346 C   0  0  0  0  0  0
  -28.3902  -25.3842   20.6224 C   0  0  0  0  0  0
  -29.4215  -21.8067   19.3340 N   0  0  0  0  0  0
  -27.9361  -17.9297   21.9702 N   0  0  0  0  0  0
  -30.0675  -15.3991   21.3239 N   0  0  0  0  0  0
  -30.0962  -21.1697   17.2426 O   0  0  0  0  0  0
  -31.4651  -12.4302   19.1010 H   0  0  0  0  0  0
  -30.3377  -11.3040   19.8004 H   0  0  0  0  0  0
  -29.7272  -11.7883   17.4167 H   0  0  0  0  0  0
  -29.6514  -13.4984   17.7594 H   0  0  0  0  0  0
  -27.8243  -11.3118   18.8102 H   0  0  0  0  0  0
  -27.3571  -12.6423   17.7861 H   0  0  0  0  0  0
  -27.7072  -14.2559   19.5824 H   0  0  0  0  0  0
  -28.6826  -11.9347   21.3149 H   0  0  0  0  0  0
  -28.4549  -13.5577   21.8776 H   0  0  0  0  0  0
  -25.2754   -9.5688   22.4750 H   0  0  0  0  0  0
  -23.9996   -7.4637   22.7473 H   0  0  0  0  0  0
  -21.0831   -8.8762   19.8952 H   0  0  0  0  0  0
  -22.3681  -10.9663   19.6154 H   0  0  0  0  0  0
  -21.2004   -7.6146   23.9711 H   0  0  0  0  0  0
  -21.1480   -6.0522   25.9075 H   0  0  0  0  0  0
  -22.0602   -2.7605   23.2847 H   0  0  0  0  0  0
  -22.4113  -11.9881   22.4771 H   0  0  0  0  0  0
  -21.1119  -13.1254   22.2609 H   0  0  0  0  0  0
  -24.6769  -15.8497   20.5589 H   0  0  0  0  0  0
  -26.3104  -15.6387   20.1887 H   0  0  0  0  0  0
  -26.7108  -32.5530   23.1150 H   0  0  0  0  0  0
  -25.0056  -33.9779   25.0470 H   0  0  0  0  0  0
  -22.6911  -31.3051   21.4071 H   0  0  0  0  0  0
  -23.3744  -35.9646   23.3314 H   0  0  0  0  0  0
  -24.3580  -36.8910   22.2051 H   0  0  0  0  0  0
  -23.7241  -37.6521   23.6645 H   0  0  0  0  0  0
  -26.0375  -31.5983   20.5877 H   0  0  0  0  0  0
  -26.8189  -30.8906   21.9743 H   0  0  0  0  0  0
  -28.1080  -29.1185   21.1359 H   0  0  0  0  0  0
  -26.0651  -25.9497   19.0446 H   0  0  0  0  0  0
  -23.9782  -27.2713   19.0591 H   0  0  0  0  0  0
  -23.7182  -30.5878   19.4030 H   0  0  0  0  0  0
  -22.7350  -29.2337   19.8720 H   0  0  0  0  0  0
  -25.1283  -36.1971   25.0831 H   0  0  0  0  0  0
  -20.9948  -28.3222   24.1444 H   0  0  0  0  0  0
  -20.5658  -26.2268   23.3604 H   0  0  0  0  0  0
  -21.6630  -26.7444   22.1212 H   0  0  0  0  0  0
  -19.6908  -25.6301   21.1229 H   0  0  0  0  0  0
  -19.6686  -27.3208   20.6755 H   0  0  0  0  0  0
  -17.4191  -26.6679   21.4021 H   0  0  0  0  0  0
  -18.0319  -26.0060   22.9010 H   0  0  0  0  0  0
  -19.7928  -30.7248   24.2294 H   0  0  0  0  0  0
  -17.5013  -31.6268   24.5164 H   0  0  0  0  0  0
  -15.5346  -30.3001   23.7641 H   0  0  0  0  0  0
  -15.8657  -28.0834   22.7050 H   0  0  0  0  0  0
  -24.5905  -30.7057   25.7806 H   0  0  0  0  0  0
  -24.8942  -32.2860   26.4929 H   0  0  0  0  0  0
  -25.8097  -30.8862   27.0213 H   0  0  0  0  0  0
  -26.2834  -29.6809   24.1130 H   0  0  0  0  0  0
  -27.4088  -29.7271   25.4511 H   0  0  0  0  0  0
  -27.8656  -30.4373   23.9197 H   0  0  0  0  0  0
  -27.2659  -33.3604   26.2079 H   0  0  0  0  0  0
  -28.3839  -32.6894   25.0294 H   0  0  0  0  0  0
  -28.0726  -31.8425   26.5369 H   0  0  0  0  0  0
  -28.2601  -38.0101   24.7504 H   0  0  0  0  0  0
  -28.1067  -36.2631   24.6296 H   0  0  0  0  0  0
  -27.2300  -37.1462   25.8871 H   0  0  0  0  0  0
  -20.9290  -29.8755   21.6961 H   0  0  0  0  0  0
  -26.0181  -38.2868   24.1409 H   0  0  0  0  0  0
  -32.2043  -18.2151   20.2679 H   0  0  0  0  0  0
  -31.7435  -20.3946   19.2530 H   0  0  0  0  0  0
  -27.6998  -20.2517   20.7569 H   0  0  0  0  0  0
  -28.8898  -23.6019   16.8591 H   0  0  0  0  0  0
  -30.6361  -23.6464   16.8688 H   0  0  0  0  0  0
  -29.5977  -25.5440   18.1405 H   0  0  0  0  0  0
  -30.6855  -24.5955   19.1304 H   0  0  0  0  0  0
  -27.8996  -22.5049   20.6380 H   0  0  0  0  0  0
  -29.5243  -22.9718   21.0530 H   0  0  0  0  0  0
  -27.6729  -24.2031   18.9807 H   0  0  0  0  0  0
  -30.3302  -16.7483   22.8779 H   0  0  0  0  0  0
  -31.7217  -16.5849   21.8710 H   0  0  0  0  0  0
  -29.2057  -25.3402   21.3449 H   0  0  0  0  0  0
  -27.4814  -25.2005   21.1989 H   0  0  0  0  0  0
  -27.1248  -18.4748   22.2430 H   0  0  0  0  0  0
  -28.1847  -17.2281   22.6575 H   0  0  0  0  0  0
  -29.1347  -15.1682   21.6290 H   0  0  0  0  0  0
  1 25  1  0  0  0
  1 30  2  0  0  0
  1 86  1  0  0  0
  2  3  1  0  0  0
  2 25  1  0  0  0
  2 88  1  0  0  0
  2 89  1  0  0  0
  3  4  1  0  0  0
  3 90  1  0  0  0
  3 91  1  0  0  0
  4  5  1  0  0  0
  4 92  1  0  0  0
  4 93  1  0  0  0
  5  6  1  0  0  0
  5 26  1  0  0  0
  5 94  1  0  0  0
  6 25  1  0  0  0
  6 95  1  0  0  0
  6 96  1  0  0  0
  7  8  2  0  0  0
  7 26  1  0  0  0
  7 29  1  0  0  0
  8  9  1  0  0  0
  8 22  1  0  0  0
  9 10  1  0  0  0
  9 27  2  0  0  0
 10 11  2  0  0  0
 10 15  1  0  0  0
 11 12  1  0  0  0
 11 97  1  0  0  0
 12 13  2  0  0  0
 12 98  1  0  0  0
 13 14  1  0  0  0
 13 31  1  0  0  0
 14 15  2  0  0  0
 14 99  1  0  0  0
 15100  1  0  0  0
 16 17  2  0  0  0
 16 21  1  0  0  0
 16 31  1  0  0  0
 17 18  1  0  0  0
 17101  1  0  0  0
 18 19  2  0  0  0
 18102  1  0  0  0
 19 20  1  0  0  0
 19 24  1  0  0  0
 20 21  2  0  0  0
 20103  1  0  0  0
 21 23  1  0  0  0
 22 28  1  0  0  0
 22 32  2  0  0  0
 26 27  1  0  0  0
 28104  1  0  0  0
 28105  1  0  0  0
 29106  1  0  0  0
 29107  1  0  0  0
 33 34  1  0  0  0
 33 66  1  0  0  0
 33 70  2  0  0  0
 34 36  1  0  0  0
 34 59  1  0  0  0
 34108  1  0  0  0
 35 44  2  0  0  0
 35 45  1  0  0  0
 35 68  1  0  0  0
 36 56  1  0  0  0
 36109  1  0  0  0
 37 39  1  0  0  0
 37 47  1  0  0  0
 37 66  1  0  0  0
 37110  1  0  0  0
 38 43  2  0  0  0
 38 46  1  0  0  0
 38 47  1  0  0  0
 39 64  1  0  0  0
 39 67  2  0  0  0
 40 52  1  0  0  0
 40 53  2  0  0  0
 40 58  1  0  0  0
 41111  1  0  0  0
 41112  1  0  0  0
 41113  1  0  0  0
 41 48  1  0  0  0
 42 43  1  0  0  0
 42 66  1  0  0  0
 42114  1  0  0  0
 42115  1  0  0  0
 43 44  1  0  0  0
 44116  1  0  0  0
 45 46  2  0  0  0
 45117  1  0  0  0
 46118  1  0  0  0
 47119  1  0  0  0
 47120  1  0  0  0
 48 56  1  0  0  0
 48 65  1  0  0  0
 48121  1  0  0  0
 49 50  1  0  0  0
 49 53  1  0  0  0
 49 64  1  0  0  0
 49122  1  0  0  0
 50 51  1  0  0  0
 50123  1  0  0  0
 50124  1  0  0  0
 51 52  1  0  0  0
 51125  1  0  0  0
 51126  1  0  0  0
 52127  1  0  0  0
 52128  1  0  0  0
 53 54  1  0  0  0
 54 55  2  0  0  0
 54129  1  0  0  0
 55 57  1  0  0  0
 55130  1  0  0  0
 56 69  2  0  0  0
 57 58  2  0  0  0
 57131  1  0  0  0
 58132  1  0  0  0
 59 60  1  0  0  0
 59 61  1  0  0  0
 59 62  1  0  0  0
 60133  1  0  0  0
 60134  1  0  0  0
 60135  1  0  0  0
 61136  1  0  0  0
 61137  1  0  0  0
 61138  1  0  0  0
 62139  1  0  0  0
 62140  1  0  0  0
 62141  1  0  0  0
 63 65  1  0  0  0
 63142  1  0  0  0
 63143  1  0  0  0
 63144  1  0  0  0
 64145  1  0  0  0
 65146  1  0  0  0
 68 83  1  0  0  0
 71 72  2  0  0  0
 71 74  1  0  0  0
 71147  1  0  0  0
 72 75  1  0  0  0
 72148  1  0  0  0
 73 75  2  0  0  0
 73 76  1  0  0  0
 73149  1  0  0  0
 74 76  2  0  0  0
 74 82  1  0  0  0
 75 84  1  0  0  0
 76 85  1  0  0  0
 77 78  1  0  0  0
 77 84  1  0  0  0
 77 87  2  0  0  0
 78 79  1  0  0  0
 78150  1  0  0  0
 78151  1  0  0  0
 79 81  1  0  0  0
 79152  1  0  0  0
 79153  1  0  0  0
 80 81  1  0  0  0
 80 84  1  0  0  0
 80154  1  0  0  0
 80155  1  0  0  0
 81 83  1  0  0  0
 81156  1  0  0  0
 82 86  1  0  0  0
 82157  1  0  0  0
 82158  1  0  0  0
 83159  1  0  0  0
 83160  1  0  0  0
 85161  1  0  0  0
 85162  1  0  0  0
 86163  1  0  0  0
M  ISO  4   1 100  68 101  83 101  86 100
M  END
> <chiral flag>
0

> <version>
0

> <s_m_source_file>
/data/baiqing/PycharmProjects/Reinvent-master-3.2/result/LINK_invent/BTK/process_docking_weight1_custom_product_contain_oxygen_bond_distance_aromatic_linkinvent_7_9_3/rearranged_h_0098.sdf

> <i_m_source_file_index>
40

> <r_mmod_Potential_Energy-OPLS-2005>
3.88760304450989

> <r_mmod_Stretch_Energy-OPLS-2005>
44.5821075439453

> <r_mmod_Bend_Energy-OPLS-2005>
108.251281738281

> <r_mmod_Torsional_Energy-OPLS-2005>
282.300506591797

> <r_mmod_Improper_Torsional_Energy-OPLS-2005>
5.25234842300415

> <r_mmod_Van_der_Waal_Energy-OPLS-2005>
161.777404785156

> <r_mmod_Electrostatic_Energy-OPLS-2005>
-379.547210693359

> <r_mmod_Solvation_Energy-OPLS-2005>
-229.750366210938

> <b_mmod_Minimization_Converged-OPLS-2005>
0

> <r_mmod_RMS_Derivative-OPLS-2005>
0.423417955636978

$$$$
40
                    3D
 Structure written by MMmdl.
155163  0  0  1  0            999 V2000
  -30.6651  -14.6582   20.5060 C   0  0  0  0  0  0
  -30.4314  -12.4113   19.4713 C   0  0  0  0  0  0
  -29.5086  -12.5147   18.2369 C   0  0  0  0  0  0
  -28.0294  -12.3703   18.6320 C   0  0  0  0  0  0
  -27.6541  -13.2298   19.8659 C   0  0  2  0  0  0
  -28.6963  -13.0830   20.9972 C   0  0  0  0  0  0
  -25.2562  -13.8230   20.5722 C   0  0  0  0  0  0
  -24.1811  -13.0453   20.9171 C   0  0  0  0  0  0
  -24.6384  -11.6948   20.8673 C   0  0  0  0  0  0
  -23.9066  -10.4320   21.0392 C   0  0  0  0  0  0
  -24.3634   -9.4241   21.9188 C   0  0  0  0  0  0
  -23.6312   -8.2258   22.0758 C   0  0  0  0  0  0
  -22.4288   -8.0278   21.3551 C   0  0  0  0  0  0
  -21.9922   -9.0259   20.4672 C   0  0  0  0  0  0
  -22.7225  -10.2146   20.3068 C   0  0  0  0  0  0
  -21.6854   -6.0733   22.5262 C   0  0  0  0  0  0
  -21.4035   -6.5645   23.8201 C   0  0  0  0  0  0
  -21.3676   -5.6801   24.9172 C   0  0  0  0  0  0
  -21.6020   -4.3052   24.7225 C   0  0  0  0  0  0
  -21.8816   -3.8142   23.4346 C   0  0  0  0  0  0
  -21.9213   -4.6962   22.3402 C   0  0  0  0  0  0
  -22.7829  -13.5223   21.1836 C   0  0  0  0  0  0
  -22.1658   -4.2159   21.0970 F   0  0  0  0  0  0
  -21.5650   -3.4533   25.7738 F   0  0  0  0  0  0
  -30.0115  -13.4455   20.4460 N   0  0  0  0  0  0
  -26.2999  -12.9419   20.3327 N   0  0  0  0  0  0
  -25.9327  -11.6574   20.5738 N   0  0  0  0  0  0
  -22.0444  -12.8267   22.0437 N   0  0  0  0  0  0
  -25.4269  -15.1937   20.4178 N   0  0  0  0  0  0
  -31.8025  -14.7748   20.0375 O   0  0  0  0  0  0
  -21.6639   -6.8870   21.4219 O   0  0  0  0  0  0
  -22.3531  -14.5517   20.6666 O   0  0  0  0  0  0
  -24.6314  -31.8558   23.2000 C   0  0  0  0  0  0
  -25.9138  -32.4750   23.8329 C   0  0  1  0  0  0
  -27.2193  -27.2860   20.1170 C   0  0  0  0  0  0
  -25.5935  -33.8541   24.2263 N   0  0  0  0  0  0
  -23.4243  -30.4799   21.5454 C   0  0  2  0  0  0
  -24.8684  -28.9336   20.1048 C   0  0  0  0  0  0
  -22.7474  -29.4616   22.4943 C   0  0  0  0  0  0
  -18.0280  -28.1383   22.8511 C   0  0  0  0  0  0
  -24.1465  -36.7275   23.2653 C   0  0  0  0  0  0
  -25.9669  -30.7769   21.3720 C   0  0  0  0  0  0
  -26.0385  -29.4001   20.7174 C   0  0  0  0  0  0
  -27.2161  -28.5886   20.7158 C   0  0  0  0  0  0
  -26.0298  -26.8941   19.4603 C   0  0  0  0  0  0
  -24.8706  -27.6884   19.4603 C   0  0  0  0  0  0
  -23.6355  -29.8130   20.1606 C   0  0  0  0  0  0
  -25.4093  -36.3069   24.0346 C   0  0  1  0  0  0
  -20.5885  -28.3686   23.1293 C   0  0  2  0  0  0
  -20.6749  -26.9400   22.5419 C   0  0  0  0  0  0
  -19.5723  -26.6373   21.5220 C   0  0  0  0  0  0
  -18.1909  -26.7927   22.1642 C   0  0  0  0  0  0
  -19.1535  -28.8849   23.2897 C   0  0  0  0  0  0
  -18.9463  -30.1468   23.8891 C   0  0  0  0  0  0
  -17.6464  -30.6588   24.0561 C   0  0  0  0  0  0
  -25.9055  -34.9445   23.5089 C   0  0  0  0  0  0
  -16.5355  -29.9086   23.6339 C   0  0  0  0  0  0
  -16.7274  -28.6500   23.0369 C   0  0  0  0  0  0
  -26.4525  -31.6581   25.0717 C   0  0  0  0  0  0
  -25.3767  -31.3704   26.1459 C   0  0  0  0  0  0
  -27.0355  -30.3018   24.6138 C   0  0  0  0  0  0
  -27.6058  -32.4339   25.7488 C   0  0  0  0  0  0
  -27.5556  -37.1790   24.8472 C   0  0  0  0  0  0
  -21.4190  -29.3033   22.3670 N   0  0  0  0  0  0
  -26.4251  -37.3787   23.9442 N   0  0  0  0  0  0
  -24.6940  -31.0545   22.0972 N   0  0  0  0  0  0
  -23.4180  -28.8137   23.3032 O   0  0  0  0  0  0
  -28.3147  -26.3977   20.1842 O   0  0  0  0  0  0
  -26.5620  -34.8946   22.4676 O   0  0  0  0  0  0
  -23.5490  -32.1337   23.7369 O   0  0  0  0  0  0
  -29.9371  -17.1721   18.8545 C   0  0  0  0  0  0
  -29.8555  -18.3202   18.0420 C   0  0  0  0  0  0
  -29.7489  -18.6058   20.8050 C   0  0  0  0  0  0
  -29.9033  -17.2591   20.2655 C   0  0  0  0  0  0
  -29.7308  -19.6122   18.5904 C   0  0  0  0  0  0
  -29.6579  -19.8052   19.9941 C   0  0  0  0  0  0
  -29.9546  -15.9486   21.1007 C   0  0  0  0  0  0
  -29.0809  -23.7810   20.4174 C   0  0  0  0  0  0
  -28.6436  -22.2457   20.1763 C   0  0  0  0  0  0
  -28.0677  -24.9411   19.9391 C   0  0  0  0  0  0
  -29.4889  -15.9510   22.2800 N   0  0  0  0  0  0
  -29.7659  -20.7051   17.7288 N   0  0  0  0  0  0
  -29.6216  -21.1466   20.5403 N   0  0  0  0  0  0
  -31.4742  -12.5149   19.1667 H   0  0  0  0  0  0
  -30.3583  -11.4187   19.9170 H   0  0  0  0  0  0
  -29.7671  -11.7445   17.5120 H   0  0  0  0  0  0
  -29.6627  -13.4728   17.7385 H   0  0  0  0  0  0
  -27.8444  -11.3173   18.8416 H   0  0  0  0  0  0
  -27.3850  -12.6268   17.7916 H   0  0  0  0  0  0
  -27.6708  -14.2701   19.5382 H   0  0  0  0  0  0
  -28.7168  -12.0531   21.3667 H   0  0  0  0  0  0
  -28.4187  -13.6854   21.8595 H   0  0  0  0  0  0
  -25.2784   -9.5700   22.4786 H   0  0  0  0  0  0
  -24.0035   -7.4642   22.7464 H   0  0  0  0  0  0
  -21.0869   -8.8753   19.8989 H   0  0  0  0  0  0
  -22.3666  -10.9693   19.6198 H   0  0  0  0  0  0
  -21.2008   -7.6152   23.9719 H   0  0  0  0  0  0
  -21.1513   -6.0525   25.9086 H   0  0  0  0  0  0
  -22.0592   -2.7605   23.2822 H   0  0  0  0  0  0
  -22.4085  -11.9980   22.4920 H   0  0  0  0  0  0
  -21.1047  -13.1337   22.2578 H   0  0  0  0  0  0
  -24.6710  -15.8536   20.5641 H   0  0  0  0  0  0
  -26.3022  -15.6414   20.1753 H   0  0  0  0  0  0
  -26.7215  -32.5409   23.1090 H   0  0  0  0  0  0
  -25.0075  -33.9652   25.0399 H   0  0  0  0  0  0
  -22.7236  -31.3058   21.4022 H   0  0  0  0  0  0
  -23.3733  -35.9598   23.3318 H   0  0  0  0  0  0
  -24.3558  -36.8879   22.2060 H   0  0  0  0  0  0
  -23.7189  -37.6475   23.6666 H   0  0  0  0  0  0
  -26.0881  -31.5323   20.5970 H   0  0  0  0  0  0
  -26.8543  -30.8371   21.9877 H   0  0  0  0  0  0
  -28.1111  -28.9339   21.2165 H   0  0  0  0  0  0
  -25.9636  -25.9499   18.9434 H   0  0  0  0  0  0
  -23.9816  -27.3290   18.9620 H   0  0  0  0  0  0
  -23.7435  -30.5843   19.3972 H   0  0  0  0  0  0
  -22.7574  -29.2321   19.8631 H   0  0  0  0  0  0
  -25.1266  -36.1903   25.0829 H   0  0  0  0  0  0
  -21.0005  -28.3254   24.1409 H   0  0  0  0  0  0
  -20.5599  -26.2302   23.3631 H   0  0  0  0  0  0
  -21.6622  -26.7372   22.1241 H   0  0  0  0  0  0
  -19.6850  -25.6275   21.1257 H   0  0  0  0  0  0
  -19.6649  -27.3182   20.6755 H   0  0  0  0  0  0
  -17.4165  -26.6710   21.4050 H   0  0  0  0  0  0
  -18.0302  -26.0051   22.9020 H   0  0  0  0  0  0
  -19.7943  -30.7294   24.2229 H   0  0  0  0  0  0
  -17.5021  -31.6267   24.5170 H   0  0  0  0  0  0
  -15.5360  -30.2980   23.7677 H   0  0  0  0  0  0
  -15.8679  -28.0819   22.7096 H   0  0  0  0  0  0
  -24.5949  -30.7035   25.7807 H   0  0  0  0  0  0
  -24.8967  -32.2853   26.4934 H   0  0  0  0  0  0
  -25.8143  -30.8856   27.0193 H   0  0  0  0  0  0
  -26.2895  -29.6784   24.1176 H   0  0  0  0  0  0
  -27.4092  -29.7269   25.4623 H   0  0  0  0  0  0
  -27.8771  -30.4359   23.9329 H   0  0  0  0  0  0
  -27.2646  -33.3645   26.2061 H   0  0  0  0  0  0
  -28.3881  -32.6883   25.0313 H   0  0  0  0  0  0
  -28.0722  -31.8446   26.5409 H   0  0  0  0  0  0
  -28.2587  -38.0087   24.7542 H   0  0  0  0  0  0
  -28.1039  -36.2605   24.6251 H   0  0  0  0  0  0
  -27.2295  -37.1396   25.8890 H   0  0  0  0  0  0
  -20.9364  -29.8781   21.6893 H   0  0  0  0  0  0
  -26.0120  -38.2847   24.1492 H   0  0  0  0  0  0
  -30.0372  -16.2191   18.3598 H   0  0  0  0  0  0
  -29.9306  -18.1992   16.9659 H   0  0  0  0  0  0
  -29.6997  -18.7265   21.8792 H   0  0  0  0  0  0
  -30.0417  -23.9507   19.9350 H   0  0  0  0  0  0
  -29.2575  -23.9099   21.4848 H   0  0  0  0  0  0
  -28.2969  -22.1361   19.1512 H   0  0  0  0  0  0
  -27.7583  -22.0637   20.7884 H   0  0  0  0  0  0
  -27.1059  -24.6820   20.3812 H   0  0  0  0  0  0
  -27.9516  -24.8174   18.8608 H   0  0  0  0  0  0
  -29.1227  -16.8608   22.5314 H   0  0  0  0  0  0
  -29.5498  -21.5841   18.1912 H   0  0  0  0  0  0
  -29.3200  -20.5964   16.8202 H   0  0  0  0  0  0
  -30.0481  -21.2521   21.4627 H   0  0  0  0  0  0
  1 25  1  0  0  0
  1 30  2  0  0  0
  1 77  1  0  0  0
  2  3  1  0  0  0
  2 25  1  0  0  0
  2 84  1  0  0  0
  2 85  1  0  0  0
  3  4  1  0  0  0
  3 86  1  0  0  0
  3 87  1  0  0  0
  4  5  1  0  0  0
  4 88  1  0  0  0
  4 89  1  0  0  0
  5  6  1  0  0  0
  5 26  1  0  0  0
  5 90  1  0  0  0
  6 25  1  0  0  0
  6 91  1  0  0  0
  6 92  1  0  0  0
  7  8  2  0  0  0
  7 26  1  0  0  0
  7 29  1  0  0  0
  8  9  1  0  0  0
  8 22  1  0  0  0
  9 10  1  0  0  0
  9 27  2  0  0  0
 10 11  2  0  0  0
 10 15  1  0  0  0
 11 12  1  0  0  0
 11 93  1  0  0  0
 12 13  2  0  0  0
 12 94  1  0  0  0
 13 14  1  0  0  0
 13 31  1  0  0  0
 14 15  2  0  0  0
 14 95  1  0  0  0
 15 96  1  0  0  0
 16 17  2  0  0  0
 16 21  1  0  0  0
 16 31  1  0  0  0
 17 18  1  0  0  0
 17 97  1  0  0  0
 18 19  2  0  0  0
 18 98  1  0  0  0
 19 20  1  0  0  0
 19 24  1  0  0  0
 20 21  2  0  0  0
 20 99  1  0  0  0
 21 23  1  0  0  0
 22 28  1  0  0  0
 22 32  2  0  0  0
 26 27  1  0  0  0
 28100  1  0  0  0
 28101  1  0  0  0
 29102  1  0  0  0
 29103  1  0  0  0
 33 34  1  0  0  0
 33 66  1  0  0  0
 33 70  2  0  0  0
 34 36  1  0  0  0
 34 59  1  0  0  0
 34104  1  0  0  0
 35 44  2  0  0  0
 35 45  1  0  0  0
 35 68  1  0  0  0
 36 56  1  0  0  0
 36105  1  0  0  0
 37 39  1  0  0  0
 37 47  1  0  0  0
 37 66  1  0  0  0
 37106  1  0  0  0
 38 43  2  0  0  0
 38 46  1  0  0  0
 38 47  1  0  0  0
 39 64  1  0  0  0
 39 67  2  0  0  0
 40 52  1  0  0  0
 40 53  2  0  0  0
 40 58  1  0  0  0
 41107  1  0  0  0
 41108  1  0  0  0
 41109  1  0  0  0
 41 48  1  0  0  0
 42 43  1  0  0  0
 42 66  1  0  0  0
 42110  1  0  0  0
 42111  1  0  0  0
 43 44  1  0  0  0
 44112  1  0  0  0
 45 46  2  0  0  0
 45113  1  0  0  0
 46114  1  0  0  0
 47115  1  0  0  0
 47116  1  0  0  0
 48 56  1  0  0  0
 48 65  1  0  0  0
 48117  1  0  0  0
 49 50  1  0  0  0
 49 53  1  0  0  0
 49 64  1  0  0  0
 49118  1  0  0  0
 50 51  1  0  0  0
 50119  1  0  0  0
 50120  1  0  0  0
 51 52  1  0  0  0
 51121  1  0  0  0
 51122  1  0  0  0
 52123  1  0  0  0
 52124  1  0  0  0
 53 54  1  0  0  0
 54 55  2  0  0  0
 54125  1  0  0  0
 55 57  1  0  0  0
 55126  1  0  0  0
 56 69  2  0  0  0
 57 58  2  0  0  0
 57127  1  0  0  0
 58128  1  0  0  0
 59 60  1  0  0  0
 59 61  1  0  0  0
 59 62  1  0  0  0
 60129  1  0  0  0
 60130  1  0  0  0
 60131  1  0  0  0
 61132  1  0  0  0
 61133  1  0  0  0
 61134  1  0  0  0
 62135  1  0  0  0
 62136  1  0  0  0
 62137  1  0  0  0
 63 65  1  0  0  0
 63138  1  0  0  0
 63139  1  0  0  0
 63140  1  0  0  0
 64141  1  0  0  0
 65142  1  0  0  0
 68 80  1  0  0  0
 71 72  2  0  0  0
 71 74  1  0  0  0
 71143  1  0  0  0
 72 75  1  0  0  0
 72144  1  0  0  0
 73 74  2  0  0  0
 73 76  1  0  0  0
 73145  1  0  0  0
 74 77  1  0  0  0
 75 76  2  0  0  0
 75 82  1  0  0  0
 76 83  1  0  0  0
 77 81  2  0  0  0
 78 79  1  0  0  0
 78 80  1  0  0  0
 78146  1  0  0  0
 78147  1  0  0  0
 79 83  1  0  0  0
 79148  1  0  0  0
 79149  1  0  0  0
 80150  1  0  0  0
 80151  1  0  0  0
 81152  1  0  0  0
 82153  1  0  0  0
 82154  1  0  0  0
 83155  1  0  0  0
M  ISO  4   1 100  68 101  77 100  80 101
M  END
> <chiral flag>
0

> <version>
0

> <s_m_source_file>
/data/baiqing/PycharmProjects/Reinvent-master-3.2/result/LINK_invent/BTK/process_docking_weight1_custom_product_contain_oxygen_bond_distance_aromatic_linkinvent_7_9_3/rearranged_h_0098.sdf

> <i_m_source_file_index>
41

> <r_mmod_Potential_Energy-OPLS-2005>
175.705551147461

> <r_mmod_Stretch_Energy-OPLS-2005>
117.559158325195

> <r_mmod_Bend_Energy-OPLS-2005>
162.681655883789

> <r_mmod_Torsional_Energy-OPLS-2005>
214.80632019043

> <r_mmod_Improper_Torsional_Energy-OPLS-2005>
8.57986831665039

> <r_mmod_Van_der_Waal_Energy-OPLS-2005>
152.749252319336

> <r_mmod_Electrostatic_Energy-OPLS-2005>
-318.082305908203

> <r_mmod_Solvation_Energy-OPLS-2005>
-221.637680053711

> <b_mmod_Minimization_Converged-OPLS-2005>
0

> <r_mmod_RMS_Derivative-OPLS-2005>
7.90506792068481

$$$$
41
                    3D
 Structure written by MMmdl.
155163  0  0  1  0            999 V2000
  -30.7479  -14.4836   20.5472 C   0  0  0  0  0  0
  -30.4017  -12.3124   19.4293 C   0  0  0  0  0  0
  -29.4864  -12.4874   18.2039 C   0  0  0  0  0  0
  -28.0104  -12.3507   18.6215 C   0  0  0  0  0  0
  -27.6507  -13.2177   19.8591 C   0  0  2  0  0  0
  -28.6967  -13.0670   20.9865 C   0  0  0  0  0  0
  -25.2556  -13.8187   20.5695 C   0  0  0  0  0  0
  -24.1829  -13.0448   20.9207 C   0  0  0  0  0  0
  -24.6395  -11.6918   20.8748 C   0  0  0  0  0  0
  -23.9062  -10.4297   21.0409 C   0  0  0  0  0  0
  -24.3621   -9.4214   21.9184 C   0  0  0  0  0  0
  -23.6301   -8.2245   22.0752 C   0  0  0  0  0  0
  -22.4279   -8.0285   21.3547 C   0  0  0  0  0  0
  -21.9913   -9.0256   20.4648 C   0  0  0  0  0  0
  -22.7237  -10.2136   20.3059 C   0  0  0  0  0  0
  -21.6856   -6.0737   22.5281 C   0  0  0  0  0  0
  -21.4013   -6.5640   23.8214 C   0  0  0  0  0  0
  -21.3661   -5.6794   24.9177 C   0  0  0  0  0  0
  -21.6049   -4.3056   24.7228 C   0  0  0  0  0  0
  -21.8819   -3.8149   23.4348 C   0  0  0  0  0  0
  -21.9195   -4.6965   22.3405 C   0  0  0  0  0  0
  -22.7850  -13.5239   21.1863 C   0  0  0  0  0  0
  -22.1663   -4.2151   21.0982 F   0  0  0  0  0  0
  -21.5630   -3.4541   25.7741 F   0  0  0  0  0  0
  -30.0164  -13.3434   20.4072 N   0  0  0  0  0  0
  -26.2981  -12.9377   20.3323 N   0  0  0  0  0  0
  -25.9323  -11.6527   20.5770 N   0  0  0  0  0  0
  -22.0489  -12.8222   22.0410 N   0  0  0  0  0  0
  -25.4259  -15.1908   20.4092 N   0  0  0  0  0  0
  -31.9157  -14.5329   20.1515 O   0  0  0  0  0  0
  -21.6647   -6.8880   21.4243 O   0  0  0  0  0  0
  -22.3537  -14.5548   20.6716 O   0  0  0  0  0  0
  -24.6152  -31.8673   23.2092 C   0  0  0  0  0  0
  -25.9046  -32.4818   23.8386 C   0  0  1  0  0  0
  -27.2239  -27.4239   20.1050 C   0  0  0  0  0  0
  -25.5899  -33.8617   24.2316 N   0  0  0  0  0  0
  -23.4018  -30.4923   21.5497 C   0  0  2  0  0  0
  -24.8455  -28.9545   20.1156 C   0  0  0  0  0  0
  -22.7405  -29.4666   22.4985 C   0  0  0  0  0  0
  -18.0269  -28.1370   22.8495 C   0  0  0  0  0  0
  -24.1485  -36.7317   23.2636 C   0  0  0  0  0  0
  -25.9310  -30.8327   21.3604 C   0  0  0  0  0  0
  -26.0074  -29.4668   20.7065 C   0  0  0  0  0  0
  -27.2028  -28.7120   20.6896 C   0  0  0  0  0  0
  -26.0454  -26.9248   19.5117 C   0  0  0  0  0  0
  -24.8599  -27.6837   19.5142 C   0  0  0  0  0  0
  -23.6092  -29.8241   20.1642 C   0  0  0  0  0  0
  -25.4105  -36.3109   24.0333 C   0  0  1  0  0  0
  -20.5861  -28.3657   23.1311 C   0  0  2  0  0  0
  -20.6759  -26.9395   22.5411 C   0  0  0  0  0  0
  -19.5739  -26.6380   21.5208 C   0  0  0  0  0  0
  -18.1918  -26.7915   22.1622 C   0  0  0  0  0  0
  -19.1520  -28.8831   23.2901 C   0  0  0  0  0  0
  -18.9454  -30.1439   23.8909 C   0  0  0  0  0  0
  -17.6459  -30.6580   24.0565 C   0  0  0  0  0  0
  -25.9034  -34.9473   23.5121 C   0  0  0  0  0  0
  -16.5348  -29.9083   23.6326 C   0  0  0  0  0  0
  -16.7261  -28.6498   23.0352 C   0  0  0  0  0  0
  -26.4469  -31.6604   25.0722 C   0  0  0  0  0  0
  -25.3739  -31.3720   26.1477 C   0  0  0  0  0  0
  -27.0300  -30.3045   24.6105 C   0  0  0  0  0  0
  -27.6038  -32.4328   25.7492 C   0  0  0  0  0  0
  -27.5579  -37.1809   24.8462 C   0  0  0  0  0  0
  -21.4134  -29.3033   22.3724 N   0  0  0  0  0  0
  -26.4288  -37.3796   23.9411 N   0  0  0  0  0  0
  -24.6679  -31.0776   22.0987 N   0  0  0  0  0  0
  -23.4181  -28.8209   23.3026 O   0  0  0  0  0  0
  -28.3884  -26.6868   20.1083 O   0  0  0  0  0  0
  -26.5600  -34.8930   22.4686 O   0  0  0  0  0  0
  -23.5346  -32.1428   23.7489 O   0  0  0  0  0  0
  -30.7722  -19.1213   20.3157 C   0  0  0  0  0  0
  -30.2321  -20.3983   20.0707 C   0  0  0  0  0  0
  -28.6439  -18.3537   21.1863 C   0  0  0  0  0  0
  -29.9966  -18.0839   20.8811 C   0  0  0  0  0  0
  -28.1023  -19.6450   20.9507 C   0  0  0  0  0  0
  -28.8855  -20.6929   20.3971 C   0  0  0  0  0  0
  -30.6874  -16.7810   21.2160 C   0  0  0  0  0  0
  -28.4005  -24.3193   19.3128 C   0  0  0  0  0  0
  -28.2979  -25.3023   20.5039 C   0  0  0  0  0  0
  -29.1140  -22.9698   19.5961 C   0  0  0  0  0  0
  -26.7746  -19.9025   21.2814 N   0  0  0  0  0  0
  -30.0837  -15.6068   20.9161 N   0  0  0  0  0  0
  -31.8262  -16.8564   21.6950 O   0  0  0  0  0  0
  -28.3087  -21.9490   20.2090 O   0  0  0  0  0  0
  -31.4485  -12.3741   19.1279 H   0  0  0  0  0  0
  -30.2790  -11.3193   19.8642 H   0  0  0  0  0  0
  -29.7293  -11.7444   17.4430 H   0  0  0  0  0  0
  -29.6573  -13.4633   17.7463 H   0  0  0  0  0  0
  -27.8292  -11.2980   18.8421 H   0  0  0  0  0  0
  -27.3578  -12.5996   17.7842 H   0  0  0  0  0  0
  -27.6745  -14.2547   19.5245 H   0  0  0  0  0  0
  -28.6783  -12.0572   21.3989 H   0  0  0  0  0  0
  -28.4706  -13.7371   21.8175 H   0  0  0  0  0  0
  -25.2763   -9.5694   22.4762 H   0  0  0  0  0  0
  -24.0015   -7.4635   22.7467 H   0  0  0  0  0  0
  -21.0845   -8.8778   19.8949 H   0  0  0  0  0  0
  -22.3697  -10.9682   19.6175 H   0  0  0  0  0  0
  -21.1999   -7.6148   23.9720 H   0  0  0  0  0  0
  -21.1485   -6.0522   25.9080 H   0  0  0  0  0  0
  -22.0595   -2.7612   23.2852 H   0  0  0  0  0  0
  -22.4108  -11.9884   22.4800 H   0  0  0  0  0  0
  -21.1107  -13.1253   22.2617 H   0  0  0  0  0  0
  -24.6546  -15.8404   20.5152 H   0  0  0  0  0  0
  -26.2651  -15.6286   20.0523 H   0  0  0  0  0  0
  -26.7117  -32.5522   23.1148 H   0  0  0  0  0  0
  -25.0062  -33.9782   25.0469 H   0  0  0  0  0  0
  -22.6910  -31.3099   21.4112 H   0  0  0  0  0  0
  -23.3746  -35.9651   23.3297 H   0  0  0  0  0  0
  -24.3583  -36.8937   22.2052 H   0  0  0  0  0  0
  -23.7236  -37.6519   23.6658 H   0  0  0  0  0  0
  -26.0449  -31.6002   20.5929 H   0  0  0  0  0  0
  -26.8182  -30.8841   21.9802 H   0  0  0  0  0  0
  -28.1029  -29.1061   21.1409 H   0  0  0  0  0  0
  -26.0357  -25.9529   19.0416 H   0  0  0  0  0  0
  -23.9653  -27.2833   19.0572 H   0  0  0  0  0  0
  -23.7190  -30.5995   19.4052 H   0  0  0  0  0  0
  -22.7322  -29.2461   19.8665 H   0  0  0  0  0  0
  -25.1280  -36.1968   25.0825 H   0  0  0  0  0  0
  -20.9957  -28.3221   24.1429 H   0  0  0  0  0  0
  -20.5653  -26.2272   23.3601 H   0  0  0  0  0  0
  -21.6631  -26.7432   22.1212 H   0  0  0  0  0  0
  -19.6899  -25.6296   21.1225 H   0  0  0  0  0  0
  -19.6669  -27.3200   20.6747 H   0  0  0  0  0  0
  -17.4187  -26.6665   21.4025 H   0  0  0  0  0  0
  -18.0325  -26.0047   22.9012 H   0  0  0  0  0  0
  -19.7936  -30.7247   24.2280 H   0  0  0  0  0  0
  -17.5019  -31.6262   24.5164 H   0  0  0  0  0  0
  -15.5352  -30.2994   23.7638 H   0  0  0  0  0  0
  -15.8661  -28.0820   22.7062 H   0  0  0  0  0  0
  -24.5921  -30.7044   25.7837 H   0  0  0  0  0  0
  -24.8923  -32.2880   26.4910 H   0  0  0  0  0  0
  -25.8103  -30.8919   27.0246 H   0  0  0  0  0  0
  -26.2845  -29.6813   24.1153 H   0  0  0  0  0  0
  -27.4060  -29.7274   25.4564 H   0  0  0  0  0  0
  -27.8683  -30.4361   23.9259 H   0  0  0  0  0  0
  -27.2650  -33.3629   26.2068 H   0  0  0  0  0  0
  -28.3854  -32.6886   25.0326 H   0  0  0  0  0  0
  -28.0697  -31.8455   26.5414 H   0  0  0  0  0  0
  -28.2592  -38.0113   24.7526 H   0  0  0  0  0  0
  -28.1078  -36.2645   24.6261 H   0  0  0  0  0  0
  -27.2303  -37.1429   25.8867 H   0  0  0  0  0  0
  -20.9292  -29.8770   21.6960 H   0  0  0  0  0  0
  -26.0175  -38.2871   24.1426 H   0  0  0  0  0  0
  -31.8116  -18.9425   20.0747 H   0  0  0  0  0  0
  -30.8913  -21.1386   19.6430 H   0  0  0  0  0  0
  -28.0375  -17.5811   21.6384 H   0  0  0  0  0  0
  -28.9868  -24.8214   18.5428 H   0  0  0  0  0  0
  -27.4233  -24.1435   18.8656 H   0  0  0  0  0  0
  -29.1352  -25.1321   21.1807 H   0  0  0  0  0  0
  -27.4034  -25.0970   21.0952 H   0  0  0  0  0  0
  -30.0065  -23.1557   20.1955 H   0  0  0  0  0  0
  -29.4545  -22.5854   18.6332 H   0  0  0  0  0  0
  -26.1273  -19.1225   21.3278 H   0  0  0  0  0  0
  -26.3677  -20.7341   20.8634 H   0  0  0  0  0  0
  -29.0836  -15.6024   20.8299 H   0  0  0  0  0  0
  1 25  1  0  0  0
  1 30  2  0  0  0
  1 82  1  0  0  0
  2  3  1  0  0  0
  2 25  1  0  0  0
  2 85  1  0  0  0
  2 86  1  0  0  0
  3  4  1  0  0  0
  3 87  1  0  0  0
  3 88  1  0  0  0
  4  5  1  0  0  0
  4 89  1  0  0  0
  4 90  1  0  0  0
  5  6  1  0  0  0
  5 26  1  0  0  0
  5 91  1  0  0  0
  6 25  1  0  0  0
  6 92  1  0  0  0
  6 93  1  0  0  0
  7  8  2  0  0  0
  7 26  1  0  0  0
  7 29  1  0  0  0
  8  9  1  0  0  0
  8 22  1  0  0  0
  9 10  1  0  0  0
  9 27  2  0  0  0
 10 11  2  0  0  0
 10 15  1  0  0  0
 11 12  1  0  0  0
 11 94  1  0  0  0
 12 13  2  0  0  0
 12 95  1  0  0  0
 13 14  1  0  0  0
 13 31  1  0  0  0
 14 15  2  0  0  0
 14 96  1  0  0  0
 15 97  1  0  0  0
 16 17  2  0  0  0
 16 21  1  0  0  0
 16 31  1  0  0  0
 17 18  1  0  0  0
 17 98  1  0  0  0
 18 19  2  0  0  0
 18 99  1  0  0  0
 19 20  1  0  0  0
 19 24  1  0  0  0
 20 21  2  0  0  0
 20100  1  0  0  0
 21 23  1  0  0  0
 22 28  1  0  0  0
 22 32  2  0  0  0
 26 27  1  0  0  0
 28101  1  0  0  0
 28102  1  0  0  0
 29103  1  0  0  0
 29104  1  0  0  0
 33 34  1  0  0  0
 33 66  1  0  0  0
 33 70  2  0  0  0
 34 36  1  0  0  0
 34 59  1  0  0  0
 34105  1  0  0  0
 35 44  2  0  0  0
 35 45  1  0  0  0
 35 68  1  0  0  0
 36 56  1  0  0  0
 36106  1  0  0  0
 37 39  1  0  0  0
 37 47  1  0  0  0
 37 66  1  0  0  0
 37107  1  0  0  0
 38 43  2  0  0  0
 38 46  1  0  0  0
 38 47  1  0  0  0
 39 64  1  0  0  0
 39 67  2  0  0  0
 40 52  1  0  0  0
 40 53  2  0  0  0
 40 58  1  0  0  0
 41108  1  0  0  0
 41109  1  0  0  0
 41110  1  0  0  0
 41 48  1  0  0  0
 42 43  1  0  0  0
 42 66  1  0  0  0
 42111  1  0  0  0
 42112  1  0  0  0
 43 44  1  0  0  0
 44113  1  0  0  0
 45 46  2  0  0  0
 45114  1  0  0  0
 46115  1  0  0  0
 47116  1  0  0  0
 47117  1  0  0  0
 48 56  1  0  0  0
 48 65  1  0  0  0
 48118  1  0  0  0
 49 50  1  0  0  0
 49 53  1  0  0  0
 49 64  1  0  0  0
 49119  1  0  0  0
 50 51  1  0  0  0
 50120  1  0  0  0
 50121  1  0  0  0
 51 52  1  0  0  0
 51122  1  0  0  0
 51123  1  0  0  0
 52124  1  0  0  0
 52125  1  0  0  0
 53 54  1  0  0  0
 54 55  2  0  0  0
 54126  1  0  0  0
 55 57  1  0  0  0
 55127  1  0  0  0
 56 69  2  0  0  0
 57 58  2  0  0  0
 57128  1  0  0  0
 58129  1  0  0  0
 59 60  1  0  0  0
 59 61  1  0  0  0
 59 62  1  0  0  0
 60130  1  0  0  0
 60131  1  0  0  0
 60132  1  0  0  0
 61133  1  0  0  0
 61134  1  0  0  0
 61135  1  0  0  0
 62136  1  0  0  0
 62137  1  0  0  0
 62138  1  0  0  0
 63 65  1  0  0  0
 63139  1  0  0  0
 63140  1  0  0  0
 63141  1  0  0  0
 64142  1  0  0  0
 65143  1  0  0  0
 68 79  1  0  0  0
 71 72  2  0  0  0
 71 74  1  0  0  0
 71144  1  0  0  0
 72 76  1  0  0  0
 72145  1  0  0  0
 73 74  2  0  0  0
 73 75  1  0  0  0
 73146  1  0  0  0
 74 77  1  0  0  0
 75 76  2  0  0  0
 75 81  1  0  0  0
 76 84  1  0  0  0
 77 82  1  0  0  0
 77 83  2  0  0  0
 78 79  1  0  0  0
 78 80  1  0  0  0
 78147  1  0  0  0
 78148  1  0  0  0
 79149  1  0  0  0
 79150  1  0  0  0
 80 84  1  0  0  0
 80151  1  0  0  0
 80152  1  0  0  0
 81153  1  0  0  0
 81154  1  0  0  0
 82155  1  0  0  0
M  ISO  4   1 100  68 101  79 101  82 100
M  END
> <chiral flag>
0

> <version>
0

> <s_m_source_file>
/data/baiqing/PycharmProjects/Reinvent-master-3.2/result/LINK_invent/BTK/process_docking_weight1_custom_product_contain_oxygen_bond_distance_aromatic_linkinvent_7_9_3/rearranged_h_0098.sdf

> <i_m_source_file_index>
42

> <r_mmod_Potential_Energy-OPLS-2005>
-138.470733642578

> <r_mmod_Stretch_Energy-OPLS-2005>
40.3692016601562

> <r_mmod_Bend_Energy-OPLS-2005>
109.025825500488

> <r_mmod_Torsional_Energy-OPLS-2005>
257.484405517578

> <r_mmod_Improper_Torsional_Energy-OPLS-2005>
9.35019874572754

> <r_mmod_Van_der_Waal_Energy-OPLS-2005>
166.104782104492

> <r_mmod_Electrostatic_Energy-OPLS-2005>
-506.610992431641

> <r_mmod_Solvation_Energy-OPLS-2005>
-235.024475097656

> <b_mmod_Minimization_Converged-OPLS-2005>
0

> <r_mmod_RMS_Derivative-OPLS-2005>
1.03845739364624

$$$$
42
                    3D
 Structure written by MMmdl.
161170  0  0  1  0            999 V2000
  -30.7063  -14.4418   20.6266 C   0  0  0  0  0  0
  -30.4410  -12.3119   19.4071 C   0  0  0  0  0  0
  -29.5069  -12.5211   18.1974 C   0  0  0  0  0  0
  -28.0257  -12.3794   18.6084 C   0  0  0  0  0  0
  -27.6714  -13.2018   19.8768 C   0  0  2  0  0  0
  -28.7089  -12.9423   20.9912 C   0  0  0  0  0  0
  -25.2652  -13.8154   20.5675 C   0  0  0  0  0  0
  -24.1871  -13.0442   20.9136 C   0  0  0  0  0  0
  -24.6400  -11.6903   20.8690 C   0  0  0  0  0  0
  -23.9059  -10.4292   21.0380 C   0  0  0  0  0  0
  -24.3608   -9.4217   21.9175 C   0  0  0  0  0  0
  -23.6276   -8.2255   22.0767 C   0  0  0  0  0  0
  -22.4264   -8.0281   21.3563 C   0  0  0  0  0  0
  -21.9882   -9.0257   20.4673 C   0  0  0  0  0  0
  -22.7219  -10.2129   20.3051 C   0  0  0  0  0  0
  -21.6842   -6.0738   22.5286 C   0  0  0  0  0  0
  -21.4015   -6.5647   23.8225 C   0  0  0  0  0  0
  -21.3650   -5.6785   24.9182 C   0  0  0  0  0  0
  -21.6018   -4.3050   24.7230 C   0  0  0  0  0  0
  -21.8816   -3.8153   23.4351 C   0  0  0  0  0  0
  -21.9192   -4.6964   22.3409 C   0  0  0  0  0  0
  -22.7889  -13.5258   21.1783 C   0  0  0  0  0  0
  -22.1659   -4.2148   21.0990 F   0  0  0  0  0  0
  -21.5621   -3.4537   25.7754 F   0  0  0  0  0  0
  -30.0464  -13.2654   20.4551 N   0  0  0  0  0  0
  -26.3080  -12.9312   20.3329 N   0  0  0  0  0  0
  -25.9324  -11.6474   20.5684 N   0  0  0  0  0  0
  -22.0491  -12.8297   22.0342 N   0  0  0  0  0  0
  -25.4410  -15.1877   20.4194 N   0  0  0  0  0  0
  -31.7990  -14.6878   20.1070 O   0  0  0  0  0  0
  -21.6632   -6.8880   21.4251 O   0  0  0  0  0  0
  -22.3589  -14.5563   20.6625 O   0  0  0  0  0  0
  -24.6167  -31.8714   23.2146 C   0  0  0  0  0  0
  -25.9060  -32.4847   23.8426 C   0  0  1  0  0  0
  -27.2263  -27.4373   20.0718 C   0  0  0  0  0  0
  -25.5921  -33.8644   24.2360 N   0  0  0  0  0  0
  -23.4027  -30.5002   21.5567 C   0  0  2  0  0  0
  -24.8443  -28.9783   20.1157 C   0  0  0  0  0  0
  -22.7418  -29.4677   22.4995 C   0  0  0  0  0  0
  -18.0271  -28.1398   22.8490 C   0  0  0  0  0  0
  -24.1484  -36.7314   23.2632 C   0  0  0  0  0  0
  -25.9355  -30.8375   21.3686 C   0  0  0  0  0  0
  -26.0108  -29.4739   20.7109 C   0  0  0  0  0  0
  -27.2055  -28.7135   20.6855 C   0  0  0  0  0  0
  -26.0270  -26.9656   19.4770 C   0  0  0  0  0  0
  -24.8473  -27.7221   19.4974 C   0  0  0  0  0  0
  -23.6104  -29.8469   20.1673 C   0  0  0  0  0  0
  -25.4106  -36.3132   24.0339 C   0  0  1  0  0  0
  -20.5865  -28.3682   23.1321 C   0  0  2  0  0  0
  -20.6771  -26.9424   22.5420 C   0  0  0  0  0  0
  -19.5747  -26.6401   21.5222 C   0  0  0  0  0  0
  -18.1921  -26.7943   22.1626 C   0  0  0  0  0  0
  -19.1523  -28.8849   23.2908 C   0  0  0  0  0  0
  -18.9450  -30.1456   23.8928 C   0  0  0  0  0  0
  -17.6450  -30.6599   24.0576 C   0  0  0  0  0  0
  -25.9037  -34.9496   23.5146 C   0  0  0  0  0  0
  -16.5341  -29.9107   23.6326 C   0  0  0  0  0  0
  -16.7260  -28.6528   23.0338 C   0  0  0  0  0  0
  -26.4495  -31.6607   25.0739 C   0  0  0  0  0  0
  -25.3757  -31.3691   26.1485 C   0  0  0  0  0  0
  -27.0319  -30.3053   24.6082 C   0  0  0  0  0  0
  -27.6083  -32.4317   25.7494 C   0  0  0  0  0  0
  -27.5591  -37.1818   24.8471 C   0  0  0  0  0  0
  -21.4144  -29.3056   22.3737 N   0  0  0  0  0  0
  -26.4301  -37.3809   23.9419 N   0  0  0  0  0  0
  -24.6702  -31.0810   22.1052 N   0  0  0  0  0  0
  -23.4193  -28.8195   23.3018 O   0  0  0  0  0  0
  -28.3915  -26.6823   20.0710 O   0  0  0  0  0  0
  -26.5581  -34.8939   22.4702 O   0  0  0  0  0  0
  -23.5355  -32.1464   23.7527 O   0  0  0  0  0  0
  -31.3113  -18.8503   21.8278 C   0  0  0  0  0  0
  -31.2986  -17.4360   21.7924 C   0  0  0  0  0  0
  -29.1154  -18.8999   20.7727 C   0  0  0  0  0  0
  -30.2130  -19.5928   21.3320 C   0  0  0  0  0  0
  -30.1732  -16.7532   21.2788 C   0  0  0  0  0  0
  -29.0879  -17.4913   20.7644 C   0  0  0  0  0  0
  -30.1227  -21.0830   21.5466 C   0  0  0  0  0  0
  -31.2258  -23.0168   18.8325 C   0  0  0  0  0  0
  -30.2423  -24.2008   18.7876 C   0  0  0  0  0  0
  -30.4958  -21.7021   19.1718 C   0  0  0  0  0  0
  -28.8582  -22.9449   20.5216 C   0  0  0  0  0  0
  -29.4051  -24.3316   20.0819 C   0  0  2  0  0  0
  -28.1944  -25.2726   19.8779 C   0  0  0  0  0  0
  -29.8490  -21.8592   20.4749 N   0  0  0  0  0  0
  -30.0450  -15.3434   21.3670 N   0  0  0  0  0  0
  -30.1387  -21.5214   22.7009 O   0  0  0  0  0  0
  -27.9994  -16.8419   20.2829 F   0  0  0  0  0  0
  -31.4843  -12.4342   19.1062 H   0  0  0  0  0  0
  -30.3632  -11.2919   19.7848 H   0  0  0  0  0  0
  -29.7502  -11.8057   17.4107 H   0  0  0  0  0  0
  -29.6782  -13.5119   17.7699 H   0  0  0  0  0  0
  -27.8288  -11.3231   18.7907 H   0  0  0  0  0  0
  -27.3793  -12.6668   17.7799 H   0  0  0  0  0  0
  -27.7272  -14.2541   19.5990 H   0  0  0  0  0  0
  -28.6871  -11.8921   21.2859 H   0  0  0  0  0  0
  -28.4572  -13.4951   21.8967 H   0  0  0  0  0  0
  -25.2748   -9.5693   22.4753 H   0  0  0  0  0  0
  -23.9983   -7.4645   22.7485 H   0  0  0  0  0  0
  -21.0813   -8.8774   19.8993 H   0  0  0  0  0  0
  -22.3676  -10.9658   19.6159 H   0  0  0  0  0  0
  -21.2031   -7.6148   23.9729 H   0  0  0  0  0  0
  -21.1456   -6.0524   25.9082 H   0  0  0  0  0  0
  -22.0607   -2.7611   23.2858 H   0  0  0  0  0  0
  -22.4044  -11.9980   22.4808 H   0  0  0  0  0  0
  -21.1118  -13.1401   22.2493 H   0  0  0  0  0  0
  -24.6874  -15.8487   20.5693 H   0  0  0  0  0  0
  -26.3226  -15.6361   20.1897 H   0  0  0  0  0  0
  -26.7130  -32.5562   23.1190 H   0  0  0  0  0  0
  -25.0139  -33.9816   25.0551 H   0  0  0  0  0  0
  -22.6927  -31.3191   21.4244 H   0  0  0  0  0  0
  -23.3760  -35.9637   23.3303 H   0  0  0  0  0  0
  -24.3589  -36.8914   22.2050 H   0  0  0  0  0  0
  -23.7217  -37.6512   23.6638 H   0  0  0  0  0  0
  -26.0445  -31.6045   20.6003 H   0  0  0  0  0  0
  -26.8253  -30.8884   21.9841 H   0  0  0  0  0  0
  -28.1056  -29.0970   21.1462 H   0  0  0  0  0  0
  -25.9568  -26.0135   18.9763 H   0  0  0  0  0  0
  -23.9515  -27.3353   19.0315 H   0  0  0  0  0  0
  -23.7300  -30.6293   19.4171 H   0  0  0  0  0  0
  -22.7323  -29.2753   19.8616 H   0  0  0  0  0  0
  -25.1277  -36.2011   25.0826 H   0  0  0  0  0  0
  -20.9946  -28.3255   24.1445 H   0  0  0  0  0  0
  -20.5697  -26.2294   23.3605 H   0  0  0  0  0  0
  -21.6640  -26.7495   22.1202 H   0  0  0  0  0  0
  -19.6910  -25.6312   21.1254 H   0  0  0  0  0  0
  -19.6685  -27.3214   20.6752 H   0  0  0  0  0  0
  -17.4196  -26.6701   21.4023 H   0  0  0  0  0  0
  -18.0318  -26.0088   22.9024 H   0  0  0  0  0  0
  -19.7926  -30.7270   24.2320 H   0  0  0  0  0  0
  -17.5008  -31.6278   24.5191 H   0  0  0  0  0  0
  -15.5350  -30.3024   23.7627 H   0  0  0  0  0  0
  -15.8661  -28.0867   22.7021 H   0  0  0  0  0  0
  -24.5925  -30.7053   25.7808 H   0  0  0  0  0  0
  -24.8950  -32.2833   26.4970 H   0  0  0  0  0  0
  -25.8105  -30.8828   27.0223 H   0  0  0  0  0  0
  -26.2844  -29.6817   24.1159 H   0  0  0  0  0  0
  -27.4137  -29.7290   25.4521 H   0  0  0  0  0  0
  -27.8667  -30.4398   23.9196 H   0  0  0  0  0  0
  -27.2720  -33.3618   26.2094 H   0  0  0  0  0  0
  -28.3869  -32.6871   25.0292 H   0  0  0  0  0  0
  -28.0775  -31.8419   26.5380 H   0  0  0  0  0  0
  -28.2616  -38.0111   24.7526 H   0  0  0  0  0  0
  -28.1074  -36.2641   24.6280 H   0  0  0  0  0  0
  -27.2315  -37.1460   25.8876 H   0  0  0  0  0  0
  -20.9305  -29.8814   21.6988 H   0  0  0  0  0  0
  -26.0192  -38.2894   24.1415 H   0  0  0  0  0  0
  -32.1528  -19.3644   22.2732 H   0  0  0  0  0  0
  -32.1280  -16.8774   22.2047 H   0  0  0  0  0  0
  -28.2563  -19.4429   20.4077 H   0  0  0  0  0  0
  -32.0012  -23.2102   19.5761 H   0  0  0  0  0  0
  -31.7377  -22.9261   17.8744 H   0  0  0  0  0  0
  -29.5799  -24.0491   17.9330 H   0  0  0  0  0  0
  -30.7738  -25.1331   18.5927 H   0  0  0  0  0  0
  -31.2098  -20.8768   19.1752 H   0  0  0  0  0  0
  -29.7463  -21.4678   18.4133 H   0  0  0  0  0  0
  -28.0366  -22.6537   19.8646 H   0  0  0  0  0  0
  -28.4160  -23.0286   21.5165 H   0  0  0  0  0  0
  -30.0370  -24.7184   20.8830 H   0  0  0  0  0  0
  -27.4102  -24.9652   20.5715 H   0  0  0  0  0  0
  -27.8149  -25.0920   18.8717 H   0  0  0  0  0  0
  -29.1477  -15.0149   21.6886 H   0  0  0  0  0  0
  1 25  1  0  0  0
  1 30  2  0  0  0
  1 85  1  0  0  0
  2  3  1  0  0  0
  2 25  1  0  0  0
  2 88  1  0  0  0
  2 89  1  0  0  0
  3  4  1  0  0  0
  3 90  1  0  0  0
  3 91  1  0  0  0
  4  5  1  0  0  0
  4 92  1  0  0  0
  4 93  1  0  0  0
  5  6  1  0  0  0
  5 26  1  0  0  0
  5 94  1  0  0  0
  6 25  1  0  0  0
  6 95  1  0  0  0
  6 96  1  0  0  0
  7  8  2  0  0  0
  7 26  1  0  0  0
  7 29  1  0  0  0
  8  9  1  0  0  0
  8 22  1  0  0  0
  9 10  1  0  0  0
  9 27  2  0  0  0
 10 11  2  0  0  0
 10 15  1  0  0  0
 11 12  1  0  0  0
 11 97  1  0  0  0
 12 13  2  0  0  0
 12 98  1  0  0  0
 13 14  1  0  0  0
 13 31  1  0  0  0
 14 15  2  0  0  0
 14 99  1  0  0  0
 15100  1  0  0  0
 16 17  2  0  0  0
 16 21  1  0  0  0
 16 31  1  0  0  0
 17 18  1  0  0  0
 17101  1  0  0  0
 18 19  2  0  0  0
 18102  1  0  0  0
 19 20  1  0  0  0
 19 24  1  0  0  0
 20 21  2  0  0  0
 20103  1  0  0  0
 21 23  1  0  0  0
 22 28  1  0  0  0
 22 32  2  0  0  0
 26 27  1  0  0  0
 28104  1  0  0  0
 28105  1  0  0  0
 29106  1  0  0  0
 29107  1  0  0  0
 33 34  1  0  0  0
 33 66  1  0  0  0
 33 70  2  0  0  0
 34 36  1  0  0  0
 34 59  1  0  0  0
 34108  1  0  0  0
 35 44  2  0  0  0
 35 45  1  0  0  0
 35 68  1  0  0  0
 36 56  1  0  0  0
 36109  1  0  0  0
 37 39  1  0  0  0
 37 47  1  0  0  0
 37 66  1  0  0  0
 37110  1  0  0  0
 38 43  2  0  0  0
 38 46  1  0  0  0
 38 47  1  0  0  0
 39 64  1  0  0  0
 39 67  2  0  0  0
 40 52  1  0  0  0
 40 53  2  0  0  0
 40 58  1  0  0  0
 41111  1  0  0  0
 41112  1  0  0  0
 41113  1  0  0  0
 41 48  1  0  0  0
 42 43  1  0  0  0
 42 66  1  0  0  0
 42114  1  0  0  0
 42115  1  0  0  0
 43 44  1  0  0  0
 44116  1  0  0  0
 45 46  2  0  0  0
 45117  1  0  0  0
 46118  1  0  0  0
 47119  1  0  0  0
 47120  1  0  0  0
 48 56  1  0  0  0
 48 65  1  0  0  0
 48121  1  0  0  0
 49 50  1  0  0  0
 49 53  1  0  0  0
 49 64  1  0  0  0
 49122  1  0  0  0
 50 51  1  0  0  0
 50123  1  0  0  0
 50124  1  0  0  0
 51 52  1  0  0  0
 51125  1  0  0  0
 51126  1  0  0  0
 52127  1  0  0  0
 52128  1  0  0  0
 53 54  1  0  0  0
 54 55  2  0  0  0
 54129  1  0  0  0
 55 57  1  0  0  0
 55130  1  0  0  0
 56 69  2  0  0  0
 57 58  2  0  0  0
 57131  1  0  0  0
 58132  1  0  0  0
 59 60  1  0  0  0
 59 61  1  0  0  0
 59 62  1  0  0  0
 60133  1  0  0  0
 60134  1  0  0  0
 60135  1  0  0  0
 61136  1  0  0  0
 61137  1  0  0  0
 61138  1  0  0  0
 62139  1  0  0  0
 62140  1  0  0  0
 62141  1  0  0  0
 63 65  1  0  0  0
 63142  1  0  0  0
 63143  1  0  0  0
 63144  1  0  0  0
 64145  1  0  0  0
 65146  1  0  0  0
 68 83  1  0  0  0
 71 72  2  0  0  0
 71 74  1  0  0  0
 71147  1  0  0  0
 72 75  1  0  0  0
 72148  1  0  0  0
 73 74  2  0  0  0
 73 76  1  0  0  0
 73149  1  0  0  0
 74 77  1  0  0  0
 75 76  2  0  0  0
 75 85  1  0  0  0
 76 87  1  0  0  0
 77 84  1  0  0  0
 77 86  2  0  0  0
 78 79  1  0  0  0
 78 80  1  0  0  0
 78150  1  0  0  0
 78151  1  0  0  0
 79 82  1  0  0  0
 79152  1  0  0  0
 79153  1  0  0  0
 80 84  1  0  0  0
 80154  1  0  0  0
 80155  1  0  0  0
 81 82  1  0  0  0
 81 84  1  0  0  0
 81156  1  0  0  0
 81157  1  0  0  0
 82 83  1  0  0  0
 82158  1  0  0  0
 83159  1  0  0  0
 83160  1  0  0  0
 85161  1  0  0  0
M  ISO  4   1 100  68 101  83 101  85 100
M  END
> <chiral flag>
0

> <version>
0

> <s_m_source_file>
/data/baiqing/PycharmProjects/Reinvent-master-3.2/result/LINK_invent/BTK/process_docking_weight1_custom_product_contain_oxygen_bond_distance_aromatic_linkinvent_7_9_3/rearranged_h_0098.sdf

> <i_m_source_file_index>
43

> <r_mmod_Potential_Energy-OPLS-2005>
61.980583190918

> <r_mmod_Stretch_Energy-OPLS-2005>
38.2375373840332

> <r_mmod_Bend_Energy-OPLS-2005>
99.3170776367188

> <r_mmod_Torsional_Energy-OPLS-2005>
344.519195556641

> <r_mmod_Improper_Torsional_Energy-OPLS-2005>
6.91418933868408

> <r_mmod_Van_der_Waal_Energy-OPLS-2005>
168.150787353516

> <r_mmod_Electrostatic_Energy-OPLS-2005>
-393.497619628906

> <r_mmod_Solvation_Energy-OPLS-2005>
-212.867294311523

> <b_mmod_Minimization_Converged-OPLS-2005>
0

> <r_mmod_RMS_Derivative-OPLS-2005>
2.76840329170227

$$$$
43
                    3D
 Structure written by MMmdl.
152160  0  0  1  0            999 V2000
  -30.6233  -14.6276   20.5077 C   0  0  0  0  0  0
  -30.4399  -12.3865   19.4489 C   0  0  0  0  0  0
  -29.5080  -12.5087   18.2225 C   0  0  0  0  0  0
  -28.0305  -12.3465   18.6336 C   0  0  0  0  0  0
  -27.6544  -13.2136   19.8644 C   0  0  2  0  0  0
  -28.6992  -13.0583   20.9932 C   0  0  0  0  0  0
  -25.2566  -13.8163   20.5680 C   0  0  0  0  0  0
  -24.1830  -13.0435   20.9193 C   0  0  0  0  0  0
  -24.6393  -11.6904   20.8739 C   0  0  0  0  0  0
  -23.9059  -10.4292   21.0406 C   0  0  0  0  0  0
  -24.3612   -9.4206   21.9179 C   0  0  0  0  0  0
  -23.6289   -8.2241   22.0751 C   0  0  0  0  0  0
  -22.4269   -8.0281   21.3546 C   0  0  0  0  0  0
  -21.9901   -9.0255   20.4650 C   0  0  0  0  0  0
  -22.7230  -10.2134   20.3058 C   0  0  0  0  0  0
  -21.6853   -6.0732   22.5278 C   0  0  0  0  0  0
  -21.4015   -6.5636   23.8211 C   0  0  0  0  0  0
  -21.3659   -5.6789   24.9173 C   0  0  0  0  0  0
  -21.6044   -4.3052   24.7224 C   0  0  0  0  0  0
  -21.8819   -3.8143   23.4346 C   0  0  0  0  0  0
  -21.9193   -4.6960   22.3402 C   0  0  0  0  0  0
  -22.7854  -13.5233   21.1854 C   0  0  0  0  0  0
  -22.1662   -4.2147   21.0979 F   0  0  0  0  0  0
  -21.5627   -3.4535   25.7737 F   0  0  0  0  0  0
  -30.0165  -13.4016   20.4329 N   0  0  0  0  0  0
  -26.2991  -12.9337   20.3315 N   0  0  0  0  0  0
  -25.9319  -11.6496   20.5748 N   0  0  0  0  0  0
  -22.0494  -12.8235   22.0417 N   0  0  0  0  0  0
  -25.4278  -15.1883   20.4076 N   0  0  0  0  0  0
  -31.7838  -14.7951   20.1214 O   0  0  0  0  0  0
  -21.6638   -6.8875   21.4241 O   0  0  0  0  0  0
  -22.3540  -14.5537   20.6698 O   0  0  0  0  0  0
  -24.6258  -31.8610   23.2041 C   0  0  0  0  0  0
  -25.9112  -32.4782   23.8362 C   0  0  1  0  0  0
  -27.2246  -27.3293   20.1104 C   0  0  0  0  0  0
  -25.5933  -33.8583   24.2291 N   0  0  0  0  0  0
  -23.4184  -30.4865   21.5466 C   0  0  2  0  0  0
  -24.8640  -28.9456   20.1111 C   0  0  0  0  0  0
  -22.7473  -29.4632   22.4934 C   0  0  0  0  0  0
  -18.0288  -28.1381   22.8479 C   0  0  0  0  0  0
  -24.1491  -36.7297   23.2634 C   0  0  0  0  0  0
  -25.9599  -30.7946   21.3746 C   0  0  0  0  0  0
  -26.0339  -29.4242   20.7144 C   0  0  0  0  0  0
  -27.2170  -28.6282   20.7045 C   0  0  0  0  0  0
  -26.0280  -26.9035   19.4851 C   0  0  0  0  0  0
  -24.8624  -27.6898   19.4887 C   0  0  0  0  0  0
  -23.6326  -29.8253   20.1607 C   0  0  0  0  0  0
  -25.4110  -36.3085   24.0332 C   0  0  1  0  0  0
  -20.5888  -28.3687   23.1279 C   0  0  2  0  0  0
  -20.6777  -26.9410   22.5409 C   0  0  0  0  0  0
  -19.5755  -26.6382   21.5206 C   0  0  0  0  0  0
  -18.1935  -26.7921   22.1621 C   0  0  0  0  0  0
  -19.1540  -28.8849   23.2876 C   0  0  0  0  0  0
  -18.9465  -30.1450   23.8896 C   0  0  0  0  0  0
  -17.6464  -30.6582   24.0561 C   0  0  0  0  0  0
  -25.9049  -34.9454   23.5108 C   0  0  0  0  0  0
  -16.5355  -29.9080   23.6325 C   0  0  0  0  0  0
  -16.7276  -28.6499   23.0343 C   0  0  0  0  0  0
  -26.4495  -31.6587   25.0729 C   0  0  0  0  0  0
  -25.3742  -31.3751   26.1474 C   0  0  0  0  0  0
  -27.0308  -30.2997   24.6184 C   0  0  0  0  0  0
  -27.6072  -32.4308   25.7485 C   0  0  0  0  0  0
  -27.5586  -37.1794   24.8456 C   0  0  0  0  0  0
  -21.4187  -29.3043   22.3675 N   0  0  0  0  0  0
  -26.4286  -37.3783   23.9418 N   0  0  0  0  0  0
  -24.6867  -31.0634   22.0986 N   0  0  0  0  0  0
  -23.4200  -28.8164   23.3005 O   0  0  0  0  0  0
  -28.3451  -26.4838   20.1590 O   0  0  0  0  0  0
  -26.5612  -34.8921   22.4671 O   0  0  0  0  0  0
  -23.5424  -32.1405   23.7375 O   0  0  0  0  0  0
  -28.7243  -17.9014   20.9033 C   0  0  0  0  0  0
  -28.7213  -19.3243   20.7986 C   0  0  0  0  0  0
  -31.0871  -17.8456   20.4493 C   0  0  0  0  0  0
  -29.9001  -17.1186   20.7295 C   0  0  0  0  0  0
  -29.9091  -20.0484   20.5284 C   0  0  0  0  0  0
  -31.0886  -19.2691   20.3565 C   0  0  0  0  0  0
  -29.2594  -23.9904   20.3551 C   0  0  0  0  0  0
  -28.8666  -22.4446   20.3083 C   0  0  0  0  0  0
  -28.1058  -25.0295   20.0322 C   0  0  0  0  0  0
  -29.8040  -15.6643   20.8685 N   0  0  0  0  0  0
  -29.9943  -21.4782   20.4464 N   0  0  0  0  0  0
  -32.2578  -19.9069   20.0987 F   0  0  0  0  0  0
  -31.4808  -12.5136   19.1467 H   0  0  0  0  0  0
  -30.3749  -11.3886   19.8848 H   0  0  0  0  0  0
  -29.7717  -11.7616   17.4727 H   0  0  0  0  0  0
  -29.6509  -13.4808   17.7478 H   0  0  0  0  0  0
  -27.8656  -11.2926   18.8613 H   0  0  0  0  0  0
  -27.3768  -12.5809   17.7927 H   0  0  0  0  0  0
  -27.6753  -14.2501   19.5274 H   0  0  0  0  0  0
  -28.7083  -12.0333   21.3673 H   0  0  0  0  0  0
  -28.4450  -13.6823   21.8514 H   0  0  0  0  0  0
  -25.2760   -9.5681   22.4750 H   0  0  0  0  0  0
  -24.0003   -7.4630   22.7464 H   0  0  0  0  0  0
  -21.0830   -8.8774   19.8958 H   0  0  0  0  0  0
  -22.3686  -10.9673   19.6168 H   0  0  0  0  0  0
  -21.2009   -7.6144   23.9714 H   0  0  0  0  0  0
  -21.1481   -6.0519   25.9076 H   0  0  0  0  0  0
  -22.0599   -2.7606   23.2848 H   0  0  0  0  0  0
  -22.4105  -11.9900   22.4817 H   0  0  0  0  0  0
  -21.1117  -13.1273   22.2627 H   0  0  0  0  0  0
  -24.6545  -15.8379   20.5022 H   0  0  0  0  0  0
  -26.2626  -15.6210   20.0346 H   0  0  0  0  0  0
  -26.7179  -32.5452   23.1109 H   0  0  0  0  0  0
  -25.0091  -33.9729   25.0443 H   0  0  0  0  0  0
  -22.7118  -31.3070   21.4057 H   0  0  0  0  0  0
  -23.3757  -35.9624   23.3279 H   0  0  0  0  0  0
  -24.3594  -36.8931   22.2053 H   0  0  0  0  0  0
  -23.7237  -37.6493   23.6664 H   0  0  0  0  0  0
  -26.0927  -31.5603   20.6090 H   0  0  0  0  0  0
  -26.8398  -30.8400   22.0045 H   0  0  0  0  0  0
  -28.1138  -28.9912   21.1870 H   0  0  0  0  0  0
  -25.9574  -25.9467   18.9913 H   0  0  0  0  0  0
  -23.9659  -27.3169   19.0128 H   0  0  0  0  0  0
  -23.7541  -30.6038   19.4065 H   0  0  0  0  0  0
  -22.7519  -29.2572   19.8556 H   0  0  0  0  0  0
  -25.1284  -36.1933   25.0823 H   0  0  0  0  0  0
  -20.9980  -28.3263   24.1400 H   0  0  0  0  0  0
  -20.5670  -26.2297   23.3608 H   0  0  0  0  0  0
  -21.6647  -26.7436   22.1208 H   0  0  0  0  0  0
  -19.6918  -25.6293   21.1236 H   0  0  0  0  0  0
  -19.6690  -27.3190   20.6734 H   0  0  0  0  0  0
  -17.4200  -26.6654   21.4031 H   0  0  0  0  0  0
  -18.0347  -26.0070   22.9027 H   0  0  0  0  0  0
  -19.7941  -30.7262   24.2267 H   0  0  0  0  0  0
  -17.5021  -31.6260   24.5164 H   0  0  0  0  0  0
  -15.5356  -30.2981   23.7653 H   0  0  0  0  0  0
  -15.8675  -28.0820   22.7055 H   0  0  0  0  0  0
  -24.5877  -30.7140   25.7819 H   0  0  0  0  0  0
  -24.8988  -32.2936   26.4928 H   0  0  0  0  0  0
  -25.8073  -30.8902   27.0231 H   0  0  0  0  0  0
  -26.2862  -29.6768   24.1212 H   0  0  0  0  0  0
  -27.3989  -29.7240   25.4686 H   0  0  0  0  0  0
  -27.8750  -30.4258   23.9402 H   0  0  0  0  0  0
  -27.2700  -33.3614   26.2064 H   0  0  0  0  0  0
  -28.3877  -32.6858   25.0305 H   0  0  0  0  0  0
  -28.0741  -31.8429   26.5398 H   0  0  0  0  0  0
  -28.2583  -38.0112   24.7535 H   0  0  0  0  0  0
  -28.1102  -36.2648   24.6229 H   0  0  0  0  0  0
  -27.2316  -37.1383   25.8860 H   0  0  0  0  0  0
  -20.9362  -29.8774   21.6894 H   0  0  0  0  0  0
  -26.0166  -38.2851   24.1447 H   0  0  0  0  0  0
  -27.7875  -17.4102   21.1257 H   0  0  0  0  0  0
  -27.7907  -19.8521   20.9466 H   0  0  0  0  0  0
  -32.0233  -17.3267   20.3121 H   0  0  0  0  0  0
  -30.0755  -24.1709   19.6549 H   0  0  0  0  0  0
  -29.6593  -24.2177   21.3435 H   0  0  0  0  0  0
  -28.3629  -22.2372   19.3629 H   0  0  0  0  0  0
  -28.1335  -22.2435   21.0910 H   0  0  0  0  0  0
  -27.2587  -24.7711   20.6699 H   0  0  0  0  0  0
  -27.7957  -24.8284   19.0064 H   0  0  0  0  0  0
  -28.8976  -15.3366   21.1647 H   0  0  0  0  0  0
  -30.9264  -21.8303   20.2377 H   0  0  0  0  0  0
  1 25  1  0  0  0
  1 30  2  0  0  0
  1 80  1  0  0  0
  2  3  1  0  0  0
  2 25  1  0  0  0
  2 83  1  0  0  0
  2 84  1  0  0  0
  3  4  1  0  0  0
  3 85  1  0  0  0
  3 86  1  0  0  0
  4  5  1  0  0  0
  4 87  1  0  0  0
  4 88  1  0  0  0
  5  6  1  0  0  0
  5 26  1  0  0  0
  5 89  1  0  0  0
  6 25  1  0  0  0
  6 90  1  0  0  0
  6 91  1  0  0  0
  7  8  2  0  0  0
  7 26  1  0  0  0
  7 29  1  0  0  0
  8  9  1  0  0  0
  8 22  1  0  0  0
  9 10  1  0  0  0
  9 27  2  0  0  0
 10 11  2  0  0  0
 10 15  1  0  0  0
 11 12  1  0  0  0
 11 92  1  0  0  0
 12 13  2  0  0  0
 12 93  1  0  0  0
 13 14  1  0  0  0
 13 31  1  0  0  0
 14 15  2  0  0  0
 14 94  1  0  0  0
 15 95  1  0  0  0
 16 17  2  0  0  0
 16 21  1  0  0  0
 16 31  1  0  0  0
 17 18  1  0  0  0
 17 96  1  0  0  0
 18 19  2  0  0  0
 18 97  1  0  0  0
 19 20  1  0  0  0
 19 24  1  0  0  0
 20 21  2  0  0  0
 20 98  1  0  0  0
 21 23  1  0  0  0
 22 28  1  0  0  0
 22 32  2  0  0  0
 26 27  1  0  0  0
 28 99  1  0  0  0
 28100  1  0  0  0
 29101  1  0  0  0
 29102  1  0  0  0
 33 34  1  0  0  0
 33 66  1  0  0  0
 33 70  2  0  0  0
 34 36  1  0  0  0
 34 59  1  0  0  0
 34103  1  0  0  0
 35 44  2  0  0  0
 35 45  1  0  0  0
 35 68  1  0  0  0
 36 56  1  0  0  0
 36104  1  0  0  0
 37 39  1  0  0  0
 37 47  1  0  0  0
 37 66  1  0  0  0
 37105  1  0  0  0
 38 43  2  0  0  0
 38 46  1  0  0  0
 38 47  1  0  0  0
 39 64  1  0  0  0
 39 67  2  0  0  0
 40 52  1  0  0  0
 40 53  2  0  0  0
 40 58  1  0  0  0
 41106  1  0  0  0
 41107  1  0  0  0
 41108  1  0  0  0
 41 48  1  0  0  0
 42 43  1  0  0  0
 42 66  1  0  0  0
 42109  1  0  0  0
 42110  1  0  0  0
 43 44  1  0  0  0
 44111  1  0  0  0
 45 46  2  0  0  0
 45112  1  0  0  0
 46113  1  0  0  0
 47114  1  0  0  0
 47115  1  0  0  0
 48 56  1  0  0  0
 48 65  1  0  0  0
 48116  1  0  0  0
 49 50  1  0  0  0
 49 53  1  0  0  0
 49 64  1  0  0  0
 49117  1  0  0  0
 50 51  1  0  0  0
 50118  1  0  0  0
 50119  1  0  0  0
 51 52  1  0  0  0
 51120  1  0  0  0
 51121  1  0  0  0
 52122  1  0  0  0
 52123  1  0  0  0
 53 54  1  0  0  0
 54 55  2  0  0  0
 54124  1  0  0  0
 55 57  1  0  0  0
 55125  1  0  0  0
 56 69  2  0  0  0
 57 58  2  0  0  0
 57126  1  0  0  0
 58127  1  0  0  0
 59 60  1  0  0  0
 59 61  1  0  0  0
 59 62  1  0  0  0
 60128  1  0  0  0
 60129  1  0  0  0
 60130  1  0  0  0
 61131  1  0  0  0
 61132  1  0  0  0
 61133  1  0  0  0
 62134  1  0  0  0
 62135  1  0  0  0
 62136  1  0  0  0
 63 65  1  0  0  0
 63137  1  0  0  0
 63138  1  0  0  0
 63139  1  0  0  0
 64140  1  0  0  0
 65141  1  0  0  0
 68 79  1  0  0  0
 71 72  2  0  0  0
 71 74  1  0  0  0
 71142  1  0  0  0
 72 75  1  0  0  0
 72143  1  0  0  0
 73 74  2  0  0  0
 73 76  1  0  0  0
 73144  1  0  0  0
 74 80  1  0  0  0
 75 76  2  0  0  0
 75 81  1  0  0  0
 76 82  1  0  0  0
 77 78  1  0  0  0
 77 79  1  0  0  0
 77145  1  0  0  0
 77146  1  0  0  0
 78 81  1  0  0  0
 78147  1  0  0  0
 78148  1  0  0  0
 79149  1  0  0  0
 79150  1  0  0  0
 80151  1  0  0  0
 81152  1  0  0  0
M  ISO  4   1 100  68 101  79 101  80 100
M  END
> <chiral flag>
0

> <version>
0

> <s_m_source_file>
/data/baiqing/PycharmProjects/Reinvent-master-3.2/result/LINK_invent/BTK/process_docking_weight1_custom_product_contain_oxygen_bond_distance_aromatic_linkinvent_7_9_3/rearranged_h_0098.sdf

> <i_m_source_file_index>
44

> <r_mmod_Potential_Energy-OPLS-2005>
56.6511611938477

> <r_mmod_Stretch_Energy-OPLS-2005>
72.9229125976562

> <r_mmod_Bend_Energy-OPLS-2005>
142.796127319336

> <r_mmod_Torsional_Energy-OPLS-2005>
200.035095214844

> <r_mmod_Improper_Torsional_Energy-OPLS-2005>
4.99966859817505

> <r_mmod_Van_der_Waal_Energy-OPLS-2005>
145.999160766602

> <r_mmod_Electrostatic_Energy-OPLS-2005>
-340.410247802734

> <r_mmod_Solvation_Energy-OPLS-2005>
-214.410339355469

> <b_mmod_Minimization_Converged-OPLS-2005>
0

> <r_mmod_RMS_Derivative-OPLS-2005>
0.460010141134262

$$$$
44
                    3D
 Structure written by MMmdl.
167176  0  0  1  0            999 V2000
  -30.6813  -14.6785   20.4100 C   0  0  0  0  0  0
  -30.4362  -12.3988   19.4530 C   0  0  0  0  0  0
  -29.4917  -12.3746   18.2277 C   0  0  0  0  0  0
  -28.0173  -12.2851   18.6546 C   0  0  0  0  0  0
  -27.6444  -13.2225   19.8361 C   0  0  2  0  0  0
  -28.7032  -13.1910   20.9591 C   0  0  0  0  0  0
  -25.2561  -13.8208   20.5712 C   0  0  0  0  0  0
  -24.1829  -13.0463   20.9203 C   0  0  0  0  0  0
  -24.6399  -11.6937   20.8765 C   0  0  0  0  0  0
  -23.9067  -10.4317   21.0413 C   0  0  0  0  0  0
  -24.3622   -9.4230   21.9184 C   0  0  0  0  0  0
  -23.6304   -8.2259   22.0750 C   0  0  0  0  0  0
  -22.4280   -8.0293   21.3544 C   0  0  0  0  0  0
  -21.9919   -9.0268   20.4643 C   0  0  0  0  0  0
  -22.7243  -10.2154   20.3060 C   0  0  0  0  0  0
  -21.6861   -6.0736   22.5274 C   0  0  0  0  0  0
  -21.4024   -6.5638   23.8207 C   0  0  0  0  0  0
  -21.3675   -5.6791   24.9166 C   0  0  0  0  0  0
  -21.6043   -4.3052   24.7219 C   0  0  0  0  0  0
  -21.8817   -3.8145   23.4336 C   0  0  0  0  0  0
  -21.9193   -4.6962   22.3391 C   0  0  0  0  0  0
  -22.7847  -13.5238   21.1869 C   0  0  0  0  0  0
  -22.1658   -4.2148   21.0970 F   0  0  0  0  0  0
  -21.5640   -3.4536   25.7732 F   0  0  0  0  0  0
  -30.0015  -13.4894   20.3451 N   0  0  0  0  0  0
  -26.2983  -12.9402   20.3310 N   0  0  0  0  0  0
  -25.9339  -11.6556   20.5836 N   0  0  0  0  0  0
  -22.0509  -12.8202   22.0416 N   0  0  0  0  0  0
  -25.4292  -15.1929   20.4132 N   0  0  0  0  0  0
  -31.9123  -14.6903   20.3286 O   0  0  0  0  0  0
  -21.6649   -6.8883   21.4235 O   0  0  0  0  0  0
  -22.3518  -14.5557   20.6751 O   0  0  0  0  0  0
  -24.6203  -31.8628   23.2069 C   0  0  0  0  0  0
  -25.9065  -32.4791   23.8390 C   0  0  1  0  0  0
  -27.2114  -27.3274   20.1138 C   0  0  0  0  0  0
  -25.5900  -33.8596   24.2295 N   0  0  0  0  0  0
  -23.4134  -30.4893   21.5487 C   0  0  2  0  0  0
  -24.8593  -28.9503   20.1134 C   0  0  0  0  0  0
  -22.7451  -29.4618   22.4930 C   0  0  0  0  0  0
  -18.0286  -28.1344   22.8461 C   0  0  0  0  0  0
  -24.1489  -36.7307   23.2637 C   0  0  0  0  0  0
  -25.9573  -30.7937   21.3814 C   0  0  0  0  0  0
  -26.0304  -29.4251   20.7180 C   0  0  0  0  0  0
  -27.2126  -28.6263   20.7070 C   0  0  0  0  0  0
  -26.0174  -26.9102   19.4797 C   0  0  0  0  0  0
  -24.8539  -27.6965   19.4884 C   0  0  0  0  0  0
  -23.6282  -29.8317   20.1620 C   0  0  0  0  0  0
  -25.4117  -36.3092   24.0325 C   0  0  1  0  0  0
  -20.5881  -28.3647   23.1270 C   0  0  2  0  0  0
  -20.6767  -26.9363   22.5394 C   0  0  0  0  0  0
  -19.5753  -26.6339   21.5176 C   0  0  0  0  0  0
  -18.1929  -26.7888   22.1586 C   0  0  0  0  0  0
  -19.1540  -28.8810   23.2856 C   0  0  0  0  0  0
  -18.9477  -30.1422   23.8853 C   0  0  0  0  0  0
  -17.6483  -30.6552   24.0536 C   0  0  0  0  0  0
  -25.9047  -34.9455   23.5108 C   0  0  0  0  0  0
  -16.5372  -29.9049   23.6323 C   0  0  0  0  0  0
  -16.7278  -28.6474   23.0327 C   0  0  0  0  0  0
  -26.4457  -31.6612   25.0760 C   0  0  0  0  0  0
  -25.3698  -31.3750   26.1497 C   0  0  0  0  0  0
  -27.0335  -30.3046   24.6242 C   0  0  0  0  0  0
  -27.6008  -32.4373   25.7519 C   0  0  0  0  0  0
  -27.5589  -37.1804   24.8458 C   0  0  0  0  0  0
  -21.4166  -29.3029   22.3682 N   0  0  0  0  0  0
  -26.4293  -37.3790   23.9411 N   0  0  0  0  0  0
  -24.6817  -31.0659   22.1014 N   0  0  0  0  0  0
  -23.4194  -28.8122   23.2962 O   0  0  0  0  0  0
  -28.3208  -26.4701   20.1531 O   0  0  0  0  0  0
  -26.5614  -34.8916   22.4675 O   0  0  0  0  0  0
  -23.5377  -32.1436   23.7408 O   0  0  0  0  0  0
  -28.8134  -19.3606   20.0934 C   0  0  0  0  0  0
  -30.7450  -19.1416   21.4987 C   0  0  0  0  0  0
  -28.7906  -17.9431   19.9414 C   0  0  0  0  0  0
  -30.7352  -17.7240   21.3364 C   0  0  0  0  0  0
  -29.8568  -20.0197   20.7963 C   0  0  0  0  0  0
  -29.8100  -17.0964   20.4674 C   0  0  0  0  0  0
  -31.3245  -22.0041   20.7584 C   0  0  0  0  0  0
  -31.5799  -23.5091   20.9612 C   0  0  0  0  0  0
  -30.3460  -24.3420   21.3151 C   0  0  0  0  0  0
  -28.8953  -22.4551   20.5608 C   0  0  0  0  0  0
  -29.2397  -23.9966   20.3315 C   0  0  1  0  0  0
  -31.4880  -16.9015   16.4416 C   0  0  0  0  0  0
  -28.0459  -25.0331   20.3759 C   0  0  0  0  0  0
  -31.1724  -16.9914   17.9385 C   0  0  0  0  0  0
  -30.2015  -15.8720   18.4028 C   0  0  0  0  0  0
  -30.0516  -21.4922   20.7491 N   0  0  0  0  0  0
  -30.0154  -15.7693   19.8766 N   0  0  0  0  0  0
  -32.3352  -21.3194   20.5699 O   0  0  0  0  0  0
  -31.4707  -12.5190   19.1209 H   0  0  0  0  0  0
  -30.3995  -11.4487   19.9871 H   0  0  0  0  0  0
  -29.7385  -11.5162   17.6006 H   0  0  0  0  0  0
  -29.6197  -13.2344   17.5809 H   0  0  0  0  0  0
  -27.8340  -11.2476   18.9345 H   0  0  0  0  0  0
  -27.3686  -12.4828   17.8007 H   0  0  0  0  0  0
  -27.6354  -14.2337   19.4289 H   0  0  0  0  0  0
  -28.7283  -12.2197   21.4547 H   0  0  0  0  0  0
  -28.4672  -13.9325   21.7252 H   0  0  0  0  0  0
  -25.2774   -9.5709   22.4749 H   0  0  0  0  0  0
  -24.0027   -7.4647   22.7462 H   0  0  0  0  0  0
  -21.0855   -8.8773   19.8943 H   0  0  0  0  0  0
  -22.3693  -10.9689   19.6165 H   0  0  0  0  0  0
  -21.2021   -7.6146   23.9710 H   0  0  0  0  0  0
  -21.1502   -6.0518   25.9068 H   0  0  0  0  0  0
  -22.0581   -2.7607   23.2832 H   0  0  0  0  0  0
  -22.4153  -11.9854   22.4772 H   0  0  0  0  0  0
  -21.1119  -13.1198   22.2666 H   0  0  0  0  0  0
  -24.6719  -15.8539   20.5444 H   0  0  0  0  0  0
  -26.2964  -15.6308   20.1314 H   0  0  0  0  0  0
  -26.7113  -32.5467   23.1123 H   0  0  0  0  0  0
  -25.0052  -33.9764   25.0436 H   0  0  0  0  0  0
  -22.7043  -31.3082   21.4096 H   0  0  0  0  0  0
  -23.3756  -35.9630   23.3285 H   0  0  0  0  0  0
  -24.3587  -36.8959   22.2057 H   0  0  0  0  0  0
  -23.7247  -37.6500   23.6690 H   0  0  0  0  0  0
  -26.1033  -31.5636   20.6235 H   0  0  0  0  0  0
  -26.8315  -30.8337   22.0188 H   0  0  0  0  0  0
  -28.1125  -28.9855   21.1862 H   0  0  0  0  0  0
  -25.9455  -25.9668   18.9627 H   0  0  0  0  0  0
  -23.9580  -27.3275   19.0079 H   0  0  0  0  0  0
  -23.7508  -30.6149   19.4121 H   0  0  0  0  0  0
  -22.7484  -29.2664   19.8498 H   0  0  0  0  0  0
  -25.1295  -36.1941   25.0819 H   0  0  0  0  0  0
  -20.9973  -28.3211   24.1390 H   0  0  0  0  0  0
  -20.5635  -26.2242   23.3586 H   0  0  0  0  0  0
  -21.6641  -26.7351   22.1214 H   0  0  0  0  0  0
  -19.6914  -25.6240   21.1228 H   0  0  0  0  0  0
  -19.6703  -27.3119   20.6682 H   0  0  0  0  0  0
  -17.4186  -26.6603   21.4001 H   0  0  0  0  0  0
  -18.0351  -26.0030   22.8991 H   0  0  0  0  0  0
  -19.7964  -30.7240   24.2185 H   0  0  0  0  0  0
  -17.5053  -31.6236   24.5123 H   0  0  0  0  0  0
  -15.5381  -30.2944   23.7679 H   0  0  0  0  0  0
  -15.8670  -28.0809   22.7029 H   0  0  0  0  0  0
  -24.5838  -30.7133   25.7843 H   0  0  0  0  0  0
  -24.8910  -32.2915   26.4967 H   0  0  0  0  0  0
  -25.8020  -30.8901   27.0260 H   0  0  0  0  0  0
  -26.2943  -29.6791   24.1226 H   0  0  0  0  0  0
  -27.3995  -29.7314   25.4775 H   0  0  0  0  0  0
  -27.8819  -30.4353   23.9517 H   0  0  0  0  0  0
  -27.2593  -33.3672   26.2087 H   0  0  0  0  0  0
  -28.3801  -32.6962   25.0334 H   0  0  0  0  0  0
  -28.0695  -31.8523   26.5447 H   0  0  0  0  0  0
  -28.2563  -38.0137   24.7548 H   0  0  0  0  0  0
  -28.1129  -36.2677   24.6228 H   0  0  0  0  0  0
  -27.2317  -37.1376   25.8858 H   0  0  0  0  0  0
  -20.9310  -29.8831   21.6976 H   0  0  0  0  0  0
  -26.0174  -38.2856   24.1442 H   0  0  0  0  0  0
  -28.0618  -19.9343   19.5728 H   0  0  0  0  0  0
  -31.5288  -19.5558   22.1174 H   0  0  0  0  0  0
  -28.0373  -17.5163   19.2940 H   0  0  0  0  0  0
  -31.5276  -17.1483   21.7954 H   0  0  0  0  0  0
  -32.0076  -23.8861   20.0314 H   0  0  0  0  0  0
  -32.3468  -23.6426   21.7244 H   0  0  0  0  0  0
  -30.5904  -25.4034   21.2656 H   0  0  0  0  0  0
  -30.0255  -24.1422   22.3398 H   0  0  0  0  0  0
  -28.2853  -22.1212   19.7234 H   0  0  0  0  0  0
  -28.2657  -22.3682   21.4467 H   0  0  0  0  0  0
  -29.6541  -24.0836   19.3244 H   0  0  0  0  0  0
  -32.1586  -17.7064   16.1385 H   0  0  0  0  0  0
  -30.5822  -16.9775   15.8388 H   0  0  0  0  0  0
  -31.9763  -15.9574   16.1970 H   0  0  0  0  0  0
  -27.5379  -24.9435   21.3378 H   0  0  0  0  0  0
  -27.3480  -24.6605   19.6296 H   0  0  0  0  0  0
  -30.7660  -17.9826   18.1390 H   0  0  0  0  0  0
  -32.1085  -16.9300   18.4970 H   0  0  0  0  0  0
  -30.6332  -14.9601   17.9973 H   0  0  0  0  0  0
  -29.2314  -15.9830   17.9197 H   0  0  0  0  0  0
  1 25  1  0  0  0
  1 30  2  0  0  0
  1 87  1  0  0  0
  2  3  1  0  0  0
  2 25  1  0  0  0
  2 89  1  0  0  0
  2 90  1  0  0  0
  3  4  1  0  0  0
  3 91  1  0  0  0
  3 92  1  0  0  0
  4  5  1  0  0  0
  4 93  1  0  0  0
  4 94  1  0  0  0
  5  6  1  0  0  0
  5 26  1  0  0  0
  5 95  1  0  0  0
  6 25  1  0  0  0
  6 96  1  0  0  0
  6 97  1  0  0  0
  7  8  2  0  0  0
  7 26  1  0  0  0
  7 29  1  0  0  0
  8  9  1  0  0  0
  8 22  1  0  0  0
  9 10  1  0  0  0
  9 27  2  0  0  0
 10 11  2  0  0  0
 10 15  1  0  0  0
 11 12  1  0  0  0
 11 98  1  0  0  0
 12 13  2  0  0  0
 12 99  1  0  0  0
 13 14  1  0  0  0
 13 31  1  0  0  0
 14 15  2  0  0  0
 14100  1  0  0  0
 15101  1  0  0  0
 16 17  2  0  0  0
 16 21  1  0  0  0
 16 31  1  0  0  0
 17 18  1  0  0  0
 17102  1  0  0  0
 18 19  2  0  0  0
 18103  1  0  0  0
 19 20  1  0  0  0
 19 24  1  0  0  0
 20 21  2  0  0  0
 20104  1  0  0  0
 21 23  1  0  0  0
 22 28  1  0  0  0
 22 32  2  0  0  0
 26 27  1  0  0  0
 28105  1  0  0  0
 28106  1  0  0  0
 29107  1  0  0  0
 29108  1  0  0  0
 33 34  1  0  0  0
 33 66  1  0  0  0
 33 70  2  0  0  0
 34 36  1  0  0  0
 34 59  1  0  0  0
 34109  1  0  0  0
 35 44  2  0  0  0
 35 45  1  0  0  0
 35 68  1  0  0  0
 36 56  1  0  0  0
 36110  1  0  0  0
 37 39  1  0  0  0
 37 47  1  0  0  0
 37 66  1  0  0  0
 37111  1  0  0  0
 38 43  2  0  0  0
 38 46  1  0  0  0
 38 47  1  0  0  0
 39 64  1  0  0  0
 39 67  2  0  0  0
 40 52  1  0  0  0
 40 53  2  0  0  0
 40 58  1  0  0  0
 41112  1  0  0  0
 41113  1  0  0  0
 41114  1  0  0  0
 41 48  1  0  0  0
 42 43  1  0  0  0
 42 66  1  0  0  0
 42115  1  0  0  0
 42116  1  0  0  0
 43 44  1  0  0  0
 44117  1  0  0  0
 45 46  2  0  0  0
 45118  1  0  0  0
 46119  1  0  0  0
 47120  1  0  0  0
 47121  1  0  0  0
 48 56  1  0  0  0
 48 65  1  0  0  0
 48122  1  0  0  0
 49 50  1  0  0  0
 49 53  1  0  0  0
 49 64  1  0  0  0
 49123  1  0  0  0
 50 51  1  0  0  0
 50124  1  0  0  0
 50125  1  0  0  0
 51 52  1  0  0  0
 51126  1  0  0  0
 51127  1  0  0  0
 52128  1  0  0  0
 52129  1  0  0  0
 53 54  1  0  0  0
 54 55  2  0  0  0
 54130  1  0  0  0
 55 57  1  0  0  0
 55131  1  0  0  0
 56 69  2  0  0  0
 57 58  2  0  0  0
 57132  1  0  0  0
 58133  1  0  0  0
 59 60  1  0  0  0
 59 61  1  0  0  0
 59 62  1  0  0  0
 60134  1  0  0  0
 60135  1  0  0  0
 60136  1  0  0  0
 61137  1  0  0  0
 61138  1  0  0  0
 61139  1  0  0  0
 62140  1  0  0  0
 62141  1  0  0  0
 62142  1  0  0  0
 63 65  1  0  0  0
 63143  1  0  0  0
 63144  1  0  0  0
 63145  1  0  0  0
 64146  1  0  0  0
 65147  1  0  0  0
 68 83  1  0  0  0
 71 73  2  0  0  0
 71 75  1  0  0  0
 71148  1  0  0  0
 72 74  1  0  0  0
 72 75  2  0  0  0
 72149  1  0  0  0
 73 76  1  0  0  0
 73150  1  0  0  0
 74 76  2  0  0  0
 74151  1  0  0  0
 75 86  1  0  0  0
 76 87  1  0  0  0
 77 78  1  0  0  0
 77 86  1  0  0  0
 77 88  2  0  0  0
 78 79  1  0  0  0
 78152  1  0  0  0
 78153  1  0  0  0
 79 81  1  0  0  0
 79154  1  0  0  0
 79155  1  0  0  0
 80 81  1  0  0  0
 80 86  1  0  0  0
 80156  1  0  0  0
 80157  1  0  0  0
 81 83  1  0  0  0
 81158  1  0  0  0
 82 84  1  0  0  0
 82159  1  0  0  0
 82160  1  0  0  0
 82161  1  0  0  0
 83162  1  0  0  0
 83163  1  0  0  0
 84 85  1  0  0  0
 84164  1  0  0  0
 84165  1  0  0  0
 85 87  1  0  0  0
 85166  1  0  0  0
 85167  1  0  0  0
M  ISO  4   1 100  68 101  83 101  87 100
M  END
> <chiral flag>
0

> <version>
0

> <s_m_source_file>
/data/baiqing/PycharmProjects/Reinvent-master-3.2/result/LINK_invent/BTK/process_docking_weight1_custom_product_contain_oxygen_bond_distance_aromatic_linkinvent_7_9_3/rearranged_h_0098.sdf

> <i_m_source_file_index>
45

> <r_mmod_Potential_Energy-OPLS-2005>
454.435882568359

> <r_mmod_Stretch_Energy-OPLS-2005>
92.7998962402344

> <r_mmod_Bend_Energy-OPLS-2005>
155.116363525391

> <r_mmod_Torsional_Energy-OPLS-2005>
389.140075683594

> <r_mmod_Improper_Torsional_Energy-OPLS-2005>
30.9358196258545

> <r_mmod_Van_der_Waal_Energy-OPLS-2005>
171.461151123047

> <r_mmod_Electrostatic_Energy-OPLS-2005>
-255.636947631836

> <r_mmod_Solvation_Energy-OPLS-2005>
-202.491058349609

> <b_mmod_Minimization_Converged-OPLS-2005>
0

> <r_mmod_RMS_Derivative-OPLS-2005>
2.47842717170715

$$$$
45
                    3D
 Structure written by MMmdl.
165174  0  0  1  0            999 V2000
  -30.6189  -14.6278   20.5090 C   0  0  0  0  0  0
  -30.4347  -12.3892   19.4469 C   0  0  0  0  0  0
  -29.5050  -12.5202   18.2206 C   0  0  0  0  0  0
  -28.0282  -12.3564   18.6306 C   0  0  0  0  0  0
  -27.6532  -13.2169   19.8664 C   0  0  2  0  0  0
  -28.6959  -13.0571   20.9951 C   0  0  0  0  0  0
  -25.2560  -13.8169   20.5681 C   0  0  0  0  0  0
  -24.1827  -13.0439   20.9178 C   0  0  0  0  0  0
  -24.6391  -11.6911   20.8719 C   0  0  0  0  0  0
  -23.9065  -10.4290   21.0389 C   0  0  0  0  0  0
  -24.3614   -9.4212   21.9176 C   0  0  0  0  0  0
  -23.6286   -8.2248   22.0750 C   0  0  0  0  0  0
  -22.4270   -8.0282   21.3544 C   0  0  0  0  0  0
  -21.9896   -9.0262   20.4651 C   0  0  0  0  0  0
  -22.7227  -10.2137   20.3058 C   0  0  0  0  0  0
  -21.6863   -6.0733   22.5278 C   0  0  0  0  0  0
  -21.4017   -6.5633   23.8210 C   0  0  0  0  0  0
  -21.3654   -5.6791   24.9174 C   0  0  0  0  0  0
  -21.6042   -4.3056   24.7230 C   0  0  0  0  0  0
  -21.8817   -3.8149   23.4348 C   0  0  0  0  0  0
  -21.9194   -4.6963   22.3404 C   0  0  0  0  0  0
  -22.7847  -13.5248   21.1845 C   0  0  0  0  0  0
  -22.1666   -4.2149   21.0979 F   0  0  0  0  0  0
  -21.5620   -3.4541   25.7742 F   0  0  0  0  0  0
  -30.0128  -13.4006   20.4368 N   0  0  0  0  0  0
  -26.2982  -12.9351   20.3316 N   0  0  0  0  0  0
  -25.9315  -11.6504   20.5723 N   0  0  0  0  0  0
  -22.0489  -12.8241   22.0401 N   0  0  0  0  0  0
  -25.4277  -15.1897   20.4129 N   0  0  0  0  0  0
  -31.7808  -14.7874   20.1229 O   0  0  0  0  0  0
  -21.6635   -6.8875   21.4241 O   0  0  0  0  0  0
  -22.3551  -14.5567   20.6708 O   0  0  0  0  0  0
  -24.6256  -31.8602   23.2028 C   0  0  0  0  0  0
  -25.9107  -32.4785   23.8363 C   0  0  1  0  0  0
  -27.2212  -27.3270   20.1167 C   0  0  0  0  0  0
  -25.5924  -33.8583   24.2290 N   0  0  0  0  0  0
  -23.4184  -30.4830   21.5464 C   0  0  2  0  0  0
  -24.8640  -28.9391   20.1129 C   0  0  0  0  0  0
  -22.7484  -29.4617   22.4958 C   0  0  0  0  0  0
  -18.0291  -28.1379   22.8481 C   0  0  0  0  0  0
  -24.1485  -36.7296   23.2636 C   0  0  0  0  0  0
  -25.9581  -30.7933   21.3719 C   0  0  0  0  0  0
  -26.0328  -29.4201   20.7178 C   0  0  0  0  0  0
  -27.2152  -28.6258   20.7089 C   0  0  0  0  0  0
  -26.0347  -26.9003   19.4796 C   0  0  0  0  0  0
  -24.8666  -27.6835   19.4852 C   0  0  0  0  0  0
  -23.6332  -29.8187   20.1613 C   0  0  0  0  0  0
  -25.4109  -36.3091   24.0327 C   0  0  1  0  0  0
  -20.5895  -28.3679   23.1288 C   0  0  2  0  0  0
  -20.6778  -26.9403   22.5415 C   0  0  0  0  0  0
  -19.5756  -26.6382   21.5208 C   0  0  0  0  0  0
  -18.1932  -26.7921   22.1610 C   0  0  0  0  0  0
  -19.1547  -28.8843   23.2882 C   0  0  0  0  0  0
  -18.9466  -30.1457   23.8893 C   0  0  0  0  0  0
  -17.6462  -30.6579   24.0556 C   0  0  0  0  0  0
  -25.9040  -34.9456   23.5100 C   0  0  0  0  0  0
  -16.5353  -29.9077   23.6330 C   0  0  0  0  0  0
  -16.7278  -28.6497   23.0340 C   0  0  0  0  0  0
  -26.4477  -31.6596   25.0729 C   0  0  0  0  0  0
  -25.3718  -31.3780   26.1481 C   0  0  0  0  0  0
  -27.0281  -30.3012   24.6169 C   0  0  0  0  0  0
  -27.6057  -32.4303   25.7474 C   0  0  0  0  0  0
  -27.5565  -37.1832   24.8473 C   0  0  0  0  0  0
  -21.4194  -29.3037   22.3696 N   0  0  0  0  0  0
  -26.4302  -37.3770   23.9377 N   0  0  0  0  0  0
  -24.6862  -31.0623   22.0974 N   0  0  0  0  0  0
  -23.4207  -28.8153   23.3020 O   0  0  0  0  0  0
  -28.3405  -26.4874   20.1304 O   0  0  0  0  0  0
  -26.5608  -34.8907   22.4669 O   0  0  0  0  0  0
  -23.5416  -32.1398   23.7363 O   0  0  0  0  0  0
  -29.3393  -19.4257   21.4799 C   0  0  0  0  0  0
  -30.3852  -19.1167   19.3400 C   0  0  0  0  0  0
  -29.3358  -18.0080   21.6761 C   0  0  0  0  0  0
  -29.9124  -20.0264   20.3309 C   0  0  0  0  0  0
  -29.8907  -17.1101   20.7108 C   0  0  0  0  0  0
  -30.3498  -17.6976   19.4984 C   0  0  0  0  0  0
  -31.3529  -21.9585   19.9753 C   0  0  0  0  0  0
  -31.5984  -23.4485   19.6914 C   0  0  0  0  0  0
  -30.6050  -24.3895   20.3763 C   0  0  0  0  0  0
  -28.9716  -22.4705   20.4632 C   0  0  0  0  0  0
  -29.1802  -23.9901   20.0081 C   0  0  1  0  0  0
  -28.6994  -17.4646   22.9473 C   0  0  0  0  0  0
  -30.1463  -17.1617   17.1964 C   0  0  0  0  0  0
  -28.1426  -25.0752   20.5298 C   0  0  0  0  0  0
  -30.0880  -21.4863   20.1806 N   0  0  0  0  0  0
  -29.8252  -15.6622   20.9302 N   0  0  0  0  0  0
  -32.3550  -21.2309   19.9826 O   0  0  0  0  0  0
  -30.7283  -16.8749   18.4647 O   0  0  0  0  0  0
  -31.4749  -12.5172   19.1421 H   0  0  0  0  0  0
  -30.3683  -11.3887   19.8761 H   0  0  0  0  0  0
  -29.7652  -11.7804   17.4630 H   0  0  0  0  0  0
  -29.6500  -13.4975   17.7567 H   0  0  0  0  0  0
  -27.8578  -11.3007   18.8498 H   0  0  0  0  0  0
  -27.3765  -12.6003   17.7908 H   0  0  0  0  0  0
  -27.6769  -14.2554   19.5342 H   0  0  0  0  0  0
  -28.7043  -12.0305   21.3640 H   0  0  0  0  0  0
  -28.4395  -13.6773   21.8546 H   0  0  0  0  0  0
  -25.2757   -9.5687   22.4751 H   0  0  0  0  0  0
  -24.0003   -7.4635   22.7464 H   0  0  0  0  0  0
  -21.0827   -8.8786   19.8961 H   0  0  0  0  0  0
  -22.3680  -10.9684   19.6170 H   0  0  0  0  0  0
  -21.2014   -7.6142   23.9711 H   0  0  0  0  0  0
  -21.1470   -6.0522   25.9076 H   0  0  0  0  0  0
  -22.0599   -2.7611   23.2855 H   0  0  0  0  0  0
  -22.4097  -11.9892   22.4779 H   0  0  0  0  0  0
  -21.1114  -13.1285   22.2611 H   0  0  0  0  0  0
  -24.6603  -15.8422   20.5293 H   0  0  0  0  0  0
  -26.2771  -15.6328   20.0876 H   0  0  0  0  0  0
  -26.7173  -32.5454   23.1113 H   0  0  0  0  0  0
  -25.0102  -33.9734   25.0454 H   0  0  0  0  0  0
  -22.7107  -31.3028   21.4057 H   0  0  0  0  0  0
  -23.3702  -35.9690   23.3411 H   0  0  0  0  0  0
  -24.3559  -36.8791   22.2033 H   0  0  0  0  0  0
  -23.7314  -37.6562   23.6573 H   0  0  0  0  0  0
  -26.0867  -31.5533   20.6005 H   0  0  0  0  0  0
  -26.8410  -30.8449   21.9982 H   0  0  0  0  0  0
  -28.1151  -28.9919   21.1847 H   0  0  0  0  0  0
  -25.9994  -25.9504   18.9653 H   0  0  0  0  0  0
  -23.9746  -27.3129   18.9973 H   0  0  0  0  0  0
  -23.7541  -30.5951   19.4057 H   0  0  0  0  0  0
  -22.7508  -29.2501   19.8603 H   0  0  0  0  0  0
  -25.1300  -36.1959   25.0823 H   0  0  0  0  0  0
  -20.9983  -28.3245   24.1410 H   0  0  0  0  0  0
  -20.5658  -26.2283   23.3608 H   0  0  0  0  0  0
  -21.6646  -26.7420   22.1219 H   0  0  0  0  0  0
  -19.6907  -25.6292   21.1234 H   0  0  0  0  0  0
  -19.6686  -27.3190   20.6736 H   0  0  0  0  0  0
  -17.4205  -26.6684   21.4011 H   0  0  0  0  0  0
  -18.0315  -26.0069   22.9004 H   0  0  0  0  0  0
  -19.7941  -30.7275   24.2239 H   0  0  0  0  0  0
  -17.5016  -31.6251   24.5172 H   0  0  0  0  0  0
  -15.5353  -30.2962   23.7651 H   0  0  0  0  0  0
  -15.8687  -28.0810   22.7045 H   0  0  0  0  0  0
  -24.5865  -30.7135   25.7861 H   0  0  0  0  0  0
  -24.8936  -32.2968   26.4889 H   0  0  0  0  0  0
  -25.8052  -30.8986   27.0276 H   0  0  0  0  0  0
  -26.2848  -29.6806   24.1149 H   0  0  0  0  0  0
  -27.3939  -29.7222   25.4663 H   0  0  0  0  0  0
  -27.8738  -30.4293   23.9406 H   0  0  0  0  0  0
  -27.2710  -33.3618   26.2056 H   0  0  0  0  0  0
  -28.3860  -32.6843   25.0283 H   0  0  0  0  0  0
  -28.0732  -31.8422   26.5388 H   0  0  0  0  0  0
  -28.2670  -38.0033   24.7373 H   0  0  0  0  0  0
  -28.0959  -36.2565   24.6464 H   0  0  0  0  0  0
  -27.2275  -37.1716   25.8879 H   0  0  0  0  0  0
  -20.9371  -29.8772   21.6924 H   0  0  0  0  0  0
  -26.0183  -38.2862   24.1297 H   0  0  0  0  0  0
  -28.9288  -20.0632   22.2512 H   0  0  0  0  0  0
  -30.8150  -19.5221   18.4355 H   0  0  0  0  0  0
  -31.5577  -23.5917   18.6116 H   0  0  0  0  0  0
  -32.6120  -23.7104   19.9943 H   0  0  0  0  0  0
  -30.8033  -25.4156   20.0633 H   0  0  0  0  0  0
  -30.7403  -24.3633   21.4592 H   0  0  0  0  0  0
  -28.0570  -22.0869   20.0118 H   0  0  0  0  0  0
  -28.8040  -22.4510   21.5399 H   0  0  0  0  0  0
  -29.1081  -24.0088   18.9198 H   0  0  0  0  0  0
  -28.6168  -18.2384   23.7119 H   0  0  0  0  0  0
  -29.2803  -16.6479   23.3760 H   0  0  0  0  0  0
  -27.6944  -17.0988   22.7346 H   0  0  0  0  0  0
  -30.2610  -16.2716   16.5709 H   0  0  0  0  0  0
  -30.6349  -17.9892   16.6826 H   0  0  0  0  0  0
  -29.0783  -17.3665   17.2618 H   0  0  0  0  0  0
  -28.1526  -25.0609   21.6202 H   0  0  0  0  0  0
  -27.1518  -24.7137   20.2616 H   0  0  0  0  0  0
  -28.9901  -15.3501   21.4001 H   0  0  0  0  0  0
  1 25  1  0  0  0
  1 30  2  0  0  0
  1 86  1  0  0  0
  2  3  1  0  0  0
  2 25  1  0  0  0
  2 89  1  0  0  0
  2 90  1  0  0  0
  3  4  1  0  0  0
  3 91  1  0  0  0
  3 92  1  0  0  0
  4  5  1  0  0  0
  4 93  1  0  0  0
  4 94  1  0  0  0
  5  6  1  0  0  0
  5 26  1  0  0  0
  5 95  1  0  0  0
  6 25  1  0  0  0
  6 96  1  0  0  0
  6 97  1  0  0  0
  7  8  2  0  0  0
  7 26  1  0  0  0
  7 29  1  0  0  0
  8  9  1  0  0  0
  8 22  1  0  0  0
  9 10  1  0  0  0
  9 27  2  0  0  0
 10 11  2  0  0  0
 10 15  1  0  0  0
 11 12  1  0  0  0
 11 98  1  0  0  0
 12 13  2  0  0  0
 12 99  1  0  0  0
 13 14  1  0  0  0
 13 31  1  0  0  0
 14 15  2  0  0  0
 14100  1  0  0  0
 15101  1  0  0  0
 16 17  2  0  0  0
 16 21  1  0  0  0
 16 31  1  0  0  0
 17 18  1  0  0  0
 17102  1  0  0  0
 18 19  2  0  0  0
 18103  1  0  0  0
 19 20  1  0  0  0
 19 24  1  0  0  0
 20 21  2  0  0  0
 20104  1  0  0  0
 21 23  1  0  0  0
 22 28  1  0  0  0
 22 32  2  0  0  0
 26 27  1  0  0  0
 28105  1  0  0  0
 28106  1  0  0  0
 29107  1  0  0  0
 29108  1  0  0  0
 33 34  1  0  0  0
 33 66  1  0  0  0
 33 70  2  0  0  0
 34 36  1  0  0  0
 34 59  1  0  0  0
 34109  1  0  0  0
 35 44  2  0  0  0
 35 45  1  0  0  0
 35 68  1  0  0  0
 36 56  1  0  0  0
 36110  1  0  0  0
 37 39  1  0  0  0
 37 47  1  0  0  0
 37 66  1  0  0  0
 37111  1  0  0  0
 38 43  2  0  0  0
 38 46  1  0  0  0
 38 47  1  0  0  0
 39 64  1  0  0  0
 39 67  2  0  0  0
 40 52  1  0  0  0
 40 53  2  0  0  0
 40 58  1  0  0  0
 41112  1  0  0  0
 41113  1  0  0  0
 41114  1  0  0  0
 41 48  1  0  0  0
 42 43  1  0  0  0
 42 66  1  0  0  0
 42115  1  0  0  0
 42116  1  0  0  0
 43 44  1  0  0  0
 44117  1  0  0  0
 45 46  2  0  0  0
 45118  1  0  0  0
 46119  1  0  0  0
 47120  1  0  0  0
 47121  1  0  0  0
 48 56  1  0  0  0
 48 65  1  0  0  0
 48122  1  0  0  0
 49 50  1  0  0  0
 49 53  1  0  0  0
 49 64  1  0  0  0
 49123  1  0  0  0
 50 51  1  0  0  0
 50124  1  0  0  0
 50125  1  0  0  0
 51 52  1  0  0  0
 51126  1  0  0  0
 51127  1  0  0  0
 52128  1  0  0  0
 52129  1  0  0  0
 53 54  1  0  0  0
 54 55  2  0  0  0
 54130  1  0  0  0
 55 57  1  0  0  0
 55131  1  0  0  0
 56 69  2  0  0  0
 57 58  2  0  0  0
 57132  1  0  0  0
 58133  1  0  0  0
 59 60  1  0  0  0
 59 61  1  0  0  0
 59 62  1  0  0  0
 60134  1  0  0  0
 60135  1  0  0  0
 60136  1  0  0  0
 61137  1  0  0  0
 61138  1  0  0  0
 61139  1  0  0  0
 62140  1  0  0  0
 62141  1  0  0  0
 62142  1  0  0  0
 63 65  1  0  0  0
 63143  1  0  0  0
 63144  1  0  0  0
 63145  1  0  0  0
 64146  1  0  0  0
 65147  1  0  0  0
 68 84  1  0  0  0
 71 73  2  0  0  0
 71 74  1  0  0  0
 71148  1  0  0  0
 72 74  2  0  0  0
 72 76  1  0  0  0
 72149  1  0  0  0
 73 75  1  0  0  0
 73 82  1  0  0  0
 74 85  1  0  0  0
 75 76  2  0  0  0
 75 86  1  0  0  0
 76 88  1  0  0  0
 77 78  1  0  0  0
 77 85  1  0  0  0
 77 87  2  0  0  0
 78 79  1  0  0  0
 78150  1  0  0  0
 78151  1  0  0  0
 79 81  1  0  0  0
 79152  1  0  0  0
 79153  1  0  0  0
 80 81  1  0  0  0
 80 85  1  0  0  0
 80154  1  0  0  0
 80155  1  0  0  0
 81 84  1  0  0  0
 81156  1  0  0  0
 82157  1  0  0  0
 82158  1  0  0  0
 82159  1  0  0  0
 83 88  1  0  0  0
 83160  1  0  0  0
 83161  1  0  0  0
 83162  1  0  0  0
 84163  1  0  0  0
 84164  1  0  0  0
 86165  1  0  0  0
M  ISO  4   1 100  68 101  84 101  86 100
M  END
> <chiral flag>
0

> <version>
0

> <s_m_source_file>
/data/baiqing/PycharmProjects/Reinvent-master-3.2/result/LINK_invent/BTK/process_docking_weight1_custom_product_contain_oxygen_bond_distance_aromatic_linkinvent_7_9_3/rearranged_h_0098.sdf

> <i_m_source_file_index>
46

> <r_mmod_Potential_Energy-OPLS-2005>
127.405853271484

> <r_mmod_Stretch_Energy-OPLS-2005>
86.4917297363281

> <r_mmod_Bend_Energy-OPLS-2005>
135.369598388672

> <r_mmod_Torsional_Energy-OPLS-2005>
322.001739501953

> <r_mmod_Improper_Torsional_Energy-OPLS-2005>
3.88319087028503

> <r_mmod_Van_der_Waal_Energy-OPLS-2005>
155.646408081055

> <r_mmod_Electrostatic_Energy-OPLS-2005>
-379.790924072266

> <r_mmod_Solvation_Energy-OPLS-2005>
-239.854537963867

> <b_mmod_Minimization_Converged-OPLS-2005>
0

> <r_mmod_RMS_Derivative-OPLS-2005>
3.76419258117676

$$$$
46
                    3D
 Structure written by MMmdl.
163172  0  0  1  0            999 V2000
  -30.6037  -14.6619   20.5033 C   0  0  0  0  0  0
  -30.4426  -12.4065   19.4593 C   0  0  0  0  0  0
  -29.5116  -12.5105   18.2292 C   0  0  0  0  0  0
  -28.0342  -12.3444   18.6380 C   0  0  0  0  0  0
  -27.6537  -13.2156   19.8635 C   0  0  2  0  0  0
  -28.6962  -13.0715   20.9955 C   0  0  0  0  0  0
  -25.2567  -13.8168   20.5658 C   0  0  0  0  0  0
  -24.1845  -13.0441   20.9216 C   0  0  0  0  0  0
  -24.6406  -11.6910   20.8760 C   0  0  0  0  0  0
  -23.9071  -10.4293   21.0423 C   0  0  0  0  0  0
  -24.3624   -9.4204   21.9194 C   0  0  0  0  0  0
  -23.6296   -8.2240   22.0757 C   0  0  0  0  0  0
  -22.4276   -8.0286   21.3544 C   0  0  0  0  0  0
  -21.9916   -9.0263   20.4648 C   0  0  0  0  0  0
  -22.7249  -10.2140   20.3067 C   0  0  0  0  0  0
  -21.6852   -6.0739   22.5277 C   0  0  0  0  0  0
  -21.4013   -6.5639   23.8212 C   0  0  0  0  0  0
  -21.3658   -5.6789   24.9171 C   0  0  0  0  0  0
  -21.6045   -4.3052   24.7222 C   0  0  0  0  0  0
  -21.8819   -3.8148   23.4340 C   0  0  0  0  0  0
  -21.9192   -4.6967   22.3397 C   0  0  0  0  0  0
  -22.7864  -13.5239   21.1864 C   0  0  0  0  0  0
  -22.1667   -4.2155   21.0974 F   0  0  0  0  0  0
  -21.5626   -3.4535   25.7735 F   0  0  0  0  0  0
  -30.0115  -13.4257   20.4382 N   0  0  0  0  0  0
  -26.2988  -12.9346   20.3292 N   0  0  0  0  0  0
  -25.9328  -11.6504   20.5756 N   0  0  0  0  0  0
  -22.0493  -12.8238   22.0415 N   0  0  0  0  0  0
  -25.4263  -15.1884   20.3966 N   0  0  0  0  0  0
  -31.7547  -14.8428   20.0968 O   0  0  0  0  0  0
  -21.6636   -6.8886   21.4241 O   0  0  0  0  0  0
  -22.3552  -14.5539   20.6698 O   0  0  0  0  0  0
  -24.6277  -31.8597   23.2023 C   0  0  0  0  0  0
  -25.9126  -32.4773   23.8349 C   0  0  1  0  0  0
  -27.2196  -27.3043   20.1147 C   0  0  0  0  0  0
  -25.5943  -33.8575   24.2281 N   0  0  0  0  0  0
  -23.4211  -30.4844   21.5460 C   0  0  2  0  0  0
  -24.8666  -28.9423   20.1089 C   0  0  0  0  0  0
  -22.7481  -29.4618   22.4928 C   0  0  0  0  0  0
  -18.0289  -28.1384   22.8480 C   0  0  0  0  0  0
  -24.1493  -36.7286   23.2631 C   0  0  0  0  0  0
  -25.9648  -30.7845   21.3777 C   0  0  0  0  0  0
  -26.0371  -29.4120   20.7179 C   0  0  0  0  0  0
  -27.2153  -28.6039   20.7141 C   0  0  0  0  0  0
  -26.0262  -26.9008   19.4687 C   0  0  0  0  0  0
  -24.8640  -27.6921   19.4758 C   0  0  0  0  0  0
  -23.6355  -29.8237   20.1600 C   0  0  0  0  0  0
  -25.4116  -36.3075   24.0324 C   0  0  1  0  0  0
  -20.5889  -28.3686   23.1278 C   0  0  2  0  0  0
  -20.6781  -26.9406   22.5409 C   0  0  0  0  0  0
  -19.5758  -26.6378   21.5210 C   0  0  0  0  0  0
  -18.1936  -26.7928   22.1617 C   0  0  0  0  0  0
  -19.1541  -28.8852   23.2876 C   0  0  0  0  0  0
  -18.9463  -30.1454   23.8889 C   0  0  0  0  0  0
  -17.6463  -30.6582   24.0559 C   0  0  0  0  0  0
  -25.9056  -34.9447   23.5100 C   0  0  0  0  0  0
  -16.5355  -29.9078   23.6329 C   0  0  0  0  0  0
  -16.7276  -28.6498   23.0346 C   0  0  0  0  0  0
  -26.4502  -31.6580   25.0719 C   0  0  0  0  0  0
  -25.3736  -31.3735   26.1448 C   0  0  0  0  0  0
  -27.0333  -30.2994   24.6182 C   0  0  0  0  0  0
  -27.6066  -32.4310   25.7494 C   0  0  0  0  0  0
  -27.5587  -37.1788   24.8451 C   0  0  0  0  0  0
  -21.4192  -29.3041   22.3671 N   0  0  0  0  0  0
  -26.4289  -37.3776   23.9410 N   0  0  0  0  0  0
  -24.6901  -31.0596   22.0985 N   0  0  0  0  0  0
  -23.4202  -28.8154   23.3007 O   0  0  0  0  0  0
  -28.3243  -26.4313   20.1830 O   0  0  0  0  0  0
  -26.5614  -34.8912   22.4659 O   0  0  0  0  0  0
  -23.5438  -32.1407   23.7343 O   0  0  0  0  0  0
  -30.8612  -17.8880   20.0780 C   0  0  0  0  0  0
  -30.7931  -19.3168   20.0028 C   0  0  0  0  0  0
  -29.8472  -17.1508   20.7427 C   0  0  0  0  0  0
  -29.7084  -20.0209   20.6007 C   0  0  0  0  0  0
  -28.7997  -17.9491   21.2694 C   0  0  0  0  0  0
  -29.1485  -23.5266   21.8672 C   0  0  0  0  0  0
  -29.7062  -22.0837   22.0096 C   0  0  0  0  0  0
  -28.9295  -22.3827   19.8044 C   0  0  0  0  0  0
  -29.1288  -23.8502   20.3638 C   0  0  1  0  0  0
  -33.0409  -20.4637   20.2716 C   0  0  0  0  0  0
  -31.9204  -20.0638   19.3040 C   0  0  0  0  0  0
  -28.0924  -24.9843   19.9185 C   0  0  0  0  0  0
  -28.7354  -19.3076   21.2208 N   0  0  0  0  0  0
  -29.6774  -21.4588   20.6893 N   0  0  0  0  0  0
  -27.7296  -17.3518   21.9201 N   0  0  0  0  0  0
  -29.7946  -15.6912   20.9083 N   0  0  0  0  0  0
  -31.4827  -12.5408   19.1573 H   0  0  0  0  0  0
  -30.3864  -11.4115   19.9032 H   0  0  0  0  0  0
  -29.7798  -11.7560   17.4885 H   0  0  0  0  0  0
  -29.6502  -13.4781   17.7439 H   0  0  0  0  0  0
  -27.8726  -11.2912   18.8711 H   0  0  0  0  0  0
  -27.3810  -12.5719   17.7947 H   0  0  0  0  0  0
  -27.6725  -14.2504   19.5216 H   0  0  0  0  0  0
  -28.7123  -12.0484   21.3744 H   0  0  0  0  0  0
  -28.4329  -13.6966   21.8498 H   0  0  0  0  0  0
  -25.2771   -9.5672   22.4765 H   0  0  0  0  0  0
  -24.0001   -7.4630   22.7474 H   0  0  0  0  0  0
  -21.0844   -8.8797   19.8953 H   0  0  0  0  0  0
  -22.3721  -10.9689   19.6178 H   0  0  0  0  0  0
  -21.2007   -7.6146   23.9722 H   0  0  0  0  0  0
  -21.1476   -6.0514   25.9076 H   0  0  0  0  0  0
  -22.0597   -2.7608   23.2840 H   0  0  0  0  0  0
  -22.4094  -11.9899   22.4813 H   0  0  0  0  0  0
  -21.1116  -13.1284   22.2613 H   0  0  0  0  0  0
  -24.6291  -15.8137   20.4509 H   0  0  0  0  0  0
  -26.2015  -15.5890   19.8850 H   0  0  0  0  0  0
  -26.7190  -32.5438   23.1091 H   0  0  0  0  0  0
  -25.0118  -33.9722   25.0445 H   0  0  0  0  0  0
  -22.7155  -31.3059   21.4048 H   0  0  0  0  0  0
  -23.3759  -35.9613   23.3282 H   0  0  0  0  0  0
  -24.3594  -36.8916   22.2049 H   0  0  0  0  0  0
  -23.7238  -37.6479   23.6662 H   0  0  0  0  0  0
  -26.1008  -31.5489   20.6111 H   0  0  0  0  0  0
  -26.8440  -30.8301   22.0086 H   0  0  0  0  0  0
  -28.1097  -28.9562   21.2086 H   0  0  0  0  0  0
  -25.9539  -25.9522   18.9585 H   0  0  0  0  0  0
  -23.9682  -27.3288   18.9906 H   0  0  0  0  0  0
  -23.7545  -30.6024   19.4058 H   0  0  0  0  0  0
  -22.7543  -29.2557   19.8561 H   0  0  0  0  0  0
  -25.1291  -36.1924   25.0814 H   0  0  0  0  0  0
  -20.9982  -28.3267   24.1399 H   0  0  0  0  0  0
  -20.5684  -26.2291   23.3607 H   0  0  0  0  0  0
  -21.6653  -26.7438   22.1204 H   0  0  0  0  0  0
  -19.6922  -25.6288   21.1239 H   0  0  0  0  0  0
  -19.6701  -27.3189   20.6742 H   0  0  0  0  0  0
  -17.4208  -26.6668   21.4020 H   0  0  0  0  0  0
  -18.0334  -26.0070   22.9010 H   0  0  0  0  0  0
  -19.7940  -30.7272   24.2250 H   0  0  0  0  0  0
  -17.5016  -31.6261   24.5160 H   0  0  0  0  0  0
  -15.5355  -30.2975   23.7656 H   0  0  0  0  0  0
  -15.8677  -28.0814   22.7066 H   0  0  0  0  0  0
  -24.5918  -30.7067   25.7792 H   0  0  0  0  0  0
  -24.8922  -32.2910   26.4844 H   0  0  0  0  0  0
  -25.8063  -30.8943   27.0237 H   0  0  0  0  0  0
  -26.2902  -29.6753   24.1199 H   0  0  0  0  0  0
  -27.4013  -29.7238   25.4684 H   0  0  0  0  0  0
  -27.8785  -30.4266   23.9413 H   0  0  0  0  0  0
  -27.2681  -33.3611   26.2070 H   0  0  0  0  0  0
  -28.3881  -32.6864   25.0326 H   0  0  0  0  0  0
  -28.0723  -31.8430   26.5411 H   0  0  0  0  0  0
  -28.2572  -38.0119   24.7544 H   0  0  0  0  0  0
  -28.1117  -36.2651   24.6218 H   0  0  0  0  0  0
  -27.2310  -37.1363   25.8853 H   0  0  0  0  0  0
  -20.9365  -29.8768   21.6886 H   0  0  0  0  0  0
  -26.0166  -38.2838   24.1449 H   0  0  0  0  0  0
  -31.7000  -17.3748   19.6324 H   0  0  0  0  0  0
  -29.7281  -24.2525   22.4383 H   0  0  0  0  0  0
  -28.1312  -23.5499   22.2606 H   0  0  0  0  0  0
  -29.1313  -21.5106   22.7390 H   0  0  0  0  0  0
  -30.7385  -22.1090   22.3604 H   0  0  0  0  0  0
  -29.2786  -22.3009   18.7740 H   0  0  0  0  0  0
  -27.8743  -22.1056   19.8158 H   0  0  0  0  0  0
  -30.1280  -24.1730   20.0677 H   0  0  0  0  0  0
  -33.8423  -20.9812   19.7434 H   0  0  0  0  0  0
  -33.4748  -19.5898   20.7580 H   0  0  0  0  0  0
  -32.6747  -21.1334   21.0503 H   0  0  0  0  0  0
  -31.5253  -20.9485   18.8034 H   0  0  0  0  0  0
  -32.3300  -19.4358   18.5115 H   0  0  0  0  0  0
  -27.1369  -24.6969   20.3602 H   0  0  0  0  0  0
  -27.9678  -24.8875   18.8390 H   0  0  0  0  0  0
  -27.4637  -16.4150   21.6544 H   0  0  0  0  0  0
  -26.9271  -17.9463   22.0800 H   0  0  0  0  0  0
  -28.9371  -15.3692   21.3269 H   0  0  0  0  0  0
  1 25  1  0  0  0
  1 30  2  0  0  0
  1 86  1  0  0  0
  2  3  1  0  0  0
  2 25  1  0  0  0
  2 87  1  0  0  0
  2 88  1  0  0  0
  3  4  1  0  0  0
  3 89  1  0  0  0
  3 90  1  0  0  0
  4  5  1  0  0  0
  4 91  1  0  0  0
  4 92  1  0  0  0
  5  6  1  0  0  0
  5 26  1  0  0  0
  5 93  1  0  0  0
  6 25  1  0  0  0
  6 94  1  0  0  0
  6 95  1  0  0  0
  7  8  2  0  0  0
  7 26  1  0  0  0
  7 29  1  0  0  0
  8  9  1  0  0  0
  8 22  1  0  0  0
  9 10  1  0  0  0
  9 27  2  0  0  0
 10 11  2  0  0  0
 10 15  1  0  0  0
 11 12  1  0  0  0
 11 96  1  0  0  0
 12 13  2  0  0  0
 12 97  1  0  0  0
 13 14  1  0  0  0
 13 31  1  0  0  0
 14 15  2  0  0  0
 14 98  1  0  0  0
 15 99  1  0  0  0
 16 17  2  0  0  0
 16 21  1  0  0  0
 16 31  1  0  0  0
 17 18  1  0  0  0
 17100  1  0  0  0
 18 19  2  0  0  0
 18101  1  0  0  0
 19 20  1  0  0  0
 19 24  1  0  0  0
 20 21  2  0  0  0
 20102  1  0  0  0
 21 23  1  0  0  0
 22 28  1  0  0  0
 22 32  2  0  0  0
 26 27  1  0  0  0
 28103  1  0  0  0
 28104  1  0  0  0
 29105  1  0  0  0
 29106  1  0  0  0
 33 34  1  0  0  0
 33 66  1  0  0  0
 33 70  2  0  0  0
 34 36  1  0  0  0
 34 59  1  0  0  0
 34107  1  0  0  0
 35 44  2  0  0  0
 35 45  1  0  0  0
 35 68  1  0  0  0
 36 56  1  0  0  0
 36108  1  0  0  0
 37 39  1  0  0  0
 37 47  1  0  0  0
 37 66  1  0  0  0
 37109  1  0  0  0
 38 43  2  0  0  0
 38 46  1  0  0  0
 38 47  1  0  0  0
 39 64  1  0  0  0
 39 67  2  0  0  0
 40 52  1  0  0  0
 40 53  2  0  0  0
 40 58  1  0  0  0
 41110  1  0  0  0
 41111  1  0  0  0
 41112  1  0  0  0
 41 48  1  0  0  0
 42 43  1  0  0  0
 42 66  1  0  0  0
 42113  1  0  0  0
 42114  1  0  0  0
 43 44  1  0  0  0
 44115  1  0  0  0
 45 46  2  0  0  0
 45116  1  0  0  0
 46117  1  0  0  0
 47118  1  0  0  0
 47119  1  0  0  0
 48 56  1  0  0  0
 48 65  1  0  0  0
 48120  1  0  0  0
 49 50  1  0  0  0
 49 53  1  0  0  0
 49 64  1  0  0  0
 49121  1  0  0  0
 50 51  1  0  0  0
 50122  1  0  0  0
 50123  1  0  0  0
 51 52  1  0  0  0
 51124  1  0  0  0
 51125  1  0  0  0
 52126  1  0  0  0
 52127  1  0  0  0
 53 54  1  0  0  0
 54 55  2  0  0  0
 54128  1  0  0  0
 55 57  1  0  0  0
 55129  1  0  0  0
 56 69  2  0  0  0
 57 58  2  0  0  0
 57130  1  0  0  0
 58131  1  0  0  0
 59 60  1  0  0  0
 59 61  1  0  0  0
 59 62  1  0  0  0
 60132  1  0  0  0
 60133  1  0  0  0
 60134  1  0  0  0
 61135  1  0  0  0
 61136  1  0  0  0
 61137  1  0  0  0
 62138  1  0  0  0
 62139  1  0  0  0
 62140  1  0  0  0
 63 65  1  0  0  0
 63141  1  0  0  0
 63142  1  0  0  0
 63143  1  0  0  0
 64144  1  0  0  0
 65145  1  0  0  0
 68 82  1  0  0  0
 71 72  2  0  0  0
 71 73  1  0  0  0
 71146  1  0  0  0
 72 74  1  0  0  0
 72 81  1  0  0  0
 73 75  2  0  0  0
 73 86  1  0  0  0
 74 83  2  0  0  0
 74 84  1  0  0  0
 75 83  1  0  0  0
 75 85  1  0  0  0
 76 77  1  0  0  0
 76 79  1  0  0  0
 76147  1  0  0  0
 76148  1  0  0  0
 77 84  1  0  0  0
 77149  1  0  0  0
 77150  1  0  0  0
 78 79  1  0  0  0
 78 84  1  0  0  0
 78151  1  0  0  0
 78152  1  0  0  0
 79 82  1  0  0  0
 79153  1  0  0  0
 80 81  1  0  0  0
 80154  1  0  0  0
 80155  1  0  0  0
 80156  1  0  0  0
 81157  1  0  0  0
 81158  1  0  0  0
 82159  1  0  0  0
 82160  1  0  0  0
 85161  1  0  0  0
 85162  1  0  0  0
 86163  1  0  0  0
M  ISO  4   1 100  68 101  82 101  86 100
M  END
> <chiral flag>
0

> <version>
0

> <s_m_source_file>
/data/baiqing/PycharmProjects/Reinvent-master-3.2/result/LINK_invent/BTK/process_docking_weight1_custom_product_contain_oxygen_bond_distance_aromatic_linkinvent_7_9_3/rearranged_h_0098.sdf

> <i_m_source_file_index>
47

> <r_mmod_Potential_Energy-OPLS-2005>
-211.320709228516

> <r_mmod_Stretch_Energy-OPLS-2005>
79.4934005737305

> <r_mmod_Bend_Energy-OPLS-2005>
180.158401489258

> <r_mmod_Torsional_Energy-OPLS-2005>
300.806945800781

> <r_mmod_Improper_Torsional_Energy-OPLS-2005>
11.9011936187744

> <r_mmod_Van_der_Waal_Energy-OPLS-2005>
142.416259765625

> <r_mmod_Electrostatic_Energy-OPLS-2005>
-759.690002441406

> <r_mmod_Solvation_Energy-OPLS-2005>
-223.721923828125

> <b_mmod_Minimization_Converged-OPLS-2005>
0

> <r_mmod_RMS_Derivative-OPLS-2005>
0.881000697612762

$$$$
47
                    3D
 Structure written by MMmdl.
160168  0  0  1  0            999 V2000
  -30.6822  -14.5485   20.4520 C   0  0  0  0  0  0
  -30.4198  -12.3287   19.4080 C   0  0  0  0  0  0
  -29.4882  -12.4777   18.1875 C   0  0  0  0  0  0
  -28.0078  -12.3447   18.6026 C   0  0  0  0  0  0
  -27.6494  -13.2108   19.8428 C   0  0  2  0  0  0
  -28.7058  -13.0699   20.9628 C   0  0  0  0  0  0
  -25.2532  -13.8171   20.5546 C   0  0  0  0  0  0
  -24.1829  -13.0433   20.9151 C   0  0  0  0  0  0
  -24.6409  -11.6919   20.8727 C   0  0  0  0  0  0
  -23.9086  -10.4304   21.0394 C   0  0  0  0  0  0
  -24.3647   -9.4230   21.9176 C   0  0  0  0  0  0
  -23.6321   -8.2268   22.0772 C   0  0  0  0  0  0
  -22.4302   -8.0293   21.3566 C   0  0  0  0  0  0
  -21.9921   -9.0254   20.4660 C   0  0  0  0  0  0
  -22.7253  -10.2133   20.3044 C   0  0  0  0  0  0
  -21.6866   -6.0754   22.5289 C   0  0  0  0  0  0
  -21.4034   -6.5653   23.8227 C   0  0  0  0  0  0
  -21.3642   -5.6796   24.9179 C   0  0  0  0  0  0
  -21.6030   -4.3056   24.7221 C   0  0  0  0  0  0
  -21.8826   -3.8153   23.4343 C   0  0  0  0  0  0
  -21.9220   -4.6982   22.3408 C   0  0  0  0  0  0
  -22.7860  -13.5250   21.1791 C   0  0  0  0  0  0
  -22.1682   -4.2170   21.0975 F   0  0  0  0  0  0
  -21.5611   -3.4531   25.7735 F   0  0  0  0  0  0
  -30.0163  -13.3629   20.3756 N   0  0  0  0  0  0
  -26.2989  -12.9357   20.3241 N   0  0  0  0  0  0
  -25.9343  -11.6525   20.5765 N   0  0  0  0  0  0
  -22.0502  -12.8267   22.0355 N   0  0  0  0  0  0
  -25.4080  -15.1882   20.3773 N   0  0  0  0  0  0
  -31.8972  -14.6252   20.2718 O   0  0  0  0  0  0
  -21.6675   -6.8891   21.4250 O   0  0  0  0  0  0
  -22.3527  -14.5520   20.6592 O   0  0  0  0  0  0
  -24.6166  -31.8638   23.2052 C   0  0  0  0  0  0
  -25.9032  -32.4813   23.8338 C   0  0  1  0  0  0
  -27.2332  -27.4053   20.1302 C   0  0  0  0  0  0
  -25.5872  -33.8592   24.2308 N   0  0  0  0  0  0
  -23.4055  -30.4851   21.5451 C   0  0  2  0  0  0
  -24.8542  -28.9382   20.1193 C   0  0  0  0  0  0
  -22.7387  -29.4687   22.4986 C   0  0  0  0  0  0
  -18.0292  -28.1408   22.8479 C   0  0  0  0  0  0
  -24.1475  -36.7347   23.2639 C   0  0  0  0  0  0
  -25.9313  -30.8231   21.3536 C   0  0  0  0  0  0
  -26.0124  -29.4478   20.7195 C   0  0  0  0  0  0
  -27.2084  -28.6876   20.7245 C   0  0  0  0  0  0
  -26.0656  -26.9165   19.5077 C   0  0  0  0  0  0
  -24.8769  -27.6728   19.5044 C   0  0  0  0  0  0
  -23.6156  -29.8064   20.1630 C   0  0  0  0  0  0
  -25.4094  -36.3137   24.0368 C   0  0  1  0  0  0
  -20.5875  -28.3700   23.1314 C   0  0  2  0  0  0
  -20.6820  -26.9456   22.5390 C   0  0  0  0  0  0
  -19.5816  -26.6421   21.5193 C   0  0  0  0  0  0
  -18.1971  -26.7970   22.1590 C   0  0  0  0  0  0
  -19.1531  -28.8876   23.2889 C   0  0  0  0  0  0
  -18.9454  -30.1474   23.8924 C   0  0  0  0  0  0
  -17.6463  -30.6618   24.0574 C   0  0  0  0  0  0
  -25.9002  -34.9485   23.5141 C   0  0  0  0  0  0
  -16.5363  -29.9123   23.6316 C   0  0  0  0  0  0
  -16.7274  -28.6522   23.0354 C   0  0  0  0  0  0
  -26.4465  -31.6570   25.0645 C   0  0  0  0  0  0
  -25.3713  -31.3667   26.1386 C   0  0  0  0  0  0
  -27.0287  -30.3039   24.5944 C   0  0  0  0  0  0
  -27.6071  -32.4240   25.7402 C   0  0  0  0  0  0
  -27.5603  -37.1828   24.8480 C   0  0  0  0  0  0
  -21.4126  -29.3063   22.3704 N   0  0  0  0  0  0
  -26.4297  -37.3821   23.9432 N   0  0  0  0  0  0
  -24.6700  -31.0727   22.0957 N   0  0  0  0  0  0
  -23.4121  -28.8239   23.3055 O   0  0  0  0  0  0
  -28.3782  -26.6335   20.1307 O   0  0  0  0  0  0
  -26.5573  -34.8967   22.4702 O   0  0  0  0  0  0
  -23.5362  -32.1377   23.7452 O   0  0  0  0  0  0
  -27.6649  -17.8266   21.9686 C   0  0  0  0  0  0
  -28.2794  -19.0878   21.8254 C   0  0  0  0  0  0
  -28.2683  -16.6691   21.4433 C   0  0  0  0  0  0
  -30.0733  -18.0405   20.5583 C   0  0  0  0  0  0
  -29.4992  -19.2264   21.1244 C   0  0  0  0  0  0
  -29.4781  -16.7534   20.7276 C   0  0  0  0  0  0
  -29.4815  -23.1039   21.0097 C   0  0  0  0  0  0
  -30.8988  -20.7381   22.4863 C   0  0  0  0  0  0
  -31.2861  -20.6980   20.0091 C   0  0  0  0  0  0
  -28.4171  -24.1033   20.4677 C   0  0  0  0  0  0
  -28.4074  -25.5472   21.0890 C   0  0  0  0  0  0
  -30.2052  -20.6191   21.1100 C   0  0  0  0  0  0
  -29.9753  -15.6150   20.0117 N   0  0  0  0  0  0
  -29.2594  -21.7612   20.8992 N   0  0  0  0  0  0
  -30.5280  -23.5588   21.4782 O   0  0  0  0  0  0
  -31.4594  -12.4374   19.0935 H   0  0  0  0  0  0
  -30.3389  -11.3313   19.8423 H   0  0  0  0  0  0
  -29.7289  -11.7366   17.4245 H   0  0  0  0  0  0
  -29.6470  -13.4507   17.7222 H   0  0  0  0  0  0
  -27.8096  -11.2921   18.8049 H   0  0  0  0  0  0
  -27.3628  -12.6120   17.7649 H   0  0  0  0  0  0
  -27.6658  -14.2428   19.4975 H   0  0  0  0  0  0
  -28.6964  -12.0641   21.3851 H   0  0  0  0  0  0
  -28.5006  -13.7438   21.7910 H   0  0  0  0  0  0
  -25.2803   -9.5738   22.4723 H   0  0  0  0  0  0
  -24.0052   -7.4686   22.7495 H   0  0  0  0  0  0
  -21.0861   -8.8764   19.8965 H   0  0  0  0  0  0
  -22.3710  -10.9668   19.6131 H   0  0  0  0  0  0
  -21.2027   -7.6164   23.9740 H   0  0  0  0  0  0
  -21.1439   -6.0519   25.9089 H   0  0  0  0  0  0
  -22.0612   -2.7621   23.2841 H   0  0  0  0  0  0
  -22.4143  -11.9981   22.4815 H   0  0  0  0  0  0
  -21.1081  -13.1255   22.2457 H   0  0  0  0  0  0
  -24.6154  -15.8186   20.4453 H   0  0  0  0  0  0
  -26.2427  -15.6366   20.0190 H   0  0  0  0  0  0
  -26.7085  -32.5554   23.1086 H   0  0  0  0  0  0
  -25.0093  -33.9672   25.0513 H   0  0  0  0  0  0
  -22.7000  -31.3049   21.3969 H   0  0  0  0  0  0
  -23.3750  -35.9666   23.3288 H   0  0  0  0  0  0
  -24.3588  -36.8922   22.2051 H   0  0  0  0  0  0
  -23.7172  -37.6544   23.6621 H   0  0  0  0  0  0
  -26.0173  -31.5659   20.5614 H   0  0  0  0  0  0
  -26.8329  -30.9116   21.9458 H   0  0  0  0  0  0
  -28.1018  -29.0677   21.1998 H   0  0  0  0  0  0
  -26.0742  -25.9422   19.0383 H   0  0  0  0  0  0
  -23.9890  -27.2765   19.0282 H   0  0  0  0  0  0
  -23.7291  -30.5740   19.3966 H   0  0  0  0  0  0
  -22.7420  -29.2201   19.8692 H   0  0  0  0  0  0
  -25.1258  -36.2023   25.0866 H   0  0  0  0  0  0
  -20.9961  -28.3295   24.1446 H   0  0  0  0  0  0
  -20.5791  -26.2306   23.3548 H   0  0  0  0  0  0
  -21.6692  -26.7585   22.1160 H   0  0  0  0  0  0
  -19.7010  -25.6320   21.1241 H   0  0  0  0  0  0
  -19.6797  -27.3225   20.6718 H   0  0  0  0  0  0
  -17.4251  -26.6705   21.3971 H   0  0  0  0  0  0
  -18.0419  -26.0093   22.8979 H   0  0  0  0  0  0
  -19.7929  -30.7266   24.2342 H   0  0  0  0  0  0
  -17.5026  -31.6301   24.5169 H   0  0  0  0  0  0
  -15.5379  -30.3047   23.7635 H   0  0  0  0  0  0
  -15.8656  -28.0828   22.7130 H   0  0  0  0  0  0
  -24.5964  -30.6915   25.7738 H   0  0  0  0  0  0
  -24.8835  -32.2822   26.4763 H   0  0  0  0  0  0
  -25.8078  -30.8907   27.0179 H   0  0  0  0  0  0
  -26.2807  -29.6771   24.1090 H   0  0  0  0  0  0
  -27.4243  -29.7258   25.4310 H   0  0  0  0  0  0
  -27.8542  -30.4423   23.8947 H   0  0  0  0  0  0
  -27.2787  -33.3604   26.1927 H   0  0  0  0  0  0
  -28.3951  -32.6655   25.0241 H   0  0  0  0  0  0
  -28.0669  -31.8334   26.5342 H   0  0  0  0  0  0
  -28.2645  -38.0112   24.7568 H   0  0  0  0  0  0
  -28.1070  -36.2656   24.6267 H   0  0  0  0  0  0
  -27.2326  -37.1440   25.8879 H   0  0  0  0  0  0
  -20.9305  -29.8633   21.6780 H   0  0  0  0  0  0
  -26.0217  -38.2914   24.1397 H   0  0  0  0  0  0
  -26.7148  -17.7465   22.4790 H   0  0  0  0  0  0
  -27.8131  -19.9471   22.2863 H   0  0  0  0  0  0
  -27.7530  -15.7289   21.5525 H   0  0  0  0  0  0
  -30.9794  -18.1028   19.9771 H   0  0  0  0  0  0
  -31.5686  -21.5943   22.5589 H   0  0  0  0  0  0
  -31.5135  -19.8603   22.6915 H   0  0  0  0  0  0
  -30.1679  -20.8179   23.2927 H   0  0  0  0  0  0
  -32.0934  -19.9834   20.1770 H   0  0  0  0  0  0
  -31.7615  -21.6784   19.9835 H   0  0  0  0  0  0
  -30.8645  -20.5152   19.0191 H   0  0  0  0  0  0
  -27.4253  -23.6599   20.5660 H   0  0  0  0  0  0
  -28.6172  -24.1983   19.4001 H   0  0  0  0  0  0
  -29.2961  -25.7156   21.6968 H   0  0  0  0  0  0
  -27.5734  -25.6322   21.7896 H   0  0  0  0  0  0
  -30.4816  -15.9397   19.2029 H   0  0  0  0  0  0
  -28.3646  -21.4910   20.5081 H   0  0  0  0  0  0
  1 25  1  0  0  0
  1 30  2  0  0  0
  1 83  1  0  0  0
  2  3  1  0  0  0
  2 25  1  0  0  0
  2 86  1  0  0  0
  2 87  1  0  0  0
  3  4  1  0  0  0
  3 88  1  0  0  0
  3 89  1  0  0  0
  4  5  1  0  0  0
  4 90  1  0  0  0
  4 91  1  0  0  0
  5  6  1  0  0  0
  5 26  1  0  0  0
  5 92  1  0  0  0
  6 25  1  0  0  0
  6 93  1  0  0  0
  6 94  1  0  0  0
  7  8  2  0  0  0
  7 26  1  0  0  0
  7 29  1  0  0  0
  8  9  1  0  0  0
  8 22  1  0  0  0
  9 10  1  0  0  0
  9 27  2  0  0  0
 10 11  2  0  0  0
 10 15  1  0  0  0
 11 12  1  0  0  0
 11 95  1  0  0  0
 12 13  2  0  0  0
 12 96  1  0  0  0
 13 14  1  0  0  0
 13 31  1  0  0  0
 14 15  2  0  0  0
 14 97  1  0  0  0
 15 98  1  0  0  0
 16 17  2  0  0  0
 16 21  1  0  0  0
 16 31  1  0  0  0
 17 18  1  0  0  0
 17 99  1  0  0  0
 18 19  2  0  0  0
 18100  1  0  0  0
 19 20  1  0  0  0
 19 24  1  0  0  0
 20 21  2  0  0  0
 20101  1  0  0  0
 21 23  1  0  0  0
 22 28  1  0  0  0
 22 32  2  0  0  0
 26 27  1  0  0  0
 28102  1  0  0  0
 28103  1  0  0  0
 29104  1  0  0  0
 29105  1  0  0  0
 33 34  1  0  0  0
 33 66  1  0  0  0
 33 70  2  0  0  0
 34 36  1  0  0  0
 34 59  1  0  0  0
 34106  1  0  0  0
 35 44  2  0  0  0
 35 45  1  0  0  0
 35 68  1  0  0  0
 36 56  1  0  0  0
 36107  1  0  0  0
 37 39  1  0  0  0
 37 47  1  0  0  0
 37 66  1  0  0  0
 37108  1  0  0  0
 38 43  2  0  0  0
 38 46  1  0  0  0
 38 47  1  0  0  0
 39 64  1  0  0  0
 39 67  2  0  0  0
 40 52  1  0  0  0
 40 53  2  0  0  0
 40 58  1  0  0  0
 41109  1  0  0  0
 41110  1  0  0  0
 41111  1  0  0  0
 41 48  1  0  0  0
 42 43  1  0  0  0
 42 66  1  0  0  0
 42112  1  0  0  0
 42113  1  0  0  0
 43 44  1  0  0  0
 44114  1  0  0  0
 45 46  2  0  0  0
 45115  1  0  0  0
 46116  1  0  0  0
 47117  1  0  0  0
 47118  1  0  0  0
 48 56  1  0  0  0
 48 65  1  0  0  0
 48119  1  0  0  0
 49 50  1  0  0  0
 49 53  1  0  0  0
 49 64  1  0  0  0
 49120  1  0  0  0
 50 51  1  0  0  0
 50121  1  0  0  0
 50122  1  0  0  0
 51 52  1  0  0  0
 51123  1  0  0  0
 51124  1  0  0  0
 52125  1  0  0  0
 52126  1  0  0  0
 53 54  1  0  0  0
 54 55  2  0  0  0
 54127  1  0  0  0
 55 57  1  0  0  0
 55128  1  0  0  0
 56 69  2  0  0  0
 57 58  2  0  0  0
 57129  1  0  0  0
 58130  1  0  0  0
 59 60  1  0  0  0
 59 61  1  0  0  0
 59 62  1  0  0  0
 60131  1  0  0  0
 60132  1  0  0  0
 60133  1  0  0  0
 61134  1  0  0  0
 61135  1  0  0  0
 61136  1  0  0  0
 62137  1  0  0  0
 62138  1  0  0  0
 62139  1  0  0  0
 63 65  1  0  0  0
 63140  1  0  0  0
 63141  1  0  0  0
 63142  1  0  0  0
 64143  1  0  0  0
 65144  1  0  0  0
 68 81  1  0  0  0
 71 72  2  0  0  0
 71 73  1  0  0  0
 71145  1  0  0  0
 72 75  1  0  0  0
 72146  1  0  0  0
 73 76  2  0  0  0
 73147  1  0  0  0
 74 75  2  0  0  0
 74 76  1  0  0  0
 74148  1  0  0  0
 75 82  1  0  0  0
 76 83  1  0  0  0
 77 80  1  0  0  0
 77 84  1  0  0  0
 77 85  2  0  0  0
 78149  1  0  0  0
 78150  1  0  0  0
 78151  1  0  0  0
 78 82  1  0  0  0
 79 82  1  0  0  0
 79152  1  0  0  0
 79153  1  0  0  0
 79154  1  0  0  0
 80 81  1  0  0  0
 80155  1  0  0  0
 80156  1  0  0  0
 81157  1  0  0  0
 81158  1  0  0  0
 82 84  1  0  0  0
 83159  1  0  0  0
 84160  1  0  0  0
M  ISO  4   1 100  68 101  81 101  83 100
M  END
> <chiral flag>
0

> <version>
0

> <s_m_source_file>
/data/baiqing/PycharmProjects/Reinvent-master-3.2/result/LINK_invent/BTK/process_docking_weight1_custom_product_contain_oxygen_bond_distance_aromatic_linkinvent_7_9_3/rearranged_h_0098.sdf

> <i_m_source_file_index>
48

> <r_mmod_Potential_Energy-OPLS-2005>
3.33602571487427

> <r_mmod_Stretch_Energy-OPLS-2005>
51.9238700866699

> <r_mmod_Bend_Energy-OPLS-2005>
130.794784545898

> <r_mmod_Torsional_Energy-OPLS-2005>
303.776733398438

> <r_mmod_Improper_Torsional_Energy-OPLS-2005>
33.3069152832031

> <r_mmod_Van_der_Waal_Energy-OPLS-2005>
143.193206787109

> <r_mmod_Electrostatic_Energy-OPLS-2005>
-478.387634277344

> <r_mmod_Solvation_Energy-OPLS-2005>
-213.205184936523

> <b_mmod_Minimization_Converged-OPLS-2005>
0

> <r_mmod_RMS_Derivative-OPLS-2005>
4.71642112731934

$$$$
48
                    3D
 Structure written by MMmdl.
156164  0  0  1  0            999 V2000
  -30.6551  -14.6054   20.5851 C   0  0  0  0  0  0
  -30.4364  -12.3974   19.4510 C   0  0  0  0  0  0
  -29.5079  -12.5383   18.2235 C   0  0  0  0  0  0
  -28.0281  -12.3693   18.6225 C   0  0  0  0  0  0
  -27.6560  -13.2125   19.8694 C   0  0  2  0  0  0
  -28.6915  -13.0042   20.9917 C   0  0  0  0  0  0
  -25.2562  -13.8169   20.5667 C   0  0  0  0  0  0
  -24.1822  -13.0440   20.9165 C   0  0  0  0  0  0
  -24.6386  -11.6904   20.8714 C   0  0  0  0  0  0
  -23.9056  -10.4294   21.0397 C   0  0  0  0  0  0
  -24.3608   -9.4216   21.9181 C   0  0  0  0  0  0
  -23.6285   -8.2249   22.0756 C   0  0  0  0  0  0
  -22.4268   -8.0285   21.3548 C   0  0  0  0  0  0
  -21.9900   -9.0256   20.4649 C   0  0  0  0  0  0
  -22.7223  -10.2135   20.3052 C   0  0  0  0  0  0
  -21.6850   -6.0737   22.5278 C   0  0  0  0  0  0
  -21.4010   -6.5642   23.8211 C   0  0  0  0  0  0
  -21.3658   -5.6798   24.9177 C   0  0  0  0  0  0
  -21.6048   -4.3059   24.7225 C   0  0  0  0  0  0
  -21.8820   -3.8149   23.4347 C   0  0  0  0  0  0
  -21.9192   -4.6966   22.3401 C   0  0  0  0  0  0
  -22.7848  -13.5235   21.1847 C   0  0  0  0  0  0
  -22.1661   -4.2146   21.0981 F   0  0  0  0  0  0
  -21.5633   -3.4545   25.7741 F   0  0  0  0  0  0
  -30.0159  -13.3888   20.4670 N   0  0  0  0  0  0
  -26.2986  -12.9339   20.3303 N   0  0  0  0  0  0
  -25.9308  -11.6492   20.5706 N   0  0  0  0  0  0
  -22.0495  -12.8229   22.0407 N   0  0  0  0  0  0
  -25.4292  -15.1888   20.4103 N   0  0  0  0  0  0
  -31.7361  -14.8146   20.0217 O   0  0  0  0  0  0
  -21.6640   -6.8875   21.4239 O   0  0  0  0  0  0
  -22.3533  -14.5546   20.6706 O   0  0  0  0  0  0
  -24.6250  -31.8602   23.2038 C   0  0  0  0  0  0
  -25.9106  -32.4778   23.8365 C   0  0  1  0  0  0
  -27.2289  -27.3411   20.1156 C   0  0  0  0  0  0
  -25.5925  -33.8578   24.2290 N   0  0  0  0  0  0
  -23.4178  -30.4829   21.5454 C   0  0  2  0  0  0
  -24.8646  -28.9340   20.1155 C   0  0  0  0  0  0
  -22.7465  -29.4628   22.4951 C   0  0  0  0  0  0
  -18.0283  -28.1382   22.8489 C   0  0  0  0  0  0
  -24.1480  -36.7294   23.2647 C   0  0  0  0  0  0
  -25.9562  -30.7971   21.3706 C   0  0  0  0  0  0
  -26.0321  -29.4251   20.7146 C   0  0  0  0  0  0
  -27.2201  -28.6407   20.7018 C   0  0  0  0  0  0
  -26.0424  -26.8893   19.5016 C   0  0  0  0  0  0
  -24.8692  -27.6690   19.5030 C   0  0  0  0  0  0
  -23.6322  -29.8134   20.1622 C   0  0  0  0  0  0
  -25.4105  -36.3076   24.0334 C   0  0  1  0  0  0
  -20.5883  -28.3689   23.1285 C   0  0  2  0  0  0
  -20.6765  -26.9415   22.5406 C   0  0  0  0  0  0
  -19.5742  -26.6384   21.5207 C   0  0  0  0  0  0
  -18.1922  -26.7928   22.1623 C   0  0  0  0  0  0
  -19.1535  -28.8851   23.2880 C   0  0  0  0  0  0
  -18.9461  -30.1451   23.8898 C   0  0  0  0  0  0
  -17.6462  -30.6587   24.0568 C   0  0  0  0  0  0
  -25.9047  -34.9450   23.5110 C   0  0  0  0  0  0
  -16.5352  -29.9084   23.6339 C   0  0  0  0  0  0
  -16.7270  -28.6499   23.0362 C   0  0  0  0  0  0
  -26.4506  -31.6591   25.0735 C   0  0  0  0  0  0
  -25.3747  -31.3700   26.1465 C   0  0  0  0  0  0
  -27.0403  -30.3036   24.6187 C   0  0  0  0  0  0
  -27.6051  -32.4348   25.7509 C   0  0  0  0  0  0
  -27.5577  -37.1790   24.8469 C   0  0  0  0  0  0
  -21.4182  -29.3043   22.3683 N   0  0  0  0  0  0
  -26.4281  -37.3771   23.9424 N   0  0  0  0  0  0
  -24.6851  -31.0633   22.0973 N   0  0  0  0  0  0
  -23.4192  -28.8178   23.3035 O   0  0  0  0  0  0
  -28.3571  -26.5193   20.1086 O   0  0  0  0  0  0
  -26.5617  -34.8920   22.4676 O   0  0  0  0  0  0
  -23.5417  -32.1398   23.7371 O   0  0  0  0  0  0
  -30.0567  -18.2615   21.9136 C   0  0  0  0  0  0
  -29.8280  -19.6240   21.5800 C   0  0  0  0  0  0
  -29.5302  -17.5907   19.6715 C   0  0  0  0  0  0
  -29.9077  -17.1932   20.9828 C   0  0  0  0  0  0
  -29.4255  -20.0109   20.2786 C   0  0  0  0  0  0
  -29.2910  -18.9657   19.3176 C   0  0  0  0  0  0
  -30.0161  -15.7355   21.4710 C   0  0  0  0  0  0
  -28.9322  -22.5352   20.5859 C   0  0  0  0  0  0
  -28.5884  -18.3580   17.0949 C   0  0  0  0  0  0
  -28.8302  -23.9268   19.8444 C   0  0  0  0  0  0
  -28.2148  -25.1533   20.6496 C   0  0  0  0  0  0
  -29.6433  -15.4860   22.6587 N   0  0  0  0  0  0
  -29.1923  -21.3973   19.8678 N   0  0  0  0  0  0
  -28.7656  -22.5050   21.8072 O   0  0  0  0  0  0
  -28.9041  -19.3618   18.0524 O   0  0  0  0  0  0
  -31.4771  -12.5265   19.1495 H   0  0  0  0  0  0
  -30.3790  -11.3882   19.8616 H   0  0  0  0  0  0
  -29.7761  -11.8052   17.4618 H   0  0  0  0  0  0
  -29.6528  -13.5196   17.7687 H   0  0  0  0  0  0
  -27.8566  -11.3117   18.8267 H   0  0  0  0  0  0
  -27.3787  -12.6262   17.7846 H   0  0  0  0  0  0
  -27.6945  -14.2602   19.5704 H   0  0  0  0  0  0
  -28.7068  -11.9569   21.2969 H   0  0  0  0  0  0
  -28.3844  -13.5391   21.8848 H   0  0  0  0  0  0
  -25.2750   -9.5701   22.4754 H   0  0  0  0  0  0
  -23.9997   -7.4647   22.7479 H   0  0  0  0  0  0
  -21.0828   -8.8771   19.8954 H   0  0  0  0  0  0
  -22.3676  -10.9676   19.6161 H   0  0  0  0  0  0
  -21.2000   -7.6152   23.9709 H   0  0  0  0  0  0
  -21.1483   -6.0535   25.9080 H   0  0  0  0  0  0
  -22.0602   -2.7611   23.2852 H   0  0  0  0  0  0
  -22.4100  -11.9881   22.4786 H   0  0  0  0  0  0
  -21.1119  -13.1267   22.2629 H   0  0  0  0  0  0
  -24.6686  -15.8481   20.5333 H   0  0  0  0  0  0
  -26.2937  -15.6306   20.1253 H   0  0  0  0  0  0
  -26.7176  -32.5460   23.1119 H   0  0  0  0  0  0
  -25.0064  -33.9714   25.0429 H   0  0  0  0  0  0
  -22.7111  -31.3031   21.4013 H   0  0  0  0  0  0
  -23.3744  -35.9624   23.3293 H   0  0  0  0  0  0
  -24.3567  -36.8933   22.2063 H   0  0  0  0  0  0
  -23.7228  -37.6484   23.6692 H   0  0  0  0  0  0
  -26.0851  -31.5594   20.6011 H   0  0  0  0  0  0
  -26.8368  -30.8461   21.9994 H   0  0  0  0  0  0
  -28.1219  -29.0163   21.1662 H   0  0  0  0  0  0
  -26.0207  -25.9207   19.0222 H   0  0  0  0  0  0
  -23.9733  -27.2852   19.0340 H   0  0  0  0  0  0
  -23.7528  -30.5886   19.4046 H   0  0  0  0  0  0
  -22.7515  -29.2423   19.8619 H   0  0  0  0  0  0
  -25.1280  -36.1913   25.0821 H   0  0  0  0  0  0
  -20.9983  -28.3265   24.1405 H   0  0  0  0  0  0
  -20.5656  -26.2304   23.3605 H   0  0  0  0  0  0
  -21.6632  -26.7439   22.1200 H   0  0  0  0  0  0
  -19.6896  -25.6293   21.1233 H   0  0  0  0  0  0
  -19.6667  -27.3191   20.6734 H   0  0  0  0  0  0
  -17.4190  -26.6688   21.4021 H   0  0  0  0  0  0
  -18.0313  -26.0060   22.9009 H   0  0  0  0  0  0
  -19.7944  -30.7264   24.2261 H   0  0  0  0  0  0
  -17.5026  -31.6264   24.5174 H   0  0  0  0  0  0
  -15.5354  -30.2991   23.7655 H   0  0  0  0  0  0
  -15.8673  -28.0814   22.7090 H   0  0  0  0  0  0
  -24.5920  -30.7056   25.7788 H   0  0  0  0  0  0
  -24.8942  -32.2854   26.4927 H   0  0  0  0  0  0
  -25.8078  -30.8851   27.0223 H   0  0  0  0  0  0
  -26.2994  -29.6712   24.1282 H   0  0  0  0  0  0
  -27.4212  -29.7354   25.4687 H   0  0  0  0  0  0
  -27.8800  -30.4368   23.9360 H   0  0  0  0  0  0
  -27.2655  -33.3659   26.2060 H   0  0  0  0  0  0
  -28.3871  -32.6884   25.0342 H   0  0  0  0  0  0
  -28.0715  -31.8498   26.5444 H   0  0  0  0  0  0
  -28.2567  -38.0114   24.7552 H   0  0  0  0  0  0
  -28.1093  -36.2642   24.6248 H   0  0  0  0  0  0
  -27.2303  -37.1381   25.8872 H   0  0  0  0  0  0
  -20.9360  -29.8770   21.6898 H   0  0  0  0  0  0
  -26.0157  -38.2837   24.1444 H   0  0  0  0  0  0
  -30.3439  -18.0396   22.9321 H   0  0  0  0  0  0
  -29.9686  -20.3686   22.3498 H   0  0  0  0  0  0
  -29.3945  -16.8062   18.9422 H   0  0  0  0  0  0
  -28.2341  -18.8316   16.1795 H   0  0  0  0  0  0
  -27.7927  -17.7011   17.4490 H   0  0  0  0  0  0
  -29.4632  -17.7599   16.8376 H   0  0  0  0  0  0
  -28.2643  -23.7884   18.9230 H   0  0  0  0  0  0
  -29.8425  -24.1907   19.5380 H   0  0  0  0  0  0
  -28.6972  -25.1859   21.6268 H   0  0  0  0  0  0
  -27.1708  -24.9271   20.8693 H   0  0  0  0  0  0
  -29.2768  -16.3189   23.1020 H   0  0  0  0  0  0
  -29.1945  -21.5253   18.8642 H   0  0  0  0  0  0
  1 25  1  0  0  0
  1 30  2  0  0  0
  1 77  1  0  0  0
  2  3  1  0  0  0
  2 25  1  0  0  0
  2 86  1  0  0  0
  2 87  1  0  0  0
  3  4  1  0  0  0
  3 88  1  0  0  0
  3 89  1  0  0  0
  4  5  1  0  0  0
  4 90  1  0  0  0
  4 91  1  0  0  0
  5  6  1  0  0  0
  5 26  1  0  0  0
  5 92  1  0  0  0
  6 25  1  0  0  0
  6 93  1  0  0  0
  6 94  1  0  0  0
  7  8  2  0  0  0
  7 26  1  0  0  0
  7 29  1  0  0  0
  8  9  1  0  0  0
  8 22  1  0  0  0
  9 10  1  0  0  0
  9 27  2  0  0  0
 10 11  2  0  0  0
 10 15  1  0  0  0
 11 12  1  0  0  0
 11 95  1  0  0  0
 12 13  2  0  0  0
 12 96  1  0  0  0
 13 14  1  0  0  0
 13 31  1  0  0  0
 14 15  2  0  0  0
 14 97  1  0  0  0
 15 98  1  0  0  0
 16 17  2  0  0  0
 16 21  1  0  0  0
 16 31  1  0  0  0
 17 18  1  0  0  0
 17 99  1  0  0  0
 18 19  2  0  0  0
 18100  1  0  0  0
 19 20  1  0  0  0
 19 24  1  0  0  0
 20 21  2  0  0  0
 20101  1  0  0  0
 21 23  1  0  0  0
 22 28  1  0  0  0
 22 32  2  0  0  0
 26 27  1  0  0  0
 28102  1  0  0  0
 28103  1  0  0  0
 29104  1  0  0  0
 29105  1  0  0  0
 33 34  1  0  0  0
 33 66  1  0  0  0
 33 70  2  0  0  0
 34 36  1  0  0  0
 34 59  1  0  0  0
 34106  1  0  0  0
 35 44  2  0  0  0
 35 45  1  0  0  0
 35 68  1  0  0  0
 36 56  1  0  0  0
 36107  1  0  0  0
 37 39  1  0  0  0
 37 47  1  0  0  0
 37 66  1  0  0  0
 37108  1  0  0  0
 38 43  2  0  0  0
 38 46  1  0  0  0
 38 47  1  0  0  0
 39 64  1  0  0  0
 39 67  2  0  0  0
 40 52  1  0  0  0
 40 53  2  0  0  0
 40 58  1  0  0  0
 41109  1  0  0  0
 41110  1  0  0  0
 41111  1  0  0  0
 41 48  1  0  0  0
 42 43  1  0  0  0
 42 66  1  0  0  0
 42112  1  0  0  0
 42113  1  0  0  0
 43 44  1  0  0  0
 44114  1  0  0  0
 45 46  2  0  0  0
 45115  1  0  0  0
 46116  1  0  0  0
 47117  1  0  0  0
 47118  1  0  0  0
 48 56  1  0  0  0
 48 65  1  0  0  0
 48119  1  0  0  0
 49 50  1  0  0  0
 49 53  1  0  0  0
 49 64  1  0  0  0
 49120  1  0  0  0
 50 51  1  0  0  0
 50121  1  0  0  0
 50122  1  0  0  0
 51 52  1  0  0  0
 51123  1  0  0  0
 51124  1  0  0  0
 52125  1  0  0  0
 52126  1  0  0  0
 53 54  1  0  0  0
 54 55  2  0  0  0
 54127  1  0  0  0
 55 57  1  0  0  0
 55128  1  0  0  0
 56 69  2  0  0  0
 57 58  2  0  0  0
 57129  1  0  0  0
 58130  1  0  0  0
 59 60  1  0  0  0
 59 61  1  0  0  0
 59 62  1  0  0  0
 60131  1  0  0  0
 60132  1  0  0  0
 60133  1  0  0  0
 61134  1  0  0  0
 61135  1  0  0  0
 61136  1  0  0  0
 62137  1  0  0  0
 62138  1  0  0  0
 62139  1  0  0  0
 63 65  1  0  0  0
 63140  1  0  0  0
 63141  1  0  0  0
 63142  1  0  0  0
 64143  1  0  0  0
 65144  1  0  0  0
 68 81  1  0  0  0
 71 72  2  0  0  0
 71 74  1  0  0  0
 71145  1  0  0  0
 72 75  1  0  0  0
 72146  1  0  0  0
 73 74  2  0  0  0
 73 76  1  0  0  0
 73147  1  0  0  0
 74 77  1  0  0  0
 75 76  2  0  0  0
 75 83  1  0  0  0
 76 85  1  0  0  0
 77 82  2  0  0  0
 78 80  1  0  0  0
 78 83  1  0  0  0
 78 84  2  0  0  0
 79 85  1  0  0  0
 79148  1  0  0  0
 79149  1  0  0  0
 79150  1  0  0  0
 80 81  1  0  0  0
 80151  1  0  0  0
 80152  1  0  0  0
 81153  1  0  0  0
 81154  1  0  0  0
 82155  1  0  0  0
 83156  1  0  0  0
M  ISO  4   1 100  68 101  77 100  81 101
M  END
> <chiral flag>
0

> <version>
0

> <s_m_source_file>
/data/baiqing/PycharmProjects/Reinvent-master-3.2/result/LINK_invent/BTK/process_docking_weight1_custom_product_contain_oxygen_bond_distance_aromatic_linkinvent_7_9_3/rearranged_h_0098.sdf

> <i_m_source_file_index>
49

> <r_mmod_Potential_Energy-OPLS-2005>
121.684242248535

> <r_mmod_Stretch_Energy-OPLS-2005>
84.4797134399414

> <r_mmod_Bend_Energy-OPLS-2005>
148.407470703125

> <r_mmod_Torsional_Energy-OPLS-2005>
226.339218139648

> <r_mmod_Improper_Torsional_Energy-OPLS-2005>
2.93477177619934

> <r_mmod_Van_der_Waal_Energy-OPLS-2005>
154.999938964844

> <r_mmod_Electrostatic_Energy-OPLS-2005>
-308.956481933594

> <r_mmod_Solvation_Energy-OPLS-2005>
-222.519378662109

> <b_mmod_Minimization_Converged-OPLS-2005>
0

> <r_mmod_RMS_Derivative-OPLS-2005>
1.01038479804993

$$$$
49
                    3D
 Structure written by MMmdl.
167176  0  0  1  0            999 V2000
  -30.7564  -14.6251   20.4611 C   0  0  0  0  0  0
  -30.4170  -12.3960   19.4362 C   0  0  0  0  0  0
  -29.4862  -12.4759   18.2125 C   0  0  0  0  0  0
  -28.0224  -12.2905   18.6537 C   0  0  0  0  0  0
  -27.6437  -13.1934   19.8546 C   0  0  2  0  0  0
  -28.7136  -13.1359   20.9765 C   0  0  0  0  0  0
  -25.2581  -13.8130   20.5713 C   0  0  0  0  0  0
  -24.1828  -13.0433   20.9215 C   0  0  0  0  0  0
  -24.6377  -11.6901   20.8803 C   0  0  0  0  0  0
  -23.9052  -10.4305   21.0432 C   0  0  0  0  0  0
  -24.3617   -9.4211   21.9195 C   0  0  0  0  0  0
  -23.6298   -8.2246   22.0753 C   0  0  0  0  0  0
  -22.4279   -8.0291   21.3552 C   0  0  0  0  0  0
  -21.9918   -9.0268   20.4654 C   0  0  0  0  0  0
  -22.7240  -10.2146   20.3074 C   0  0  0  0  0  0
  -21.6849   -6.0745   22.5283 C   0  0  0  0  0  0
  -21.4007   -6.5640   23.8215 C   0  0  0  0  0  0
  -21.3662   -5.6788   24.9169 C   0  0  0  0  0  0
  -21.6040   -4.3055   24.7216 C   0  0  0  0  0  0
  -21.8831   -3.8151   23.4341 C   0  0  0  0  0  0
  -21.9197   -4.6974   22.3397 C   0  0  0  0  0  0
  -22.7847  -13.5239   21.1839 C   0  0  0  0  0  0
  -22.1664   -4.2154   21.0979 F   0  0  0  0  0  0
  -21.5627   -3.4544   25.7728 F   0  0  0  0  0  0
  -30.0049  -13.4742   20.3640 N   0  0  0  0  0  0
  -26.2973  -12.9248   20.3410 N   0  0  0  0  0  0
  -25.9299  -11.6447   20.5902 N   0  0  0  0  0  0
  -22.0476  -12.8252   22.0399 N   0  0  0  0  0  0
  -25.4250  -15.1844   20.4005 N   0  0  0  0  0  0
  -31.9611  -14.5583   20.2181 O   0  0  0  0  0  0
  -21.6636   -6.8894   21.4249 O   0  0  0  0  0  0
  -22.3556  -14.5556   20.6683 O   0  0  0  0  0  0
  -24.6176  -31.8674   23.2102 C   0  0  0  0  0  0
  -25.9065  -32.4825   23.8410 C   0  0  1  0  0  0
  -27.2305  -27.4044   20.1071 C   0  0  0  0  0  0
  -25.5897  -33.8614   24.2326 N   0  0  0  0  0  0
  -23.4084  -30.4905   21.5499 C   0  0  2  0  0  0
  -24.8570  -28.9532   20.1195 C   0  0  0  0  0  0
  -22.7434  -29.4656   22.4981 C   0  0  0  0  0  0
  -18.0274  -28.1379   22.8494 C   0  0  0  0  0  0
  -24.1483  -36.7319   23.2638 C   0  0  0  0  0  0
  -25.9412  -30.8205   21.3728 C   0  0  0  0  0  0
  -26.0204  -29.4511   20.7227 C   0  0  0  0  0  0
  -27.2135  -28.6831   20.7249 C   0  0  0  0  0  0
  -26.0559  -26.9412   19.4845 C   0  0  0  0  0  0
  -24.8702  -27.6973   19.4957 C   0  0  0  0  0  0
  -23.6209  -29.8239   20.1658 C   0  0  0  0  0  0
  -25.4109  -36.3107   24.0335 C   0  0  1  0  0  0
  -20.5866  -28.3665   23.1307 C   0  0  2  0  0  0
  -20.6766  -26.9397   22.5414 C   0  0  0  0  0  0
  -19.5740  -26.6385   21.5214 C   0  0  0  0  0  0
  -18.1918  -26.7926   22.1625 C   0  0  0  0  0  0
  -19.1521  -28.8844   23.2895 C   0  0  0  0  0  0
  -18.9449  -30.1454   23.8909 C   0  0  0  0  0  0
  -17.6453  -30.6582   24.0567 C   0  0  0  0  0  0
  -25.9030  -34.9471   23.5127 C   0  0  0  0  0  0
  -16.5347  -29.9089   23.6327 C   0  0  0  0  0  0
  -16.7267  -28.6501   23.0353 C   0  0  0  0  0  0
  -26.4483  -31.6608   25.0745 C   0  0  0  0  0  0
  -25.3740  -31.3730   26.1487 C   0  0  0  0  0  0
  -27.0316  -30.3043   24.6141 C   0  0  0  0  0  0
  -27.6045  -32.4347   25.7496 C   0  0  0  0  0  0
  -27.5578  -37.1813   24.8464 C   0  0  0  0  0  0
  -21.4155  -29.3035   22.3715 N   0  0  0  0  0  0
  -26.4298  -37.3801   23.9396 N   0  0  0  0  0  0
  -24.6731  -31.0753   22.1022 N   0  0  0  0  0  0
  -23.4185  -28.8192   23.3031 O   0  0  0  0  0  0
  -28.3113  -26.5466   20.0196 O   0  0  0  0  0  0
  -26.5597  -34.8924   22.4692 O   0  0  0  0  0  0
  -23.5357  -32.1431   23.7473 O   0  0  0  0  0  0
  -30.2794  -19.2638   21.7374 C   0  0  0  0  0  0
  -30.9026  -19.2951   19.4025 C   0  0  0  0  0  0
  -30.1483  -20.6784   21.7207 C   0  0  0  0  0  0
  -30.7710  -20.7096   19.3858 C   0  0  0  0  0  0
  -30.7082  -18.5527   20.5948 C   0  0  0  0  0  0
  -30.4562  -21.4310   20.5640 C   0  0  0  0  0  0
  -32.6019  -23.3203   22.1777 C   0  0  0  0  0  0
  -31.6273  -24.0628   23.0954 C   0  0  0  0  0  0
  -32.1577  -23.1105   20.7332 C   0  0  0  0  0  0
  -30.9869  -25.2825   22.3968 C   0  0  0  0  0  0
  -29.8141  -23.9560   20.3853 C   0  0  0  0  0  0
  -29.7135  -25.0499   21.5266 C   0  0  2  0  0  0
  -28.8054  -16.2562   20.3888 C   0  0  0  0  0  0
  -31.1531  -17.0624   20.6931 C   0  0  0  0  0  0
  -29.2812  -26.4933   21.0622 C   0  0  0  0  0  0
  -30.7274  -22.8206   20.6640 N   0  0  0  0  0  0
  -30.2046  -15.8898   20.6280 N   0  0  0  0  0  0
  -33.6960  -22.9223   22.5847 O   0  0  0  0  0  0
  -31.4545  -12.4768   19.1102 H   0  0  0  0  0  0
  -30.3406  -11.4173   19.9115 H   0  0  0  0  0  0
  -29.7523  -11.7048   17.4857 H   0  0  0  0  0  0
  -29.6175  -13.4386   17.7119 H   0  0  0  0  0  0
  -27.8971  -11.2424   18.9345 H   0  0  0  0  0  0
  -27.3477  -12.4721   17.8179 H   0  0  0  0  0  0
  -27.6153  -14.1871   19.4295 H   0  0  0  0  0  0
  -28.7550  -12.1383   21.4144 H   0  0  0  0  0  0
  -28.4864  -13.7968   21.8122 H   0  0  0  0  0  0
  -25.2779   -9.5668   22.4759 H   0  0  0  0  0  0
  -24.0004   -7.4637   22.7470 H   0  0  0  0  0  0
  -21.0853   -8.8816   19.8958 H   0  0  0  0  0  0
  -22.3736  -10.9693   19.6190 H   0  0  0  0  0  0
  -21.1995   -7.6149   23.9717 H   0  0  0  0  0  0
  -21.1457   -6.0518   25.9077 H   0  0  0  0  0  0
  -22.0604   -2.7617   23.2835 H   0  0  0  0  0  0
  -22.4094  -11.9932   22.4811 H   0  0  0  0  0  0
  -21.1091  -13.1269   22.2581 H   0  0  0  0  0  0
  -24.6574  -15.8377   20.5143 H   0  0  0  0  0  0
  -26.2762  -15.6246   20.0803 H   0  0  0  0  0  0
  -26.7129  -32.5518   23.1159 H   0  0  0  0  0  0
  -25.0045  -33.9788   25.0465 H   0  0  0  0  0  0
  -22.6986  -31.3080   21.4107 H   0  0  0  0  0  0
  -23.3734  -35.9663   23.3334 H   0  0  0  0  0  0
  -24.3570  -36.8905   22.2045 H   0  0  0  0  0  0
  -23.7251  -37.6541   23.6640 H   0  0  0  0  0  0
  -26.0602  -31.5833   20.6017 H   0  0  0  0  0  0
  -26.8277  -30.8759   21.9958 H   0  0  0  0  0  0
  -28.1074  -29.0752   21.1898 H   0  0  0  0  0  0
  -26.0573  -25.9745   18.9994 H   0  0  0  0  0  0
  -23.9805  -27.3076   19.0213 H   0  0  0  0  0  0
  -23.7343  -30.5994   19.4069 H   0  0  0  0  0  0
  -22.7444  -29.2456   19.8675 H   0  0  0  0  0  0
  -25.1291  -36.1982   25.0836 H   0  0  0  0  0  0
  -20.9958  -28.3237   24.1428 H   0  0  0  0  0  0
  -20.5663  -26.2279   23.3605 H   0  0  0  0  0  0
  -21.6636  -26.7442   22.1206 H   0  0  0  0  0  0
  -19.6902  -25.6300   21.1232 H   0  0  0  0  0  0
  -19.6682  -27.3206   20.6748 H   0  0  0  0  0  0
  -17.4193  -26.6673   21.4026 H   0  0  0  0  0  0
  -18.0323  -26.0067   22.9015 H   0  0  0  0  0  0
  -19.7933  -30.7255   24.2280 H   0  0  0  0  0  0
  -17.5016  -31.6258   24.5163 H   0  0  0  0  0  0
  -15.5348  -30.2988   23.7656 H   0  0  0  0  0  0
  -15.8664  -28.0825   22.7066 H   0  0  0  0  0  0
  -24.5893  -30.7107   25.7823 H   0  0  0  0  0  0
  -24.8960  -32.2893   26.4953 H   0  0  0  0  0  0
  -25.8084  -30.8878   27.0230 H   0  0  0  0  0  0
  -26.2871  -29.6804   24.1177 H   0  0  0  0  0  0
  -27.4050  -29.7293   25.4620 H   0  0  0  0  0  0
  -27.8727  -30.4357   23.9331 H   0  0  0  0  0  0
  -27.2647  -33.3626   26.2105 H   0  0  0  0  0  0
  -28.3824  -32.6942   25.0308 H   0  0  0  0  0  0
  -28.0745  -31.8462   26.5380 H   0  0  0  0  0  0
  -28.2614  -38.0090   24.7490 H   0  0  0  0  0  0
  -28.1058  -36.2618   24.6324 H   0  0  0  0  0  0
  -27.2292  -37.1514   25.8869 H   0  0  0  0  0  0
  -20.9322  -29.8758   21.6928 H   0  0  0  0  0  0
  -26.0186  -38.2887   24.1385 H   0  0  0  0  0  0
  -30.1313  -18.7365   22.6684 H   0  0  0  0  0  0
  -31.2495  -18.7979   18.5060 H   0  0  0  0  0  0
  -29.9059  -21.1896   22.6402 H   0  0  0  0  0  0
  -31.0199  -21.2450   18.4798 H   0  0  0  0  0  0
  -32.1932  -24.3994   23.9652 H   0  0  0  0  0  0
  -30.8661  -23.3728   23.4591 H   0  0  0  0  0  0
  -32.7410  -22.3030   20.2920 H   0  0  0  0  0  0
  -32.3827  -24.0116   20.1625 H   0  0  0  0  0  0
  -31.7470  -25.7984   21.8079 H   0  0  0  0  0  0
  -30.7256  -25.9876   23.1864 H   0  0  0  0  0  0
  -30.1468  -24.4384   19.4648 H   0  0  0  0  0  0
  -28.8110  -23.5832   20.1585 H   0  0  0  0  0  0
  -28.9359  -24.6889   22.2029 H   0  0  0  0  0  0
  -28.1205  -15.7299   21.0478 H   0  0  0  0  0  0
  -28.5517  -16.0804   19.3421 H   0  0  0  0  0  0
  -28.5798  -17.3028   20.5720 H   0  0  0  0  0  0
  -31.7186  -16.9670   21.6206 H   0  0  0  0  0  0
  -31.8926  -16.9513   19.8967 H   0  0  0  0  0  0
  -30.1490  -27.0365   20.6834 H   0  0  0  0  0  0
  -28.9438  -27.0475   21.9402 H   0  0  0  0  0  0
  1 25  1  0  0  0
  1 30  2  0  0  0
  1 87  1  0  0  0
  2  3  1  0  0  0
  2 25  1  0  0  0
  2 89  1  0  0  0
  2 90  1  0  0  0
  3  4  1  0  0  0
  3 91  1  0  0  0
  3 92  1  0  0  0
  4  5  1  0  0  0
  4 93  1  0  0  0
  4 94  1  0  0  0
  5  6  1  0  0  0
  5 26  1  0  0  0
  5 95  1  0  0  0
  6 25  1  0  0  0
  6 96  1  0  0  0
  6 97  1  0  0  0
  7  8  2  0  0  0
  7 26  1  0  0  0
  7 29  1  0  0  0
  8  9  1  0  0  0
  8 22  1  0  0  0
  9 10  1  0  0  0
  9 27  2  0  0  0
 10 11  2  0  0  0
 10 15  1  0  0  0
 11 12  1  0  0  0
 11 98  1  0  0  0
 12 13  2  0  0  0
 12 99  1  0  0  0
 13 14  1  0  0  0
 13 31  1  0  0  0
 14 15  2  0  0  0
 14100  1  0  0  0
 15101  1  0  0  0
 16 17  2  0  0  0
 16 21  1  0  0  0
 16 31  1  0  0  0
 17 18  1  0  0  0
 17102  1  0  0  0
 18 19  2  0  0  0
 18103  1  0  0  0
 19 20  1  0  0  0
 19 24  1  0  0  0
 20 21  2  0  0  0
 20104  1  0  0  0
 21 23  1  0  0  0
 22 28  1  0  0  0
 22 32  2  0  0  0
 26 27  1  0  0  0
 28105  1  0  0  0
 28106  1  0  0  0
 29107  1  0  0  0
 29108  1  0  0  0
 33 34  1  0  0  0
 33 66  1  0  0  0
 33 70  2  0  0  0
 34 36  1  0  0  0
 34 59  1  0  0  0
 34109  1  0  0  0
 35 44  2  0  0  0
 35 45  1  0  0  0
 35 68  1  0  0  0
 36 56  1  0  0  0
 36110  1  0  0  0
 37 39  1  0  0  0
 37 47  1  0  0  0
 37 66  1  0  0  0
 37111  1  0  0  0
 38 43  2  0  0  0
 38 46  1  0  0  0
 38 47  1  0  0  0
 39 64  1  0  0  0
 39 67  2  0  0  0
 40 52  1  0  0  0
 40 53  2  0  0  0
 40 58  1  0  0  0
 41112  1  0  0  0
 41113  1  0  0  0
 41114  1  0  0  0
 41 48  1  0  0  0
 42 43  1  0  0  0
 42 66  1  0  0  0
 42115  1  0  0  0
 42116  1  0  0  0
 43 44  1  0  0  0
 44117  1  0  0  0
 45 46  2  0  0  0
 45118  1  0  0  0
 46119  1  0  0  0
 47120  1  0  0  0
 47121  1  0  0  0
 48 56  1  0  0  0
 48 65  1  0  0  0
 48122  1  0  0  0
 49 50  1  0  0  0
 49 53  1  0  0  0
 49 64  1  0  0  0
 49123  1  0  0  0
 50 51  1  0  0  0
 50124  1  0  0  0
 50125  1  0  0  0
 51 52  1  0  0  0
 51126  1  0  0  0
 51127  1  0  0  0
 52128  1  0  0  0
 52129  1  0  0  0
 53 54  1  0  0  0
 54 55  2  0  0  0
 54130  1  0  0  0
 55 57  1  0  0  0
 55131  1  0  0  0
 56 69  2  0  0  0
 57 58  2  0  0  0
 57132  1  0  0  0
 58133  1  0  0  0
 59 60  1  0  0  0
 59 61  1  0  0  0
 59 62  1  0  0  0
 60134  1  0  0  0
 60135  1  0  0  0
 60136  1  0  0  0
 61137  1  0  0  0
 61138  1  0  0  0
 61139  1  0  0  0
 62140  1  0  0  0
 62141  1  0  0  0
 62142  1  0  0  0
 63 65  1  0  0  0
 63143  1  0  0  0
 63144  1  0  0  0
 63145  1  0  0  0
 64146  1  0  0  0
 65147  1  0  0  0
 68 85  1  0  0  0
 71 73  2  0  0  0
 71 75  1  0  0  0
 71148  1  0  0  0
 72 74  1  0  0  0
 72 75  2  0  0  0
 72149  1  0  0  0
 73 76  1  0  0  0
 73150  1  0  0  0
 74 76  2  0  0  0
 74151  1  0  0  0
 75 84  1  0  0  0
 76 86  1  0  0  0
 77 78  1  0  0  0
 77 79  1  0  0  0
 77 88  2  0  0  0
 78 80  1  0  0  0
 78152  1  0  0  0
 78153  1  0  0  0
 79 86  1  0  0  0
 79154  1  0  0  0
 79155  1  0  0  0
 80 82  1  0  0  0
 80156  1  0  0  0
 80157  1  0  0  0
 81 82  1  0  0  0
 81 86  1  0  0  0
 81158  1  0  0  0
 81159  1  0  0  0
 82 85  1  0  0  0
 82160  1  0  0  0
 83 87  1  0  0  0
 83161  1  0  0  0
 83162  1  0  0  0
 83163  1  0  0  0
 84 87  1  0  0  0
 84164  1  0  0  0
 84165  1  0  0  0
 85166  1  0  0  0
 85167  1  0  0  0
M  ISO  4   1 100  68 101  85 101  87 100
M  END
> <chiral flag>
0

> <version>
0

> <s_m_source_file>
/data/baiqing/PycharmProjects/Reinvent-master-3.2/result/LINK_invent/BTK/process_docking_weight1_custom_product_contain_oxygen_bond_distance_aromatic_linkinvent_7_9_3/rearranged_h_0098.sdf

> <i_m_source_file_index>
50

> <r_mmod_Potential_Energy-OPLS-2005>
292.39453125

> <r_mmod_Stretch_Energy-OPLS-2005>
62.9463844299316

> <r_mmod_Bend_Energy-OPLS-2005>
185.686935424805

> <r_mmod_Torsional_Energy-OPLS-2005>
334.319396972656

> <r_mmod_Improper_Torsional_Energy-OPLS-2005>
8.44705200195312

> <r_mmod_Van_der_Waal_Energy-OPLS-2005>
167.773239135742

> <r_mmod_Electrostatic_Energy-OPLS-2005>
-296.646850585938

> <r_mmod_Solvation_Energy-OPLS-2005>
-217.181686401367

> <b_mmod_Minimization_Converged-OPLS-2005>
0

> <r_mmod_RMS_Derivative-OPLS-2005>
4.10820579528809

$$$$
50
                    3D
 Structure written by MMmdl.
154162  0  0  1  0            999 V2000
  -30.6615  -14.7318   20.4416 C   0  0  0  0  0  0
  -30.4230  -12.4478   19.4741 C   0  0  0  0  0  0
  -29.5032  -12.5099   18.2355 C   0  0  0  0  0  0
  -28.0309  -12.3389   18.6530 C   0  0  0  0  0  0
  -27.6421  -13.2407   19.8542 C   0  0  2  0  0  0
  -28.6927  -13.1915   20.9863 C   0  0  0  0  0  0
  -25.2502  -13.8212   20.5724 C   0  0  0  0  0  0
  -24.1804  -13.0449   20.9210 C   0  0  0  0  0  0
  -24.6409  -11.6928   20.8756 C   0  0  0  0  0  0
  -23.9089  -10.4298   21.0393 C   0  0  0  0  0  0
  -24.3630   -9.4212   21.9174 C   0  0  0  0  0  0
  -23.6297   -8.2244   22.0749 C   0  0  0  0  0  0
  -22.4274   -8.0286   21.3539 C   0  0  0  0  0  0
  -21.9924   -9.0265   20.4637 C   0  0  0  0  0  0
  -22.7258  -10.2136   20.3048 C   0  0  0  0  0  0
  -21.6861   -6.0729   22.5265 C   0  0  0  0  0  0
  -21.4019   -6.5636   23.8198 C   0  0  0  0  0  0
  -21.3668   -5.6791   24.9170 C   0  0  0  0  0  0
  -21.6035   -4.3051   24.7222 C   0  0  0  0  0  0
  -21.8825   -3.8140   23.4344 C   0  0  0  0  0  0
  -21.9195   -4.6952   22.3396 C   0  0  0  0  0  0
  -22.7817  -13.5205   21.1889 C   0  0  0  0  0  0
  -22.1661   -4.2138   21.0970 F   0  0  0  0  0  0
  -21.5638   -3.4538   25.7742 F   0  0  0  0  0  0
  -29.9967  -13.5247   20.3980 N   0  0  0  0  0  0
  -26.2956  -12.9450   20.3331 N   0  0  0  0  0  0
  -25.9354  -11.6580   20.5786 N   0  0  0  0  0  0
  -22.0489  -12.8165   22.0434 N   0  0  0  0  0  0
  -25.4164  -15.1947   20.4144 N   0  0  0  0  0  0
  -31.8580  -14.7600   20.1474 O   0  0  0  0  0  0
  -21.6640   -6.8875   21.4226 O   0  0  0  0  0  0
  -22.3488  -14.5513   20.6738 O   0  0  0  0  0  0
  -24.6298  -31.8567   23.2030 C   0  0  0  0  0  0
  -25.9138  -32.4776   23.8343 C   0  0  1  0  0  0
  -27.2206  -27.2690   20.1332 C   0  0  0  0  0  0
  -25.5960  -33.8570   24.2286 N   0  0  0  0  0  0
  -23.4269  -30.4814   21.5443 C   0  0  2  0  0  0
  -24.8766  -28.9390   20.1031 C   0  0  0  0  0  0
  -22.7512  -29.4583   22.4900 C   0  0  0  0  0  0
  -18.0290  -28.1394   22.8461 C   0  0  0  0  0  0
  -24.1498  -36.7283   23.2639 C   0  0  0  0  0  0
  -25.9728  -30.7724   21.3860 C   0  0  0  0  0  0
  -26.0455  -29.3965   20.7248 C   0  0  0  0  0  0
  -27.2151  -28.5722   20.7338 C   0  0  0  0  0  0
  -26.0371  -26.8934   19.4534 C   0  0  0  0  0  0
  -24.8793  -27.6962   19.4529 C   0  0  0  0  0  0
  -23.6467  -29.8255   20.1550 C   0  0  0  0  0  0
  -25.4123  -36.3079   24.0334 C   0  0  1  0  0  0
  -20.5887  -28.3701   23.1264 C   0  0  2  0  0  0
  -20.6780  -26.9406   22.5409 C   0  0  0  0  0  0
  -19.5762  -26.6378   21.5213 C   0  0  0  0  0  0
  -18.1926  -26.7939   22.1604 C   0  0  0  0  0  0
  -19.1545  -28.8858   23.2851 C   0  0  0  0  0  0
  -18.9469  -30.1445   23.8888 C   0  0  0  0  0  0
  -17.6466  -30.6590   24.0546 C   0  0  0  0  0  0
  -25.9051  -34.9448   23.5099 C   0  0  0  0  0  0
  -16.5349  -29.9085   23.6332 C   0  0  0  0  0  0
  -16.7276  -28.6506   23.0342 C   0  0  0  0  0  0
  -26.4523  -31.6601   25.0730 C   0  0  0  0  0  0
  -25.3748  -31.3708   26.1451 C   0  0  0  0  0  0
  -27.0393  -30.3025   24.6212 C   0  0  0  0  0  0
  -27.6086  -32.4331   25.7487 C   0  0  0  0  0  0
  -27.5584  -37.1787   24.8462 C   0  0  0  0  0  0
  -21.4213  -29.3043   22.3656 N   0  0  0  0  0  0
  -26.4296  -37.3782   23.9406 N   0  0  0  0  0  0
  -24.6944  -31.0549   22.1006 N   0  0  0  0  0  0
  -23.4234  -28.8104   23.2969 O   0  0  0  0  0  0
  -28.3147  -26.3748   20.2423 O   0  0  0  0  0  0
  -26.5611  -34.8924   22.4667 O   0  0  0  0  0  0
  -23.5457  -32.1379   23.7339 O   0  0  0  0  0  0
  -31.3071  -17.5918   19.3324 C   0  0  0  0  0  0
  -30.9363  -20.0222   19.4469 C   0  0  0  0  0  0
  -29.5699  -18.4963   20.7616 C   0  0  0  0  0  0
  -31.6432  -18.9098   18.9445 C   0  0  0  0  0  0
  -30.2760  -17.3217   20.2680 C   0  0  0  0  0  0
  -29.8637  -19.8653   20.3529 C   0  0  0  0  0  0
  -32.7957  -19.1372   17.9813 C   0  0  0  0  0  0
  -28.9260  -23.7242   20.6923 C   0  0  0  0  0  0
  -28.1607  -24.9142   19.9091 C   0  0  0  0  0  0
  -28.9022  -22.2327   20.0553 C   0  0  0  0  0  0
  -29.9467  -15.9101   20.6390 N   0  0  0  0  0  0
  -29.2016  -21.0165   20.8735 O   0  0  0  0  0  0
  -31.4655  -12.5469   19.1680 H   0  0  0  0  0  0
  -30.3472  -11.4761   19.9647 H   0  0  0  0  0  0
  -29.7805  -11.7364   17.5172 H   0  0  0  0  0  0
  -29.6296  -13.4653   17.7234 H   0  0  0  0  0  0
  -27.8852  -11.2911   18.9168 H   0  0  0  0  0  0
  -27.3715  -12.5315   17.8056 H   0  0  0  0  0  0
  -27.6318  -14.2600   19.4689 H   0  0  0  0  0  0
  -28.7255  -12.2034   21.4467 H   0  0  0  0  0  0
  -28.4370  -13.8920   21.7826 H   0  0  0  0  0  0
  -25.2778   -9.5682   22.4754 H   0  0  0  0  0  0
  -24.0004   -7.4636   22.7480 H   0  0  0  0  0  0
  -21.0854   -8.8782   19.8949 H   0  0  0  0  0  0
  -22.3715  -10.9674   19.6160 H   0  0  0  0  0  0
  -21.2009   -7.6148   23.9698 H   0  0  0  0  0  0
  -21.1489   -6.0524   25.9067 H   0  0  0  0  0  0
  -22.0597   -2.7600   23.2847 H   0  0  0  0  0  0
  -22.4136  -11.9809   22.4770 H   0  0  0  0  0  0
  -21.1119  -13.1162   22.2697 H   0  0  0  0  0  0
  -24.6454  -15.8457   20.5212 H   0  0  0  0  0  0
  -26.2635  -15.6372   20.0817 H   0  0  0  0  0  0
  -26.7205  -32.5447   23.1073 H   0  0  0  0  0  0
  -25.0133  -33.9684   25.0455 H   0  0  0  0  0  0
  -22.7218  -31.3029   21.4030 H   0  0  0  0  0  0
  -23.3769  -35.9602   23.3311 H   0  0  0  0  0  0
  -24.3565  -36.8906   22.2045 H   0  0  0  0  0  0
  -23.7232  -37.6477   23.6665 H   0  0  0  0  0  0
  -26.1095  -31.5378   20.6203 H   0  0  0  0  0  0
  -26.8495  -30.8193   22.0209 H   0  0  0  0  0  0
  -28.1026  -28.9057   21.2527 H   0  0  0  0  0  0
  -25.9668  -25.9602   18.9152 H   0  0  0  0  0  0
  -23.9909  -27.3509   18.9404 H   0  0  0  0  0  0
  -23.7750  -30.6096   19.4077 H   0  0  0  0  0  0
  -22.7646  -29.2627   19.8449 H   0  0  0  0  0  0
  -25.1290  -36.1936   25.0827 H   0  0  0  0  0  0
  -20.9941  -28.3320   24.1401 H   0  0  0  0  0  0
  -20.5720  -26.2293   23.3624 H   0  0  0  0  0  0
  -21.6654  -26.7469   22.1175 H   0  0  0  0  0  0
  -19.6936  -25.6290   21.1250 H   0  0  0  0  0  0
  -19.6740  -27.3195   20.6751 H   0  0  0  0  0  0
  -17.4205  -26.6671   21.3992 H   0  0  0  0  0  0
  -18.0296  -26.0088   22.9007 H   0  0  0  0  0  0
  -19.7951  -30.7212   24.2301 H   0  0  0  0  0  0
  -17.5050  -31.6291   24.5127 H   0  0  0  0  0  0
  -15.5358  -30.2984   23.7694 H   0  0  0  0  0  0
  -15.8662  -28.0836   22.7069 H   0  0  0  0  0  0
  -24.5954  -30.7032   25.7768 H   0  0  0  0  0  0
  -24.8888  -32.2850   26.4876 H   0  0  0  0  0  0
  -25.8064  -30.8890   27.0241 H   0  0  0  0  0  0
  -26.2992  -29.6709   24.1286 H   0  0  0  0  0  0
  -27.4147  -29.7337   25.4727 H   0  0  0  0  0  0
  -27.8844  -30.4303   23.9435 H   0  0  0  0  0  0
  -27.2749  -33.3674   26.2013 H   0  0  0  0  0  0
  -28.3927  -32.6810   25.0325 H   0  0  0  0  0  0
  -28.0740  -31.8482   26.5432 H   0  0  0  0  0  0
  -28.2580  -38.0104   24.7524 H   0  0  0  0  0  0
  -28.1091  -36.2616   24.6277 H   0  0  0  0  0  0
  -27.2278  -37.1443   25.8860 H   0  0  0  0  0  0
  -20.9400  -29.8802   21.6885 H   0  0  0  0  0  0
  -26.0184  -38.2851   24.1446 H   0  0  0  0  0  0
  -31.8687  -16.7860   18.8844 H   0  0  0  0  0  0
  -31.2582  -21.0110   19.1486 H   0  0  0  0  0  0
  -28.7765  -18.3470   21.4791 H   0  0  0  0  0  0
  -32.9155  -18.2979   17.2960 H   0  0  0  0  0  0
  -33.7286  -19.2595   18.5319 H   0  0  0  0  0  0
  -32.6370  -20.0367   17.3852 H   0  0  0  0  0  0
  -28.4989  -23.6735   21.6941 H   0  0  0  0  0  0
  -29.9652  -24.0151   20.8399 H   0  0  0  0  0  0
  -27.1169  -24.6263   20.0038 H   0  0  0  0  0  0
  -28.4022  -24.8188   18.8514 H   0  0  0  0  0  0
  -29.5003  -22.2509   19.1464 H   0  0  0  0  0  0
  -27.8835  -22.0648   19.7061 H   0  0  0  0  0  0
  -29.0142  -15.7714   20.9980 H   0  0  0  0  0  0
  1 25  1  0  0  0
  1 30  2  0  0  0
  1 81  1  0  0  0
  2  3  1  0  0  0
  2 25  1  0  0  0
  2 83  1  0  0  0
  2 84  1  0  0  0
  3  4  1  0  0  0
  3 85  1  0  0  0
  3 86  1  0  0  0
  4  5  1  0  0  0
  4 87  1  0  0  0
  4 88  1  0  0  0
  5  6  1  0  0  0
  5 26  1  0  0  0
  5 89  1  0  0  0
  6 25  1  0  0  0
  6 90  1  0  0  0
  6 91  1  0  0  0
  7  8  2  0  0  0
  7 26  1  0  0  0
  7 29  1  0  0  0
  8  9  1  0  0  0
  8 22  1  0  0  0
  9 10  1  0  0  0
  9 27  2  0  0  0
 10 11  2  0  0  0
 10 15  1  0  0  0
 11 12  1  0  0  0
 11 92  1  0  0  0
 12 13  2  0  0  0
 12 93  1  0  0  0
 13 14  1  0  0  0
 13 31  1  0  0  0
 14 15  2  0  0  0
 14 94  1  0  0  0
 15 95  1  0  0  0
 16 17  2  0  0  0
 16 21  1  0  0  0
 16 31  1  0  0  0
 17 18  1  0  0  0
 17 96  1  0  0  0
 18 19  2  0  0  0
 18 97  1  0  0  0
 19 20  1  0  0  0
 19 24  1  0  0  0
 20 21  2  0  0  0
 20 98  1  0  0  0
 21 23  1  0  0  0
 22 28  1  0  0  0
 22 32  2  0  0  0
 26 27  1  0  0  0
 28 99  1  0  0  0
 28100  1  0  0  0
 29101  1  0  0  0
 29102  1  0  0  0
 33 34  1  0  0  0
 33 66  1  0  0  0
 33 70  2  0  0  0
 34 36  1  0  0  0
 34 59  1  0  0  0
 34103  1  0  0  0
 35 44  2  0  0  0
 35 45  1  0  0  0
 35 68  1  0  0  0
 36 56  1  0  0  0
 36104  1  0  0  0
 37 39  1  0  0  0
 37 47  1  0  0  0
 37 66  1  0  0  0
 37105  1  0  0  0
 38 43  2  0  0  0
 38 46  1  0  0  0
 38 47  1  0  0  0
 39 64  1  0  0  0
 39 67  2  0  0  0
 40 52  1  0  0  0
 40 53  2  0  0  0
 40 58  1  0  0  0
 41106  1  0  0  0
 41107  1  0  0  0
 41108  1  0  0  0
 41 48  1  0  0  0
 42 43  1  0  0  0
 42 66  1  0  0  0
 42109  1  0  0  0
 42110  1  0  0  0
 43 44  1  0  0  0
 44111  1  0  0  0
 45 46  2  0  0  0
 45112  1  0  0  0
 46113  1  0  0  0
 47114  1  0  0  0
 47115  1  0  0  0
 48 56  1  0  0  0
 48 65  1  0  0  0
 48116  1  0  0  0
 49 50  1  0  0  0
 49 53  1  0  0  0
 49 64  1  0  0  0
 49117  1  0  0  0
 50 51  1  0  0  0
 50118  1  0  0  0
 50119  1  0  0  0
 51 52  1  0  0  0
 51120  1  0  0  0
 51121  1  0  0  0
 52122  1  0  0  0
 52123  1  0  0  0
 53 54  1  0  0  0
 54 55  2  0  0  0
 54124  1  0  0  0
 55 57  1  0  0  0
 55125  1  0  0  0
 56 69  2  0  0  0
 57 58  2  0  0  0
 57126  1  0  0  0
 58127  1  0  0  0
 59 60  1  0  0  0
 59 61  1  0  0  0
 59 62  1  0  0  0
 60128  1  0  0  0
 60129  1  0  0  0
 60130  1  0  0  0
 61131  1  0  0  0
 61132  1  0  0  0
 61133  1  0  0  0
 62134  1  0  0  0
 62135  1  0  0  0
 62136  1  0  0  0
 63 65  1  0  0  0
 63137  1  0  0  0
 63138  1  0  0  0
 63139  1  0  0  0
 64140  1  0  0  0
 65141  1  0  0  0
 68 79  1  0  0  0
 71 74  2  0  0  0
 71 75  1  0  0  0
 71142  1  0  0  0
 72 74  1  0  0  0
 72 76  2  0  0  0
 72143  1  0  0  0
 73 75  2  0  0  0
 73 76  1  0  0  0
 73144  1  0  0  0
 74 77  1  0  0  0
 75 81  1  0  0  0
 76 82  1  0  0  0
 77145  1  0  0  0
 77146  1  0  0  0
 77147  1  0  0  0
 78 79  1  0  0  0
 78 80  1  0  0  0
 78148  1  0  0  0
 78149  1  0  0  0
 79150  1  0  0  0
 79151  1  0  0  0
 80 82  1  0  0  0
 80152  1  0  0  0
 80153  1  0  0  0
 81154  1  0  0  0
M  ISO  4   1 100  68 101  79 101  81 100
M  END
> <chiral flag>
0

> <version>
0

> <s_m_source_file>
/data/baiqing/PycharmProjects/Reinvent-master-3.2/result/LINK_invent/BTK/process_docking_weight1_custom_product_contain_oxygen_bond_distance_aromatic_linkinvent_7_9_3/rearranged_h_0098.sdf

> <i_m_source_file_index>
51

> <r_mmod_Potential_Energy-OPLS-2005>
198.695709228516

> <r_mmod_Stretch_Energy-OPLS-2005>
125.514579772949

> <r_mmod_Bend_Energy-OPLS-2005>
169.442169189453

> <r_mmod_Torsional_Energy-OPLS-2005>
231.04719543457

> <r_mmod_Improper_Torsional_Energy-OPLS-2005>
4.1432843208313

> <r_mmod_Van_der_Waal_Energy-OPLS-2005>
149.19563293457

> <r_mmod_Electrostatic_Energy-OPLS-2005>
-353.836517333984

> <r_mmod_Solvation_Energy-OPLS-2005>
-211.256118774414

> <b_mmod_Minimization_Converged-OPLS-2005>
0

> <r_mmod_RMS_Derivative-OPLS-2005>
3.17353343963623

$$$$
51
                    3D
 Structure written by MMmdl.
161170  0  0  1  0            999 V2000
  -30.7383  -14.4535   20.6234 C   0  0  0  0  0  0
  -30.4158  -12.3204   19.4140 C   0  0  0  0  0  0
  -29.4855  -12.5123   18.2012 C   0  0  0  0  0  0
  -28.0105  -12.3647   18.6195 C   0  0  0  0  0  0
  -27.6586  -13.2097   19.8730 C   0  0  2  0  0  0
  -28.7005  -13.0001   20.9936 C   0  0  0  0  0  0
  -25.2576  -13.8171   20.5681 C   0  0  0  0  0  0
  -24.1829  -13.0447   20.9177 C   0  0  0  0  0  0
  -24.6384  -11.6913   20.8737 C   0  0  0  0  0  0
  -23.9056  -10.4295   21.0408 C   0  0  0  0  0  0
  -24.3610   -9.4210   21.9185 C   0  0  0  0  0  0
  -23.6290   -8.2246   22.0751 C   0  0  0  0  0  0
  -22.4274   -8.0281   21.3541 C   0  0  0  0  0  0
  -21.9905   -9.0251   20.4643 C   0  0  0  0  0  0
  -22.7230  -10.2134   20.3054 C   0  0  0  0  0  0
  -21.6849   -6.0734   22.5278 C   0  0  0  0  0  0
  -21.4013   -6.5638   23.8211 C   0  0  0  0  0  0
  -21.3659   -5.6791   24.9175 C   0  0  0  0  0  0
  -21.6043   -4.3055   24.7225 C   0  0  0  0  0  0
  -21.8819   -3.8147   23.4347 C   0  0  0  0  0  0
  -21.9195   -4.6964   22.3404 C   0  0  0  0  0  0
  -22.7852  -13.5239   21.1852 C   0  0  0  0  0  0
  -22.1662   -4.2151   21.0980 F   0  0  0  0  0  0
  -21.5631   -3.4537   25.7737 F   0  0  0  0  0  0
  -30.0306  -13.3047   20.4394 N   0  0  0  0  0  0
  -26.3009  -12.9343   20.3367 N   0  0  0  0  0  0
  -25.9314  -11.6500   20.5775 N   0  0  0  0  0  0
  -22.0494  -12.8222   22.0405 N   0  0  0  0  0  0
  -25.4317  -15.1889   20.4088 N   0  0  0  0  0  0
  -31.8278  -14.6533   20.0787 O   0  0  0  0  0  0
  -21.6639   -6.8879   21.4240 O   0  0  0  0  0  0
  -22.3537  -14.5552   20.6716 O   0  0  0  0  0  0
  -24.6150  -31.8673   23.2103 C   0  0  0  0  0  0
  -25.9040  -32.4820   23.8394 C   0  0  1  0  0  0
  -27.2235  -27.4185   20.0911 C   0  0  0  0  0  0
  -25.5891  -33.8618   24.2318 N   0  0  0  0  0  0
  -23.4027  -30.4935   21.5515 C   0  0  2  0  0  0
  -24.8456  -28.9621   20.1110 C   0  0  0  0  0  0
  -22.7413  -29.4656   22.4986 C   0  0  0  0  0  0
  -18.0270  -28.1383   22.8490 C   0  0  0  0  0  0
  -24.1480  -36.7299   23.2646 C   0  0  0  0  0  0
  -25.9345  -30.8274   21.3661 C   0  0  0  0  0  0
  -26.0085  -29.4629   20.7090 C   0  0  0  0  0  0
  -27.2003  -28.7003   20.6930 C   0  0  0  0  0  0
  -26.0415  -26.9441   19.4745 C   0  0  0  0  0  0
  -24.8580  -27.7026   19.4909 C   0  0  0  0  0  0
  -23.6096  -29.8309   20.1644 C   0  0  0  0  0  0
  -25.4109  -36.3110   24.0348 C   0  0  1  0  0  0
  -20.5864  -28.3657   23.1315 C   0  0  2  0  0  0
  -20.6758  -26.9395   22.5413 C   0  0  0  0  0  0
  -19.5738  -26.6385   21.5208 C   0  0  0  0  0  0
  -18.1915  -26.7923   22.1627 C   0  0  0  0  0  0
  -19.1528  -28.8839   23.2894 C   0  0  0  0  0  0
  -18.9466  -30.1442   23.8901 C   0  0  0  0  0  0
  -17.6475  -30.6584   24.0569 C   0  0  0  0  0  0
  -25.9043  -34.9476   23.5134 C   0  0  0  0  0  0
  -16.5355  -29.9092   23.6337 C   0  0  0  0  0  0
  -16.7261  -28.6515   23.0346 C   0  0  0  0  0  0
  -26.4460  -31.6602   25.0723 C   0  0  0  0  0  0
  -25.3727  -31.3715   26.1478 C   0  0  0  0  0  0
  -27.0294  -30.3052   24.6087 C   0  0  0  0  0  0
  -27.6032  -32.4320   25.7491 C   0  0  0  0  0  0
  -27.5576  -37.1800   24.8475 C   0  0  0  0  0  0
  -21.4142  -29.3025   22.3721 N   0  0  0  0  0  0
  -26.4286  -37.3798   23.9431 N   0  0  0  0  0  0
  -24.6695  -31.0773   22.1005 N   0  0  0  0  0  0
  -23.4184  -28.8191   23.3020 O   0  0  0  0  0  0
  -28.3816  -26.6618   20.1231 O   0  0  0  0  0  0
  -26.5609  -34.8928   22.4695 O   0  0  0  0  0  0
  -23.5347  -32.1421   23.7501 O   0  0  0  0  0  0
  -29.3313  -18.4585   21.7581 C   0  0  0  0  0  0
  -31.7180  -18.7932   21.4680 C   0  0  0  0  0  0
  -29.1270  -19.8605   21.6737 C   0  0  0  0  0  0
  -31.5181  -20.1862   21.3872 C   0  0  0  0  0  0
  -30.6377  -17.9164   21.7078 C   0  0  0  0  0  0
  -30.2288  -20.7440   21.5531 C   0  0  0  0  0  0
  -30.6275  -22.7511   22.8262 C   0  0  0  0  0  0
  -30.5777  -24.2735   22.9996 C   0  0  0  0  0  0
  -29.4107  -24.9409   22.2746 C   0  0  0  0  0  0
  -29.1970  -22.9217   20.7937 C   0  0  0  0  0  0
  -29.3549  -24.4769   20.8185 C   0  0  1  0  0  0
  -30.9463  -16.4584   22.0839 C   0  0  0  0  0  0
  -28.2331  -25.2264   20.0556 C   0  0  0  0  0  0
  -30.0848  -22.1687   21.7171 N   0  0  0  0  0  0
  -30.1912  -15.3756   21.4370 N   0  0  0  0  0  0
  -31.1977  -22.1098   23.7167 O   0  0  0  0  0  0
  -31.4590  -12.4175   19.1076 H   0  0  0  0  0  0
  -30.3203  -11.3098   19.8144 H   0  0  0  0  0  0
  -29.7259  -11.7870   17.4226 H   0  0  0  0  0  0
  -29.6471  -13.4987   17.7634 H   0  0  0  0  0  0
  -27.8276  -11.3085   18.8228 H   0  0  0  0  0  0
  -27.3546  -12.6307   17.7901 H   0  0  0  0  0  0
  -27.7011  -14.2567   19.5720 H   0  0  0  0  0  0
  -28.6810  -11.9656   21.3405 H   0  0  0  0  0  0
  -28.4512  -13.6027   21.8678 H   0  0  0  0  0  0
  -25.2756   -9.5688   22.4758 H   0  0  0  0  0  0
  -24.0003   -7.4632   22.7468 H   0  0  0  0  0  0
  -21.0841   -8.8766   19.8946 H   0  0  0  0  0  0
  -22.3690  -10.9671   19.6160 H   0  0  0  0  0  0
  -21.1999   -7.6147   23.9716 H   0  0  0  0  0  0
  -21.1481   -6.0520   25.9076 H   0  0  0  0  0  0
  -22.0600   -2.7609   23.2844 H   0  0  0  0  0  0
  -22.4108  -11.9871   22.4770 H   0  0  0  0  0  0
  -21.1123  -13.1246   22.2636 H   0  0  0  0  0  0
  -24.6705  -15.8505   20.5179 H   0  0  0  0  0  0
  -26.2923  -15.6224   20.0967 H   0  0  0  0  0  0
  -26.7105  -32.5520   23.1150 H   0  0  0  0  0  0
  -25.0032  -33.9783   25.0454 H   0  0  0  0  0  0
  -22.6920  -31.3113   21.4157 H   0  0  0  0  0  0
  -23.3750  -35.9621   23.3324 H   0  0  0  0  0  0
  -24.3565  -36.8894   22.2054 H   0  0  0  0  0  0
  -23.7215  -37.6504   23.6641 H   0  0  0  0  0  0
  -26.0520  -31.5958   20.6005 H   0  0  0  0  0  0
  -26.8203  -30.8750   21.9877 H   0  0  0  0  0  0
  -28.0968  -29.0812   21.1619 H   0  0  0  0  0  0
  -26.0140  -25.9877   18.9737 H   0  0  0  0  0  0
  -23.9658  -27.3144   19.0191 H   0  0  0  0  0  0
  -23.7178  -30.6068   19.4063 H   0  0  0  0  0  0
  -22.7318  -29.2534   19.8674 H   0  0  0  0  0  0
  -25.1275  -36.1975   25.0839 H   0  0  0  0  0  0
  -20.9955  -28.3216   24.1439 H   0  0  0  0  0  0
  -20.5665  -26.2262   23.3599 H   0  0  0  0  0  0
  -21.6628  -26.7435   22.1204 H   0  0  0  0  0  0
  -19.6908  -25.6303   21.1223 H   0  0  0  0  0  0
  -19.6687  -27.3211   20.6749 H   0  0  0  0  0  0
  -17.4185  -26.6673   21.4027 H   0  0  0  0  0  0
  -18.0320  -26.0063   22.9025 H   0  0  0  0  0  0
  -19.7947  -30.7248   24.2270 H   0  0  0  0  0  0
  -17.5036  -31.6272   24.5160 H   0  0  0  0  0  0
  -15.5357  -30.3003   23.7664 H   0  0  0  0  0  0
  -15.8661  -28.0842   22.7055 H   0  0  0  0  0  0
  -24.5903  -30.7054   25.7827 H   0  0  0  0  0  0
  -24.8916  -32.2873   26.4921 H   0  0  0  0  0  0
  -25.8087  -30.8897   27.0239 H   0  0  0  0  0  0
  -26.2832  -29.6827   24.1133 H   0  0  0  0  0  0
  -27.4078  -29.7273   25.4528 H   0  0  0  0  0  0
  -27.8660  -30.4403   23.9229 H   0  0  0  0  0  0
  -27.2645  -33.3615   26.2088 H   0  0  0  0  0  0
  -28.3832  -32.6889   25.0308 H   0  0  0  0  0  0
  -28.0701  -31.8426   26.5396 H   0  0  0  0  0  0
  -28.2602  -38.0089   24.7516 H   0  0  0  0  0  0
  -28.1058  -36.2617   24.6298 H   0  0  0  0  0  0
  -27.2291  -37.1450   25.8877 H   0  0  0  0  0  0
  -20.9301  -29.8762   21.6960 H   0  0  0  0  0  0
  -26.0178  -38.2879   24.1431 H   0  0  0  0  0  0
  -28.4862  -17.8109   21.9465 H   0  0  0  0  0  0
  -32.7279  -18.4097   21.4227 H   0  0  0  0  0  0
  -28.1273  -20.2545   21.7958 H   0  0  0  0  0  0
  -32.3777  -20.8334   21.2800 H   0  0  0  0  0  0
  -31.5202  -24.6770   22.6286 H   0  0  0  0  0  0
  -30.5352  -24.5141   24.0624 H   0  0  0  0  0  0
  -29.5286  -26.0238   22.3278 H   0  0  0  0  0  0
  -28.4726  -24.7092   22.7815 H   0  0  0  0  0  0
  -29.3587  -22.5590   19.7777 H   0  0  0  0  0  0
  -28.1690  -22.6622   21.0495 H   0  0  0  0  0  0
  -30.3032  -24.7319   20.3413 H   0  0  0  0  0  0
  -30.7590  -16.3693   23.1548 H   0  0  0  0  0  0
  -32.0201  -16.2846   21.9848 H   0  0  0  0  0  0
  -27.2843  -24.9104   20.4934 H   0  0  0  0  0  0
  -28.2219  -24.9187   19.0097 H   0  0  0  0  0  0
  -29.2789  -15.1655   21.8125 H   0  0  0  0  0  0
  1 25  1  0  0  0
  1 30  2  0  0  0
  1 85  1  0  0  0
  2  3  1  0  0  0
  2 25  1  0  0  0
  2 87  1  0  0  0
  2 88  1  0  0  0
  3  4  1  0  0  0
  3 89  1  0  0  0
  3 90  1  0  0  0
  4  5  1  0  0  0
  4 91  1  0  0  0
  4 92  1  0  0  0
  5  6  1  0  0  0
  5 26  1  0  0  0
  5 93  1  0  0  0
  6 25  1  0  0  0
  6 94  1  0  0  0
  6 95  1  0  0  0
  7  8  2  0  0  0
  7 26  1  0  0  0
  7 29  1  0  0  0
  8  9  1  0  0  0
  8 22  1  0  0  0
  9 10  1  0  0  0
  9 27  2  0  0  0
 10 11  2  0  0  0
 10 15  1  0  0  0
 11 12  1  0  0  0
 11 96  1  0  0  0
 12 13  2  0  0  0
 12 97  1  0  0  0
 13 14  1  0  0  0
 13 31  1  0  0  0
 14 15  2  0  0  0
 14 98  1  0  0  0
 15 99  1  0  0  0
 16 17  2  0  0  0
 16 21  1  0  0  0
 16 31  1  0  0  0
 17 18  1  0  0  0
 17100  1  0  0  0
 18 19  2  0  0  0
 18101  1  0  0  0
 19 20  1  0  0  0
 19 24  1  0  0  0
 20 21  2  0  0  0
 20102  1  0  0  0
 21 23  1  0  0  0
 22 28  1  0  0  0
 22 32  2  0  0  0
 26 27  1  0  0  0
 28103  1  0  0  0
 28104  1  0  0  0
 29105  1  0  0  0
 29106  1  0  0  0
 33 34  1  0  0  0
 33 66  1  0  0  0
 33 70  2  0  0  0
 34 36  1  0  0  0
 34 59  1  0  0  0
 34107  1  0  0  0
 35 44  2  0  0  0
 35 45  1  0  0  0
 35 68  1  0  0  0
 36 56  1  0  0  0
 36108  1  0  0  0
 37 39  1  0  0  0
 37 47  1  0  0  0
 37 66  1  0  0  0
 37109  1  0  0  0
 38 43  2  0  0  0
 38 46  1  0  0  0
 38 47  1  0  0  0
 39 64  1  0  0  0
 39 67  2  0  0  0
 40 52  1  0  0  0
 40 53  2  0  0  0
 40 58  1  0  0  0
 41110  1  0  0  0
 41111  1  0  0  0
 41112  1  0  0  0
 41 48  1  0  0  0
 42 43  1  0  0  0
 42 66  1  0  0  0
 42113  1  0  0  0
 42114  1  0  0  0
 43 44  1  0  0  0
 44115  1  0  0  0
 45 46  2  0  0  0
 45116  1  0  0  0
 46117  1  0  0  0
 47118  1  0  0  0
 47119  1  0  0  0
 48 56  1  0  0  0
 48 65  1  0  0  0
 48120  1  0  0  0
 49 50  1  0  0  0
 49 53  1  0  0  0
 49 64  1  0  0  0
 49121  1  0  0  0
 50 51  1  0  0  0
 50122  1  0  0  0
 50123  1  0  0  0
 51 52  1  0  0  0
 51124  1  0  0  0
 51125  1  0  0  0
 52126  1  0  0  0
 52127  1  0  0  0
 53 54  1  0  0  0
 54 55  2  0  0  0
 54128  1  0  0  0
 55 57  1  0  0  0
 55129  1  0  0  0
 56 69  2  0  0  0
 57 58  2  0  0  0
 57130  1  0  0  0
 58131  1  0  0  0
 59 60  1  0  0  0
 59 61  1  0  0  0
 59 62  1  0  0  0
 60132  1  0  0  0
 60133  1  0  0  0
 60134  1  0  0  0
 61135  1  0  0  0
 61136  1  0  0  0
 61137  1  0  0  0
 62138  1  0  0  0
 62139  1  0  0  0
 62140  1  0  0  0
 63 65  1  0  0  0
 63141  1  0  0  0
 63142  1  0  0  0
 63143  1  0  0  0
 64144  1  0  0  0
 65145  1  0  0  0
 68 83  1  0  0  0
 71 73  2  0  0  0
 71 75  1  0  0  0
 71146  1  0  0  0
 72 74  1  0  0  0
 72 75  2  0  0  0
 72147  1  0  0  0
 73 76  1  0  0  0
 73148  1  0  0  0
 74 76  2  0  0  0
 74149  1  0  0  0
 75 82  1  0  0  0
 76 84  1  0  0  0
 77 78  1  0  0  0
 77 84  1  0  0  0
 77 86  2  0  0  0
 78 79  1  0  0  0
 78150  1  0  0  0
 78151  1  0  0  0
 79 81  1  0  0  0
 79152  1  0  0  0
 79153  1  0  0  0
 80 81  1  0  0  0
 80 84  1  0  0  0
 80154  1  0  0  0
 80155  1  0  0  0
 81 83  1  0  0  0
 81156  1  0  0  0
 82 85  1  0  0  0
 82157  1  0  0  0
 82158  1  0  0  0
 83159  1  0  0  0
 83160  1  0  0  0
 85161  1  0  0  0
M  ISO  4   1 100  68 101  83 101  85 100
M  END
> <chiral flag>
0

> <version>
0

> <s_m_source_file>
/data/baiqing/PycharmProjects/Reinvent-master-3.2/result/LINK_invent/BTK/process_docking_weight1_custom_product_contain_oxygen_bond_distance_aromatic_linkinvent_7_9_3/rearranged_h_0098.sdf

> <i_m_source_file_index>
52

> <r_mmod_Potential_Energy-OPLS-2005>
4.68270874023438

> <r_mmod_Stretch_Energy-OPLS-2005>
44.2813720703125

> <r_mmod_Bend_Energy-OPLS-2005>
103.789657592773

> <r_mmod_Torsional_Energy-OPLS-2005>
276.015960693359

> <r_mmod_Improper_Torsional_Energy-OPLS-2005>
3.86651659011841

> <r_mmod_Van_der_Waal_Energy-OPLS-2005>
167.382125854492

> <r_mmod_Electrostatic_Energy-OPLS-2005>
-377.897888183594

> <r_mmod_Solvation_Energy-OPLS-2005>
-226.050811767578

> <b_mmod_Minimization_Converged-OPLS-2005>
0

> <r_mmod_RMS_Derivative-OPLS-2005>
1.20815706253052

$$$$
52
                    3D
 Structure written by MMmdl.
153161  0  0  1  0            999 V2000
  -30.6880  -14.5978   20.5903 C   0  0  0  0  0  0
  -30.4294  -12.3912   19.4610 C   0  0  0  0  0  0
  -29.5073  -12.5322   18.2300 C   0  0  0  0  0  0
  -28.0299  -12.3628   18.6302 C   0  0  0  0  0  0
  -27.6566  -13.2162   19.8688 C   0  0  2  0  0  0
  -28.6915  -13.0297   20.9972 C   0  0  0  0  0  0
  -25.2558  -13.8164   20.5688 C   0  0  0  0  0  0
  -24.1818  -13.0425   20.9188 C   0  0  0  0  0  0
  -24.6400  -11.6904   20.8726 C   0  0  0  0  0  0
  -23.9078  -10.4289   21.0409 C   0  0  0  0  0  0
  -24.3637   -9.4207   21.9185 C   0  0  0  0  0  0
  -23.6302   -8.2249   22.0766 C   0  0  0  0  0  0
  -22.4272   -8.0291   21.3565 C   0  0  0  0  0  0
  -21.9921   -9.0262   20.4658 C   0  0  0  0  0  0
  -22.7257  -10.2134   20.3056 C   0  0  0  0  0  0
  -21.6851   -6.0747   22.5283 C   0  0  0  0  0  0
  -21.4012   -6.5651   23.8217 C   0  0  0  0  0  0
  -21.3669   -5.6806   24.9178 C   0  0  0  0  0  0
  -21.6052   -4.3071   24.7227 C   0  0  0  0  0  0
  -21.8819   -3.8158   23.4349 C   0  0  0  0  0  0
  -21.9199   -4.6976   22.3406 C   0  0  0  0  0  0
  -22.7846  -13.5214   21.1867 C   0  0  0  0  0  0
  -22.1671   -4.2164   21.0983 F   0  0  0  0  0  0
  -21.5624   -3.4561   25.7742 F   0  0  0  0  0  0
  -30.0211  -13.3957   20.4692 N   0  0  0  0  0  0
  -26.2986  -12.9345   20.3301 N   0  0  0  0  0  0
  -25.9317  -11.6501   20.5720 N   0  0  0  0  0  0
  -22.0493  -12.8192   22.0429 N   0  0  0  0  0  0
  -25.4284  -15.1881   20.4142 N   0  0  0  0  0  0
  -31.7668  -14.7806   20.0150 O   0  0  0  0  0  0
  -21.6642   -6.8883   21.4246 O   0  0  0  0  0  0
  -22.3523  -14.5523   20.6729 O   0  0  0  0  0  0
  -24.6233  -31.8609   23.2053 C   0  0  0  0  0  0
  -25.9091  -32.4775   23.8380 C   0  0  1  0  0  0
  -27.2326  -27.3473   20.1263 C   0  0  0  0  0  0
  -25.5913  -33.8578   24.2303 N   0  0  0  0  0  0
  -23.4157  -30.4825   21.5471 C   0  0  2  0  0  0
  -24.8659  -28.9404   20.1149 C   0  0  0  0  0  0
  -22.7462  -29.4610   22.4963 C   0  0  0  0  0  0
  -18.0281  -28.1361   22.8489 C   0  0  0  0  0  0
  -24.1487  -36.7314   23.2638 C   0  0  0  0  0  0
  -25.9536  -30.8037   21.3708 C   0  0  0  0  0  0
  -26.0325  -29.4320   20.7161 C   0  0  0  0  0  0
  -27.2207  -28.6475   20.7095 C   0  0  0  0  0  0
  -26.0486  -26.8998   19.5010 C   0  0  0  0  0  0
  -24.8751  -27.6790   19.4966 C   0  0  0  0  0  0
  -23.6298  -29.8155   20.1628 C   0  0  0  0  0  0
  -25.4106  -36.3088   24.0327 C   0  0  1  0  0  0
  -20.5880  -28.3661   23.1307 C   0  0  2  0  0  0
  -20.6773  -26.9383   22.5419 C   0  0  0  0  0  0
  -19.5756  -26.6367   21.5214 C   0  0  0  0  0  0
  -18.1936  -26.7904   22.1616 C   0  0  0  0  0  0
  -19.1530  -28.8824   23.2892 C   0  0  0  0  0  0
  -18.9456  -30.1432   23.8885 C   0  0  0  0  0  0
  -17.6457  -30.6564   24.0551 C   0  0  0  0  0  0
  -25.9036  -34.9452   23.5116 C   0  0  0  0  0  0
  -16.5348  -29.9058   23.6328 C   0  0  0  0  0  0
  -16.7267  -28.6481   23.0346 C   0  0  0  0  0  0
  -26.4494  -31.6570   25.0734 C   0  0  0  0  0  0
  -25.3744  -31.3693   26.1475 C   0  0  0  0  0  0
  -27.0335  -30.2998   24.6159 C   0  0  0  0  0  0
  -27.6063  -32.4299   25.7497 C   0  0  0  0  0  0
  -27.5576  -37.1804   24.8452 C   0  0  0  0  0  0
  -21.4175  -29.3018   22.3701 N   0  0  0  0  0  0
  -26.4287  -37.3780   23.9402 N   0  0  0  0  0  0
  -24.6824  -31.0649   22.0984 N   0  0  0  0  0  0
  -23.4210  -28.8156   23.3033 O   0  0  0  0  0  0
  -28.3617  -26.5253   20.1379 O   0  0  0  0  0  0
  -26.5602  -34.8909   22.4680 O   0  0  0  0  0  0
  -23.5402  -32.1389   23.7400 O   0  0  0  0  0  0
  -29.0585  -18.0812   21.6661 C   0  0  0  0  0  0
  -28.9654  -19.4745   21.3762 C   0  0  0  0  0  0
  -30.8503  -17.8348   20.0966 C   0  0  0  0  0  0
  -30.0063  -17.2050   21.0499 C   0  0  0  0  0  0
  -29.8229  -20.0895   20.4342 C   0  0  0  0  0  0
  -30.7608  -19.2276   19.7990 C   0  0  0  0  0  0
  -30.1048  -15.7333   21.5116 C   0  0  0  0  0  0
  -29.0953  -24.0019   20.0693 C   0  0  0  0  0  0
  -28.9734  -22.5555   20.7285 C   0  0  0  0  0  0
  -28.1995  -25.1620   20.6735 C   0  0  0  0  0  0
  -29.7456  -15.4624   22.6990 N   0  0  0  0  0  0
  -29.7979  -21.4844   20.0989 N   0  0  0  0  0  0
  -31.6139  -19.7567   18.8875 F   0  0  0  0  0  0
  -31.4749  -12.4947   19.1655 H   0  0  0  0  0  0
  -30.3459  -11.3878   19.8822 H   0  0  0  0  0  0
  -29.7749  -11.7965   17.4713 H   0  0  0  0  0  0
  -29.6543  -13.5115   17.7718 H   0  0  0  0  0  0
  -27.8641  -11.3064   18.8458 H   0  0  0  0  0  0
  -27.3782  -12.6093   17.7913 H   0  0  0  0  0  0
  -27.6891  -14.2604   19.5561 H   0  0  0  0  0  0
  -28.7001  -11.9901   21.3283 H   0  0  0  0  0  0
  -28.3873  -13.5955   21.8724 H   0  0  0  0  0  0
  -25.2797   -9.5688   22.4733 H   0  0  0  0  0  0
  -24.0028   -7.4646   22.7484 H   0  0  0  0  0  0
  -21.0858   -8.8784   19.8961 H   0  0  0  0  0  0
  -22.3733  -10.9666   19.6154 H   0  0  0  0  0  0
  -21.1991   -7.6158   23.9722 H   0  0  0  0  0  0
  -21.1494   -6.0538   25.9079 H   0  0  0  0  0  0
  -22.0585   -2.7620   23.2848 H   0  0  0  0  0  0
  -22.4108  -11.9847   22.4810 H   0  0  0  0  0  0
  -21.1106  -13.1201   22.2641 H   0  0  0  0  0  0
  -24.6667  -15.8481   20.5304 H   0  0  0  0  0  0
  -26.2877  -15.6264   20.1088 H   0  0  0  0  0  0
  -26.7157  -32.5464   23.1134 H   0  0  0  0  0  0
  -25.0047  -33.9724   25.0434 H   0  0  0  0  0  0
  -22.7083  -31.3017   21.4039 H   0  0  0  0  0  0
  -23.3729  -35.9664   23.3294 H   0  0  0  0  0  0
  -24.3582  -36.8950   22.2056 H   0  0  0  0  0  0
  -23.7274  -37.6527   23.6663 H   0  0  0  0  0  0
  -26.0758  -31.5690   20.6028 H   0  0  0  0  0  0
  -26.8371  -30.8579   21.9951 H   0  0  0  0  0  0
  -28.1187  -29.0231   21.1786 H   0  0  0  0  0  0
  -26.0259  -25.9352   19.0148 H   0  0  0  0  0  0
  -23.9823  -27.3001   19.0184 H   0  0  0  0  0  0
  -23.7427  -30.5910   19.4045 H   0  0  0  0  0  0
  -22.7527  -29.2392   19.8641 H   0  0  0  0  0  0
  -25.1285  -36.1937   25.0819 H   0  0  0  0  0  0
  -20.9961  -28.3219   24.1432 H   0  0  0  0  0  0
  -20.5702  -26.2247   23.3607 H   0  0  0  0  0  0
  -21.6649  -26.7427   22.1202 H   0  0  0  0  0  0
  -19.6926  -25.6286   21.1236 H   0  0  0  0  0  0
  -19.6704  -27.3183   20.6756 H   0  0  0  0  0  0
  -17.4213  -26.6657   21.4007 H   0  0  0  0  0  0
  -18.0314  -26.0029   22.8996 H   0  0  0  0  0  0
  -19.7930  -30.7253   24.2252 H   0  0  0  0  0  0
  -17.5006  -31.6247   24.5149 H   0  0  0  0  0  0
  -15.5346  -30.2958   23.7650 H   0  0  0  0  0  0
  -15.8670  -28.0797   22.7063 H   0  0  0  0  0  0
  -24.5912  -30.7036   25.7823 H   0  0  0  0  0  0
  -24.8934  -32.2852   26.4923 H   0  0  0  0  0  0
  -25.8100  -30.8869   27.0240 H   0  0  0  0  0  0
  -26.2901  -29.6737   24.1206 H   0  0  0  0  0  0
  -27.4075  -29.7255   25.4651 H   0  0  0  0  0  0
  -27.8755  -30.4290   23.9349 H   0  0  0  0  0  0
  -27.2676  -33.3596   26.2083 H   0  0  0  0  0  0
  -28.3870  -32.6864   25.0321 H   0  0  0  0  0  0
  -28.0726  -31.8414   26.5407 H   0  0  0  0  0  0
  -28.2581  -38.0113   24.7503 H   0  0  0  0  0  0
  -28.1089  -36.2643   24.6264 H   0  0  0  0  0  0
  -27.2292  -37.1446   25.8856 H   0  0  0  0  0  0
  -20.9344  -29.8737   21.6909 H   0  0  0  0  0  0
  -26.0162  -38.2851   24.1409 H   0  0  0  0  0  0
  -28.3731  -17.6867   22.4025 H   0  0  0  0  0  0
  -28.2279  -20.0633   21.9023 H   0  0  0  0  0  0
  -31.6121  -17.2635   19.5912 H   0  0  0  0  0  0
  -28.8652  -23.9212   19.0071 H   0  0  0  0  0  0
  -30.1366  -24.3233   20.1209 H   0  0  0  0  0  0
  -27.9278  -22.2456   20.7192 H   0  0  0  0  0  0
  -29.2586  -22.6270   21.7801 H   0  0  0  0  0  0
  -28.4206  -25.2333   21.7393 H   0  0  0  0  0  0
  -27.1598  -24.8376   20.6294 H   0  0  0  0  0  0
  -29.4388  -16.2967   23.1826 H   0  0  0  0  0  0
  -30.5063  -21.7746   19.4285 H   0  0  0  0  0  0
  1 25  1  0  0  0
  1 30  2  0  0  0
  1 77  1  0  0  0
  2  3  1  0  0  0
  2 25  1  0  0  0
  2 84  1  0  0  0
  2 85  1  0  0  0
  3  4  1  0  0  0
  3 86  1  0  0  0
  3 87  1  0  0  0
  4  5  1  0  0  0
  4 88  1  0  0  0
  4 89  1  0  0  0
  5  6  1  0  0  0
  5 26  1  0  0  0
  5 90  1  0  0  0
  6 25  1  0  0  0
  6 91  1  0  0  0
  6 92  1  0  0  0
  7  8  2  0  0  0
  7 26  1  0  0  0
  7 29  1  0  0  0
  8  9  1  0  0  0
  8 22  1  0  0  0
  9 10  1  0  0  0
  9 27  2  0  0  0
 10 11  2  0  0  0
 10 15  1  0  0  0
 11 12  1  0  0  0
 11 93  1  0  0  0
 12 13  2  0  0  0
 12 94  1  0  0  0
 13 14  1  0  0  0
 13 31  1  0  0  0
 14 15  2  0  0  0
 14 95  1  0  0  0
 15 96  1  0  0  0
 16 17  2  0  0  0
 16 21  1  0  0  0
 16 31  1  0  0  0
 17 18  1  0  0  0
 17 97  1  0  0  0
 18 19  2  0  0  0
 18 98  1  0  0  0
 19 20  1  0  0  0
 19 24  1  0  0  0
 20 21  2  0  0  0
 20 99  1  0  0  0
 21 23  1  0  0  0
 22 28  1  0  0  0
 22 32  2  0  0  0
 26 27  1  0  0  0
 28100  1  0  0  0
 28101  1  0  0  0
 29102  1  0  0  0
 29103  1  0  0  0
 33 34  1  0  0  0
 33 66  1  0  0  0
 33 70  2  0  0  0
 34 36  1  0  0  0
 34 59  1  0  0  0
 34104  1  0  0  0
 35 44  2  0  0  0
 35 45  1  0  0  0
 35 68  1  0  0  0
 36 56  1  0  0  0
 36105  1  0  0  0
 37 39  1  0  0  0
 37 47  1  0  0  0
 37 66  1  0  0  0
 37106  1  0  0  0
 38 43  2  0  0  0
 38 46  1  0  0  0
 38 47  1  0  0  0
 39 64  1  0  0  0
 39 67  2  0  0  0
 40 52  1  0  0  0
 40 53  2  0  0  0
 40 58  1  0  0  0
 41107  1  0  0  0
 41108  1  0  0  0
 41109  1  0  0  0
 41 48  1  0  0  0
 42 43  1  0  0  0
 42 66  1  0  0  0
 42110  1  0  0  0
 42111  1  0  0  0
 43 44  1  0  0  0
 44112  1  0  0  0
 45 46  2  0  0  0
 45113  1  0  0  0
 46114  1  0  0  0
 47115  1  0  0  0
 47116  1  0  0  0
 48 56  1  0  0  0
 48 65  1  0  0  0
 48117  1  0  0  0
 49 50  1  0  0  0
 49 53  1  0  0  0
 49 64  1  0  0  0
 49118  1  0  0  0
 50 51  1  0  0  0
 50119  1  0  0  0
 50120  1  0  0  0
 51 52  1  0  0  0
 51121  1  0  0  0
 51122  1  0  0  0
 52123  1  0  0  0
 52124  1  0  0  0
 53 54  1  0  0  0
 54 55  2  0  0  0
 54125  1  0  0  0
 55 57  1  0  0  0
 55126  1  0  0  0
 56 69  2  0  0  0
 57 58  2  0  0  0
 57127  1  0  0  0
 58128  1  0  0  0
 59 60  1  0  0  0
 59 61  1  0  0  0
 59 62  1  0  0  0
 60129  1  0  0  0
 60130  1  0  0  0
 60131  1  0  0  0
 61132  1  0  0  0
 61133  1  0  0  0
 61134  1  0  0  0
 62135  1  0  0  0
 62136  1  0  0  0
 62137  1  0  0  0
 63 65  1  0  0  0
 63138  1  0  0  0
 63139  1  0  0  0
 63140  1  0  0  0
 64141  1  0  0  0
 65142  1  0  0  0
 68 80  1  0  0  0
 71 72  2  0  0  0
 71 74  1  0  0  0
 71143  1  0  0  0
 72 75  1  0  0  0
 72144  1  0  0  0
 73 74  2  0  0  0
 73 76  1  0  0  0
 73145  1  0  0  0
 74 77  1  0  0  0
 75 76  2  0  0  0
 75 82  1  0  0  0
 76 83  1  0  0  0
 77 81  2  0  0  0
 78 79  1  0  0  0
 78 80  1  0  0  0
 78146  1  0  0  0
 78147  1  0  0  0
 79 82  1  0  0  0
 79148  1  0  0  0
 79149  1  0  0  0
 80150  1  0  0  0
 80151  1  0  0  0
 81152  1  0  0  0
 82153  1  0  0  0
M  ISO  4   1 100  68 101  77 100  80 101
M  END
> <chiral flag>
0

> <version>
0

> <s_m_source_file>
/data/baiqing/PycharmProjects/Reinvent-master-3.2/result/LINK_invent/BTK/process_docking_weight1_custom_product_contain_oxygen_bond_distance_aromatic_linkinvent_7_9_3/rearranged_h_0098.sdf

> <i_m_source_file_index>
53

> <r_mmod_Potential_Energy-OPLS-2005>
195.887985229492

> <r_mmod_Stretch_Energy-OPLS-2005>
81.7373352050781

> <r_mmod_Bend_Energy-OPLS-2005>
150.432342529297

> <r_mmod_Torsional_Energy-OPLS-2005>
201.33757019043

> <r_mmod_Improper_Torsional_Energy-OPLS-2005>
2.54516339302063

> <r_mmod_Van_der_Waal_Energy-OPLS-2005>
150.279647827148

> <r_mmod_Electrostatic_Energy-OPLS-2005>
-222.827194213867

> <r_mmod_Solvation_Energy-OPLS-2005>
-201.43913269043

> <b_mmod_Minimization_Converged-OPLS-2005>
0

> <r_mmod_RMS_Derivative-OPLS-2005>
2.11898303031921

$$$$
53
                    3D
 Structure written by MMmdl.
163172  0  0  1  0            999 V2000
  -30.6004  -14.6818   20.4932 C   0  0  0  0  0  0
  -30.4435  -12.4150   19.4662 C   0  0  0  0  0  0
  -29.5150  -12.5230   18.2320 C   0  0  0  0  0  0
  -28.0407  -12.3429   18.6440 C   0  0  0  0  0  0
  -27.6559  -13.2152   19.8672 C   0  0  2  0  0  0
  -28.7006  -13.0831   21.0008 C   0  0  0  0  0  0
  -25.2573  -13.8152   20.5715 C   0  0  0  0  0  0
  -24.1814  -13.0440   20.9160 C   0  0  0  0  0  0
  -24.6364  -11.6903   20.8699 C   0  0  0  0  0  0
  -23.9028  -10.4296   21.0372 C   0  0  0  0  0  0
  -24.3587   -9.4225   21.9161 C   0  0  0  0  0  0
  -23.6265   -8.2256   22.0750 C   0  0  0  0  0  0
  -22.4240   -8.0286   21.3550 C   0  0  0  0  0  0
  -21.9857   -9.0245   20.4644 C   0  0  0  0  0  0
  -22.7186  -10.2122   20.3041 C   0  0  0  0  0  0
  -21.6865   -6.0721   22.5263 C   0  0  0  0  0  0
  -21.4036   -6.5622   23.8197 C   0  0  0  0  0  0
  -21.3674   -5.6769   24.9158 C   0  0  0  0  0  0
  -21.6038   -4.3027   24.7222 C   0  0  0  0  0  0
  -21.8825   -3.8129   23.4336 C   0  0  0  0  0  0
  -21.9203   -4.6945   22.3395 C   0  0  0  0  0  0
  -22.7841  -13.5262   21.1823 C   0  0  0  0  0  0
  -22.1665   -4.2127   21.0972 F   0  0  0  0  0  0
  -21.5630   -3.4525   25.7743 F   0  0  0  0  0  0
  -30.0162  -13.4371   20.4446 N   0  0  0  0  0  0
  -26.2992  -12.9331   20.3327 N   0  0  0  0  0  0
  -25.9292  -11.6484   20.5708 N   0  0  0  0  0  0
  -22.0479  -12.8260   22.0381 N   0  0  0  0  0  0
  -25.4299  -15.1873   20.4233 N   0  0  0  0  0  0
  -31.7410  -14.8645   20.0562 O   0  0  0  0  0  0
  -21.6631   -6.8861   21.4230 O   0  0  0  0  0  0
  -22.3537  -14.5574   20.6671 O   0  0  0  0  0  0
  -24.6272  -31.8574   23.1991 C   0  0  0  0  0  0
  -25.9117  -32.4764   23.8325 C   0  0  1  0  0  0
  -27.2399  -27.3014   20.1288 C   0  0  0  0  0  0
  -25.5939  -33.8567   24.2268 N   0  0  0  0  0  0
  -23.4218  -30.4774   21.5400 C   0  0  2  0  0  0
  -24.8737  -28.9214   20.1179 C   0  0  0  0  0  0
  -22.7458  -29.4611   22.4908 C   0  0  0  0  0  0
  -18.0294  -28.1377   22.8471 C   0  0  0  0  0  0
  -24.1496  -36.7289   23.2640 C   0  0  0  0  0  0
  -25.9640  -30.7813   21.3741 C   0  0  0  0  0  0
  -26.0413  -29.4044   20.7217 C   0  0  0  0  0  0
  -27.2248  -28.6071   20.7144 C   0  0  0  0  0  0
  -26.0476  -26.8690   19.5063 C   0  0  0  0  0  0
  -24.8793  -27.6587   19.5026 C   0  0  0  0  0  0
  -23.6423  -29.8053   20.1581 C   0  0  0  0  0  0
  -25.4115  -36.3070   24.0330 C   0  0  1  0  0  0
  -20.5886  -28.3687   23.1282 C   0  0  2  0  0  0
  -20.6783  -26.9413   22.5407 C   0  0  0  0  0  0
  -19.5769  -26.6385   21.5198 C   0  0  0  0  0  0
  -18.1939  -26.7927   22.1598 C   0  0  0  0  0  0
  -19.1538  -28.8847   23.2879 C   0  0  0  0  0  0
  -18.9469  -30.1439   23.8910 C   0  0  0  0  0  0
  -17.6474  -30.6575   24.0557 C   0  0  0  0  0  0
  -25.9045  -34.9447   23.5095 C   0  0  0  0  0  0
  -16.5366  -29.9080   23.6323 C   0  0  0  0  0  0
  -16.7276  -28.6491   23.0350 C   0  0  0  0  0  0
  -26.4513  -31.6584   25.0696 C   0  0  0  0  0  0
  -25.3771  -31.3758   26.1447 C   0  0  0  0  0  0
  -27.0346  -30.2993   24.6160 C   0  0  0  0  0  0
  -27.6068  -32.4331   25.7462 C   0  0  0  0  0  0
  -27.5579  -37.1803   24.8458 C   0  0  0  0  0  0
  -21.4166  -29.3045   22.3655 N   0  0  0  0  0  0
  -26.4287  -37.3764   23.9405 N   0  0  0  0  0  0
  -24.6891  -31.0564   22.0944 N   0  0  0  0  0  0
  -23.4171  -28.8137   23.2976 O   0  0  0  0  0  0
  -28.3868  -26.4854   20.1297 O   0  0  0  0  0  0
  -26.5580  -34.8918   22.4638 O   0  0  0  0  0  0
  -23.5431  -32.1388   23.7312 O   0  0  0  0  0  0
  -29.9250  -19.2484   19.3951 C   0  0  0  0  0  0
  -28.9099  -19.3727   21.5647 C   0  0  0  0  0  0
  -30.1717  -17.8460   19.5820 C   0  0  0  0  0  0
  -29.1424  -17.9752   21.7445 C   0  0  0  0  0  0
  -29.2751  -20.0594   20.3759 C   0  0  0  0  0  0
  -29.7677  -17.1589   20.7600 C   0  0  0  0  0  0
  -32.1920  -24.4536   20.4152 C   0  0  0  0  0  0
  -32.1965  -23.2058   21.2790 C   0  0  0  0  0  0
  -30.8020  -25.0803   20.4978 C   0  0  0  0  0  0
  -31.1690  -22.2095   20.7405 C   0  0  0  0  0  0
  -29.6239  -24.1460   20.0826 C   0  0  2  0  0  0
  -28.8913  -21.5893   20.1230 C   0  0  0  0  0  0
  -28.2906  -25.0078   20.3547 C   0  0  0  0  0  0
  -29.8142  -15.7034   20.9763 N   0  0  0  0  0  0
  -29.7585  -22.7122   20.6918 N   0  3  1  0  0  0
  -31.4848  -12.5421   19.1687 H   0  0  0  0  0  0
  -30.3792  -11.4198   19.9078 H   0  0  0  0  0  0
  -29.7819  -11.7760   17.4832 H   0  0  0  0  0  0
  -29.6516  -13.4929   17.7517 H   0  0  0  0  0  0
  -27.8901  -11.2899   18.8843 H   0  0  0  0  0  0
  -27.3867  -12.5628   17.7977 H   0  0  0  0  0  0
  -27.6697  -14.2471   19.5191 H   0  0  0  0  0  0
  -28.7190  -12.0625   21.3869 H   0  0  0  0  0  0
  -28.4361  -13.7097   21.8526 H   0  0  0  0  0  0
  -25.2746   -9.5706   22.4716 H   0  0  0  0  0  0
  -23.9996   -7.4651   22.7453 H   0  0  0  0  0  0
  -21.0795   -8.8729   19.8960 H   0  0  0  0  0  0
  -22.3620  -10.9638   19.6143 H   0  0  0  0  0  0
  -21.2033   -7.6125   23.9686 H   0  0  0  0  0  0
  -21.1489   -6.0504   25.9047 H   0  0  0  0  0  0
  -22.0592   -2.7589   23.2837 H   0  0  0  0  0  0
  -22.4108  -11.9961   22.4814 H   0  0  0  0  0  0
  -21.1092  -13.1289   22.2566 H   0  0  0  0  0  0
  -24.6702  -15.8466   20.5526 H   0  0  0  0  0  0
  -26.2919  -15.6316   20.1327 H   0  0  0  0  0  0
  -26.7184  -32.5427   23.1067 H   0  0  0  0  0  0
  -25.0103  -33.9719   25.0425 H   0  0  0  0  0  0
  -22.7143  -31.2951   21.3902 H   0  0  0  0  0  0
  -23.3754  -35.9627   23.3309 H   0  0  0  0  0  0
  -24.3590  -36.8891   22.2051 H   0  0  0  0  0  0
  -23.7271  -37.6504   23.6654 H   0  0  0  0  0  0
  -26.0984  -31.5422   20.6048 H   0  0  0  0  0  0
  -26.8439  -30.8335   22.0032 H   0  0  0  0  0  0
  -28.1219  -28.9783   21.1898 H   0  0  0  0  0  0
  -26.0005  -25.9122   19.0087 H   0  0  0  0  0  0
  -23.9863  -27.2827   19.0224 H   0  0  0  0  0  0
  -23.7656  -30.5793   19.3994 H   0  0  0  0  0  0
  -22.7644  -29.2324   19.8528 H   0  0  0  0  0  0
  -25.1313  -36.1903   25.0826 H   0  0  0  0  0  0
  -20.9976  -28.3290   24.1406 H   0  0  0  0  0  0
  -20.5673  -26.2298   23.3602 H   0  0  0  0  0  0
  -21.6663  -26.7438   22.1225 H   0  0  0  0  0  0
  -19.6935  -25.6295   21.1234 H   0  0  0  0  0  0
  -19.6718  -27.3188   20.6720 H   0  0  0  0  0  0
  -17.4210  -26.6669   21.4002 H   0  0  0  0  0  0
  -18.0344  -26.0072   22.8997 H   0  0  0  0  0  0
  -19.7957  -30.7239   24.2304 H   0  0  0  0  0  0
  -17.5043  -31.6271   24.5135 H   0  0  0  0  0  0
  -15.5371  -30.2986   23.7649 H   0  0  0  0  0  0
  -15.8677  -28.0803   22.7081 H   0  0  0  0  0  0
  -24.5858  -30.7202   25.7800 H   0  0  0  0  0  0
  -24.9082  -32.2957   26.4947 H   0  0  0  0  0  0
  -25.8109  -30.8860   27.0166 H   0  0  0  0  0  0
  -26.2904  -29.6725   24.1220 H   0  0  0  0  0  0
  -27.4075  -29.7264   25.4660 H   0  0  0  0  0  0
  -27.8773  -30.4262   23.9358 H   0  0  0  0  0  0
  -27.2653  -33.3618   26.2046 H   0  0  0  0  0  0
  -28.3866  -32.6912   25.0289 H   0  0  0  0  0  0
  -28.0744  -31.8455   26.5368 H   0  0  0  0  0  0
  -28.2612  -38.0083   24.7476 H   0  0  0  0  0  0
  -28.1063  -36.2615   24.6315 H   0  0  0  0  0  0
  -27.2301  -37.1502   25.8864 H   0  0  0  0  0  0
  -20.9309  -29.8757   21.6877 H   0  0  0  0  0  0
  -26.0168  -38.2843   24.1378 H   0  0  0  0  0  0
  -30.2149  -19.6965   18.4536 H   0  0  0  0  0  0
  -28.4020  -19.9136   22.3523 H   0  0  0  0  0  0
  -30.6310  -17.2899   18.7757 H   0  0  0  0  0  0
  -28.8039  -17.5183   22.6641 H   0  0  0  0  0  0
  -32.4530  -24.2119   19.3818 H   0  0  0  0  0  0
  -32.9492  -25.1527   20.7727 H   0  0  0  0  0  0
  -31.9853  -23.4558   22.3214 H   0  0  0  0  0  0
  -33.1857  -22.7460   21.2642 H   0  0  0  0  0  0
  -30.8050  -25.9694   19.8633 H   0  0  0  0  0  0
  -30.6449  -25.4417   21.5164 H   0  0  0  0  0  0
  -31.2270  -21.3282   21.3805 H   0  0  0  0  0  0
  -31.4726  -21.8863   19.7428 H   0  0  0  0  0  0
  -29.7105  -24.0233   19.0023 H   0  0  0  0  0  0
  -27.8726  -21.7429   20.4825 H   0  0  0  0  0  0
  -28.8339  -21.7299   19.0432 H   0  0  0  0  0  0
  -27.9970  -24.8755   21.3973 H   0  0  0  0  0  0
  -27.4872  -24.5701   19.7656 H   0  0  0  0  0  0
  -29.0308  -15.3505   21.5033 H   0  0  0  0  0  0
  -29.4833  -22.7903   21.6597 H   0  0  0  0  0  0
  1 25  1  0  0  0
  1 30  2  0  0  0
  1 84  1  0  0  0
  2  3  1  0  0  0
  2 25  1  0  0  0
  2 86  1  0  0  0
  2 87  1  0  0  0
  3  4  1  0  0  0
  3 88  1  0  0  0
  3 89  1  0  0  0
  4  5  1  0  0  0
  4 90  1  0  0  0
  4 91  1  0  0  0
  5  6  1  0  0  0
  5 26  1  0  0  0
  5 92  1  0  0  0
  6 25  1  0  0  0
  6 93  1  0  0  0
  6 94  1  0  0  0
  7  8  2  0  0  0
  7 26  1  0  0  0
  7 29  1  0  0  0
  8  9  1  0  0  0
  8 22  1  0  0  0
  9 10  1  0  0  0
  9 27  2  0  0  0
 10 11  2  0  0  0
 10 15  1  0  0  0
 11 12  1  0  0  0
 11 95  1  0  0  0
 12 13  2  0  0  0
 12 96  1  0  0  0
 13 14  1  0  0  0
 13 31  1  0  0  0
 14 15  2  0  0  0
 14 97  1  0  0  0
 15 98  1  0  0  0
 16 17  2  0  0  0
 16 21  1  0  0  0
 16 31  1  0  0  0
 17 18  1  0  0  0
 17 99  1  0  0  0
 18 19  2  0  0  0
 18100  1  0  0  0
 19 20  1  0  0  0
 19 24  1  0  0  0
 20 21  2  0  0  0
 20101  1  0  0  0
 21 23  1  0  0  0
 22 28  1  0  0  0
 22 32  2  0  0  0
 26 27  1  0  0  0
 28102  1  0  0  0
 28103  1  0  0  0
 29104  1  0  0  0
 29105  1  0  0  0
 33 34  1  0  0  0
 33 66  1  0  0  0
 33 70  2  0  0  0
 34 36  1  0  0  0
 34 59  1  0  0  0
 34106  1  0  0  0
 35 44  2  0  0  0
 35 45  1  0  0  0
 35 68  1  0  0  0
 36 56  1  0  0  0
 36107  1  0  0  0
 37 39  1  0  0  0
 37 47  1  0  0  0
 37 66  1  0  0  0
 37108  1  0  0  0
 38 43  2  0  0  0
 38 46  1  0  0  0
 38 47  1  0  0  0
 39 64  1  0  0  0
 39 67  2  0  0  0
 40 52  1  0  0  0
 40 53  2  0  0  0
 40 58  1  0  0  0
 41109  1  0  0  0
 41110  1  0  0  0
 41111  1  0  0  0
 41 48  1  0  0  0
 42 43  1  0  0  0
 42 66  1  0  0  0
 42112  1  0  0  0
 42113  1  0  0  0
 43 44  1  0  0  0
 44114  1  0  0  0
 45 46  2  0  0  0
 45115  1  0  0  0
 46116  1  0  0  0
 47117  1  0  0  0
 47118  1  0  0  0
 48 56  1  0  0  0
 48 65  1  0  0  0
 48119  1  0  0  0
 49 50  1  0  0  0
 49 53  1  0  0  0
 49 64  1  0  0  0
 49120  1  0  0  0
 50 51  1  0  0  0
 50121  1  0  0  0
 50122  1  0  0  0
 51 52  1  0  0  0
 51123  1  0  0  0
 51124  1  0  0  0
 52125  1  0  0  0
 52126  1  0  0  0
 53 54  1  0  0  0
 54 55  2  0  0  0
 54127  1  0  0  0
 55 57  1  0  0  0
 55128  1  0  0  0
 56 69  2  0  0  0
 57 58  2  0  0  0
 57129  1  0  0  0
 58130  1  0  0  0
 59 60  1  0  0  0
 59 61  1  0  0  0
 59 62  1  0  0  0
 60131  1  0  0  0
 60132  1  0  0  0
 60133  1  0  0  0
 61134  1  0  0  0
 61135  1  0  0  0
 61136  1  0  0  0
 62137  1  0  0  0
 62138  1  0  0  0
 62139  1  0  0  0
 63 65  1  0  0  0
 63140  1  0  0  0
 63141  1  0  0  0
 63142  1  0  0  0
 64143  1  0  0  0
 65144  1  0  0  0
 68 83  1  0  0  0
 71 73  2  0  0  0
 71 75  1  0  0  0
 71145  1  0  0  0
 72 74  1  0  0  0
 72 75  2  0  0  0
 72146  1  0  0  0
 73 76  1  0  0  0
 73147  1  0  0  0
 74 76  2  0  0  0
 74148  1  0  0  0
 75 82  1  0  0  0
 76 84  1  0  0  0
 77 78  1  0  0  0
 77 79  1  0  0  0
 77149  1  0  0  0
 77150  1  0  0  0
 78 80  1  0  0  0
 78151  1  0  0  0
 78152  1  0  0  0
 79 81  1  0  0  0
 79153  1  0  0  0
 79154  1  0  0  0
 80 85  1  0  0  0
 80155  1  0  0  0
 80156  1  0  0  0
 81 83  1  0  0  0
 81 85  1  0  0  0
 81157  1  0  0  0
 82158  1  0  0  0
 82159  1  0  0  0
 82 85  1  0  0  0
 83160  1  0  0  0
 83161  1  0  0  0
 84162  1  0  0  0
 85163  1  0  0  0
M  CHG  1  85   1
M  ISO  4   1 100  68 101  83 101  84 100
M  END
> <chiral flag>
0

> <version>
0

> <s_m_source_file>
/data/baiqing/PycharmProjects/Reinvent-master-3.2/result/LINK_invent/BTK/process_docking_weight1_custom_product_contain_oxygen_bond_distance_aromatic_linkinvent_7_9_3/rearranged_h_0098.sdf

> <i_m_source_file_index>
54

> <r_mmod_Potential_Energy-OPLS-2005>
83.244010925293

> <r_mmod_Stretch_Energy-OPLS-2005>
107.734657287598

> <r_mmod_Bend_Energy-OPLS-2005>
165.105621337891

> <r_mmod_Torsional_Energy-OPLS-2005>
264.375457763672

> <r_mmod_Improper_Torsional_Energy-OPLS-2005>
3.43792963027954

> <r_mmod_Van_der_Waal_Energy-OPLS-2005>
144.284210205078

> <r_mmod_Electrostatic_Energy-OPLS-2005>
-229.300567626953

> <r_mmod_Solvation_Energy-OPLS-2005>
-428.778930664062

> <b_mmod_Minimization_Converged-OPLS-2005>
0

> <r_mmod_RMS_Derivative-OPLS-2005>
3.47592043876648

$$$$
54
                    3D
 Structure written by MMmdl.
158167  0  0  1  0            999 V2000
  -30.6923  -14.4673   20.5865 C   0  0  0  0  0  0
  -30.4282  -12.3087   19.4184 C   0  0  0  0  0  0
  -29.4942  -12.5110   18.2063 C   0  0  0  0  0  0
  -28.0149  -12.3702   18.6173 C   0  0  0  0  0  0
  -27.6632  -13.2031   19.8787 C   0  0  2  0  0  0
  -28.7042  -12.9667   20.9967 C   0  0  0  0  0  0
  -25.2598  -13.8151   20.5687 C   0  0  0  0  0  0
  -24.1838  -13.0441   20.9166 C   0  0  0  0  0  0
  -24.6374  -11.6904   20.8716 C   0  0  0  0  0  0
  -23.9039  -10.4299   21.0393 C   0  0  0  0  0  0
  -24.3598   -9.4221   21.9168 C   0  0  0  0  0  0
  -23.6283   -8.2249   22.0744 C   0  0  0  0  0  0
  -22.4264   -8.0281   21.3540 C   0  0  0  0  0  0
  -21.9891   -9.0245   20.4641 C   0  0  0  0  0  0
  -22.7210  -10.2129   20.3051 C   0  0  0  0  0  0
  -21.6857   -6.0736   22.5273 C   0  0  0  0  0  0
  -21.4012   -6.5631   23.8213 C   0  0  0  0  0  0
  -21.3663   -5.6786   24.9169 C   0  0  0  0  0  0
  -21.6050   -4.3052   24.7224 C   0  0  0  0  0  0
  -21.8821   -3.8147   23.4344 C   0  0  0  0  0  0
  -21.9190   -4.6961   22.3400 C   0  0  0  0  0  0
  -22.7856  -13.5240   21.1840 C   0  0  0  0  0  0
  -22.1661   -4.2154   21.0973 F   0  0  0  0  0  0
  -21.5636   -3.4535   25.7730 F   0  0  0  0  0  0
  -30.0385  -13.2800   20.4528 N   0  0  0  0  0  0
  -26.3027  -12.9302   20.3376 N   0  0  0  0  0  0
  -25.9292  -11.6469   20.5738 N   0  0  0  0  0  0
  -22.0506  -12.8225   22.0396 N   0  0  0  0  0  0
  -25.4362  -15.1859   20.4112 N   0  0  0  0  0  0
  -31.8090  -14.6808   20.1048 O   0  0  0  0  0  0
  -21.6645   -6.8872   21.4232 O   0  0  0  0  0  0
  -22.3536  -14.5536   20.6682 O   0  0  0  0  0  0
  -24.6168  -31.8671   23.2117 C   0  0  0  0  0  0
  -25.9059  -32.4818   23.8404 C   0  0  1  0  0  0
  -27.2264  -27.4232   20.0975 C   0  0  0  0  0  0
  -25.5913  -33.8617   24.2328 N   0  0  0  0  0  0
  -23.4046  -30.4952   21.5512 C   0  0  2  0  0  0
  -24.8492  -28.9692   20.1080 C   0  0  0  0  0  0
  -22.7427  -29.4664   22.4964 C   0  0  0  0  0  0
  -18.0273  -28.1384   22.8490 C   0  0  0  0  0  0
  -24.1482  -36.7315   23.2637 C   0  0  0  0  0  0
  -25.9371  -30.8293   21.3702 C   0  0  0  0  0  0
  -26.0117  -29.4679   20.7093 C   0  0  0  0  0  0
  -27.2032  -28.7037   20.6988 C   0  0  0  0  0  0
  -26.0466  -26.9573   19.4660 C   0  0  0  0  0  0
  -24.8634  -27.7157   19.4785 C   0  0  0  0  0  0
  -23.6126  -29.8363   20.1627 C   0  0  0  0  0  0
  -25.4100  -36.3102   24.0334 C   0  0  1  0  0  0
  -20.5870  -28.3679   23.1300 C   0  0  2  0  0  0
  -20.6764  -26.9409   22.5410 C   0  0  0  0  0  0
  -19.5738  -26.6390   21.5213 C   0  0  0  0  0  0
  -18.1920  -26.7926   22.1632 C   0  0  0  0  0  0
  -19.1527  -28.8846   23.2895 C   0  0  0  0  0  0
  -18.9455  -30.1452   23.8908 C   0  0  0  0  0  0
  -17.6459  -30.6590   24.0568 C   0  0  0  0  0  0
  -25.9033  -34.9474   23.5127 C   0  0  0  0  0  0
  -16.5348  -29.9097   23.6324 C   0  0  0  0  0  0
  -16.7265  -28.6514   23.0340 C   0  0  0  0  0  0
  -26.4484  -31.6601   25.0743 C   0  0  0  0  0  0
  -25.3760  -31.3732   26.1509 C   0  0  0  0  0  0
  -27.0310  -30.3026   24.6159 C   0  0  0  0  0  0
  -27.6056  -32.4334   25.7500 C   0  0  0  0  0  0
  -27.5579  -37.1801   24.8456 C   0  0  0  0  0  0
  -21.4149  -29.3050   22.3712 N   0  0  0  0  0  0
  -26.4281  -37.3795   23.9417 N   0  0  0  0  0  0
  -24.6706  -31.0777   22.1020 N   0  0  0  0  0  0
  -23.4186  -28.8192   23.3003 O   0  0  0  0  0  0
  -28.3759  -26.6508   20.1583 O   0  0  0  0  0  0
  -26.5594  -34.8924   22.4689 O   0  0  0  0  0  0
  -23.5362  -32.1432   23.7510 O   0  0  0  0  0  0
  -29.0386  -18.6982   19.6307 C   0  0  0  0  0  0
  -29.0494  -17.3305   19.9725 C   0  0  0  0  0  0
  -30.9686  -17.7119   21.4144 C   0  0  0  0  0  0
  -29.9749  -19.6008   20.1861 C   0  0  0  0  0  0
  -30.0257  -16.8190   20.8522 C   0  0  0  0  0  0
  -30.9426  -19.0929   21.0903 C   0  0  0  0  0  0
  -29.9658  -21.0376   19.7161 C   0  0  0  0  0  0
  -30.6072  -24.3117   20.1014 C   0  0  0  0  0  0
  -31.1812  -22.9613   20.5453 C   0  0  0  0  0  0
  -28.8522  -22.8615   20.8616 C   0  0  0  0  0  0
  -29.2492  -24.3570   20.7838 C   0  0  2  0  0  0
  -28.1765  -25.2252   20.0809 C   0  0  0  0  0  0
  -30.0508  -22.0301   20.6326 N   0  0  0  0  0  0
  -29.9868  -15.4365   21.1996 N   0  0  0  0  0  0
  -29.7977  -21.2809   18.5148 O   0  0  0  0  0  0
  -31.8766  -19.9122   21.6330 F   0  0  0  0  0  0
  -31.4694  -12.4203   19.1112 H   0  0  0  0  0  0
  -30.3405  -11.2935   19.8077 H   0  0  0  0  0  0
  -29.7330  -11.7904   17.4229 H   0  0  0  0  0  0
  -29.6611  -13.4995   17.7753 H   0  0  0  0  0  0
  -27.8200  -11.3136   18.8030 H   0  0  0  0  0  0
  -27.3681  -12.6568   17.7875 H   0  0  0  0  0  0
  -27.7114  -14.2528   19.5886 H   0  0  0  0  0  0
  -28.6794  -11.9253   21.3194 H   0  0  0  0  0  0
  -28.4595  -13.5463   21.8876 H   0  0  0  0  0  0
  -25.2743   -9.5698   22.4725 H   0  0  0  0  0  0
  -24.0011   -7.4641   22.7438 H   0  0  0  0  0  0
  -21.0834   -8.8736   19.8923 H   0  0  0  0  0  0
  -22.3664  -10.9656   19.6150 H   0  0  0  0  0  0
  -21.1996   -7.6142   23.9709 H   0  0  0  0  0  0
  -21.1484   -6.0521   25.9069 H   0  0  0  0  0  0
  -22.0596   -2.7609   23.2840 H   0  0  0  0  0  0
  -22.4140  -11.9885   22.4769 H   0  0  0  0  0  0
  -21.1110  -13.1223   22.2600 H   0  0  0  0  0  0
  -24.6751  -15.8471   20.5165 H   0  0  0  0  0  0
  -26.2946  -15.6182   20.0958 H   0  0  0  0  0  0
  -26.7133  -32.5514   23.1166 H   0  0  0  0  0  0
  -25.0066  -33.9771   25.0474 H   0  0  0  0  0  0
  -22.6947  -31.3135   21.4157 H   0  0  0  0  0  0
  -23.3741  -35.9651   23.3292 H   0  0  0  0  0  0
  -24.3580  -36.8941   22.2051 H   0  0  0  0  0  0
  -23.7233  -37.6519   23.6658 H   0  0  0  0  0  0
  -26.0613  -31.5997   20.6081 H   0  0  0  0  0  0
  -26.8208  -30.8706   21.9953 H   0  0  0  0  0  0
  -28.0968  -29.0810   21.1762 H   0  0  0  0  0  0
  -26.0146  -26.0037   18.9596 H   0  0  0  0  0  0
  -23.9746  -27.3313   18.9966 H   0  0  0  0  0  0
  -23.7224  -30.6159   19.4077 H   0  0  0  0  0  0
  -22.7353  -29.2596   19.8635 H   0  0  0  0  0  0
  -25.1272  -36.1963   25.0825 H   0  0  0  0  0  0
  -20.9961  -28.3247   24.1420 H   0  0  0  0  0  0
  -20.5667  -26.2287   23.3604 H   0  0  0  0  0  0
  -21.6632  -26.7450   22.1198 H   0  0  0  0  0  0
  -19.6897  -25.6305   21.1231 H   0  0  0  0  0  0
  -19.6668  -27.3211   20.6749 H   0  0  0  0  0  0
  -17.4183  -26.6668   21.4042 H   0  0  0  0  0  0
  -18.0329  -26.0068   22.9032 H   0  0  0  0  0  0
  -19.7933  -30.7265   24.2274 H   0  0  0  0  0  0
  -17.5016  -31.6265   24.5183 H   0  0  0  0  0  0
  -15.5350  -30.3009   23.7640 H   0  0  0  0  0  0
  -15.8662  -28.0848   22.7037 H   0  0  0  0  0  0
  -24.5897  -30.7115   25.7863 H   0  0  0  0  0  0
  -24.9008  -32.2906   26.4992 H   0  0  0  0  0  0
  -25.8122  -30.8873   27.0246 H   0  0  0  0  0  0
  -26.2859  -29.6787   24.1210 H   0  0  0  0  0  0
  -27.4042  -29.7271   25.4640 H   0  0  0  0  0  0
  -27.8717  -30.4312   23.9338 H   0  0  0  0  0  0
  -27.2665  -33.3634   26.2080 H   0  0  0  0  0  0
  -28.3863  -32.6902   25.0325 H   0  0  0  0  0  0
  -28.0730  -31.8465   26.5419 H   0  0  0  0  0  0
  -28.2582  -38.0113   24.7531 H   0  0  0  0  0  0
  -28.1087  -36.2649   24.6239 H   0  0  0  0  0  0
  -27.2305  -37.1402   25.8860 H   0  0  0  0  0  0
  -20.9307  -29.8790   21.6954 H   0  0  0  0  0  0
  -26.0166  -38.2867   24.1447 H   0  0  0  0  0  0
  -28.2992  -19.0608   18.9297 H   0  0  0  0  0  0
  -28.3103  -16.6751   19.5321 H   0  0  0  0  0  0
  -31.7228  -17.3408   22.0936 H   0  0  0  0  0  0
  -30.4853  -24.3203   19.0174 H   0  0  0  0  0  0
  -31.2432  -25.1547   20.3703 H   0  0  0  0  0  0
  -31.6235  -23.0452   21.5401 H   0  0  0  0  0  0
  -31.9722  -22.6219   19.8727 H   0  0  0  0  0  0
  -28.0733  -22.6416   20.1272 H   0  0  0  0  0  0
  -28.4207  -22.6286   21.8362 H   0  0  0  0  0  0
  -29.3863  -24.7211   21.8043 H   0  0  0  0  0  0
  -27.2311  -24.9601   20.5592 H   0  0  0  0  0  0
  -28.0934  -24.9353   19.0325 H   0  0  0  0  0  0
  -29.1038  -15.1053   21.5583 H   0  0  0  0  0  0
  1 25  1  0  0  0
  1 30  2  0  0  0
  1 84  1  0  0  0
  2  3  1  0  0  0
  2 25  1  0  0  0
  2 87  1  0  0  0
  2 88  1  0  0  0
  3  4  1  0  0  0
  3 89  1  0  0  0
  3 90  1  0  0  0
  4  5  1  0  0  0
  4 91  1  0  0  0
  4 92  1  0  0  0
  5  6  1  0  0  0
  5 26  1  0  0  0
  5 93  1  0  0  0
  6 25  1  0  0  0
  6 94  1  0  0  0
  6 95  1  0  0  0
  7  8  2  0  0  0
  7 26  1  0  0  0
  7 29  1  0  0  0
  8  9  1  0  0  0
  8 22  1  0  0  0
  9 10  1  0  0  0
  9 27  2  0  0  0
 10 11  2  0  0  0
 10 15  1  0  0  0
 11 12  1  0  0  0
 11 96  1  0  0  0
 12 13  2  0  0  0
 12 97  1  0  0  0
 13 14  1  0  0  0
 13 31  1  0  0  0
 14 15  2  0  0  0
 14 98  1  0  0  0
 15 99  1  0  0  0
 16 17  2  0  0  0
 16 21  1  0  0  0
 16 31  1  0  0  0
 17 18  1  0  0  0
 17100  1  0  0  0
 18 19  2  0  0  0
 18101  1  0  0  0
 19 20  1  0  0  0
 19 24  1  0  0  0
 20 21  2  0  0  0
 20102  1  0  0  0
 21 23  1  0  0  0
 22 28  1  0  0  0
 22 32  2  0  0  0
 26 27  1  0  0  0
 28103  1  0  0  0
 28104  1  0  0  0
 29105  1  0  0  0
 29106  1  0  0  0
 33 34  1  0  0  0
 33 66  1  0  0  0
 33 70  2  0  0  0
 34 36  1  0  0  0
 34 59  1  0  0  0
 34107  1  0  0  0
 35 44  2  0  0  0
 35 45  1  0  0  0
 35 68  1  0  0  0
 36 56  1  0  0  0
 36108  1  0  0  0
 37 39  1  0  0  0
 37 47  1  0  0  0
 37 66  1  0  0  0
 37109  1  0  0  0
 38 43  2  0  0  0
 38 46  1  0  0  0
 38 47  1  0  0  0
 39 64  1  0  0  0
 39 67  2  0  0  0
 40 52  1  0  0  0
 40 53  2  0  0  0
 40 58  1  0  0  0
 41110  1  0  0  0
 41111  1  0  0  0
 41112  1  0  0  0
 41 48  1  0  0  0
 42 43  1  0  0  0
 42 66  1  0  0  0
 42113  1  0  0  0
 42114  1  0  0  0
 43 44  1  0  0  0
 44115  1  0  0  0
 45 46  2  0  0  0
 45116  1  0  0  0
 46117  1  0  0  0
 47118  1  0  0  0
 47119  1  0  0  0
 48 56  1  0  0  0
 48 65  1  0  0  0
 48120  1  0  0  0
 49 50  1  0  0  0
 49 53  1  0  0  0
 49 64  1  0  0  0
 49121  1  0  0  0
 50 51  1  0  0  0
 50122  1  0  0  0
 50123  1  0  0  0
 51 52  1  0  0  0
 51124  1  0  0  0
 51125  1  0  0  0
 52126  1  0  0  0
 52127  1  0  0  0
 53 54  1  0  0  0
 54 55  2  0  0  0
 54128  1  0  0  0
 55 57  1  0  0  0
 55129  1  0  0  0
 56 69  2  0  0  0
 57 58  2  0  0  0
 57130  1  0  0  0
 58131  1  0  0  0
 59 60  1  0  0  0
 59 61  1  0  0  0
 59 62  1  0  0  0
 60132  1  0  0  0
 60133  1  0  0  0
 60134  1  0  0  0
 61135  1  0  0  0
 61136  1  0  0  0
 61137  1  0  0  0
 62138  1  0  0  0
 62139  1  0  0  0
 62140  1  0  0  0
 63 65  1  0  0  0
 63141  1  0  0  0
 63142  1  0  0  0
 63143  1  0  0  0
 64144  1  0  0  0
 65145  1  0  0  0
 68 82  1  0  0  0
 71 72  2  0  0  0
 71 74  1  0  0  0
 71146  1  0  0  0
 72 75  1  0  0  0
 72147  1  0  0  0
 73 75  2  0  0  0
 73 76  1  0  0  0
 73148  1  0  0  0
 74 76  2  0  0  0
 74 77  1  0  0  0
 75 84  1  0  0  0
 76 86  1  0  0  0
 77 83  1  0  0  0
 77 85  2  0  0  0
 78 79  1  0  0  0
 78 81  1  0  0  0
 78149  1  0  0  0
 78150  1  0  0  0
 79 83  1  0  0  0
 79151  1  0  0  0
 79152  1  0  0  0
 80 81  1  0  0  0
 80 83  1  0  0  0
 80153  1  0  0  0
 80154  1  0  0  0
 81 82  1  0  0  0
 81155  1  0  0  0
 82156  1  0  0  0
 82157  1  0  0  0
 84158  1  0  0  0
M  ISO  4   1 100  68 101  82 101  84 100
M  END
> <chiral flag>
0

> <version>
0

> <s_m_source_file>
/data/baiqing/PycharmProjects/Reinvent-master-3.2/result/LINK_invent/BTK/process_docking_weight1_custom_product_contain_oxygen_bond_distance_aromatic_linkinvent_7_9_3/rearranged_h_0098.sdf

> <i_m_source_file_index>
55

> <r_mmod_Potential_Energy-OPLS-2005>
188.682983398438

> <r_mmod_Stretch_Energy-OPLS-2005>
39.6657981872559

> <r_mmod_Bend_Energy-OPLS-2005>
120.707160949707

> <r_mmod_Torsional_Energy-OPLS-2005>
385.269836425781

> <r_mmod_Improper_Torsional_Energy-OPLS-2005>
10.6854152679443

> <r_mmod_Van_der_Waal_Energy-OPLS-2005>
153.290451049805

> <r_mmod_Electrostatic_Energy-OPLS-2005>
-313.307983398438

> <r_mmod_Solvation_Energy-OPLS-2005>
-222.441513061523

> <b_mmod_Minimization_Converged-OPLS-2005>
0

> <r_mmod_RMS_Derivative-OPLS-2005>
1.88756191730499

$$$$
55
                    3D
 Structure written by MMmdl.
159167  0  0  1  0            999 V2000
  -30.6692  -14.5769   20.4187 C   0  0  0  0  0  0
  -30.4366  -12.3038   19.4700 C   0  0  0  0  0  0
  -29.5177  -12.3580   18.2315 C   0  0  0  0  0  0
  -28.0181  -12.3572   18.6073 C   0  0  0  0  0  0
  -27.6560  -13.2133   19.8567 C   0  0  2  0  0  0
  -28.7096  -13.0696   20.9777 C   0  0  0  0  0  0
  -25.2562  -13.8150   20.5663 C   0  0  0  0  0  0
  -24.1820  -13.0429   20.9172 C   0  0  0  0  0  0
  -24.6408  -11.6907   20.8757 C   0  0  0  0  0  0
  -23.9085  -10.4297   21.0404 C   0  0  0  0  0  0
  -24.3639   -9.4209   21.9173 C   0  0  0  0  0  0
  -23.6314   -8.2257   22.0753 C   0  0  0  0  0  0
  -22.4288   -8.0287   21.3539 C   0  0  0  0  0  0
  -21.9928   -9.0266   20.4645 C   0  0  0  0  0  0
  -22.7254  -10.2138   20.3054 C   0  0  0  0  0  0
  -21.6858   -6.0742   22.5272 C   0  0  0  0  0  0
  -21.4010   -6.5641   23.8203 C   0  0  0  0  0  0
  -21.3675   -5.6781   24.9175 C   0  0  0  0  0  0
  -21.6064   -4.3042   24.7211 C   0  0  0  0  0  0
  -21.8825   -3.8139   23.4333 C   0  0  0  0  0  0
  -21.9200   -4.6975   22.3393 C   0  0  0  0  0  0
  -22.7835  -13.5218   21.1802 C   0  0  0  0  0  0
  -22.1641   -4.2167   21.0977 F   0  0  0  0  0  0
  -21.5669   -3.4521   25.7716 F   0  0  0  0  0  0
  -30.0277  -13.3691   20.4018 N   0  0  0  0  0  0
  -26.3014  -12.9347   20.3343 N   0  0  0  0  0  0
  -25.9343  -11.6511   20.5837 N   0  0  0  0  0  0
  -22.0436  -12.8259   22.0365 N   0  0  0  0  0  0
  -25.4170  -15.1875   20.4026 N   0  0  0  0  0  0
  -31.8527  -14.6986   20.0905 O   0  0  0  0  0  0
  -21.6649   -6.8877   21.4233 O   0  0  0  0  0  0
  -22.3548  -14.5523   20.6603 O   0  0  0  0  0  0
  -24.6207  -31.8641   23.2022 C   0  0  0  0  0  0
  -25.9097  -32.4786   23.8336 C   0  0  1  0  0  0
  -27.2437  -27.3821   20.0999 C   0  0  0  0  0  0
  -25.5943  -33.8589   24.2270 N   0  0  0  0  0  0
  -23.4098  -30.4841   21.5449 C   0  0  2  0  0  0
  -24.8542  -28.9361   20.1161 C   0  0  0  0  0  0
  -22.7445  -29.4651   22.4973 C   0  0  0  0  0  0
  -18.0282  -28.1380   22.8483 C   0  0  0  0  0  0
  -24.1481  -36.7318   23.2628 C   0  0  0  0  0  0
  -25.9423  -30.8085   21.3616 C   0  0  0  0  0  0
  -26.0165  -29.4369   20.7128 C   0  0  0  0  0  0
  -27.2060  -28.6683   20.7011 C   0  0  0  0  0  0
  -26.0521  -26.8981   19.5065 C   0  0  0  0  0  0
  -24.8689  -27.6651   19.5142 C   0  0  0  0  0  0
  -23.6209  -29.8140   20.1608 C   0  0  0  0  0  0
  -25.4099  -36.3095   24.0323 C   0  0  1  0  0  0
  -20.5871  -28.3677   23.1299 C   0  0  2  0  0  0
  -20.6783  -26.9419   22.5389 C   0  0  0  0  0  0
  -19.5764  -26.6385   21.5191 C   0  0  0  0  0  0
  -18.1935  -26.7927   22.1600 C   0  0  0  0  0  0
  -19.1528  -28.8844   23.2881 C   0  0  0  0  0  0
  -18.9474  -30.1446   23.8896 C   0  0  0  0  0  0
  -17.6476  -30.6588   24.0572 C   0  0  0  0  0  0
  -25.9049  -34.9460   23.5098 C   0  0  0  0  0  0
  -16.5361  -29.9097   23.6325 C   0  0  0  0  0  0
  -16.7266  -28.6508   23.0347 C   0  0  0  0  0  0
  -26.4455  -31.6593   25.0723 C   0  0  0  0  0  0
  -25.3652  -31.3790   26.1442 C   0  0  0  0  0  0
  -27.0288  -30.3011   24.6160 C   0  0  0  0  0  0
  -27.5980  -32.4317   25.7556 C   0  0  0  0  0  0
  -27.5578  -37.1823   24.8450 C   0  0  0  0  0  0
  -21.4162  -29.3048   22.3718 N   0  0  0  0  0  0
  -26.4268  -37.3793   23.9421 N   0  0  0  0  0  0
  -24.6764  -31.0681   22.0952 N   0  0  0  0  0  0
  -23.4191  -28.8202   23.3043 O   0  0  0  0  0  0
  -28.4409  -26.6720   20.1343 O   0  0  0  0  0  0
  -26.5600  -34.8936   22.4654 O   0  0  0  0  0  0
  -23.5388  -32.1441   23.7368 O   0  0  0  0  0  0
  -29.9922  -19.4805   18.5739 C   0  0  0  0  0  0
  -29.8772  -18.2872   17.8477 C   0  0  0  0  0  0
  -30.0826  -18.1788   20.6372 C   0  0  0  0  0  0
  -30.0853  -19.4508   19.9798 C   0  0  0  0  0  0
  -29.8555  -17.0382   18.4966 C   0  0  0  0  0  0
  -29.9846  -16.9479   19.9135 C   0  0  0  0  0  0
  -30.2880  -20.7542   20.7351 C   0  0  0  0  0  0
  -28.8854  -24.2703   20.7008 C   0  0  0  0  0  0
  -29.6562  -15.8290   17.6147 C   0  0  0  0  0  0
  -31.3320  -23.8147   19.8348 C   0  0  0  0  0  0
  -28.5918  -25.3269   19.5952 C   0  0  0  0  0  0
  -30.0979  -23.2800   20.5905 C   0  0  2  0  0  0
  -29.8871  -15.6747   20.6046 N   0  0  0  0  0  0
  -29.7653  -21.8852   20.2009 N   0  0  0  0  0  0
  -30.9292  -20.7572   21.7872 O   0  0  0  0  0  0
  -28.1266  -24.2118   21.6726 O   0  0  0  0  0  0
  -31.4803  -12.3865   19.1665 H   0  0  0  0  0  0
  -30.3499  -11.3289   19.9546 H   0  0  0  0  0  0
  -29.7209  -11.4903   17.6026 H   0  0  0  0  0  0
  -29.7703  -13.2048   17.6055 H   0  0  0  0  0  0
  -27.7386  -11.3190   18.7835 H   0  0  0  0  0  0
  -27.4220  -12.6758   17.7487 H   0  0  0  0  0  0
  -27.6597  -14.2514   19.5368 H   0  0  0  0  0  0
  -28.7039  -12.0518   21.3712 H   0  0  0  0  0  0
  -28.4856  -13.7252   21.8186 H   0  0  0  0  0  0
  -25.2791   -9.5703   22.4743 H   0  0  0  0  0  0
  -24.0032   -7.4669   22.7478 H   0  0  0  0  0  0
  -21.0848   -8.8792   19.8962 H   0  0  0  0  0  0
  -22.3701  -10.9692   19.6178 H   0  0  0  0  0  0
  -21.1953   -7.6138   23.9716 H   0  0  0  0  0  0
  -21.1500   -6.0497   25.9076 H   0  0  0  0  0  0
  -22.0579   -2.7612   23.2819 H   0  0  0  0  0  0
  -22.4022  -11.9962   22.4858 H   0  0  0  0  0  0
  -21.1045  -13.1289   22.2485 H   0  0  0  0  0  0
  -24.6329  -15.8230   20.4961 H   0  0  0  0  0  0
  -26.2573  -15.6456   20.0716 H   0  0  0  0  0  0
  -26.7186  -32.5444   23.1100 H   0  0  0  0  0  0
  -25.0151  -33.9720   25.0464 H   0  0  0  0  0  0
  -22.7025  -31.3024   21.4010 H   0  0  0  0  0  0
  -23.3732  -35.9657   23.3245 H   0  0  0  0  0  0
  -24.3592  -36.8970   22.2050 H   0  0  0  0  0  0
  -23.7224  -37.6512   23.6664 H   0  0  0  0  0  0
  -26.0580  -31.5663   20.5853 H   0  0  0  0  0  0
  -26.8289  -30.8639   21.9815 H   0  0  0  0  0  0
  -28.1025  -29.0544   21.1657 H   0  0  0  0  0  0
  -25.9902  -25.9275   19.0392 H   0  0  0  0  0  0
  -23.9745  -27.2651   19.0573 H   0  0  0  0  0  0
  -23.7425  -30.5879   19.4014 H   0  0  0  0  0  0
  -22.7390  -29.2455   19.8596 H   0  0  0  0  0  0
  -25.1264  -36.1933   25.0807 H   0  0  0  0  0  0
  -20.9940  -28.3226   24.1427 H   0  0  0  0  0  0
  -20.5706  -26.2289   23.3575 H   0  0  0  0  0  0
  -21.6661  -26.7489   22.1175 H   0  0  0  0  0  0
  -19.6942  -25.6284   21.1258 H   0  0  0  0  0  0
  -19.6716  -27.3166   20.6695 H   0  0  0  0  0  0
  -17.4222  -26.6669   21.3984 H   0  0  0  0  0  0
  -18.0346  -26.0047   22.8979 H   0  0  0  0  0  0
  -19.7962  -30.7248   24.2264 H   0  0  0  0  0  0
  -17.5050  -31.6275   24.5185 H   0  0  0  0  0  0
  -15.5365  -30.3020   23.7644 H   0  0  0  0  0  0
  -15.8664  -28.0834   22.7063 H   0  0  0  0  0  0
  -24.5812  -30.7136   25.7820 H   0  0  0  0  0  0
  -24.8868  -32.2999   26.4793 H   0  0  0  0  0  0
  -25.7944  -30.9056   27.0280 H   0  0  0  0  0  0
  -26.2915  -29.6822   24.1047 H   0  0  0  0  0  0
  -27.3854  -29.7186   25.4666 H   0  0  0  0  0  0
  -27.8812  -30.4299   23.9482 H   0  0  0  0  0  0
  -27.2526  -33.3564   26.2193 H   0  0  0  0  0  0
  -28.3819  -32.6956   25.0447 H   0  0  0  0  0  0
  -28.0623  -31.8415   26.5470 H   0  0  0  0  0  0
  -28.2546  -38.0166   24.7533 H   0  0  0  0  0  0
  -28.1123  -36.2702   24.6202 H   0  0  0  0  0  0
  -27.2334  -37.1381   25.8859 H   0  0  0  0  0  0
  -20.9334  -29.8782   21.6949 H   0  0  0  0  0  0
  -26.0145  -38.2865   24.1417 H   0  0  0  0  0  0
  -30.0226  -20.4174   18.0343 H   0  0  0  0  0  0
  -29.7945  -18.3398   16.7700 H   0  0  0  0  0  0
  -30.1537  -18.1598   21.7145 H   0  0  0  0  0  0
  -29.1945  -16.1031   16.6664 H   0  0  0  0  0  0
  -28.9776  -15.1314   18.0877 H   0  0  0  0  0  0
  -30.6091  -15.3374   17.4106 H   0  0  0  0  0  0
  -31.5076  -24.8668   20.0660 H   0  0  0  0  0  0
  -31.2255  -23.7211   18.7555 H   0  0  0  0  0  0
  -32.2321  -23.2711   20.1278 H   0  0  0  0  0  0
  -27.7289  -24.9772   19.0357 H   0  0  0  0  0  0
  -29.4150  -25.3436   18.8813 H   0  0  0  0  0  0
  -30.4638  -23.2158   21.6157 H   0  0  0  0  0  0
  -28.9836  -15.4786   21.0067 H   0  0  0  0  0  0
  -29.1746  -21.7742   19.3896 H   0  0  0  0  0  0
  1 25  1  0  0  0
  1 30  2  0  0  0
  1 83  1  0  0  0
  2  3  1  0  0  0
  2 25  1  0  0  0
  2 87  1  0  0  0
  2 88  1  0  0  0
  3  4  1  0  0  0
  3 89  1  0  0  0
  3 90  1  0  0  0
  4  5  1  0  0  0
  4 91  1  0  0  0
  4 92  1  0  0  0
  5  6  1  0  0  0
  5 26  1  0  0  0
  5 93  1  0  0  0
  6 25  1  0  0  0
  6 94  1  0  0  0
  6 95  1  0  0  0
  7  8  2  0  0  0
  7 26  1  0  0  0
  7 29  1  0  0  0
  8  9  1  0  0  0
  8 22  1  0  0  0
  9 10  1  0  0  0
  9 27  2  0  0  0
 10 11  2  0  0  0
 10 15  1  0  0  0
 11 12  1  0  0  0
 11 96  1  0  0  0
 12 13  2  0  0  0
 12 97  1  0  0  0
 13 14  1  0  0  0
 13 31  1  0  0  0
 14 15  2  0  0  0
 14 98  1  0  0  0
 15 99  1  0  0  0
 16 17  2  0  0  0
 16 21  1  0  0  0
 16 31  1  0  0  0
 17 18  1  0  0  0
 17100  1  0  0  0
 18 19  2  0  0  0
 18101  1  0  0  0
 19 20  1  0  0  0
 19 24  1  0  0  0
 20 21  2  0  0  0
 20102  1  0  0  0
 21 23  1  0  0  0
 22 28  1  0  0  0
 22 32  2  0  0  0
 26 27  1  0  0  0
 28103  1  0  0  0
 28104  1  0  0  0
 29105  1  0  0  0
 29106  1  0  0  0
 33 34  1  0  0  0
 33 66  1  0  0  0
 33 70  2  0  0  0
 34 36  1  0  0  0
 34 59  1  0  0  0
 34107  1  0  0  0
 35 44  2  0  0  0
 35 45  1  0  0  0
 35 68  1  0  0  0
 36 56  1  0  0  0
 36108  1  0  0  0
 37 39  1  0  0  0
 37 47  1  0  0  0
 37 66  1  0  0  0
 37109  1  0  0  0
 38 43  2  0  0  0
 38 46  1  0  0  0
 38 47  1  0  0  0
 39 64  1  0  0  0
 39 67  2  0  0  0
 40 52  1  0  0  0
 40 53  2  0  0  0
 40 58  1  0  0  0
 41110  1  0  0  0
 41111  1  0  0  0
 41112  1  0  0  0
 41 48  1  0  0  0
 42 43  1  0  0  0
 42 66  1  0  0  0
 42113  1  0  0  0
 42114  1  0  0  0
 43 44  1  0  0  0
 44115  1  0  0  0
 45 46  2  0  0  0
 45116  1  0  0  0
 46117  1  0  0  0
 47118  1  0  0  0
 47119  1  0  0  0
 48 56  1  0  0  0
 48 65  1  0  0  0
 48120  1  0  0  0
 49 50  1  0  0  0
 49 53  1  0  0  0
 49 64  1  0  0  0
 49121  1  0  0  0
 50 51  1  0  0  0
 50122  1  0  0  0
 50123  1  0  0  0
 51 52  1  0  0  0
 51124  1  0  0  0
 51125  1  0  0  0
 52126  1  0  0  0
 52127  1  0  0  0
 53 54  1  0  0  0
 54 55  2  0  0  0
 54128  1  0  0  0
 55 57  1  0  0  0
 55129  1  0  0  0
 56 69  2  0  0  0
 57 58  2  0  0  0
 57130  1  0  0  0
 58131  1  0  0  0
 59 60  1  0  0  0
 59 61  1  0  0  0
 59 62  1  0  0  0
 60132  1  0  0  0
 60133  1  0  0  0
 60134  1  0  0  0
 61135  1  0  0  0
 61136  1  0  0  0
 61137  1  0  0  0
 62138  1  0  0  0
 62139  1  0  0  0
 62140  1  0  0  0
 63 65  1  0  0  0
 63141  1  0  0  0
 63142  1  0  0  0
 63143  1  0  0  0
 64144  1  0  0  0
 65145  1  0  0  0
 68 81  1  0  0  0
 71 72  2  0  0  0
 71 74  1  0  0  0
 71146  1  0  0  0
 72 75  1  0  0  0
 72147  1  0  0  0
 73 74  2  0  0  0
 73 76  1  0  0  0
 73148  1  0  0  0
 74 77  1  0  0  0
 75 76  2  0  0  0
 75 79  1  0  0  0
 76 83  1  0  0  0
 77 84  1  0  0  0
 77 85  2  0  0  0
 78 81  1  0  0  0
 78 82  1  0  0  0
 78 86  2  0  0  0
 79149  1  0  0  0
 79150  1  0  0  0
 79151  1  0  0  0
 80152  1  0  0  0
 80153  1  0  0  0
 80154  1  0  0  0
 80 82  1  0  0  0
 81155  1  0  0  0
 81156  1  0  0  0
 82 84  1  0  0  0
 82157  1  0  0  0
 83158  1  0  0  0
 84159  1  0  0  0
M  ISO  4   1 100  68 101  81 101  83 100
M  END
> <chiral flag>
0

> <version>
0

> <s_m_source_file>
/data/baiqing/PycharmProjects/Reinvent-master-3.2/result/LINK_invent/BTK/process_docking_weight1_custom_product_contain_oxygen_bond_distance_aromatic_linkinvent_7_9_3/rearranged_h_0098.sdf

> <i_m_source_file_index>
56

> <r_mmod_Potential_Energy-OPLS-2005>
-41.6919250488281

> <r_mmod_Stretch_Energy-OPLS-2005>
55.8523101806641

> <r_mmod_Bend_Energy-OPLS-2005>
130.253570556641

> <r_mmod_Torsional_Energy-OPLS-2005>
269.833038330078

> <r_mmod_Improper_Torsional_Energy-OPLS-2005>
6.84749269485474

> <r_mmod_Van_der_Waal_Energy-OPLS-2005>
148.347793579102

> <r_mmod_Electrostatic_Energy-OPLS-2005>
-426.242614746094

> <r_mmod_Solvation_Energy-OPLS-2005>
-260.504058837891

> <b_mmod_Minimization_Converged-OPLS-2005>
0

> <r_mmod_RMS_Derivative-OPLS-2005>
4.38734579086304

$$$$
56
                    3D
 Structure written by MMmdl.
158166  0  0  1  0            999 V2000
  -30.7640  -14.4044   20.5570 C   0  0  0  0  0  0
  -30.3970  -12.2592   19.4210 C   0  0  0  0  0  0
  -29.4854  -12.4965   18.2025 C   0  0  0  0  0  0
  -28.0066  -12.3741   18.6123 C   0  0  0  0  0  0
  -27.6598  -13.2166   19.8700 C   0  0  2  0  0  0
  -28.7041  -13.0230   20.9939 C   0  0  0  0  0  0
  -25.2573  -13.8191   20.5694 C   0  0  0  0  0  0
  -24.1836  -13.0453   20.9161 C   0  0  0  0  0  0
  -24.6403  -11.6916   20.8726 C   0  0  0  0  0  0
  -23.9068  -10.4292   21.0394 C   0  0  0  0  0  0
  -24.3612   -9.4211   21.9180 C   0  0  0  0  0  0
  -23.6288   -8.2248   22.0753 C   0  0  0  0  0  0
  -22.4274   -8.0283   21.3536 C   0  0  0  0  0  0
  -21.9904   -9.0260   20.4646 C   0  0  0  0  0  0
  -22.7231  -10.2136   20.3056 C   0  0  0  0  0  0
  -21.6861   -6.0724   22.5269 C   0  0  0  0  0  0
  -21.4022   -6.5637   23.8199 C   0  0  0  0  0  0
  -21.3663   -5.6795   24.9169 C   0  0  0  0  0  0
  -21.6040   -4.3054   24.7228 C   0  0  0  0  0  0
  -21.8823   -3.8136   23.4353 C   0  0  0  0  0  0
  -21.9192   -4.6949   22.3399 C   0  0  0  0  0  0
  -22.7850  -13.5231   21.1841 C   0  0  0  0  0  0
  -22.1659   -4.2124   21.0979 F   0  0  0  0  0  0
  -21.5630   -3.4544   25.7751 F   0  0  0  0  0  0
  -30.0404  -13.2617   20.4355 N   0  0  0  0  0  0
  -26.3026  -12.9383   20.3372 N   0  0  0  0  0  0
  -25.9332  -11.6526   20.5757 N   0  0  0  0  0  0
  -22.0507  -12.8220   22.0395 N   0  0  0  0  0  0
  -25.4321  -15.1919   20.4113 N   0  0  0  0  0  0
  -31.8958  -14.4973   20.0757 O   0  0  0  0  0  0
  -21.6643   -6.8870   21.4226 O   0  0  0  0  0  0
  -22.3513  -14.5527   20.6685 O   0  0  0  0  0  0
  -24.6168  -31.8695   23.2092 C   0  0  0  0  0  0
  -25.9094  -32.4810   23.8362 C   0  0  1  0  0  0
  -27.2252  -27.4438   20.0807 C   0  0  0  0  0  0
  -25.5944  -33.8604   24.2309 N   0  0  0  0  0  0
  -23.3989  -30.4941   21.5552 C   0  0  2  0  0  0
  -24.8358  -28.9584   20.1111 C   0  0  0  0  0  0
  -22.7404  -29.4670   22.5029 C   0  0  0  0  0  0
  -18.0278  -28.1349   22.8496 C   0  0  0  0  0  0
  -24.1501  -36.7295   23.2620 C   0  0  0  0  0  0
  -25.9248  -30.8343   21.3597 C   0  0  0  0  0  0
  -25.9972  -29.4710   20.7039 C   0  0  0  0  0  0
  -27.1916  -28.7215   20.6833 C   0  0  0  0  0  0
  -26.0437  -26.9408   19.4886 C   0  0  0  0  0  0
  -24.8532  -27.6932   19.5036 C   0  0  0  0  0  0
  -23.5993  -29.8272   20.1684 C   0  0  0  0  0  0
  -25.4111  -36.3093   24.0327 C   0  0  1  0  0  0
  -20.5858  -28.3656   23.1325 C   0  0  2  0  0  0
  -20.6774  -26.9388   22.5420 C   0  0  0  0  0  0
  -19.5745  -26.6370   21.5211 C   0  0  0  0  0  0
  -18.1918  -26.7901   22.1618 C   0  0  0  0  0  0
  -19.1524  -28.8822   23.2914 C   0  0  0  0  0  0
  -18.9452  -30.1424   23.8926 C   0  0  0  0  0  0
  -17.6454  -30.6579   24.0541 C   0  0  0  0  0  0
  -25.9048  -34.9463   23.5108 C   0  0  0  0  0  0
  -16.5339  -29.9076   23.6306 C   0  0  0  0  0  0
  -16.7265  -28.6474   23.0362 C   0  0  0  0  0  0
  -26.4497  -31.6594   25.0702 C   0  0  0  0  0  0
  -25.3757  -31.3695   26.1451 C   0  0  0  0  0  0
  -27.0299  -30.3026   24.6060 C   0  0  0  0  0  0
  -27.6070  -32.4299   25.7477 C   0  0  0  0  0  0
  -27.5623  -37.1762   24.8428 C   0  0  0  0  0  0
  -21.4139  -29.3035   22.3760 N   0  0  0  0  0  0
  -26.4274  -37.3809   23.9458 N   0  0  0  0  0  0
  -24.6659  -31.0801   22.0995 N   0  0  0  0  0  0
  -23.4197  -28.8212   23.3057 O   0  0  0  0  0  0
  -28.4171  -26.7546   20.0876 O   0  0  0  0  0  0
  -26.5590  -34.8920   22.4659 O   0  0  0  0  0  0
  -23.5389  -32.1458   23.7526 O   0  0  0  0  0  0
  -29.7484  -18.9003   20.0493 C   0  0  0  0  0  0
  -29.3474  -20.2417   20.1587 C   0  0  0  0  0  0
  -30.2951  -20.3343   22.4032 C   0  0  0  0  0  0
  -30.4622  -18.2778   21.0930 C   0  0  0  0  0  0
  -30.7114  -18.9898   22.2940 C   0  0  0  0  0  0
  -29.6595  -20.9779   21.3208 C   0  0  0  0  0  0
  -29.8318  -23.2884   20.5411 C   0  0  0  0  0  0
  -31.4785  -18.3744   23.4521 C   0  0  0  0  0  0
  -31.0495  -16.9036   20.8199 C   0  0  0  0  0  0
  -30.1492  -15.6846   21.1518 C   0  0  0  0  0  0
  -29.5144  -24.7565   20.8284 C   0  0  0  0  0  0
  -28.4014  -25.3299   19.9345 C   0  0  0  0  0  0
  -29.3654  -22.3627   21.4007 N   0  0  0  0  0  0
  -30.5301  -23.0053   19.5630 O   0  0  0  0  0  0
  -31.4467  -12.3005   19.1224 H   0  0  0  0  0  0
  -30.2464  -11.2556   19.8214 H   0  0  0  0  0  0
  -29.7152  -11.7798   17.4131 H   0  0  0  0  0  0
  -29.6753  -13.4862   17.7827 H   0  0  0  0  0  0
  -27.8021  -11.3202   18.8009 H   0  0  0  0  0  0
  -27.3618  -12.6636   17.7816 H   0  0  0  0  0  0
  -27.6977  -14.2619   19.5630 H   0  0  0  0  0  0
  -28.6527  -12.0079   21.3912 H   0  0  0  0  0  0
  -28.4927  -13.6841   21.8352 H   0  0  0  0  0  0
  -25.2763   -9.5687   22.4750 H   0  0  0  0  0  0
  -23.9995   -7.4642   22.7480 H   0  0  0  0  0  0
  -21.0832   -8.8778   19.8961 H   0  0  0  0  0  0
  -22.3686  -10.9675   19.6161 H   0  0  0  0  0  0
  -21.2021   -7.6151   23.9691 H   0  0  0  0  0  0
  -21.1484   -6.0538   25.9072 H   0  0  0  0  0  0
  -22.0600   -2.7596   23.2868 H   0  0  0  0  0  0
  -22.4134  -11.9879   22.4779 H   0  0  0  0  0  0
  -21.1127  -13.1227   22.2628 H   0  0  0  0  0  0
  -24.6741  -15.8569   20.5264 H   0  0  0  0  0  0
  -26.2997  -15.6263   20.1229 H   0  0  0  0  0  0
  -26.7165  -32.5487   23.1113 H   0  0  0  0  0  0
  -25.0178  -33.9732   25.0519 H   0  0  0  0  0  0
  -22.6888  -31.3129   21.4208 H   0  0  0  0  0  0
  -23.3779  -35.9610   23.3195 H   0  0  0  0  0  0
  -24.3631  -36.8994   22.2056 H   0  0  0  0  0  0
  -23.7197  -37.6449   23.6682 H   0  0  0  0  0  0
  -26.0401  -31.6013   20.5953 H   0  0  0  0  0  0
  -26.8133  -30.8788   21.9791 H   0  0  0  0  0  0
  -28.0917  -29.1123   21.1345 H   0  0  0  0  0  0
  -26.0161  -25.9767   19.0044 H   0  0  0  0  0  0
  -23.9592  -27.2897   19.0452 H   0  0  0  0  0  0
  -23.7020  -30.6012   19.4066 H   0  0  0  0  0  0
  -22.7202  -29.2521   19.8753 H   0  0  0  0  0  0
  -25.1267  -36.1930   25.0808 H   0  0  0  0  0  0
  -20.9942  -28.3218   24.1449 H   0  0  0  0  0  0
  -20.5686  -26.2245   23.3618 H   0  0  0  0  0  0
  -21.6641  -26.7464   22.1182 H   0  0  0  0  0  0
  -19.6895  -25.6290   21.1233 H   0  0  0  0  0  0
  -19.6657  -27.3202   20.6750 H   0  0  0  0  0  0
  -17.4182  -26.6676   21.4008 H   0  0  0  0  0  0
  -18.0280  -26.0035   22.8995 H   0  0  0  0  0  0
  -19.7937  -30.7217   24.2320 H   0  0  0  0  0  0
  -17.5017  -31.6265   24.5138 H   0  0  0  0  0  0
  -15.5336  -30.2986   23.7632 H   0  0  0  0  0  0
  -15.8653  -28.0793   22.7093 H   0  0  0  0  0  0
  -24.5957  -30.6996   25.7808 H   0  0  0  0  0  0
  -24.8907  -32.2832   26.4885 H   0  0  0  0  0  0
  -25.8130  -30.8897   27.0220 H   0  0  0  0  0  0
  -26.2815  -29.6805   24.1137 H   0  0  0  0  0  0
  -27.4072  -29.7256   25.4515 H   0  0  0  0  0  0
  -27.8662  -30.4305   23.9183 H   0  0  0  0  0  0
  -27.2695  -33.3607   26.2047 H   0  0  0  0  0  0
  -28.3911  -32.6844   25.0326 H   0  0  0  0  0  0
  -28.0700  -31.8400   26.5402 H   0  0  0  0  0  0
  -28.2488  -38.0223   24.7734 H   0  0  0  0  0  0
  -28.1271  -36.2760   24.5921 H   0  0  0  0  0  0
  -27.2366  -37.1011   25.8823 H   0  0  0  0  0  0
  -20.9315  -29.8762   21.6980 H   0  0  0  0  0  0
  -26.0142  -38.2846   24.1606 H   0  0  0  0  0  0
  -29.5569  -18.3667   19.1288 H   0  0  0  0  0  0
  -28.8427  -20.7151   19.3266 H   0  0  0  0  0  0
  -30.5234  -20.8918   23.3005 H   0  0  0  0  0  0
  -31.0862  -18.7266   24.4057 H   0  0  0  0  0  0
  -32.5324  -18.6513   23.4019 H   0  0  0  0  0  0
  -31.4133  -17.2872   23.4632 H   0  0  0  0  0  0
  -32.0167  -16.8058   21.3150 H   0  0  0  0  0  0
  -31.2888  -16.8910   19.7536 H   0  0  0  0  0  0
  -29.1639  -15.8354   20.7116 H   0  0  0  0  0  0
  -30.0163  -15.5746   22.2269 H   0  0  0  0  0  0
  -30.4342  -25.3196   20.6605 H   0  0  0  0  0  0
  -29.2614  -24.8970   21.8790 H   0  0  0  0  0  0
  -27.4577  -24.8863   20.2520 H   0  0  0  0  0  0
  -28.5510  -25.0763   18.8831 H   0  0  0  0  0  0
  -28.8793  -22.6865   22.2276 H   0  0  0  0  0  0
  1 25  1  0  0  0
  1 30  2  0  0  0
  1 80  1  0  0  0
  2  3  1  0  0  0
  2 25  1  0  0  0
  2 85  1  0  0  0
  2 86  1  0  0  0
  3  4  1  0  0  0
  3 87  1  0  0  0
  3 88  1  0  0  0
  4  5  1  0  0  0
  4 89  1  0  0  0
  4 90  1  0  0  0
  5  6  1  0  0  0
  5 26  1  0  0  0
  5 91  1  0  0  0
  6 25  1  0  0  0
  6 92  1  0  0  0
  6 93  1  0  0  0
  7  8  2  0  0  0
  7 26  1  0  0  0
  7 29  1  0  0  0
  8  9  1  0  0  0
  8 22  1  0  0  0
  9 10  1  0  0  0
  9 27  2  0  0  0
 10 11  2  0  0  0
 10 15  1  0  0  0
 11 12  1  0  0  0
 11 94  1  0  0  0
 12 13  2  0  0  0
 12 95  1  0  0  0
 13 14  1  0  0  0
 13 31  1  0  0  0
 14 15  2  0  0  0
 14 96  1  0  0  0
 15 97  1  0  0  0
 16 17  2  0  0  0
 16 21  1  0  0  0
 16 31  1  0  0  0
 17 18  1  0  0  0
 17 98  1  0  0  0
 18 19  2  0  0  0
 18 99  1  0  0  0
 19 20  1  0  0  0
 19 24  1  0  0  0
 20 21  2  0  0  0
 20100  1  0  0  0
 21 23  1  0  0  0
 22 28  1  0  0  0
 22 32  2  0  0  0
 26 27  1  0  0  0
 28101  1  0  0  0
 28102  1  0  0  0
 29103  1  0  0  0
 29104  1  0  0  0
 33 34  1  0  0  0
 33 66  1  0  0  0
 33 70  2  0  0  0
 34 36  1  0  0  0
 34 59  1  0  0  0
 34105  1  0  0  0
 35 44  2  0  0  0
 35 45  1  0  0  0
 35 68  1  0  0  0
 36 56  1  0  0  0
 36106  1  0  0  0
 37 39  1  0  0  0
 37 47  1  0  0  0
 37 66  1  0  0  0
 37107  1  0  0  0
 38 43  2  0  0  0
 38 46  1  0  0  0
 38 47  1  0  0  0
 39 64  1  0  0  0
 39 67  2  0  0  0
 40 52  1  0  0  0
 40 53  2  0  0  0
 40 58  1  0  0  0
 41108  1  0  0  0
 41109  1  0  0  0
 41110  1  0  0  0
 41 48  1  0  0  0
 42 43  1  0  0  0
 42 66  1  0  0  0
 42111  1  0  0  0
 42112  1  0  0  0
 43 44  1  0  0  0
 44113  1  0  0  0
 45 46  2  0  0  0
 45114  1  0  0  0
 46115  1  0  0  0
 47116  1  0  0  0
 47117  1  0  0  0
 48 56  1  0  0  0
 48 65  1  0  0  0
 48118  1  0  0  0
 49 50  1  0  0  0
 49 53  1  0  0  0
 49 64  1  0  0  0
 49119  1  0  0  0
 50 51  1  0  0  0
 50120  1  0  0  0
 50121  1  0  0  0
 51 52  1  0  0  0
 51122  1  0  0  0
 51123  1  0  0  0
 52124  1  0  0  0
 52125  1  0  0  0
 53 54  1  0  0  0
 54 55  2  0  0  0
 54126  1  0  0  0
 55 57  1  0  0  0
 55127  1  0  0  0
 56 69  2  0  0  0
 57 58  2  0  0  0
 57128  1  0  0  0
 58129  1  0  0  0
 59 60  1  0  0  0
 59 61  1  0  0  0
 59 62  1  0  0  0
 60130  1  0  0  0
 60131  1  0  0  0
 60132  1  0  0  0
 61133  1  0  0  0
 61134  1  0  0  0
 61135  1  0  0  0
 62136  1  0  0  0
 62137  1  0  0  0
 62138  1  0  0  0
 63 65  1  0  0  0
 63139  1  0  0  0
 63140  1  0  0  0
 63141  1  0  0  0
 64142  1  0  0  0
 65143  1  0  0  0
 68 82  1  0  0  0
 71 72  2  0  0  0
 71 74  1  0  0  0
 71144  1  0  0  0
 72 76  1  0  0  0
 72145  1  0  0  0
 73 75  1  0  0  0
 73 76  2  0  0  0
 73146  1  0  0  0
 74 75  2  0  0  0
 74 79  1  0  0  0
 75 78  1  0  0  0
 76 83  1  0  0  0
 77 81  1  0  0  0
 77 83  1  0  0  0
 77 84  2  0  0  0
 78147  1  0  0  0
 78148  1  0  0  0
 78149  1  0  0  0
 79 80  1  0  0  0
 79150  1  0  0  0
 79151  1  0  0  0
 80152  1  0  0  0
 80153  1  0  0  0
 81 82  1  0  0  0
 81154  1  0  0  0
 81155  1  0  0  0
 82156  1  0  0  0
 82157  1  0  0  0
 83158  1  0  0  0
M  ISO  4   1 100  68 101  80 100  82 101
M  END
> <chiral flag>
0

> <version>
0

> <s_m_source_file>
/data/baiqing/PycharmProjects/Reinvent-master-3.2/result/LINK_invent/BTK/process_docking_weight1_custom_product_contain_oxygen_bond_distance_aromatic_linkinvent_7_9_3/rearranged_h_0098.sdf

> <i_m_source_file_index>
57

> <r_mmod_Potential_Energy-OPLS-2005>
-88.0532379150391

> <r_mmod_Stretch_Energy-OPLS-2005>
32.867847442627

> <r_mmod_Bend_Energy-OPLS-2005>
95.1487579345703

> <r_mmod_Torsional_Energy-OPLS-2005>
205.502349853516

> <r_mmod_Improper_Torsional_Energy-OPLS-2005>
3.89669704437256

> <r_mmod_Van_der_Waal_Energy-OPLS-2005>
162.16130065918

> <r_mmod_Electrostatic_Energy-OPLS-2005>
-383.898498535156

> <r_mmod_Solvation_Energy-OPLS-2005>
-218.631759643555

> <b_mmod_Minimization_Converged-OPLS-2005>
0

> <r_mmod_RMS_Derivative-OPLS-2005>
3.64693021774292

$$$$
57
                    3D
 Structure written by MMmdl.
167176  0  0  1  0            999 V2000
  -30.6660  -14.5214   20.5449 C   0  0  0  0  0  0
  -30.4318  -12.3273   19.4334 C   0  0  0  0  0  0
  -29.5019  -12.5109   18.2143 C   0  0  0  0  0  0
  -28.0230  -12.3633   18.6241 C   0  0  0  0  0  0
  -27.6632  -13.2069   19.8761 C   0  0  2  0  0  0
  -28.7047  -12.9964   20.9992 C   0  0  0  0  0  0
  -25.2603  -13.8160   20.5681 C   0  0  0  0  0  0
  -24.1848  -13.0439   20.9167 C   0  0  0  0  0  0
  -24.6395  -11.6903   20.8721 C   0  0  0  0  0  0
  -23.9056  -10.4293   21.0396 C   0  0  0  0  0  0
  -24.3609   -9.4211   21.9178 C   0  0  0  0  0  0
  -23.6286   -8.2248   22.0751 C   0  0  0  0  0  0
  -22.4269   -8.0283   21.3542 C   0  0  0  0  0  0
  -21.9898   -9.0255   20.4644 C   0  0  0  0  0  0
  -22.7224  -10.2135   20.3051 C   0  0  0  0  0  0
  -21.6854   -6.0733   22.5276 C   0  0  0  0  0  0
  -21.4018   -6.5639   23.8209 C   0  0  0  0  0  0
  -21.3659   -5.6791   24.9171 C   0  0  0  0  0  0
  -21.6044   -4.3055   24.7223 C   0  0  0  0  0  0
  -21.8821   -3.8144   23.4346 C   0  0  0  0  0  0
  -21.9194   -4.6960   22.3400 C   0  0  0  0  0  0
  -22.7872  -13.5242   21.1834 C   0  0  0  0  0  0
  -22.1663   -4.2145   21.0977 F   0  0  0  0  0  0
  -21.5624   -3.4540   25.7738 F   0  0  0  0  0  0
  -30.0358  -13.3151   20.4520 N   0  0  0  0  0  0
  -26.3035  -12.9325   20.3360 N   0  0  0  0  0  0
  -25.9326  -11.6485   20.5756 N   0  0  0  0  0  0
  -22.0509  -12.8241   22.0394 N   0  0  0  0  0  0
  -25.4345  -15.1877   20.4108 N   0  0  0  0  0  0
  -31.7934  -14.7145   20.0812 O   0  0  0  0  0  0
  -21.6637   -6.8877   21.4238 O   0  0  0  0  0  0
  -22.3559  -14.5548   20.6682 O   0  0  0  0  0  0
  -24.6166  -31.8658   23.2082 C   0  0  0  0  0  0
  -25.9047  -32.4814   23.8389 C   0  0  1  0  0  0
  -27.2379  -27.4189   20.1002 C   0  0  0  0  0  0
  -25.5890  -33.8612   24.2317 N   0  0  0  0  0  0
  -23.4079  -30.4875   21.5480 C   0  0  2  0  0  0
  -24.8593  -28.9524   20.1112 C   0  0  0  0  0  0
  -22.7430  -29.4644   22.4971 C   0  0  0  0  0  0
  -18.0274  -28.1387   22.8493 C   0  0  0  0  0  0
  -24.1483  -36.7314   23.2638 C   0  0  0  0  0  0
  -25.9386  -30.8262   21.3657 C   0  0  0  0  0  0
  -26.0197  -29.4595   20.7121 C   0  0  0  0  0  0
  -27.2154  -28.6987   20.7072 C   0  0  0  0  0  0
  -26.0662  -26.9320   19.4887 C   0  0  0  0  0  0
  -24.8780  -27.6881   19.4958 C   0  0  0  0  0  0
  -23.6198  -29.8191   20.1628 C   0  0  0  0  0  0
  -25.4103  -36.3107   24.0338 C   0  0  1  0  0  0
  -20.5868  -28.3674   23.1311 C   0  0  2  0  0  0
  -20.6765  -26.9406   22.5421 C   0  0  0  0  0  0
  -19.5742  -26.6388   21.5218 C   0  0  0  0  0  0
  -18.1920  -26.7931   22.1628 C   0  0  0  0  0  0
  -19.1525  -28.8847   23.2901 C   0  0  0  0  0  0
  -18.9455  -30.1451   23.8916 C   0  0  0  0  0  0
  -17.6457  -30.6589   24.0572 C   0  0  0  0  0  0
  -25.9034  -34.9473   23.5129 C   0  0  0  0  0  0
  -16.5347  -29.9095   23.6326 C   0  0  0  0  0  0
  -16.7264  -28.6512   23.0346 C   0  0  0  0  0  0
  -26.4469  -31.6595   25.0723 C   0  0  0  0  0  0
  -25.3732  -31.3707   26.1471 C   0  0  0  0  0  0
  -27.0298  -30.3032   24.6112 C   0  0  0  0  0  0
  -27.6050  -32.4313   25.7479 C   0  0  0  0  0  0
  -27.5581  -37.1806   24.8461 C   0  0  0  0  0  0
  -21.4153  -29.3034   22.3713 N   0  0  0  0  0  0
  -26.4287  -37.3795   23.9415 N   0  0  0  0  0  0
  -24.6725  -31.0740   22.0993 N   0  0  0  0  0  0
  -23.4187  -28.8192   23.3030 O   0  0  0  0  0  0
  -28.3482  -26.5981   20.1308 O   0  0  0  0  0  0
  -26.5607  -34.8928   22.4697 O   0  0  0  0  0  0
  -23.5352  -32.1415   23.7462 O   0  0  0  0  0  0
  -30.3782  -18.9102   19.4151 C   0  0  0  0  0  0
  -30.6390  -17.5689   19.7960 C   0  0  0  0  0  0
  -28.7974  -17.6704   21.3596 C   0  0  0  0  0  0
  -29.2928  -19.6416   19.9647 C   0  0  0  0  0  0
  -29.8248  -16.9093   20.7515 C   0  0  0  0  0  0
  -28.5344  -19.0084   20.9781 C   0  0  0  0  0  0
  -28.2789  -23.1864   20.5544 C   0  0  0  0  0  0
  -30.4361  -24.1722   20.6901 C   0  0  0  0  0  0
  -30.5289  -22.6611   20.3757 C   0  0  0  0  0  0
  -29.0200  -24.3356   21.2446 C   0  0  1  0  0  0
  -28.7290  -22.3974   15.6750 C   0  0  0  0  0  0
  -28.3712  -25.7602   21.3058 C   0  0  0  0  0  0
  -28.4459  -22.3468   17.1810 C   0  0  0  0  0  0
  -29.1581  -21.1694   17.8716 C   0  0  0  0  0  0
  -28.8270  -21.0037   19.3779 C   0  0  2  0  0  0
  -29.1497  -22.2396   20.1354 N   0  0  0  0  0  0
  -29.9282  -15.5118   21.1015 N   0  0  0  0  0  0
  -27.0527  -23.1592   20.4208 O   0  0  0  0  0  0
  -27.5010  -19.6670   21.5557 F   0  0  0  0  0  0
  -31.4759  -12.4354   19.1331 H   0  0  0  0  0  0
  -30.3419  -11.3175   19.8362 H   0  0  0  0  0  0
  -29.7478  -11.7845   17.4385 H   0  0  0  0  0  0
  -29.6636  -13.4957   17.7726 H   0  0  0  0  0  0
  -27.8402  -11.3071   18.8256 H   0  0  0  0  0  0
  -27.3723  -12.6301   17.7907 H   0  0  0  0  0  0
  -27.7037  -14.2532   19.5729 H   0  0  0  0  0  0
  -28.6886  -11.9606   21.3409 H   0  0  0  0  0  0
  -28.4570  -13.5926   21.8785 H   0  0  0  0  0  0
  -25.2757   -9.5689   22.4748 H   0  0  0  0  0  0
  -23.9997   -7.4642   22.7473 H   0  0  0  0  0  0
  -21.0825   -8.8770   19.8955 H   0  0  0  0  0  0
  -22.3678  -10.9672   19.6160 H   0  0  0  0  0  0
  -21.2015   -7.6149   23.9712 H   0  0  0  0  0  0
  -21.1476   -6.0521   25.9072 H   0  0  0  0  0  0
  -22.0600   -2.7606   23.2848 H   0  0  0  0  0  0
  -22.4123  -11.9905   22.4789 H   0  0  0  0  0  0
  -21.1130  -13.1278   22.2598 H   0  0  0  0  0  0
  -24.6696  -15.8450   20.5182 H   0  0  0  0  0  0
  -26.2893  -15.6240   20.0891 H   0  0  0  0  0  0
  -26.7123  -32.5526   23.1160 H   0  0  0  0  0  0
  -25.0016  -33.9770   25.0444 H   0  0  0  0  0  0
  -22.6973  -31.3046   21.4066 H   0  0  0  0  0  0
  -23.3742  -35.9650   23.3305 H   0  0  0  0  0  0
  -24.3578  -36.8925   22.2052 H   0  0  0  0  0  0
  -23.7237  -37.6521   23.6651 H   0  0  0  0  0  0
  -26.0528  -31.5917   20.5970 H   0  0  0  0  0  0
  -26.8251  -30.8811   21.9858 H   0  0  0  0  0  0
  -28.1085  -29.0789   21.1837 H   0  0  0  0  0  0
  -26.0703  -25.9533   19.0289 H   0  0  0  0  0  0
  -23.9862  -27.2894   19.0322 H   0  0  0  0  0  0
  -23.7283  -30.5942   19.4034 H   0  0  0  0  0  0
  -22.7442  -29.2391   19.8657 H   0  0  0  0  0  0
  -25.1276  -36.1974   25.0830 H   0  0  0  0  0  0
  -20.9960  -28.3249   24.1433 H   0  0  0  0  0  0
  -20.5665  -26.2284   23.3613 H   0  0  0  0  0  0
  -21.6637  -26.7448   22.1217 H   0  0  0  0  0  0
  -19.6904  -25.6304   21.1235 H   0  0  0  0  0  0
  -19.6679  -27.3210   20.6759 H   0  0  0  0  0  0
  -17.4190  -26.6681   21.4033 H   0  0  0  0  0  0
  -18.0321  -26.0073   22.9023 H   0  0  0  0  0  0
  -19.7932  -30.7261   24.2296 H   0  0  0  0  0  0
  -17.5013  -31.6269   24.5176 H   0  0  0  0  0  0
  -15.5349  -30.3006   23.7641 H   0  0  0  0  0  0
  -15.8662  -28.0840   22.7050 H   0  0  0  0  0  0
  -24.5900  -30.7060   25.7807 H   0  0  0  0  0  0
  -24.8928  -32.2863   26.4930 H   0  0  0  0  0  0
  -25.8079  -30.8864   27.0224 H   0  0  0  0  0  0
  -26.2846  -29.6797   24.1156 H   0  0  0  0  0  0
  -27.4046  -29.7267   25.4580 H   0  0  0  0  0  0
  -27.8693  -30.4342   23.9281 H   0  0  0  0  0  0
  -27.2675  -33.3601   26.2091 H   0  0  0  0  0  0
  -28.3836  -32.6890   25.0287 H   0  0  0  0  0  0
  -28.0745  -31.8415   26.5363 H   0  0  0  0  0  0
  -28.2597  -38.0105   24.7520 H   0  0  0  0  0  0
  -28.1076  -36.2639   24.6264 H   0  0  0  0  0  0
  -27.2306  -37.1436   25.8866 H   0  0  0  0  0  0
  -20.9319  -29.8751   21.6928 H   0  0  0  0  0  0
  -26.0176  -38.2871   24.1425 H   0  0  0  0  0  0
  -30.9939  -19.3472   18.6431 H   0  0  0  0  0  0
  -31.4477  -17.0493   19.3022 H   0  0  0  0  0  0
  -28.1588  -17.2180   22.1042 H   0  0  0  0  0  0
  -30.5522  -24.7609   19.7784 H   0  0  0  0  0  0
  -31.2025  -24.4925   21.3964 H   0  0  0  0  0  0
  -30.9224  -22.1085   21.2302 H   0  0  0  0  0  0
  -31.1790  -22.4667   19.5225 H   0  0  0  0  0  0
  -29.0591  -24.0058   22.2843 H   0  0  0  0  0  0
  -28.2112  -23.2363   15.2091 H   0  0  0  0  0  0
  -28.3955  -21.4854   15.1784 H   0  0  0  0  0  0
  -29.7951  -22.5158   15.4770 H   0  0  0  0  0  0
  -28.8914  -26.3307   22.0763 H   0  0  0  0  0  0
  -27.3586  -25.6299   21.6952 H   0  0  0  0  0  0
  -27.3696  -22.2725   17.3436 H   0  0  0  0  0  0
  -28.7610  -23.2909   17.6271 H   0  0  0  0  0  0
  -30.2338  -21.2707   17.7281 H   0  0  0  0  0  0
  -28.8710  -20.2529   17.3541 H   0  0  0  0  0  0
  -27.7391  -20.9162   19.4023 H   0  0  0  0  0  0
  -29.1430  -15.1558   21.6250 H   0  0  0  0  0  0
  1 25  1  0  0  0
  1 30  2  0  0  0
  1 87  1  0  0  0
  2  3  1  0  0  0
  2 25  1  0  0  0
  2 90  1  0  0  0
  2 91  1  0  0  0
  3  4  1  0  0  0
  3 92  1  0  0  0
  3 93  1  0  0  0
  4  5  1  0  0  0
  4 94  1  0  0  0
  4 95  1  0  0  0
  5  6  1  0  0  0
  5 26  1  0  0  0
  5 96  1  0  0  0
  6 25  1  0  0  0
  6 97  1  0  0  0
  6 98  1  0  0  0
  7  8  2  0  0  0
  7 26  1  0  0  0
  7 29  1  0  0  0
  8  9  1  0  0  0
  8 22  1  0  0  0
  9 10  1  0  0  0
  9 27  2  0  0  0
 10 11  2  0  0  0
 10 15  1  0  0  0
 11 12  1  0  0  0
 11 99  1  0  0  0
 12 13  2  0  0  0
 12100  1  0  0  0
 13 14  1  0  0  0
 13 31  1  0  0  0
 14 15  2  0  0  0
 14101  1  0  0  0
 15102  1  0  0  0
 16 17  2  0  0  0
 16 21  1  0  0  0
 16 31  1  0  0  0
 17 18  1  0  0  0
 17103  1  0  0  0
 18 19  2  0  0  0
 18104  1  0  0  0
 19 20  1  0  0  0
 19 24  1  0  0  0
 20 21  2  0  0  0
 20105  1  0  0  0
 21 23  1  0  0  0
 22 28  1  0  0  0
 22 32  2  0  0  0
 26 27  1  0  0  0
 28106  1  0  0  0
 28107  1  0  0  0
 29108  1  0  0  0
 29109  1  0  0  0
 33 34  1  0  0  0
 33 66  1  0  0  0
 33 70  2  0  0  0
 34 36  1  0  0  0
 34 59  1  0  0  0
 34110  1  0  0  0
 35 44  2  0  0  0
 35 45  1  0  0  0
 35 68  1  0  0  0
 36 56  1  0  0  0
 36111  1  0  0  0
 37 39  1  0  0  0
 37 47  1  0  0  0
 37 66  1  0  0  0
 37112  1  0  0  0
 38 43  2  0  0  0
 38 46  1  0  0  0
 38 47  1  0  0  0
 39 64  1  0  0  0
 39 67  2  0  0  0
 40 52  1  0  0  0
 40 53  2  0  0  0
 40 58  1  0  0  0
 41113  1  0  0  0
 41114  1  0  0  0
 41115  1  0  0  0
 41 48  1  0  0  0
 42 43  1  0  0  0
 42 66  1  0  0  0
 42116  1  0  0  0
 42117  1  0  0  0
 43 44  1  0  0  0
 44118  1  0  0  0
 45 46  2  0  0  0
 45119  1  0  0  0
 46120  1  0  0  0
 47121  1  0  0  0
 47122  1  0  0  0
 48 56  1  0  0  0
 48 65  1  0  0  0
 48123  1  0  0  0
 49 50  1  0  0  0
 49 53  1  0  0  0
 49 64  1  0  0  0
 49124  1  0  0  0
 50 51  1  0  0  0
 50125  1  0  0  0
 50126  1  0  0  0
 51 52  1  0  0  0
 51127  1  0  0  0
 51128  1  0  0  0
 52129  1  0  0  0
 52130  1  0  0  0
 53 54  1  0  0  0
 54 55  2  0  0  0
 54131  1  0  0  0
 55 57  1  0  0  0
 55132  1  0  0  0
 56 69  2  0  0  0
 57 58  2  0  0  0
 57133  1  0  0  0
 58134  1  0  0  0
 59 60  1  0  0  0
 59 61  1  0  0  0
 59 62  1  0  0  0
 60135  1  0  0  0
 60136  1  0  0  0
 60137  1  0  0  0
 61138  1  0  0  0
 61139  1  0  0  0
 61140  1  0  0  0
 62141  1  0  0  0
 62142  1  0  0  0
 62143  1  0  0  0
 63 65  1  0  0  0
 63144  1  0  0  0
 63145  1  0  0  0
 63146  1  0  0  0
 64147  1  0  0  0
 65148  1  0  0  0
 68 82  1  0  0  0
 71 72  2  0  0  0
 71 74  1  0  0  0
 71149  1  0  0  0
 72 75  1  0  0  0
 72150  1  0  0  0
 73 75  2  0  0  0
 73 76  1  0  0  0
 73151  1  0  0  0
 74 76  2  0  0  0
 74 85  1  0  0  0
 75 87  1  0  0  0
 76 89  1  0  0  0
 77 80  1  0  0  0
 77 86  1  0  0  0
 77 88  2  0  0  0
 78 79  1  0  0  0
 78 80  1  0  0  0
 78152  1  0  0  0
 78153  1  0  0  0
 79 86  1  0  0  0
 79154  1  0  0  0
 79155  1  0  0  0
 80 82  1  0  0  0
 80156  1  0  0  0
 81 83  1  0  0  0
 81157  1  0  0  0
 81158  1  0  0  0
 81159  1  0  0  0
 82160  1  0  0  0
 82161  1  0  0  0
 83 84  1  0  0  0
 83162  1  0  0  0
 83163  1  0  0  0
 84164  1  0  0  0
 84165  1  0  0  0
 84 85  1  0  0  0
 85 86  1  0  0  0
 85166  1  0  0  0
 87167  1  0  0  0
M  ISO  4   1 100  68 101  82 101  87 100
M  END
> <chiral flag>
0

> <version>
0

> <s_m_source_file>
/data/baiqing/PycharmProjects/Reinvent-master-3.2/result/LINK_invent/BTK/process_docking_weight1_custom_product_contain_oxygen_bond_distance_aromatic_linkinvent_7_9_3/rearranged_h_0098.sdf

> <i_m_source_file_index>
58

> <r_mmod_Potential_Energy-OPLS-2005>
102.948204040527

> <r_mmod_Stretch_Energy-OPLS-2005>
47.3239822387695

> <r_mmod_Bend_Energy-OPLS-2005>
158.585922241211

> <r_mmod_Torsional_Energy-OPLS-2005>
287.333557128906

> <r_mmod_Improper_Torsional_Energy-OPLS-2005>
4.80788564682007

> <r_mmod_Van_der_Waal_Energy-OPLS-2005>
135.121826171875

> <r_mmod_Electrostatic_Energy-OPLS-2005>
-339.029418945312

> <r_mmod_Solvation_Energy-OPLS-2005>
-210.29118347168

> <b_mmod_Minimization_Converged-OPLS-2005>
0

> <r_mmod_RMS_Derivative-OPLS-2005>
0.613829970359802

$$$$
58
                    3D
 Structure written by MMmdl.
159168  0  0  1  0            999 V2000
  -30.6110  -14.6031   20.5812 C   0  0  0  0  0  0
  -30.4475  -12.3928   19.4259 C   0  0  0  0  0  0
  -29.5042  -12.5311   18.2103 C   0  0  0  0  0  0
  -28.0263  -12.3644   18.6229 C   0  0  0  0  0  0
  -27.6601  -13.2081   19.8726 C   0  0  2  0  0  0
  -28.7075  -12.9993   20.9894 C   0  0  0  0  0  0
  -25.2592  -13.8150   20.5692 C   0  0  0  0  0  0
  -24.1849  -13.0427   20.9183 C   0  0  0  0  0  0
  -24.6405  -11.6892   20.8733 C   0  0  0  0  0  0
  -23.9067  -10.4284   21.0399 C   0  0  0  0  0  0
  -24.3619   -9.4200   21.9176 C   0  0  0  0  0  0
  -23.6294   -8.2235   22.0749 C   0  0  0  0  0  0
  -22.4274   -8.0278   21.3538 C   0  0  0  0  0  0
  -21.9910   -9.0250   20.4637 C   0  0  0  0  0  0
  -22.7241  -10.2128   20.3045 C   0  0  0  0  0  0
  -21.6853   -6.0734   22.5281 C   0  0  0  0  0  0
  -21.4009   -6.5638   23.8214 C   0  0  0  0  0  0
  -21.3660   -5.6793   24.9176 C   0  0  0  0  0  0
  -21.6051   -4.3055   24.7229 C   0  0  0  0  0  0
  -21.8821   -3.8145   23.4350 C   0  0  0  0  0  0
  -21.9193   -4.6960   22.3407 C   0  0  0  0  0  0
  -22.7867  -13.5217   21.1861 C   0  0  0  0  0  0
  -22.1663   -4.2147   21.0981 F   0  0  0  0  0  0
  -21.5632   -3.4538   25.7739 F   0  0  0  0  0  0
  -30.0197  -13.3741   20.4405 N   0  0  0  0  0  0
  -26.3027  -12.9319   20.3355 N   0  0  0  0  0  0
  -25.9334  -11.6477   20.5754 N   0  0  0  0  0  0
  -22.0521  -12.8195   22.0414 N   0  0  0  0  0  0
  -25.4310  -15.1875   20.4116 N   0  0  0  0  0  0
  -31.7304  -14.8227   20.1031 O   0  0  0  0  0  0
  -21.6633   -6.8877   21.4243 O   0  0  0  0  0  0
  -22.3547  -14.5530   20.6723 O   0  0  0  0  0  0
  -24.6228  -31.8628   23.2015 C   0  0  0  0  0  0
  -25.9089  -32.4798   23.8343 C   0  0  1  0  0  0
  -27.2346  -27.3466   20.1184 C   0  0  0  0  0  0
  -25.5913  -33.8599   24.2267 N   0  0  0  0  0  0
  -23.4155  -30.4834   21.5449 C   0  0  2  0  0  0
  -24.8648  -28.9362   20.1176 C   0  0  0  0  0  0
  -22.7453  -29.4641   22.4956 C   0  0  0  0  0  0
  -18.0281  -28.1397   22.8484 C   0  0  0  0  0  0
  -24.1494  -36.7303   23.2632 C   0  0  0  0  0  0
  -25.9518  -30.8047   21.3643 C   0  0  0  0  0  0
  -26.0318  -29.4302   20.7139 C   0  0  0  0  0  0
  -27.2222  -28.6482   20.7004 C   0  0  0  0  0  0
  -26.0471  -26.8973   19.4999 C   0  0  0  0  0  0
  -24.8723  -27.6733   19.5033 C   0  0  0  0  0  0
  -23.6296  -29.8114   20.1635 C   0  0  0  0  0  0
  -25.4124  -36.3096   24.0314 C   0  0  1  0  0  0
  -20.5875  -28.3699   23.1299 C   0  0  2  0  0  0
  -20.6777  -26.9427   22.5417 C   0  0  0  0  0  0
  -19.5756  -26.6389   21.5219 C   0  0  0  0  0  0
  -18.1930  -26.7943   22.1620 C   0  0  0  0  0  0
  -19.1529  -28.8865   23.2885 C   0  0  0  0  0  0
  -18.9451  -30.1467   23.8900 C   0  0  0  0  0  0
  -17.6453  -30.6598   24.0568 C   0  0  0  0  0  0
  -25.9054  -34.9467   23.5092 C   0  0  0  0  0  0
  -16.5346  -29.9096   23.6338 C   0  0  0  0  0  0
  -16.7266  -28.6515   23.0351 C   0  0  0  0  0  0
  -26.4472  -31.6602   25.0705 C   0  0  0  0  0  0
  -25.3691  -31.3753   26.1417 C   0  0  0  0  0  0
  -27.0304  -30.3032   24.6135 C   0  0  0  0  0  0
  -27.6029  -32.4330   25.7488 C   0  0  0  0  0  0
  -27.5586  -37.1810   24.8462 C   0  0  0  0  0  0
  -21.4170  -29.3060   22.3701 N   0  0  0  0  0  0
  -26.4306  -37.3785   23.9398 N   0  0  0  0  0  0
  -24.6824  -31.0656   22.0953 N   0  0  0  0  0  0
  -23.4188  -28.8182   23.3027 O   0  0  0  0  0  0
  -28.3711  -26.5327   20.1192 O   0  0  0  0  0  0
  -26.5618  -34.8925   22.4657 O   0  0  0  0  0  0
  -23.5398  -32.1406   23.7366 O   0  0  0  0  0  0
  -30.3981  -18.2142   21.9275 C   0  0  0  0  0  0
  -30.3839  -19.6148   21.6798 C   0  0  0  0  0  0
  -29.6007  -19.1991   19.4352 C   0  0  0  0  0  0
  -30.0113  -17.2686   20.9409 C   0  0  0  0  0  0
  -29.9926  -20.1438   20.4240 C   0  0  0  0  0  0
  -29.6008  -17.7944   19.6890 C   0  0  0  0  0  0
  -31.3433  -22.0037   19.6915 C   0  0  0  0  0  0
  -31.6069  -23.5010   19.4611 C   0  0  0  0  0  0
  -30.6736  -24.4473   20.2277 C   0  0  0  0  0  0
  -29.0456  -22.5554   20.4954 C   0  0  0  0  0  0
  -29.2181  -24.0550   19.9879 C   0  0  1  0  0  0
  -29.8338  -15.7603   21.3227 C   0  0  0  0  0  0
  -28.2213  -25.1382   20.5750 C   0  0  0  0  0  0
  -30.1290  -21.5719   20.1345 N   0  0  0  0  0  0
  -32.2705  -21.2293   19.4265 O   0  0  0  0  0  0
  -29.1640  -16.9463   18.7269 F   0  0  0  0  0  0
  -31.4837  -12.5430   19.1182 H   0  0  0  0  0  0
  -30.4006  -11.3830   19.8356 H   0  0  0  0  0  0
  -29.7625  -11.7981   17.4452 H   0  0  0  0  0  0
  -29.6452  -13.5121   17.7536 H   0  0  0  0  0  0
  -27.8558  -11.3077   18.8296 H   0  0  0  0  0  0
  -27.3709  -12.6198   17.7894 H   0  0  0  0  0  0
  -27.6941  -14.2537   19.5653 H   0  0  0  0  0  0
  -28.7200  -11.9530   21.2995 H   0  0  0  0  0  0
  -28.4541  -13.5560   21.8915 H   0  0  0  0  0  0
  -25.2772   -9.5672   22.4738 H   0  0  0  0  0  0
  -24.0012   -7.4624   22.7464 H   0  0  0  0  0  0
  -21.0845   -8.8771   19.8932 H   0  0  0  0  0  0
  -22.3715  -10.9666   19.6145 H   0  0  0  0  0  0
  -21.1993   -7.6144   23.9716 H   0  0  0  0  0  0
  -21.1484   -6.0519   25.9081 H   0  0  0  0  0  0
  -22.0598   -2.7604   23.2854 H   0  0  0  0  0  0
  -22.4146  -11.9852   22.4790 H   0  0  0  0  0  0
  -21.1136  -13.1201   22.2633 H   0  0  0  0  0  0
  -24.6637  -15.8425   20.5163 H   0  0  0  0  0  0
  -26.2836  -15.6258   20.0867 H   0  0  0  0  0  0
  -26.7163  -32.5487   23.1101 H   0  0  0  0  0  0
  -25.0060  -33.9752   25.0410 H   0  0  0  0  0  0
  -22.7066  -31.3012   21.3988 H   0  0  0  0  0  0
  -23.3762  -35.9630   23.3300 H   0  0  0  0  0  0
  -24.3570  -36.8927   22.2043 H   0  0  0  0  0  0
  -23.7247  -37.6500   23.6663 H   0  0  0  0  0  0
  -26.0641  -31.5653   20.5906 H   0  0  0  0  0  0
  -26.8384  -30.8668   21.9836 H   0  0  0  0  0  0
  -28.1241  -29.0279   21.1603 H   0  0  0  0  0  0
  -26.0177  -25.9364   19.0069 H   0  0  0  0  0  0
  -23.9773  -27.2894   19.0336 H   0  0  0  0  0  0
  -23.7432  -30.5822   19.4007 H   0  0  0  0  0  0
  -22.7512  -29.2355   19.8673 H   0  0  0  0  0  0
  -25.1312  -36.1944   25.0806 H   0  0  0  0  0  0
  -20.9955  -28.3280   24.1425 H   0  0  0  0  0  0
  -20.5699  -26.2308   23.3611 H   0  0  0  0  0  0
  -21.6647  -26.7480   22.1204 H   0  0  0  0  0  0
  -19.6926  -25.6294   21.1263 H   0  0  0  0  0  0
  -19.6707  -27.3183   20.6737 H   0  0  0  0  0  0
  -17.4206  -26.6691   21.4015 H   0  0  0  0  0  0
  -18.0321  -26.0090   22.9019 H   0  0  0  0  0  0
  -19.7926  -30.7281   24.2270 H   0  0  0  0  0  0
  -17.5011  -31.6276   24.5171 H   0  0  0  0  0  0
  -15.5346  -30.2997   23.7671 H   0  0  0  0  0  0
  -15.8663  -28.0836   22.7070 H   0  0  0  0  0  0
  -24.5868  -30.7102   25.7735 H   0  0  0  0  0  0
  -24.8868  -32.2930   26.4801 H   0  0  0  0  0  0
  -25.7988  -30.8950   27.0217 H   0  0  0  0  0  0
  -26.2878  -29.6800   24.1139 H   0  0  0  0  0  0
  -27.3991  -29.7265   25.4628 H   0  0  0  0  0  0
  -27.8743  -30.4318   23.9353 H   0  0  0  0  0  0
  -27.2642  -33.3640   26.2049 H   0  0  0  0  0  0
  -28.3860  -32.6877   25.0334 H   0  0  0  0  0  0
  -28.0673  -31.8464   26.5423 H   0  0  0  0  0  0
  -28.2605  -38.0105   24.7506 H   0  0  0  0  0  0
  -28.1085  -36.2635   24.6312 H   0  0  0  0  0  0
  -27.2287  -37.1478   25.8858 H   0  0  0  0  0  0
  -20.9341  -29.8795   21.6924 H   0  0  0  0  0  0
  -26.0192  -38.2859   24.1409 H   0  0  0  0  0  0
  -30.6844  -17.8691   22.9116 H   0  0  0  0  0  0
  -30.7023  -20.2887   22.4632 H   0  0  0  0  0  0
  -29.3019  -19.5482   18.4576 H   0  0  0  0  0  0
  -31.5208  -23.6875   18.3907 H   0  0  0  0  0  0
  -32.6412  -23.7213   19.7268 H   0  0  0  0  0  0
  -30.8478  -25.4732   19.9013 H   0  0  0  0  0  0
  -30.9020  -24.4206   21.2944 H   0  0  0  0  0  0
  -28.0934  -22.1636   20.1374 H   0  0  0  0  0  0
  -28.9753  -22.5580   21.5840 H   0  0  0  0  0  0
  -29.0543  -24.0496   18.9089 H   0  0  0  0  0  0
  -28.7643  -15.5978   21.2110 H   0  0  0  0  0  0
  -30.0348  -15.6392   22.3870 H   0  0  0  0  0  0
  -28.3361  -25.1556   21.6591 H   0  0  0  0  0  0
  -27.2108  -24.7691   20.4081 H   0  0  0  0  0  0
  1 25  1  0  0  0
  1 30  2  0  0  0
  1 82  1  0  0  0
  2  3  1  0  0  0
  2 25  1  0  0  0
  2 87  1  0  0  0
  2 88  1  0  0  0
  3  4  1  0  0  0
  3 89  1  0  0  0
  3 90  1  0  0  0
  4  5  1  0  0  0
  4 91  1  0  0  0
  4 92  1  0  0  0
  5  6  1  0  0  0
  5 26  1  0  0  0
  5 93  1  0  0  0
  6 25  1  0  0  0
  6 94  1  0  0  0
  6 95  1  0  0  0
  7  8  2  0  0  0
  7 26  1  0  0  0
  7 29  1  0  0  0
  8  9  1  0  0  0
  8 22  1  0  0  0
  9 10  1  0  0  0
  9 27  2  0  0  0
 10 11  2  0  0  0
 10 15  1  0  0  0
 11 12  1  0  0  0
 11 96  1  0  0  0
 12 13  2  0  0  0
 12 97  1  0  0  0
 13 14  1  0  0  0
 13 31  1  0  0  0
 14 15  2  0  0  0
 14 98  1  0  0  0
 15 99  1  0  0  0
 16 17  2  0  0  0
 16 21  1  0  0  0
 16 31  1  0  0  0
 17 18  1  0  0  0
 17100  1  0  0  0
 18 19  2  0  0  0
 18101  1  0  0  0
 19 20  1  0  0  0
 19 24  1  0  0  0
 20 21  2  0  0  0
 20102  1  0  0  0
 21 23  1  0  0  0
 22 28  1  0  0  0
 22 32  2  0  0  0
 26 27  1  0  0  0
 28103  1  0  0  0
 28104  1  0  0  0
 29105  1  0  0  0
 29106  1  0  0  0
 33 34  1  0  0  0
 33 66  1  0  0  0
 33 70  2  0  0  0
 34 36  1  0  0  0
 34 59  1  0  0  0
 34107  1  0  0  0
 35 44  2  0  0  0
 35 45  1  0  0  0
 35 68  1  0  0  0
 36 56  1  0  0  0
 36108  1  0  0  0
 37 39  1  0  0  0
 37 47  1  0  0  0
 37 66  1  0  0  0
 37109  1  0  0  0
 38 43  2  0  0  0
 38 46  1  0  0  0
 38 47  1  0  0  0
 39 64  1  0  0  0
 39 67  2  0  0  0
 40 52  1  0  0  0
 40 53  2  0  0  0
 40 58  1  0  0  0
 41110  1  0  0  0
 41111  1  0  0  0
 41112  1  0  0  0
 41 48  1  0  0  0
 42 43  1  0  0  0
 42 66  1  0  0  0
 42113  1  0  0  0
 42114  1  0  0  0
 43 44  1  0  0  0
 44115  1  0  0  0
 45 46  2  0  0  0
 45116  1  0  0  0
 46117  1  0  0  0
 47118  1  0  0  0
 47119  1  0  0  0
 48 56  1  0  0  0
 48 65  1  0  0  0
 48120  1  0  0  0
 49 50  1  0  0  0
 49 53  1  0  0  0
 49 64  1  0  0  0
 49121  1  0  0  0
 50 51  1  0  0  0
 50122  1  0  0  0
 50123  1  0  0  0
 51 52  1  0  0  0
 51124  1  0  0  0
 51125  1  0  0  0
 52126  1  0  0  0
 52127  1  0  0  0
 53 54  1  0  0  0
 54 55  2  0  0  0
 54128  1  0  0  0
 55 57  1  0  0  0
 55129  1  0  0  0
 56 69  2  0  0  0
 57 58  2  0  0  0
 57130  1  0  0  0
 58131  1  0  0  0
 59 60  1  0  0  0
 59 61  1  0  0  0
 59 62  1  0  0  0
 60132  1  0  0  0
 60133  1  0  0  0
 60134  1  0  0  0
 61135  1  0  0  0
 61136  1  0  0  0
 61137  1  0  0  0
 62138  1  0  0  0
 62139  1  0  0  0
 62140  1  0  0  0
 63 65  1  0  0  0
 63141  1  0  0  0
 63142  1  0  0  0
 63143  1  0  0  0
 64144  1  0  0  0
 65145  1  0  0  0
 68 83  1  0  0  0
 71 72  2  0  0  0
 71 74  1  0  0  0
 71146  1  0  0  0
 72 75  1  0  0  0
 72147  1  0  0  0
 73 75  2  0  0  0
 73 76  1  0  0  0
 73148  1  0  0  0
 74 76  2  0  0  0
 74 82  1  0  0  0
 75 84  1  0  0  0
 76 86  1  0  0  0
 77 78  1  0  0  0
 77 84  1  0  0  0
 77 85  2  0  0  0
 78 79  1  0  0  0
 78149  1  0  0  0
 78150  1  0  0  0
 79 81  1  0  0  0
 79151  1  0  0  0
 79152  1  0  0  0
 80 81  1  0  0  0
 80 84  1  0  0  0
 80153  1  0  0  0
 80154  1  0  0  0
 81 83  1  0  0  0
 81155  1  0  0  0
 82156  1  0  0  0
 82157  1  0  0  0
 83158  1  0  0  0
 83159  1  0  0  0
M  ISO  4   1 100  68 101  82 100  83 101
M  END
> <chiral flag>
0

> <version>
0

> <s_m_source_file>
/data/baiqing/PycharmProjects/Reinvent-master-3.2/result/LINK_invent/BTK/process_docking_weight1_custom_product_contain_oxygen_bond_distance_aromatic_linkinvent_7_9_3/rearranged_h_0098.sdf

> <i_m_source_file_index>
59

> <r_mmod_Potential_Energy-OPLS-2005>
148.748931884766

> <r_mmod_Stretch_Energy-OPLS-2005>
75.3926773071289

> <r_mmod_Bend_Energy-OPLS-2005>
129.742263793945

> <r_mmod_Torsional_Energy-OPLS-2005>
264.714172363281

> <r_mmod_Improper_Torsional_Energy-OPLS-2005>
3.84484624862671

> <r_mmod_Van_der_Waal_Energy-OPLS-2005>
147.618270874023

> <r_mmod_Electrostatic_Energy-OPLS-2005>
-294.655944824219

> <r_mmod_Solvation_Energy-OPLS-2005>
-213.04670715332

> <b_mmod_Minimization_Converged-OPLS-2005>
0

> <r_mmod_RMS_Derivative-OPLS-2005>
1.11720502376556

$$$$
59
                    3D
 Structure written by MMmdl.
162170  0  0  1  0            999 V2000
  -30.6875  -14.6221   20.4422 C   0  0  0  0  0  0
  -30.4186  -12.3766   19.4547 C   0  0  0  0  0  0
  -29.4991  -12.4902   18.2210 C   0  0  0  0  0  0
  -28.0222  -12.3459   18.6345 C   0  0  0  0  0  0
  -27.6479  -13.2298   19.8559 C   0  0  2  0  0  0
  -28.6981  -13.1317   20.9854 C   0  0  0  0  0  0
  -25.2530  -13.8210   20.5711 C   0  0  0  0  0  0
  -24.1818  -13.0456   20.9227 C   0  0  0  0  0  0
  -24.6411  -11.6941   20.8781 C   0  0  0  0  0  0
  -23.9090  -10.4309   21.0429 C   0  0  0  0  0  0
  -24.3635   -9.4212   21.9196 C   0  0  0  0  0  0
  -23.6308   -8.2247   22.0754 C   0  0  0  0  0  0
  -22.4286   -8.0293   21.3545 C   0  0  0  0  0  0
  -21.9932   -9.0272   20.4641 C   0  0  0  0  0  0
  -22.7269  -10.2152   20.3064 C   0  0  0  0  0  0
  -21.6852   -6.0754   22.5286 C   0  0  0  0  0  0
  -21.4007   -6.5650   23.8221 C   0  0  0  0  0  0
  -21.3659   -5.6800   24.9185 C   0  0  0  0  0  0
  -21.6045   -4.3063   24.7227 C   0  0  0  0  0  0
  -21.8817   -3.8159   23.4346 C   0  0  0  0  0  0
  -21.9187   -4.6980   22.3408 C   0  0  0  0  0  0
  -22.7831  -13.5231   21.1870 C   0  0  0  0  0  0
  -22.1660   -4.2168   21.0985 F   0  0  0  0  0  0
  -21.5630   -3.4545   25.7736 F   0  0  0  0  0  0
  -30.0090  -13.4350   20.3994 N   0  0  0  0  0  0
  -26.2972  -12.9418   20.3329 N   0  0  0  0  0  0
  -25.9344  -11.6564   20.5796 N   0  0  0  0  0  0
  -22.0464  -12.8224   22.0414 N   0  0  0  0  0  0
  -25.4222  -15.1932   20.4099 N   0  0  0  0  0  0
  -31.8885  -14.6645   20.1706 O   0  0  0  0  0  0
  -21.6642   -6.8898   21.4248 O   0  0  0  0  0  0
  -22.3516  -14.5533   20.6708 O   0  0  0  0  0  0
  -24.6257  -31.8621   23.2029 C   0  0  0  0  0  0
  -25.9106  -32.4790   23.8363 C   0  0  1  0  0  0
  -27.2161  -27.3286   20.1136 C   0  0  0  0  0  0
  -25.5928  -33.8589   24.2289 N   0  0  0  0  0  0
  -23.4195  -30.4877   21.5462 C   0  0  2  0  0  0
  -24.8618  -28.9448   20.1106 C   0  0  0  0  0  0
  -22.7480  -29.4645   22.4945 C   0  0  0  0  0  0
  -18.0299  -28.1373   22.8450 C   0  0  0  0  0  0
  -24.1493  -36.7284   23.2652 C   0  0  0  0  0  0
  -25.9615  -30.7930   21.3765 C   0  0  0  0  0  0
  -26.0327  -29.4223   20.7161 C   0  0  0  0  0  0
  -27.2139  -28.6244   20.7111 C   0  0  0  0  0  0
  -26.0338  -26.9178   19.4580 C   0  0  0  0  0  0
  -24.8641  -27.6947   19.4750 C   0  0  0  0  0  0
  -23.6314  -29.8237   20.1620 C   0  0  0  0  0  0
  -25.4119  -36.3088   24.0344 C   0  0  1  0  0  0
  -20.5902  -28.3671   23.1261 C   0  0  2  0  0  0
  -20.6790  -26.9394   22.5408 C   0  0  0  0  0  0
  -19.5767  -26.6363   21.5206 C   0  0  0  0  0  0
  -18.1934  -26.7917   22.1596 C   0  0  0  0  0  0
  -19.1552  -28.8839   23.2854 C   0  0  0  0  0  0
  -18.9487  -30.1445   23.8858 C   0  0  0  0  0  0
  -17.6494  -30.6574   24.0542 C   0  0  0  0  0  0
  -25.9060  -34.9462   23.5120 C   0  0  0  0  0  0
  -16.5375  -29.9069   23.6336 C   0  0  0  0  0  0
  -16.7290  -28.6497   23.0321 C   0  0  0  0  0  0
  -26.4487  -31.6595   25.0740 C   0  0  0  0  0  0
  -25.3715  -31.3736   26.1474 C   0  0  0  0  0  0
  -27.0361  -30.3036   24.6184 C   0  0  0  0  0  0
  -27.6045  -32.4345   25.7492 C   0  0  0  0  0  0
  -27.5573  -37.1794   24.8468 C   0  0  0  0  0  0
  -21.4197  -29.3040   22.3659 N   0  0  0  0  0  0
  -26.4290  -37.3779   23.9421 N   0  0  0  0  0  0
  -24.6880  -31.0639   22.0979 N   0  0  0  0  0  0
  -23.4216  -28.8210   23.3032 O   0  0  0  0  0  0
  -28.3134  -26.4586   20.1562 O   0  0  0  0  0  0
  -26.5639  -34.8923   22.4689 O   0  0  0  0  0  0
  -23.5422  -32.1424   23.7347 O   0  0  0  0  0  0
  -30.7026  -19.6054   20.3645 C   0  0  0  0  0  0
  -30.1923  -20.9298   20.4744 C   0  0  0  0  0  0
  -28.4721  -18.7342   20.2341 C   0  0  0  0  0  0
  -29.8590  -18.4705   20.2192 C   0  0  0  0  0  0
  -28.8008  -21.2005   20.4634 C   0  0  0  0  0  0
  -27.9342  -20.0499   20.3564 C   0  0  0  0  0  0
  -31.0366  -18.0389   17.4713 C   0  0  0  0  0  0
  -25.7818  -21.1402   20.7887 C   0  0  0  0  0  0
  -30.3879  -16.9070   18.2870 C   0  0  0  0  0  0
  -28.9462  -23.8444   20.2604 C   0  0  0  0  0  0
  -28.0199  -25.0843   20.6226 C   0  0  0  0  0  0
  -30.4612  -17.0714   19.8309 C   0  0  2  0  0  0
  -28.2900  -22.5363   20.5619 N   0  0  0  0  0  0
  -29.9650  -15.7903   20.4573 N   0  0  0  0  0  0
  -26.5523  -20.0576   20.2881 O   0  0  0  0  0  0
  -31.4633  -12.4657   19.1494 H   0  0  0  0  0  0
  -30.3242  -11.3940   19.9191 H   0  0  0  0  0  0
  -29.7572  -11.7262   17.4866 H   0  0  0  0  0  0
  -29.6519  -13.4522   17.7281 H   0  0  0  0  0  0
  -27.8521  -11.2959   18.8707 H   0  0  0  0  0  0
  -27.3701  -12.5765   17.7910 H   0  0  0  0  0  0
  -27.6540  -14.2588   19.4959 H   0  0  0  0  0  0
  -28.7048  -12.1306   21.4204 H   0  0  0  0  0  0
  -28.4635  -13.8207   21.7980 H   0  0  0  0  0  0
  -25.2787   -9.5683   22.4772 H   0  0  0  0  0  0
  -24.0025   -7.4628   22.7462 H   0  0  0  0  0  0
  -21.0870   -8.8797   19.8930 H   0  0  0  0  0  0
  -22.3742  -10.9700   19.6171 H   0  0  0  0  0  0
  -21.1993   -7.6155   23.9734 H   0  0  0  0  0  0
  -21.1482   -6.0528   25.9090 H   0  0  0  0  0  0
  -22.0592   -2.7620   23.2842 H   0  0  0  0  0  0
  -22.4089  -11.9905   22.4845 H   0  0  0  0  0  0
  -21.1055  -13.1221   22.2568 H   0  0  0  0  0  0
  -24.6552  -15.8483   20.5153 H   0  0  0  0  0  0
  -26.2662  -15.6286   20.0630 H   0  0  0  0  0  0
  -26.7182  -32.5437   23.1117 H   0  0  0  0  0  0
  -25.0087  -33.9745   25.0442 H   0  0  0  0  0  0
  -22.7137  -31.3081   21.4037 H   0  0  0  0  0  0
  -23.3762  -35.9606   23.3324 H   0  0  0  0  0  0
  -24.3609  -36.8893   22.2070 H   0  0  0  0  0  0
  -23.7237  -37.6483   23.6664 H   0  0  0  0  0  0
  -26.1051  -31.5580   20.6117 H   0  0  0  0  0  0
  -26.8395  -30.8316   22.0113 H   0  0  0  0  0  0
  -28.1086  -28.9831   21.2005 H   0  0  0  0  0  0
  -25.9953  -25.9765   18.9295 H   0  0  0  0  0  0
  -23.9712  -27.3259   18.9888 H   0  0  0  0  0  0
  -23.7522  -30.6001   19.4067 H   0  0  0  0  0  0
  -22.7486  -29.2577   19.8569 H   0  0  0  0  0  0
  -25.1296  -36.1942   25.0835 H   0  0  0  0  0  0
  -20.9970  -28.3242   24.1387 H   0  0  0  0  0  0
  -20.5668  -26.2285   23.3614 H   0  0  0  0  0  0
  -21.6658  -26.7424   22.1197 H   0  0  0  0  0  0
  -19.6941  -25.6279   21.1221 H   0  0  0  0  0  0
  -19.6696  -27.3174   20.6734 H   0  0  0  0  0  0
  -17.4217  -26.6654   21.3990 H   0  0  0  0  0  0
  -18.0311  -26.0089   22.9010 H   0  0  0  0  0  0
  -19.7993  -30.7252   24.2170 H   0  0  0  0  0  0
  -17.5079  -31.6240   24.5162 H   0  0  0  0  0  0
  -15.5374  -30.2949   23.7700 H   0  0  0  0  0  0
  -15.8701  -28.0825   22.7009 H   0  0  0  0  0  0
  -24.5896  -30.7090   25.7792 H   0  0  0  0  0  0
  -24.8912  -32.2906   26.4881 H   0  0  0  0  0  0
  -25.8048  -30.8919   27.0250 H   0  0  0  0  0  0
  -26.2949  -29.6764   24.1231 H   0  0  0  0  0  0
  -27.4125  -29.7308   25.4659 H   0  0  0  0  0  0
  -27.8767  -30.4365   23.9385 H   0  0  0  0  0  0
  -27.2664  -33.3661   26.2031 H   0  0  0  0  0  0
  -28.3842  -32.6882   25.0306 H   0  0  0  0  0  0
  -28.0726  -31.8511   26.5426 H   0  0  0  0  0  0
  -28.2583  -38.0090   24.7529 H   0  0  0  0  0  0
  -28.1075  -36.2633   24.6271 H   0  0  0  0  0  0
  -27.2319  -37.1417   25.8877 H   0  0  0  0  0  0
  -20.9390  -29.8778   21.6878 H   0  0  0  0  0  0
  -26.0177  -38.2853   24.1417 H   0  0  0  0  0  0
  -31.7751  -19.4698   20.3327 H   0  0  0  0  0  0
  -30.8979  -21.7452   20.5532 H   0  0  0  0  0  0
  -27.7879  -17.9093   20.0935 H   0  0  0  0  0  0
  -31.0371  -17.7919   16.4098 H   0  0  0  0  0  0
  -32.0731  -18.1999   17.7703 H   0  0  0  0  0  0
  -30.5029  -18.9843   17.5805 H   0  0  0  0  0  0
  -24.7436  -20.8250   20.8826 H   0  0  0  0  0  0
  -25.7859  -21.9874   20.1033 H   0  0  0  0  0  0
  -26.1167  -21.4553   21.7773 H   0  0  0  0  0  0
  -30.8665  -15.9738   17.9881 H   0  0  0  0  0  0
  -29.3437  -16.8155   17.9823 H   0  0  0  0  0  0
  -29.8923  -23.9256   20.7961 H   0  0  0  0  0  0
  -29.1908  -23.8681   19.1982 H   0  0  0  0  0  0
  -27.9695  -25.1439   21.7105 H   0  0  0  0  0  0
  -27.0189  -24.7841   20.3241 H   0  0  0  0  0  0
  -31.5181  -17.1437   20.0966 H   0  0  0  0  0  0
  -27.2796  -22.5910   20.6258 H   0  0  0  0  0  0
  -28.9820  -15.7278   20.6682 H   0  0  0  0  0  0
  1 25  1  0  0  0
  1 30  2  0  0  0
  1 84  1  0  0  0
  2  3  1  0  0  0
  2 25  1  0  0  0
  2 86  1  0  0  0
  2 87  1  0  0  0
  3  4  1  0  0  0
  3 88  1  0  0  0
  3 89  1  0  0  0
  4  5  1  0  0  0
  4 90  1  0  0  0
  4 91  1  0  0  0
  5  6  1  0  0  0
  5 26  1  0  0  0
  5 92  1  0  0  0
  6 25  1  0  0  0
  6 93  1  0  0  0
  6 94  1  0  0  0
  7  8  2  0  0  0
  7 26  1  0  0  0
  7 29  1  0  0  0
  8  9  1  0  0  0
  8 22  1  0  0  0
  9 10  1  0  0  0
  9 27  2  0  0  0
 10 11  2  0  0  0
 10 15  1  0  0  0
 11 12  1  0  0  0
 11 95  1  0  0  0
 12 13  2  0  0  0
 12 96  1  0  0  0
 13 14  1  0  0  0
 13 31  1  0  0  0
 14 15  2  0  0  0
 14 97  1  0  0  0
 15 98  1  0  0  0
 16 17  2  0  0  0
 16 21  1  0  0  0
 16 31  1  0  0  0
 17 18  1  0  0  0
 17 99  1  0  0  0
 18 19  2  0  0  0
 18100  1  0  0  0
 19 20  1  0  0  0
 19 24  1  0  0  0
 20 21  2  0  0  0
 20101  1  0  0  0
 21 23  1  0  0  0
 22 28  1  0  0  0
 22 32  2  0  0  0
 26 27  1  0  0  0
 28102  1  0  0  0
 28103  1  0  0  0
 29104  1  0  0  0
 29105  1  0  0  0
 33 34  1  0  0  0
 33 66  1  0  0  0
 33 70  2  0  0  0
 34 36  1  0  0  0
 34 59  1  0  0  0
 34106  1  0  0  0
 35 44  2  0  0  0
 35 45  1  0  0  0
 35 68  1  0  0  0
 36 56  1  0  0  0
 36107  1  0  0  0
 37 39  1  0  0  0
 37 47  1  0  0  0
 37 66  1  0  0  0
 37108  1  0  0  0
 38 43  2  0  0  0
 38 46  1  0  0  0
 38 47  1  0  0  0
 39 64  1  0  0  0
 39 67  2  0  0  0
 40 52  1  0  0  0
 40 53  2  0  0  0
 40 58  1  0  0  0
 41109  1  0  0  0
 41110  1  0  0  0
 41111  1  0  0  0
 41 48  1  0  0  0
 42 43  1  0  0  0
 42 66  1  0  0  0
 42112  1  0  0  0
 42113  1  0  0  0
 43 44  1  0  0  0
 44114  1  0  0  0
 45 46  2  0  0  0
 45115  1  0  0  0
 46116  1  0  0  0
 47117  1  0  0  0
 47118  1  0  0  0
 48 56  1  0  0  0
 48 65  1  0  0  0
 48119  1  0  0  0
 49 50  1  0  0  0
 49 53  1  0  0  0
 49 64  1  0  0  0
 49120  1  0  0  0
 50 51  1  0  0  0
 50121  1  0  0  0
 50122  1  0  0  0
 51 52  1  0  0  0
 51123  1  0  0  0
 51124  1  0  0  0
 52125  1  0  0  0
 52126  1  0  0  0
 53 54  1  0  0  0
 54 55  2  0  0  0
 54127  1  0  0  0
 55 57  1  0  0  0
 55128  1  0  0  0
 56 69  2  0  0  0
 57 58  2  0  0  0
 57129  1  0  0  0
 58130  1  0  0  0
 59 60  1  0  0  0
 59 61  1  0  0  0
 59 62  1  0  0  0
 60131  1  0  0  0
 60132  1  0  0  0
 60133  1  0  0  0
 61134  1  0  0  0
 61135  1  0  0  0
 61136  1  0  0  0
 62137  1  0  0  0
 62138  1  0  0  0
 62139  1  0  0  0
 63 65  1  0  0  0
 63140  1  0  0  0
 63141  1  0  0  0
 63142  1  0  0  0
 64143  1  0  0  0
 65144  1  0  0  0
 68 81  1  0  0  0
 71 72  2  0  0  0
 71 74  1  0  0  0
 71145  1  0  0  0
 72 75  1  0  0  0
 72146  1  0  0  0
 73 74  2  0  0  0
 73 76  1  0  0  0
 73147  1  0  0  0
 74 82  1  0  0  0
 75 76  2  0  0  0
 75 83  1  0  0  0
 76 85  1  0  0  0
 77 79  1  0  0  0
 77148  1  0  0  0
 77149  1  0  0  0
 77150  1  0  0  0
 78 85  1  0  0  0
 78151  1  0  0  0
 78152  1  0  0  0
 78153  1  0  0  0
 79154  1  0  0  0
 79155  1  0  0  0
 79 82  1  0  0  0
 80 81  1  0  0  0
 80 83  1  0  0  0
 80156  1  0  0  0
 80157  1  0  0  0
 81158  1  0  0  0
 81159  1  0  0  0
 82 84  1  0  0  0
 82160  1  0  0  0
 83161  1  0  0  0
 84162  1  0  0  0
M  ISO  4   1 100  68 101  81 101  84 100
M  END
> <chiral flag>
0

> <version>
0

> <s_m_source_file>
/data/baiqing/PycharmProjects/Reinvent-master-3.2/result/LINK_invent/BTK/process_docking_weight1_custom_product_contain_oxygen_bond_distance_aromatic_linkinvent_7_9_3/rearranged_h_0098.sdf

> <i_m_source_file_index>
60

> <r_mmod_Potential_Energy-OPLS-2005>
60.083080291748

> <r_mmod_Stretch_Energy-OPLS-2005>
76.3191909790039

> <r_mmod_Bend_Energy-OPLS-2005>
171.546829223633

> <r_mmod_Torsional_Energy-OPLS-2005>
230.501358032227

> <r_mmod_Improper_Torsional_Energy-OPLS-2005>
11.1043291091919

> <r_mmod_Van_der_Waal_Energy-OPLS-2005>
153.010940551758

> <r_mmod_Electrostatic_Energy-OPLS-2005>
-419.842651367188

> <r_mmod_Solvation_Energy-OPLS-2005>
-214.266479492188

> <b_mmod_Minimization_Converged-OPLS-2005>
0

> <r_mmod_RMS_Derivative-OPLS-2005>
2.73876237869263

$$$$
60
                    3D
 Structure written by MMmdl.
155163  0  0  1  0            999 V2000
  -30.7479  -14.4836   20.5472 C   0  0  0  0  0  0
  -30.4017  -12.3124   19.4293 C   0  0  0  0  0  0
  -29.4864  -12.4874   18.2039 C   0  0  0  0  0  0
  -28.0104  -12.3507   18.6215 C   0  0  0  0  0  0
  -27.6507  -13.2177   19.8591 C   0  0  2  0  0  0
  -28.6967  -13.0670   20.9865 C   0  0  0  0  0  0
  -25.2556  -13.8187   20.5695 C   0  0  0  0  0  0
  -24.1829  -13.0448   20.9207 C   0  0  0  0  0  0
  -24.6395  -11.6918   20.8748 C   0  0  0  0  0  0
  -23.9062  -10.4297   21.0409 C   0  0  0  0  0  0
  -24.3621   -9.4214   21.9184 C   0  0  0  0  0  0
  -23.6301   -8.2245   22.0752 C   0  0  0  0  0  0
  -22.4279   -8.0285   21.3547 C   0  0  0  0  0  0
  -21.9913   -9.0256   20.4648 C   0  0  0  0  0  0
  -22.7237  -10.2136   20.3059 C   0  0  0  0  0  0
  -21.6856   -6.0737   22.5281 C   0  0  0  0  0  0
  -21.4013   -6.5640   23.8214 C   0  0  0  0  0  0
  -21.3661   -5.6794   24.9177 C   0  0  0  0  0  0
  -21.6049   -4.3056   24.7228 C   0  0  0  0  0  0
  -21.8819   -3.8149   23.4348 C   0  0  0  0  0  0
  -21.9195   -4.6965   22.3405 C   0  0  0  0  0  0
  -22.7850  -13.5239   21.1863 C   0  0  0  0  0  0
  -22.1663   -4.2151   21.0982 F   0  0  0  0  0  0
  -21.5630   -3.4541   25.7741 F   0  0  0  0  0  0
  -30.0164  -13.3434   20.4072 N   0  0  0  0  0  0
  -26.2981  -12.9377   20.3323 N   0  0  0  0  0  0
  -25.9323  -11.6527   20.5770 N   0  0  0  0  0  0
  -22.0489  -12.8222   22.0410 N   0  0  0  0  0  0
  -25.4259  -15.1908   20.4092 N   0  0  0  0  0  0
  -31.9157  -14.5329   20.1515 O   0  0  0  0  0  0
  -21.6647   -6.8880   21.4243 O   0  0  0  0  0  0
  -22.3537  -14.5548   20.6716 O   0  0  0  0  0  0
  -24.6152  -31.8673   23.2092 C   0  0  0  0  0  0
  -25.9046  -32.4818   23.8386 C   0  0  1  0  0  0
  -27.2239  -27.4239   20.1050 C   0  0  0  0  0  0
  -25.5899  -33.8617   24.2316 N   0  0  0  0  0  0
  -23.4018  -30.4923   21.5497 C   0  0  2  0  0  0
  -24.8455  -28.9545   20.1156 C   0  0  0  0  0  0
  -22.7405  -29.4666   22.4985 C   0  0  0  0  0  0
  -18.0269  -28.1370   22.8495 C   0  0  0  0  0  0
  -24.1485  -36.7317   23.2636 C   0  0  0  0  0  0
  -25.9310  -30.8327   21.3604 C   0  0  0  0  0  0
  -26.0074  -29.4668   20.7065 C   0  0  0  0  0  0
  -27.2028  -28.7120   20.6896 C   0  0  0  0  0  0
  -26.0454  -26.9248   19.5117 C   0  0  0  0  0  0
  -24.8599  -27.6837   19.5142 C   0  0  0  0  0  0
  -23.6092  -29.8241   20.1642 C   0  0  0  0  0  0
  -25.4105  -36.3109   24.0333 C   0  0  1  0  0  0
  -20.5861  -28.3657   23.1311 C   0  0  2  0  0  0
  -20.6759  -26.9395   22.5411 C   0  0  0  0  0  0
  -19.5739  -26.6380   21.5208 C   0  0  0  0  0  0
  -18.1918  -26.7915   22.1622 C   0  0  0  0  0  0
  -19.1520  -28.8831   23.2901 C   0  0  0  0  0  0
  -18.9454  -30.1439   23.8909 C   0  0  0  0  0  0
  -17.6459  -30.6580   24.0565 C   0  0  0  0  0  0
  -25.9034  -34.9473   23.5121 C   0  0  0  0  0  0
  -16.5348  -29.9083   23.6326 C   0  0  0  0  0  0
  -16.7261  -28.6498   23.0352 C   0  0  0  0  0  0
  -26.4469  -31.6604   25.0722 C   0  0  0  0  0  0
  -25.3739  -31.3720   26.1477 C   0  0  0  0  0  0
  -27.0300  -30.3045   24.6105 C   0  0  0  0  0  0
  -27.6038  -32.4328   25.7492 C   0  0  0  0  0  0
  -27.5579  -37.1809   24.8462 C   0  0  0  0  0  0
  -21.4134  -29.3033   22.3724 N   0  0  0  0  0  0
  -26.4288  -37.3796   23.9411 N   0  0  0  0  0  0
  -24.6679  -31.0776   22.0987 N   0  0  0  0  0  0
  -23.4181  -28.8209   23.3026 O   0  0  0  0  0  0
  -28.3884  -26.6868   20.1083 O   0  0  0  0  0  0
  -26.5600  -34.8930   22.4686 O   0  0  0  0  0  0
  -23.5346  -32.1428   23.7489 O   0  0  0  0  0  0
  -30.7722  -19.1213   20.3157 C   0  0  0  0  0  0
  -30.2321  -20.3983   20.0707 C   0  0  0  0  0  0
  -28.6439  -18.3537   21.1863 C   0  0  0  0  0  0
  -29.9966  -18.0839   20.8811 C   0  0  0  0  0  0
  -28.1023  -19.6450   20.9507 C   0  0  0  0  0  0
  -28.8855  -20.6929   20.3971 C   0  0  0  0  0  0
  -30.6874  -16.7810   21.2160 C   0  0  0  0  0  0
  -28.4005  -24.3193   19.3128 C   0  0  0  0  0  0
  -28.2979  -25.3023   20.5039 C   0  0  0  0  0  0
  -29.1140  -22.9698   19.5961 C   0  0  0  0  0  0
  -26.7746  -19.9025   21.2814 N   0  0  0  0  0  0
  -30.0837  -15.6068   20.9161 N   0  0  0  0  0  0
  -31.8262  -16.8564   21.6950 O   0  0  0  0  0  0
  -28.3087  -21.9490   20.2090 O   0  0  0  0  0  0
  -31.4485  -12.3741   19.1279 H   0  0  0  0  0  0
  -30.2790  -11.3193   19.8642 H   0  0  0  0  0  0
  -29.7293  -11.7444   17.4430 H   0  0  0  0  0  0
  -29.6573  -13.4633   17.7463 H   0  0  0  0  0  0
  -27.8292  -11.2980   18.8421 H   0  0  0  0  0  0
  -27.3578  -12.5996   17.7842 H   0  0  0  0  0  0
  -27.6745  -14.2547   19.5245 H   0  0  0  0  0  0
  -28.6783  -12.0572   21.3989 H   0  0  0  0  0  0
  -28.4706  -13.7371   21.8175 H   0  0  0  0  0  0
  -25.2763   -9.5694   22.4762 H   0  0  0  0  0  0
  -24.0015   -7.4635   22.7467 H   0  0  0  0  0  0
  -21.0845   -8.8778   19.8949 H   0  0  0  0  0  0
  -22.3697  -10.9682   19.6175 H   0  0  0  0  0  0
  -21.1999   -7.6148   23.9720 H   0  0  0  0  0  0
  -21.1485   -6.0522   25.9080 H   0  0  0  0  0  0
  -22.0595   -2.7612   23.2852 H   0  0  0  0  0  0
  -22.4108  -11.9884   22.4800 H   0  0  0  0  0  0
  -21.1107  -13.1253   22.2617 H   0  0  0  0  0  0
  -24.6546  -15.8404   20.5152 H   0  0  0  0  0  0
  -26.2651  -15.6286   20.0523 H   0  0  0  0  0  0
  -26.7117  -32.5522   23.1148 H   0  0  0  0  0  0
  -25.0062  -33.9782   25.0469 H   0  0  0  0  0  0
  -22.6910  -31.3099   21.4112 H   0  0  0  0  0  0
  -23.3746  -35.9651   23.3297 H   0  0  0  0  0  0
  -24.3583  -36.8937   22.2052 H   0  0  0  0  0  0
  -23.7236  -37.6519   23.6658 H   0  0  0  0  0  0
  -26.0449  -31.6002   20.5929 H   0  0  0  0  0  0
  -26.8182  -30.8841   21.9802 H   0  0  0  0  0  0
  -28.1029  -29.1061   21.1409 H   0  0  0  0  0  0
  -26.0357  -25.9529   19.0416 H   0  0  0  0  0  0
  -23.9653  -27.2833   19.0572 H   0  0  0  0  0  0
  -23.7190  -30.5995   19.4052 H   0  0  0  0  0  0
  -22.7322  -29.2461   19.8665 H   0  0  0  0  0  0
  -25.1280  -36.1968   25.0825 H   0  0  0  0  0  0
  -20.9957  -28.3221   24.1429 H   0  0  0  0  0  0
  -20.5653  -26.2272   23.3601 H   0  0  0  0  0  0
  -21.6631  -26.7432   22.1212 H   0  0  0  0  0  0
  -19.6899  -25.6296   21.1225 H   0  0  0  0  0  0
  -19.6669  -27.3200   20.6747 H   0  0  0  0  0  0
  -17.4187  -26.6665   21.4025 H   0  0  0  0  0  0
  -18.0325  -26.0047   22.9012 H   0  0  0  0  0  0
  -19.7936  -30.7247   24.2280 H   0  0  0  0  0  0
  -17.5019  -31.6262   24.5164 H   0  0  0  0  0  0
  -15.5352  -30.2994   23.7638 H   0  0  0  0  0  0
  -15.8661  -28.0820   22.7062 H   0  0  0  0  0  0
  -24.5921  -30.7044   25.7837 H   0  0  0  0  0  0
  -24.8923  -32.2880   26.4910 H   0  0  0  0  0  0
  -25.8103  -30.8919   27.0246 H   0  0  0  0  0  0
  -26.2845  -29.6813   24.1153 H   0  0  0  0  0  0
  -27.4060  -29.7274   25.4564 H   0  0  0  0  0  0
  -27.8683  -30.4361   23.9259 H   0  0  0  0  0  0
  -27.2650  -33.3629   26.2068 H   0  0  0  0  0  0
  -28.3854  -32.6886   25.0326 H   0  0  0  0  0  0
  -28.0697  -31.8455   26.5414 H   0  0  0  0  0  0
  -28.2592  -38.0113   24.7526 H   0  0  0  0  0  0
  -28.1078  -36.2645   24.6261 H   0  0  0  0  0  0
  -27.2303  -37.1429   25.8867 H   0  0  0  0  0  0
  -20.9292  -29.8770   21.6960 H   0  0  0  0  0  0
  -26.0175  -38.2871   24.1426 H   0  0  0  0  0  0
  -31.8116  -18.9425   20.0747 H   0  0  0  0  0  0
  -30.8913  -21.1386   19.6430 H   0  0  0  0  0  0
  -28.0375  -17.5811   21.6384 H   0  0  0  0  0  0
  -28.9868  -24.8214   18.5428 H   0  0  0  0  0  0
  -27.4233  -24.1435   18.8656 H   0  0  0  0  0  0
  -29.1352  -25.1321   21.1807 H   0  0  0  0  0  0
  -27.4034  -25.0970   21.0952 H   0  0  0  0  0  0
  -30.0065  -23.1557   20.1955 H   0  0  0  0  0  0
  -29.4545  -22.5854   18.6332 H   0  0  0  0  0  0
  -26.1273  -19.1225   21.3278 H   0  0  0  0  0  0
  -26.3677  -20.7341   20.8634 H   0  0  0  0  0  0
  -29.0836  -15.6024   20.8299 H   0  0  0  0  0  0
  1 25  1  0  0  0
  1 30  2  0  0  0
  1 82  1  0  0  0
  2  3  1  0  0  0
  2 25  1  0  0  0
  2 85  1  0  0  0
  2 86  1  0  0  0
  3  4  1  0  0  0
  3 87  1  0  0  0
  3 88  1  0  0  0
  4  5  1  0  0  0
  4 89  1  0  0  0
  4 90  1  0  0  0
  5  6  1  0  0  0
  5 26  1  0  0  0
  5 91  1  0  0  0
  6 25  1  0  0  0
  6 92  1  0  0  0
  6 93  1  0  0  0
  7  8  2  0  0  0
  7 26  1  0  0  0
  7 29  1  0  0  0
  8  9  1  0  0  0
  8 22  1  0  0  0
  9 10  1  0  0  0
  9 27  2  0  0  0
 10 11  2  0  0  0
 10 15  1  0  0  0
 11 12  1  0  0  0
 11 94  1  0  0  0
 12 13  2  0  0  0
 12 95  1  0  0  0
 13 14  1  0  0  0
 13 31  1  0  0  0
 14 15  2  0  0  0
 14 96  1  0  0  0
 15 97  1  0  0  0
 16 17  2  0  0  0
 16 21  1  0  0  0
 16 31  1  0  0  0
 17 18  1  0  0  0
 17 98  1  0  0  0
 18 19  2  0  0  0
 18 99  1  0  0  0
 19 20  1  0  0  0
 19 24  1  0  0  0
 20 21  2  0  0  0
 20100  1  0  0  0
 21 23  1  0  0  0
 22 28  1  0  0  0
 22 32  2  0  0  0
 26 27  1  0  0  0
 28101  1  0  0  0
 28102  1  0  0  0
 29103  1  0  0  0
 29104  1  0  0  0
 33 34  1  0  0  0
 33 66  1  0  0  0
 33 70  2  0  0  0
 34 36  1  0  0  0
 34 59  1  0  0  0
 34105  1  0  0  0
 35 44  2  0  0  0
 35 45  1  0  0  0
 35 68  1  0  0  0
 36 56  1  0  0  0
 36106  1  0  0  0
 37 39  1  0  0  0
 37 47  1  0  0  0
 37 66  1  0  0  0
 37107  1  0  0  0
 38 43  2  0  0  0
 38 46  1  0  0  0
 38 47  1  0  0  0
 39 64  1  0  0  0
 39 67  2  0  0  0
 40 52  1  0  0  0
 40 53  2  0  0  0
 40 58  1  0  0  0
 41108  1  0  0  0
 41109  1  0  0  0
 41110  1  0  0  0
 41 48  1  0  0  0
 42 43  1  0  0  0
 42 66  1  0  0  0
 42111  1  0  0  0
 42112  1  0  0  0
 43 44  1  0  0  0
 44113  1  0  0  0
 45 46  2  0  0  0
 45114  1  0  0  0
 46115  1  0  0  0
 47116  1  0  0  0
 47117  1  0  0  0
 48 56  1  0  0  0
 48 65  1  0  0  0
 48118  1  0  0  0
 49 50  1  0  0  0
 49 53  1  0  0  0
 49 64  1  0  0  0
 49119  1  0  0  0
 50 51  1  0  0  0
 50120  1  0  0  0
 50121  1  0  0  0
 51 52  1  0  0  0
 51122  1  0  0  0
 51123  1  0  0  0
 52124  1  0  0  0
 52125  1  0  0  0
 53 54  1  0  0  0
 54 55  2  0  0  0
 54126  1  0  0  0
 55 57  1  0  0  0
 55127  1  0  0  0
 56 69  2  0  0  0
 57 58  2  0  0  0
 57128  1  0  0  0
 58129  1  0  0  0
 59 60  1  0  0  0
 59 61  1  0  0  0
 59 62  1  0  0  0
 60130  1  0  0  0
 60131  1  0  0  0
 60132  1  0  0  0
 61133  1  0  0  0
 61134  1  0  0  0
 61135  1  0  0  0
 62136  1  0  0  0
 62137  1  0  0  0
 62138  1  0  0  0
 63 65  1  0  0  0
 63139  1  0  0  0
 63140  1  0  0  0
 63141  1  0  0  0
 64142  1  0  0  0
 65143  1  0  0  0
 68 79  1  0  0  0
 71 72  2  0  0  0
 71 74  1  0  0  0
 71144  1  0  0  0
 72 76  1  0  0  0
 72145  1  0  0  0
 73 74  2  0  0  0
 73 75  1  0  0  0
 73146  1  0  0  0
 74 77  1  0  0  0
 75 76  2  0  0  0
 75 81  1  0  0  0
 76 84  1  0  0  0
 77 82  1  0  0  0
 77 83  2  0  0  0
 78 79  1  0  0  0
 78 80  1  0  0  0
 78147  1  0  0  0
 78148  1  0  0  0
 79149  1  0  0  0
 79150  1  0  0  0
 80 84  1  0  0  0
 80151  1  0  0  0
 80152  1  0  0  0
 81153  1  0  0  0
 81154  1  0  0  0
 82155  1  0  0  0
M  ISO  4   1 100  68 101  79 101  82 100
M  END
> <chiral flag>
0

> <version>
0

> <s_m_source_file>
/data/baiqing/PycharmProjects/Reinvent-master-3.2/result/LINK_invent/BTK/process_docking_weight1_custom_product_contain_oxygen_bond_distance_aromatic_linkinvent_7_9_3/rearranged_h_0098.sdf

> <i_m_source_file_index>
61

> <r_mmod_Potential_Energy-OPLS-2005>
-138.470733642578

> <r_mmod_Stretch_Energy-OPLS-2005>
40.3692016601562

> <r_mmod_Bend_Energy-OPLS-2005>
109.025825500488

> <r_mmod_Torsional_Energy-OPLS-2005>
257.484405517578

> <r_mmod_Improper_Torsional_Energy-OPLS-2005>
9.35019874572754

> <r_mmod_Van_der_Waal_Energy-OPLS-2005>
166.104782104492

> <r_mmod_Electrostatic_Energy-OPLS-2005>
-506.610992431641

> <r_mmod_Solvation_Energy-OPLS-2005>
-235.024475097656

> <b_mmod_Minimization_Converged-OPLS-2005>
0

> <r_mmod_RMS_Derivative-OPLS-2005>
1.03845739364624

$$$$
61
                    3D
 Structure written by MMmdl.
156165  0  0  1  0            999 V2000
  -30.6227  -14.8834   20.4261 C   0  0  0  0  0  0
  -30.4243  -12.5393   19.5229 C   0  0  0  0  0  0
  -29.5308  -12.4917   18.2651 C   0  0  0  0  0  0
  -28.0629  -12.2740   18.6757 C   0  0  0  0  0  0
  -27.6222  -13.2289   19.8151 C   0  0  2  0  0  0
  -28.6528  -13.3239   20.9594 C   0  0  0  0  0  0
  -25.2449  -13.8123   20.5624 C   0  0  0  0  0  0
  -24.1777  -13.0397   20.9234 C   0  0  0  0  0  0
  -24.6371  -11.6878   20.8749 C   0  0  0  0  0  0
  -23.9043  -10.4286   21.0439 C   0  0  0  0  0  0
  -24.3606   -9.4189   21.9191 C   0  0  0  0  0  0
  -23.6295   -8.2232   22.0743 C   0  0  0  0  0  0
  -22.4266   -8.0287   21.3553 C   0  0  0  0  0  0
  -21.9905   -9.0258   20.4644 C   0  0  0  0  0  0
  -22.7234  -10.2131   20.3061 C   0  0  0  0  0  0
  -21.6849   -6.0749   22.5272 C   0  0  0  0  0  0
  -21.4015   -6.5636   23.8207 C   0  0  0  0  0  0
  -21.3657   -5.6777   24.9158 C   0  0  0  0  0  0
  -21.6047   -4.3045   24.7206 C   0  0  0  0  0  0
  -21.8826   -3.8140   23.4333 C   0  0  0  0  0  0
  -21.9181   -4.6968   22.3388 C   0  0  0  0  0  0
  -22.7795  -13.5211   21.1901 C   0  0  0  0  0  0
  -22.1669   -4.2148   21.0970 F   0  0  0  0  0  0
  -21.5620   -3.4526   25.7725 F   0  0  0  0  0  0
  -29.9492  -13.6685   20.3724 N   0  0  0  0  0  0
  -26.2843  -12.9334   20.3133 N   0  0  0  0  0  0
  -25.9291  -11.6490   20.5702 N   0  0  0  0  0  0
  -22.0419  -12.8232   22.0451 N   0  0  0  0  0  0
  -25.4037  -15.1834   20.3898 N   0  0  0  0  0  0
  -31.8327  -14.8520   20.1919 O   0  0  0  0  0  0
  -21.6635   -6.8887   21.4240 O   0  0  0  0  0  0
  -22.3500  -14.5536   20.6733 O   0  0  0  0  0  0
  -24.6378  -31.8500   23.1905 C   0  0  0  0  0  0
  -25.9172  -32.4739   23.8272 C   0  0  1  0  0  0
  -27.2158  -27.2080   20.1364 C   0  0  0  0  0  0
  -25.5963  -33.8534   24.2228 N   0  0  0  0  0  0
  -23.4343  -30.4705   21.5361 C   0  0  2  0  0  0
  -24.8802  -28.8993   20.1124 C   0  0  0  0  0  0
  -22.7522  -29.4599   22.4901 C   0  0  0  0  0  0
  -18.0296  -28.1416   22.8497 C   0  0  0  0  0  0
  -24.1480  -36.7258   23.2634 C   0  0  0  0  0  0
  -25.9834  -30.7472   21.3740 C   0  0  0  0  0  0
  -26.0549  -29.3623   20.7192 C   0  0  0  0  0  0
  -27.2316  -28.5343   20.7055 C   0  0  0  0  0  0
  -26.0142  -26.8138   19.5188 C   0  0  0  0  0  0
  -24.8673  -27.6383   19.4946 C   0  0  0  0  0  0
  -23.6539  -29.7959   20.1559 C   0  0  0  0  0  0
  -25.4106  -36.3056   24.0326 C   0  0  1  0  0  0
  -20.5916  -28.3725   23.1276 C   0  0  2  0  0  0
  -20.6796  -26.9442   22.5424 C   0  0  0  0  0  0
  -19.5772  -26.6411   21.5227 C   0  0  0  0  0  0
  -18.1951  -26.7961   22.1643 C   0  0  0  0  0  0
  -19.1560  -28.8883   23.2893 C   0  0  0  0  0  0
  -18.9475  -30.1480   23.8912 C   0  0  0  0  0  0
  -17.6472  -30.6619   24.0562 C   0  0  0  0  0  0
  -25.9054  -34.9422   23.5080 C   0  0  0  0  0  0
  -16.5360  -29.9105   23.6345 C   0  0  0  0  0  0
  -16.7281  -28.6525   23.0372 C   0  0  0  0  0  0
  -26.4515  -31.6571   25.0677 C   0  0  0  0  0  0
  -25.3711  -31.3741   26.1384 C   0  0  0  0  0  0
  -27.0370  -30.2978   24.6202 C   0  0  0  0  0  0
  -27.6051  -32.4316   25.7468 C   0  0  0  0  0  0
  -27.5582  -37.1781   24.8463 C   0  0  0  0  0  0
  -21.4224  -29.3059   22.3645 N   0  0  0  0  0  0
  -26.4276  -37.3768   23.9421 N   0  0  0  0  0  0
  -24.7039  -31.0419   22.0901 N   0  0  0  0  0  0
  -23.4193  -28.8161   23.3043 O   0  0  0  0  0  0
  -28.3126  -26.3039   20.1009 O   0  0  0  0  0  0
  -26.5643  -34.8905   22.4659 O   0  0  0  0  0  0
  -23.5518  -32.1353   23.7187 O   0  0  0  0  0  0
  -28.8348  -16.8523   19.9343 C   0  0  0  0  0  0
  -30.7816  -17.4349   21.1438 C   0  0  0  0  0  0
  -28.5059  -18.2588   19.8113 C   0  0  0  0  0  0
  -30.4617  -18.8444   21.0199 C   0  0  0  0  0  0
  -30.0133  -16.3546   20.5763 C   0  0  0  0  0  0
  -29.3287  -19.3306   20.2928 C   0  0  0  0  0  0
  -29.5886  -20.9689   18.5142 C   0  0  0  0  0  0
  -29.3170  -22.3018   17.7948 C   0  0  0  0  0  0
  -29.3986  -23.5599   18.6794 C   0  0  0  0  0  0
  -28.7207  -22.0160   20.5952 C   0  0  0  0  0  0
  -28.4015  -23.4545   19.8322 C   0  0  1  0  0  0
  -28.2190  -24.8827   20.6512 C   0  0  0  0  0  0
  -29.1665  -20.7583   19.7950 N   0  0  0  0  0  0
  -30.1771  -20.1023   17.8549 O   0  0  0  0  0  0
  -31.4714  -12.6388   19.2361 H   0  0  0  0  0  0
  -30.3683  -11.6007   20.0761 H   0  0  0  0  0  0
  -29.8656  -11.6952   17.5968 H   0  0  0  0  0  0
  -29.6291  -13.4219   17.7056 H   0  0  0  0  0  0
  -27.9694  -11.2390   19.0115 H   0  0  0  0  0  0
  -27.4073  -12.3727   17.8096 H   0  0  0  0  0  0
  -27.5671  -14.2004   19.3346 H   0  0  0  0  0  0
  -28.7133  -12.3897   21.5199 H   0  0  0  0  0  0
  -28.3494  -14.0990   21.6660 H   0  0  0  0  0  0
  -25.2736   -9.5678   22.4773 H   0  0  0  0  0  0
  -23.9988   -7.4618   22.7453 H   0  0  0  0  0  0
  -21.0835   -8.8796   19.8958 H   0  0  0  0  0  0
  -22.3702  -10.9680   19.6175 H   0  0  0  0  0  0
  -21.2031   -7.6130   23.9722 H   0  0  0  0  0  0
  -21.1469   -6.0497   25.9072 H   0  0  0  0  0  0
  -22.0607   -2.7612   23.2819 H   0  0  0  0  0  0
  -22.4012  -11.9919   22.4902 H   0  0  0  0  0  0
  -21.1025  -13.1277   22.2598 H   0  0  0  0  0  0
  -24.6042  -15.8039   20.4490 H   0  0  0  0  0  0
  -26.2075  -15.6176   19.9593 H   0  0  0  0  0  0
  -26.7224  -32.5357   23.0988 H   0  0  0  0  0  0
  -25.0094  -33.9625   25.0374 H   0  0  0  0  0  0
  -22.7335  -31.2950   21.3870 H   0  0  0  0  0  0
  -23.3757  -35.9583   23.3296 H   0  0  0  0  0  0
  -24.3566  -36.8887   22.2055 H   0  0  0  0  0  0
  -23.7208  -37.6440   23.6657 H   0  0  0  0  0  0
  -26.1291  -31.5062   20.6024 H   0  0  0  0  0  0
  -26.8555  -30.7990   22.0138 H   0  0  0  0  0  0
  -28.1401  -28.8979   21.1633 H   0  0  0  0  0  0
  -25.9587  -25.8457   19.0430 H   0  0  0  0  0  0
  -23.9694  -27.2833   19.0052 H   0  0  0  0  0  0
  -23.7813  -30.5670   19.3958 H   0  0  0  0  0  0
  -22.7679  -29.2340   19.8535 H   0  0  0  0  0  0
  -25.1296  -36.1892   25.0826 H   0  0  0  0  0  0
  -21.0012  -28.3310   24.1390 H   0  0  0  0  0  0
  -20.5719  -26.2332   23.3623 H   0  0  0  0  0  0
  -21.6659  -26.7492   22.1192 H   0  0  0  0  0  0
  -19.6913  -25.6314   21.1274 H   0  0  0  0  0  0
  -19.6692  -27.3203   20.6734 H   0  0  0  0  0  0
  -17.4217  -26.6720   21.4043 H   0  0  0  0  0  0
  -18.0338  -26.0105   22.9045 H   0  0  0  0  0  0
  -19.7936  -30.7309   24.2293 H   0  0  0  0  0  0
  -17.5013  -31.6291   24.5183 H   0  0  0  0  0  0
  -15.5365  -30.3015   23.7640 H   0  0  0  0  0  0
  -15.8694  -28.0821   22.7111 H   0  0  0  0  0  0
  -24.5901  -30.7084   25.7695 H   0  0  0  0  0  0
  -24.8883  -32.2920   26.4741 H   0  0  0  0  0  0
  -25.8009  -30.8956   27.0199 H   0  0  0  0  0  0
  -26.2961  -29.6711   24.1225 H   0  0  0  0  0  0
  -27.4027  -29.7267   25.4743 H   0  0  0  0  0  0
  -27.8857  -30.4230   23.9476 H   0  0  0  0  0  0
  -27.2653  -33.3635   26.2008 H   0  0  0  0  0  0
  -28.3894  -32.6862   25.0323 H   0  0  0  0  0  0
  -28.0693  -31.8471   26.5421 H   0  0  0  0  0  0
  -28.2595  -38.0093   24.7569 H   0  0  0  0  0  0
  -28.1117  -36.2631   24.6251 H   0  0  0  0  0  0
  -27.2325  -37.1380   25.8877 H   0  0  0  0  0  0
  -20.9425  -29.8719   21.6792 H   0  0  0  0  0  0
  -26.0168  -38.2856   24.1422 H   0  0  0  0  0  0
  -28.1712  -16.1695   19.4341 H   0  0  0  0  0  0
  -31.7154  -17.1869   21.6279 H   0  0  0  0  0  0
  -27.6279  -18.5188   19.2384 H   0  0  0  0  0  0
  -31.1740  -19.5603   21.4137 H   0  0  0  0  0  0
  -28.3324  -22.2347   17.3315 H   0  0  0  0  0  0
  -30.0165  -22.4004   16.9613 H   0  0  0  0  0  0
  -29.1763  -24.4368   18.0712 H   0  0  0  0  0  0
  -30.4108  -23.6981   19.0612 H   0  0  0  0  0  0
  -27.8349  -21.7397   21.1689 H   0  0  0  0  0  0
  -29.4974  -22.2017   21.3379 H   0  0  0  0  0  0
  -27.4308  -23.3126   19.3532 H   0  0  0  0  0  0
  -28.9866  -24.8700   21.4269 H   0  0  0  0  0  0
  -27.2856  -24.8141   21.2067 H   0  0  0  0  0  0
  1 25  1  0  0  0
  1 30  2  0  0  0
  1 75  1  0  0  0
  2  3  1  0  0  0
  2 25  1  0  0  0
  2 85  1  0  0  0
  2 86  1  0  0  0
  3  4  1  0  0  0
  3 87  1  0  0  0
  3 88  1  0  0  0
  4  5  1  0  0  0
  4 89  1  0  0  0
  4 90  1  0  0  0
  5  6  1  0  0  0
  5 26  1  0  0  0
  5 91  1  0  0  0
  6 25  1  0  0  0
  6 92  1  0  0  0
  6 93  1  0  0  0
  7  8  2  0  0  0
  7 26  1  0  0  0
  7 29  1  0  0  0
  8  9  1  0  0  0
  8 22  1  0  0  0
  9 10  1  0  0  0
  9 27  2  0  0  0
 10 11  2  0  0  0
 10 15  1  0  0  0
 11 12  1  0  0  0
 11 94  1  0  0  0
 12 13  2  0  0  0
 12 95  1  0  0  0
 13 14  1  0  0  0
 13 31  1  0  0  0
 14 15  2  0  0  0
 14 96  1  0  0  0
 15 97  1  0  0  0
 16 17  2  0  0  0
 16 21  1  0  0  0
 16 31  1  0  0  0
 17 18  1  0  0  0
 17 98  1  0  0  0
 18 19  2  0  0  0
 18 99  1  0  0  0
 19 20  1  0  0  0
 19 24  1  0  0  0
 20 21  2  0  0  0
 20100  1  0  0  0
 21 23  1  0  0  0
 22 28  1  0  0  0
 22 32  2  0  0  0
 26 27  1  0  0  0
 28101  1  0  0  0
 28102  1  0  0  0
 29103  1  0  0  0
 29104  1  0  0  0
 33 34  1  0  0  0
 33 66  1  0  0  0
 33 70  2  0  0  0
 34 36  1  0  0  0
 34 59  1  0  0  0
 34105  1  0  0  0
 35 44  2  0  0  0
 35 45  1  0  0  0
 35 68  1  0  0  0
 36 56  1  0  0  0
 36106  1  0  0  0
 37 39  1  0  0  0
 37 47  1  0  0  0
 37 66  1  0  0  0
 37107  1  0  0  0
 38 43  2  0  0  0
 38 46  1  0  0  0
 38 47  1  0  0  0
 39 64  1  0  0  0
 39 67  2  0  0  0
 40 52  1  0  0  0
 40 53  2  0  0  0
 40 58  1  0  0  0
 41108  1  0  0  0
 41109  1  0  0  0
 41110  1  0  0  0
 41 48  1  0  0  0
 42 43  1  0  0  0
 42 66  1  0  0  0
 42111  1  0  0  0
 42112  1  0  0  0
 43 44  1  0  0  0
 44113  1  0  0  0
 45 46  2  0  0  0
 45114  1  0  0  0
 46115  1  0  0  0
 47116  1  0  0  0
 47117  1  0  0  0
 48 56  1  0  0  0
 48 65  1  0  0  0
 48118  1  0  0  0
 49 50  1  0  0  0
 49 53  1  0  0  0
 49 64  1  0  0  0
 49119  1  0  0  0
 50 51  1  0  0  0
 50120  1  0  0  0
 50121  1  0  0  0
 51 52  1  0  0  0
 51122  1  0  0  0
 51123  1  0  0  0
 52124  1  0  0  0
 52125  1  0  0  0
 53 54  1  0  0  0
 54 55  2  0  0  0
 54126  1  0  0  0
 55 57  1  0  0  0
 55127  1  0  0  0
 56 69  2  0  0  0
 57 58  2  0  0  0
 57128  1  0  0  0
 58129  1  0  0  0
 59 60  1  0  0  0
 59 61  1  0  0  0
 59 62  1  0  0  0
 60130  1  0  0  0
 60131  1  0  0  0
 60132  1  0  0  0
 61133  1  0  0  0
 61134  1  0  0  0
 61135  1  0  0  0
 62136  1  0  0  0
 62137  1  0  0  0
 62138  1  0  0  0
 63 65  1  0  0  0
 63139  1  0  0  0
 63140  1  0  0  0
 63141  1  0  0  0
 64142  1  0  0  0
 65143  1  0  0  0
 68 82  1  0  0  0
 71 73  2  0  0  0
 71 75  1  0  0  0
 71144  1  0  0  0
 72 74  1  0  0  0
 72 75  2  0  0  0
 72145  1  0  0  0
 73 76  1  0  0  0
 73146  1  0  0  0
 74 76  2  0  0  0
 74147  1  0  0  0
 76 83  1  0  0  0
 77 78  1  0  0  0
 77 83  1  0  0  0
 77 84  2  0  0  0
 78 79  1  0  0  0
 78148  1  0  0  0
 78149  1  0  0  0
 79 81  1  0  0  0
 79150  1  0  0  0
 79151  1  0  0  0
 80 81  1  0  0  0
 80 83  1  0  0  0
 80152  1  0  0  0
 80153  1  0  0  0
 81 82  1  0  0  0
 81154  1  0  0  0
 82155  1  0  0  0
 82156  1  0  0  0
M  ISO  4   1 100  68 101  75 100  82 101
M  END
> <chiral flag>
0

> <version>
0

> <s_m_source_file>
/data/baiqing/PycharmProjects/Reinvent-master-3.2/result/LINK_invent/BTK/process_docking_weight1_custom_product_contain_oxygen_bond_distance_aromatic_linkinvent_7_9_3/rearranged_h_0098.sdf

> <i_m_source_file_index>
62

> <r_mmod_Potential_Energy-OPLS-2005>
548.143005371094

> <r_mmod_Stretch_Energy-OPLS-2005>
184.571487426758

> <r_mmod_Bend_Energy-OPLS-2005>
226.2255859375

> <r_mmod_Torsional_Energy-OPLS-2005>
313.554504394531

> <r_mmod_Improper_Torsional_Energy-OPLS-2005>
8.37928199768066

> <r_mmod_Van_der_Waal_Energy-OPLS-2005>
136.743637084961

> <r_mmod_Electrostatic_Energy-OPLS-2005>
-256.353759765625

> <r_mmod_Solvation_Energy-OPLS-2005>
-208.000778198242

> <b_mmod_Minimization_Converged-OPLS-2005>
0

> <r_mmod_RMS_Derivative-OPLS-2005>
5.07178831100464

$$$$
62
                    3D
 Structure written by MMmdl.
158167  0  0  1  0            999 V2000
  -30.6750  -14.5258   20.4987 C   0  0  0  0  0  0
  -30.4197  -12.3138   19.4465 C   0  0  0  0  0  0
  -29.5001  -12.4938   18.2188 C   0  0  0  0  0  0
  -28.0188  -12.3591   18.6250 C   0  0  0  0  0  0
  -27.6576  -13.2112   19.8714 C   0  0  2  0  0  0
  -28.7004  -13.0329   21.0008 C   0  0  0  0  0  0
  -25.2566  -13.8166   20.5683 C   0  0  0  0  0  0
  -24.1826  -13.0434   20.9188 C   0  0  0  0  0  0
  -24.6390  -11.6905   20.8735 C   0  0  0  0  0  0
  -23.9053  -10.4290   21.0397 C   0  0  0  0  0  0
  -24.3610   -9.4210   21.9177 C   0  0  0  0  0  0
  -23.6292   -8.2240   22.0748 C   0  0  0  0  0  0
  -22.4275   -8.0273   21.3538 C   0  0  0  0  0  0
  -21.9906   -9.0245   20.4640 C   0  0  0  0  0  0
  -22.7226  -10.2128   20.3047 C   0  0  0  0  0  0
  -21.6856   -6.0733   22.5276 C   0  0  0  0  0  0
  -21.4015   -6.5638   23.8209 C   0  0  0  0  0  0
  -21.3661   -5.6793   24.9175 C   0  0  0  0  0  0
  -21.6042   -4.3055   24.7226 C   0  0  0  0  0  0
  -21.8820   -3.8145   23.4350 C   0  0  0  0  0  0
  -21.9196   -4.6959   22.3405 C   0  0  0  0  0  0
  -22.7848  -13.5227   21.1857 C   0  0  0  0  0  0
  -22.1664   -4.2143   21.0983 F   0  0  0  0  0  0
  -21.5630   -3.4537   25.7742 F   0  0  0  0  0  0
  -30.0307  -13.3254   20.4445 N   0  0  0  0  0  0
  -26.3004  -12.9343   20.3355 N   0  0  0  0  0  0
  -25.9314  -11.6501   20.5762 N   0  0  0  0  0  0
  -22.0504  -12.8206   22.0416 N   0  0  0  0  0  0
  -25.4282  -15.1885   20.4093 N   0  0  0  0  0  0
  -31.8297  -14.6772   20.0917 O   0  0  0  0  0  0
  -21.6640   -6.8872   21.4236 O   0  0  0  0  0  0
  -22.3531  -14.5541   20.6724 O   0  0  0  0  0  0
  -24.6192  -31.8642   23.2065 C   0  0  0  0  0  0
  -25.9081  -32.4791   23.8367 C   0  0  1  0  0  0
  -27.2310  -27.3853   20.1037 C   0  0  0  0  0  0
  -25.5939  -33.8588   24.2301 N   0  0  0  0  0  0
  -23.4094  -30.4885   21.5458 C   0  0  2  0  0  0
  -24.8563  -28.9524   20.1087 C   0  0  0  0  0  0
  -22.7436  -29.4637   22.4942 C   0  0  0  0  0  0
  -18.0281  -28.1374   22.8461 C   0  0  0  0  0  0
  -24.1501  -36.7296   23.2641 C   0  0  0  0  0  0
  -25.9435  -30.8135   21.3705 C   0  0  0  0  0  0
  -26.0183  -29.4464   20.7134 C   0  0  0  0  0  0
  -27.2063  -28.6702   20.7073 C   0  0  0  0  0  0
  -26.0497  -26.9317   19.4685 C   0  0  0  0  0  0
  -24.8689  -27.6962   19.4821 C   0  0  0  0  0  0
  -23.6219  -29.8258   20.1587 C   0  0  0  0  0  0
  -25.4122  -36.3083   24.0330 C   0  0  1  0  0  0
  -20.5876  -28.3667   23.1284 C   0  0  2  0  0  0
  -20.6773  -26.9398   22.5401 C   0  0  0  0  0  0
  -19.5761  -26.6377   21.5189 C   0  0  0  0  0  0
  -18.1935  -26.7914   22.1598 C   0  0  0  0  0  0
  -19.1534  -28.8837   23.2862 C   0  0  0  0  0  0
  -18.9471  -30.1440   23.8874 C   0  0  0  0  0  0
  -17.6476  -30.6580   24.0558 C   0  0  0  0  0  0
  -25.9051  -34.9448   23.5106 C   0  0  0  0  0  0
  -16.5359  -29.9080   23.6332 C   0  0  0  0  0  0
  -16.7275  -28.6503   23.0334 C   0  0  0  0  0  0
  -26.4493  -31.6585   25.0712 C   0  0  0  0  0  0
  -25.3741  -31.3709   26.1451 C   0  0  0  0  0  0
  -27.0353  -30.3027   24.6122 C   0  0  0  0  0  0
  -27.6057  -32.4311   25.7484 C   0  0  0  0  0  0
  -27.5583  -37.1801   24.8465 C   0  0  0  0  0  0
  -21.4158  -29.3031   22.3688 N   0  0  0  0  0  0
  -26.4297  -37.3770   23.9403 N   0  0  0  0  0  0
  -24.6748  -31.0712   22.0985 N   0  0  0  0  0  0
  -23.4183  -28.8180   23.3005 O   0  0  0  0  0  0
  -28.3896  -26.6152   20.1522 O   0  0  0  0  0  0
  -26.5603  -34.8910   22.4659 O   0  0  0  0  0  0
  -23.5377  -32.1430   23.7434 O   0  0  0  0  0  0
  -31.0034  -18.4332   21.7736 C   0  0  0  0  0  0
  -30.9709  -19.7982   22.2020 C   0  0  0  0  0  0
  -30.1314  -18.1605   20.7553 C   0  0  0  0  0  0
  -30.0480  -20.6062   21.5598 C   0  0  0  0  0  0
  -29.7801  -22.4006   23.1019 C   0  0  0  0  0  0
  -29.6693  -23.9033   23.3780 C   0  0  0  0  0  0
  -28.7603  -24.6331   22.3953 C   0  0  0  0  0  0
  -29.1974  -22.7982   20.7223 C   0  0  0  0  0  0
  -29.1980  -24.3558   20.9596 C   0  0  1  0  0  0
  -29.9521  -16.8669   19.9823 C   0  0  0  0  0  0
  -28.3001  -25.1716   19.9744 C   0  0  0  0  0  0
  -29.7490  -21.9355   21.8169 N   0  0  0  0  0  0
  -29.8858  -15.5962   20.7435 N   0  0  0  0  0  0
  -29.9069  -21.6705   24.0906 O   0  0  0  0  0  0
  -29.2511  -19.6280   20.3271 S   0  0  0  0  0  0
  -31.4675  -12.3973   19.1528 H   0  0  0  0  0  0
  -30.3067  -11.3119   19.8639 H   0  0  0  0  0  0
  -29.7437  -11.7558   17.4534 H   0  0  0  0  0  0
  -29.6714  -13.4717   17.7664 H   0  0  0  0  0  0
  -27.8273  -11.3047   18.8284 H   0  0  0  0  0  0
  -27.3735  -12.6267   17.7871 H   0  0  0  0  0  0
  -27.6878  -14.2521   19.5502 H   0  0  0  0  0  0
  -28.6761  -12.0122   21.3849 H   0  0  0  0  0  0
  -28.4688  -13.6760   21.8514 H   0  0  0  0  0  0
  -25.2753   -9.5692   22.4748 H   0  0  0  0  0  0
  -24.0009   -7.4632   22.7461 H   0  0  0  0  0  0
  -21.0841   -8.8751   19.8940 H   0  0  0  0  0  0
  -22.3676  -10.9665   19.6153 H   0  0  0  0  0  0
  -21.2003   -7.6144   23.9713 H   0  0  0  0  0  0
  -21.1484   -6.0524   25.9079 H   0  0  0  0  0  0
  -22.0598   -2.7604   23.2853 H   0  0  0  0  0  0
  -22.4139  -11.9865   22.4787 H   0  0  0  0  0  0
  -21.1113  -13.1203   22.2631 H   0  0  0  0  0  0
  -24.6593  -15.8419   20.5115 H   0  0  0  0  0  0
  -26.2777  -15.6282   20.0784 H   0  0  0  0  0  0
  -26.7146  -32.5491   23.1120 H   0  0  0  0  0  0
  -25.0130  -33.9735   25.0476 H   0  0  0  0  0  0
  -22.7002  -31.3065   21.4040 H   0  0  0  0  0  0
  -23.3750  -35.9642   23.3313 H   0  0  0  0  0  0
  -24.3601  -36.8902   22.2056 H   0  0  0  0  0  0
  -23.7267  -37.6504   23.6656 H   0  0  0  0  0  0
  -26.0705  -31.5807   20.6055 H   0  0  0  0  0  0
  -26.8259  -30.8586   21.9965 H   0  0  0  0  0  0
  -28.0993  -29.0421   21.1900 H   0  0  0  0  0  0
  -26.0144  -25.9871   18.9465 H   0  0  0  0  0  0
  -23.9804  -27.3144   18.9971 H   0  0  0  0  0  0
  -23.7375  -30.6031   19.4021 H   0  0  0  0  0  0
  -22.7436  -29.2522   19.8575 H   0  0  0  0  0  0
  -25.1295  -36.1935   25.0823 H   0  0  0  0  0  0
  -20.9963  -28.3251   24.1406 H   0  0  0  0  0  0
  -20.5681  -26.2275   23.3595 H   0  0  0  0  0  0
  -21.6645  -26.7436   22.1200 H   0  0  0  0  0  0
  -19.6936  -25.6289   21.1226 H   0  0  0  0  0  0
  -19.6722  -27.3180   20.6714 H   0  0  0  0  0  0
  -17.4207  -26.6644   21.4003 H   0  0  0  0  0  0
  -18.0342  -26.0058   22.9000 H   0  0  0  0  0  0
  -19.7959  -30.7238   24.2246 H   0  0  0  0  0  0
  -17.5049  -31.6263   24.5152 H   0  0  0  0  0  0
  -15.5370  -30.2981   23.7684 H   0  0  0  0  0  0
  -15.8662  -28.0838   22.7043 H   0  0  0  0  0  0
  -24.5914  -30.7055   25.7797 H   0  0  0  0  0  0
  -24.8936  -32.2876   26.4881 H   0  0  0  0  0  0
  -25.8082  -30.8897   27.0224 H   0  0  0  0  0  0
  -26.2922  -29.6744   24.1197 H   0  0  0  0  0  0
  -27.4153  -29.7298   25.4591 H   0  0  0  0  0  0
  -27.8737  -30.4344   23.9273 H   0  0  0  0  0  0
  -27.2672  -33.3606   26.2066 H   0  0  0  0  0  0
  -28.3875  -32.6870   25.0323 H   0  0  0  0  0  0
  -28.0714  -31.8428   26.5402 H   0  0  0  0  0  0
  -28.2585  -38.0112   24.7507 H   0  0  0  0  0  0
  -28.1087  -36.2630   24.6290 H   0  0  0  0  0  0
  -27.2293  -37.1447   25.8868 H   0  0  0  0  0  0
  -20.9329  -29.8768   21.6916 H   0  0  0  0  0  0
  -26.0177  -38.2842   24.1409 H   0  0  0  0  0  0
  -31.6803  -17.7126   22.2126 H   0  0  0  0  0  0
  -31.6261  -20.1295   22.9960 H   0  0  0  0  0  0
  -30.6737  -24.3273   23.3498 H   0  0  0  0  0  0
  -29.2978  -24.0543   24.3922 H   0  0  0  0  0  0
  -28.7874  -25.7040   22.6018 H   0  0  0  0  0  0
  -27.7272  -24.3130   22.5412 H   0  0  0  0  0  0
  -29.7349  -22.5831   19.7972 H   0  0  0  0  0  0
  -28.1695  -22.4737   20.5551 H   0  0  0  0  0  0
  -30.2227  -24.7120   20.8394 H   0  0  0  0  0  0
  -30.7341  -16.8103   19.2223 H   0  0  0  0  0  0
  -29.0243  -16.9299   19.4119 H   0  0  0  0  0  0
  -27.2873  -24.7981   20.1220 H   0  0  0  0  0  0
  -28.5709  -24.9377   18.9445 H   0  0  0  0  0  0
  -28.9791  -15.3726   21.1247 H   0  0  0  0  0  0
  1 25  1  0  0  0
  1 30  2  0  0  0
  1 83  1  0  0  0
  2  3  1  0  0  0
  2 25  1  0  0  0
  2 86  1  0  0  0
  2 87  1  0  0  0
  3  4  1  0  0  0
  3 88  1  0  0  0
  3 89  1  0  0  0
  4  5  1  0  0  0
  4 90  1  0  0  0
  4 91  1  0  0  0
  5  6  1  0  0  0
  5 26  1  0  0  0
  5 92  1  0  0  0
  6 25  1  0  0  0
  6 93  1  0  0  0
  6 94  1  0  0  0
  7  8  2  0  0  0
  7 26  1  0  0  0
  7 29  1  0  0  0
  8  9  1  0  0  0
  8 22  1  0  0  0
  9 10  1  0  0  0
  9 27  2  0  0  0
 10 11  2  0  0  0
 10 15  1  0  0  0
 11 12  1  0  0  0
 11 95  1  0  0  0
 12 13  2  0  0  0
 12 96  1  0  0  0
 13 14  1  0  0  0
 13 31  1  0  0  0
 14 15  2  0  0  0
 14 97  1  0  0  0
 15 98  1  0  0  0
 16 17  2  0  0  0
 16 21  1  0  0  0
 16 31  1  0  0  0
 17 18  1  0  0  0
 17 99  1  0  0  0
 18 19  2  0  0  0
 18100  1  0  0  0
 19 20  1  0  0  0
 19 24  1  0  0  0
 20 21  2  0  0  0
 20101  1  0  0  0
 21 23  1  0  0  0
 22 28  1  0  0  0
 22 32  2  0  0  0
 26 27  1  0  0  0
 28102  1  0  0  0
 28103  1  0  0  0
 29104  1  0  0  0
 29105  1  0  0  0
 33 34  1  0  0  0
 33 66  1  0  0  0
 33 70  2  0  0  0
 34 36  1  0  0  0
 34 59  1  0  0  0
 34106  1  0  0  0
 35 44  2  0  0  0
 35 45  1  0  0  0
 35 68  1  0  0  0
 36 56  1  0  0  0
 36107  1  0  0  0
 37 39  1  0  0  0
 37 47  1  0  0  0
 37 66  1  0  0  0
 37108  1  0  0  0
 38 43  2  0  0  0
 38 46  1  0  0  0
 38 47  1  0  0  0
 39 64  1  0  0  0
 39 67  2  0  0  0
 40 52  1  0  0  0
 40 53  2  0  0  0
 40 58  1  0  0  0
 41109  1  0  0  0
 41110  1  0  0  0
 41111  1  0  0  0
 41 48  1  0  0  0
 42 43  1  0  0  0
 42 66  1  0  0  0
 42112  1  0  0  0
 42113  1  0  0  0
 43 44  1  0  0  0
 44114  1  0  0  0
 45 46  2  0  0  0
 45115  1  0  0  0
 46116  1  0  0  0
 47117  1  0  0  0
 47118  1  0  0  0
 48 56  1  0  0  0
 48 65  1  0  0  0
 48119  1  0  0  0
 49 50  1  0  0  0
 49 53  1  0  0  0
 49 64  1  0  0  0
 49120  1  0  0  0
 50 51  1  0  0  0
 50121  1  0  0  0
 50122  1  0  0  0
 51 52  1  0  0  0
 51123  1  0  0  0
 51124  1  0  0  0
 52125  1  0  0  0
 52126  1  0  0  0
 53 54  1  0  0  0
 54 55  2  0  0  0
 54127  1  0  0  0
 55 57  1  0  0  0
 55128  1  0  0  0
 56 69  2  0  0  0
 57 58  2  0  0  0
 57129  1  0  0  0
 58130  1  0  0  0
 59 60  1  0  0  0
 59 61  1  0  0  0
 59 62  1  0  0  0
 60131  1  0  0  0
 60132  1  0  0  0
 60133  1  0  0  0
 61134  1  0  0  0
 61135  1  0  0  0
 61136  1  0  0  0
 62137  1  0  0  0
 62138  1  0  0  0
 62139  1  0  0  0
 63 65  1  0  0  0
 63140  1  0  0  0
 63141  1  0  0  0
 63142  1  0  0  0
 64143  1  0  0  0
 65144  1  0  0  0
 68 81  1  0  0  0
 71 72  1  0  0  0
 71 73  2  0  0  0
 71145  1  0  0  0
 72 74  2  0  0  0
 72146  1  0  0  0
 73 80  1  0  0  0
 73 85  1  0  0  0
 74 82  1  0  0  0
 74 85  1  0  0  0
 75 76  1  0  0  0
 75 82  1  0  0  0
 75 84  2  0  0  0
 76 77  1  0  0  0
 76147  1  0  0  0
 76148  1  0  0  0
 77 79  1  0  0  0
 77149  1  0  0  0
 77150  1  0  0  0
 78 79  1  0  0  0
 78 82  1  0  0  0
 78151  1  0  0  0
 78152  1  0  0  0
 79 81  1  0  0  0
 79153  1  0  0  0
 80 83  1  0  0  0
 80154  1  0  0  0
 80155  1  0  0  0
 81156  1  0  0  0
 81157  1  0  0  0
 83158  1  0  0  0
M  ISO  4   1 100  68 101  81 101  83 100
M  END
> <chiral flag>
0

> <version>
0

> <s_m_source_file>
/data/baiqing/PycharmProjects/Reinvent-master-3.2/result/LINK_invent/BTK/process_docking_weight1_custom_product_contain_oxygen_bond_distance_aromatic_linkinvent_7_9_3/rearranged_h_0098.sdf

> <i_m_source_file_index>
63

> <r_mmod_Potential_Energy-OPLS-2005>
-7.58008766174316

> <r_mmod_Stretch_Energy-OPLS-2005>
52.8653793334961

> <r_mmod_Bend_Energy-OPLS-2005>
117.001831054688

> <r_mmod_Torsional_Energy-OPLS-2005>
258.601409912109

> <r_mmod_Improper_Torsional_Energy-OPLS-2005>
9.66288089752197

> <r_mmod_Van_der_Waal_Energy-OPLS-2005>
146.587844848633

> <r_mmod_Electrostatic_Energy-OPLS-2005>
-394.483154296875

> <r_mmod_Solvation_Energy-OPLS-2005>
-221.031967163086

> <b_mmod_Minimization_Converged-OPLS-2005>
0

> <r_mmod_RMS_Derivative-OPLS-2005>
1.43055236339569

$$$$
63
                    3D
 Structure written by MMmdl.
155163  0  0  1  0            999 V2000
  -30.6852  -14.6052   20.4858 C   0  0  0  0  0  0
  -30.4164  -12.3669   19.4508 C   0  0  0  0  0  0
  -29.4982  -12.4882   18.2160 C   0  0  0  0  0  0
  -28.0200  -12.3413   18.6228 C   0  0  0  0  0  0
  -27.6433  -13.2255   19.8407 C   0  0  2  0  0  0
  -28.6879  -13.1118   20.9709 C   0  0  0  0  0  0
  -25.2519  -13.8196   20.5663 C   0  0  0  0  0  0
  -24.1811  -13.0439   20.9204 C   0  0  0  0  0  0
  -24.6393  -11.6913   20.8728 C   0  0  0  0  0  0
  -23.9074  -10.4291   21.0404 C   0  0  0  0  0  0
  -24.3626   -9.4206   21.9180 C   0  0  0  0  0  0
  -23.6287   -8.2250   22.0765 C   0  0  0  0  0  0
  -22.4267   -8.0284   21.3551 C   0  0  0  0  0  0
  -21.9905   -9.0257   20.4652 C   0  0  0  0  0  0
  -22.7245  -10.2128   20.3054 C   0  0  0  0  0  0
  -21.6845   -6.0736   22.5276 C   0  0  0  0  0  0
  -21.4004   -6.5641   23.8209 C   0  0  0  0  0  0
  -21.3659   -5.6795   24.9172 C   0  0  0  0  0  0
  -21.6040   -4.3056   24.7222 C   0  0  0  0  0  0
  -21.8819   -3.8147   23.4342 C   0  0  0  0  0  0
  -21.9189   -4.6962   22.3395 C   0  0  0  0  0  0
  -22.7823  -13.5212   21.1857 C   0  0  0  0  0  0
  -22.1657   -4.2143   21.0970 F   0  0  0  0  0  0
  -21.5632   -3.4544   25.7737 F   0  0  0  0  0  0
  -30.0087  -13.4164   20.4083 N   0  0  0  0  0  0
  -26.2940  -12.9398   20.3217 N   0  0  0  0  0  0
  -25.9316  -11.6541   20.5703 N   0  0  0  0  0  0
  -22.0474  -12.8199   22.0418 N   0  0  0  0  0  0
  -25.4205  -15.1922   20.4062 N   0  0  0  0  0  0
  -31.8739  -14.6343   20.1639 O   0  0  0  0  0  0
  -21.6630   -6.8878   21.4239 O   0  0  0  0  0  0
  -22.3494  -14.5517   20.6714 O   0  0  0  0  0  0
  -24.6285  -31.8643   23.2096 C   0  0  0  0  0  0
  -25.9150  -32.4805   23.8393 C   0  0  1  0  0  0
  -27.2071  -27.3467   20.0818 C   0  0  0  0  0  0
  -25.5993  -33.8597   24.2341 N   0  0  0  0  0  0
  -23.4165  -30.5007   21.5529 C   0  0  2  0  0  0
  -24.8546  -28.9730   20.1084 C   0  0  0  0  0  0
  -22.7479  -29.4689   22.4917 C   0  0  0  0  0  0
  -18.0298  -28.1404   22.8507 C   0  0  0  0  0  0
  -24.1474  -36.7273   23.2631 C   0  0  0  0  0  0
  -25.9620  -30.8052   21.3765 C   0  0  0  0  0  0
  -26.0312  -29.4384   20.7109 C   0  0  0  0  0  0
  -27.2145  -28.6401   20.6880 C   0  0  0  0  0  0
  -25.9987  -26.9465   19.4513 C   0  0  0  0  0  0
  -24.8391  -27.7301   19.4737 C   0  0  0  0  0  0
  -23.6275  -29.8547   20.1624 C   0  0  0  0  0  0
  -25.4094  -36.3094   24.0341 C   0  0  1  0  0  0
  -20.5907  -28.3711   23.1275 C   0  0  2  0  0  0
  -20.6794  -26.9430   22.5407 C   0  0  0  0  0  0
  -19.5754  -26.6397   21.5226 C   0  0  0  0  0  0
  -18.1931  -26.7960   22.1625 C   0  0  0  0  0  0
  -19.1552  -28.8870   23.2896 C   0  0  0  0  0  0
  -18.9478  -30.1483   23.8903 C   0  0  0  0  0  0
  -17.6477  -30.6602   24.0576 C   0  0  0  0  0  0
  -25.9055  -34.9469   23.5122 C   0  0  0  0  0  0
  -16.5367  -29.9111   23.6342 C   0  0  0  0  0  0
  -16.7287  -28.6527   23.0357 C   0  0  0  0  0  0
  -26.4531  -31.6591   25.0745 C   0  0  0  0  0  0
  -25.3781  -31.3731   26.1486 C   0  0  0  0  0  0
  -27.0363  -30.3030   24.6152 C   0  0  0  0  0  0
  -27.6077  -32.4317   25.7543 C   0  0  0  0  0  0
  -27.5566  -37.1789   24.8471 C   0  0  0  0  0  0
  -21.4193  -29.3090   22.3673 N   0  0  0  0  0  0
  -26.4261  -37.3803   23.9449 N   0  0  0  0  0  0
  -24.6888  -31.0718   22.1032 N   0  0  0  0  0  0
  -23.4234  -28.8175   23.2922 O   0  0  0  0  0  0
  -28.3050  -26.4679   20.1156 O   0  0  0  0  0  0
  -26.5556  -34.8926   22.4657 O   0  0  0  0  0  0
  -23.5464  -32.1386   23.7488 O   0  0  0  0  0  0
  -29.3823  -21.0628   18.8550 C   0  0  0  0  0  0
  -29.8363  -19.7096   18.6936 C   0  0  0  0  0  0
  -29.1905  -21.4610   20.1595 C   0  0  0  0  0  0
  -30.0553  -19.0352   19.8703 C   0  0  0  0  0  0
  -29.0062  -23.9106   20.1278 C   0  0  0  0  0  0
  -29.8620  -16.2631   22.2899 C   0  0  0  0  0  0
  -27.5284  -22.5453   21.5429 C   0  0  0  0  0  0
  -27.9187  -25.0424   20.0324 C   0  0  0  0  0  0
  -29.9817  -15.9919   20.7810 C   0  0  1  0  0  0
  -28.6453  -22.6592   20.5938 N   0  0  0  0  0  0
  -30.1461  -24.1503   19.7153 O   0  0  0  0  0  0
  -31.2317  -17.0811   18.5832 O   0  0  0  0  0  0
  -32.0937  -17.7424   20.8648 O   0  0  0  0  0  0
  -29.6383  -20.0931   21.2180 S   0  0  0  0  0  0
  -30.9488  -17.4342   19.9881 S   0  0  0  0  0  0
  -31.4606  -12.4520   19.1463 H   0  0  0  0  0  0
  -30.3196  -11.3805   19.9062 H   0  0  0  0  0  0
  -29.7566  -11.7286   17.4775 H   0  0  0  0  0  0
  -29.6562  -13.4519   17.7303 H   0  0  0  0  0  0
  -27.8488  -11.2907   18.8603 H   0  0  0  0  0  0
  -27.3715  -12.5705   17.7757 H   0  0  0  0  0  0
  -27.6504  -14.2548   19.4835 H   0  0  0  0  0  0
  -28.6890  -12.1042   21.3887 H   0  0  0  0  0  0
  -28.4320  -13.7752   21.7940 H   0  0  0  0  0  0
  -25.2772   -9.5664   22.4751 H   0  0  0  0  0  0
  -23.9980   -7.4635   22.7485 H   0  0  0  0  0  0
  -21.0847   -8.8773   19.8954 H   0  0  0  0  0  0
  -22.3710  -10.9663   19.6156 H   0  0  0  0  0  0
  -21.1996   -7.6144   23.9707 H   0  0  0  0  0  0
  -21.1479   -6.0527   25.9071 H   0  0  0  0  0  0
  -22.0600   -2.7609   23.2839 H   0  0  0  0  0  0
  -22.4081  -11.9839   22.4776 H   0  0  0  0  0  0
  -21.1089  -13.1215   22.2640 H   0  0  0  0  0  0
  -24.6568  -15.8461   20.5374 H   0  0  0  0  0  0
  -26.2567  -15.6301   20.0445 H   0  0  0  0  0  0
  -26.7215  -32.5468   23.1139 H   0  0  0  0  0  0
  -25.0309  -33.9750   25.0601 H   0  0  0  0  0  0
  -22.7098  -31.3229   21.4234 H   0  0  0  0  0  0
  -23.3761  -35.9584   23.3301 H   0  0  0  0  0  0
  -24.3578  -36.8865   22.2045 H   0  0  0  0  0  0
  -23.7192  -37.6458   23.6636 H   0  0  0  0  0  0
  -26.0936  -31.5742   20.6134 H   0  0  0  0  0  0
  -26.8443  -30.8464   22.0025 H   0  0  0  0  0  0
  -28.1176  -28.9991   21.1630 H   0  0  0  0  0  0
  -25.8829  -26.0126   18.9281 H   0  0  0  0  0  0
  -23.9388  -27.3706   18.9948 H   0  0  0  0  0  0
  -23.7552  -30.6423   19.4193 H   0  0  0  0  0  0
  -22.7435  -29.2964   19.8486 H   0  0  0  0  0  0
  -25.1272  -36.1927   25.0826 H   0  0  0  0  0  0
  -21.0013  -28.3285   24.1379 H   0  0  0  0  0  0
  -20.5727  -26.2306   23.3607 H   0  0  0  0  0  0
  -21.6652  -26.7466   22.1156 H   0  0  0  0  0  0
  -19.6902  -25.6307   21.1239 H   0  0  0  0  0  0
  -19.6692  -27.3223   20.6770 H   0  0  0  0  0  0
  -17.4207  -26.6746   21.4014 H   0  0  0  0  0  0
  -18.0296  -26.0102   22.9010 H   0  0  0  0  0  0
  -19.7951  -30.7313   24.2236 H   0  0  0  0  0  0
  -17.5031  -31.6271   24.5202 H   0  0  0  0  0  0
  -15.5366  -30.3015   23.7673 H   0  0  0  0  0  0
  -15.8683  -28.0859   22.7054 H   0  0  0  0  0  0
  -24.6022  -30.6978   25.7882 H   0  0  0  0  0  0
  -24.8903  -32.2891   26.4826 H   0  0  0  0  0  0
  -25.8154  -30.9029   27.0309 H   0  0  0  0  0  0
  -26.2912  -29.6793   24.1214 H   0  0  0  0  0  0
  -27.4136  -29.7271   25.4608 H   0  0  0  0  0  0
  -27.8761  -30.4348   23.9335 H   0  0  0  0  0  0
  -27.2686  -33.3660   26.2046 H   0  0  0  0  0  0
  -28.3967  -32.6800   25.0429 H   0  0  0  0  0  0
  -28.0659  -31.8473   26.5532 H   0  0  0  0  0  0
  -28.2568  -38.0102   24.7564 H   0  0  0  0  0  0
  -28.1069  -36.2637   24.6241 H   0  0  0  0  0  0
  -27.2298  -37.1368   25.8873 H   0  0  0  0  0  0
  -20.9353  -29.8855   21.6947 H   0  0  0  0  0  0
  -26.0132  -38.2859   24.1511 H   0  0  0  0  0  0
  -29.1902  -21.6865   17.9928 H   0  0  0  0  0  0
  -30.0474  -19.2983   17.7165 H   0  0  0  0  0  0
  -29.4623  -17.2599   22.4723 H   0  0  0  0  0  0
  -30.8342  -16.2110   22.7804 H   0  0  0  0  0  0
  -29.2010  -15.5586   22.7885 H   0  0  0  0  0  0
  -27.4072  -21.5416   21.9493 H   0  0  0  0  0  0
  -26.5802  -22.7797   21.0587 H   0  0  0  0  0  0
  -27.6645  -23.2179   22.3918 H   0  0  0  0  0  0
  -27.1242  -24.8859   20.7596 H   0  0  0  0  0  0
  -27.5160  -24.8484   19.0385 H   0  0  0  0  0  0
  -29.0014  -16.0016   20.3143 H   0  0  0  0  0  0
  1 25  1  0  0  0
  1 30  2  0  0  0
  1 79  1  0  0  0
  2  3  1  0  0  0
  2 25  1  0  0  0
  2 86  1  0  0  0
  2 87  1  0  0  0
  3  4  1  0  0  0
  3 88  1  0  0  0
  3 89  1  0  0  0
  4  5  1  0  0  0
  4 90  1  0  0  0
  4 91  1  0  0  0
  5  6  1  0  0  0
  5 26  1  0  0  0
  5 92  1  0  0  0
  6 25  1  0  0  0
  6 93  1  0  0  0
  6 94  1  0  0  0
  7  8  2  0  0  0
  7 26  1  0  0  0
  7 29  1  0  0  0
  8  9  1  0  0  0
  8 22  1  0  0  0
  9 10  1  0  0  0
  9 27  2  0  0  0
 10 11  2  0  0  0
 10 15  1  0  0  0
 11 12  1  0  0  0
 11 95  1  0  0  0
 12 13  2  0  0  0
 12 96  1  0  0  0
 13 14  1  0  0  0
 13 31  1  0  0  0
 14 15  2  0  0  0
 14 97  1  0  0  0
 15 98  1  0  0  0
 16 17  2  0  0  0
 16 21  1  0  0  0
 16 31  1  0  0  0
 17 18  1  0  0  0
 17 99  1  0  0  0
 18 19  2  0  0  0
 18100  1  0  0  0
 19 20  1  0  0  0
 19 24  1  0  0  0
 20 21  2  0  0  0
 20101  1  0  0  0
 21 23  1  0  0  0
 22 28  1  0  0  0
 22 32  2  0  0  0
 26 27  1  0  0  0
 28102  1  0  0  0
 28103  1  0  0  0
 29104  1  0  0  0
 29105  1  0  0  0
 33 34  1  0  0  0
 33 66  1  0  0  0
 33 70  2  0  0  0
 34 36  1  0  0  0
 34 59  1  0  0  0
 34106  1  0  0  0
 35 44  2  0  0  0
 35 45  1  0  0  0
 35 68  1  0  0  0
 36 56  1  0  0  0
 36107  1  0  0  0
 37 39  1  0  0  0
 37 47  1  0  0  0
 37 66  1  0  0  0
 37108  1  0  0  0
 38 43  2  0  0  0
 38 46  1  0  0  0
 38 47  1  0  0  0
 39 64  1  0  0  0
 39 67  2  0  0  0
 40 52  1  0  0  0
 40 53  2  0  0  0
 40 58  1  0  0  0
 41109  1  0  0  0
 41110  1  0  0  0
 41111  1  0  0  0
 41 48  1  0  0  0
 42 43  1  0  0  0
 42 66  1  0  0  0
 42112  1  0  0  0
 42113  1  0  0  0
 43 44  1  0  0  0
 44114  1  0  0  0
 45 46  2  0  0  0
 45115  1  0  0  0
 46116  1  0  0  0
 47117  1  0  0  0
 47118  1  0  0  0
 48 56  1  0  0  0
 48 65  1  0  0  0
 48119  1  0  0  0
 49 50  1  0  0  0
 49 53  1  0  0  0
 49 64  1  0  0  0
 49120  1  0  0  0
 50 51  1  0  0  0
 50121  1  0  0  0
 50122  1  0  0  0
 51 52  1  0  0  0
 51123  1  0  0  0
 51124  1  0  0  0
 52125  1  0  0  0
 52126  1  0  0  0
 53 54  1  0  0  0
 54 55  2  0  0  0
 54127  1  0  0  0
 55 57  1  0  0  0
 55128  1  0  0  0
 56 69  2  0  0  0
 57 58  2  0  0  0
 57129  1  0  0  0
 58130  1  0  0  0
 59 60  1  0  0  0
 59 61  1  0  0  0
 59 62  1  0  0  0
 60131  1  0  0  0
 60132  1  0  0  0
 60133  1  0  0  0
 61134  1  0  0  0
 61135  1  0  0  0
 61136  1  0  0  0
 62137  1  0  0  0
 62138  1  0  0  0
 62139  1  0  0  0
 63 65  1  0  0  0
 63140  1  0  0  0
 63141  1  0  0  0
 63142  1  0  0  0
 64143  1  0  0  0
 65144  1  0  0  0
 68 78  1  0  0  0
 71 72  1  0  0  0
 71 73  2  0  0  0
 71145  1  0  0  0
 72 74  2  0  0  0
 72146  1  0  0  0
 73 80  1  0  0  0
 73 84  1  0  0  0
 74 84  1  0  0  0
 74 85  1  0  0  0
 75 78  1  0  0  0
 75 80  1  0  0  0
 75 81  2  0  0  0
 76147  1  0  0  0
 76148  1  0  0  0
 76149  1  0  0  0
 76 79  1  0  0  0
 77 80  1  0  0  0
 77150  1  0  0  0
 77151  1  0  0  0
 77152  1  0  0  0
 78153  1  0  0  0
 78154  1  0  0  0
 79 85  1  0  0  0
 79155  1  0  0  0
 82 85  2  0  0  0
 83 85  2  0  0  0
M  ISO  4   1 100  68 101  78 101  79 100
M  END
> <chiral flag>
0

> <version>
0

> <s_m_source_file>
/data/baiqing/PycharmProjects/Reinvent-master-3.2/result/LINK_invent/BTK/process_docking_weight1_custom_product_contain_oxygen_bond_distance_aromatic_linkinvent_7_9_3/rearranged_h_0098.sdf

> <i_m_source_file_index>
64

> <r_mmod_Potential_Energy-OPLS-2005>
38.4501609802246

> <r_mmod_Stretch_Energy-OPLS-2005>
71.804443359375

> <r_mmod_Bend_Energy-OPLS-2005>
148.254776000977

> <r_mmod_Torsional_Energy-OPLS-2005>
245.740859985352

> <r_mmod_Improper_Torsional_Energy-OPLS-2005>
6.19276571273804

> <r_mmod_Van_der_Waal_Energy-OPLS-2005>
137.801422119141

> <r_mmod_Electrostatic_Energy-OPLS-2005>
-336.503967285156

> <r_mmod_Solvation_Energy-OPLS-2005>
-280.544708251953

> <b_mmod_Minimization_Converged-OPLS-2005>
0

> <r_mmod_RMS_Derivative-OPLS-2005>
2.73224329948425

$$$$
64
                    3D
 Structure written by MMmdl.
154162  0  0  1  0            999 V2000
  -30.7075  -14.6322   20.5251 C   0  0  0  0  0  0
  -30.4173  -12.4141   19.4362 C   0  0  0  0  0  0
  -29.4875  -12.5072   18.2098 C   0  0  0  0  0  0
  -28.0194  -12.3331   18.6407 C   0  0  0  0  0  0
  -27.6434  -13.2299   19.8522 C   0  0  2  0  0  0
  -28.6972  -13.1462   20.9789 C   0  0  0  0  0  0
  -25.2534  -13.8217   20.5715 C   0  0  0  0  0  0
  -24.1815  -13.0446   20.9228 C   0  0  0  0  0  0
  -24.6409  -11.6932   20.8767 C   0  0  0  0  0  0
  -23.9091  -10.4298   21.0414 C   0  0  0  0  0  0
  -24.3630   -9.4212   21.9191 C   0  0  0  0  0  0
  -23.6301   -8.2255   22.0765 C   0  0  0  0  0  0
  -22.4284   -8.0297   21.3558 C   0  0  0  0  0  0
  -21.9923   -9.0272   20.4657 C   0  0  0  0  0  0
  -22.7266  -10.2147   20.3069 C   0  0  0  0  0  0
  -21.6845   -6.0745   22.5282 C   0  0  0  0  0  0
  -21.4005   -6.5646   23.8214 C   0  0  0  0  0  0
  -21.3660   -5.6803   24.9173 C   0  0  0  0  0  0
  -21.6037   -4.3062   24.7226 C   0  0  0  0  0  0
  -21.8820   -3.8156   23.4343 C   0  0  0  0  0  0
  -21.9193   -4.6973   22.3400 C   0  0  0  0  0  0
  -22.7838  -13.5227   21.1873 C   0  0  0  0  0  0
  -22.1665   -4.2160   21.0980 F   0  0  0  0  0  0
  -21.5629   -3.4549   25.7740 F   0  0  0  0  0  0
  -29.9982  -13.4675   20.3831 N   0  0  0  0  0  0
  -26.2955  -12.9416   20.3323 N   0  0  0  0  0  0
  -25.9341  -11.6556   20.5778 N   0  0  0  0  0  0
  -22.0499  -12.8194   22.0436 N   0  0  0  0  0  0
  -25.4225  -15.1934   20.4145 N   0  0  0  0  0  0
  -31.9009  -14.6573   20.2174 O   0  0  0  0  0  0
  -21.6645   -6.8900   21.4250 O   0  0  0  0  0  0
  -22.3521  -14.5535   20.6749 O   0  0  0  0  0  0
  -24.6289  -31.8553   23.1989 C   0  0  0  0  0  0
  -25.9108  -32.4766   23.8331 C   0  0  1  0  0  0
  -27.2348  -27.2916   20.1029 C   0  0  0  0  0  0
  -25.5883  -33.8565   24.2237 N   0  0  0  0  0  0
  -23.4260  -30.4766   21.5426 C   0  0  2  0  0  0
  -24.8775  -28.9289   20.1095 C   0  0  0  0  0  0
  -22.7495  -29.4610   22.4944 C   0  0  0  0  0  0
  -18.0274  -28.1409   22.8476 C   0  0  0  0  0  0
  -24.1474  -36.7301   23.2640 C   0  0  0  0  0  0
  -25.9697  -30.7702   21.3825 C   0  0  0  0  0  0
  -26.0457  -29.3945   20.7268 C   0  0  0  0  0  0
  -27.2241  -28.5826   20.7238 C   0  0  0  0  0  0
  -26.0440  -26.8986   19.4466 C   0  0  0  0  0  0
  -24.8787  -27.6873   19.4615 C   0  0  0  0  0  0
  -23.6423  -29.8081   20.1599 C   0  0  0  0  0  0
  -25.4099  -36.3075   24.0321 C   0  0  1  0  0  0
  -20.5882  -28.3716   23.1283 C   0  0  2  0  0  0
  -20.6783  -26.9449   22.5411 C   0  0  0  0  0  0
  -19.5750  -26.6403   21.5225 C   0  0  0  0  0  0
  -18.1911  -26.7943   22.1629 C   0  0  0  0  0  0
  -19.1537  -28.8882   23.2859 C   0  0  0  0  0  0
  -18.9460  -30.1463   23.8900 C   0  0  0  0  0  0
  -17.6470  -30.6617   24.0569 C   0  0  0  0  0  0
  -25.9046  -34.9448   23.5085 C   0  0  0  0  0  0
  -16.5350  -29.9125   23.6340 C   0  0  0  0  0  0
  -16.7268  -28.6538   23.0375 C   0  0  0  0  0  0
  -26.4487  -31.6601   25.0719 C   0  0  0  0  0  0
  -25.3709  -31.3737   26.1438 C   0  0  0  0  0  0
  -27.0350  -30.3011   24.6228 C   0  0  0  0  0  0
  -27.6033  -32.4357   25.7489 C   0  0  0  0  0  0
  -27.5570  -37.1787   24.8445 C   0  0  0  0  0  0
  -21.4211  -29.3043   22.3678 N   0  0  0  0  0  0
  -26.4266  -37.3776   23.9414 N   0  0  0  0  0  0
  -24.6922  -31.0507   22.0987 N   0  0  0  0  0  0
  -23.4190  -28.8166   23.3055 O   0  0  0  0  0  0
  -28.3517  -26.4269   20.1541 O   0  0  0  0  0  0
  -26.5659  -34.8925   22.4683 O   0  0  0  0  0  0
  -23.5428  -32.1382   23.7282 O   0  0  0  0  0  0
  -29.2323  -20.0915   19.0822 C   0  0  0  0  0  0
  -29.6792  -20.8115   21.3219 C   0  0  0  0  0  0
  -29.9728  -18.3819   20.7399 C   0  0  0  0  0  0
  -29.5648  -18.7367   19.4158 C   0  0  0  0  0  0
  -29.2907  -21.1726   20.0076 C   0  0  0  0  0  0
  -29.9986  -19.4639   21.6786 C   0  0  0  0  0  0
  -30.5813  -17.0057   21.1168 C   0  0  0  0  0  0
  -29.5119  -17.6935   18.3021 C   0  0  0  0  0  0
  -29.2060  -23.8435   20.1873 C   0  0  0  0  0  0
  -28.2042  -25.0075   19.7225 C   0  0  0  0  0  0
  -28.9348  -22.4984   19.5682 N   0  0  0  0  0  0
  -30.0219  -15.8035   20.7484 N   0  0  0  0  0  0
  -31.6176  -17.0309   21.7944 O   0  0  0  0  0  0
  -30.3542  -19.2289   22.9658 F   0  0  0  0  0  0
  -31.4553  -12.5194   19.1169 H   0  0  0  0  0  0
  -30.3463  -11.4317   19.9045 H   0  0  0  0  0  0
  -29.7540  -11.7482   17.4730 H   0  0  0  0  0  0
  -29.6148  -13.4709   17.7164 H   0  0  0  0  0  0
  -27.8789  -11.2849   18.9001 H   0  0  0  0  0  0
  -27.3500  -12.5280   17.8019 H   0  0  0  0  0  0
  -27.6442  -14.2547   19.4835 H   0  0  0  0  0  0
  -28.7198  -12.1473   21.4165 H   0  0  0  0  0  0
  -28.4527  -13.8339   21.7908 H   0  0  0  0  0  0
  -25.2765   -9.5674   22.4776 H   0  0  0  0  0  0
  -24.0001   -7.4638   22.7486 H   0  0  0  0  0  0
  -21.0851   -8.8803   19.8957 H   0  0  0  0  0  0
  -22.3729  -10.9699   19.6188 H   0  0  0  0  0  0
  -21.2001   -7.6154   23.9716 H   0  0  0  0  0  0
  -21.1475   -6.0534   25.9079 H   0  0  0  0  0  0
  -22.0596   -2.7618   23.2844 H   0  0  0  0  0  0
  -22.4123  -11.9817   22.4733 H   0  0  0  0  0  0
  -21.1148  -13.1234   22.2731 H   0  0  0  0  0  0
  -24.6531  -15.8460   20.5216 H   0  0  0  0  0  0
  -26.2712  -15.6343   20.0834 H   0  0  0  0  0  0
  -26.7197  -32.5431   23.1103 H   0  0  0  0  0  0
  -24.9940  -33.9679   25.0323 H   0  0  0  0  0  0
  -22.7205  -31.2970   21.3971 H   0  0  0  0  0  0
  -23.3732  -35.9633   23.3272 H   0  0  0  0  0  0
  -24.3541  -36.8974   22.2058 H   0  0  0  0  0  0
  -23.7237  -37.6476   23.6729 H   0  0  0  0  0  0
  -26.0971  -31.5257   20.6062 H   0  0  0  0  0  0
  -26.8497  -30.8226   22.0123 H   0  0  0  0  0  0
  -28.1143  -28.9219   21.2329 H   0  0  0  0  0  0
  -25.9757  -25.9668   18.9069 H   0  0  0  0  0  0
  -23.9920  -27.3290   18.9567 H   0  0  0  0  0  0
  -23.7520  -30.5784   19.3950 H   0  0  0  0  0  0
  -22.7633  -29.2304   19.8680 H   0  0  0  0  0  0
  -25.1283  -36.1894   25.0809 H   0  0  0  0  0  0
  -20.9960  -28.3345   24.1427 H   0  0  0  0  0  0
  -20.5735  -26.2338   23.3614 H   0  0  0  0  0  0
  -21.6642  -26.7524   22.1185 H   0  0  0  0  0  0
  -19.6922  -25.6310   21.1273 H   0  0  0  0  0  0
  -19.6681  -27.3205   20.6746 H   0  0  0  0  0  0
  -17.4182  -26.6661   21.4040 H   0  0  0  0  0  0
  -18.0308  -26.0093   22.9038 H   0  0  0  0  0  0
  -19.7942  -30.7243   24.2314 H   0  0  0  0  0  0
  -17.5040  -31.6319   24.5149 H   0  0  0  0  0  0
  -15.5363  -30.3053   23.7675 H   0  0  0  0  0  0
  -15.8645  -28.0875   22.7135 H   0  0  0  0  0  0
  -24.5899  -30.7084   25.7745 H   0  0  0  0  0  0
  -24.8883  -32.2887   26.4882 H   0  0  0  0  0  0
  -25.8003  -30.8895   27.0219 H   0  0  0  0  0  0
  -26.2941  -29.6726   24.1278 H   0  0  0  0  0  0
  -27.4029  -29.7308   25.4763 H   0  0  0  0  0  0
  -27.8826  -30.4247   23.9484 H   0  0  0  0  0  0
  -27.2678  -33.3724   26.1973 H   0  0  0  0  0  0
  -28.3919  -32.6815   25.0360 H   0  0  0  0  0  0
  -28.0631  -31.8529   26.5483 H   0  0  0  0  0  0
  -28.2556  -38.0117   24.7557 H   0  0  0  0  0  0
  -28.1108  -36.2643   24.6223 H   0  0  0  0  0  0
  -27.2275  -37.1393   25.8841 H   0  0  0  0  0  0
  -20.9420  -29.8712   21.6837 H   0  0  0  0  0  0
  -26.0137  -38.2841   24.1447 H   0  0  0  0  0  0
  -28.9467  -20.3013   18.0615 H   0  0  0  0  0  0
  -29.7422  -21.5698   22.0876 H   0  0  0  0  0  0
  -29.2242  -18.1355   17.3481 H   0  0  0  0  0  0
  -28.7725  -16.9271   18.5379 H   0  0  0  0  0  0
  -30.4788  -17.2055   18.1604 H   0  0  0  0  0  0
  -29.2142  -23.7642   21.2759 H   0  0  0  0  0  0
  -30.2186  -24.1321   19.8935 H   0  0  0  0  0  0
  -27.2153  -24.6442   20.0066 H   0  0  0  0  0  0
  -28.2294  -25.0297   18.6309 H   0  0  0  0  0  0
  -28.6368  -22.5587   18.5961 H   0  0  0  0  0  0
  -29.0390  -15.7995   20.5433 H   0  0  0  0  0  0
  1 25  1  0  0  0
  1 30  2  0  0  0
  1 82  1  0  0  0
  2  3  1  0  0  0
  2 25  1  0  0  0
  2 85  1  0  0  0
  2 86  1  0  0  0
  3  4  1  0  0  0
  3 87  1  0  0  0
  3 88  1  0  0  0
  4  5  1  0  0  0
  4 89  1  0  0  0
  4 90  1  0  0  0
  5  6  1  0  0  0
  5 26  1  0  0  0
  5 91  1  0  0  0
  6 25  1  0  0  0
  6 92  1  0  0  0
  6 93  1  0  0  0
  7  8  2  0  0  0
  7 26  1  0  0  0
  7 29  1  0  0  0
  8  9  1  0  0  0
  8 22  1  0  0  0
  9 10  1  0  0  0
  9 27  2  0  0  0
 10 11  2  0  0  0
 10 15  1  0  0  0
 11 12  1  0  0  0
 11 94  1  0  0  0
 12 13  2  0  0  0
 12 95  1  0  0  0
 13 14  1  0  0  0
 13 31  1  0  0  0
 14 15  2  0  0  0
 14 96  1  0  0  0
 15 97  1  0  0  0
 16 17  2  0  0  0
 16 21  1  0  0  0
 16 31  1  0  0  0
 17 18  1  0  0  0
 17 98  1  0  0  0
 18 19  2  0  0  0
 18 99  1  0  0  0
 19 20  1  0  0  0
 19 24  1  0  0  0
 20 21  2  0  0  0
 20100  1  0  0  0
 21 23  1  0  0  0
 22 28  1  0  0  0
 22 32  2  0  0  0
 26 27  1  0  0  0
 28101  1  0  0  0
 28102  1  0  0  0
 29103  1  0  0  0
 29104  1  0  0  0
 33 34  1  0  0  0
 33 66  1  0  0  0
 33 70  2  0  0  0
 34 36  1  0  0  0
 34 59  1  0  0  0
 34105  1  0  0  0
 35 44  2  0  0  0
 35 45  1  0  0  0
 35 68  1  0  0  0
 36 56  1  0  0  0
 36106  1  0  0  0
 37 39  1  0  0  0
 37 47  1  0  0  0
 37 66  1  0  0  0
 37107  1  0  0  0
 38 43  2  0  0  0
 38 46  1  0  0  0
 38 47  1  0  0  0
 39 64  1  0  0  0
 39 67  2  0  0  0
 40 52  1  0  0  0
 40 53  2  0  0  0
 40 58  1  0  0  0
 41108  1  0  0  0
 41109  1  0  0  0
 41110  1  0  0  0
 41 48  1  0  0  0
 42 43  1  0  0  0
 42 66  1  0  0  0
 42111  1  0  0  0
 42112  1  0  0  0
 43 44  1  0  0  0
 44113  1  0  0  0
 45 46  2  0  0  0
 45114  1  0  0  0
 46115  1  0  0  0
 47116  1  0  0  0
 47117  1  0  0  0
 48 56  1  0  0  0
 48 65  1  0  0  0
 48118  1  0  0  0
 49 50  1  0  0  0
 49 53  1  0  0  0
 49 64  1  0  0  0
 49119  1  0  0  0
 50 51  1  0  0  0
 50120  1  0  0  0
 50121  1  0  0  0
 51 52  1  0  0  0
 51122  1  0  0  0
 51123  1  0  0  0
 52124  1  0  0  0
 52125  1  0  0  0
 53 54  1  0  0  0
 54 55  2  0  0  0
 54126  1  0  0  0
 55 57  1  0  0  0
 55127  1  0  0  0
 56 69  2  0  0  0
 57 58  2  0  0  0
 57128  1  0  0  0
 58129  1  0  0  0
 59 60  1  0  0  0
 59 61  1  0  0  0
 59 62  1  0  0  0
 60130  1  0  0  0
 60131  1  0  0  0
 60132  1  0  0  0
 61133  1  0  0  0
 61134  1  0  0  0
 61135  1  0  0  0
 62136  1  0  0  0
 62137  1  0  0  0
 62138  1  0  0  0
 63 65  1  0  0  0
 63139  1  0  0  0
 63140  1  0  0  0
 63141  1  0  0  0
 64142  1  0  0  0
 65143  1  0  0  0
 68 80  1  0  0  0
 71 74  2  0  0  0
 71 75  1  0  0  0
 71144  1  0  0  0
 72 75  2  0  0  0
 72 76  1  0  0  0
 72145  1  0  0  0
 73 74  1  0  0  0
 73 76  2  0  0  0
 73 77  1  0  0  0
 74 78  1  0  0  0
 75 81  1  0  0  0
 76 84  1  0  0  0
 77 82  1  0  0  0
 77 83  2  0  0  0
 78146  1  0  0  0
 78147  1  0  0  0
 78148  1  0  0  0
 79 80  1  0  0  0
 79 81  1  0  0  0
 79149  1  0  0  0
 79150  1  0  0  0
 80151  1  0  0  0
 80152  1  0  0  0
 81153  1  0  0  0
 82154  1  0  0  0
M  ISO  4   1 100  68 101  80 101  82 100
M  END
> <chiral flag>
0

> <version>
0

> <s_m_source_file>
/data/baiqing/PycharmProjects/Reinvent-master-3.2/result/LINK_invent/BTK/process_docking_weight1_custom_product_contain_oxygen_bond_distance_aromatic_linkinvent_7_9_3/rearranged_h_0098.sdf

> <i_m_source_file_index>
65

> <r_mmod_Potential_Energy-OPLS-2005>
125.962707519531

> <r_mmod_Stretch_Energy-OPLS-2005>
88.2909393310547

> <r_mmod_Bend_Energy-OPLS-2005>
164.829193115234

> <r_mmod_Torsional_Energy-OPLS-2005>
232.445175170898

> <r_mmod_Improper_Torsional_Energy-OPLS-2005>
7.8315486907959

> <r_mmod_Van_der_Waal_Energy-OPLS-2005>
153.54670715332

> <r_mmod_Electrostatic_Energy-OPLS-2005>
-343.754821777344

> <r_mmod_Solvation_Energy-OPLS-2005>
-237.204284667969

> <b_mmod_Minimization_Converged-OPLS-2005>
0

> <r_mmod_RMS_Derivative-OPLS-2005>
4.08067464828491

$$$$
65
                    3D
 Structure written by MMmdl.
165174  0  0  1  0            999 V2000
  -30.7243  -14.4778   20.5793 C   0  0  0  0  0  0
  -30.4220  -12.3172   19.4200 C   0  0  0  0  0  0
  -29.4934  -12.5084   18.2043 C   0  0  0  0  0  0
  -28.0154  -12.3681   18.6192 C   0  0  0  0  0  0
  -27.6605  -13.2121   19.8720 C   0  0  2  0  0  0
  -28.7056  -13.0103   20.9931 C   0  0  0  0  0  0
  -25.2585  -13.8162   20.5693 C   0  0  0  0  0  0
  -24.1838  -13.0435   20.9179 C   0  0  0  0  0  0
  -24.6394  -11.6903   20.8718 C   0  0  0  0  0  0
  -23.9061  -10.4286   21.0390 C   0  0  0  0  0  0
  -24.3608   -9.4206   21.9173 C   0  0  0  0  0  0
  -23.6287   -8.2238   22.0747 C   0  0  0  0  0  0
  -22.4271   -8.0270   21.3542 C   0  0  0  0  0  0
  -21.9905   -9.0243   20.4643 C   0  0  0  0  0  0
  -22.7229  -10.2125   20.3046 C   0  0  0  0  0  0
  -21.6854   -6.0728   22.5281 C   0  0  0  0  0  0
  -21.4011   -6.5629   23.8212 C   0  0  0  0  0  0
  -21.3655   -5.6784   24.9174 C   0  0  0  0  0  0
  -21.6042   -4.3046   24.7226 C   0  0  0  0  0  0
  -21.8818   -3.8139   23.4345 C   0  0  0  0  0  0
  -21.9195   -4.6957   22.3405 C   0  0  0  0  0  0
  -22.7863  -13.5238   21.1840 C   0  0  0  0  0  0
  -22.1669   -4.2146   21.0980 F   0  0  0  0  0  0
  -21.5626   -3.4529   25.7740 F   0  0  0  0  0  0
  -30.0345  -13.3116   20.4340 N   0  0  0  0  0  0
  -26.3024  -12.9349   20.3362 N   0  0  0  0  0  0
  -25.9326  -11.6500   20.5749 N   0  0  0  0  0  0
  -22.0489  -12.8232   22.0390 N   0  0  0  0  0  0
  -25.4298  -15.1883   20.4105 N   0  0  0  0  0  0
  -31.8542  -14.6379   20.1112 O   0  0  0  0  0  0
  -21.6637   -6.8870   21.4241 O   0  0  0  0  0  0
  -22.3561  -14.5552   20.6696 O   0  0  0  0  0  0
  -24.6180  -31.8678   23.2116 C   0  0  0  0  0  0
  -25.9076  -32.4812   23.8402 C   0  0  1  0  0  0
  -27.2180  -27.4100   20.0873 C   0  0  0  0  0  0
  -25.5940  -33.8608   24.2339 N   0  0  0  0  0  0
  -23.4049  -30.4973   21.5532 C   0  0  2  0  0  0
  -24.8471  -28.9735   20.1086 C   0  0  0  0  0  0
  -22.7430  -29.4663   22.4965 C   0  0  0  0  0  0
  -18.0273  -28.1377   22.8475 C   0  0  0  0  0  0
  -24.1488  -36.7294   23.2623 C   0  0  0  0  0  0
  -25.9395  -30.8276   21.3694 C   0  0  0  0  0  0
  -26.0135  -29.4641   20.7093 C   0  0  0  0  0  0
  -27.2034  -28.6915   20.6955 C   0  0  0  0  0  0
  -26.0295  -26.9619   19.4574 C   0  0  0  0  0  0
  -24.8520  -27.7229   19.4783 C   0  0  0  0  0  0
  -23.6122  -29.8419   20.1634 C   0  0  0  0  0  0
  -25.4093  -36.3093   24.0342 C   0  0  1  0  0  0
  -20.5869  -28.3669   23.1304 C   0  0  2  0  0  0
  -20.6765  -26.9405   22.5404 C   0  0  0  0  0  0
  -19.5749  -26.6392   21.5193 C   0  0  0  0  0  0
  -18.1926  -26.7924   22.1606 C   0  0  0  0  0  0
  -19.1524  -28.8837   23.2888 C   0  0  0  0  0  0
  -18.9454  -30.1441   23.8899 C   0  0  0  0  0  0
  -17.6457  -30.6583   24.0558 C   0  0  0  0  0  0
  -25.9042  -34.9466   23.5130 C   0  0  0  0  0  0
  -16.5344  -29.9084   23.6329 C   0  0  0  0  0  0
  -16.7261  -28.6502   23.0344 C   0  0  0  0  0  0
  -26.4496  -31.6574   25.0725 C   0  0  0  0  0  0
  -25.3769  -31.3681   26.1478 C   0  0  0  0  0  0
  -27.0301  -30.3009   24.6088 C   0  0  0  0  0  0
  -27.6082  -32.4274   25.7490 C   0  0  0  0  0  0
  -27.5602  -37.1760   24.8432 C   0  0  0  0  0  0
  -21.4152  -29.3038   22.3717 N   0  0  0  0  0  0
  -26.4260  -37.3807   23.9463 N   0  0  0  0  0  0
  -24.6729  -31.0775   22.1025 N   0  0  0  0  0  0
  -23.4197  -28.8181   23.2997 O   0  0  0  0  0  0
  -28.3522  -26.6059   20.1386 O   0  0  0  0  0  0
  -26.5600  -34.8925   22.4686 O   0  0  0  0  0  0
  -23.5372  -32.1435   23.7506 O   0  0  0  0  0  0
  -31.2840  -19.5216   21.9033 C   0  0  0  0  0  0
  -29.6111  -17.9408   21.1037 C   0  0  0  0  0  0
  -31.7808  -17.1266   21.8446 C   0  0  0  0  0  0
  -29.9920  -19.2854   21.3776 C   0  0  0  0  0  0
  -32.1765  -18.4520   22.1206 C   0  0  0  0  0  0
  -30.4900  -16.8517   21.3351 C   0  0  0  0  0  0
  -30.1518  -23.6177   19.6312 C   0  0  0  0  0  0
  -30.4795  -22.1855   20.1228 C   0  0  0  0  0  0
  -28.4685  -22.9007   21.1420 C   0  0  0  0  0  0
  -29.1382  -24.1917   20.6312 C   0  0  2  0  0  0
  -27.8152  -20.2344   22.1898 C   0  0  0  0  0  0
  -28.0912  -25.1831   20.0468 C   0  0  0  0  0  0
  -28.9610  -20.4214   21.1679 C   0  0  1  0  0  0
  -33.4512  -18.7069   22.6231 N   0  0  0  0  0  0
  -30.0350  -15.5071   21.1195 N   0  0  0  0  0  0
  -29.4997  -21.8315   21.1836 N   0  3  1  0  0  0
  -31.4654  -12.4118   19.1133 H   0  0  0  0  0  0
  -30.3215  -11.3090   19.8246 H   0  0  0  0  0  0
  -29.7336  -11.7814   17.4275 H   0  0  0  0  0  0
  -29.6614  -13.4925   17.7632 H   0  0  0  0  0  0
  -27.8266  -11.3127   18.8192 H   0  0  0  0  0  0
  -27.3653  -12.6410   17.7866 H   0  0  0  0  0  0
  -27.6994  -14.2580   19.5656 H   0  0  0  0  0  0
  -28.6841  -11.9801   21.3525 H   0  0  0  0  0  0
  -28.4678  -13.6278   21.8604 H   0  0  0  0  0  0
  -25.2748   -9.5693   22.4750 H   0  0  0  0  0  0
  -23.9996   -7.4638   22.7469 H   0  0  0  0  0  0
  -21.0836   -8.8755   19.8957 H   0  0  0  0  0  0
  -22.3674  -10.9655   19.6151 H   0  0  0  0  0  0
  -21.2000   -7.6140   23.9709 H   0  0  0  0  0  0
  -21.1476   -6.0514   25.9076 H   0  0  0  0  0  0
  -22.0601   -2.7600   23.2841 H   0  0  0  0  0  0
  -22.4076  -11.9878   22.4773 H   0  0  0  0  0  0
  -21.1109  -13.1272   22.2585 H   0  0  0  0  0  0
  -24.6607  -15.8418   20.5126 H   0  0  0  0  0  0
  -26.2797  -15.6245   20.0782 H   0  0  0  0  0  0
  -26.7138  -32.5518   23.1159 H   0  0  0  0  0  0
  -25.0143  -33.9777   25.0519 H   0  0  0  0  0  0
  -22.6942  -31.3155   21.4200 H   0  0  0  0  0  0
  -23.3791  -35.9578   23.3176 H   0  0  0  0  0  0
  -24.3625  -36.9016   22.2063 H   0  0  0  0  0  0
  -23.7168  -37.6435   23.6700 H   0  0  0  0  0  0
  -26.0588  -31.5961   20.6043 H   0  0  0  0  0  0
  -26.8265  -30.8753   21.9894 H   0  0  0  0  0  0
  -28.0987  -29.0624   21.1746 H   0  0  0  0  0  0
  -25.9767  -26.0122   18.9459 H   0  0  0  0  0  0
  -23.9593  -27.3451   18.9985 H   0  0  0  0  0  0
  -23.7235  -30.6222   19.4095 H   0  0  0  0  0  0
  -22.7349  -29.2654   19.8642 H   0  0  0  0  0  0
  -25.1241  -36.1939   25.0827 H   0  0  0  0  0  0
  -20.9957  -28.3226   24.1428 H   0  0  0  0  0  0
  -20.5662  -26.2270   23.3587 H   0  0  0  0  0  0
  -21.6638  -26.7450   22.1210 H   0  0  0  0  0  0
  -19.6921  -25.6305   21.1221 H   0  0  0  0  0  0
  -19.6704  -27.3200   20.6720 H   0  0  0  0  0  0
  -17.4203  -26.6671   21.3999 H   0  0  0  0  0  0
  -18.0335  -26.0063   22.9005 H   0  0  0  0  0  0
  -19.7931  -30.7253   24.2276 H   0  0  0  0  0  0
  -17.5016  -31.6263   24.5163 H   0  0  0  0  0  0
  -15.5344  -30.2988   23.7655 H   0  0  0  0  0  0
  -15.8658  -28.0824   22.7057 H   0  0  0  0  0  0
  -24.5961  -30.7000   25.7825 H   0  0  0  0  0  0
  -24.8949  -32.2835   26.4918 H   0  0  0  0  0  0
  -25.8146  -30.8867   27.0236 H   0  0  0  0  0  0
  -26.2826  -29.6790   24.1153 H   0  0  0  0  0  0
  -27.4073  -29.7222   25.4529 H   0  0  0  0  0  0
  -27.8674  -30.4300   23.9228 H   0  0  0  0  0  0
  -27.2722  -33.3581   26.2072 H   0  0  0  0  0  0
  -28.3908  -32.6801   25.0323 H   0  0  0  0  0  0
  -28.0733  -31.8385   26.5409 H   0  0  0  0  0  0
  -28.2471  -38.0204   24.7701 H   0  0  0  0  0  0
  -28.1245  -36.2755   24.5952 H   0  0  0  0  0  0
  -27.2381  -37.1047   25.8838 H   0  0  0  0  0  0
  -20.9312  -29.8780   21.6957 H   0  0  0  0  0  0
  -26.0130  -38.2845   24.1601 H   0  0  0  0  0  0
  -31.6041  -20.5208   22.1580 H   0  0  0  0  0  0
  -28.6179  -17.7428   20.7248 H   0  0  0  0  0  0
  -32.4662  -16.3153   22.0433 H   0  0  0  0  0  0
  -29.7133  -23.5562   18.6347 H   0  0  0  0  0  0
  -31.0432  -24.2405   19.5505 H   0  0  0  0  0  0
  -31.4893  -22.1453   20.5315 H   0  0  0  0  0  0
  -30.4415  -21.4794   19.2910 H   0  0  0  0  0  0
  -27.6860  -22.6035   20.4407 H   0  0  0  0  0  0
  -27.9962  -23.0510   22.1136 H   0  0  0  0  0  0
  -29.6629  -24.6559   21.4673 H   0  0  0  0  0  0
  -27.3998  -19.2281   22.1396 H   0  0  0  0  0  0
  -26.9770  -20.9065   22.0100 H   0  0  0  0  0  0
  -28.1621  -20.3908   23.2117 H   0  0  0  0  0  0
  -27.1713  -24.9818   20.6000 H   0  0  0  0  0  0
  -27.8906  -24.9214   19.0073 H   0  0  0  0  0  0
  -28.5327  -20.2665   20.1751 H   0  0  0  0  0  0
  -33.6699  -19.6131   23.0269 H   0  0  0  0  0  0
  -34.0057  -17.9477   23.0097 H   0  0  0  0  0  0
  -29.0655  -15.3166   21.3211 H   0  0  0  0  0  0
  -29.9801  -21.9566   22.0621 H   0  0  0  0  0  0
  1 25  1  0  0  0
  1 30  2  0  0  0
  1 85  1  0  0  0
  2  3  1  0  0  0
  2 25  1  0  0  0
  2 87  1  0  0  0
  2 88  1  0  0  0
  3  4  1  0  0  0
  3 89  1  0  0  0
  3 90  1  0  0  0
  4  5  1  0  0  0
  4 91  1  0  0  0
  4 92  1  0  0  0
  5  6  1  0  0  0
  5 26  1  0  0  0
  5 93  1  0  0  0
  6 25  1  0  0  0
  6 94  1  0  0  0
  6 95  1  0  0  0
  7  8  2  0  0  0
  7 26  1  0  0  0
  7 29  1  0  0  0
  8  9  1  0  0  0
  8 22  1  0  0  0
  9 10  1  0  0  0
  9 27  2  0  0  0
 10 11  2  0  0  0
 10 15  1  0  0  0
 11 12  1  0  0  0
 11 96  1  0  0  0
 12 13  2  0  0  0
 12 97  1  0  0  0
 13 14  1  0  0  0
 13 31  1  0  0  0
 14 15  2  0  0  0
 14 98  1  0  0  0
 15 99  1  0  0  0
 16 17  2  0  0  0
 16 21  1  0  0  0
 16 31  1  0  0  0
 17 18  1  0  0  0
 17100  1  0  0  0
 18 19  2  0  0  0
 18101  1  0  0  0
 19 20  1  0  0  0
 19 24  1  0  0  0
 20 21  2  0  0  0
 20102  1  0  0  0
 21 23  1  0  0  0
 22 28  1  0  0  0
 22 32  2  0  0  0
 26 27  1  0  0  0
 28103  1  0  0  0
 28104  1  0  0  0
 29105  1  0  0  0
 29106  1  0  0  0
 33 34  1  0  0  0
 33 66  1  0  0  0
 33 70  2  0  0  0
 34 36  1  0  0  0
 34 59  1  0  0  0
 34107  1  0  0  0
 35 44  2  0  0  0
 35 45  1  0  0  0
 35 68  1  0  0  0
 36 56  1  0  0  0
 36108  1  0  0  0
 37 39  1  0  0  0
 37 47  1  0  0  0
 37 66  1  0  0  0
 37109  1  0  0  0
 38 43  2  0  0  0
 38 46  1  0  0  0
 38 47  1  0  0  0
 39 64  1  0  0  0
 39 67  2  0  0  0
 40 52  1  0  0  0
 40 53  2  0  0  0
 40 58  1  0  0  0
 41110  1  0  0  0
 41111  1  0  0  0
 41112  1  0  0  0
 41 48  1  0  0  0
 42 43  1  0  0  0
 42 66  1  0  0  0
 42113  1  0  0  0
 42114  1  0  0  0
 43 44  1  0  0  0
 44115  1  0  0  0
 45 46  2  0  0  0
 45116  1  0  0  0
 46117  1  0  0  0
 47118  1  0  0  0
 47119  1  0  0  0
 48 56  1  0  0  0
 48 65  1  0  0  0
 48120  1  0  0  0
 49 50  1  0  0  0
 49 53  1  0  0  0
 49 64  1  0  0  0
 49121  1  0  0  0
 50 51  1  0  0  0
 50122  1  0  0  0
 50123  1  0  0  0
 51 52  1  0  0  0
 51124  1  0  0  0
 51125  1  0  0  0
 52126  1  0  0  0
 52127  1  0  0  0
 53 54  1  0  0  0
 54 55  2  0  0  0
 54128  1  0  0  0
 55 57  1  0  0  0
 55129  1  0  0  0
 56 69  2  0  0  0
 57 58  2  0  0  0
 57130  1  0  0  0
 58131  1  0  0  0
 59 60  1  0  0  0
 59 61  1  0  0  0
 59 62  1  0  0  0
 60132  1  0  0  0
 60133  1  0  0  0
 60134  1  0  0  0
 61135  1  0  0  0
 61136  1  0  0  0
 61137  1  0  0  0
 62138  1  0  0  0
 62139  1  0  0  0
 62140  1  0  0  0
 63 65  1  0  0  0
 63141  1  0  0  0
 63142  1  0  0  0
 63143  1  0  0  0
 64144  1  0  0  0
 65145  1  0  0  0
 68 82  1  0  0  0
 71 74  2  0  0  0
 71 75  1  0  0  0
 71146  1  0  0  0
 72 74  1  0  0  0
 72 76  2  0  0  0
 72147  1  0  0  0
 73 75  2  0  0  0
 73 76  1  0  0  0
 73148  1  0  0  0
 74 83  1  0  0  0
 75 84  1  0  0  0
 76 85  1  0  0  0
 77 78  1  0  0  0
 77 80  1  0  0  0
 77149  1  0  0  0
 77150  1  0  0  0
 78151  1  0  0  0
 78152  1  0  0  0
 78 86  1  0  0  0
 79 80  1  0  0  0
 79 86  1  0  0  0
 79153  1  0  0  0
 79154  1  0  0  0
 80 82  1  0  0  0
 80155  1  0  0  0
 81156  1  0  0  0
 81157  1  0  0  0
 81158  1  0  0  0
 81 83  1  0  0  0
 82159  1  0  0  0
 82160  1  0  0  0
 83 86  1  0  0  0
 83161  1  0  0  0
 84162  1  0  0  0
 84163  1  0  0  0
 85164  1  0  0  0
 86165  1  0  0  0
M  CHG  1  86   1
M  ISO  4   1 100  68 101  82 101  85 100
M  END
> <chiral flag>
0

> <version>
0

> <s_m_source_file>
/data/baiqing/PycharmProjects/Reinvent-master-3.2/result/LINK_invent/BTK/process_docking_weight1_custom_product_contain_oxygen_bond_distance_aromatic_linkinvent_7_9_3/rearranged_h_0098.sdf

> <i_m_source_file_index>
66

> <r_mmod_Potential_Energy-OPLS-2005>
-79.6512298583984

> <r_mmod_Stretch_Energy-OPLS-2005>
45.7998695373535

> <r_mmod_Bend_Energy-OPLS-2005>
130.313354492188

> <r_mmod_Torsional_Energy-OPLS-2005>
291.944946289062

> <r_mmod_Improper_Torsional_Energy-OPLS-2005>
5.87574625015259

> <r_mmod_Van_der_Waal_Energy-OPLS-2005>
163.976852416992

> <r_mmod_Electrostatic_Energy-OPLS-2005>
-273.730895996094

> <r_mmod_Solvation_Energy-OPLS-2005>
-461.928924560547

> <b_mmod_Minimization_Converged-OPLS-2005>
0

> <r_mmod_RMS_Derivative-OPLS-2005>
1.62709355354309

$$$$
66
                    3D
 Structure written by MMmdl.
162171  0  0  1  0            999 V2000
  -30.5934  -14.7878   20.4062 C   0  0  0  0  0  0
  -30.4362  -12.4716   19.4833 C   0  0  0  0  0  0
  -29.5197  -12.5048   18.2398 C   0  0  0  0  0  0
  -28.0463  -12.3229   18.6523 C   0  0  0  0  0  0
  -27.6401  -13.2371   19.8392 C   0  0  2  0  0  0
  -28.6829  -13.2043   20.9790 C   0  0  0  0  0  0
  -25.2531  -13.8203   20.5671 C   0  0  0  0  0  0
  -24.1830  -13.0447   20.9191 C   0  0  0  0  0  0
  -24.6426  -11.6924   20.8760 C   0  0  0  0  0  0
  -23.9103  -10.4293   21.0420 C   0  0  0  0  0  0
  -24.3650   -9.4209   21.9204 C   0  0  0  0  0  0
  -23.6306   -8.2249   22.0777 C   0  0  0  0  0  0
  -22.4293   -8.0290   21.3551 C   0  0  0  0  0  0
  -21.9932   -9.0274   20.4666 C   0  0  0  0  0  0
  -22.7275  -10.2139   20.3073 C   0  0  0  0  0  0
  -21.6857   -6.0750   22.5280 C   0  0  0  0  0  0
  -21.4014   -6.5646   23.8216 C   0  0  0  0  0  0
  -21.3656   -5.6792   24.9172 C   0  0  0  0  0  0
  -21.6044   -4.3054   24.7216 C   0  0  0  0  0  0
  -21.8818   -3.8154   23.4334 C   0  0  0  0  0  0
  -21.9187   -4.6977   22.3398 C   0  0  0  0  0  0
  -22.7846  -13.5237   21.1825 C   0  0  0  0  0  0
  -22.1657   -4.2169   21.0975 F   0  0  0  0  0  0
  -21.5629   -3.4536   25.7727 F   0  0  0  0  0  0
  -29.9827  -13.5507   20.3938 N   0  0  0  0  0  0
  -26.2946  -12.9410   20.3209 N   0  0  0  0  0  0
  -25.9355  -11.6552   20.5730 N   0  0  0  0  0  0
  -22.0467  -12.8254   22.0378 N   0  0  0  0  0  0
  -25.4214  -15.1927   20.4108 N   0  0  0  0  0  0
  -31.8026  -14.8552   20.1728 O   0  0  0  0  0  0
  -21.6640   -6.8900   21.4246 O   0  0  0  0  0  0
  -22.3528  -14.5535   20.6647 O   0  0  0  0  0  0
  -24.6322  -31.8534   23.1977 C   0  0  0  0  0  0
  -25.9148  -32.4756   23.8318 C   0  0  1  0  0  0
  -27.2160  -27.2504   20.1586 C   0  0  0  0  0  0
  -25.5941  -33.8563   24.2259 N   0  0  0  0  0  0
  -23.4301  -30.4756   21.5385 C   0  0  2  0  0  0
  -24.8787  -28.9093   20.1234 C   0  0  0  0  0  0
  -22.7501  -29.4610   22.4891 C   0  0  0  0  0  0
  -18.0303  -28.1396   22.8493 C   0  0  0  0  0  0
  -24.1488  -36.7276   23.2638 C   0  0  0  0  0  0
  -25.9755  -30.7645   21.3771 C   0  0  0  0  0  0
  -26.0488  -29.3807   20.7338 C   0  0  0  0  0  0
  -27.2243  -28.5625   20.7419 C   0  0  0  0  0  0
  -26.0325  -26.8488   19.5117 C   0  0  0  0  0  0
  -24.8740  -27.6500   19.5016 C   0  0  0  0  0  0
  -23.6534  -29.8013   20.1592 C   0  0  0  0  0  0
  -25.4116  -36.3071   24.0332 C   0  0  1  0  0  0
  -20.5907  -28.3719   23.1256 C   0  0  2  0  0  0
  -20.6788  -26.9428   22.5403 C   0  0  0  0  0  0
  -19.5758  -26.6394   21.5217 C   0  0  0  0  0  0
  -18.1946  -26.7941   22.1631 C   0  0  0  0  0  0
  -19.1556  -28.8870   23.2875 C   0  0  0  0  0  0
  -18.9465  -30.1470   23.8898 C   0  0  0  0  0  0
  -17.6463  -30.6592   24.0579 C   0  0  0  0  0  0
  -25.9053  -34.9443   23.5091 C   0  0  0  0  0  0
  -16.5359  -29.9091   23.6334 C   0  0  0  0  0  0
  -16.7287  -28.6505   23.0357 C   0  0  0  0  0  0
  -26.4514  -31.6576   25.0704 C   0  0  0  0  0  0
  -25.3748  -31.3716   26.1427 C   0  0  0  0  0  0
  -27.0349  -30.2986   24.6190 C   0  0  0  0  0  0
  -27.6072  -32.4298   25.7483 C   0  0  0  0  0  0
  -27.5579  -37.1795   24.8472 C   0  0  0  0  0  0
  -21.4204  -29.3071   22.3638 N   0  0  0  0  0  0
  -26.4291  -37.3772   23.9415 N   0  0  0  0  0  0
  -24.6978  -31.0508   22.0947 N   0  0  0  0  0  0
  -23.4183  -28.8155   23.3008 O   0  0  0  0  0  0
  -28.3098  -26.3646   20.1029 O   0  0  0  0  0  0
  -26.5626  -34.8915   22.4657 O   0  0  0  0  0  0
  -23.5472  -32.1347   23.7267 O   0  0  0  0  0  0
  -30.1300  -20.0498   18.9200 C   0  0  0  0  0  0
  -29.2563  -18.4926   20.5584 C   0  0  0  0  0  0
  -30.6399  -17.6347   18.7373 C   0  0  0  0  0  0
  -29.3013  -19.8695   20.0444 C   0  0  0  0  0  0
  -30.7716  -18.9767   18.2807 C   0  0  0  0  0  0
  -29.9378  -17.3408   19.9556 C   0  0  0  0  0  0
  -27.1119  -20.8510   20.5034 C   0  0  0  0  0  0
  -28.9442  -22.3865   20.5742 C   0  0  0  0  0  0
  -26.0939  -22.0063   20.6272 C   0  0  0  0  0  0
  -26.6195  -23.3979   20.2386 C   0  0  0  0  0  0
  -27.9760  -23.6346   20.8851 C   0  0  2  0  0  0
  -31.1900  -16.5378   17.8252 C   0  0  0  0  0  0
  -28.4256  -25.2063   21.0482 C   0  0  0  0  0  0
  -28.4642  -21.0622   20.4574 N   0  0  0  0  0  0
  -31.5011  -19.2914   17.1324 N   0  0  0  0  0  0
  -29.7921  -15.9340   20.4839 N   0  0  0  0  0  0
  -26.6124  -19.7180   20.4641 O   0  0  0  0  0  0
  -30.1520  -22.6351   20.5023 O   0  0  0  0  0  0
  -31.4797  -12.5931   19.1889 H   0  0  0  0  0  0
  -30.3763  -11.5001   19.9766 H   0  0  0  0  0  0
  -29.8102  -11.7283   17.5309 H   0  0  0  0  0  0
  -29.6399  -13.4539   17.7155 H   0  0  0  0  0  0
  -27.9145  -11.2779   18.9330 H   0  0  0  0  0  0
  -27.3926  -12.4915   17.7952 H   0  0  0  0  0  0
  -27.6228  -14.2520   19.4395 H   0  0  0  0  0  0
  -28.7216  -12.2213   21.4521 H   0  0  0  0  0  0
  -28.4153  -13.9110   21.7655 H   0  0  0  0  0  0
  -25.2809   -9.5665   22.4769 H   0  0  0  0  0  0
  -24.0011   -7.4642   22.7505 H   0  0  0  0  0  0
  -21.0858   -8.8805   19.8981 H   0  0  0  0  0  0
  -22.3761  -10.9679   19.6173 H   0  0  0  0  0  0
  -21.2016   -7.6155   23.9723 H   0  0  0  0  0  0
  -21.1479   -6.0521   25.9073 H   0  0  0  0  0  0
  -22.0605   -2.7622   23.2823 H   0  0  0  0  0  0
  -22.4055  -11.9933   22.4816 H   0  0  0  0  0  0
  -21.1093  -13.1320   22.2546 H   0  0  0  0  0  0
  -24.6554  -15.8467   20.5257 H   0  0  0  0  0  0
  -26.2639  -15.6325   20.0630 H   0  0  0  0  0  0
  -26.7225  -32.5426   23.1073 H   0  0  0  0  0  0
  -25.0123  -33.9698   25.0424 H   0  0  0  0  0  0
  -22.7280  -31.2978   21.3856 H   0  0  0  0  0  0
  -23.3753  -35.9605   23.3295 H   0  0  0  0  0  0
  -24.3582  -36.8891   22.2053 H   0  0  0  0  0  0
  -23.7236  -37.6474   23.6659 H   0  0  0  0  0  0
  -26.1102  -31.5145   20.5966 H   0  0  0  0  0  0
  -26.8558  -30.8247   22.0059 H   0  0  0  0  0  0
  -28.1260  -28.9230   21.2167 H   0  0  0  0  0  0
  -26.0029  -25.8929   19.0102 H   0  0  0  0  0  0
  -23.9822  -27.2837   19.0121 H   0  0  0  0  0  0
  -23.7916  -30.5698   19.3986 H   0  0  0  0  0  0
  -22.7720  -29.2369   19.8510 H   0  0  0  0  0  0
  -25.1299  -36.1915   25.0828 H   0  0  0  0  0  0
  -21.0023  -28.3319   24.1369 H   0  0  0  0  0  0
  -20.5689  -26.2335   23.3614 H   0  0  0  0  0  0
  -21.6654  -26.7446   22.1202 H   0  0  0  0  0  0
  -19.6906  -25.6306   21.1250 H   0  0  0  0  0  0
  -19.6696  -27.3193   20.6740 H   0  0  0  0  0  0
  -17.4211  -26.6712   21.4040 H   0  0  0  0  0  0
  -18.0339  -26.0084   22.9018 H   0  0  0  0  0  0
  -19.7942  -30.7307   24.2250 H   0  0  0  0  0  0
  -17.5017  -31.6273   24.5184 H   0  0  0  0  0  0
  -15.5360  -30.2998   23.7642 H   0  0  0  0  0  0
  -15.8693  -28.0831   22.7055 H   0  0  0  0  0  0
  -24.5962  -30.7020   25.7753 H   0  0  0  0  0  0
  -24.8913  -32.2885   26.4809 H   0  0  0  0  0  0
  -25.8094  -30.8938   27.0217 H   0  0  0  0  0  0
  -26.2921  -29.6740   24.1226 H   0  0  0  0  0  0
  -27.4014  -29.7255   25.4713 H   0  0  0  0  0  0
  -27.8811  -30.4226   23.9433 H   0  0  0  0  0  0
  -27.2697  -33.3620   26.2013 H   0  0  0  0  0  0
  -28.3924  -32.6795   25.0342 H   0  0  0  0  0  0
  -28.0692  -31.8445   26.5443 H   0  0  0  0  0  0
  -28.2590  -38.0088   24.7512 H   0  0  0  0  0  0
  -28.1069  -36.2625   24.6304 H   0  0  0  0  0  0
  -27.2299  -37.1448   25.8869 H   0  0  0  0  0  0
  -20.9376  -29.8779   21.6833 H   0  0  0  0  0  0
  -26.0163  -38.2840   24.1412 H   0  0  0  0  0  0
  -30.2199  -21.0324   18.4783 H   0  0  0  0  0  0
  -28.6338  -18.3028   21.4225 H   0  0  0  0  0  0
  -25.7461  -22.0223   21.6604 H   0  0  0  0  0  0
  -25.2206  -21.7638   20.0198 H   0  0  0  0  0  0
  -25.9105  -24.1445   20.5934 H   0  0  0  0  0  0
  -26.6862  -23.5089   19.1562 H   0  0  0  0  0  0
  -27.7986  -23.4028   21.9374 H   0  0  0  0  0  0
  -30.5927  -15.6318   17.8756 H   0  0  0  0  0  0
  -32.2249  -16.3089   18.0777 H   0  0  0  0  0  0
  -31.1569  -16.8192   16.7739 H   0  0  0  0  0  0
  -29.4821  -25.1874   21.3144 H   0  0  0  0  0  0
  -27.9506  -25.5595   21.9655 H   0  0  0  0  0  0
  -31.6842  -20.2664   16.9155 H   0  0  0  0  0  0
  -32.2465  -18.6708   16.8410 H   0  0  0  0  0  0
  -28.8898  -15.7420   20.8912 H   0  0  0  0  0  0
  1 25  1  0  0  0
  1 30  2  0  0  0
  1 86  1  0  0  0
  2  3  1  0  0  0
  2 25  1  0  0  0
  2 89  1  0  0  0
  2 90  1  0  0  0
  3  4  1  0  0  0
  3 91  1  0  0  0
  3 92  1  0  0  0
  4  5  1  0  0  0
  4 93  1  0  0  0
  4 94  1  0  0  0
  5  6  1  0  0  0
  5 26  1  0  0  0
  5 95  1  0  0  0
  6 25  1  0  0  0
  6 96  1  0  0  0
  6 97  1  0  0  0
  7  8  2  0  0  0
  7 26  1  0  0  0
  7 29  1  0  0  0
  8  9  1  0  0  0
  8 22  1  0  0  0
  9 10  1  0  0  0
  9 27  2  0  0  0
 10 11  2  0  0  0
 10 15  1  0  0  0
 11 12  1  0  0  0
 11 98  1  0  0  0
 12 13  2  0  0  0
 12 99  1  0  0  0
 13 14  1  0  0  0
 13 31  1  0  0  0
 14 15  2  0  0  0
 14100  1  0  0  0
 15101  1  0  0  0
 16 17  2  0  0  0
 16 21  1  0  0  0
 16 31  1  0  0  0
 17 18  1  0  0  0
 17102  1  0  0  0
 18 19  2  0  0  0
 18103  1  0  0  0
 19 20  1  0  0  0
 19 24  1  0  0  0
 20 21  2  0  0  0
 20104  1  0  0  0
 21 23  1  0  0  0
 22 28  1  0  0  0
 22 32  2  0  0  0
 26 27  1  0  0  0
 28105  1  0  0  0
 28106  1  0  0  0
 29107  1  0  0  0
 29108  1  0  0  0
 33 34  1  0  0  0
 33 66  1  0  0  0
 33 70  2  0  0  0
 34 36  1  0  0  0
 34 59  1  0  0  0
 34109  1  0  0  0
 35 44  2  0  0  0
 35 45  1  0  0  0
 35 68  1  0  0  0
 36 56  1  0  0  0
 36110  1  0  0  0
 37 39  1  0  0  0
 37 47  1  0  0  0
 37 66  1  0  0  0
 37111  1  0  0  0
 38 43  2  0  0  0
 38 46  1  0  0  0
 38 47  1  0  0  0
 39 64  1  0  0  0
 39 67  2  0  0  0
 40 52  1  0  0  0
 40 53  2  0  0  0
 40 58  1  0  0  0
 41112  1  0  0  0
 41113  1  0  0  0
 41114  1  0  0  0
 41 48  1  0  0  0
 42 43  1  0  0  0
 42 66  1  0  0  0
 42115  1  0  0  0
 42116  1  0  0  0
 43 44  1  0  0  0
 44117  1  0  0  0
 45 46  2  0  0  0
 45118  1  0  0  0
 46119  1  0  0  0
 47120  1  0  0  0
 47121  1  0  0  0
 48 56  1  0  0  0
 48 65  1  0  0  0
 48122  1  0  0  0
 49 50  1  0  0  0
 49 53  1  0  0  0
 49 64  1  0  0  0
 49123  1  0  0  0
 50 51  1  0  0  0
 50124  1  0  0  0
 50125  1  0  0  0
 51 52  1  0  0  0
 51126  1  0  0  0
 51127  1  0  0  0
 52128  1  0  0  0
 52129  1  0  0  0
 53 54  1  0  0  0
 54 55  2  0  0  0
 54130  1  0  0  0
 55 57  1  0  0  0
 55131  1  0  0  0
 56 69  2  0  0  0
 57 58  2  0  0  0
 57132  1  0  0  0
 58133  1  0  0  0
 59 60  1  0  0  0
 59 61  1  0  0  0
 59 62  1  0  0  0
 60134  1  0  0  0
 60135  1  0  0  0
 60136  1  0  0  0
 61137  1  0  0  0
 61138  1  0  0  0
 61139  1  0  0  0
 62140  1  0  0  0
 62141  1  0  0  0
 62142  1  0  0  0
 63 65  1  0  0  0
 63143  1  0  0  0
 63144  1  0  0  0
 63145  1  0  0  0
 64146  1  0  0  0
 65147  1  0  0  0
 68 83  1  0  0  0
 71 74  2  0  0  0
 71 75  1  0  0  0
 71148  1  0  0  0
 72 74  1  0  0  0
 72 76  2  0  0  0
 72149  1  0  0  0
 73 75  2  0  0  0
 73 76  1  0  0  0
 73 82  1  0  0  0
 74 84  1  0  0  0
 75 85  1  0  0  0
 76 86  1  0  0  0
 77 79  1  0  0  0
 77 84  1  0  0  0
 77 87  2  0  0  0
 78 81  1  0  0  0
 78 84  1  0  0  0
 78 88  2  0  0  0
 79 80  1  0  0  0
 79150  1  0  0  0
 79151  1  0  0  0
 80 81  1  0  0  0
 80152  1  0  0  0
 80153  1  0  0  0
 81 83  1  0  0  0
 81154  1  0  0  0
 82155  1  0  0  0
 82156  1  0  0  0
 82157  1  0  0  0
 83158  1  0  0  0
 83159  1  0  0  0
 85160  1  0  0  0
 85161  1  0  0  0
 86162  1  0  0  0
M  ISO  4   1 100  68 101  83 101  86 100
M  END
> <chiral flag>
0

> <version>
0

> <s_m_source_file>
/data/baiqing/PycharmProjects/Reinvent-master-3.2/result/LINK_invent/BTK/process_docking_weight1_custom_product_contain_oxygen_bond_distance_aromatic_linkinvent_7_9_3/rearranged_h_0098.sdf

> <i_m_source_file_index>
67

> <r_mmod_Potential_Energy-OPLS-2005>
360.271759033203

> <r_mmod_Stretch_Energy-OPLS-2005>
161.219284057617

> <r_mmod_Bend_Energy-OPLS-2005>
232.935455322266

> <r_mmod_Torsional_Energy-OPLS-2005>
304.069763183594

> <r_mmod_Improper_Torsional_Energy-OPLS-2005>
9.44081783294678

> <r_mmod_Van_der_Waal_Energy-OPLS-2005>
163.015548706055

> <r_mmod_Electrostatic_Energy-OPLS-2005>
-365.306518554688

> <r_mmod_Solvation_Energy-OPLS-2005>
-243.644775390625

> <b_mmod_Minimization_Converged-OPLS-2005>
0

> <r_mmod_RMS_Derivative-OPLS-2005>
2.8765971660614

$$$$
67
                    3D
 Structure written by MMmdl.
157165  0  0  1  0            999 V2000
  -30.6611  -14.6327   20.6008 C   0  0  0  0  0  0
  -30.4328  -12.4188   19.4528 C   0  0  0  0  0  0
  -29.5049  -12.5291   18.2232 C   0  0  0  0  0  0
  -28.0297  -12.3518   18.6305 C   0  0  0  0  0  0
  -27.6508  -13.2189   19.8585 C   0  0  2  0  0  0
  -28.6867  -13.0605   20.9867 C   0  0  0  0  0  0
  -25.2545  -13.8183   20.5663 C   0  0  0  0  0  0
  -24.1814  -13.0441   20.9167 C   0  0  0  0  0  0
  -24.6388  -11.6916   20.8712 C   0  0  0  0  0  0
  -23.9061  -10.4298   21.0385 C   0  0  0  0  0  0
  -24.3612   -9.4221   21.9174 C   0  0  0  0  0  0
  -23.6290   -8.2254   22.0753 C   0  0  0  0  0  0
  -22.4276   -8.0285   21.3540 C   0  0  0  0  0  0
  -21.9915   -9.0247   20.4625 C   0  0  0  0  0  0
  -22.7239  -10.2128   20.3024 C   0  0  0  0  0  0
  -21.6858   -6.0739   22.5274 C   0  0  0  0  0  0
  -21.4018   -6.5648   23.8206 C   0  0  0  0  0  0
  -21.3668   -5.6804   24.9169 C   0  0  0  0  0  0
  -21.6047   -4.3063   24.7223 C   0  0  0  0  0  0
  -21.8821   -3.8149   23.4348 C   0  0  0  0  0  0
  -21.9190   -4.6964   22.3403 C   0  0  0  0  0  0
  -22.7838  -13.5236   21.1845 C   0  0  0  0  0  0
  -22.1653   -4.2146   21.0980 F   0  0  0  0  0  0
  -21.5637   -3.4548   25.7737 F   0  0  0  0  0  0
  -30.0068  -13.4288   20.4496 N   0  0  0  0  0  0
  -26.2965  -12.9364   20.3267 N   0  0  0  0  0  0
  -25.9314  -11.6515   20.5710 N   0  0  0  0  0  0
  -22.0497  -12.8233   22.0424 N   0  0  0  0  0  0
  -25.4269  -15.1910   20.4121 N   0  0  0  0  0  0
  -31.7498  -14.8196   20.0463 O   0  0  0  0  0  0
  -21.6642   -6.8881   21.4237 O   0  0  0  0  0  0
  -22.3515  -14.5542   20.6703 O   0  0  0  0  0  0
  -24.6266  -31.8590   23.2008 C   0  0  0  0  0  0
  -25.9110  -32.4779   23.8339 C   0  0  1  0  0  0
  -27.2242  -27.3142   20.1256 C   0  0  0  0  0  0
  -25.5926  -33.8578   24.2274 N   0  0  0  0  0  0
  -23.4206  -30.4811   21.5441 C   0  0  2  0  0  0
  -24.8680  -28.9303   20.1146 C   0  0  0  0  0  0
  -22.7479  -29.4618   22.4939 C   0  0  0  0  0  0
  -18.0288  -28.1386   22.8495 C   0  0  0  0  0  0
  -24.1487  -36.7288   23.2636 C   0  0  0  0  0  0
  -25.9612  -30.7893   21.3707 C   0  0  0  0  0  0
  -26.0370  -29.4145   20.7162 C   0  0  0  0  0  0
  -27.2219  -28.6198   20.7059 C   0  0  0  0  0  0
  -26.0367  -26.8799   19.5008 C   0  0  0  0  0  0
  -24.8697  -27.6689   19.4965 C   0  0  0  0  0  0
  -23.6360  -29.8120   20.1607 C   0  0  0  0  0  0
  -25.4113  -36.3084   24.0328 C   0  0  1  0  0  0
  -20.5890  -28.3688   23.1288 C   0  0  2  0  0  0
  -20.6774  -26.9412   22.5413 C   0  0  0  0  0  0
  -19.5746  -26.6388   21.5216 C   0  0  0  0  0  0
  -18.1931  -26.7932   22.1633 C   0  0  0  0  0  0
  -19.1541  -28.8853   23.2887 C   0  0  0  0  0  0
  -18.9458  -30.1459   23.8901 C   0  0  0  0  0  0
  -17.6456  -30.6585   24.0568 C   0  0  0  0  0  0
  -25.9047  -34.9454   23.5100 C   0  0  0  0  0  0
  -16.5349  -29.9085   23.6335 C   0  0  0  0  0  0
  -16.7276  -28.6505   23.0355 C   0  0  0  0  0  0
  -26.4496  -31.6585   25.0707 C   0  0  0  0  0  0
  -25.3727  -31.3725   26.1429 C   0  0  0  0  0  0
  -27.0336  -30.3013   24.6151 C   0  0  0  0  0  0
  -27.6059  -32.4312   25.7481 C   0  0  0  0  0  0
  -27.5580  -37.1801   24.8467 C   0  0  0  0  0  0
  -21.4192  -29.3036   22.3678 N   0  0  0  0  0  0
  -26.4293  -37.3777   23.9407 N   0  0  0  0  0  0
  -24.6886  -31.0594   22.0961 N   0  0  0  0  0  0
  -23.4197  -28.8173   23.3030 O   0  0  0  0  0  0
  -28.3392  -26.4655   20.1299 O   0  0  0  0  0  0
  -26.5617  -34.8923   22.4667 O   0  0  0  0  0  0
  -23.5428  -32.1392   23.7335 O   0  0  0  0  0  0
  -30.2611  -18.1329   21.8361 C   0  0  0  0  0  0
  -29.9963  -19.5017   21.5309 C   0  0  0  0  0  0
  -29.3219  -17.4505   19.7409 C   0  0  0  0  0  0
  -29.9180  -17.0485   20.9688 C   0  0  0  0  0  0
  -29.3754  -19.8912   20.3165 C   0  0  0  0  0  0
  -29.0643  -18.8244   19.4254 C   0  0  0  0  0  0
  -28.9616  -22.4443   20.6297 C   0  0  0  0  0  0
  -28.8522  -15.8031   23.5816 C   0  0  0  0  0  0
  -28.8288  -23.8410   19.8817 C   0  0  0  0  0  0
  -30.1261  -15.3529   22.8324 C   0  0  0  0  0  0
  -28.1672  -25.0812   20.6477 C   0  0  0  0  0  0
  -29.1170  -21.2826   19.9111 N   0  0  0  0  0  0
  -30.0879  -15.6293   21.3769 N   0  0  0  0  0  0
  -28.9237  -22.4311   21.8617 O   0  0  0  0  0  0
  -28.4896  -19.1233   18.2349 F   0  0  0  0  0  0
  -31.4730  -12.5469   19.1491 H   0  0  0  0  0  0
  -30.3766  -11.4189   19.8857 H   0  0  0  0  0  0
  -29.7776  -11.7841   17.4747 H   0  0  0  0  0  0
  -29.6399  -13.5028   17.7502 H   0  0  0  0  0  0
  -27.8725  -11.2971   18.8603 H   0  0  0  0  0  0
  -27.3742  -12.5809   17.7900 H   0  0  0  0  0  0
  -27.6765  -14.2580   19.5313 H   0  0  0  0  0  0
  -28.7054  -12.0329   21.3514 H   0  0  0  0  0  0
  -28.3872  -13.6630   21.8376 H   0  0  0  0  0  0
  -25.2757   -9.5705   22.4748 H   0  0  0  0  0  0
  -24.0000   -7.4649   22.7479 H   0  0  0  0  0  0
  -21.0854   -8.8757   19.8923 H   0  0  0  0  0  0
  -22.3699  -10.9657   19.6118 H   0  0  0  0  0  0
  -21.2011   -7.6156   23.9701 H   0  0  0  0  0  0
  -21.1494   -6.0540   25.9074 H   0  0  0  0  0  0
  -22.0601   -2.7611   23.2849 H   0  0  0  0  0  0
  -22.4114  -11.9888   22.4795 H   0  0  0  0  0  0
  -21.1135  -13.1277   22.2680 H   0  0  0  0  0  0
  -24.6652  -15.8495   20.5348 H   0  0  0  0  0  0
  -26.2894  -15.6332   20.1214 H   0  0  0  0  0  0
  -26.7185  -32.5456   23.1092 H   0  0  0  0  0  0
  -25.0083  -33.9720   25.0427 H   0  0  0  0  0  0
  -22.7147  -31.3013   21.3991 H   0  0  0  0  0  0
  -23.3752  -35.9617   23.3307 H   0  0  0  0  0  0
  -24.3579  -36.8900   22.2050 H   0  0  0  0  0  0
  -23.7241  -37.6494   23.6651 H   0  0  0  0  0  0
  -26.0883  -31.5512   20.6004 H   0  0  0  0  0  0
  -26.8432  -30.8425   21.9981 H   0  0  0  0  0  0
  -28.1229  -28.9893   21.1754 H   0  0  0  0  0  0
  -26.0066  -25.9137   19.0179 H   0  0  0  0  0  0
  -23.9751  -27.2933   19.0193 H   0  0  0  0  0  0
  -23.7566  -30.5866   19.4023 H   0  0  0  0  0  0
  -22.7558  -29.2410   19.8596 H   0  0  0  0  0  0
  -25.1299  -36.1937   25.0824 H   0  0  0  0  0  0
  -20.9985  -28.3260   24.1405 H   0  0  0  0  0  0
  -20.5675  -26.2298   23.3610 H   0  0  0  0  0  0
  -21.6643  -26.7440   22.1206 H   0  0  0  0  0  0
  -19.6902  -25.6298   21.1244 H   0  0  0  0  0  0
  -19.6681  -27.3199   20.6745 H   0  0  0  0  0  0
  -17.4201  -26.6689   21.4034 H   0  0  0  0  0  0
  -18.0330  -26.0066   22.9021 H   0  0  0  0  0  0
  -19.7929  -30.7284   24.2267 H   0  0  0  0  0  0
  -17.5004  -31.6268   24.5166 H   0  0  0  0  0  0
  -15.5348  -30.2985   23.7644 H   0  0  0  0  0  0
  -15.8683  -28.0823   22.7058 H   0  0  0  0  0  0
  -24.5907  -30.7072   25.7753 H   0  0  0  0  0  0
  -24.8909  -32.2890   26.4844 H   0  0  0  0  0  0
  -25.8040  -30.8911   27.0213 H   0  0  0  0  0  0
  -26.2914  -29.6777   24.1153 H   0  0  0  0  0  0
  -27.4023  -29.7255   25.4649 H   0  0  0  0  0  0
  -27.8788  -30.4310   23.9384 H   0  0  0  0  0  0
  -27.2675  -33.3602   26.2081 H   0  0  0  0  0  0
  -28.3858  -32.6886   25.0302 H   0  0  0  0  0  0
  -28.0743  -31.8423   26.5378 H   0  0  0  0  0  0
  -28.2607  -38.0090   24.7507 H   0  0  0  0  0  0
  -28.1068  -36.2620   24.6306 H   0  0  0  0  0  0
  -27.2294  -37.1471   25.8870 H   0  0  0  0  0  0
  -20.9368  -29.8751   21.6886 H   0  0  0  0  0  0
  -26.0177  -38.2855   24.1401 H   0  0  0  0  0  0
  -30.7351  -17.9354   22.7863 H   0  0  0  0  0  0
  -30.2918  -20.2540   22.2476 H   0  0  0  0  0  0
  -29.0223  -16.6996   19.0252 H   0  0  0  0  0  0
  -28.8881  -15.4778   24.6214 H   0  0  0  0  0  0
  -27.9464  -15.3853   23.1434 H   0  0  0  0  0  0
  -28.7308  -16.8857   23.5967 H   0  0  0  0  0  0
  -28.2978  -23.6827   18.9436 H   0  0  0  0  0  0
  -29.8427  -24.1251   19.6018 H   0  0  0  0  0  0
  -30.2682  -14.2889   23.0366 H   0  0  0  0  0  0
  -31.0087  -15.8221   23.2688 H   0  0  0  0  0  0
  -28.5782  -25.1037   21.6575 H   0  0  0  0  0  0
  -27.1109  -24.8531   20.7939 H   0  0  0  0  0  0
  -29.0078  -21.3937   18.9113 H   0  0  0  0  0  0
  1 25  1  0  0  0
  1 30  2  0  0  0
  1 83  1  0  0  0
  2  3  1  0  0  0
  2 25  1  0  0  0
  2 86  1  0  0  0
  2 87  1  0  0  0
  3  4  1  0  0  0
  3 88  1  0  0  0
  3 89  1  0  0  0
  4  5  1  0  0  0
  4 90  1  0  0  0
  4 91  1  0  0  0
  5  6  1  0  0  0
  5 26  1  0  0  0
  5 92  1  0  0  0
  6 25  1  0  0  0
  6 93  1  0  0  0
  6 94  1  0  0  0
  7  8  2  0  0  0
  7 26  1  0  0  0
  7 29  1  0  0  0
  8  9  1  0  0  0
  8 22  1  0  0  0
  9 10  1  0  0  0
  9 27  2  0  0  0
 10 11  2  0  0  0
 10 15  1  0  0  0
 11 12  1  0  0  0
 11 95  1  0  0  0
 12 13  2  0  0  0
 12 96  1  0  0  0
 13 14  1  0  0  0
 13 31  1  0  0  0
 14 15  2  0  0  0
 14 97  1  0  0  0
 15 98  1  0  0  0
 16 17  2  0  0  0
 16 21  1  0  0  0
 16 31  1  0  0  0
 17 18  1  0  0  0
 17 99  1  0  0  0
 18 19  2  0  0  0
 18100  1  0  0  0
 19 20  1  0  0  0
 19 24  1  0  0  0
 20 21  2  0  0  0
 20101  1  0  0  0
 21 23  1  0  0  0
 22 28  1  0  0  0
 22 32  2  0  0  0
 26 27  1  0  0  0
 28102  1  0  0  0
 28103  1  0  0  0
 29104  1  0  0  0
 29105  1  0  0  0
 33 34  1  0  0  0
 33 66  1  0  0  0
 33 70  2  0  0  0
 34 36  1  0  0  0
 34 59  1  0  0  0
 34106  1  0  0  0
 35 44  2  0  0  0
 35 45  1  0  0  0
 35 68  1  0  0  0
 36 56  1  0  0  0
 36107  1  0  0  0
 37 39  1  0  0  0
 37 47  1  0  0  0
 37 66  1  0  0  0
 37108  1  0  0  0
 38 43  2  0  0  0
 38 46  1  0  0  0
 38 47  1  0  0  0
 39 64  1  0  0  0
 39 67  2  0  0  0
 40 52  1  0  0  0
 40 53  2  0  0  0
 40 58  1  0  0  0
 41109  1  0  0  0
 41110  1  0  0  0
 41111  1  0  0  0
 41 48  1  0  0  0
 42 43  1  0  0  0
 42 66  1  0  0  0
 42112  1  0  0  0
 42113  1  0  0  0
 43 44  1  0  0  0
 44114  1  0  0  0
 45 46  2  0  0  0
 45115  1  0  0  0
 46116  1  0  0  0
 47117  1  0  0  0
 47118  1  0  0  0
 48 56  1  0  0  0
 48 65  1  0  0  0
 48119  1  0  0  0
 49 50  1  0  0  0
 49 53  1  0  0  0
 49 64  1  0  0  0
 49120  1  0  0  0
 50 51  1  0  0  0
 50121  1  0  0  0
 50122  1  0  0  0
 51 52  1  0  0  0
 51123  1  0  0  0
 51124  1  0  0  0
 52125  1  0  0  0
 52126  1  0  0  0
 53 54  1  0  0  0
 54 55  2  0  0  0
 54127  1  0  0  0
 55 57  1  0  0  0
 55128  1  0  0  0
 56 69  2  0  0  0
 57 58  2  0  0  0
 57129  1  0  0  0
 58130  1  0  0  0
 59 60  1  0  0  0
 59 61  1  0  0  0
 59 62  1  0  0  0
 60131  1  0  0  0
 60132  1  0  0  0
 60133  1  0  0  0
 61134  1  0  0  0
 61135  1  0  0  0
 61136  1  0  0  0
 62137  1  0  0  0
 62138  1  0  0  0
 62139  1  0  0  0
 63 65  1  0  0  0
 63140  1  0  0  0
 63141  1  0  0  0
 63142  1  0  0  0
 64143  1  0  0  0
 65144  1  0  0  0
 68 81  1  0  0  0
 71 72  2  0  0  0
 71 74  1  0  0  0
 71145  1  0  0  0
 72 75  1  0  0  0
 72146  1  0  0  0
 73 74  2  0  0  0
 73 76  1  0  0  0
 73147  1  0  0  0
 74 83  1  0  0  0
 75 76  2  0  0  0
 75 82  1  0  0  0
 76 85  1  0  0  0
 77 79  1  0  0  0
 77 82  1  0  0  0
 77 84  2  0  0  0
 78 80  1  0  0  0
 78148  1  0  0  0
 78149  1  0  0  0
 78150  1  0  0  0
 79 81  1  0  0  0
 79151  1  0  0  0
 79152  1  0  0  0
 80 83  1  0  0  0
 80153  1  0  0  0
 80154  1  0  0  0
 81155  1  0  0  0
 81156  1  0  0  0
 82157  1  0  0  0
M  ISO  4   1 100  68 101  81 101  83 100
M  END
> <chiral flag>
0

> <version>
0

> <s_m_source_file>
/data/baiqing/PycharmProjects/Reinvent-master-3.2/result/LINK_invent/BTK/process_docking_weight1_custom_product_contain_oxygen_bond_distance_aromatic_linkinvent_7_9_3/rearranged_h_0098.sdf

> <i_m_source_file_index>
68

> <r_mmod_Potential_Energy-OPLS-2005>
200.479476928711

> <r_mmod_Stretch_Energy-OPLS-2005>
94.6767807006836

> <r_mmod_Bend_Energy-OPLS-2005>
145.796646118164

> <r_mmod_Torsional_Energy-OPLS-2005>
310.268890380859

> <r_mmod_Improper_Torsional_Energy-OPLS-2005>
3.28334140777588

> <r_mmod_Van_der_Waal_Energy-OPLS-2005>
145.902786254883

> <r_mmod_Electrostatic_Energy-OPLS-2005>
-338.6005859375

> <r_mmod_Solvation_Energy-OPLS-2005>
-207.015899658203

> <b_mmod_Minimization_Converged-OPLS-2005>
0

> <r_mmod_RMS_Derivative-OPLS-2005>
1.14169812202454

$$$$
68
                    3D
 Structure written by MMmdl.
153161  0  0  1  0            999 V2000
  -30.5970  -14.7410   20.4847 C   0  0  0  0  0  0
  -30.4360  -12.4583   19.4652 C   0  0  0  0  0  0
  -29.5124  -12.5230   18.2296 C   0  0  0  0  0  0
  -28.0370  -12.3394   18.6415 C   0  0  0  0  0  0
  -27.6420  -13.2266   19.8508 C   0  0  2  0  0  0
  -28.6863  -13.1471   20.9842 C   0  0  0  0  0  0
  -25.2511  -13.8197   20.5652 C   0  0  0  0  0  0
  -24.1804  -13.0442   20.9178 C   0  0  0  0  0  0
  -24.6417  -11.6920   20.8764 C   0  0  0  0  0  0
  -23.9096  -10.4289   21.0429 C   0  0  0  0  0  0
  -24.3651   -9.4198   21.9196 C   0  0  0  0  0  0
  -23.6314   -8.2242   22.0782 C   0  0  0  0  0  0
  -22.4292   -8.0280   21.3565 C   0  0  0  0  0  0
  -21.9924   -9.0259   20.4655 C   0  0  0  0  0  0
  -22.7276  -10.2136   20.3065 C   0  0  0  0  0  0
  -21.6835   -6.0728   22.5288 C   0  0  0  0  0  0
  -21.4015   -6.5654   23.8217 C   0  0  0  0  0  0
  -21.3656   -5.6807   24.9180 C   0  0  0  0  0  0
  -21.6053   -4.3079   24.7213 C   0  0  0  0  0  0
  -21.8817   -3.8156   23.4341 C   0  0  0  0  0  0
  -21.9194   -4.6963   22.3399 C   0  0  0  0  0  0
  -22.7818  -13.5210   21.1820 C   0  0  0  0  0  0
  -22.1658   -4.2162   21.0972 F   0  0  0  0  0  0
  -21.5620   -3.4548   25.7734 F   0  0  0  0  0  0
  -29.9834  -13.5119   20.4013 N   0  0  0  0  0  0
  -26.2936  -12.9395   20.3256 N   0  0  0  0  0  0
  -25.9337  -11.6549   20.5736 N   0  0  0  0  0  0
  -22.0466  -12.8216   22.0385 N   0  0  0  0  0  0
  -25.4176  -15.1917   20.4044 N   0  0  0  0  0  0
  -31.7929  -14.8463   20.1928 O   0  0  0  0  0  0
  -21.6639   -6.8888   21.4260 O   0  0  0  0  0  0
  -22.3493  -14.5487   20.6635 O   0  0  0  0  0  0
  -24.6308  -31.8549   23.1957 C   0  0  0  0  0  0
  -25.9142  -32.4748   23.8299 C   0  0  1  0  0  0
  -27.2316  -27.2605   20.1563 C   0  0  0  0  0  0
  -25.5951  -33.8539   24.2238 N   0  0  0  0  0  0
  -23.4281  -30.4734   21.5370 C   0  0  2  0  0  0
  -24.8812  -28.9081   20.1158 C   0  0  0  0  0  0
  -22.7483  -29.4599   22.4901 C   0  0  0  0  0  0
  -18.0293  -28.1374   22.8471 C   0  0  0  0  0  0
  -24.1506  -36.7273   23.2638 C   0  0  0  0  0  0
  -25.9709  -30.7661   21.3753 C   0  0  0  0  0  0
  -26.0486  -29.3849   20.7270 C   0  0  0  0  0  0
  -27.2283  -28.5751   20.7310 C   0  0  0  0  0  0
  -26.0459  -26.8414   19.5207 C   0  0  0  0  0  0
  -24.8844  -27.6438   19.5003 C   0  0  0  0  0  0
  -23.6498  -29.7965   20.1572 C   0  0  0  0  0  0
  -25.4132  -36.3060   24.0321 C   0  0  1  0  0  0
  -20.5895  -28.3688   23.1262 C   0  0  2  0  0  0
  -20.6783  -26.9407   22.5410 C   0  0  0  0  0  0
  -19.5773  -26.6373   21.5204 C   0  0  0  0  0  0
  -18.1941  -26.7916   22.1609 C   0  0  0  0  0  0
  -19.1547  -28.8849   23.2861 C   0  0  0  0  0  0
  -18.9463  -30.1455   23.8874 C   0  0  0  0  0  0
  -17.6464  -30.6578   24.0555 C   0  0  0  0  0  0
  -25.9068  -34.9426   23.5079 C   0  0  0  0  0  0
  -16.5359  -29.9066   23.6335 C   0  0  0  0  0  0
  -16.7277  -28.6489   23.0339 C   0  0  0  0  0  0
  -26.4519  -31.6555   25.0673 C   0  0  0  0  0  0
  -25.3756  -31.3677   26.1398 C   0  0  0  0  0  0
  -27.0374  -30.2980   24.6137 C   0  0  0  0  0  0
  -27.6080  -32.4275   25.7461 C   0  0  0  0  0  0
  -27.5585  -37.1797   24.8458 C   0  0  0  0  0  0
  -21.4185  -29.3032   22.3630 N   0  0  0  0  0  0
  -26.4303  -37.3767   23.9389 N   0  0  0  0  0  0
  -24.6949  -31.0508   22.0931 N   0  0  0  0  0  0
  -23.4176  -28.8139   23.3016 O   0  0  0  0  0  0
  -28.3440  -26.3927   20.1543 O   0  0  0  0  0  0
  -26.5611  -34.8912   22.4627 O   0  0  0  0  0  0
  -23.5461  -32.1357   23.7263 O   0  0  0  0  0  0
  -30.7362  -20.0507   21.5144 C   0  0  0  0  0  0
  -29.3247  -18.4281   20.3733 C   0  0  0  0  0  0
  -31.2020  -17.6344   21.6949 C   0  0  0  0  0  0
  -29.6212  -19.8263   20.6766 C   0  0  0  0  0  0
  -31.5029  -18.9780   22.0183 C   0  0  0  0  0  0
  -30.1075  -17.2999   20.8638 C   0  0  0  0  0  0
  -28.8777  -21.0476   20.0454 C   0  0  0  0  0  0
  -28.5322  -23.6538   19.8924 C   0  0  0  0  0  0
  -28.2545  -25.0102   20.7459 C   0  0  0  0  0  0
  -32.5872  -19.2572   22.8470 N   0  0  0  0  0  0
  -29.7874  -15.8647   20.6271 N   0  0  0  0  0  0
  -28.9463  -22.3342   20.5680 N   0  0  0  0  0  0
  -28.2248  -20.8452   19.0207 O   0  0  0  0  0  0
  -31.4791  -12.5890   19.1684 H   0  0  0  0  0  0
  -30.3769  -11.4758   19.9362 H   0  0  0  0  0  0
  -29.8001  -11.7680   17.4974 H   0  0  0  0  0  0
  -29.6324  -13.4879   17.7350 H   0  0  0  0  0  0
  -27.8911  -11.2866   18.8881 H   0  0  0  0  0  0
  -27.3845  -12.5442   17.7926 H   0  0  0  0  0  0
  -27.6375  -14.2518   19.4803 H   0  0  0  0  0  0
  -28.7283  -12.1454   21.4110 H   0  0  0  0  0  0
  -28.4227  -13.8168   21.8061 H   0  0  0  0  0  0
  -25.2808   -9.5642   22.4749 H   0  0  0  0  0  0
  -24.0005   -7.4625   22.7519 H   0  0  0  0  0  0
  -21.0846   -8.8783   19.8950 H   0  0  0  0  0  0
  -22.3754  -10.9669   19.6165 H   0  0  0  0  0  0
  -21.2019   -7.6171   23.9726 H   0  0  0  0  0  0
  -21.1482   -6.0541   25.9093 H   0  0  0  0  0  0
  -22.0603   -2.7614   23.2840 H   0  0  0  0  0  0
  -22.4090  -11.9900   22.4786 H   0  0  0  0  0  0
  -21.1089  -13.1254   22.2592 H   0  0  0  0  0  0
  -24.6433  -15.8398   20.5003 H   0  0  0  0  0  0
  -26.2557  -15.6342   20.0512 H   0  0  0  0  0  0
  -26.7188  -32.5407   23.1017 H   0  0  0  0  0  0
  -25.0178  -33.9687   25.0433 H   0  0  0  0  0  0
  -22.7268  -31.2959   21.3873 H   0  0  0  0  0  0
  -23.3781  -35.9599   23.3298 H   0  0  0  0  0  0
  -24.3596  -36.8894   22.2050 H   0  0  0  0  0  0
  -23.7259  -37.6469   23.6658 H   0  0  0  0  0  0
  -26.1065  -31.5214   20.6004 H   0  0  0  0  0  0
  -26.8500  -30.8206   22.0062 H   0  0  0  0  0  0
  -28.1232  -28.9383   21.2162 H   0  0  0  0  0  0
  -26.0214  -25.8723   19.0427 H   0  0  0  0  0  0
  -23.9938  -27.2726   19.0124 H   0  0  0  0  0  0
  -23.7727  -30.5685   19.3978 H   0  0  0  0  0  0
  -22.7683  -29.2267   19.8549 H   0  0  0  0  0  0
  -25.1334  -36.1902   25.0815 H   0  0  0  0  0  0
  -21.0001  -28.3284   24.1379 H   0  0  0  0  0  0
  -20.5692  -26.2297   23.3607 H   0  0  0  0  0  0
  -21.6656  -26.7427   22.1201 H   0  0  0  0  0  0
  -19.6935  -25.6282   21.1230 H   0  0  0  0  0  0
  -19.6719  -27.3186   20.6736 H   0  0  0  0  0  0
  -17.4219  -26.6655   21.4004 H   0  0  0  0  0  0
  -18.0341  -26.0060   22.9006 H   0  0  0  0  0  0
  -19.7943  -30.7269   24.2224 H   0  0  0  0  0  0
  -17.5021  -31.6262   24.5140 H   0  0  0  0  0  0
  -15.5353  -30.2949   23.7687 H   0  0  0  0  0  0
  -15.8677  -28.0812   22.7036 H   0  0  0  0  0  0
  -24.5956  -30.7002   25.7711 H   0  0  0  0  0  0
  -24.8926  -32.2834   26.4817 H   0  0  0  0  0  0
  -25.8105  -30.8858   27.0165 H   0  0  0  0  0  0
  -26.2940  -29.6702   24.1216 H   0  0  0  0  0  0
  -27.4125  -29.7270   25.4638 H   0  0  0  0  0  0
  -27.8788  -30.4264   23.9327 H   0  0  0  0  0  0
  -27.2707  -33.3583   26.2032 H   0  0  0  0  0  0
  -28.3917  -32.6807   25.0305 H   0  0  0  0  0  0
  -28.0714  -31.8378   26.5382 H   0  0  0  0  0  0
  -28.2603  -38.0100   24.7521 H   0  0  0  0  0  0
  -28.1089  -36.2622   24.6292 H   0  0  0  0  0  0
  -27.2282  -37.1447   25.8860 H   0  0  0  0  0  0
  -20.9353  -29.8754   21.6840 H   0  0  0  0  0  0
  -26.0180  -38.2840   24.1403 H   0  0  0  0  0  0
  -31.0230  -21.0641   21.7559 H   0  0  0  0  0  0
  -28.4838  -18.2226   19.7274 H   0  0  0  0  0  0
  -31.8169  -16.8456   22.1075 H   0  0  0  0  0  0
  -29.3340  -23.8778   19.1878 H   0  0  0  0  0  0
  -27.6509  -23.4664   19.2774 H   0  0  0  0  0  0
  -28.9963  -25.0236   21.5473 H   0  0  0  0  0  0
  -27.2992  -24.9109   21.2633 H   0  0  0  0  0  0
  -32.6757  -20.1786   23.2660 H   0  0  0  0  0  0
  -32.9918  -18.5174   23.4127 H   0  0  0  0  0  0
  -28.8006  -15.6565   20.5949 H   0  0  0  0  0  0
  -29.4516  -22.4241   21.4386 H   0  0  0  0  0  0
  1 25  1  0  0  0
  1 30  2  0  0  0
  1 81  1  0  0  0
  2  3  1  0  0  0
  2 25  1  0  0  0
  2 84  1  0  0  0
  2 85  1  0  0  0
  3  4  1  0  0  0
  3 86  1  0  0  0
  3 87  1  0  0  0
  4  5  1  0  0  0
  4 88  1  0  0  0
  4 89  1  0  0  0
  5  6  1  0  0  0
  5 26  1  0  0  0
  5 90  1  0  0  0
  6 25  1  0  0  0
  6 91  1  0  0  0
  6 92  1  0  0  0
  7  8  2  0  0  0
  7 26  1  0  0  0
  7 29  1  0  0  0
  8  9  1  0  0  0
  8 22  1  0  0  0
  9 10  1  0  0  0
  9 27  2  0  0  0
 10 11  2  0  0  0
 10 15  1  0  0  0
 11 12  1  0  0  0
 11 93  1  0  0  0
 12 13  2  0  0  0
 12 94  1  0  0  0
 13 14  1  0  0  0
 13 31  1  0  0  0
 14 15  2  0  0  0
 14 95  1  0  0  0
 15 96  1  0  0  0
 16 17  2  0  0  0
 16 21  1  0  0  0
 16 31  1  0  0  0
 17 18  1  0  0  0
 17 97  1  0  0  0
 18 19  2  0  0  0
 18 98  1  0  0  0
 19 20  1  0  0  0
 19 24  1  0  0  0
 20 21  2  0  0  0
 20 99  1  0  0  0
 21 23  1  0  0  0
 22 28  1  0  0  0
 22 32  2  0  0  0
 26 27  1  0  0  0
 28100  1  0  0  0
 28101  1  0  0  0
 29102  1  0  0  0
 29103  1  0  0  0
 33 34  1  0  0  0
 33 66  1  0  0  0
 33 70  2  0  0  0
 34 36  1  0  0  0
 34 59  1  0  0  0
 34104  1  0  0  0
 35 44  2  0  0  0
 35 45  1  0  0  0
 35 68  1  0  0  0
 36 56  1  0  0  0
 36105  1  0  0  0
 37 39  1  0  0  0
 37 47  1  0  0  0
 37 66  1  0  0  0
 37106  1  0  0  0
 38 43  2  0  0  0
 38 46  1  0  0  0
 38 47  1  0  0  0
 39 64  1  0  0  0
 39 67  2  0  0  0
 40 52  1  0  0  0
 40 53  2  0  0  0
 40 58  1  0  0  0
 41107  1  0  0  0
 41108  1  0  0  0
 41109  1  0  0  0
 41 48  1  0  0  0
 42 43  1  0  0  0
 42 66  1  0  0  0
 42110  1  0  0  0
 42111  1  0  0  0
 43 44  1  0  0  0
 44112  1  0  0  0
 45 46  2  0  0  0
 45113  1  0  0  0
 46114  1  0  0  0
 47115  1  0  0  0
 47116  1  0  0  0
 48 56  1  0  0  0
 48 65  1  0  0  0
 48117  1  0  0  0
 49 50  1  0  0  0
 49 53  1  0  0  0
 49 64  1  0  0  0
 49118  1  0  0  0
 50 51  1  0  0  0
 50119  1  0  0  0
 50120  1  0  0  0
 51 52  1  0  0  0
 51121  1  0  0  0
 51122  1  0  0  0
 52123  1  0  0  0
 52124  1  0  0  0
 53 54  1  0  0  0
 54 55  2  0  0  0
 54125  1  0  0  0
 55 57  1  0  0  0
 55126  1  0  0  0
 56 69  2  0  0  0
 57 58  2  0  0  0
 57127  1  0  0  0
 58128  1  0  0  0
 59 60  1  0  0  0
 59 61  1  0  0  0
 59 62  1  0  0  0
 60129  1  0  0  0
 60130  1  0  0  0
 60131  1  0  0  0
 61132  1  0  0  0
 61133  1  0  0  0
 61134  1  0  0  0
 62135  1  0  0  0
 62136  1  0  0  0
 62137  1  0  0  0
 63 65  1  0  0  0
 63138  1  0  0  0
 63139  1  0  0  0
 63140  1  0  0  0
 64141  1  0  0  0
 65142  1  0  0  0
 68 79  1  0  0  0
 71 74  2  0  0  0
 71 75  1  0  0  0
 71143  1  0  0  0
 72 74  1  0  0  0
 72 76  2  0  0  0
 72144  1  0  0  0
 73 75  2  0  0  0
 73 76  1  0  0  0
 73145  1  0  0  0
 74 77  1  0  0  0
 75 80  1  0  0  0
 76 81  1  0  0  0
 77 82  1  0  0  0
 77 83  2  0  0  0
 78 79  1  0  0  0
 78 82  1  0  0  0
 78146  1  0  0  0
 78147  1  0  0  0
 79148  1  0  0  0
 79149  1  0  0  0
 80150  1  0  0  0
 80151  1  0  0  0
 81152  1  0  0  0
 82153  1  0  0  0
M  ISO  4   1 100  68 101  79 101  81 100
M  END
> <chiral flag>
0

> <version>
0

> <s_m_source_file>
/data/baiqing/PycharmProjects/Reinvent-master-3.2/result/LINK_invent/BTK/process_docking_weight1_custom_product_contain_oxygen_bond_distance_aromatic_linkinvent_7_9_3/rearranged_h_0098.sdf

> <i_m_source_file_index>
69

> <r_mmod_Potential_Energy-OPLS-2005>
56.7237396240234

> <r_mmod_Stretch_Energy-OPLS-2005>
124.515548706055

> <r_mmod_Bend_Energy-OPLS-2005>
164.755142211914

> <r_mmod_Torsional_Energy-OPLS-2005>
254.826797485352

> <r_mmod_Improper_Torsional_Energy-OPLS-2005>
9.56437969207764

> <r_mmod_Van_der_Waal_Energy-OPLS-2005>
132.663848876953

> <r_mmod_Electrostatic_Energy-OPLS-2005>
-460.572387695312

> <r_mmod_Solvation_Energy-OPLS-2005>
-250.966339111328

> <b_mmod_Minimization_Converged-OPLS-2005>
0

> <r_mmod_RMS_Derivative-OPLS-2005>
3.5171811580658

$$$$
69
                    3D
 Structure written by MMmdl.
158166  0  0  1  0            999 V2000
  -30.6348  -14.6905   20.3713 C   0  0  0  0  0  0
  -30.4288  -12.3783   19.4827 C   0  0  0  0  0  0
  -29.5147  -12.3708   18.2391 C   0  0  0  0  0  0
  -28.0216  -12.3030   18.6416 C   0  0  0  0  0  0
  -27.6348  -13.2125   19.8459 C   0  0  2  0  0  0
  -28.6905  -13.1739   20.9706 C   0  0  0  0  0  0
  -25.2514  -13.8152   20.5753 C   0  0  0  0  0  0
  -24.1777  -13.0433   20.9248 C   0  0  0  0  0  0
  -24.6346  -11.6900   20.8797 C   0  0  0  0  0  0
  -23.9041  -10.4290   21.0449 C   0  0  0  0  0  0
  -24.3610   -9.4195   21.9203 C   0  0  0  0  0  0
  -23.6290   -8.2231   22.0731 C   0  0  0  0  0  0
  -22.4272   -8.0281   21.3524 C   0  0  0  0  0  0
  -21.9916   -9.0269   20.4637 C   0  0  0  0  0  0
  -22.7242  -10.2154   20.3065 C   0  0  0  0  0  0
  -21.6830   -6.0761   22.5306 C   0  0  0  0  0  0
  -21.4002   -6.5662   23.8251 C   0  0  0  0  0  0
  -21.3628   -5.6799   24.9202 C   0  0  0  0  0  0
  -21.6029   -4.3065   24.7245 C   0  0  0  0  0  0
  -21.8811   -3.8174   23.4357 C   0  0  0  0  0  0
  -21.9170   -4.6990   22.3422 C   0  0  0  0  0  0
  -22.7806  -13.5213   21.1872 C   0  0  0  0  0  0
  -22.1629   -4.2184   21.0993 F   0  0  0  0  0  0
  -21.5616   -3.4534   25.7742 F   0  0  0  0  0  0
  -29.9889  -13.4785   20.3593 N   0  0  0  0  0  0
  -26.2909  -12.9306   20.3354 N   0  0  0  0  0  0
  -25.9265  -11.6476   20.5833 N   0  0  0  0  0  0
  -22.0443  -12.8242   22.0457 N   0  0  0  0  0  0
  -25.4254  -15.1889   20.4163 N   0  0  0  0  0  0
  -31.8605  -14.7467   20.2360 O   0  0  0  0  0  0
  -21.6615   -6.8893   21.4252 O   0  0  0  0  0  0
  -22.3480  -14.5486   20.6642 O   0  0  0  0  0  0
  -24.6262  -31.8602   23.2037 C   0  0  0  0  0  0
  -25.9113  -32.4783   23.8357 C   0  0  1  0  0  0
  -27.2183  -27.3103   20.1277 C   0  0  0  0  0  0
  -25.5941  -33.8587   24.2287 N   0  0  0  0  0  0
  -23.4202  -30.4860   21.5446 C   0  0  2  0  0  0
  -24.8675  -28.9451   20.1066 C   0  0  0  0  0  0
  -22.7479  -29.4638   22.4921 C   0  0  0  0  0  0
  -18.0290  -28.1394   22.8483 C   0  0  0  0  0  0
  -24.1486  -36.7287   23.2635 C   0  0  0  0  0  0
  -25.9616  -30.7887   21.3788 C   0  0  0  0  0  0
  -26.0351  -29.4170   20.7185 C   0  0  0  0  0  0
  -27.2134  -28.6114   20.7207 C   0  0  0  0  0  0
  -26.0327  -26.9049   19.4693 C   0  0  0  0  0  0
  -24.8696  -27.6964   19.4681 C   0  0  0  0  0  0
  -23.6359  -29.8263   20.1579 C   0  0  0  0  0  0
  -25.4113  -36.3077   24.0325 C   0  0  1  0  0  0
  -20.5887  -28.3712   23.1271 C   0  0  2  0  0  0
  -20.6786  -26.9439   22.5410 C   0  0  0  0  0  0
  -19.5762  -26.6397   21.5219 C   0  0  0  0  0  0
  -18.1934  -26.7931   22.1623 C   0  0  0  0  0  0
  -19.1534  -28.8866   23.2871 C   0  0  0  0  0  0
  -18.9466  -30.1463   23.8900 C   0  0  0  0  0  0
  -17.6467  -30.6590   24.0575 C   0  0  0  0  0  0
  -25.9062  -34.9453   23.5102 C   0  0  0  0  0  0
  -16.5362  -29.9097   23.6331 C   0  0  0  0  0  0
  -16.7275  -28.6513   23.0349 C   0  0  0  0  0  0
  -26.4521  -31.6574   25.0713 C   0  0  0  0  0  0
  -25.3772  -31.3700   26.1452 C   0  0  0  0  0  0
  -27.0364  -30.2992   24.6161 C   0  0  0  0  0  0
  -27.6077  -32.4320   25.7480 C   0  0  0  0  0  0
  -27.5580  -37.1791   24.8460 C   0  0  0  0  0  0
  -21.4191  -29.3061   22.3661 N   0  0  0  0  0  0
  -26.4285  -37.3782   23.9417 N   0  0  0  0  0  0
  -24.6876  -31.0615   22.0991 N   0  0  0  0  0  0
  -23.4188  -28.8185   23.3012 O   0  0  0  0  0  0
  -28.3172  -26.4357   20.2145 O   0  0  0  0  0  0
  -26.5625  -34.8921   22.4664 O   0  0  0  0  0  0
  -23.5425  -32.1414   23.7358 O   0  0  0  0  0  0
  -30.7209  -19.4974   20.1208 C   0  0  0  0  0  0
  -30.8376  -18.1026   19.8830 C   0  0  0  0  0  0
  -28.9888  -17.6897   21.3621 C   0  0  0  0  0  0
  -29.7356  -20.0434   20.9813 C   0  0  0  0  0  0
  -29.9682  -17.1548   20.4858 C   0  0  0  0  0  0
  -28.8621  -19.1041   21.6147 C   0  0  0  0  0  0
  -29.1110  -23.9853   20.7060 C   0  0  0  0  0  0
  -29.6766  -15.8387   18.5071 C   0  0  0  0  0  0
  -26.9421  -18.7238   23.0191 C   0  0  0  0  0  0
  -29.7789  -21.5844   21.3306 C   0  0  0  0  0  0
  -28.0398  -24.9764   20.0966 C   0  0  0  0  0  0
  -28.9480  -22.6199   20.6191 N   0  0  0  0  0  0
  -29.8847  -15.7868   19.9675 N   0  0  0  0  0  0
  -30.0876  -24.4614   21.2899 O   0  0  0  0  0  0
  -27.9007  -19.6206   22.4622 O   0  0  0  0  0  0
  -31.4711  -12.4823   19.1813 H   0  0  0  0  0  0
  -30.3576  -11.4267   20.0121 H   0  0  0  0  0  0
  -29.7604  -11.5006   17.6280 H   0  0  0  0  0  0
  -29.7265  -13.2211   17.5964 H   0  0  0  0  0  0
  -27.8227  -11.2632   18.9022 H   0  0  0  0  0  0
  -27.3820  -12.5167   17.7842 H   0  0  0  0  0  0
  -27.5979  -14.2287   19.4698 H   0  0  0  0  0  0
  -28.7127  -12.1982   21.4614 H   0  0  0  0  0  0
  -28.4519  -13.9060   21.7431 H   0  0  0  0  0  0
  -25.2765   -9.5663   22.4774 H   0  0  0  0  0  0
  -23.9984   -7.4597   22.7425 H   0  0  0  0  0  0
  -21.0855   -8.8836   19.8941 H   0  0  0  0  0  0
  -22.3732  -10.9717   19.6169 H   0  0  0  0  0  0
  -21.2025   -7.6172   23.9795 H   0  0  0  0  0  0
  -21.1424   -6.0517   25.9109 H   0  0  0  0  0  0
  -22.0612   -2.7644   23.2869 H   0  0  0  0  0  0
  -22.4014  -11.9904   22.4891 H   0  0  0  0  0  0
  -21.1059  -13.1250   22.2638 H   0  0  0  0  0  0
  -24.6578  -15.8457   20.5184 H   0  0  0  0  0  0
  -26.2847  -15.6280   20.1115 H   0  0  0  0  0  0
  -26.7167  -32.5446   23.1088 H   0  0  0  0  0  0
  -25.0127  -33.9742   25.0458 H   0  0  0  0  0  0
  -22.7147  -31.3067   21.4031 H   0  0  0  0  0  0
  -23.3757  -35.9612   23.3292 H   0  0  0  0  0  0
  -24.3586  -36.8918   22.2053 H   0  0  0  0  0  0
  -23.7233  -37.6481   23.6673 H   0  0  0  0  0  0
  -26.0968  -31.5536   20.6129 H   0  0  0  0  0  0
  -26.8391  -30.8333   22.0115 H   0  0  0  0  0  0
  -28.1047  -28.9663   21.2192 H   0  0  0  0  0  0
  -25.9733  -25.9578   18.9550 H   0  0  0  0  0  0
  -23.9780  -27.3380   18.9717 H   0  0  0  0  0  0
  -23.7619  -30.6058   19.4055 H   0  0  0  0  0  0
  -22.7553  -29.2594   19.8498 H   0  0  0  0  0  0
  -25.1298  -36.1922   25.0821 H   0  0  0  0  0  0
  -20.9978  -28.3295   24.1392 H   0  0  0  0  0  0
  -20.5708  -26.2341   23.3622 H   0  0  0  0  0  0
  -21.6654  -26.7485   22.1191 H   0  0  0  0  0  0
  -19.6942  -25.6306   21.1260 H   0  0  0  0  0  0
  -19.6689  -27.3210   20.6747 H   0  0  0  0  0  0
  -17.4218  -26.6680   21.4006 H   0  0  0  0  0  0
  -18.0328  -26.0063   22.9004 H   0  0  0  0  0  0
  -19.7951  -30.7273   24.2262 H   0  0  0  0  0  0
  -17.5034  -31.6268   24.5186 H   0  0  0  0  0  0
  -15.5365  -30.3014   23.7649 H   0  0  0  0  0  0
  -15.8666  -28.0844   22.7059 H   0  0  0  0  0  0
  -24.5936  -30.7067   25.7771 H   0  0  0  0  0  0
  -24.8998  -32.2871   26.4912 H   0  0  0  0  0  0
  -25.8119  -30.8842   27.0196 H   0  0  0  0  0  0
  -26.2914  -29.6720   24.1246 H   0  0  0  0  0  0
  -27.4126  -29.7272   25.4653 H   0  0  0  0  0  0
  -27.8772  -30.4269   23.9336 H   0  0  0  0  0  0
  -27.2677  -33.3624   26.2041 H   0  0  0  0  0  0
  -28.3892  -32.6872   25.0309 H   0  0  0  0  0  0
  -28.0742  -31.8460   26.5409 H   0  0  0  0  0  0
  -28.2575  -38.0106   24.7547 H   0  0  0  0  0  0
  -28.1097  -36.2648   24.6236 H   0  0  0  0  0  0
  -27.2313  -37.1369   25.8862 H   0  0  0  0  0  0
  -20.9384  -29.8772   21.6854 H   0  0  0  0  0  0
  -26.0158  -38.2848   24.1453 H   0  0  0  0  0  0
  -31.4189  -20.1627   19.6302 H   0  0  0  0  0  0
  -31.5831  -17.7657   19.1762 H   0  0  0  0  0  0
  -28.3015  -16.9833   21.8036 H   0  0  0  0  0  0
  -30.6168  -15.6999   17.9686 H   0  0  0  0  0  0
  -29.2685  -16.7980   18.1872 H   0  0  0  0  0  0
  -28.9630  -15.1087   18.1454 H   0  0  0  0  0  0
  -26.1911  -19.2809   23.5786 H   0  0  0  0  0  0
  -27.4124  -18.0184   23.7062 H   0  0  0  0  0  0
  -26.4123  -18.1592   22.2476 H   0  0  0  0  0  0
  -30.8218  -21.8896   21.2283 H   0  0  0  0  0  0
  -29.5722  -21.6788   22.3972 H   0  0  0  0  0  0
  -27.1052  -24.7487   20.6131 H   0  0  0  0  0  0
  -27.9025  -24.7208   19.0456 H   0  0  0  0  0  0
  -28.1450  -22.2783   20.1106 H   0  0  0  0  0  0
  1 25  1  0  0  0
  1 30  2  0  0  0
  1 83  1  0  0  0
  2  3  1  0  0  0
  2 25  1  0  0  0
  2 86  1  0  0  0
  2 87  1  0  0  0
  3  4  1  0  0  0
  3 88  1  0  0  0
  3 89  1  0  0  0
  4  5  1  0  0  0
  4 90  1  0  0  0
  4 91  1  0  0  0
  5  6  1  0  0  0
  5 26  1  0  0  0
  5 92  1  0  0  0
  6 25  1  0  0  0
  6 93  1  0  0  0
  6 94  1  0  0  0
  7  8  2  0  0  0
  7 26  1  0  0  0
  7 29  1  0  0  0
  8  9  1  0  0  0
  8 22  1  0  0  0
  9 10  1  0  0  0
  9 27  2  0  0  0
 10 11  2  0  0  0
 10 15  1  0  0  0
 11 12  1  0  0  0
 11 95  1  0  0  0
 12 13  2  0  0  0
 12 96  1  0  0  0
 13 14  1  0  0  0
 13 31  1  0  0  0
 14 15  2  0  0  0
 14 97  1  0  0  0
 15 98  1  0  0  0
 16 17  2  0  0  0
 16 21  1  0  0  0
 16 31  1  0  0  0
 17 18  1  0  0  0
 17 99  1  0  0  0
 18 19  2  0  0  0
 18100  1  0  0  0
 19 20  1  0  0  0
 19 24  1  0  0  0
 20 21  2  0  0  0
 20101  1  0  0  0
 21 23  1  0  0  0
 22 28  1  0  0  0
 22 32  2  0  0  0
 26 27  1  0  0  0
 28102  1  0  0  0
 28103  1  0  0  0
 29104  1  0  0  0
 29105  1  0  0  0
 33 34  1  0  0  0
 33 66  1  0  0  0
 33 70  2  0  0  0
 34 36  1  0  0  0
 34 59  1  0  0  0
 34106  1  0  0  0
 35 44  2  0  0  0
 35 45  1  0  0  0
 35 68  1  0  0  0
 36 56  1  0  0  0
 36107  1  0  0  0
 37 39  1  0  0  0
 37 47  1  0  0  0
 37 66  1  0  0  0
 37108  1  0  0  0
 38 43  2  0  0  0
 38 46  1  0  0  0
 38 47  1  0  0  0
 39 64  1  0  0  0
 39 67  2  0  0  0
 40 52  1  0  0  0
 40 53  2  0  0  0
 40 58  1  0  0  0
 41109  1  0  0  0
 41110  1  0  0  0
 41111  1  0  0  0
 41 48  1  0  0  0
 42 43  1  0  0  0
 42 66  1  0  0  0
 42112  1  0  0  0
 42113  1  0  0  0
 43 44  1  0  0  0
 44114  1  0  0  0
 45 46  2  0  0  0
 45115  1  0  0  0
 46116  1  0  0  0
 47117  1  0  0  0
 47118  1  0  0  0
 48 56  1  0  0  0
 48 65  1  0  0  0
 48119  1  0  0  0
 49 50  1  0  0  0
 49 53  1  0  0  0
 49 64  1  0  0  0
 49120  1  0  0  0
 50 51  1  0  0  0
 50121  1  0  0  0
 50122  1  0  0  0
 51 52  1  0  0  0
 51123  1  0  0  0
 51124  1  0  0  0
 52125  1  0  0  0
 52126  1  0  0  0
 53 54  1  0  0  0
 54 55  2  0  0  0
 54127  1  0  0  0
 55 57  1  0  0  0
 55128  1  0  0  0
 56 69  2  0  0  0
 57 58  2  0  0  0
 57129  1  0  0  0
 58130  1  0  0  0
 59 60  1  0  0  0
 59 61  1  0  0  0
 59 62  1  0  0  0
 60131  1  0  0  0
 60132  1  0  0  0
 60133  1  0  0  0
 61134  1  0  0  0
 61135  1  0  0  0
 61136  1  0  0  0
 62137  1  0  0  0
 62138  1  0  0  0
 62139  1  0  0  0
 63 65  1  0  0  0
 63140  1  0  0  0
 63141  1  0  0  0
 63142  1  0  0  0
 64143  1  0  0  0
 65144  1  0  0  0
 68 81  1  0  0  0
 71 72  2  0  0  0
 71 74  1  0  0  0
 71145  1  0  0  0
 72 75  1  0  0  0
 72146  1  0  0  0
 73 75  2  0  0  0
 73 76  1  0  0  0
 73147  1  0  0  0
 74 76  2  0  0  0
 74 80  1  0  0  0
 75 83  1  0  0  0
 76 85  1  0  0  0
 77 81  1  0  0  0
 77 82  1  0  0  0
 77 84  2  0  0  0
 78 83  1  0  0  0
 78148  1  0  0  0
 78149  1  0  0  0
 78150  1  0  0  0
 79 85  1  0  0  0
 79151  1  0  0  0
 79152  1  0  0  0
 79153  1  0  0  0
 80 82  1  0  0  0
 80154  1  0  0  0
 80155  1  0  0  0
 81156  1  0  0  0
 81157  1  0  0  0
 82158  1  0  0  0
M  ISO  4   1 100  68 101  81 101  83 100
M  END
> <chiral flag>
0

> <version>
0

> <s_m_source_file>
/data/baiqing/PycharmProjects/Reinvent-master-3.2/result/LINK_invent/BTK/process_docking_weight1_custom_product_contain_oxygen_bond_distance_aromatic_linkinvent_7_9_3/rearranged_h_0098.sdf

> <i_m_source_file_index>
70

> <r_mmod_Potential_Energy-OPLS-2005>
269.703765869141

> <r_mmod_Stretch_Energy-OPLS-2005>
88.283203125

> <r_mmod_Bend_Energy-OPLS-2005>
152.224105834961

> <r_mmod_Torsional_Energy-OPLS-2005>
332.993835449219

> <r_mmod_Improper_Torsional_Energy-OPLS-2005>
25.4507579803467

> <r_mmod_Van_der_Waal_Energy-OPLS-2005>
156.433746337891

> <r_mmod_Electrostatic_Energy-OPLS-2005>
-324.615142822266

> <r_mmod_Solvation_Energy-OPLS-2005>
-237.009765625

> <b_mmod_Minimization_Converged-OPLS-2005>
0

> <r_mmod_RMS_Derivative-OPLS-2005>
3.12594723701477

$$$$
70
                    3D
 Structure written by MMmdl.
162171  0  0  1  0            999 V2000
  -30.6938  -14.4989   20.5452 C   0  0  0  0  0  0
  -30.4177  -12.3157   19.4246 C   0  0  0  0  0  0
  -29.4938  -12.5088   18.2046 C   0  0  0  0  0  0
  -28.0148  -12.3641   18.6174 C   0  0  0  0  0  0
  -27.6564  -13.2102   19.8686 C   0  0  2  0  0  0
  -28.7008  -13.0137   20.9925 C   0  0  0  0  0  0
  -25.2558  -13.8173   20.5642 C   0  0  0  0  0  0
  -24.1824  -13.0442   20.9158 C   0  0  0  0  0  0
  -24.6378  -11.6905   20.8721 C   0  0  0  0  0  0
  -23.9039  -10.4296   21.0392 C   0  0  0  0  0  0
  -24.3593   -9.4227   21.9184 C   0  0  0  0  0  0
  -23.6273   -8.2264   22.0774 C   0  0  0  0  0  0
  -22.4262   -8.0283   21.3564 C   0  0  0  0  0  0
  -21.9884   -9.0246   20.4661 C   0  0  0  0  0  0
  -22.7208  -10.2127   20.3046 C   0  0  0  0  0  0
  -21.6856   -6.0741   22.5291 C   0  0  0  0  0  0
  -21.4017   -6.5649   23.8223 C   0  0  0  0  0  0
  -21.3651   -5.6800   24.9185 C   0  0  0  0  0  0
  -21.6036   -4.3063   24.7235 C   0  0  0  0  0  0
  -21.8816   -3.8156   23.4358 C   0  0  0  0  0  0
  -21.9192   -4.6970   22.3412 C   0  0  0  0  0  0
  -22.7842  -13.5246   21.1819 C   0  0  0  0  0  0
  -22.1644   -4.2158   21.0984 F   0  0  0  0  0  0
  -21.5632   -3.4535   25.7743 F   0  0  0  0  0  0
  -30.0268  -13.3169   20.4309 N   0  0  0  0  0  0
  -26.2991  -12.9339   20.3330 N   0  0  0  0  0  0
  -25.9307  -11.6496   20.5749 N   0  0  0  0  0  0
  -22.0470  -12.8256   22.0374 N   0  0  0  0  0  0
  -25.4260  -15.1881   20.3997 N   0  0  0  0  0  0
  -31.8435  -14.6473   20.1200 O   0  0  0  0  0  0
  -21.6650   -6.8867   21.4247 O   0  0  0  0  0  0
  -22.3534  -14.5555   20.6664 O   0  0  0  0  0  0
  -24.6172  -31.8664   23.2094 C   0  0  0  0  0  0
  -25.9055  -32.4811   23.8407 C   0  0  1  0  0  0
  -27.2316  -27.4209   20.0995 C   0  0  0  0  0  0
  -25.5903  -33.8615   24.2335 N   0  0  0  0  0  0
  -23.4074  -30.4886   21.5501 C   0  0  2  0  0  0
  -24.8543  -28.9541   20.1142 C   0  0  0  0  0  0
  -22.7431  -29.4643   22.4983 C   0  0  0  0  0  0
  -18.0275  -28.1383   22.8488 C   0  0  0  0  0  0
  -24.1484  -36.7310   23.2644 C   0  0  0  0  0  0
  -25.9385  -30.8273   21.3661 C   0  0  0  0  0  0
  -26.0168  -29.4624   20.7098 C   0  0  0  0  0  0
  -27.2131  -28.7054   20.6939 C   0  0  0  0  0  0
  -26.0552  -26.9318   19.4941 C   0  0  0  0  0  0
  -24.8695  -27.6883   19.5019 C   0  0  0  0  0  0
  -23.6178  -29.8220   20.1648 C   0  0  0  0  0  0
  -25.4106  -36.3114   24.0350 C   0  0  1  0  0  0
  -20.5869  -28.3676   23.1308 C   0  0  2  0  0  0
  -20.6762  -26.9407   22.5417 C   0  0  0  0  0  0
  -19.5737  -26.6387   21.5212 C   0  0  0  0  0  0
  -18.1919  -26.7932   22.1616 C   0  0  0  0  0  0
  -19.1527  -28.8845   23.2894 C   0  0  0  0  0  0
  -18.9451  -30.1449   23.8912 C   0  0  0  0  0  0
  -17.6449  -30.6587   24.0572 C   0  0  0  0  0  0
  -25.9032  -34.9474   23.5139 C   0  0  0  0  0  0
  -16.5340  -29.9089   23.6334 C   0  0  0  0  0  0
  -16.7261  -28.6506   23.0354 C   0  0  0  0  0  0
  -26.4472  -31.6600   25.0742 C   0  0  0  0  0  0
  -25.3731  -31.3688   26.1484 C   0  0  0  0  0  0
  -27.0320  -30.3046   24.6133 C   0  0  0  0  0  0
  -27.6053  -32.4321   25.7496 C   0  0  0  0  0  0
  -27.5583  -37.1807   24.8464 C   0  0  0  0  0  0
  -21.4154  -29.3034   22.3717 N   0  0  0  0  0  0
  -26.4292  -37.3793   23.9415 N   0  0  0  0  0  0
  -24.6726  -31.0749   22.1002 N   0  0  0  0  0  0
  -23.4185  -28.8191   23.3050 O   0  0  0  0  0  0
  -28.3678  -26.6383   20.1048 O   0  0  0  0  0  0
  -26.5595  -34.8919   22.4699 O   0  0  0  0  0  0
  -23.5361  -32.1423   23.7478 O   0  0  0  0  0  0
  -30.9865  -19.6909   21.3293 C   0  0  0  0  0  0
  -29.3471  -17.9487   20.8553 C   0  0  0  0  0  0
  -31.6318  -17.3335   21.4304 C   0  0  0  0  0  0
  -29.6694  -19.3313   20.9692 C   0  0  0  0  0  0
  -31.9603  -18.6995   21.5587 C   0  0  0  0  0  0
  -30.3216  -16.9352   21.0696 C   0  0  0  0  0  0
  -28.0866  -23.6115   18.9959 C   0  0  0  0  0  0
  -28.4748  -22.1183   18.9005 C   0  0  0  0  0  0
  -28.9180  -22.9032   21.1038 C   0  0  0  0  0  0
  -28.8660  -24.1553   20.1945 C   0  0  2  0  0  0
  -28.5848  -20.4102   20.7779 C   0  0  0  0  0  0
  -28.2483  -25.4170   20.8669 C   0  0  0  0  0  0
  -33.2496  -19.0792   21.9266 N   0  0  0  0  0  0
  -29.9492  -15.5483   20.9712 N   0  0  0  0  0  0
  -29.0561  -21.7202   20.2102 N   0  3  1  0  0  0
  -31.4641  -12.4041   19.1268 H   0  0  0  0  0  0
  -30.3084  -11.3093   19.8304 H   0  0  0  0  0  0
  -29.7392  -11.7863   17.4250 H   0  0  0  0  0  0
  -29.6644  -13.4950   17.7675 H   0  0  0  0  0  0
  -27.8311  -11.3087   18.8219 H   0  0  0  0  0  0
  -27.3605  -12.6278   17.7855 H   0  0  0  0  0  0
  -27.6896  -14.2548   19.5587 H   0  0  0  0  0  0
  -28.6811  -11.9854   21.3547 H   0  0  0  0  0  0
  -28.4671  -13.6336   21.8601 H   0  0  0  0  0  0
  -25.2738   -9.5721   22.4751 H   0  0  0  0  0  0
  -24.0000   -7.4666   22.7497 H   0  0  0  0  0  0
  -21.0813   -8.8732   19.8959 H   0  0  0  0  0  0
  -22.3660  -10.9640   19.6134 H   0  0  0  0  0  0
  -21.2019   -7.6160   23.9736 H   0  0  0  0  0  0
  -21.1451   -6.0527   25.9084 H   0  0  0  0  0  0
  -22.0594   -2.7620   23.2861 H   0  0  0  0  0  0
  -22.4059  -11.9905   22.4771 H   0  0  0  0  0  0
  -21.1101  -13.1304   22.2569 H   0  0  0  0  0  0
  -24.6500  -15.8351   20.4872 H   0  0  0  0  0  0
  -26.2686  -15.6240   20.0469 H   0  0  0  0  0  0
  -26.7133  -32.5516   23.1184 H   0  0  0  0  0  0
  -25.0088  -33.9774   25.0504 H   0  0  0  0  0  0
  -22.6986  -31.3078   21.4103 H   0  0  0  0  0  0
  -23.3750  -35.9634   23.3304 H   0  0  0  0  0  0
  -24.3584  -36.8922   22.2057 H   0  0  0  0  0  0
  -23.7219  -37.6510   23.6657 H   0  0  0  0  0  0
  -26.0571  -31.5935   20.5991 H   0  0  0  0  0  0
  -26.8237  -30.8769   21.9884 H   0  0  0  0  0  0
  -28.1126  -29.0911   21.1535 H   0  0  0  0  0  0
  -26.0541  -25.9597   19.0231 H   0  0  0  0  0  0
  -23.9768  -27.2911   19.0382 H   0  0  0  0  0  0
  -23.7336  -30.5985   19.4081 H   0  0  0  0  0  0
  -22.7403  -29.2468   19.8643 H   0  0  0  0  0  0
  -25.1278  -36.1985   25.0843 H   0  0  0  0  0  0
  -20.9960  -28.3233   24.1426 H   0  0  0  0  0  0
  -20.5669  -26.2275   23.3605 H   0  0  0  0  0  0
  -21.6625  -26.7454   22.1194 H   0  0  0  0  0  0
  -19.6895  -25.6300   21.1235 H   0  0  0  0  0  0
  -19.6678  -27.3203   20.6749 H   0  0  0  0  0  0
  -17.4190  -26.6705   21.4011 H   0  0  0  0  0  0
  -18.0304  -26.0070   22.9003 H   0  0  0  0  0  0
  -19.7926  -30.7265   24.2287 H   0  0  0  0  0  0
  -17.5004  -31.6266   24.5175 H   0  0  0  0  0  0
  -15.5343  -30.2993   23.7653 H   0  0  0  0  0  0
  -15.8661  -28.0829   22.7068 H   0  0  0  0  0  0
  -24.5900  -30.7050   25.7800 H   0  0  0  0  0  0
  -24.8925  -32.2832   26.4976 H   0  0  0  0  0  0
  -25.8070  -30.8813   27.0224 H   0  0  0  0  0  0
  -26.2868  -29.6780   24.1211 H   0  0  0  0  0  0
  -27.4122  -29.7309   25.4599 H   0  0  0  0  0  0
  -27.8692  -30.4381   23.9273 H   0  0  0  0  0  0
  -27.2688  -33.3619   26.2100 H   0  0  0  0  0  0
  -28.3838  -32.6884   25.0294 H   0  0  0  0  0  0
  -28.0754  -31.8431   26.5382 H   0  0  0  0  0  0
  -28.2597  -38.0113   24.7539 H   0  0  0  0  0  0
  -28.1090  -36.2646   24.6261 H   0  0  0  0  0  0
  -27.2310  -37.1419   25.8871 H   0  0  0  0  0  0
  -20.9338  -29.8738   21.6911 H   0  0  0  0  0  0
  -26.0187  -38.2874   24.1419 H   0  0  0  0  0  0
  -31.2557  -20.7302   21.4506 H   0  0  0  0  0  0
  -28.3341  -17.6645   20.6084 H   0  0  0  0  0  0
  -32.3892  -16.5885   21.6258 H   0  0  0  0  0  0
  -27.0143  -23.6931   19.1809 H   0  0  0  0  0  0
  -28.2981  -24.1604   18.0779 H   0  0  0  0  0  0
  -29.2317  -21.9682   18.1300 H   0  0  0  0  0  0
  -27.6065  -21.5247   18.6140 H   0  0  0  0  0  0
  -27.9812  -22.8312   21.6601 H   0  0  0  0  0  0
  -29.7253  -22.9521   21.8348 H   0  0  0  0  0  0
  -29.8821  -24.3885   19.8740 H   0  0  0  0  0  0
  -28.1153  -20.5675   21.7490 H   0  0  0  0  0  0
  -27.8012  -19.9866   20.1499 H   0  0  0  0  0  0
  -28.7626  -25.5961   21.8115 H   0  0  0  0  0  0
  -27.2139  -25.2027   21.1419 H   0  0  0  0  0  0
  -33.3892  -20.0029   22.3242 H   0  0  0  0  0  0
  -33.8673  -18.3837   22.3356 H   0  0  0  0  0  0
  -28.9799  -15.3294   21.1392 H   0  0  0  0  0  0
  -30.0430  -21.6039   20.0372 H   0  0  0  0  0  0
  1 25  1  0  0  0
  1 30  2  0  0  0
  1 84  1  0  0  0
  2  3  1  0  0  0
  2 25  1  0  0  0
  2 86  1  0  0  0
  2 87  1  0  0  0
  3  4  1  0  0  0
  3 88  1  0  0  0
  3 89  1  0  0  0
  4  5  1  0  0  0
  4 90  1  0  0  0
  4 91  1  0  0  0
  5  6  1  0  0  0
  5 26  1  0  0  0
  5 92  1  0  0  0
  6 25  1  0  0  0
  6 93  1  0  0  0
  6 94  1  0  0  0
  7  8  2  0  0  0
  7 26  1  0  0  0
  7 29  1  0  0  0
  8  9  1  0  0  0
  8 22  1  0  0  0
  9 10  1  0  0  0
  9 27  2  0  0  0
 10 11  2  0  0  0
 10 15  1  0  0  0
 11 12  1  0  0  0
 11 95  1  0  0  0
 12 13  2  0  0  0
 12 96  1  0  0  0
 13 14  1  0  0  0
 13 31  1  0  0  0
 14 15  2  0  0  0
 14 97  1  0  0  0
 15 98  1  0  0  0
 16 17  2  0  0  0
 16 21  1  0  0  0
 16 31  1  0  0  0
 17 18  1  0  0  0
 17 99  1  0  0  0
 18 19  2  0  0  0
 18100  1  0  0  0
 19 20  1  0  0  0
 19 24  1  0  0  0
 20 21  2  0  0  0
 20101  1  0  0  0
 21 23  1  0  0  0
 22 28  1  0  0  0
 22 32  2  0  0  0
 26 27  1  0  0  0
 28102  1  0  0  0
 28103  1  0  0  0
 29104  1  0  0  0
 29105  1  0  0  0
 33 34  1  0  0  0
 33 66  1  0  0  0
 33 70  2  0  0  0
 34 36  1  0  0  0
 34 59  1  0  0  0
 34106  1  0  0  0
 35 44  2  0  0  0
 35 45  1  0  0  0
 35 68  1  0  0  0
 36 56  1  0  0  0
 36107  1  0  0  0
 37 39  1  0  0  0
 37 47  1  0  0  0
 37 66  1  0  0  0
 37108  1  0  0  0
 38 43  2  0  0  0
 38 46  1  0  0  0
 38 47  1  0  0  0
 39 64  1  0  0  0
 39 67  2  0  0  0
 40 52  1  0  0  0
 40 53  2  0  0  0
 40 58  1  0  0  0
 41109  1  0  0  0
 41110  1  0  0  0
 41111  1  0  0  0
 41 48  1  0  0  0
 42 43  1  0  0  0
 42 66  1  0  0  0
 42112  1  0  0  0
 42113  1  0  0  0
 43 44  1  0  0  0
 44114  1  0  0  0
 45 46  2  0  0  0
 45115  1  0  0  0
 46116  1  0  0  0
 47117  1  0  0  0
 47118  1  0  0  0
 48 56  1  0  0  0
 48 65  1  0  0  0
 48119  1  0  0  0
 49 50  1  0  0  0
 49 53  1  0  0  0
 49 64  1  0  0  0
 49120  1  0  0  0
 50 51  1  0  0  0
 50121  1  0  0  0
 50122  1  0  0  0
 51 52  1  0  0  0
 51123  1  0  0  0
 51124  1  0  0  0
 52125  1  0  0  0
 52126  1  0  0  0
 53 54  1  0  0  0
 54 55  2  0  0  0
 54127  1  0  0  0
 55 57  1  0  0  0
 55128  1  0  0  0
 56 69  2  0  0  0
 57 58  2  0  0  0
 57129  1  0  0  0
 58130  1  0  0  0
 59 60  1  0  0  0
 59 61  1  0  0  0
 59 62  1  0  0  0
 60131  1  0  0  0
 60132  1  0  0  0
 60133  1  0  0  0
 61134  1  0  0  0
 61135  1  0  0  0
 61136  1  0  0  0
 62137  1  0  0  0
 62138  1  0  0  0
 62139  1  0  0  0
 63 65  1  0  0  0
 63140  1  0  0  0
 63141  1  0  0  0
 63142  1  0  0  0
 64143  1  0  0  0
 65144  1  0  0  0
 68 82  1  0  0  0
 71 74  2  0  0  0
 71 75  1  0  0  0
 71145  1  0  0  0
 72 74  1  0  0  0
 72 76  2  0  0  0
 72146  1  0  0  0
 73 75  2  0  0  0
 73 76  1  0  0  0
 73147  1  0  0  0
 74 81  1  0  0  0
 75 83  1  0  0  0
 76 84  1  0  0  0
 77 78  1  0  0  0
 77 80  1  0  0  0
 77148  1  0  0  0
 77149  1  0  0  0
 78 85  1  0  0  0
 78150  1  0  0  0
 78151  1  0  0  0
 79 80  1  0  0  0
 79 85  1  0  0  0
 79152  1  0  0  0
 79153  1  0  0  0
 80 82  1  0  0  0
 80154  1  0  0  0
 81155  1  0  0  0
 81156  1  0  0  0
 81 85  1  0  0  0
 82157  1  0  0  0
 82158  1  0  0  0
 83159  1  0  0  0
 83160  1  0  0  0
 84161  1  0  0  0
 85162  1  0  0  0
M  CHG  1  85   1
M  ISO  4   1 100  68 101  82 101  84 100
M  END
> <chiral flag>
0

> <version>
0

> <s_m_source_file>
/data/baiqing/PycharmProjects/Reinvent-master-3.2/result/LINK_invent/BTK/process_docking_weight1_custom_product_contain_oxygen_bond_distance_aromatic_linkinvent_7_9_3/rearranged_h_0098.sdf

> <i_m_source_file_index>
71

> <r_mmod_Potential_Energy-OPLS-2005>
-93.5428009033203

> <r_mmod_Stretch_Energy-OPLS-2005>
43.403564453125

> <r_mmod_Bend_Energy-OPLS-2005>
122.711776733398

> <r_mmod_Torsional_Energy-OPLS-2005>
306.533569335938

> <r_mmod_Improper_Torsional_Energy-OPLS-2005>
7.73893213272095

> <r_mmod_Van_der_Waal_Energy-OPLS-2005>
146.64404296875

> <r_mmod_Electrostatic_Energy-OPLS-2005>
-267.472503662109

> <r_mmod_Solvation_Energy-OPLS-2005>
-469.923736572266

> <b_mmod_Minimization_Converged-OPLS-2005>
0

> <r_mmod_RMS_Derivative-OPLS-2005>
2.2192108631134

$$$$
71
                    3D
 Structure written by MMmdl.
162171  0  0  1  0            999 V2000
  -30.6313  -14.6329   20.5252 C   0  0  0  0  0  0
  -30.4370  -12.3943   19.4566 C   0  0  0  0  0  0
  -29.5081  -12.5180   18.2285 C   0  0  0  0  0  0
  -28.0314  -12.3519   18.6382 C   0  0  0  0  0  0
  -27.6548  -13.2187   19.8696 C   0  0  2  0  0  0
  -28.6979  -13.0655   20.9999 C   0  0  0  0  0  0
  -25.2551  -13.8177   20.5675 C   0  0  0  0  0  0
  -24.1819  -13.0440   20.9163 C   0  0  0  0  0  0
  -24.6395  -11.6917   20.8731 C   0  0  0  0  0  0
  -23.9066  -10.4299   21.0397 C   0  0  0  0  0  0
  -24.3620   -9.4214   21.9176 C   0  0  0  0  0  0
  -23.6293   -8.2249   22.0752 C   0  0  0  0  0  0
  -22.4274   -8.0285   21.3541 C   0  0  0  0  0  0
  -21.9911   -9.0259   20.4642 C   0  0  0  0  0  0
  -22.7240  -10.2138   20.3047 C   0  0  0  0  0  0
  -21.6855   -6.0739   22.5278 C   0  0  0  0  0  0
  -21.4017   -6.5642   23.8213 C   0  0  0  0  0  0
  -21.3659   -5.6794   24.9172 C   0  0  0  0  0  0
  -21.6040   -4.3056   24.7226 C   0  0  0  0  0  0
  -21.8819   -3.8147   23.4349 C   0  0  0  0  0  0
  -21.9195   -4.6965   22.3401 C   0  0  0  0  0  0
  -22.7845  -13.5233   21.1843 C   0  0  0  0  0  0
  -22.1668   -4.2151   21.0980 F   0  0  0  0  0  0
  -21.5624   -3.4540   25.7740 F   0  0  0  0  0  0
  -30.0156  -13.4102   20.4419 N   0  0  0  0  0  0
  -26.2995  -12.9367   20.3356 N   0  0  0  0  0  0
  -25.9327  -11.6522   20.5769 N   0  0  0  0  0  0
  -22.0493  -12.8222   22.0402 N   0  0  0  0  0  0
  -25.4238  -15.1899   20.4092 N   0  0  0  0  0  0
  -31.7845  -14.7938   20.1154 O   0  0  0  0  0  0
  -21.6643   -6.8883   21.4239 O   0  0  0  0  0  0
  -22.3528  -14.5547   20.6707 O   0  0  0  0  0  0
  -24.6250  -31.8616   23.2022 C   0  0  0  0  0  0
  -25.9104  -32.4783   23.8354 C   0  0  1  0  0  0
  -27.2262  -27.3232   20.1183 C   0  0  0  0  0  0
  -25.5923  -33.8583   24.2280 N   0  0  0  0  0  0
  -23.4183  -30.4841   21.5457 C   0  0  2  0  0  0
  -24.8651  -28.9400   20.1137 C   0  0  0  0  0  0
  -22.7467  -29.4631   22.4944 C   0  0  0  0  0  0
  -18.0290  -28.1378   22.8482 C   0  0  0  0  0  0
  -24.1488  -36.7299   23.2636 C   0  0  0  0  0  0
  -25.9591  -30.7933   21.3730 C   0  0  0  0  0  0
  -26.0347  -29.4208   20.7158 C   0  0  0  0  0  0
  -27.2187  -28.6250   20.7069 C   0  0  0  0  0  0
  -26.0307  -26.8934   19.4963 C   0  0  0  0  0  0
  -24.8646  -27.6809   19.4960 C   0  0  0  0  0  0
  -23.6328  -29.8190   20.1616 C   0  0  0  0  0  0
  -25.4114  -36.3083   24.0320 C   0  0  1  0  0  0
  -20.5881  -28.3691   23.1278 C   0  0  2  0  0  0
  -20.6777  -26.9416   22.5406 C   0  0  0  0  0  0
  -19.5753  -26.6385   21.5202 C   0  0  0  0  0  0
  -18.1935  -26.7923   22.1618 C   0  0  0  0  0  0
  -19.1538  -28.8853   23.2877 C   0  0  0  0  0  0
  -18.9466  -30.1453   23.8894 C   0  0  0  0  0  0
  -17.6470  -30.6588   24.0559 C   0  0  0  0  0  0
  -25.9055  -34.9453   23.5100 C   0  0  0  0  0  0
  -16.5362  -29.9084   23.6326 C   0  0  0  0  0  0
  -16.7279  -28.6498   23.0353 C   0  0  0  0  0  0
  -26.4489  -31.6593   25.0727 C   0  0  0  0  0  0
  -25.3723  -31.3722   26.1451 C   0  0  0  0  0  0
  -27.0348  -30.3021   24.6190 C   0  0  0  0  0  0
  -27.6043  -32.4332   25.7508 C   0  0  0  0  0  0
  -27.5583  -37.1800   24.8458 C   0  0  0  0  0  0
  -21.4184  -29.3049   22.3682 N   0  0  0  0  0  0
  -26.4289  -37.3778   23.9406 N   0  0  0  0  0  0
  -24.6862  -31.0626   22.0973 N   0  0  0  0  0  0
  -23.4194  -28.8171   23.3018 O   0  0  0  0  0  0
  -28.3498  -26.4807   20.1594 O   0  0  0  0  0  0
  -26.5643  -34.8919   22.4679 O   0  0  0  0  0  0
  -23.5413  -32.1412   23.7347 O   0  0  0  0  0  0
  -31.1140  -19.2604   20.3453 C   0  0  0  0  0  0
  -31.0827  -17.8366   20.3668 C   0  0  0  0  0  0
  -28.8898  -19.3504   21.2548 C   0  0  0  0  0  0
  -30.0329  -20.0655   20.8114 C   0  0  0  0  0  0
  -29.9566  -17.1276   20.8571 C   0  0  0  0  0  0
  -28.8519  -17.9134   21.2975 C   0  0  0  0  0  0
  -31.2033  -22.0539   21.6061 C   0  0  0  0  0  0
  -31.4457  -23.5709   21.6454 C   0  0  0  0  0  0
  -30.1697  -24.4167   21.6079 C   0  0  0  0  0  0
  -29.0230  -22.4645   20.4982 C   0  0  0  0  0  0
  -29.3414  -24.0301   20.3887 C   0  0  1  0  0  0
  -26.7017  -17.9241   22.3813 C   0  0  0  0  0  0
  -28.1145  -25.0182   20.1837 C   0  0  0  0  0  0
  -30.1448  -21.5362   20.9136 N   0  0  0  0  0  0
  -29.8439  -15.6703   20.9467 N   0  0  0  0  0  0
  -32.0230  -21.3527   22.2102 O   0  0  0  0  0  0
  -27.7686  -17.2030   21.7763 O   0  0  0  0  0  0
  -31.4790  -12.5180   19.1568 H   0  0  0  0  0  0
  -30.3692  -11.3965   19.8931 H   0  0  0  0  0  0
  -29.7754  -11.7746   17.4762 H   0  0  0  0  0  0
  -29.6484  -13.4921   17.7575 H   0  0  0  0  0  0
  -27.8693  -11.2980   18.8658 H   0  0  0  0  0  0
  -27.3777  -12.5846   17.7968 H   0  0  0  0  0  0
  -27.6757  -14.2561   19.5347 H   0  0  0  0  0  0
  -28.7068  -12.0403   21.3747 H   0  0  0  0  0  0
  -28.4402  -13.6898   21.8568 H   0  0  0  0  0  0
  -25.2765   -9.5697   22.4750 H   0  0  0  0  0  0
  -24.0000   -7.4653   22.7482 H   0  0  0  0  0  0
  -21.0840   -8.8785   19.8954 H   0  0  0  0  0  0
  -22.3700  -10.9679   19.6159 H   0  0  0  0  0  0
  -21.2015   -7.6155   23.9714 H   0  0  0  0  0  0
  -21.1481   -6.0527   25.9079 H   0  0  0  0  0  0
  -22.0598   -2.7611   23.2849 H   0  0  0  0  0  0
  -22.4110  -11.9877   22.4774 H   0  0  0  0  0  0
  -21.1114  -13.1253   22.2621 H   0  0  0  0  0  0
  -24.6550  -15.8417   20.5188 H   0  0  0  0  0  0
  -26.2911  -15.6408   20.1458 H   0  0  0  0  0  0
  -26.7183  -32.5457   23.1113 H   0  0  0  0  0  0
  -25.0046  -33.9727   25.0410 H   0  0  0  0  0  0
  -22.7117  -31.3039   21.4029 H   0  0  0  0  0  0
  -23.3747  -35.9636   23.3276 H   0  0  0  0  0  0
  -24.3580  -36.8951   22.2056 H   0  0  0  0  0  0
  -23.7240  -37.6488   23.6688 H   0  0  0  0  0  0
  -26.0894  -31.5563   20.6041 H   0  0  0  0  0  0
  -26.8383  -30.8425   22.0031 H   0  0  0  0  0  0
  -28.1167  -28.9884   21.1874 H   0  0  0  0  0  0
  -25.9636  -25.9357   19.0050 H   0  0  0  0  0  0
  -23.9674  -27.3052   19.0233 H   0  0  0  0  0  0
  -23.7532  -30.5958   19.4058 H   0  0  0  0  0  0
  -22.7528  -29.2482   19.8595 H   0  0  0  0  0  0
  -25.1289  -36.1935   25.0812 H   0  0  0  0  0  0
  -20.9974  -28.3273   24.1393 H   0  0  0  0  0  0
  -20.5673  -26.2303   23.3606 H   0  0  0  0  0  0
  -21.6649  -26.7445   22.1204 H   0  0  0  0  0  0
  -19.6918  -25.6292   21.1240 H   0  0  0  0  0  0
  -19.6684  -27.3185   20.6721 H   0  0  0  0  0  0
  -17.4203  -26.6663   21.4027 H   0  0  0  0  0  0
  -18.0340  -26.0065   22.9010 H   0  0  0  0  0  0
  -19.7944  -30.7260   24.2270 H   0  0  0  0  0  0
  -17.5030  -31.6261   24.5171 H   0  0  0  0  0  0
  -15.5363  -30.2991   23.7642 H   0  0  0  0  0  0
  -15.8676  -28.0816   22.7074 H   0  0  0  0  0  0
  -24.5897  -30.7081   25.7763 H   0  0  0  0  0  0
  -24.8925  -32.2890   26.4894 H   0  0  0  0  0  0
  -25.8047  -30.8879   27.0219 H   0  0  0  0  0  0
  -26.2936  -29.6755   24.1217 H   0  0  0  0  0  0
  -27.4042  -29.7292   25.4708 H   0  0  0  0  0  0
  -27.8801  -30.4300   23.9423 H   0  0  0  0  0  0
  -27.2657  -33.3637   26.2080 H   0  0  0  0  0  0
  -28.3865  -32.6883   25.0346 H   0  0  0  0  0  0
  -28.0702  -31.8465   26.5435 H   0  0  0  0  0  0
  -28.2569  -38.0129   24.7550 H   0  0  0  0  0  0
  -28.1110  -36.2658   24.6229 H   0  0  0  0  0  0
  -27.2308  -37.1390   25.8862 H   0  0  0  0  0  0
  -20.9367  -29.8786   21.6901 H   0  0  0  0  0  0
  -26.0164  -38.2842   24.1439 H   0  0  0  0  0  0
  -32.0159  -19.7394   19.9905 H   0  0  0  0  0  0
  -31.9545  -17.3026   20.0183 H   0  0  0  0  0  0
  -28.0548  -19.9319   21.6137 H   0  0  0  0  0  0
  -32.0801  -23.8228   20.7951 H   0  0  0  0  0  0
  -32.0195  -23.8197   22.5383 H   0  0  0  0  0  0
  -30.4361  -25.4733   21.5628 H   0  0  0  0  0  0
  -29.5930  -24.2778   22.5234 H   0  0  0  0  0  0
  -28.6247  -22.1147   19.5450 H   0  0  0  0  0  0
  -28.2185  -22.3322   21.2225 H   0  0  0  0  0  0
  -29.9772  -24.1627   19.5115 H   0  0  0  0  0  0
  -25.9616  -17.2238   22.7702 H   0  0  0  0  0  0
  -26.1968  -18.5683   21.6604 H   0  0  0  0  0  0
  -27.0509  -18.5274   23.2202 H   0  0  0  0  0  0
  -27.3803  -24.8102   20.9635 H   0  0  0  0  0  0
  -27.6579  -24.7184   19.2409 H   0  0  0  0  0  0
  -28.9474  -15.3674   21.2955 H   0  0  0  0  0  0
  1 25  1  0  0  0
  1 30  2  0  0  0
  1 85  1  0  0  0
  2  3  1  0  0  0
  2 25  1  0  0  0
  2 88  1  0  0  0
  2 89  1  0  0  0
  3  4  1  0  0  0
  3 90  1  0  0  0
  3 91  1  0  0  0
  4  5  1  0  0  0
  4 92  1  0  0  0
  4 93  1  0  0  0
  5  6  1  0  0  0
  5 26  1  0  0  0
  5 94  1  0  0  0
  6 25  1  0  0  0
  6 95  1  0  0  0
  6 96  1  0  0  0
  7  8  2  0  0  0
  7 26  1  0  0  0
  7 29  1  0  0  0
  8  9  1  0  0  0
  8 22  1  0  0  0
  9 10  1  0  0  0
  9 27  2  0  0  0
 10 11  2  0  0  0
 10 15  1  0  0  0
 11 12  1  0  0  0
 11 97  1  0  0  0
 12 13  2  0  0  0
 12 98  1  0  0  0
 13 14  1  0  0  0
 13 31  1  0  0  0
 14 15  2  0  0  0
 14 99  1  0  0  0
 15100  1  0  0  0
 16 17  2  0  0  0
 16 21  1  0  0  0
 16 31  1  0  0  0
 17 18  1  0  0  0
 17101  1  0  0  0
 18 19  2  0  0  0
 18102  1  0  0  0
 19 20  1  0  0  0
 19 24  1  0  0  0
 20 21  2  0  0  0
 20103  1  0  0  0
 21 23  1  0  0  0
 22 28  1  0  0  0
 22 32  2  0  0  0
 26 27  1  0  0  0
 28104  1  0  0  0
 28105  1  0  0  0
 29106  1  0  0  0
 29107  1  0  0  0
 33 34  1  0  0  0
 33 66  1  0  0  0
 33 70  2  0  0  0
 34 36  1  0  0  0
 34 59  1  0  0  0
 34108  1  0  0  0
 35 44  2  0  0  0
 35 45  1  0  0  0
 35 68  1  0  0  0
 36 56  1  0  0  0
 36109  1  0  0  0
 37 39  1  0  0  0
 37 47  1  0  0  0
 37 66  1  0  0  0
 37110  1  0  0  0
 38 43  2  0  0  0
 38 46  1  0  0  0
 38 47  1  0  0  0
 39 64  1  0  0  0
 39 67  2  0  0  0
 40 52  1  0  0  0
 40 53  2  0  0  0
 40 58  1  0  0  0
 41111  1  0  0  0
 41112  1  0  0  0
 41113  1  0  0  0
 41 48  1  0  0  0
 42 43  1  0  0  0
 42 66  1  0  0  0
 42114  1  0  0  0
 42115  1  0  0  0
 43 44  1  0  0  0
 44116  1  0  0  0
 45 46  2  0  0  0
 45117  1  0  0  0
 46118  1  0  0  0
 47119  1  0  0  0
 47120  1  0  0  0
 48 56  1  0  0  0
 48 65  1  0  0  0
 48121  1  0  0  0
 49 50  1  0  0  0
 49 53  1  0  0  0
 49 64  1  0  0  0
 49122  1  0  0  0
 50 51  1  0  0  0
 50123  1  0  0  0
 50124  1  0  0  0
 51 52  1  0  0  0
 51125  1  0  0  0
 51126  1  0  0  0
 52127  1  0  0  0
 52128  1  0  0  0
 53 54  1  0  0  0
 54 55  2  0  0  0
 54129  1  0  0  0
 55 57  1  0  0  0
 55130  1  0  0  0
 56 69  2  0  0  0
 57 58  2  0  0  0
 57131  1  0  0  0
 58132  1  0  0  0
 59 60  1  0  0  0
 59 61  1  0  0  0
 59 62  1  0  0  0
 60133  1  0  0  0
 60134  1  0  0  0
 60135  1  0  0  0
 61136  1  0  0  0
 61137  1  0  0  0
 61138  1  0  0  0
 62139  1  0  0  0
 62140  1  0  0  0
 62141  1  0  0  0
 63 65  1  0  0  0
 63142  1  0  0  0
 63143  1  0  0  0
 63144  1  0  0  0
 64145  1  0  0  0
 65146  1  0  0  0
 68 83  1  0  0  0
 71 72  2  0  0  0
 71 74  1  0  0  0
 71147  1  0  0  0
 72 75  1  0  0  0
 72148  1  0  0  0
 73 74  2  0  0  0
 73 76  1  0  0  0
 73149  1  0  0  0
 74 84  1  0  0  0
 75 76  2  0  0  0
 75 85  1  0  0  0
 76 87  1  0  0  0
 77 78  1  0  0  0
 77 84  1  0  0  0
 77 86  2  0  0  0
 78 79  1  0  0  0
 78150  1  0  0  0
 78151  1  0  0  0
 79 81  1  0  0  0
 79152  1  0  0  0
 79153  1  0  0  0
 80 81  1  0  0  0
 80 84  1  0  0  0
 80154  1  0  0  0
 80155  1  0  0  0
 81 83  1  0  0  0
 81156  1  0  0  0
 82 87  1  0  0  0
 82157  1  0  0  0
 82158  1  0  0  0
 82159  1  0  0  0
 83160  1  0  0  0
 83161  1  0  0  0
 85162  1  0  0  0
M  ISO  4   1 100  68 101  83 101  85 100
M  END
> <chiral flag>
0

> <version>
0

> <s_m_source_file>
/data/baiqing/PycharmProjects/Reinvent-master-3.2/result/LINK_invent/BTK/process_docking_weight1_custom_product_contain_oxygen_bond_distance_aromatic_linkinvent_7_9_3/rearranged_h_0098.sdf

> <i_m_source_file_index>
72

> <r_mmod_Potential_Energy-OPLS-2005>
107.022483825684

> <r_mmod_Stretch_Energy-OPLS-2005>
87.6582565307617

> <r_mmod_Bend_Energy-OPLS-2005>
146.095001220703

> <r_mmod_Torsional_Energy-OPLS-2005>
274.115814208984

> <r_mmod_Improper_Torsional_Energy-OPLS-2005>
3.92289733886719

> <r_mmod_Van_der_Waal_Energy-OPLS-2005>
161.559371948242

> <r_mmod_Electrostatic_Energy-OPLS-2005>
-391.645690917969

> <r_mmod_Solvation_Energy-OPLS-2005>
-219.96369934082

> <b_mmod_Minimization_Converged-OPLS-2005>
0

> <r_mmod_RMS_Derivative-OPLS-2005>
1.26633989810944

$$$$
72
                    3D
 Structure written by MMmdl.
163172  0  0  1  0            999 V2000
  -30.7008  -14.4802   20.5168 C   0  0  0  0  0  0
  -30.4191  -12.2976   19.4231 C   0  0  0  0  0  0
  -29.4896  -12.4900   18.2054 C   0  0  0  0  0  0
  -28.0093  -12.3639   18.6182 C   0  0  0  0  0  0
  -27.6593  -13.2065   19.8758 C   0  0  2  0  0  0
  -28.7073  -12.9978   20.9916 C   0  0  0  0  0  0
  -25.2585  -13.8150   20.5718 C   0  0  0  0  0  0
  -24.1829  -13.0430   20.9197 C   0  0  0  0  0  0
  -24.6395  -11.6896   20.8761 C   0  0  0  0  0  0
  -23.9065  -10.4286   21.0420 C   0  0  0  0  0  0
  -24.3618   -9.4207   21.9202 C   0  0  0  0  0  0
  -23.6289   -8.2244   22.0771 C   0  0  0  0  0  0
  -22.4270   -8.0288   21.3559 C   0  0  0  0  0  0
  -21.9918   -9.0257   20.4659 C   0  0  0  0  0  0
  -22.7243  -10.2138   20.3065 C   0  0  0  0  0  0
  -21.6844   -6.0740   22.5278 C   0  0  0  0  0  0
  -21.4007   -6.5646   23.8210 C   0  0  0  0  0  0
  -21.3661   -5.6805   24.9173 C   0  0  0  0  0  0
  -21.6041   -4.3064   24.7225 C   0  0  0  0  0  0
  -21.8820   -3.8155   23.4348 C   0  0  0  0  0  0
  -21.9188   -4.6968   22.3404 C   0  0  0  0  0  0
  -22.7854  -13.5242   21.1819 C   0  0  0  0  0  0
  -22.1660   -4.2161   21.0978 F   0  0  0  0  0  0
  -21.5626   -3.4539   25.7737 F   0  0  0  0  0  0
  -30.0287  -13.3012   20.4259 N   0  0  0  0  0  0
  -26.3020  -12.9329   20.3419 N   0  0  0  0  0  0
  -25.9327  -11.6487   20.5827 N   0  0  0  0  0  0
  -22.0490  -12.8232   22.0382 N   0  0  0  0  0  0
  -25.4318  -15.1848   20.4069 N   0  0  0  0  0  0
  -31.8566  -14.6193   20.1138 O   0  0  0  0  0  0
  -21.6638   -6.8884   21.4238 O   0  0  0  0  0  0
  -22.3553  -14.5546   20.6665 O   0  0  0  0  0  0
  -24.6152  -31.8677   23.2099 C   0  0  0  0  0  0
  -25.9039  -32.4810   23.8388 C   0  0  1  0  0  0
  -27.2251  -27.4208   20.0745 C   0  0  0  0  0  0
  -25.5895  -33.8601   24.2329 N   0  0  0  0  0  0
  -23.4007  -30.4979   21.5496 C   0  0  2  0  0  0
  -24.8431  -28.9610   20.1150 C   0  0  0  0  0  0
  -22.7389  -29.4700   22.4957 C   0  0  0  0  0  0
  -18.0275  -28.1373   22.8476 C   0  0  0  0  0  0
  -24.1482  -36.7320   23.2643 C   0  0  0  0  0  0
  -25.9337  -30.8282   21.3639 C   0  0  0  0  0  0
  -26.0060  -29.4627   20.7094 C   0  0  0  0  0  0
  -27.1973  -28.6990   20.6853 C   0  0  0  0  0  0
  -26.0341  -26.9387   19.4817 C   0  0  0  0  0  0
  -24.8519  -27.6980   19.5031 C   0  0  0  0  0  0
  -23.6094  -29.8322   20.1643 C   0  0  0  0  0  0
  -25.4103  -36.3102   24.0340 C   0  0  1  0  0  0
  -20.5860  -28.3705   23.1279 C   0  0  2  0  0  0
  -20.6783  -26.9436   22.5402 C   0  0  0  0  0  0
  -19.5758  -26.6378   21.5215 C   0  0  0  0  0  0
  -18.1938  -26.7912   22.1628 C   0  0  0  0  0  0
  -19.1515  -28.8853   23.2872 C   0  0  0  0  0  0
  -18.9433  -30.1455   23.8888 C   0  0  0  0  0  0
  -17.6434  -30.6586   24.0545 C   0  0  0  0  0  0
  -25.9032  -34.9464   23.5131 C   0  0  0  0  0  0
  -16.5337  -29.9080   23.6308 C   0  0  0  0  0  0
  -16.7259  -28.6492   23.0331 C   0  0  0  0  0  0
  -26.4495  -31.6580   25.0707 C   0  0  0  0  0  0
  -25.3788  -31.3654   26.1476 C   0  0  0  0  0  0
  -27.0358  -30.3035   24.6071 C   0  0  0  0  0  0
  -27.6057  -32.4320   25.7479 C   0  0  0  0  0  0
  -27.5583  -37.1811   24.8464 C   0  0  0  0  0  0
  -21.4116  -29.3095   22.3709 N   0  0  0  0  0  0
  -26.4294  -37.3786   23.9414 N   0  0  0  0  0  0
  -24.6688  -31.0786   22.0996 N   0  0  0  0  0  0
  -23.4153  -28.8225   23.2998 O   0  0  0  0  0  0
  -28.4100  -26.7031   20.0866 O   0  0  0  0  0  0
  -26.5604  -34.8925   22.4691 O   0  0  0  0  0  0
  -23.5349  -32.1422   23.7502 O   0  0  0  0  0  0
  -27.8799  -18.1286   21.0445 C   0  0  0  0  0  0
  -30.0406  -18.7301   21.9593 C   0  0  0  0  0  0
  -27.5362  -19.4965   20.9456 C   0  0  0  0  0  0
  -29.6974  -20.0978   21.8760 C   0  0  0  0  0  0
  -29.1175  -17.7216   21.5922 C   0  0  0  0  0  0
  -28.4254  -20.5002   21.4059 C   0  0  0  0  0  0
  -27.0998  -22.1656   22.5128 C   0  0  0  0  0  0
  -28.5473  -22.8512   20.7242 C   0  0  0  0  0  0
  -26.6655  -23.6079   22.7906 C   0  0  0  0  0  0
  -26.8219  -24.5044   21.5686 C   0  0  0  0  0  0
  -28.2256  -24.3587   20.9722 C   0  0  2  0  0  0
  -30.2793  -15.9642   23.0719 C   0  0  0  0  0  0
  -28.4444  -25.2978   19.7441 C   0  0  0  0  0  0
  -29.4032  -16.2237   21.8226 C   0  0  2  0  0  0
  -28.0032  -21.8786   21.5274 N   0  0  0  0  0  0
  -29.9459  -15.5899   20.6149 N   0  0  0  0  0  0
  -26.5941  -21.2985   23.2373 O   0  0  0  0  0  0
  -29.3122  -22.5673   19.7932 O   0  0  0  0  0  0
  -31.4630  -12.3900   19.1197 H   0  0  0  0  0  0
  -30.3193  -11.2907   19.8309 H   0  0  0  0  0  0
  -29.7173  -11.7537   17.4345 H   0  0  0  0  0  0
  -29.6652  -13.4709   17.7598 H   0  0  0  0  0  0
  -27.8067  -11.3088   18.8064 H   0  0  0  0  0  0
  -27.3638  -12.6492   17.7880 H   0  0  0  0  0  0
  -27.6997  -14.2529   19.5744 H   0  0  0  0  0  0
  -28.6877  -11.9664   21.3437 H   0  0  0  0  0  0
  -28.4869  -13.6040   21.8668 H   0  0  0  0  0  0
  -25.2769   -9.5664   22.4774 H   0  0  0  0  0  0
  -23.9988   -7.4627   22.7493 H   0  0  0  0  0  0
  -21.0864   -8.8772   19.8956 H   0  0  0  0  0  0
  -22.3717  -10.9673   19.6162 H   0  0  0  0  0  0
  -21.2006   -7.6158   23.9708 H   0  0  0  0  0  0
  -21.1479   -6.0541   25.9076 H   0  0  0  0  0  0
  -22.0602   -2.7619   23.2839 H   0  0  0  0  0  0
  -22.4113  -11.9870   22.4715 H   0  0  0  0  0  0
  -21.1105  -13.1233   22.2612 H   0  0  0  0  0  0
  -24.6659  -15.8427   20.5064 H   0  0  0  0  0  0
  -26.2826  -15.6055   20.0578 H   0  0  0  0  0  0
  -26.7098  -32.5532   23.1138 H   0  0  0  0  0  0
  -25.0052  -33.9742   25.0488 H   0  0  0  0  0  0
  -22.6931  -31.3194   21.4131 H   0  0  0  0  0  0
  -23.3732  -35.9666   23.3323 H   0  0  0  0  0  0
  -24.3578  -36.8931   22.2057 H   0  0  0  0  0  0
  -23.7265  -37.6539   23.6668 H   0  0  0  0  0  0
  -26.0451  -31.5920   20.5939 H   0  0  0  0  0  0
  -26.8232  -30.8818   21.9791 H   0  0  0  0  0  0
  -28.0974  -29.0834   21.1424 H   0  0  0  0  0  0
  -25.9756  -25.9765   18.9990 H   0  0  0  0  0  0
  -23.9555  -27.3044   19.0438 H   0  0  0  0  0  0
  -23.7258  -30.6076   19.4076 H   0  0  0  0  0  0
  -22.7311  -29.2593   19.8626 H   0  0  0  0  0  0
  -25.1284  -36.1960   25.0837 H   0  0  0  0  0  0
  -20.9954  -28.3276   24.1394 H   0  0  0  0  0  0
  -21.6649  -26.7450   22.1189 H   0  0  0  0  0  0
  -20.5666  -26.2339   23.3615 H   0  0  0  0  0  0
  -19.6939  -25.6291   21.1240 H   0  0  0  0  0  0
  -19.6689  -27.3188   20.6759 H   0  0  0  0  0  0
  -17.4200  -26.6635   21.4040 H   0  0  0  0  0  0
  -18.0361  -26.0061   22.9025 H   0  0  0  0  0  0
  -19.7917  -30.7265   24.2238 H   0  0  0  0  0  0
  -17.4993  -31.6269   24.5130 H   0  0  0  0  0  0
  -15.5327  -30.2989   23.7628 H   0  0  0  0  0  0
  -15.8655  -28.0832   22.7045 H   0  0  0  0  0  0
  -24.5881  -30.7109   25.7792 H   0  0  0  0  0  0
  -24.9082  -32.2816   26.5059 H   0  0  0  0  0  0
  -25.8147  -30.8690   27.0151 H   0  0  0  0  0  0
  -26.2892  -29.6723   24.1226 H   0  0  0  0  0  0
  -27.4278  -29.7335   25.4503 H   0  0  0  0  0  0
  -27.8666  -30.4388   23.9132 H   0  0  0  0  0  0
  -27.2627  -33.3544   26.2174 H   0  0  0  0  0  0
  -28.3806  -32.6996   25.0283 H   0  0  0  0  0  0
  -28.0812  -31.8392   26.5306 H   0  0  0  0  0  0
  -28.2598  -38.0103   24.7483 H   0  0  0  0  0  0
  -28.1077  -36.2631   24.6317 H   0  0  0  0  0  0
  -27.2299  -37.1499   25.8865 H   0  0  0  0  0  0
  -20.9280  -29.8802   21.6908 H   0  0  0  0  0  0
  -26.0179  -38.2867   24.1409 H   0  0  0  0  0  0
  -27.1585  -17.3846   20.7416 H   0  0  0  0  0  0
  -31.0058  -18.4682   22.3640 H   0  0  0  0  0  0
  -26.5565  -19.7611   20.5707 H   0  0  0  0  0  0
  -30.4031  -20.8355   22.2350 H   0  0  0  0  0  0
  -27.2741  -23.9820   23.6154 H   0  0  0  0  0  0
  -25.6292  -23.6217   23.1321 H   0  0  0  0  0  0
  -26.6470  -25.5324   21.8786 H   0  0  0  0  0  0
  -26.0620  -24.2655   20.8234 H   0  0  0  0  0  0
  -28.9466  -24.6721   21.7283 H   0  0  0  0  0  0
  -29.8768  -16.4700   23.9499 H   0  0  0  0  0  0
  -31.3047  -16.3095   22.9361 H   0  0  0  0  0  0
  -30.3283  -14.9021   23.3130 H   0  0  0  0  0  0
  -27.7952  -25.0271   18.9129 H   0  0  0  0  0  0
  -29.4481  -25.1294   19.3499 H   0  0  0  0  0  0
  -28.4288  -15.7774   22.0188 H   0  0  0  0  0  0
  -30.3077  -16.3032   20.0003 H   0  0  0  0  0  0
  1 25  1  0  0  0
  1 30  2  0  0  0
  1 86  1  0  0  0
  2  3  1  0  0  0
  2 25  1  0  0  0
  2 89  1  0  0  0
  2 90  1  0  0  0
  3  4  1  0  0  0
  3 91  1  0  0  0
  3 92  1  0  0  0
  4  5  1  0  0  0
  4 93  1  0  0  0
  4 94  1  0  0  0
  5  6  1  0  0  0
  5 26  1  0  0  0
  5 95  1  0  0  0
  6 25  1  0  0  0
  6 96  1  0  0  0
  6 97  1  0  0  0
  7  8  2  0  0  0
  7 26  1  0  0  0
  7 29  1  0  0  0
  8  9  1  0  0  0
  8 22  1  0  0  0
  9 10  1  0  0  0
  9 27  2  0  0  0
 10 11  2  0  0  0
 10 15  1  0  0  0
 11 12  1  0  0  0
 11 98  1  0  0  0
 12 13  2  0  0  0
 12 99  1  0  0  0
 13 14  1  0  0  0
 13 31  1  0  0  0
 14 15  2  0  0  0
 14100  1  0  0  0
 15101  1  0  0  0
 16 17  2  0  0  0
 16 21  1  0  0  0
 16 31  1  0  0  0
 17 18  1  0  0  0
 17102  1  0  0  0
 18 19  2  0  0  0
 18103  1  0  0  0
 19 20  1  0  0  0
 19 24  1  0  0  0
 20 21  2  0  0  0
 20104  1  0  0  0
 21 23  1  0  0  0
 22 28  1  0  0  0
 22 32  2  0  0  0
 26 27  1  0  0  0
 28105  1  0  0  0
 28106  1  0  0  0
 29107  1  0  0  0
 29108  1  0  0  0
 33 34  1  0  0  0
 33 66  1  0  0  0
 33 70  2  0  0  0
 34 36  1  0  0  0
 34 59  1  0  0  0
 34109  1  0  0  0
 35 44  2  0  0  0
 35 45  1  0  0  0
 35 68  1  0  0  0
 36 56  1  0  0  0
 36110  1  0  0  0
 37 39  1  0  0  0
 37 47  1  0  0  0
 37 66  1  0  0  0
 37111  1  0  0  0
 38 43  2  0  0  0
 38 46  1  0  0  0
 38 47  1  0  0  0
 39 64  1  0  0  0
 39 67  2  0  0  0
 40 52  1  0  0  0
 40 53  2  0  0  0
 40 58  1  0  0  0
 41112  1  0  0  0
 41113  1  0  0  0
 41114  1  0  0  0
 41 48  1  0  0  0
 42 43  1  0  0  0
 42 66  1  0  0  0
 42115  1  0  0  0
 42116  1  0  0  0
 43 44  1  0  0  0
 44117  1  0  0  0
 45 46  2  0  0  0
 45118  1  0  0  0
 46119  1  0  0  0
 47120  1  0  0  0
 47121  1  0  0  0
 48 56  1  0  0  0
 48 65  1  0  0  0
 48122  1  0  0  0
 49 50  1  0  0  0
 49 53  1  0  0  0
 49 64  1  0  0  0
 49123  1  0  0  0
 50 51  1  0  0  0
 50124  1  0  0  0
 50125  1  0  0  0
 51 52  1  0  0  0
 51126  1  0  0  0
 51127  1  0  0  0
 52128  1  0  0  0
 52129  1  0  0  0
 53 54  1  0  0  0
 54 55  2  0  0  0
 54130  1  0  0  0
 55 57  1  0  0  0
 55131  1  0  0  0
 56 69  2  0  0  0
 57 58  2  0  0  0
 57132  1  0  0  0
 58133  1  0  0  0
 59 60  1  0  0  0
 59 61  1  0  0  0
 59 62  1  0  0  0
 60134  1  0  0  0
 60135  1  0  0  0
 60136  1  0  0  0
 61137  1  0  0  0
 61138  1  0  0  0
 61139  1  0  0  0
 62140  1  0  0  0
 62141  1  0  0  0
 62142  1  0  0  0
 63 65  1  0  0  0
 63143  1  0  0  0
 63144  1  0  0  0
 63145  1  0  0  0
 64146  1  0  0  0
 65147  1  0  0  0
 68 83  1  0  0  0
 71 73  2  0  0  0
 71 75  1  0  0  0
 71148  1  0  0  0
 72 74  1  0  0  0
 72 75  2  0  0  0
 72149  1  0  0  0
 73 76  1  0  0  0
 73150  1  0  0  0
 74 76  2  0  0  0
 74151  1  0  0  0
 75 84  1  0  0  0
 76 85  1  0  0  0
 77 79  1  0  0  0
 77 85  1  0  0  0
 77 87  2  0  0  0
 78 81  1  0  0  0
 78 85  1  0  0  0
 78 88  2  0  0  0
 79 80  1  0  0  0
 79152  1  0  0  0
 79153  1  0  0  0
 80 81  1  0  0  0
 80154  1  0  0  0
 80155  1  0  0  0
 81 83  1  0  0  0
 81156  1  0  0  0
 82157  1  0  0  0
 82158  1  0  0  0
 82159  1  0  0  0
 82 84  1  0  0  0
 83160  1  0  0  0
 83161  1  0  0  0
 84 86  1  0  0  0
 84162  1  0  0  0
 86163  1  0  0  0
M  ISO  4   1 100  68 101  83 101  86 100
M  END
> <chiral flag>
0

> <version>
0

> <s_m_source_file>
/data/baiqing/PycharmProjects/Reinvent-master-3.2/result/LINK_invent/BTK/process_docking_weight1_custom_product_contain_oxygen_bond_distance_aromatic_linkinvent_7_9_3/rearranged_h_0098.sdf

> <i_m_source_file_index>
73

> <r_mmod_Potential_Energy-OPLS-2005>
60.4013710021973

> <r_mmod_Stretch_Energy-OPLS-2005>
48.6216316223145

> <r_mmod_Bend_Energy-OPLS-2005>
126.368721008301

> <r_mmod_Torsional_Energy-OPLS-2005>
306.338897705078

> <r_mmod_Improper_Torsional_Energy-OPLS-2005>
18.4031887054443

> <r_mmod_Van_der_Waal_Energy-OPLS-2005>
168.912368774414

> <r_mmod_Electrostatic_Energy-OPLS-2005>
-398.306396484375

> <r_mmod_Solvation_Energy-OPLS-2005>
-225.776458740234

> <b_mmod_Minimization_Converged-OPLS-2005>
0

> <r_mmod_RMS_Derivative-OPLS-2005>
2.73608064651489

$$$$
73
                    3D
 Structure written by MMmdl.
152160  0  0  1  0            999 V2000
  -30.5952  -14.7731   20.4756 C   0  0  0  0  0  0
  -30.4187  -12.4836   19.4573 C   0  0  0  0  0  0
  -29.5061  -12.5753   18.2154 C   0  0  0  0  0  0
  -28.0240  -12.4090   18.6089 C   0  0  0  0  0  0
  -27.6341  -13.2558   19.8510 C   0  0  2  0  0  0
  -28.6790  -13.1747   20.9817 C   0  0  0  0  0  0
  -25.2459  -13.8203   20.5748 C   0  0  0  0  0  0
  -24.1790  -13.0419   20.9200 C   0  0  0  0  0  0
  -24.6410  -11.6905   20.8713 C   0  0  0  0  0  0
  -23.9085  -10.4281   21.0376 C   0  0  0  0  0  0
  -24.3641   -9.4216   21.9163 C   0  0  0  0  0  0
  -23.6304   -8.2260   22.0755 C   0  0  0  0  0  0
  -22.4277   -8.0294   21.3555 C   0  0  0  0  0  0
  -21.9918   -9.0266   20.4640 C   0  0  0  0  0  0
  -22.7258  -10.2121   20.3031 C   0  0  0  0  0  0
  -21.6858   -6.0735   22.5282 C   0  0  0  0  0  0
  -21.4048   -6.5644   23.8219 C   0  0  0  0  0  0
  -21.3666   -5.6795   24.9175 C   0  0  0  0  0  0
  -21.6030   -4.3055   24.7231 C   0  0  0  0  0  0
  -21.8808   -3.8146   23.4349 C   0  0  0  0  0  0
  -21.9205   -4.6960   22.3410 C   0  0  0  0  0  0
  -22.7798  -13.5177   21.1897 C   0  0  0  0  0  0
  -22.1665   -4.2149   21.0983 F   0  0  0  0  0  0
  -21.5621   -3.4547   25.7739 F   0  0  0  0  0  0
  -29.9744  -13.5408   20.3980 N   0  0  0  0  0  0
  -26.2902  -12.9479   20.3251 N   0  0  0  0  0  0
  -25.9358  -11.6579   20.5652 N   0  0  0  0  0  0
  -22.0486  -12.8161   22.0412 N   0  0  0  0  0  0
  -25.4081  -15.1965   20.4329 N   0  0  0  0  0  0
  -31.7930  -14.8646   20.1941 O   0  0  0  0  0  0
  -21.6651   -6.8890   21.4234 O   0  0  0  0  0  0
  -22.3476  -14.5510   20.6740 O   0  0  0  0  0  0
  -24.6320  -31.8618   23.2038 C   0  0  0  0  0  0
  -25.9154  -32.4807   23.8377 C   0  0  1  0  0  0
  -27.1881  -27.2516   20.1260 C   0  0  0  0  0  0
  -25.5943  -33.8598   24.2317 N   0  0  0  0  0  0
  -23.4222  -30.4961   21.5463 C   0  0  2  0  0  0
  -24.8573  -28.9392   20.1004 C   0  0  0  0  0  0
  -22.7495  -29.4789   22.4997 C   0  0  0  0  0  0
  -18.0285  -28.1394   22.8546 C   0  0  0  0  0  0
  -24.1447  -36.7293   23.2646 C   0  0  0  0  0  0
  -25.9654  -30.7726   21.3739 C   0  0  0  0  0  0
  -26.0273  -29.3895   20.7263 C   0  0  0  0  0  0
  -27.1877  -28.5530   20.7377 C   0  0  0  0  0  0
  -25.9925  -26.8724   19.4729 C   0  0  0  0  0  0
  -24.8475  -27.6937   19.4595 C   0  0  0  0  0  0
  -23.6239  -29.8198   20.1622 C   0  0  0  0  0  0
  -25.4084  -36.3108   24.0344 C   0  0  1  0  0  0
  -20.5894  -28.3881   23.1271 C   0  0  2  0  0  0
  -20.6985  -26.9831   22.4888 C   0  0  0  0  0  0
  -19.5725  -26.6857   21.4956 C   0  0  0  0  0  0
  -18.2049  -26.7948   22.1721 C   0  0  0  0  0  0
  -19.1502  -28.8930   23.2901 C   0  0  0  0  0  0
  -18.9402  -30.1516   23.8906 C   0  0  0  0  0  0
  -17.6385  -30.6627   24.0489 C   0  0  0  0  0  0
  -25.9028  -34.9475   23.5123 C   0  0  0  0  0  0
  -16.5288  -29.9108   23.6186 C   0  0  0  0  0  0
  -16.7258  -28.6494   23.0303 C   0  0  0  0  0  0
  -26.4466  -31.6621   25.0776 C   0  0  0  0  0  0
  -25.3672  -31.3766   26.1499 C   0  0  0  0  0  0
  -27.0279  -30.3053   24.6202 C   0  0  0  0  0  0
  -27.6019  -32.4349   25.7565 C   0  0  0  0  0  0
  -27.5555  -37.1804   24.8468 C   0  0  0  0  0  0
  -21.4167  -29.3503   22.3978 N   0  0  0  0  0  0
  -26.4263  -37.3823   23.9420 N   0  0  0  0  0  0
  -24.6946  -31.0604   22.0974 N   0  0  0  0  0  0
  -23.4267  -28.8076   23.2832 O   0  0  0  0  0  0
  -28.2900  -26.3695   20.2228 O   0  0  0  0  0  0
  -26.5621  -34.8933   22.4700 O   0  0  0  0  0  0
  -23.5482  -32.1440   23.7340 O   0  0  0  0  0  0
  -29.4398  -19.9843   20.3672 C   0  0  0  0  0  0
  -28.3086  -18.5036   21.9216 C   0  0  0  0  0  0
  -27.7358  -20.9092   21.8184 C   0  0  0  0  0  0
  -29.2940  -18.6399   20.9211 C   0  0  0  0  0  0
  -28.6611  -21.1514   20.7720 C   0  0  0  0  0  0
  -27.5658  -19.6178   22.3797 C   0  0  0  0  0  0
  -28.3097  -23.6421   20.5112 C   0  0  0  0  0  0
  -30.2526  -17.3904   20.5838 C   0  0  0  0  0  0
  -28.3260  -24.9892   19.6208 C   0  0  0  0  0  0
  -28.7788  -22.4614   20.1255 N   0  0  0  0  0  0
  -26.6462  -19.4494   23.4138 N   0  0  0  0  0  0
  -29.8196  -15.9177   20.6507 N   0  0  0  0  0  0
  -31.4627  -12.6039   19.1647 H   0  0  0  0  0  0
  -30.3420  -11.4939   19.9154 H   0  0  0  0  0  0
  -29.7879  -11.8388   17.4649 H   0  0  0  0  0  0
  -29.6476  -13.5494   17.7430 H   0  0  0  0  0  0
  -27.8336  -11.3514   18.7912 H   0  0  0  0  0  0
  -27.3897  -12.6923   17.7667 H   0  0  0  0  0  0
  -27.6214  -14.2897   19.5075 H   0  0  0  0  0  0
  -28.7125  -12.1703   21.4114 H   0  0  0  0  0  0
  -28.4142  -13.8536   21.7945 H   0  0  0  0  0  0
  -25.2790   -9.5694   22.4746 H   0  0  0  0  0  0
  -24.0012   -7.4647   22.7493 H   0  0  0  0  0  0
  -21.0854   -8.8779   19.8960 H   0  0  0  0  0  0
  -22.3724  -10.9661   19.6145 H   0  0  0  0  0  0
  -21.2059   -7.6164   23.9719 H   0  0  0  0  0  0
  -21.1497   -6.0535   25.9073 H   0  0  0  0  0  0
  -22.0579   -2.7615   23.2851 H   0  0  0  0  0  0
  -22.4106  -11.9782   22.4767 H   0  0  0  0  0  0
  -21.1090  -13.1159   22.2642 H   0  0  0  0  0  0
  -24.6404  -15.8383   20.6036 H   0  0  0  0  0  0
  -26.2515  -15.6654   20.1326 H   0  0  0  0  0  0
  -26.7236  -32.5479   23.1132 H   0  0  0  0  0  0
  -25.0026  -33.9737   25.0419 H   0  0  0  0  0  0
  -22.7244  -31.3257   21.4013 H   0  0  0  0  0  0
  -23.3738  -35.9596   23.3312 H   0  0  0  0  0  0
  -24.3509  -36.8924   22.2054 H   0  0  0  0  0  0
  -23.7151  -37.6473   23.6665 H   0  0  0  0  0  0
  -26.0823  -31.5146   20.5826 H   0  0  0  0  0  0
  -26.8606  -30.8485   21.9803 H   0  0  0  0  0  0
  -28.0710  -28.8766   21.2672 H   0  0  0  0  0  0
  -25.8778  -25.9167   18.9878 H   0  0  0  0  0  0
  -23.9539  -27.3561   18.9514 H   0  0  0  0  0  0
  -23.7002  -30.5818   19.3844 H   0  0  0  0  0  0
  -22.7446  -29.2243   19.9077 H   0  0  0  0  0  0
  -25.1249  -36.1958   25.0844 H   0  0  0  0  0  0
  -20.9932  -28.3284   24.1392 H   0  0  0  0  0  0
  -20.6718  -26.2342   23.2811 H   0  0  0  0  0  0
  -21.6615  -26.8588   21.9888 H   0  0  0  0  0  0
  -19.6342  -27.4076   20.6766 H   0  0  0  0  0  0
  -19.7001  -25.6961   21.0607 H   0  0  0  0  0  0
  -17.4201  -26.6501   21.4266 H   0  0  0  0  0  0
  -18.0949  -26.0062   22.9198 H   0  0  0  0  0  0
  -19.7863  -30.7343   24.2302 H   0  0  0  0  0  0
  -17.4910  -31.6361   24.4970 H   0  0  0  0  0  0
  -15.5244  -30.3030   23.7263 H   0  0  0  0  0  0
  -15.8731  -28.0733   22.7006 H   0  0  0  0  0  0
  -24.5927  -30.7003   25.7875 H   0  0  0  0  0  0
  -24.8749  -32.2911   26.4820 H   0  0  0  0  0  0
  -25.8005  -30.9082   27.0348 H   0  0  0  0  0  0
  -26.2846  -29.6873   24.1166 H   0  0  0  0  0  0
  -27.3914  -29.7261   25.4694 H   0  0  0  0  0  0
  -27.8735  -30.4380   23.9462 H   0  0  0  0  0  0
  -27.2658  -33.3702   26.2060 H   0  0  0  0  0  0
  -28.3885  -32.6828   25.0428 H   0  0  0  0  0  0
  -28.0610  -31.8514   26.5556 H   0  0  0  0  0  0
  -28.2594  -38.0089   24.7539 H   0  0  0  0  0  0
  -28.1035  -36.2622   24.6261 H   0  0  0  0  0  0
  -27.2277  -37.1426   25.8878 H   0  0  0  0  0  0
  -20.9236  -29.9746   21.7727 H   0  0  0  0  0  0
  -26.0140  -38.2896   24.1450 H   0  0  0  0  0  0
  -30.1925  -20.1429   19.6078 H   0  0  0  0  0  0
  -28.1524  -17.5321   22.3754 H   0  0  0  0  0  0
  -27.1292  -21.7201   22.2007 H   0  0  0  0  0  0
  -27.8371  -23.7831   21.4892 H   0  0  0  0  0  0
  -30.7076  -17.5617   19.6079 H   0  0  0  0  0  0
  -31.0778  -17.4755   21.2965 H   0  0  0  0  0  0
  -27.6045  -24.8777   18.8159 H   0  0  0  0  0  0
  -29.2664  -24.9606   19.0776 H   0  0  0  0  0  0
  -26.4490  -18.5475   23.8373 H   0  0  0  0  0  0
  -26.1889  -20.2418   23.8539 H   0  0  0  0  0  0
  -28.8261  -15.7633   20.7135 H   0  0  0  0  0  0
  1 25  1  0  0  0
  1 30  2  0  0  0
  1 82  1  0  0  0
  2  3  1  0  0  0
  2 25  1  0  0  0
  2 83  1  0  0  0
  2 84  1  0  0  0
  3  4  1  0  0  0
  3 85  1  0  0  0
  3 86  1  0  0  0
  4  5  1  0  0  0
  4 87  1  0  0  0
  4 88  1  0  0  0
  5  6  1  0  0  0
  5 26  1  0  0  0
  5 89  1  0  0  0
  6 25  1  0  0  0
  6 90  1  0  0  0
  6 91  1  0  0  0
  7  8  2  0  0  0
  7 26  1  0  0  0
  7 29  1  0  0  0
  8  9  1  0  0  0
  8 22  1  0  0  0
  9 10  1  0  0  0
  9 27  2  0  0  0
 10 11  2  0  0  0
 10 15  1  0  0  0
 11 12  1  0  0  0
 11 92  1  0  0  0
 12 13  2  0  0  0
 12 93  1  0  0  0
 13 14  1  0  0  0
 13 31  1  0  0  0
 14 15  2  0  0  0
 14 94  1  0  0  0
 15 95  1  0  0  0
 16 17  2  0  0  0
 16 21  1  0  0  0
 16 31  1  0  0  0
 17 18  1  0  0  0
 17 96  1  0  0  0
 18 19  2  0  0  0
 18 97  1  0  0  0
 19 20  1  0  0  0
 19 24  1  0  0  0
 20 21  2  0  0  0
 20 98  1  0  0  0
 21 23  1  0  0  0
 22 28  1  0  0  0
 22 32  2  0  0  0
 26 27  1  0  0  0
 28 99  1  0  0  0
 28100  1  0  0  0
 29101  1  0  0  0
 29102  1  0  0  0
 33 34  1  0  0  0
 33 66  1  0  0  0
 33 70  2  0  0  0
 34 36  1  0  0  0
 34 59  1  0  0  0
 34103  1  0  0  0
 35 44  2  0  0  0
 35 45  1  0  0  0
 35 68  1  0  0  0
 36 56  1  0  0  0
 36104  1  0  0  0
 37 39  1  0  0  0
 37 47  1  0  0  0
 37 66  1  0  0  0
 37105  1  0  0  0
 38 43  2  0  0  0
 38 46  1  0  0  0
 38 47  1  0  0  0
 39 64  1  0  0  0
 39 67  2  0  0  0
 40 52  1  0  0  0
 40 53  2  0  0  0
 40 58  1  0  0  0
 41106  1  0  0  0
 41107  1  0  0  0
 41108  1  0  0  0
 41 48  1  0  0  0
 42 43  1  0  0  0
 42 66  1  0  0  0
 42109  1  0  0  0
 42110  1  0  0  0
 43 44  1  0  0  0
 44111  1  0  0  0
 45 46  2  0  0  0
 45112  1  0  0  0
 46113  1  0  0  0
 47114  1  0  0  0
 47115  1  0  0  0
 48 56  1  0  0  0
 48 65  1  0  0  0
 48116  1  0  0  0
 49 50  1  0  0  0
 49 53  1  0  0  0
 49 64  1  0  0  0
 49117  1  0  0  0
 50 51  1  0  0  0
 50118  1  0  0  0
 50119  1  0  0  0
 51 52  1  0  0  0
 51120  1  0  0  0
 51121  1  0  0  0
 52122  1  0  0  0
 52123  1  0  0  0
 53 54  1  0  0  0
 54 55  2  0  0  0
 54124  1  0  0  0
 55 57  1  0  0  0
 55125  1  0  0  0
 56 69  2  0  0  0
 57 58  2  0  0  0
 57126  1  0  0  0
 58127  1  0  0  0
 59 60  1  0  0  0
 59 61  1  0  0  0
 59 62  1  0  0  0
 60128  1  0  0  0
 60129  1  0  0  0
 60130  1  0  0  0
 61131  1  0  0  0
 61132  1  0  0  0
 61133  1  0  0  0
 62134  1  0  0  0
 62135  1  0  0  0
 62136  1  0  0  0
 63 65  1  0  0  0
 63137  1  0  0  0
 63138  1  0  0  0
 63139  1  0  0  0
 64140  1  0  0  0
 65141  1  0  0  0
 68 79  1  0  0  0
 71 74  2  0  0  0
 71 75  1  0  0  0
 71142  1  0  0  0
 72 74  1  0  0  0
 72 76  2  0  0  0
 72143  1  0  0  0
 73 75  2  0  0  0
 73 76  1  0  0  0
 73144  1  0  0  0
 74 78  1  0  0  0
 75 80  1  0  0  0
 76 81  1  0  0  0
 77 79  1  0  0  0
 77 80  2  0  0  0
 77145  1  0  0  0
 78 82  1  0  0  0
 78146  1  0  0  0
 78147  1  0  0  0
 79148  1  0  0  0
 79149  1  0  0  0
 81150  1  0  0  0
 81151  1  0  0  0
 82152  1  0  0  0
M  ISO  4   1 100  68 101  79 101  82 100
M  END
> <chiral flag>
0

> <version>
0

> <s_m_source_file>
/data/baiqing/PycharmProjects/Reinvent-master-3.2/result/LINK_invent/BTK/process_docking_weight1_custom_product_contain_oxygen_bond_distance_aromatic_linkinvent_7_9_3/rearranged_h_0098.sdf

> <i_m_source_file_index>
74

> <r_mmod_Potential_Energy-OPLS-2005>
140.268615722656

> <r_mmod_Stretch_Energy-OPLS-2005>
137.46208190918

> <r_mmod_Bend_Energy-OPLS-2005>
190.564559936523

> <r_mmod_Torsional_Energy-OPLS-2005>
202.644577026367

> <r_mmod_Improper_Torsional_Energy-OPLS-2005>
5.6365795135498

> <r_mmod_Van_der_Waal_Energy-OPLS-2005>
139.009902954102

> <r_mmod_Electrostatic_Energy-OPLS-2005>
-404.680877685547

> <r_mmod_Solvation_Energy-OPLS-2005>
-226.885330200195

> <b_mmod_Minimization_Converged-OPLS-2005>
0

> <r_mmod_RMS_Derivative-OPLS-2005>
7.10887479782104

$$$$
74
                    3D
 Structure written by MMmdl.
152160  0  0  1  0            999 V2000
  -30.6287  -14.7862   20.4482 C   0  0  0  0  0  0
  -30.4264  -12.4818   19.4837 C   0  0  0  0  0  0
  -29.5098  -12.5121   18.2422 C   0  0  0  0  0  0
  -28.0376  -12.3321   18.6579 C   0  0  0  0  0  0
  -27.6355  -13.2448   19.8488 C   0  0  2  0  0  0
  -28.6822  -13.2160   20.9837 C   0  0  0  0  0  0
  -25.2410  -13.8171   20.5643 C   0  0  0  0  0  0
  -24.1734  -13.0392   20.9146 C   0  0  0  0  0  0
  -24.6386  -11.6896   20.8729 C   0  0  0  0  0  0
  -23.9075  -10.4270   21.0390 C   0  0  0  0  0  0
  -24.3623   -9.4196   21.9177 C   0  0  0  0  0  0
  -23.6296   -8.2234   22.0752 C   0  0  0  0  0  0
  -22.4279   -8.0271   21.3542 C   0  0  0  0  0  0
  -21.9913   -9.0239   20.4643 C   0  0  0  0  0  0
  -22.7243  -10.2114   20.3044 C   0  0  0  0  0  0
  -21.6851   -6.0732   22.5281 C   0  0  0  0  0  0
  -21.4012   -6.5638   23.8214 C   0  0  0  0  0  0
  -21.3656   -5.6789   24.9175 C   0  0  0  0  0  0
  -21.6044   -4.3053   24.7223 C   0  0  0  0  0  0
  -21.8818   -3.8145   23.4344 C   0  0  0  0  0  0
  -21.9191   -4.6961   22.3401 C   0  0  0  0  0  0
  -22.7761  -13.5172   21.1833 C   0  0  0  0  0  0
  -22.1660   -4.2149   21.0978 F   0  0  0  0  0  0
  -21.5629   -3.4536   25.7735 F   0  0  0  0  0  0
  -29.9789  -13.5671   20.3919 N   0  0  0  0  0  0
  -26.2913  -12.9450   20.3323 N   0  0  0  0  0  0
  -25.9340  -11.6568   20.5793 N   0  0  0  0  0  0
  -22.0434  -12.8170   22.0418 N   0  0  0  0  0  0
  -25.3913  -15.1886   20.4062 N   0  0  0  0  0  0
  -31.8295  -14.8081   20.1633 O   0  0  0  0  0  0
  -21.6638   -6.8874   21.4242 O   0  0  0  0  0  0
  -22.3432  -14.5483   20.6702 O   0  0  0  0  0  0
  -24.6326  -31.8529   23.1948 C   0  0  0  0  0  0
  -25.9141  -32.4746   23.8308 C   0  0  1  0  0  0
  -27.2245  -27.2467   20.1443 C   0  0  0  0  0  0
  -25.5926  -33.8546   24.2234 N   0  0  0  0  0  0
  -23.4305  -30.4722   21.5390 C   0  0  2  0  0  0
  -24.8787  -28.9065   20.1179 C   0  0  0  0  0  0
  -22.7506  -29.4592   22.4915 C   0  0  0  0  0  0
  -18.0292  -28.1389   22.8487 C   0  0  0  0  0  0
  -24.1486  -36.7279   23.2642 C   0  0  0  0  0  0
  -25.9755  -30.7637   21.3726 C   0  0  0  0  0  0
  -26.0510  -29.3812   20.7209 C   0  0  0  0  0  0
  -27.2299  -28.5669   20.7136 C   0  0  0  0  0  0
  -26.0295  -26.8315   19.5241 C   0  0  0  0  0  0
  -24.8734  -27.6406   19.5074 C   0  0  0  0  0  0
  -23.6504  -29.7975   20.1589 C   0  0  0  0  0  0
  -25.4115  -36.3063   24.0324 C   0  0  1  0  0  0
  -20.5895  -28.3700   23.1270 C   0  0  2  0  0  0
  -20.6778  -26.9415   22.5413 C   0  0  0  0  0  0
  -19.5754  -26.6383   21.5217 C   0  0  0  0  0  0
  -18.1935  -26.7931   22.1628 C   0  0  0  0  0  0
  -19.1545  -28.8862   23.2875 C   0  0  0  0  0  0
  -18.9465  -30.1462   23.8894 C   0  0  0  0  0  0
  -17.6463  -30.6590   24.0562 C   0  0  0  0  0  0
  -25.9057  -34.9436   23.5086 C   0  0  0  0  0  0
  -16.5354  -29.9087   23.6330 C   0  0  0  0  0  0
  -16.7277  -28.6503   23.0354 C   0  0  0  0  0  0
  -26.4500  -31.6583   25.0709 C   0  0  0  0  0  0
  -25.3715  -31.3742   26.1425 C   0  0  0  0  0  0
  -27.0351  -30.3000   24.6203 C   0  0  0  0  0  0
  -27.6045  -32.4330   25.7491 C   0  0  0  0  0  0
  -27.5576  -37.1796   24.8466 C   0  0  0  0  0  0
  -21.4212  -29.3045   22.3658 N   0  0  0  0  0  0
  -26.4289  -37.3764   23.9408 N   0  0  0  0  0  0
  -24.6990  -31.0480   22.0926 N   0  0  0  0  0  0
  -23.4197  -28.8140   23.3029 O   0  0  0  0  0  0
  -28.3320  -26.3688   20.1308 O   0  0  0  0  0  0
  -26.5636  -34.8918   22.4660 O   0  0  0  0  0  0
  -23.5472  -32.1352   23.7237 O   0  0  0  0  0  0
  -27.0372  -19.4643   21.0865 C   0  0  0  0  0  0
  -27.4569  -20.7820   20.8041 C   0  0  0  0  0  0
  -29.6787  -19.9025   20.4262 C   0  0  0  0  0  0
  -29.2796  -18.5136   20.6752 C   0  0  0  0  0  0
  -27.9181  -18.3554   21.0665 C   0  0  0  0  0  0
  -28.8004  -21.0678   20.4952 C   0  0  0  0  0  0
  -30.2881  -17.3029   20.5697 C   0  0  0  0  0  0
  -28.4077  -23.5822   19.8655 C   0  0  0  0  0  0
  -28.2274  -24.9729   20.7025 C   0  0  0  0  0  0
  -27.3856  -17.1351   21.4887 N   0  0  0  0  0  0
  -29.8875  -15.9612   20.6113 N   0  0  0  0  0  0
  -31.4774  -17.6105   20.4260 O   0  0  0  0  0  0
  -29.2429  -22.4232   20.3544 O   0  0  0  0  0  0
  -31.4685  -12.5922   19.1795 H   0  0  0  0  0  0
  -30.3664  -11.5151   19.9863 H   0  0  0  0  0  0
  -29.7995  -11.7313   17.5378 H   0  0  0  0  0  0
  -29.6314  -13.4601   17.7157 H   0  0  0  0  0  0
  -27.9034  -11.2860   18.9345 H   0  0  0  0  0  0
  -27.3792  -12.5076   17.8062 H   0  0  0  0  0  0
  -27.6149  -14.2608   19.4530 H   0  0  0  0  0  0
  -28.7258  -12.2315   21.4515 H   0  0  0  0  0  0
  -28.4124  -13.9202   21.7723 H   0  0  0  0  0  0
  -25.2763   -9.5682   22.4756 H   0  0  0  0  0  0
  -24.0002   -7.4629   22.7478 H   0  0  0  0  0  0
  -21.0841   -8.8753   19.8954 H   0  0  0  0  0  0
  -22.3695  -10.9648   19.6151 H   0  0  0  0  0  0
  -21.2008   -7.6146   23.9718 H   0  0  0  0  0  0
  -21.1478   -6.0519   25.9078 H   0  0  0  0  0  0
  -22.0602   -2.7608   23.2841 H   0  0  0  0  0  0
  -22.4072  -11.9842   22.4802 H   0  0  0  0  0  0
  -21.1058  -13.1197   22.2650 H   0  0  0  0  0  0
  -24.6162  -15.8212   20.5654 H   0  0  0  0  0  0
  -26.2834  -15.6737   20.3401 H   0  0  0  0  0  0
  -26.7209  -32.5395   23.1050 H   0  0  0  0  0  0
  -25.0061  -33.9675   25.0371 H   0  0  0  0  0  0
  -22.7279  -31.2947   21.3882 H   0  0  0  0  0  0
  -23.3751  -35.9608   23.3300 H   0  0  0  0  0  0
  -24.3575  -36.8907   22.2058 H   0  0  0  0  0  0
  -23.7238  -37.6477   23.6671 H   0  0  0  0  0  0
  -26.1096  -31.5205   20.5984 H   0  0  0  0  0  0
  -26.8546  -30.8193   22.0037 H   0  0  0  0  0  0
  -28.1343  -28.9324   21.1790 H   0  0  0  0  0  0
  -25.9868  -25.8589   19.0541 H   0  0  0  0  0  0
  -23.9751  -27.2711   19.0319 H   0  0  0  0  0  0
  -23.7782  -30.5692   19.3989 H   0  0  0  0  0  0
  -22.7681  -29.2317   19.8549 H   0  0  0  0  0  0
  -25.1299  -36.1906   25.0817 H   0  0  0  0  0  0
  -20.9990  -28.3280   24.1390 H   0  0  0  0  0  0
  -20.5673  -26.2312   23.3622 H   0  0  0  0  0  0
  -21.6647  -26.7435   22.1211 H   0  0  0  0  0  0
  -19.6914  -25.6291   21.1256 H   0  0  0  0  0  0
  -19.6692  -27.3187   20.6742 H   0  0  0  0  0  0
  -17.4204  -26.6677   21.4032 H   0  0  0  0  0  0
  -18.0334  -26.0075   22.9026 H   0  0  0  0  0  0
  -19.7939  -30.7281   24.2263 H   0  0  0  0  0  0
  -17.5015  -31.6271   24.5163 H   0  0  0  0  0  0
  -15.5353  -30.2987   23.7658 H   0  0  0  0  0  0
  -15.8679  -28.0823   22.7071 H   0  0  0  0  0  0
  -24.5887  -30.7095   25.7750 H   0  0  0  0  0  0
  -24.8910  -32.2917   26.4832 H   0  0  0  0  0  0
  -25.8023  -30.8929   27.0213 H   0  0  0  0  0  0
  -26.2942  -29.6748   24.1207 H   0  0  0  0  0  0
  -27.4009  -29.7264   25.4729 H   0  0  0  0  0  0
  -27.8824  -30.4275   23.9461 H   0  0  0  0  0  0
  -27.2643  -33.3630   26.2056 H   0  0  0  0  0  0
  -28.3865  -32.6893   25.0331 H   0  0  0  0  0  0
  -28.0702  -31.8466   26.5421 H   0  0  0  0  0  0
  -28.2594  -38.0091   24.7506 H   0  0  0  0  0  0
  -28.1070  -36.2622   24.6299 H   0  0  0  0  0  0
  -27.2294  -37.1452   25.8869 H   0  0  0  0  0  0
  -20.9404  -29.8760   21.6851 H   0  0  0  0  0  0
  -26.0165  -38.2837   24.1409 H   0  0  0  0  0  0
  -26.0035  -19.3213   21.3694 H   0  0  0  0  0  0
  -26.7334  -21.5789   20.8920 H   0  0  0  0  0  0
  -30.7155  -20.0833   20.1813 H   0  0  0  0  0  0
  -27.4263  -23.2345   19.5450 H   0  0  0  0  0  0
  -28.8952  -23.8665   18.9332 H   0  0  0  0  0  0
  -29.0073  -24.9545   21.4633 H   0  0  0  0  0  0
  -27.3033  -24.9001   21.2772 H   0  0  0  0  0  0
  -27.8777  -16.7220   22.2750 H   0  0  0  0  0  0
  -26.4058  -17.1905   21.7517 H   0  0  0  0  0  0
  -28.8914  -15.8598   20.7474 H   0  0  0  0  0  0
  1 25  1  0  0  0
  1 30  2  0  0  0
  1 81  1  0  0  0
  2  3  1  0  0  0
  2 25  1  0  0  0
  2 84  1  0  0  0
  2 85  1  0  0  0
  3  4  1  0  0  0
  3 86  1  0  0  0
  3 87  1  0  0  0
  4  5  1  0  0  0
  4 88  1  0  0  0
  4 89  1  0  0  0
  5  6  1  0  0  0
  5 26  1  0  0  0
  5 90  1  0  0  0
  6 25  1  0  0  0
  6 91  1  0  0  0
  6 92  1  0  0  0
  7  8  2  0  0  0
  7 26  1  0  0  0
  7 29  1  0  0  0
  8  9  1  0  0  0
  8 22  1  0  0  0
  9 10  1  0  0  0
  9 27  2  0  0  0
 10 11  2  0  0  0
 10 15  1  0  0  0
 11 12  1  0  0  0
 11 93  1  0  0  0
 12 13  2  0  0  0
 12 94  1  0  0  0
 13 14  1  0  0  0
 13 31  1  0  0  0
 14 15  2  0  0  0
 14 95  1  0  0  0
 15 96  1  0  0  0
 16 17  2  0  0  0
 16 21  1  0  0  0
 16 31  1  0  0  0
 17 18  1  0  0  0
 17 97  1  0  0  0
 18 19  2  0  0  0
 18 98  1  0  0  0
 19 20  1  0  0  0
 19 24  1  0  0  0
 20 21  2  0  0  0
 20 99  1  0  0  0
 21 23  1  0  0  0
 22 28  1  0  0  0
 22 32  2  0  0  0
 26 27  1  0  0  0
 28100  1  0  0  0
 28101  1  0  0  0
 29102  1  0  0  0
 29103  1  0  0  0
 33 34  1  0  0  0
 33 66  1  0  0  0
 33 70  2  0  0  0
 34 36  1  0  0  0
 34 59  1  0  0  0
 34104  1  0  0  0
 35 44  2  0  0  0
 35 45  1  0  0  0
 35 68  1  0  0  0
 36 56  1  0  0  0
 36105  1  0  0  0
 37 39  1  0  0  0
 37 47  1  0  0  0
 37 66  1  0  0  0
 37106  1  0  0  0
 38 43  2  0  0  0
 38 46  1  0  0  0
 38 47  1  0  0  0
 39 64  1  0  0  0
 39 67  2  0  0  0
 40 52  1  0  0  0
 40 53  2  0  0  0
 40 58  1  0  0  0
 41107  1  0  0  0
 41108  1  0  0  0
 41109  1  0  0  0
 41 48  1  0  0  0
 42 43  1  0  0  0
 42 66  1  0  0  0
 42110  1  0  0  0
 42111  1  0  0  0
 43 44  1  0  0  0
 44112  1  0  0  0
 45 46  2  0  0  0
 45113  1  0  0  0
 46114  1  0  0  0
 47115  1  0  0  0
 47116  1  0  0  0
 48 56  1  0  0  0
 48 65  1  0  0  0
 48117  1  0  0  0
 49 50  1  0  0  0
 49 53  1  0  0  0
 49 64  1  0  0  0
 49118  1  0  0  0
 50 51  1  0  0  0
 50119  1  0  0  0
 50120  1  0  0  0
 51 52  1  0  0  0
 51121  1  0  0  0
 51122  1  0  0  0
 52123  1  0  0  0
 52124  1  0  0  0
 53 54  1  0  0  0
 54 55  2  0  0  0
 54125  1  0  0  0
 55 57  1  0  0  0
 55126  1  0  0  0
 56 69  2  0  0  0
 57 58  2  0  0  0
 57127  1  0  0  0
 58128  1  0  0  0
 59 60  1  0  0  0
 59 61  1  0  0  0
 59 62  1  0  0  0
 60129  1  0  0  0
 60130  1  0  0  0
 60131  1  0  0  0
 61132  1  0  0  0
 61133  1  0  0  0
 61134  1  0  0  0
 62135  1  0  0  0
 62136  1  0  0  0
 62137  1  0  0  0
 63 65  1  0  0  0
 63138  1  0  0  0
 63139  1  0  0  0
 63140  1  0  0  0
 64141  1  0  0  0
 65142  1  0  0  0
 68 79  1  0  0  0
 71 72  2  0  0  0
 71 75  1  0  0  0
 71143  1  0  0  0
 72 76  1  0  0  0
 72144  1  0  0  0
 73 74  1  0  0  0
 73 76  2  0  0  0
 73145  1  0  0  0
 74 75  2  0  0  0
 74 77  1  0  0  0
 75 80  1  0  0  0
 76 83  1  0  0  0
 77 81  1  0  0  0
 77 82  2  0  0  0
 78 79  1  0  0  0
 78 83  1  0  0  0
 78146  1  0  0  0
 78147  1  0  0  0
 79148  1  0  0  0
 79149  1  0  0  0
 80150  1  0  0  0
 80151  1  0  0  0
 81152  1  0  0  0
M  ISO  4   1 100  68 101  79 101  81 100
M  END
> <chiral flag>
0

> <version>
0

> <s_m_source_file>
/data/baiqing/PycharmProjects/Reinvent-master-3.2/result/LINK_invent/BTK/process_docking_weight1_custom_product_contain_oxygen_bond_distance_aromatic_linkinvent_7_9_3/rearranged_h_0098.sdf

> <i_m_source_file_index>
75

> <r_mmod_Potential_Energy-OPLS-2005>
214.217483520508

> <r_mmod_Stretch_Energy-OPLS-2005>
141.628280639648

> <r_mmod_Bend_Energy-OPLS-2005>
195.966384887695

> <r_mmod_Torsional_Energy-OPLS-2005>
252.656402587891

> <r_mmod_Improper_Torsional_Energy-OPLS-2005>
11.2103786468506

> <r_mmod_Van_der_Waal_Energy-OPLS-2005>
146.884078979492

> <r_mmod_Electrostatic_Energy-OPLS-2005>
-402.452209472656

> <r_mmod_Solvation_Energy-OPLS-2005>
-228.288116455078

> <b_mmod_Minimization_Converged-OPLS-2005>
0

> <r_mmod_RMS_Derivative-OPLS-2005>
0.615970075130463

$$$$
75
                    3D
 Structure written by MMmdl.
155163  0  0  1  0            999 V2000
  -30.6453  -14.7491   20.4789 C   0  0  0  0  0  0
  -30.4204  -12.4602   19.4827 C   0  0  0  0  0  0
  -29.5031  -12.5078   18.2421 C   0  0  0  0  0  0
  -28.0360  -12.3064   18.6650 C   0  0  0  0  0  0
  -27.6360  -13.2257   19.8487 C   0  0  2  0  0  0
  -28.6791  -13.1978   20.9882 C   0  0  0  0  0  0
  -25.2501  -13.8212   20.5698 C   0  0  0  0  0  0
  -24.1780  -13.0449   20.9165 C   0  0  0  0  0  0
  -24.6373  -11.6924   20.8732 C   0  0  0  0  0  0
  -23.9059  -10.4306   21.0396 C   0  0  0  0  0  0
  -24.3614   -9.4226   21.9181 C   0  0  0  0  0  0
  -23.6298   -8.2254   22.0763 C   0  0  0  0  0  0
  -22.4287   -8.0277   21.3543 C   0  0  0  0  0  0
  -21.9900   -9.0251   20.4652 C   0  0  0  0  0  0
  -22.7223  -10.2135   20.3058 C   0  0  0  0  0  0
  -21.6862   -6.0737   22.5284 C   0  0  0  0  0  0
  -21.4023   -6.5646   23.8218 C   0  0  0  0  0  0
  -21.3655   -5.6800   24.9174 C   0  0  0  0  0  0
  -21.6059   -4.3067   24.7231 C   0  0  0  0  0  0
  -21.8821   -3.8144   23.4355 C   0  0  0  0  0  0
  -21.9199   -4.6959   22.3401 C   0  0  0  0  0  0
  -22.7801  -13.5205   21.1819 C   0  0  0  0  0  0
  -22.1654   -4.2137   21.0979 F   0  0  0  0  0  0
  -21.5630   -3.4554   25.7746 F   0  0  0  0  0  0
  -29.9850  -13.5382   20.4069 N   0  0  0  0  0  0
  -26.2912  -12.9386   20.3305 N   0  0  0  0  0  0
  -25.9309  -11.6538   20.5777 N   0  0  0  0  0  0
  -22.0483  -12.8206   22.0400 N   0  0  0  0  0  0
  -25.4221  -15.1948   20.4121 N   0  0  0  0  0  0
  -31.8048  -14.8272   20.0678 O   0  0  0  0  0  0
  -21.6651   -6.8876   21.4243 O   0  0  0  0  0  0
  -22.3465  -14.5484   20.6653 O   0  0  0  0  0  0
  -24.6309  -31.8535   23.1974 C   0  0  0  0  0  0
  -25.9121  -32.4760   23.8324 C   0  0  1  0  0  0
  -27.2170  -27.2564   20.1283 C   0  0  0  0  0  0
  -25.5901  -33.8560   24.2235 N   0  0  0  0  0  0
  -23.4283  -30.4748   21.5399 C   0  0  2  0  0  0
  -24.8766  -28.9276   20.1045 C   0  0  0  0  0  0
  -22.7505  -29.4561   22.4888 C   0  0  0  0  0  0
  -18.0312  -28.1363   22.8559 C   0  0  0  0  0  0
  -24.1485  -36.7302   23.2639 C   0  0  0  0  0  0
  -25.9745  -30.7685   21.3750 C   0  0  0  0  0  0
  -26.0489  -29.3898   20.7163 C   0  0  0  0  0  0
  -27.2228  -28.5667   20.7156 C   0  0  0  0  0  0
  -26.0190  -26.8643   19.4865 C   0  0  0  0  0  0
  -24.8658  -27.6732   19.4792 C   0  0  0  0  0  0
  -23.6491  -29.8149   20.1548 C   0  0  0  0  0  0
  -25.4123  -36.3084   24.0316 C   0  0  1  0  0  0
  -20.5913  -28.3689   23.1321 C   0  0  2  0  0  0
  -20.6798  -26.9412   22.5427 C   0  0  0  0  0  0
  -19.5708  -26.6368   21.5301 C   0  0  0  0  0  0
  -18.1946  -26.7850   22.1798 C   0  0  0  0  0  0
  -19.1563  -28.8871   23.2889 C   0  0  0  0  0  0
  -18.9471  -30.1497   23.8868 C   0  0  0  0  0  0
  -17.6454  -30.6620   24.0511 C   0  0  0  0  0  0
  -25.9065  -34.9450   23.5097 C   0  0  0  0  0  0
  -16.5362  -29.9077   23.6295 C   0  0  0  0  0  0
  -16.7294  -28.6471   23.0401 C   0  0  0  0  0  0
  -26.4495  -31.6578   25.0701 C   0  0  0  0  0  0
  -25.3698  -31.3746   26.1410 C   0  0  0  0  0  0
  -27.0311  -30.2977   24.6187 C   0  0  0  0  0  0
  -27.6014  -32.4333   25.7495 C   0  0  0  0  0  0
  -27.5587  -37.1811   24.8464 C   0  0  0  0  0  0
  -21.4203  -29.3007   22.3663 N   0  0  0  0  0  0
  -26.4301  -37.3780   23.9411 N   0  0  0  0  0  0
  -24.6976  -31.0489   22.0957 N   0  0  0  0  0  0
  -23.4201  -28.8109   23.2998 O   0  0  0  0  0  0
  -28.3067  -26.3518   20.2017 O   0  0  0  0  0  0
  -26.5649  -34.8921   22.4678 O   0  0  0  0  0  0
  -23.5445  -32.1361   23.7258 O   0  0  0  0  0  0
  -28.7445  -17.0001   19.1704 C   0  0  0  0  0  0
  -28.1292  -18.1250   18.5843 C   0  0  0  0  0  0
  -29.7459  -18.4830   20.8007 C   0  0  0  0  0  0
  -29.1622  -19.6766   20.1907 C   0  0  0  0  0  0
  -29.5474  -17.1202   20.3198 C   0  0  0  0  0  0
  -28.2919  -19.4426   19.0869 C   0  0  0  0  0  0
  -29.4743  -21.1334   20.6877 C   0  0  0  0  0  0
  -26.2442  -20.3128   18.2305 C   0  0  0  0  0  0
  -29.1341  -23.7457   20.4581 C   0  0  0  0  0  0
  -28.0445  -24.8740   20.0548 C   0  0  0  0  0  0
  -30.0324  -15.8849   20.9907 N   0  0  0  0  0  0
  -28.8494  -22.2643   20.1805 N   0  0  0  0  0  0
  -30.3301  -21.2659   21.5662 O   0  0  0  0  0  0
  -27.6404  -20.4909   18.4749 O   0  0  0  0  0  0
  -31.4648  -12.5589   19.1856 H   0  0  0  0  0  0
  -30.3452  -11.4918   19.9807 H   0  0  0  0  0  0
  -29.7956  -11.7481   17.5168 H   0  0  0  0  0  0
  -29.6137  -13.4698   17.7408 H   0  0  0  0  0  0
  -27.9189  -11.2619   18.9582 H   0  0  0  0  0  0
  -27.3682  -12.4625   17.8171 H   0  0  0  0  0  0
  -27.6141  -14.2339   19.4460 H   0  0  0  0  0  0
  -28.7125  -12.2159   21.4610 H   0  0  0  0  0  0
  -28.4066  -13.9140   21.7652 H   0  0  0  0  0  0
  -25.2771   -9.5728   22.4737 H   0  0  0  0  0  0
  -24.0027   -7.4666   22.7496 H   0  0  0  0  0  0
  -21.0837   -8.8796   19.8951 H   0  0  0  0  0  0
  -22.3703  -10.9684   19.6170 H   0  0  0  0  0  0
  -21.2025   -7.6159   23.9709 H   0  0  0  0  0  0
  -21.1455   -6.0533   25.9077 H   0  0  0  0  0  0
  -22.0596   -2.7603   23.2873 H   0  0  0  0  0  0
  -22.4118  -11.9843   22.4722 H   0  0  0  0  0  0
  -21.1118  -13.1252   22.2642 H   0  0  0  0  0  0
  -24.6540  -15.8498   20.5080 H   0  0  0  0  0  0
  -26.2859  -15.6362   20.1218 H   0  0  0  0  0  0
  -26.7181  -32.5412   23.1046 H   0  0  0  0  0  0
  -24.9941  -33.9688   25.0311 H   0  0  0  0  0  0
  -22.7225  -31.2946   21.3947 H   0  0  0  0  0  0
  -23.3737  -35.9642   23.3307 H   0  0  0  0  0  0
  -24.3556  -36.8944   22.2053 H   0  0  0  0  0  0
  -23.7261  -37.6509   23.6666 H   0  0  0  0  0  0
  -26.1070  -31.5301   20.6064 H   0  0  0  0  0  0
  -26.8540  -30.8219   22.0047 H   0  0  0  0  0  0
  -28.1179  -28.9122   21.2117 H   0  0  0  0  0  0
  -25.9290  -25.9064   18.9996 H   0  0  0  0  0  0
  -23.9650  -27.3127   19.0000 H   0  0  0  0  0  0
  -23.7776  -30.5981   19.4068 H   0  0  0  0  0  0
  -22.7665  -29.2522   19.8429 H   0  0  0  0  0  0
  -25.1299  -36.1938   25.0804 H   0  0  0  0  0  0
  -21.0013  -28.3297   24.1446 H   0  0  0  0  0  0
  -20.5783  -26.2269   23.3633 H   0  0  0  0  0  0
  -21.6617  -26.7484   22.1096 H   0  0  0  0  0  0
  -19.6857  -25.6266   21.1360 H   0  0  0  0  0  0
  -19.6512  -27.3183   20.6817 H   0  0  0  0  0  0
  -17.4163  -26.6459   21.4277 H   0  0  0  0  0  0
  -18.0489  -26.0040   22.9300 H   0  0  0  0  0  0
  -19.7956  -30.7348   24.2177 H   0  0  0  0  0  0
  -17.4959  -31.6312   24.5083 H   0  0  0  0  0  0
  -15.5330  -30.2942   23.7551 H   0  0  0  0  0  0
  -15.8707  -28.0740   22.7170 H   0  0  0  0  0  0
  -24.5856  -30.7116   25.7751 H   0  0  0  0  0  0
  -24.8898  -32.2917   26.4817 H   0  0  0  0  0  0
  -25.8004  -30.8931   27.0194 H   0  0  0  0  0  0
  -26.2877  -29.6748   24.1188 H   0  0  0  0  0  0
  -27.3942  -29.7238   25.4723 H   0  0  0  0  0  0
  -27.8783  -30.4222   23.9439 H   0  0  0  0  0  0
  -27.2573  -33.3623   26.2051 H   0  0  0  0  0  0
  -28.3841  -32.6937   25.0358 H   0  0  0  0  0  0
  -28.0644  -31.8480   26.5447 H   0  0  0  0  0  0
  -28.2595  -38.0109   24.7490 H   0  0  0  0  0  0
  -28.1083  -36.2637   24.6303 H   0  0  0  0  0  0
  -27.2275  -37.1481   25.8854 H   0  0  0  0  0  0
  -20.9344  -29.8604   21.6790 H   0  0  0  0  0  0
  -26.0175  -38.2850   24.1422 H   0  0  0  0  0  0
  -28.5663  -16.0319   18.7290 H   0  0  0  0  0  0
  -27.5241  -17.9488   17.7086 H   0  0  0  0  0  0
  -30.3715  -18.6266   21.6717 H   0  0  0  0  0  0
  -25.8494  -21.1961   17.7296 H   0  0  0  0  0  0
  -25.6929  -20.1994   19.1662 H   0  0  0  0  0  0
  -26.0178  -19.4591   17.5941 H   0  0  0  0  0  0
  -29.3587  -23.8480   21.5207 H   0  0  0  0  0  0
  -30.0630  -23.9929   19.9409 H   0  0  0  0  0  0
  -27.1439  -24.6451   20.6258 H   0  0  0  0  0  0
  -27.7870  -24.7051   19.0089 H   0  0  0  0  0  0
  -30.4224  -16.0838   21.9012 H   0  0  0  0  0  0
  -28.1662  -22.0690   19.4578 H   0  0  0  0  0  0
  1 25  1  0  0  0
  1 30  2  0  0  0
  1 81  1  0  0  0
  2  3  1  0  0  0
  2 25  1  0  0  0
  2 85  1  0  0  0
  2 86  1  0  0  0
  3  4  1  0  0  0
  3 87  1  0  0  0
  3 88  1  0  0  0
  4  5  1  0  0  0
  4 89  1  0  0  0
  4 90  1  0  0  0
  5  6  1  0  0  0
  5 26  1  0  0  0
  5 91  1  0  0  0
  6 25  1  0  0  0
  6 92  1  0  0  0
  6 93  1  0  0  0
  7  8  2  0  0  0
  7 26  1  0  0  0
  7 29  1  0  0  0
  8  9  1  0  0  0
  8 22  1  0  0  0
  9 10  1  0  0  0
  9 27  2  0  0  0
 10 11  2  0  0  0
 10 15  1  0  0  0
 11 12  1  0  0  0
 11 94  1  0  0  0
 12 13  2  0  0  0
 12 95  1  0  0  0
 13 14  1  0  0  0
 13 31  1  0  0  0
 14 15  2  0  0  0
 14 96  1  0  0  0
 15 97  1  0  0  0
 16 17  2  0  0  0
 16 21  1  0  0  0
 16 31  1  0  0  0
 17 18  1  0  0  0
 17 98  1  0  0  0
 18 19  2  0  0  0
 18 99  1  0  0  0
 19 20  1  0  0  0
 19 24  1  0  0  0
 20 21  2  0  0  0
 20100  1  0  0  0
 21 23  1  0  0  0
 22 28  1  0  0  0
 22 32  2  0  0  0
 26 27  1  0  0  0
 28101  1  0  0  0
 28102  1  0  0  0
 29103  1  0  0  0
 29104  1  0  0  0
 33 34  1  0  0  0
 33 66  1  0  0  0
 33 70  2  0  0  0
 34 36  1  0  0  0
 34 59  1  0  0  0
 34105  1  0  0  0
 35 44  2  0  0  0
 35 45  1  0  0  0
 35 68  1  0  0  0
 36 56  1  0  0  0
 36106  1  0  0  0
 37 39  1  0  0  0
 37 47  1  0  0  0
 37 66  1  0  0  0
 37107  1  0  0  0
 38 43  2  0  0  0
 38 46  1  0  0  0
 38 47  1  0  0  0
 39 64  1  0  0  0
 39 67  2  0  0  0
 40 52  1  0  0  0
 40 53  2  0  0  0
 40 58  1  0  0  0
 41108  1  0  0  0
 41109  1  0  0  0
 41110  1  0  0  0
 41 48  1  0  0  0
 42 43  1  0  0  0
 42 66  1  0  0  0
 42111  1  0  0  0
 42112  1  0  0  0
 43 44  1  0  0  0
 44113  1  0  0  0
 45 46  2  0  0  0
 45114  1  0  0  0
 46115  1  0  0  0
 47116  1  0  0  0
 47117  1  0  0  0
 48 56  1  0  0  0
 48 65  1  0  0  0
 48118  1  0  0  0
 49 50  1  0  0  0
 49 53  1  0  0  0
 49 64  1  0  0  0
 49119  1  0  0  0
 50 51  1  0  0  0
 50120  1  0  0  0
 50121  1  0  0  0
 51 52  1  0  0  0
 51122  1  0  0  0
 51123  1  0  0  0
 52124  1  0  0  0
 52125  1  0  0  0
 53 54  1  0  0  0
 54 55  2  0  0  0
 54126  1  0  0  0
 55 57  1  0  0  0
 55127  1  0  0  0
 56 69  2  0  0  0
 57 58  2  0  0  0
 57128  1  0  0  0
 58129  1  0  0  0
 59 60  1  0  0  0
 59 61  1  0  0  0
 59 62  1  0  0  0
 60130  1  0  0  0
 60131  1  0  0  0
 60132  1  0  0  0
 61133  1  0  0  0
 61134  1  0  0  0
 61135  1  0  0  0
 62136  1  0  0  0
 62137  1  0  0  0
 62138  1  0  0  0
 63 65  1  0  0  0
 63139  1  0  0  0
 63140  1  0  0  0
 63141  1  0  0  0
 64142  1  0  0  0
 65143  1  0  0  0
 68 80  1  0  0  0
 71 72  2  0  0  0
 71 75  1  0  0  0
 71144  1  0  0  0
 72 76  1  0  0  0
 72145  1  0  0  0
 73 74  1  0  0  0
 73 75  2  0  0  0
 73146  1  0  0  0
 74 76  2  0  0  0
 74 77  1  0  0  0
 75 81  1  0  0  0
 76 84  1  0  0  0
 77 82  1  0  0  0
 77 83  2  0  0  0
 78 84  1  0  0  0
 78147  1  0  0  0
 78148  1  0  0  0
 78149  1  0  0  0
 79 80  1  0  0  0
 79 82  1  0  0  0
 79150  1  0  0  0
 79151  1  0  0  0
 80152  1  0  0  0
 80153  1  0  0  0
 81154  1  0  0  0
 82155  1  0  0  0
M  ISO  4   1 100  68 101  80 101  81 100
M  END
> <chiral flag>
0

> <version>
0

> <s_m_source_file>
/data/baiqing/PycharmProjects/Reinvent-master-3.2/result/LINK_invent/BTK/process_docking_weight1_custom_product_contain_oxygen_bond_distance_aromatic_linkinvent_7_9_3/rearranged_h_0098.sdf

> <i_m_source_file_index>
76

> <r_mmod_Potential_Energy-OPLS-2005>
152.569396972656

> <r_mmod_Stretch_Energy-OPLS-2005>
127.431770324707

> <r_mmod_Bend_Energy-OPLS-2005>
171.309219360352

> <r_mmod_Torsional_Energy-OPLS-2005>
293.245300292969

> <r_mmod_Improper_Torsional_Energy-OPLS-2005>
4.82807016372681

> <r_mmod_Van_der_Waal_Energy-OPLS-2005>
144.572280883789

> <r_mmod_Electrostatic_Energy-OPLS-2005>
-448.148498535156

> <r_mmod_Solvation_Energy-OPLS-2005>
-230.054809570312

> <b_mmod_Minimization_Converged-OPLS-2005>
0

> <r_mmod_RMS_Derivative-OPLS-2005>
4.29673480987549

$$$$
76
                    3D
 Structure written by MMmdl.
165174  0  0  1  0            999 V2000
  -30.6672  -14.7103   20.3443 C   0  0  0  0  0  0
  -30.4227  -12.4218   19.4310 C   0  0  0  0  0  0
  -29.4797  -12.4373   18.2091 C   0  0  0  0  0  0
  -28.0133  -12.2948   18.6532 C   0  0  0  0  0  0
  -27.6351  -13.2227   19.8405 C   0  0  2  0  0  0
  -28.7028  -13.2110   20.9520 C   0  0  0  0  0  0
  -25.2531  -13.8168   20.5801 C   0  0  0  0  0  0
  -24.1801  -13.0421   20.9234 C   0  0  0  0  0  0
  -24.6391  -11.6901   20.8796 C   0  0  0  0  0  0
  -23.9071  -10.4282   21.0432 C   0  0  0  0  0  0
  -24.3618   -9.4189   21.9204 C   0  0  0  0  0  0
  -23.6285   -8.2231   22.0766 C   0  0  0  0  0  0
  -22.4272   -8.0282   21.3548 C   0  0  0  0  0  0
  -21.9910   -9.0260   20.4653 C   0  0  0  0  0  0
  -22.7247  -10.2136   20.3071 C   0  0  0  0  0  0
  -21.6846   -6.0741   22.5284 C   0  0  0  0  0  0
  -21.4009   -6.5648   23.8218 C   0  0  0  0  0  0
  -21.3650   -5.6803   24.9183 C   0  0  0  0  0  0
  -21.6035   -4.3061   24.7228 C   0  0  0  0  0  0
  -21.8816   -3.8154   23.4353 C   0  0  0  0  0  0
  -21.9186   -4.6970   22.3406 C   0  0  0  0  0  0
  -22.7827  -13.5221   21.1864 C   0  0  0  0  0  0
  -22.1662   -4.2153   21.0986 F   0  0  0  0  0  0
  -21.5607   -3.4545   25.7740 F   0  0  0  0  0  0
  -29.9854  -13.5204   20.3115 N   0  0  0  0  0  0
  -26.2947  -12.9366   20.3385 N   0  0  0  0  0  0
  -25.9329  -11.6521   20.5855 N   0  0  0  0  0  0
  -22.0469  -12.8211   22.0417 N   0  0  0  0  0  0
  -25.4259  -15.1890   20.4325 N   0  0  0  0  0  0
  -31.8986  -14.6827   20.4112 O   0  0  0  0  0  0
  -21.6636   -6.8880   21.4246 O   0  0  0  0  0  0
  -22.3524  -14.5533   20.6716 O   0  0  0  0  0  0
  -24.6255  -31.8598   23.2008 C   0  0  0  0  0  0
  -25.9105  -32.4779   23.8338 C   0  0  1  0  0  0
  -27.2199  -27.3228   20.1276 C   0  0  0  0  0  0
  -25.5937  -33.8578   24.2280 N   0  0  0  0  0  0
  -23.4193  -30.4824   21.5426 C   0  0  2  0  0  0
  -24.8649  -28.9310   20.1150 C   0  0  0  0  0  0
  -22.7478  -29.4637   22.4934 C   0  0  0  0  0  0
  -18.0291  -28.1398   22.8487 C   0  0  0  0  0  0
  -24.1485  -36.7296   23.2634 C   0  0  0  0  0  0
  -25.9575  -30.7946   21.3670 C   0  0  0  0  0  0
  -26.0328  -29.4189   20.7163 C   0  0  0  0  0  0
  -27.2170  -28.6266   20.7080 C   0  0  0  0  0  0
  -26.0357  -26.8803   19.5067 C   0  0  0  0  0  0
  -24.8678  -27.6679   19.5006 C   0  0  0  0  0  0
  -23.6342  -29.8111   20.1597 C   0  0  0  0  0  0
  -25.4107  -36.3093   24.0329 C   0  0  1  0  0  0
  -20.5894  -28.3700   23.1291 C   0  0  2  0  0  0
  -20.6778  -26.9415   22.5422 C   0  0  0  0  0  0
  -19.5753  -26.6393   21.5228 C   0  0  0  0  0  0
  -18.1932  -26.7939   22.1627 C   0  0  0  0  0  0
  -19.1543  -28.8859   23.2890 C   0  0  0  0  0  0
  -18.9463  -30.1463   23.8896 C   0  0  0  0  0  0
  -17.6459  -30.6589   24.0569 C   0  0  0  0  0  0
  -25.9047  -34.9459   23.5105 C   0  0  0  0  0  0
  -16.5357  -29.9087   23.6327 C   0  0  0  0  0  0
  -16.7277  -28.6516   23.0335 C   0  0  0  0  0  0
  -26.4483  -31.6575   25.0701 C   0  0  0  0  0  0
  -25.3711  -31.3705   26.1425 C   0  0  0  0  0  0
  -27.0309  -30.2999   24.6130 C   0  0  0  0  0  0
  -27.6072  -32.4285   25.7462 C   0  0  0  0  0  0
  -27.5573  -37.1805   24.8464 C   0  0  0  0  0  0
  -21.4193  -29.3057   22.3674 N   0  0  0  0  0  0
  -26.4285  -37.3791   23.9411 N   0  0  0  0  0  0
  -24.6867  -31.0634   22.0943 N   0  0  0  0  0  0
  -23.4207  -28.8171   23.3006 O   0  0  0  0  0  0
  -28.3362  -26.4819   20.1333 O   0  0  0  0  0  0
  -26.5612  -34.8929   22.4668 O   0  0  0  0  0  0
  -23.5425  -32.1387   23.7355 O   0  0  0  0  0  0
  -28.1567  -18.9698   19.2068 C   0  0  0  0  0  0
  -29.8447  -19.3630   20.8516 C   0  0  0  0  0  0
  -28.4985  -17.5911   19.1549 C   0  0  0  0  0  0
  -28.8399  -19.9232   20.0062 C   0  0  0  0  0  0
  -29.5695  -17.0465   19.9311 C   0  0  0  0  0  0
  -30.2191  -17.9644   20.8195 C   0  0  0  0  0  0
  -28.9727  -22.4814   20.5280 C   0  0  0  0  0  0
  -27.4694  -23.3580   18.9022 C   0  0  0  0  0  0
  -27.6518  -21.8331   18.7703 C   0  0  0  0  0  0
  -28.5743  -23.8400   19.8366 C   0  0  1  0  0  0
  -27.7098  -16.7550   18.1535 C   0  0  0  0  0  0
  -30.8538  -15.8606   18.2780 C   0  0  0  0  0  0
  -31.9613  -18.3313   22.4449 C   0  0  0  0  0  0
  -28.1870  -25.1227   20.7076 C   0  0  0  0  0  0
  -28.5206  -21.3700   19.8600 N   0  0  0  0  0  0
  -30.1273  -15.7275   19.5625 N   0  0  0  0  0  0
  -29.6384  -22.4591   21.5669 O   0  0  0  0  0  0
  -31.2559  -17.4559   21.5737 O   0  0  0  0  0  0
  -31.4584  -12.5403   19.1049 H   0  0  0  0  0  0
  -30.3734  -11.4652   19.9547 H   0  0  0  0  0  0
  -29.7400  -11.6262   17.5281 H   0  0  0  0  0  0
  -29.5899  -13.3583   17.6399 H   0  0  0  0  0  0
  -27.8676  -11.2527   18.9419 H   0  0  0  0  0  0
  -27.3452  -12.4669   17.8085 H   0  0  0  0  0  0
  -27.6102  -14.2315   19.4398 H   0  0  0  0  0  0
  -28.7434  -12.2421   21.4490 H   0  0  0  0  0  0
  -28.4726  -13.9556   21.7161 H   0  0  0  0  0  0
  -25.2762   -9.5643   22.4786 H   0  0  0  0  0  0
  -23.9970   -7.4613   22.7487 H   0  0  0  0  0  0
  -21.0840   -8.8790   19.8958 H   0  0  0  0  0  0
  -22.3716  -10.9682   19.6177 H   0  0  0  0  0  0
  -21.2016   -7.6160   23.9718 H   0  0  0  0  0  0
  -21.1466   -6.0543   25.9081 H   0  0  0  0  0  0
  -22.0603   -2.7616   23.2860 H   0  0  0  0  0  0
  -22.4088  -11.9852   22.4763 H   0  0  0  0  0  0
  -21.1094  -13.1249   22.2651 H   0  0  0  0  0  0
  -24.6675  -15.8492   20.5636 H   0  0  0  0  0  0
  -26.3015  -15.6306   20.1875 H   0  0  0  0  0  0
  -26.7170  -32.5445   23.1092 H   0  0  0  0  0  0
  -25.0111  -33.9713   25.0447 H   0  0  0  0  0  0
  -22.7148  -31.3037   21.3960 H   0  0  0  0  0  0
  -23.3749  -35.9628   23.3295 H   0  0  0  0  0  0
  -24.3571  -36.8903   22.2047 H   0  0  0  0  0  0
  -23.7236  -37.6498   23.6649 H   0  0  0  0  0  0
  -26.0826  -31.5526   20.5928 H   0  0  0  0  0  0
  -26.8430  -30.8516   21.9882 H   0  0  0  0  0  0
  -28.1179  -28.9971   21.1766 H   0  0  0  0  0  0
  -26.0106  -25.9124   19.0268 H   0  0  0  0  0  0
  -23.9731  -27.2885   19.0274 H   0  0  0  0  0  0
  -23.7549  -30.5846   19.4007 H   0  0  0  0  0  0
  -22.7535  -29.2407   19.8565 H   0  0  0  0  0  0
  -25.1286  -36.1951   25.0822 H   0  0  0  0  0  0
  -20.9995  -28.3265   24.1413 H   0  0  0  0  0  0
  -20.5693  -26.2301   23.3625 H   0  0  0  0  0  0
  -21.6639  -26.7448   22.1198 H   0  0  0  0  0  0
  -19.6914  -25.6311   21.1243 H   0  0  0  0  0  0
  -19.6684  -27.3211   20.6767 H   0  0  0  0  0  0
  -17.4205  -26.6705   21.4021 H   0  0  0  0  0  0
  -18.0298  -26.0083   22.9018 H   0  0  0  0  0  0
  -19.7935  -30.7293   24.2249 H   0  0  0  0  0  0
  -17.5010  -31.6259   24.5185 H   0  0  0  0  0  0
  -15.5354  -30.2989   23.7654 H   0  0  0  0  0  0
  -15.8683  -28.0849   22.7029 H   0  0  0  0  0  0
  -24.5970  -30.6950   25.7761 H   0  0  0  0  0  0
  -24.8797  -32.2845   26.4764 H   0  0  0  0  0  0
  -25.8037  -30.8977   27.0248 H   0  0  0  0  0  0
  -26.2874  -29.6790   24.1116 H   0  0  0  0  0  0
  -27.3965  -29.7224   25.4631 H   0  0  0  0  0  0
  -27.8759  -30.4282   23.9363 H   0  0  0  0  0  0
  -27.2735  -33.3631   26.1975 H   0  0  0  0  0  0
  -28.3898  -32.6746   25.0276 H   0  0  0  0  0  0
  -28.0698  -31.8421   26.5405 H   0  0  0  0  0  0
  -28.2604  -38.0096   24.7511 H   0  0  0  0  0  0
  -28.1057  -36.2627   24.6286 H   0  0  0  0  0  0
  -27.2286  -37.1431   25.8868 H   0  0  0  0  0  0
  -20.9378  -29.8770   21.6874 H   0  0  0  0  0  0
  -26.0166  -38.2867   24.1420 H   0  0  0  0  0  0
  -27.3641  -19.2914   18.5480 H   0  0  0  0  0  0
  -30.3772  -20.0470   21.4941 H   0  0  0  0  0  0
  -26.4913  -23.5729   19.3362 H   0  0  0  0  0  0
  -27.5076  -23.8561   17.9330 H   0  0  0  0  0  0
  -28.1200  -21.5871   17.8153 H   0  0  0  0  0  0
  -26.6763  -21.3463   18.8049 H   0  0  0  0  0  0
  -29.4477  -24.1057   19.2406 H   0  0  0  0  0  0
  -26.6787  -16.6433   18.4841 H   0  0  0  0  0  0
  -28.1161  -15.7621   17.9817 H   0  0  0  0  0  0
  -27.6882  -17.2583   17.1868 H   0  0  0  0  0  0
  -30.2894  -16.3965   17.5165 H   0  0  0  0  0  0
  -31.1395  -14.9043   17.8408 H   0  0  0  0  0  0
  -31.7758  -16.4247   18.4335 H   0  0  0  0  0  0
  -32.7594  -17.7797   22.9431 H   0  0  0  0  0  0
  -31.3081  -18.7325   23.2212 H   0  0  0  0  0  0
  -32.4258  -19.1553   21.9013 H   0  0  0  0  0  0
  -28.8232  -25.1222   21.5930 H   0  0  0  0  0  0
  -27.1792  -24.9897   21.1070 H   0  0  0  0  0  0
  1 25  1  0  0  0
  1 30  2  0  0  0
  1 86  1  0  0  0
  2  3  1  0  0  0
  2 25  1  0  0  0
  2 89  1  0  0  0
  2 90  1  0  0  0
  3  4  1  0  0  0
  3 91  1  0  0  0
  3 92  1  0  0  0
  4  5  1  0  0  0
  4 93  1  0  0  0
  4 94  1  0  0  0
  5  6  1  0  0  0
  5 26  1  0  0  0
  5 95  1  0  0  0
  6 25  1  0  0  0
  6 96  1  0  0  0
  6 97  1  0  0  0
  7  8  2  0  0  0
  7 26  1  0  0  0
  7 29  1  0  0  0
  8  9  1  0  0  0
  8 22  1  0  0  0
  9 10  1  0  0  0
  9 27  2  0  0  0
 10 11  2  0  0  0
 10 15  1  0  0  0
 11 12  1  0  0  0
 11 98  1  0  0  0
 12 13  2  0  0  0
 12 99  1  0  0  0
 13 14  1  0  0  0
 13 31  1  0  0  0
 14 15  2  0  0  0
 14100  1  0  0  0
 15101  1  0  0  0
 16 17  2  0  0  0
 16 21  1  0  0  0
 16 31  1  0  0  0
 17 18  1  0  0  0
 17102  1  0  0  0
 18 19  2  0  0  0
 18103  1  0  0  0
 19 20  1  0  0  0
 19 24  1  0  0  0
 20 21  2  0  0  0
 20104  1  0  0  0
 21 23  1  0  0  0
 22 28  1  0  0  0
 22 32  2  0  0  0
 26 27  1  0  0  0
 28105  1  0  0  0
 28106  1  0  0  0
 29107  1  0  0  0
 29108  1  0  0  0
 33 34  1  0  0  0
 33 66  1  0  0  0
 33 70  2  0  0  0
 34 36  1  0  0  0
 34 59  1  0  0  0
 34109  1  0  0  0
 35 44  2  0  0  0
 35 45  1  0  0  0
 35 68  1  0  0  0
 36 56  1  0  0  0
 36110  1  0  0  0
 37 39  1  0  0  0
 37 47  1  0  0  0
 37 66  1  0  0  0
 37111  1  0  0  0
 38 43  2  0  0  0
 38 46  1  0  0  0
 38 47  1  0  0  0
 39 64  1  0  0  0
 39 67  2  0  0  0
 40 52  1  0  0  0
 40 53  2  0  0  0
 40 58  1  0  0  0
 41112  1  0  0  0
 41113  1  0  0  0
 41114  1  0  0  0
 41 48  1  0  0  0
 42 43  1  0  0  0
 42 66  1  0  0  0
 42115  1  0  0  0
 42116  1  0  0  0
 43 44  1  0  0  0
 44117  1  0  0  0
 45 46  2  0  0  0
 45118  1  0  0  0
 46119  1  0  0  0
 47120  1  0  0  0
 47121  1  0  0  0
 48 56  1  0  0  0
 48 65  1  0  0  0
 48122  1  0  0  0
 49 50  1  0  0  0
 49 53  1  0  0  0
 49 64  1  0  0  0
 49123  1  0  0  0
 50 51  1  0  0  0
 50124  1  0  0  0
 50125  1  0  0  0
 51 52  1  0  0  0
 51126  1  0  0  0
 51127  1  0  0  0
 52128  1  0  0  0
 52129  1  0  0  0
 53 54  1  0  0  0
 54 55  2  0  0  0
 54130  1  0  0  0
 55 57  1  0  0  0
 55131  1  0  0  0
 56 69  2  0  0  0
 57 58  2  0  0  0
 57132  1  0  0  0
 58133  1  0  0  0
 59 60  1  0  0  0
 59 61  1  0  0  0
 59 62  1  0  0  0
 60134  1  0  0  0
 60135  1  0  0  0
 60136  1  0  0  0
 61137  1  0  0  0
 61138  1  0  0  0
 61139  1  0  0  0
 62140  1  0  0  0
 62141  1  0  0  0
 62142  1  0  0  0
 63 65  1  0  0  0
 63143  1  0  0  0
 63144  1  0  0  0
 63145  1  0  0  0
 64146  1  0  0  0
 65147  1  0  0  0
 68 84  1  0  0  0
 71 73  2  0  0  0
 71 74  1  0  0  0
 71148  1  0  0  0
 72 74  2  0  0  0
 72 76  1  0  0  0
 72149  1  0  0  0
 73 75  1  0  0  0
 73 81  1  0  0  0
 74 85  1  0  0  0
 75 76  2  0  0  0
 75 86  1  0  0  0
 76 88  1  0  0  0
 77 80  1  0  0  0
 77 85  1  0  0  0
 77 87  2  0  0  0
 78 79  1  0  0  0
 78 80  1  0  0  0
 78150  1  0  0  0
 78151  1  0  0  0
 79 85  1  0  0  0
 79152  1  0  0  0
 79153  1  0  0  0
 80 84  1  0  0  0
 80154  1  0  0  0
 81155  1  0  0  0
 81156  1  0  0  0
 81157  1  0  0  0
 82 86  1  0  0  0
 82158  1  0  0  0
 82159  1  0  0  0
 82160  1  0  0  0
 83 88  1  0  0  0
 83161  1  0  0  0
 83162  1  0  0  0
 83163  1  0  0  0
 84164  1  0  0  0
 84165  1  0  0  0
M  ISO  4   1 100  68 101  84 101  86 100
M  END
> <chiral flag>
0

> <version>
0

> <s_m_source_file>
/data/baiqing/PycharmProjects/Reinvent-master-3.2/result/LINK_invent/BTK/process_docking_weight1_custom_product_contain_oxygen_bond_distance_aromatic_linkinvent_7_9_3/rearranged_h_0098.sdf

> <i_m_source_file_index>
77

> <r_mmod_Potential_Energy-OPLS-2005>
441.668853759766

> <r_mmod_Stretch_Energy-OPLS-2005>
95.4018173217773

> <r_mmod_Bend_Energy-OPLS-2005>
202.536163330078

> <r_mmod_Torsional_Energy-OPLS-2005>
388.72900390625

> <r_mmod_Improper_Torsional_Energy-OPLS-2005>
36.618408203125

> <r_mmod_Van_der_Waal_Energy-OPLS-2005>
149.023559570312

> <r_mmod_Electrostatic_Energy-OPLS-2005>
-305.446868896484

> <r_mmod_Solvation_Energy-OPLS-2005>
-210.785232543945

> <b_mmod_Minimization_Converged-OPLS-2005>
0

> <r_mmod_RMS_Derivative-OPLS-2005>
1.88226008415222

$$$$
77
                    3D
 Structure written by MMmdl.
160169  0  0  1  0            999 V2000
  -30.5685  -14.7512   20.4642 C   0  0  0  0  0  0
  -30.4516  -12.4597   19.4586 C   0  0  0  0  0  0
  -29.5160  -12.5084   18.2280 C   0  0  0  0  0  0
  -28.0398  -12.3310   18.6429 C   0  0  0  0  0  0
  -27.6459  -13.2210   19.8515 C   0  0  2  0  0  0
  -28.6952  -13.1262   20.9811 C   0  0  0  0  0  0
  -25.2534  -13.8159   20.5677 C   0  0  0  0  0  0
  -24.1818  -13.0425   20.9216 C   0  0  0  0  0  0
  -24.6395  -11.6899   20.8748 C   0  0  0  0  0  0
  -23.9070  -10.4286   21.0417 C   0  0  0  0  0  0
  -24.3618   -9.4200   21.9191 C   0  0  0  0  0  0
  -23.6292   -8.2233   22.0752 C   0  0  0  0  0  0
  -22.4274   -8.0278   21.3543 C   0  0  0  0  0  0
  -21.9914   -9.0254   20.4646 C   0  0  0  0  0  0
  -22.7245  -10.2134   20.3060 C   0  0  0  0  0  0
  -21.6848   -6.0735   22.5280 C   0  0  0  0  0  0
  -21.4011   -6.5635   23.8216 C   0  0  0  0  0  0
  -21.3659   -5.6786   24.9178 C   0  0  0  0  0  0
  -21.6042   -4.3047   24.7221 C   0  0  0  0  0  0
  -21.8821   -3.8144   23.4342 C   0  0  0  0  0  0
  -21.9194   -4.6966   22.3401 C   0  0  0  0  0  0
  -22.7847  -13.5214   21.1884 C   0  0  0  0  0  0
  -22.1663   -4.2151   21.0980 F   0  0  0  0  0  0
  -21.5631   -3.4528   25.7734 F   0  0  0  0  0  0
  -29.9952  -13.5007   20.4032 N   0  0  0  0  0  0
  -26.2958  -12.9347   20.3274 N   0  0  0  0  0  0
  -25.9322  -11.6503   20.5754 N   0  0  0  0  0  0
  -22.0480  -12.8208   22.0437 N   0  0  0  0  0  0
  -25.4203  -15.1882   20.4046 N   0  0  0  0  0  0
  -31.7597  -14.9111   20.1785 O   0  0  0  0  0  0
  -21.6632   -6.8881   21.4242 O   0  0  0  0  0  0
  -22.3540  -14.5526   20.6740 O   0  0  0  0  0  0
  -24.6316  -31.8544   23.1941 C   0  0  0  0  0  0
  -25.9123  -32.4761   23.8297 C   0  0  1  0  0  0
  -27.2347  -27.2642   20.1346 C   0  0  0  0  0  0
  -25.5933  -33.8560   24.2252 N   0  0  0  0  0  0
  -23.4307  -30.4733   21.5379 C   0  0  2  0  0  0
  -24.8804  -28.9135   20.1137 C   0  0  0  0  0  0
  -22.7512  -29.4589   22.4896 C   0  0  0  0  0  0
  -18.0305  -28.1377   22.8505 C   0  0  0  0  0  0
  -24.1487  -36.7252   23.2648 C   0  0  0  0  0  0
  -25.9743  -30.7698   21.3703 C   0  0  0  0  0  0
  -26.0512  -29.3899   20.7175 C   0  0  0  0  0  0
  -27.2326  -28.5800   20.7106 C   0  0  0  0  0  0
  -26.0404  -26.8489   19.5111 C   0  0  0  0  0  0
  -24.8787  -27.6495   19.5010 C   0  0  0  0  0  0
  -23.6495  -29.8003   20.1567 C   0  0  0  0  0  0
  -25.4116  -36.3076   24.0355 C   0  0  1  0  0  0
  -20.5912  -28.3689   23.1268 C   0  0  2  0  0  0
  -20.6798  -26.9403   22.5406 C   0  0  0  0  0  0
  -19.5769  -26.6373   21.5215 C   0  0  0  0  0  0
  -18.1941  -26.7929   22.1620 C   0  0  0  0  0  0
  -19.1558  -28.8844   23.2888 C   0  0  0  0  0  0
  -18.9486  -30.1447   23.8904 C   0  0  0  0  0  0
  -17.6486  -30.6590   24.0560 C   0  0  0  0  0  0
  -25.9060  -34.9455   23.5108 C   0  0  0  0  0  0
  -16.5374  -29.9092   23.6339 C   0  0  0  0  0  0
  -16.7287  -28.6496   23.0376 C   0  0  0  0  0  0
  -26.4505  -31.6584   25.0683 C   0  0  0  0  0  0
  -25.3743  -31.3740   26.1410 C   0  0  0  0  0  0
  -27.0360  -30.3023   24.6126 C   0  0  0  0  0  0
  -27.6050  -32.4337   25.7448 C   0  0  0  0  0  0
  -27.5590  -37.1783   24.8487 C   0  0  0  0  0  0
  -21.4215  -29.3040   22.3643 N   0  0  0  0  0  0
  -26.4295  -37.3781   23.9442 N   0  0  0  0  0  0
  -24.6984  -31.0511   22.0908 N   0  0  0  0  0  0
  -23.4204  -28.8135   23.2998 O   0  0  0  0  0  0
  -28.3457  -26.3890   20.1251 O   0  0  0  0  0  0
  -26.5611  -34.8944   22.4670 O   0  0  0  0  0  0
  -23.5456  -32.1347   23.7236 O   0  0  0  0  0  0
  -29.8740  -18.3488   20.0949 C   0  0  0  0  0  0
  -29.5579  -19.6433   20.7637 C   0  0  0  0  0  0
  -29.7311  -17.1736   20.8633 C   0  0  0  0  0  0
  -29.1504  -19.4009   22.0611 C   0  0  0  0  0  0
  -30.6773  -21.3074   19.3222 C   0  0  0  0  0  0
  -30.8441  -22.7097   18.7007 C   0  0  0  0  0  0
  -30.3406  -23.8870   19.5574 C   0  0  0  0  0  0
  -28.8334  -22.2430   20.6860 C   0  0  0  0  0  0
  -28.8736  -23.6727   19.9177 C   0  0  1  0  0  0
  -27.9695  -19.8648   24.1930 C   0  0  0  0  0  0
  -28.1913  -24.9753   20.6217 C   0  0  0  0  0  0
  -29.6551  -21.0365   20.1831 N   0  0  0  0  0  0
  -29.6723  -15.8025   20.5617 N   0  0  0  0  0  0
  -28.7480  -20.3099   23.0452 N   0  0  0  0  0  0
  -31.5081  -20.4626   18.9784 O   0  0  0  0  0  0
  -29.1976  -17.6768   22.4491 S   0  0  0  0  0  0
  -31.4872  -12.6164   19.1519 H   0  0  0  0  0  0
  -30.4208  -11.4774   19.9324 H   0  0  0  0  0  0
  -29.7981  -11.7351   17.5126 H   0  0  0  0  0  0
  -29.6383  -13.4618   17.7109 H   0  0  0  0  0  0
  -27.8945  -11.2812   18.8983 H   0  0  0  0  0  0
  -27.3828  -12.5296   17.7956 H   0  0  0  0  0  0
  -27.6433  -14.2454   19.4805 H   0  0  0  0  0  0
  -28.7359  -12.1128   21.3824 H   0  0  0  0  0  0
  -28.4303  -13.7731   21.8194 H   0  0  0  0  0  0
  -25.2763   -9.5667   22.4767 H   0  0  0  0  0  0
  -23.9999   -7.4615   22.7461 H   0  0  0  0  0  0
  -21.0843   -8.8773   19.8945 H   0  0  0  0  0  0
  -22.3706  -10.9673   19.6163 H   0  0  0  0  0  0
  -21.1996   -7.6142   23.9724 H   0  0  0  0  0  0
  -21.1481   -6.0512   25.9084 H   0  0  0  0  0  0
  -22.0602   -2.7609   23.2838 H   0  0  0  0  0  0
  -22.4082  -11.9856   22.4810 H   0  0  0  0  0  0
  -21.1103  -13.1249   22.2645 H   0  0  0  0  0  0
  -24.6394  -15.8297   20.4942 H   0  0  0  0  0  0
  -26.2440  -15.6265   20.0131 H   0  0  0  0  0  0
  -26.7178  -32.5408   23.1029 H   0  0  0  0  0  0
  -25.0150  -33.9701   25.0445 H   0  0  0  0  0  0
  -22.7288  -31.2952   21.3865 H   0  0  0  0  0  0
  -23.3785  -35.9549   23.3321 H   0  0  0  0  0  0
  -24.3570  -36.8843   22.2056 H   0  0  0  0  0  0
  -23.7198  -37.6445   23.6642 H   0  0  0  0  0  0
  -26.1122  -31.5279   20.5988 H   0  0  0  0  0  0
  -26.8505  -30.8191   22.0032 H   0  0  0  0  0  0
  -28.1325  -28.9486   21.1828 H   0  0  0  0  0  0
  -25.9985  -25.8799   19.0349 H   0  0  0  0  0  0
  -23.9824  -27.2778   19.0250 H   0  0  0  0  0  0
  -23.7729  -30.5726   19.3964 H   0  0  0  0  0  0
  -22.7686  -29.2320   19.8531 H   0  0  0  0  0  0
  -25.1297  -36.1919   25.0850 H   0  0  0  0  0  0
  -21.0023  -28.3253   24.1382 H   0  0  0  0  0  0
  -20.5677  -26.2297   23.3610 H   0  0  0  0  0  0
  -21.6668  -26.7412   22.1203 H   0  0  0  0  0  0
  -19.6939  -25.6283   21.1242 H   0  0  0  0  0  0
  -19.6726  -27.3195   20.6755 H   0  0  0  0  0  0
  -17.4231  -26.6702   21.4002 H   0  0  0  0  0  0
  -18.0318  -26.0052   22.8990 H   0  0  0  0  0  0
  -19.7958  -30.7255   24.2272 H   0  0  0  0  0  0
  -17.5048  -31.6277   24.5148 H   0  0  0  0  0  0
  -15.5370  -30.2997   23.7667 H   0  0  0  0  0  0
  -15.8685  -28.0805   22.7114 H   0  0  0  0  0  0
  -24.5915  -30.7095   25.7752 H   0  0  0  0  0  0
  -24.8933  -32.2906   26.4822 H   0  0  0  0  0  0
  -25.8058  -30.8928   27.0194 H   0  0  0  0  0  0
  -26.2931  -29.6753   24.1185 H   0  0  0  0  0  0
  -27.4134  -29.7297   25.4605 H   0  0  0  0  0  0
  -27.8766  -30.4355   23.9322 H   0  0  0  0  0  0
  -27.2662  -33.3667   26.1972 H   0  0  0  0  0  0
  -28.3867  -32.6852   25.0272 H   0  0  0  0  0  0
  -28.0702  -31.8494   26.5395 H   0  0  0  0  0  0
  -28.2614  -38.0078   24.7538 H   0  0  0  0  0  0
  -28.1070  -36.2605   24.6293 H   0  0  0  0  0  0
  -27.2306  -37.1417   25.8891 H   0  0  0  0  0  0
  -20.9380  -29.8747   21.6852 H   0  0  0  0  0  0
  -26.0175  -38.2856   24.1442 H   0  0  0  0  0  0
  -30.1544  -18.3253   19.0521 H   0  0  0  0  0  0
  -30.3265  -22.7032   17.7412 H   0  0  0  0  0  0
  -31.8978  -22.8635   18.4661 H   0  0  0  0  0  0
  -30.4626  -24.8182   19.0037 H   0  0  0  0  0  0
  -30.9466  -23.9848   20.4599 H   0  0  0  0  0  0
  -27.7950  -21.9285   20.7913 H   0  0  0  0  0  0
  -29.1905  -22.4555   21.6930 H   0  0  0  0  0  0
  -28.3374  -23.5420   18.9756 H   0  0  0  0  0  0
  -27.5226  -20.7175   24.7066 H   0  0  0  0  0  0
  -28.5931  -19.3324   24.9133 H   0  0  0  0  0  0
  -27.1574  -19.2040   23.8830 H   0  0  0  0  0  0
  -28.5644  -25.0030   21.6459 H   0  0  0  0  0  0
  -27.1296  -24.7512   20.7356 H   0  0  0  0  0  0
  -28.7496  -15.4228   20.7076 H   0  0  0  0  0  0
  -28.6994  -21.3020   22.8283 H   0  0  0  0  0  0
  1 25  1  0  0  0
  1 30  2  0  0  0
  1 83  1  0  0  0
  2  3  1  0  0  0
  2 25  1  0  0  0
  2 87  1  0  0  0
  2 88  1  0  0  0
  3  4  1  0  0  0
  3 89  1  0  0  0
  3 90  1  0  0  0
  4  5  1  0  0  0
  4 91  1  0  0  0
  4 92  1  0  0  0
  5  6  1  0  0  0
  5 26  1  0  0  0
  5 93  1  0  0  0
  6 25  1  0  0  0
  6 94  1  0  0  0
  6 95  1  0  0  0
  7  8  2  0  0  0
  7 26  1  0  0  0
  7 29  1  0  0  0
  8  9  1  0  0  0
  8 22  1  0  0  0
  9 10  1  0  0  0
  9 27  2  0  0  0
 10 11  2  0  0  0
 10 15  1  0  0  0
 11 12  1  0  0  0
 11 96  1  0  0  0
 12 13  2  0  0  0
 12 97  1  0  0  0
 13 14  1  0  0  0
 13 31  1  0  0  0
 14 15  2  0  0  0
 14 98  1  0  0  0
 15 99  1  0  0  0
 16 17  2  0  0  0
 16 21  1  0  0  0
 16 31  1  0  0  0
 17 18  1  0  0  0
 17100  1  0  0  0
 18 19  2  0  0  0
 18101  1  0  0  0
 19 20  1  0  0  0
 19 24  1  0  0  0
 20 21  2  0  0  0
 20102  1  0  0  0
 21 23  1  0  0  0
 22 28  1  0  0  0
 22 32  2  0  0  0
 26 27  1  0  0  0
 28103  1  0  0  0
 28104  1  0  0  0
 29105  1  0  0  0
 29106  1  0  0  0
 33 34  1  0  0  0
 33 66  1  0  0  0
 33 70  2  0  0  0
 34 36  1  0  0  0
 34 59  1  0  0  0
 34107  1  0  0  0
 35 44  2  0  0  0
 35 45  1  0  0  0
 35 68  1  0  0  0
 36 56  1  0  0  0
 36108  1  0  0  0
 37 39  1  0  0  0
 37 47  1  0  0  0
 37 66  1  0  0  0
 37109  1  0  0  0
 38 43  2  0  0  0
 38 46  1  0  0  0
 38 47  1  0  0  0
 39 64  1  0  0  0
 39 67  2  0  0  0
 40 52  1  0  0  0
 40 53  2  0  0  0
 40 58  1  0  0  0
 41110  1  0  0  0
 41111  1  0  0  0
 41112  1  0  0  0
 41 48  1  0  0  0
 42 43  1  0  0  0
 42 66  1  0  0  0
 42113  1  0  0  0
 42114  1  0  0  0
 43 44  1  0  0  0
 44115  1  0  0  0
 45 46  2  0  0  0
 45116  1  0  0  0
 46117  1  0  0  0
 47118  1  0  0  0
 47119  1  0  0  0
 48 56  1  0  0  0
 48 65  1  0  0  0
 48120  1  0  0  0
 49 50  1  0  0  0
 49 53  1  0  0  0
 49 64  1  0  0  0
 49121  1  0  0  0
 50 51  1  0  0  0
 50122  1  0  0  0
 50123  1  0  0  0
 51 52  1  0  0  0
 51124  1  0  0  0
 51125  1  0  0  0
 52126  1  0  0  0
 52127  1  0  0  0
 53 54  1  0  0  0
 54 55  2  0  0  0
 54128  1  0  0  0
 55 57  1  0  0  0
 55129  1  0  0  0
 56 69  2  0  0  0
 57 58  2  0  0  0
 57130  1  0  0  0
 58131  1  0  0  0
 59 60  1  0  0  0
 59 61  1  0  0  0
 59 62  1  0  0  0
 60132  1  0  0  0
 60133  1  0  0  0
 60134  1  0  0  0
 61135  1  0  0  0
 61136  1  0  0  0
 61137  1  0  0  0
 62138  1  0  0  0
 62139  1  0  0  0
 62140  1  0  0  0
 63 65  1  0  0  0
 63141  1  0  0  0
 63142  1  0  0  0
 63143  1  0  0  0
 64144  1  0  0  0
 65145  1  0  0  0
 68 81  1  0  0  0
 71 72  1  0  0  0
 71 73  2  0  0  0
 71146  1  0  0  0
 72 74  2  0  0  0
 72 82  1  0  0  0
 73 83  1  0  0  0
 73 86  1  0  0  0
 74 84  1  0  0  0
 74 86  1  0  0  0
 75 76  1  0  0  0
 75 82  1  0  0  0
 75 85  2  0  0  0
 76 77  1  0  0  0
 76147  1  0  0  0
 76148  1  0  0  0
 77 79  1  0  0  0
 77149  1  0  0  0
 77150  1  0  0  0
 78 79  1  0  0  0
 78 82  1  0  0  0
 78151  1  0  0  0
 78152  1  0  0  0
 79 81  1  0  0  0
 79153  1  0  0  0
 80 84  1  0  0  0
 80154  1  0  0  0
 80155  1  0  0  0
 80156  1  0  0  0
 81157  1  0  0  0
 81158  1  0  0  0
 83159  1  0  0  0
 84160  1  0  0  0
M  ISO  4   1 100  68 101  81 101  83 100
M  END
> <chiral flag>
0

> <version>
0

> <s_m_source_file>
/data/baiqing/PycharmProjects/Reinvent-master-3.2/result/LINK_invent/BTK/process_docking_weight1_custom_product_contain_oxygen_bond_distance_aromatic_linkinvent_7_9_3/rearranged_h_0098.sdf

> <i_m_source_file_index>
78

> <r_mmod_Potential_Energy-OPLS-2005>
298.774719238281

> <r_mmod_Stretch_Energy-OPLS-2005>
134.288192749023

> <r_mmod_Bend_Energy-OPLS-2005>
196.705780029297

> <r_mmod_Torsional_Energy-OPLS-2005>
299.721527099609

> <r_mmod_Improper_Torsional_Energy-OPLS-2005>
11.4208936691284

> <r_mmod_Van_der_Waal_Energy-OPLS-2005>
131.124435424805

> <r_mmod_Electrostatic_Energy-OPLS-2005>
-319.903167724609

> <r_mmod_Solvation_Energy-OPLS-2005>
-238.969497680664

> <b_mmod_Minimization_Converged-OPLS-2005>
0

> <r_mmod_RMS_Derivative-OPLS-2005>
2.43397355079651

$$$$
78
                    3D
 Structure written by MMmdl.
158167  0  0  1  0            999 V2000
  -30.7065  -14.5378   20.6342 C   0  0  0  0  0  0
  -30.4319  -12.3719   19.4405 C   0  0  0  0  0  0
  -29.5034  -12.5426   18.2184 C   0  0  0  0  0  0
  -28.0265  -12.3740   18.6212 C   0  0  0  0  0  0
  -27.6623  -13.2094   19.8755 C   0  0  2  0  0  0
  -28.6975  -12.9871   20.9976 C   0  0  0  0  0  0
  -25.2596  -13.8152   20.5663 C   0  0  0  0  0  0
  -24.1847  -13.0429   20.9154 C   0  0  0  0  0  0
  -24.6401  -11.6895   20.8712 C   0  0  0  0  0  0
  -23.9061  -10.4289   21.0395 C   0  0  0  0  0  0
  -24.3613   -9.4210   21.9182 C   0  0  0  0  0  0
  -23.6288   -8.2248   22.0757 C   0  0  0  0  0  0
  -22.4275   -8.0283   21.3545 C   0  0  0  0  0  0
  -21.9911   -9.0252   20.4644 C   0  0  0  0  0  0
  -22.7231  -10.2134   20.3048 C   0  0  0  0  0  0
  -21.6852   -6.0738   22.5279 C   0  0  0  0  0  0
  -21.4014   -6.5639   23.8214 C   0  0  0  0  0  0
  -21.3658   -5.6793   24.9175 C   0  0  0  0  0  0
  -21.6040   -4.3056   24.7226 C   0  0  0  0  0  0
  -21.8819   -3.8147   23.4351 C   0  0  0  0  0  0
  -21.9190   -4.6961   22.3402 C   0  0  0  0  0  0
  -22.7874  -13.5236   21.1831 C   0  0  0  0  0  0
  -22.1661   -4.2149   21.0975 F   0  0  0  0  0  0
  -21.5629   -3.4541   25.7737 F   0  0  0  0  0  0
  -30.0314  -13.3482   20.4766 N   0  0  0  0  0  0
  -26.3027  -12.9325   20.3334 N   0  0  0  0  0  0
  -25.9329  -11.6482   20.5726 N   0  0  0  0  0  0
  -22.0515  -12.8231   22.0393 N   0  0  0  0  0  0
  -25.4322  -15.1869   20.4099 N   0  0  0  0  0  0
  -31.7445  -14.7810   20.0077 O   0  0  0  0  0  0
  -21.6634   -6.8883   21.4239 O   0  0  0  0  0  0
  -22.3563  -14.5543   20.6678 O   0  0  0  0  0  0
  -24.6199  -31.8645   23.2072 C   0  0  0  0  0  0
  -25.9068  -32.4811   23.8394 C   0  0  1  0  0  0
  -27.2410  -27.3872   20.1148 C   0  0  0  0  0  0
  -25.5899  -33.8609   24.2304 N   0  0  0  0  0  0
  -23.4144  -30.4865   21.5480 C   0  0  2  0  0  0
  -24.8661  -28.9467   20.1138 C   0  0  0  0  0  0
  -22.7452  -29.4648   22.4972 C   0  0  0  0  0  0
  -18.0281  -28.1388   22.8508 C   0  0  0  0  0  0
  -24.1477  -36.7299   23.2639 C   0  0  0  0  0  0
  -25.9486  -30.8147   21.3718 C   0  0  0  0  0  0
  -26.0301  -29.4462   20.7152 C   0  0  0  0  0  0
  -27.2231  -28.6753   20.7116 C   0  0  0  0  0  0
  -26.0629  -26.9178   19.4994 C   0  0  0  0  0  0
  -24.8809  -27.6840   19.4970 C   0  0  0  0  0  0
  -23.6291  -29.8179   20.1632 C   0  0  0  0  0  0
  -25.4101  -36.3099   24.0335 C   0  0  1  0  0  0
  -20.5881  -28.3696   23.1312 C   0  0  2  0  0  0
  -20.6763  -26.9424   22.5427 C   0  0  0  0  0  0
  -19.5725  -26.6398   21.5235 C   0  0  0  0  0  0
  -18.1910  -26.7939   22.1639 C   0  0  0  0  0  0
  -19.1537  -28.8860   23.2901 C   0  0  0  0  0  0
  -18.9461  -30.1461   23.8913 C   0  0  0  0  0  0
  -17.6462  -30.6592   24.0591 C   0  0  0  0  0  0
  -25.9047  -34.9471   23.5119 C   0  0  0  0  0  0
  -16.5349  -29.9099   23.6344 C   0  0  0  0  0  0
  -16.7265  -28.6514   23.0365 C   0  0  0  0  0  0
  -26.4484  -31.6612   25.0741 C   0  0  0  0  0  0
  -25.3737  -31.3700   26.1471 C   0  0  0  0  0  0
  -27.0385  -30.3067   24.6165 C   0  0  0  0  0  0
  -27.6040  -32.4377   25.7493 C   0  0  0  0  0  0
  -27.5601  -37.1766   24.8446 C   0  0  0  0  0  0
  -21.4165  -29.3055   22.3700 N   0  0  0  0  0  0
  -26.4272  -37.3805   23.9452 N   0  0  0  0  0  0
  -24.6786  -31.0708   22.1006 N   0  0  0  0  0  0
  -23.4189  -28.8183   23.3037 O   0  0  0  0  0  0
  -28.3373  -26.5394   20.1558 O   0  0  0  0  0  0
  -26.5630  -34.8932   22.4697 O   0  0  0  0  0  0
  -23.5366  -32.1430   23.7419 O   0  0  0  0  0  0
  -29.6111  -17.6215   20.1758 C   0  0  0  0  0  0
  -30.5606  -17.9892   22.3551 C   0  0  0  0  0  0
  -29.4027  -19.0278   20.0408 C   0  0  0  0  0  0
  -30.3459  -19.3843   22.2249 C   0  0  0  0  0  0
  -30.1623  -17.0583   21.3587 C   0  0  0  0  0  0
  -29.7225  -19.9398   21.0805 C   0  0  0  0  0  0
  -28.4920  -24.1780   20.9385 C   0  0  0  0  0  0
  -28.2299  -25.5116   21.0842 C   0  0  0  0  0  0
  -30.1959  -15.5679   21.6838 C   0  0  0  0  0  0
  -28.1291  -23.2087   22.0641 C   0  0  0  0  0  0
  -28.9981  -23.4648   19.6786 C   0  0  0  0  0  0
  -29.1243  -22.0440   22.2641 C   0  0  0  0  0  0
  -29.8693  -22.1813   19.9300 C   0  0  0  0  0  0
  -29.8807  -15.2084   22.8608 N   0  0  0  0  0  0
  -29.3636  -21.3231   21.0123 N   0  0  0  0  0  0
  -31.4752  -12.4885   19.1399 H   0  0  0  0  0  0
  -30.3570  -11.3582   19.8361 H   0  0  0  0  0  0
  -29.7641  -11.8230   17.4418 H   0  0  0  0  0  0
  -29.6534  -13.5326   17.7834 H   0  0  0  0  0  0
  -27.8515  -11.3159   18.8181 H   0  0  0  0  0  0
  -27.3744  -12.6399   17.7889 H   0  0  0  0  0  0
  -27.7072  -14.2597   19.5857 H   0  0  0  0  0  0
  -28.6984  -11.9407   21.3080 H   0  0  0  0  0  0
  -28.3883  -13.5346   21.8826 H   0  0  0  0  0  0
  -25.2760   -9.5690   22.4751 H   0  0  0  0  0  0
  -23.9990   -7.4652   22.7484 H   0  0  0  0  0  0
  -21.0837   -8.8768   19.8948 H   0  0  0  0  0  0
  -22.3686  -10.9672   19.6153 H   0  0  0  0  0  0
  -21.2013   -7.6149   23.9709 H   0  0  0  0  0  0
  -21.1480   -6.0526   25.9071 H   0  0  0  0  0  0
  -22.0601   -2.7608   23.2846 H   0  0  0  0  0  0
  -22.4119  -11.9874   22.4760 H   0  0  0  0  0  0
  -21.1151  -13.1280   22.2618 H   0  0  0  0  0  0
  -24.6691  -15.8455   20.5204 H   0  0  0  0  0  0
  -26.2946  -15.6279   20.1164 H   0  0  0  0  0  0
  -26.7139  -32.5503   23.1156 H   0  0  0  0  0  0
  -25.0012  -33.9765   25.0422 H   0  0  0  0  0  0
  -22.7048  -31.3036   21.4045 H   0  0  0  0  0  0
  -23.3774  -35.9593   23.3228 H   0  0  0  0  0  0
  -24.3576  -36.9007   22.2073 H   0  0  0  0  0  0
  -23.7183  -37.6449   23.6721 H   0  0  0  0  0  0
  -26.0741  -31.5803   20.6049 H   0  0  0  0  0  0
  -26.8313  -30.8662   21.9984 H   0  0  0  0  0  0
  -28.1181  -29.0488   21.1889 H   0  0  0  0  0  0
  -26.0608  -25.9388   19.0414 H   0  0  0  0  0  0
  -23.9896  -27.2911   19.0282 H   0  0  0  0  0  0
  -23.7406  -30.5938   19.4044 H   0  0  0  0  0  0
  -22.7528  -29.2402   19.8645 H   0  0  0  0  0  0
  -25.1268  -36.1948   25.0828 H   0  0  0  0  0  0
  -20.9981  -28.3282   24.1427 H   0  0  0  0  0  0
  -20.5697  -26.2307   23.3608 H   0  0  0  0  0  0
  -21.6626  -26.7467   22.1201 H   0  0  0  0  0  0
  -19.6879  -25.6318   21.1253 H   0  0  0  0  0  0
  -19.6650  -27.3218   20.6762 H   0  0  0  0  0  0
  -17.4187  -26.6722   21.4031 H   0  0  0  0  0  0
  -18.0271  -26.0076   22.9017 H   0  0  0  0  0  0
  -19.7929  -30.7286   24.2268 H   0  0  0  0  0  0
  -17.5021  -31.6268   24.5204 H   0  0  0  0  0  0
  -15.5352  -30.3018   23.7654 H   0  0  0  0  0  0
  -15.8659  -28.0845   22.7075 H   0  0  0  0  0  0
  -24.5895  -30.7076   25.7777 H   0  0  0  0  0  0
  -24.8929  -32.2843   26.4965 H   0  0  0  0  0  0
  -25.8073  -30.8817   27.0204 H   0  0  0  0  0  0
  -26.2970  -29.6756   24.1245 H   0  0  0  0  0  0
  -27.4207  -29.7377   25.4647 H   0  0  0  0  0  0
  -27.8766  -30.4415   23.9321 H   0  0  0  0  0  0
  -27.2656  -33.3703   26.2025 H   0  0  0  0  0  0
  -28.3842  -32.6908   25.0305 H   0  0  0  0  0  0
  -28.0714  -31.8547   26.5437 H   0  0  0  0  0  0
  -28.2510  -38.0173   24.7701 H   0  0  0  0  0  0
  -28.1211  -36.2730   24.6021 H   0  0  0  0  0  0
  -27.2344  -37.1111   25.8841 H   0  0  0  0  0  0
  -20.9336  -29.8801   21.6928 H   0  0  0  0  0  0
  -26.0150  -38.2850   24.1575 H   0  0  0  0  0  0
  -29.2781  -16.9693   19.3800 H   0  0  0  0  0  0
  -31.0020  -17.6285   23.2741 H   0  0  0  0  0  0
  -28.9239  -19.3988   19.1454 H   0  0  0  0  0  0
  -30.6427  -20.0191   23.0475 H   0  0  0  0  0  0
  -27.8225  -25.8882   22.0141 H   0  0  0  0  0  0
  -27.1502  -22.7883   21.8284 H   0  0  0  0  0  0
  -28.0047  -23.7517   23.0012 H   0  0  0  0  0  0
  -29.5422  -24.1725   19.0517 H   0  0  0  0  0  0
  -28.1159  -23.1723   19.1093 H   0  0  0  0  0  0
  -28.7240  -21.3692   23.0236 H   0  0  0  0  0  0
  -30.0712  -22.4259   22.6493 H   0  0  0  0  0  0
  -30.8788  -22.4912   20.2099 H   0  0  0  0  0  0
  -29.9756  -21.6121   19.0041 H   0  0  0  0  0  0
  -29.5985  -16.0075   23.4139 H   0  0  0  0  0  0
  1 25  1  0  0  0
  1 30  2  0  0  0
  1 79  1  0  0  0
  2  3  1  0  0  0
  2 25  1  0  0  0
  2 86  1  0  0  0
  2 87  1  0  0  0
  3  4  1  0  0  0
  3 88  1  0  0  0
  3 89  1  0  0  0
  4  5  1  0  0  0
  4 90  1  0  0  0
  4 91  1  0  0  0
  5  6  1  0  0  0
  5 26  1  0  0  0
  5 92  1  0  0  0
  6 25  1  0  0  0
  6 93  1  0  0  0
  6 94  1  0  0  0
  7  8  2  0  0  0
  7 26  1  0  0  0
  7 29  1  0  0  0
  8  9  1  0  0  0
  8 22  1  0  0  0
  9 10  1  0  0  0
  9 27  2  0  0  0
 10 11  2  0  0  0
 10 15  1  0  0  0
 11 12  1  0  0  0
 11 95  1  0  0  0
 12 13  2  0  0  0
 12 96  1  0  0  0
 13 14  1  0  0  0
 13 31  1  0  0  0
 14 15  2  0  0  0
 14 97  1  0  0  0
 15 98  1  0  0  0
 16 17  2  0  0  0
 16 21  1  0  0  0
 16 31  1  0  0  0
 17 18  1  0  0  0
 17 99  1  0  0  0
 18 19  2  0  0  0
 18100  1  0  0  0
 19 20  1  0  0  0
 19 24  1  0  0  0
 20 21  2  0  0  0
 20101  1  0  0  0
 21 23  1  0  0  0
 22 28  1  0  0  0
 22 32  2  0  0  0
 26 27  1  0  0  0
 28102  1  0  0  0
 28103  1  0  0  0
 29104  1  0  0  0
 29105  1  0  0  0
 33 34  1  0  0  0
 33 66  1  0  0  0
 33 70  2  0  0  0
 34 36  1  0  0  0
 34 59  1  0  0  0
 34106  1  0  0  0
 35 44  2  0  0  0
 35 45  1  0  0  0
 35 68  1  0  0  0
 36 56  1  0  0  0
 36107  1  0  0  0
 37 39  1  0  0  0
 37 47  1  0  0  0
 37 66  1  0  0  0
 37108  1  0  0  0
 38 43  2  0  0  0
 38 46  1  0  0  0
 38 47  1  0  0  0
 39 64  1  0  0  0
 39 67  2  0  0  0
 40 52  1  0  0  0
 40 53  2  0  0  0
 40 58  1  0  0  0
 41109  1  0  0  0
 41110  1  0  0  0
 41111  1  0  0  0
 41 48  1  0  0  0
 42 43  1  0  0  0
 42 66  1  0  0  0
 42112  1  0  0  0
 42113  1  0  0  0
 43 44  1  0  0  0
 44114  1  0  0  0
 45 46  2  0  0  0
 45115  1  0  0  0
 46116  1  0  0  0
 47117  1  0  0  0
 47118  1  0  0  0
 48 56  1  0  0  0
 48 65  1  0  0  0
 48119  1  0  0  0
 49 50  1  0  0  0
 49 53  1  0  0  0
 49 64  1  0  0  0
 49120  1  0  0  0
 50 51  1  0  0  0
 50121  1  0  0  0
 50122  1  0  0  0
 51 52  1  0  0  0
 51123  1  0  0  0
 51124  1  0  0  0
 52125  1  0  0  0
 52126  1  0  0  0
 53 54  1  0  0  0
 54 55  2  0  0  0
 54127  1  0  0  0
 55 57  1  0  0  0
 55128  1  0  0  0
 56 69  2  0  0  0
 57 58  2  0  0  0
 57129  1  0  0  0
 58130  1  0  0  0
 59 60  1  0  0  0
 59 61  1  0  0  0
 59 62  1  0  0  0
 60131  1  0  0  0
 60132  1  0  0  0
 60133  1  0  0  0
 61134  1  0  0  0
 61135  1  0  0  0
 61136  1  0  0  0
 62137  1  0  0  0
 62138  1  0  0  0
 62139  1  0  0  0
 63 65  1  0  0  0
 63140  1  0  0  0
 63141  1  0  0  0
 63142  1  0  0  0
 64143  1  0  0  0
 65144  1  0  0  0
 68 78  1  0  0  0
 71 73  2  0  0  0
 71 75  1  0  0  0
 71145  1  0  0  0
 72 74  1  0  0  0
 72 75  2  0  0  0
 72146  1  0  0  0
 73 76  1  0  0  0
 73147  1  0  0  0
 74 76  2  0  0  0
 74148  1  0  0  0
 75 79  1  0  0  0
 76 85  1  0  0  0
 77 78  2  0  0  0
 77 80  1  0  0  0
 77 81  1  0  0  0
 78149  1  0  0  0
 79 84  2  0  0  0
 80 82  1  0  0  0
 80150  1  0  0  0
 80151  1  0  0  0
 81 83  1  0  0  0
 81152  1  0  0  0
 81153  1  0  0  0
 82 85  1  0  0  0
 82154  1  0  0  0
 82155  1  0  0  0
 83 85  1  0  0  0
 83156  1  0  0  0
 83157  1  0  0  0
 84158  1  0  0  0
M  ISO  4   1 100  68 101  78 101  79 100
M  END
> <chiral flag>
0

> <version>
0

> <s_m_source_file>
/data/baiqing/PycharmProjects/Reinvent-master-3.2/result/LINK_invent/BTK/process_docking_weight1_custom_product_contain_oxygen_bond_distance_aromatic_linkinvent_7_9_3/rearranged_h_0098.sdf

> <i_m_source_file_index>
79

> <r_mmod_Potential_Energy-OPLS-2005>
181.777328491211

> <r_mmod_Stretch_Energy-OPLS-2005>
60.9365844726562

> <r_mmod_Bend_Energy-OPLS-2005>
134.381561279297

> <r_mmod_Torsional_Energy-OPLS-2005>
244.539016723633

> <r_mmod_Improper_Torsional_Energy-OPLS-2005>
6.10991096496582

> <r_mmod_Van_der_Waal_Energy-OPLS-2005>
155.585525512695

> <r_mmod_Electrostatic_Energy-OPLS-2005>
-239.816482543945

> <r_mmod_Solvation_Energy-OPLS-2005>
-205.276947021484

> <b_mmod_Minimization_Converged-OPLS-2005>
0

> <r_mmod_RMS_Derivative-OPLS-2005>
2.09348344802856

$$$$
79
                    3D
 Structure written by MMmdl.
158166  0  0  1  0            999 V2000
  -30.6572  -14.4628   20.6143 C   0  0  0  0  0  0
  -30.4465  -12.3130   19.4147 C   0  0  0  0  0  0
  -29.5094  -12.5308   18.2042 C   0  0  0  0  0  0
  -28.0221  -12.3926   18.6037 C   0  0  0  0  0  0
  -27.6725  -13.1948   19.8858 C   0  0  2  0  0  0
  -28.7110  -12.9095   20.9983 C   0  0  0  0  0  0
  -25.2627  -13.8162   20.5632 C   0  0  0  0  0  0
  -24.1853  -13.0427   20.9103 C   0  0  0  0  0  0
  -24.6411  -11.6905   20.8713 C   0  0  0  0  0  0
  -23.9081  -10.4263   21.0373 C   0  0  0  0  0  0
  -24.3624   -9.4190   21.9163 C   0  0  0  0  0  0
  -23.6273   -8.2244   22.0776 C   0  0  0  0  0  0
  -22.4251   -8.0275   21.3567 C   0  0  0  0  0  0
  -21.9893   -9.0244   20.4678 C   0  0  0  0  0  0
  -22.7241  -10.2104   20.3039 C   0  0  0  0  0  0
  -21.6850   -6.0721   22.5282 C   0  0  0  0  0  0
  -21.4015   -6.5622   23.8215 C   0  0  0  0  0  0
  -21.3629   -5.6761   24.9158 C   0  0  0  0  0  0
  -21.6055   -4.3032   24.7213 C   0  0  0  0  0  0
  -21.8824   -3.8130   23.4334 C   0  0  0  0  0  0
  -21.9166   -4.6949   22.3383 C   0  0  0  0  0  0
  -22.7865  -13.5244   21.1760 C   0  0  0  0  0  0
  -22.1638   -4.2111   21.0975 F   0  0  0  0  0  0
  -21.5633   -3.4538   25.7746 F   0  0  0  0  0  0
  -30.0478  -13.2532   20.4716 N   0  0  0  0  0  0
  -26.3071  -12.9303   20.3365 N   0  0  0  0  0  0
  -25.9327  -11.6468   20.5723 N   0  0  0  0  0  0
  -22.0511  -12.8248   22.0340 N   0  0  0  0  0  0
  -25.4285  -15.1891   20.4135 N   0  0  0  0  0  0
  -31.7514  -14.7322   20.1046 O   0  0  0  0  0  0
  -21.6611   -6.8869   21.4246 O   0  0  0  0  0  0
  -22.3550  -14.5557   20.6618 O   0  0  0  0  0  0
  -24.6174  -31.8658   23.2097 C   0  0  0  0  0  0
  -25.9068  -32.4811   23.8395 C   0  0  1  0  0  0
  -27.2316  -27.4212   20.0843 C   0  0  0  0  0  0
  -25.5927  -33.8609   24.2336 N   0  0  0  0  0  0
  -23.4041  -30.4933   21.5468 C   0  0  2  0  0  0
  -24.8460  -28.9533   20.1149 C   0  0  0  0  0  0
  -22.7402  -29.4676   22.4945 C   0  0  0  0  0  0
  -18.0281  -28.1395   22.8480 C   0  0  0  0  0  0
  -24.1481  -36.7278   23.2636 C   0  0  0  0  0  0
  -25.9357  -30.8249   21.3656 C   0  0  0  0  0  0
  -26.0071  -29.4572   20.7131 C   0  0  0  0  0  0
  -27.1982  -28.6938   20.7035 C   0  0  0  0  0  0
  -26.0378  -26.9211   19.5127 C   0  0  0  0  0  0
  -24.8558  -27.6831   19.5171 C   0  0  0  0  0  0
  -23.6134  -29.8271   20.1609 C   0  0  0  0  0  0
  -25.4106  -36.3095   24.0344 C   0  0  1  0  0  0
  -20.5876  -28.3681   23.1290 C   0  0  2  0  0  0
  -20.6769  -26.9418   22.5397 C   0  0  0  0  0  0
  -19.5756  -26.6411   21.5190 C   0  0  0  0  0  0
  -18.1936  -26.7942   22.1616 C   0  0  0  0  0  0
  -19.1531  -28.8855   23.2890 C   0  0  0  0  0  0
  -18.9455  -30.1455   23.8917 C   0  0  0  0  0  0
  -17.6453  -30.6594   24.0574 C   0  0  0  0  0  0
  -25.9029  -34.9467   23.5127 C   0  0  0  0  0  0
  -16.5348  -29.9099   23.6327 C   0  0  0  0  0  0
  -16.7268  -28.6519   23.0352 C   0  0  0  0  0  0
  -26.4501  -31.6598   25.0725 C   0  0  0  0  0  0
  -25.3771  -31.3737   26.1479 C   0  0  0  0  0  0
  -27.0310  -30.3029   24.6125 C   0  0  0  0  0  0
  -27.6092  -32.4301   25.7481 C   0  0  0  0  0  0
  -27.5576  -37.1798   24.8471 C   0  0  0  0  0  0
  -21.4131  -29.3057   22.3686 N   0  0  0  0  0  0
  -26.4286  -37.3787   23.9419 N   0  0  0  0  0  0
  -24.6701  -31.0766   22.0990 N   0  0  0  0  0  0
  -23.4176  -28.8204   23.2979 O   0  0  0  0  0  0
  -28.4219  -26.7144   20.0725 O   0  0  0  0  0  0
  -26.5566  -34.8917   22.4674 O   0  0  0  0  0  0
  -23.5362  -32.1425   23.7488 O   0  0  0  0  0  0
  -31.7463  -17.4985   22.0156 C   0  0  0  0  0  0
  -30.2325  -19.0579   20.9062 C   0  0  0  0  0  0
  -32.2063  -19.8987   22.0496 C   0  0  0  0  0  0
  -30.5773  -17.7258   21.2519 C   0  0  0  0  0  0
  -32.5482  -18.5826   22.4259 C   0  0  0  0  0  0
  -31.0345  -20.1527   21.3048 C   0  0  0  0  0  0
  -29.6438  -16.6030   20.8691 C   0  0  0  0  0  0
  -29.5758  -22.1087   20.6785 C   0  0  0  0  0  0
  -29.6778  -23.5952   20.2926 C   0  0  0  0  0  0
  -28.3829  -24.2269   19.7182 C   0  0  0  0  0  0
  -28.5983  -25.6449   19.1301 C   0  0  0  0  0  0
  -33.6655  -18.3494   23.2260 N   0  0  0  0  0  0
  -30.7482  -21.5082   20.9630 N   0  0  0  0  0  0
  -29.8839  -15.3463   21.2651 N   0  0  0  0  0  0
  -28.5735  -16.8634   20.3078 O   0  0  0  0  0  0
  -28.4783  -21.5466   20.7321 O   0  0  0  0  0  0
  -31.4900  -12.4434   19.1215 H   0  0  0  0  0  0
  -30.3693  -11.2889   19.7843 H   0  0  0  0  0  0
  -29.7556  -11.8263   17.4086 H   0  0  0  0  0  0
  -29.6744  -13.5255   17.7854 H   0  0  0  0  0  0
  -27.8067  -11.3345   18.7557 H   0  0  0  0  0  0
  -27.3856  -12.7145   17.7774 H   0  0  0  0  0  0
  -27.7356  -14.2515   19.6242 H   0  0  0  0  0  0
  -28.6940  -11.8518   21.2668 H   0  0  0  0  0  0
  -28.4556  -13.4289   21.9243 H   0  0  0  0  0  0
  -25.2768   -9.5650   22.4758 H   0  0  0  0  0  0
  -23.9968   -7.4637   22.7515 H   0  0  0  0  0  0
  -21.0816   -8.8767   19.9016 H   0  0  0  0  0  0
  -22.3695  -10.9639   19.6147 H   0  0  0  0  0  0
  -21.2058   -7.6132   23.9732 H   0  0  0  0  0  0
  -21.1443   -6.0477   25.9070 H   0  0  0  0  0  0
  -22.0644   -2.7604   23.2847 H   0  0  0  0  0  0
  -22.4074  -11.9824   22.4607 H   0  0  0  0  0  0
  -21.1202  -13.1405   22.2715 H   0  0  0  0  0  0
  -24.6516  -15.8276   20.5512 H   0  0  0  0  0  0
  -26.2912  -15.6643   20.1696 H   0  0  0  0  0  0
  -26.7131  -32.5514   23.1146 H   0  0  0  0  0  0
  -25.0172  -33.9768   25.0549 H   0  0  0  0  0  0
  -22.6952  -31.3124   21.4083 H   0  0  0  0  0  0
  -23.3751  -35.9599   23.3319 H   0  0  0  0  0  0
  -24.3576  -36.8865   22.2045 H   0  0  0  0  0  0
  -23.7225  -37.6490   23.6623 H   0  0  0  0  0  0
  -26.0541  -31.5924   20.5983 H   0  0  0  0  0  0
  -26.8218  -30.8756   21.9875 H   0  0  0  0  0  0
  -28.0955  -29.0791   21.1685 H   0  0  0  0  0  0
  -25.9910  -25.9365   19.0712 H   0  0  0  0  0  0
  -23.9576  -27.2826   19.0683 H   0  0  0  0  0  0
  -23.7289  -30.6017   19.4020 H   0  0  0  0  0  0
  -22.7367  -29.2500   19.8626 H   0  0  0  0  0  0
  -25.1288  -36.1955   25.0838 H   0  0  0  0  0  0
  -20.9983  -28.3260   24.1410 H   0  0  0  0  0  0
  -20.5665  -26.2291   23.3584 H   0  0  0  0  0  0
  -21.6634  -26.7462   22.1200 H   0  0  0  0  0  0
  -19.6907  -25.6327   21.1216 H   0  0  0  0  0  0
  -19.6700  -27.3214   20.6717 H   0  0  0  0  0  0
  -17.4198  -26.6679   21.4028 H   0  0  0  0  0  0
  -18.0359  -26.0092   22.9027 H   0  0  0  0  0  0
  -19.7936  -30.7263   24.2299 H   0  0  0  0  0  0
  -17.5024  -31.6273   24.5184 H   0  0  0  0  0  0
  -15.5361  -30.3021   23.7639 H   0  0  0  0  0  0
  -15.8670  -28.0848   22.7064 H   0  0  0  0  0  0
  -24.5917  -30.7112   25.7831 H   0  0  0  0  0  0
  -24.8992  -32.2904   26.4942 H   0  0  0  0  0  0
  -25.8125  -30.8898   27.0229 H   0  0  0  0  0  0
  -26.2845  -29.6800   24.1176 H   0  0  0  0  0  0
  -27.4060  -29.7280   25.4604 H   0  0  0  0  0  0
  -27.8700  -30.4337   23.9286 H   0  0  0  0  0  0
  -27.2742  -33.3608   26.2076 H   0  0  0  0  0  0
  -28.3895  -32.6847   25.0294 H   0  0  0  0  0  0
  -28.0753  -31.8401   26.5385 H   0  0  0  0  0  0
  -28.2611  -38.0078   24.7504 H   0  0  0  0  0  0
  -28.1059  -36.2615   24.6316 H   0  0  0  0  0  0
  -27.2290  -37.1466   25.8873 H   0  0  0  0  0  0
  -20.9277  -29.8794   21.6922 H   0  0  0  0  0  0
  -26.0174  -38.2860   24.1440 H   0  0  0  0  0  0
  -32.0118  -16.4940   22.3158 H   0  0  0  0  0  0
  -29.3328  -19.2340   20.3329 H   0  0  0  0  0  0
  -32.8332  -20.7270   22.3534 H   0  0  0  0  0  0
  -30.4705  -23.6716   19.5443 H   0  0  0  0  0  0
  -30.0106  -24.1611   21.1635 H   0  0  0  0  0  0
  -27.5933  -24.2407   20.4711 H   0  0  0  0  0  0
  -28.0201  -23.5803   18.9152 H   0  0  0  0  0  0
  -27.9833  -25.7807   18.2414 H   0  0  0  0  0  0
  -29.6160  -25.7217   18.7482 H   0  0  0  0  0  0
  -33.7360  -17.4489   23.6900 H   0  0  0  0  0  0
  -33.9842  -19.1069   23.8255 H   0  0  0  0  0  0
  -31.5400  -22.1359   20.9827 H   0  0  0  0  0  0
  -29.0330  -14.8740   21.5089 H   0  0  0  0  0  0
  1 25  1  0  0  0
  1 30  2  0  0  0
  1 84  1  0  0  0
  2  3  1  0  0  0
  2 25  1  0  0  0
  2 87  1  0  0  0
  2 88  1  0  0  0
  3  4  1  0  0  0
  3 89  1  0  0  0
  3 90  1  0  0  0
  4  5  1  0  0  0
  4 91  1  0  0  0
  4 92  1  0  0  0
  5  6  1  0  0  0
  5 26  1  0  0  0
  5 93  1  0  0  0
  6 25  1  0  0  0
  6 94  1  0  0  0
  6 95  1  0  0  0
  7  8  2  0  0  0
  7 26  1  0  0  0
  7 29  1  0  0  0
  8  9  1  0  0  0
  8 22  1  0  0  0
  9 10  1  0  0  0
  9 27  2  0  0  0
 10 11  2  0  0  0
 10 15  1  0  0  0
 11 12  1  0  0  0
 11 96  1  0  0  0
 12 13  2  0  0  0
 12 97  1  0  0  0
 13 14  1  0  0  0
 13 31  1  0  0  0
 14 15  2  0  0  0
 14 98  1  0  0  0
 15 99  1  0  0  0
 16 17  2  0  0  0
 16 21  1  0  0  0
 16 31  1  0  0  0
 17 18  1  0  0  0
 17100  1  0  0  0
 18 19  2  0  0  0
 18101  1  0  0  0
 19 20  1  0  0  0
 19 24  1  0  0  0
 20 21  2  0  0  0
 20102  1  0  0  0
 21 23  1  0  0  0
 22 28  1  0  0  0
 22 32  2  0  0  0
 26 27  1  0  0  0
 28103  1  0  0  0
 28104  1  0  0  0
 29105  1  0  0  0
 29106  1  0  0  0
 33 34  1  0  0  0
 33 66  1  0  0  0
 33 70  2  0  0  0
 34 36  1  0  0  0
 34 59  1  0  0  0
 34107  1  0  0  0
 35 44  2  0  0  0
 35 45  1  0  0  0
 35 68  1  0  0  0
 36 56  1  0  0  0
 36108  1  0  0  0
 37 39  1  0  0  0
 37 47  1  0  0  0
 37 66  1  0  0  0
 37109  1  0  0  0
 38 43  2  0  0  0
 38 46  1  0  0  0
 38 47  1  0  0  0
 39 64  1  0  0  0
 39 67  2  0  0  0
 40 52  1  0  0  0
 40 53  2  0  0  0
 40 58  1  0  0  0
 41110  1  0  0  0
 41111  1  0  0  0
 41112  1  0  0  0
 41 48  1  0  0  0
 42 43  1  0  0  0
 42 66  1  0  0  0
 42113  1  0  0  0
 42114  1  0  0  0
 43 44  1  0  0  0
 44115  1  0  0  0
 45 46  2  0  0  0
 45116  1  0  0  0
 46117  1  0  0  0
 47118  1  0  0  0
 47119  1  0  0  0
 48 56  1  0  0  0
 48 65  1  0  0  0
 48120  1  0  0  0
 49 50  1  0  0  0
 49 53  1  0  0  0
 49 64  1  0  0  0
 49121  1  0  0  0
 50 51  1  0  0  0
 50122  1  0  0  0
 50123  1  0  0  0
 51 52  1  0  0  0
 51124  1  0  0  0
 51125  1  0  0  0
 52126  1  0  0  0
 52127  1  0  0  0
 53 54  1  0  0  0
 54 55  2  0  0  0
 54128  1  0  0  0
 55 57  1  0  0  0
 55129  1  0  0  0
 56 69  2  0  0  0
 57 58  2  0  0  0
 57130  1  0  0  0
 58131  1  0  0  0
 59 60  1  0  0  0
 59 61  1  0  0  0
 59 62  1  0  0  0
 60132  1  0  0  0
 60133  1  0  0  0
 60134  1  0  0  0
 61135  1  0  0  0
 61136  1  0  0  0
 61137  1  0  0  0
 62138  1  0  0  0
 62139  1  0  0  0
 62140  1  0  0  0
 63 65  1  0  0  0
 63141  1  0  0  0
 63142  1  0  0  0
 63143  1  0  0  0
 64144  1  0  0  0
 65145  1  0  0  0
 68 81  1  0  0  0
 71 74  2  0  0  0
 71 75  1  0  0  0
 71146  1  0  0  0
 72 74  1  0  0  0
 72 76  2  0  0  0
 72147  1  0  0  0
 73 75  2  0  0  0
 73 76  1  0  0  0
 73148  1  0  0  0
 74 77  1  0  0  0
 75 82  1  0  0  0
 76 83  1  0  0  0
 77 84  1  0  0  0
 77 85  2  0  0  0
 78 79  1  0  0  0
 78 83  1  0  0  0
 78 86  2  0  0  0
 79 80  1  0  0  0
 79149  1  0  0  0
 79150  1  0  0  0
 80 81  1  0  0  0
 80151  1  0  0  0
 80152  1  0  0  0
 81153  1  0  0  0
 81154  1  0  0  0
 82155  1  0  0  0
 82156  1  0  0  0
 83157  1  0  0  0
 84158  1  0  0  0
M  ISO  4   1 100  68 101  81 101  84 100
M  END
> <chiral flag>
0

> <version>
0

> <s_m_source_file>
/data/baiqing/PycharmProjects/Reinvent-master-3.2/result/LINK_invent/BTK/process_docking_weight1_custom_product_contain_oxygen_bond_distance_aromatic_linkinvent_7_9_3/rearranged_h_0098.sdf

> <i_m_source_file_index>
80

> <r_mmod_Potential_Energy-OPLS-2005>
-175.387542724609

> <r_mmod_Stretch_Energy-OPLS-2005>
38.4385795593262

> <r_mmod_Bend_Energy-OPLS-2005>
120.18824005127

> <r_mmod_Torsional_Energy-OPLS-2005>
296.274627685547

> <r_mmod_Improper_Torsional_Energy-OPLS-2005>
12.9635629653931

> <r_mmod_Van_der_Waal_Energy-OPLS-2005>
161.260635375977

> <r_mmod_Electrostatic_Energy-OPLS-2005>
-579.078796386719

> <r_mmod_Solvation_Energy-OPLS-2005>
-238.438690185547

> <b_mmod_Minimization_Converged-OPLS-2005>
0

> <r_mmod_RMS_Derivative-OPLS-2005>
3.80200624465942

$$$$
80
                    3D
 Structure written by MMmdl.
160169  0  0  1  0            999 V2000
  -30.6542  -14.6286   20.3678 C   0  0  0  0  0  0
  -30.4315  -12.3406   19.4580 C   0  0  0  0  0  0
  -29.4929  -12.3472   18.2289 C   0  0  0  0  0  0
  -28.0113  -12.2844   18.6498 C   0  0  0  0  0  0
  -27.6429  -13.2113   19.8412 C   0  0  2  0  0  0
  -28.7002  -13.1466   20.9648 C   0  0  0  0  0  0
  -25.2545  -13.8171   20.5735 C   0  0  0  0  0  0
  -24.1803  -13.0443   20.9225 C   0  0  0  0  0  0
  -24.6365  -11.6916   20.8791 C   0  0  0  0  0  0
  -23.9047  -10.4294   21.0434 C   0  0  0  0  0  0
  -24.3601   -9.4204   21.9202 C   0  0  0  0  0  0
  -23.6284   -8.2236   22.0756 C   0  0  0  0  0  0
  -22.4269   -8.0276   21.3541 C   0  0  0  0  0  0
  -21.9904   -9.0255   20.4650 C   0  0  0  0  0  0
  -22.7227  -10.2139   20.3074 C   0  0  0  0  0  0
  -21.6848   -6.0733   22.5280 C   0  0  0  0  0  0
  -21.4013   -6.5639   23.8213 C   0  0  0  0  0  0
  -21.3662   -5.6792   24.9176 C   0  0  0  0  0  0
  -21.6043   -4.3053   24.7228 C   0  0  0  0  0  0
  -21.8817   -3.8145   23.4349 C   0  0  0  0  0  0
  -21.9186   -4.6960   22.3404 C   0  0  0  0  0  0
  -22.7823  -13.5243   21.1857 C   0  0  0  0  0  0
  -22.1655   -4.2144   21.0981 F   0  0  0  0  0  0
  -21.5627   -3.4540   25.7743 F   0  0  0  0  0  0
  -30.0072  -13.4246   20.3589 N   0  0  0  0  0  0
  -26.2958  -12.9346   20.3335 N   0  0  0  0  0  0
  -25.9296  -11.6518   20.5857 N   0  0  0  0  0  0
  -22.0445  -12.8257   22.0415 N   0  0  0  0  0  0
  -25.4268  -15.1889   20.4178 N   0  0  0  0  0  0
  -31.8833  -14.6968   20.2845 O   0  0  0  0  0  0
  -21.6631   -6.8875   21.4241 O   0  0  0  0  0  0
  -22.3518  -14.5543   20.6685 O   0  0  0  0  0  0
  -24.6213  -31.8649   23.2066 C   0  0  0  0  0  0
  -25.9086  -32.4806   23.8379 C   0  0  1  0  0  0
  -27.2299  -27.3759   20.1007 C   0  0  0  0  0  0
  -25.5922  -33.8606   24.2311 N   0  0  0  0  0  0
  -23.4117  -30.4901   21.5492 C   0  0  2  0  0  0
  -24.8568  -28.9542   20.1120 C   0  0  0  0  0  0
  -22.7451  -29.4649   22.4962 C   0  0  0  0  0  0
  -18.0286  -28.1383   22.8487 C   0  0  0  0  0  0
  -24.1490  -36.7303   23.2637 C   0  0  0  0  0  0
  -25.9482  -30.8131   21.3690 C   0  0  0  0  0  0
  -26.0239  -29.4452   20.7115 C   0  0  0  0  0  0
  -27.2122  -28.6648   20.7014 C   0  0  0  0  0  0
  -26.0311  -26.9163   19.5012 C   0  0  0  0  0  0
  -24.8587  -27.6917   19.5021 C   0  0  0  0  0  0
  -23.6225  -29.8277   20.1627 C   0  0  0  0  0  0
  -25.4112  -36.3101   24.0333 C   0  0  1  0  0  0
  -20.5881  -28.3683   23.1296 C   0  0  2  0  0  0
  -20.6778  -26.9415   22.5410 C   0  0  0  0  0  0
  -19.5753  -26.6388   21.5212 C   0  0  0  0  0  0
  -18.1931  -26.7928   22.1625 C   0  0  0  0  0  0
  -19.1534  -28.8849   23.2888 C   0  0  0  0  0  0
  -18.9459  -30.1450   23.8905 C   0  0  0  0  0  0
  -17.6459  -30.6587   24.0563 C   0  0  0  0  0  0
  -25.9044  -34.9467   23.5119 C   0  0  0  0  0  0
  -16.5351  -29.9087   23.6326 C   0  0  0  0  0  0
  -16.7272  -28.6503   23.0350 C   0  0  0  0  0  0
  -26.4488  -31.6596   25.0727 C   0  0  0  0  0  0
  -25.3735  -31.3713   26.1462 C   0  0  0  0  0  0
  -27.0317  -30.3031   24.6131 C   0  0  0  0  0  0
  -27.6061  -32.4313   25.7492 C   0  0  0  0  0  0
  -27.5581  -37.1808   24.8467 C   0  0  0  0  0  0
  -21.4173  -29.3041   22.3698 N   0  0  0  0  0  0
  -26.4297  -37.3788   23.9406 N   0  0  0  0  0  0
  -24.6792  -31.0706   22.0993 N   0  0  0  0  0  0
  -23.4195  -28.8188   23.3023 O   0  0  0  0  0  0
  -28.3632  -26.5621   20.1531 O   0  0  0  0  0  0
  -26.5603  -34.8925   22.4679 O   0  0  0  0  0  0
  -23.5390  -32.1429   23.7427 O   0  0  0  0  0  0
  -28.2092  -18.9543   19.9028 C   0  0  0  0  0  0
  -30.3456  -19.2315   20.9921 C   0  0  0  0  0  0
  -28.4240  -17.5599   19.8314 C   0  0  0  0  0  0
  -30.5727  -17.8230   20.9085 C   0  0  0  0  0  0
  -29.1817  -19.8293   20.4353 C   0  0  0  0  0  0
  -29.6311  -16.9675   20.2759 C   0  0  0  0  0  0
  -28.5031  -24.1194   19.7364 C   0  0  0  0  0  0
  -28.3998  -25.4262   19.3544 C   0  0  0  0  0  0
  -28.2596  -23.0165   18.7061 C   0  0  0  0  0  0
  -28.6785  -23.5899   21.1672 C   0  0  0  0  0  0
  -29.0718  -21.7214   18.9213 C   0  0  0  0  0  0
  -29.4338  -22.2162   21.2857 C   0  0  0  0  0  0
  -30.0018  -15.6594   18.3040 C   0  0  0  0  0  0
  -28.9725  -21.2334   20.2970 N   0  0  0  0  0  0
  -29.9309  -15.6385   19.7780 N   0  0  0  0  0  0
  -31.4700  -12.4495   19.1400 H   0  0  0  0  0  0
  -30.3716  -11.3842   19.9796 H   0  0  0  0  0  0
  -29.7205  -11.4847   17.6014 H   0  0  0  0  0  0
  -29.6654  -13.2013   17.5843 H   0  0  0  0  0  0
  -27.8156  -11.2476   18.9255 H   0  0  0  0  0  0
  -27.3655  -12.4909   17.7959 H   0  0  0  0  0  0
  -27.6344  -14.2268   19.4484 H   0  0  0  0  0  0
  -28.7034  -12.1672   21.4453 H   0  0  0  0  0  0
  -28.4767  -13.8796   21.7423 H   0  0  0  0  0  0
  -25.2738   -9.5676   22.4787 H   0  0  0  0  0  0
  -23.9985   -7.4624   22.7476 H   0  0  0  0  0  0
  -21.0831   -8.8785   19.8959 H   0  0  0  0  0  0
  -22.3685  -10.9686   19.6192 H   0  0  0  0  0  0
  -21.2013   -7.6147   23.9718 H   0  0  0  0  0  0
  -21.1483   -6.0521   25.9078 H   0  0  0  0  0  0
  -22.0593   -2.7608   23.2853 H   0  0  0  0  0  0
  -22.4040  -11.9934   22.4849 H   0  0  0  0  0  0
  -21.1060  -13.1299   22.2589 H   0  0  0  0  0  0
  -24.6688  -15.8501   20.5477 H   0  0  0  0  0  0
  -26.2983  -15.6281   20.1546 H   0  0  0  0  0  0
  -26.7157  -32.5501   23.1137 H   0  0  0  0  0  0
  -25.0097  -33.9767   25.0474 H   0  0  0  0  0  0
  -22.7032  -31.3093   21.4103 H   0  0  0  0  0  0
  -23.3754  -35.9637   23.3312 H   0  0  0  0  0  0
  -24.3583  -36.8906   22.2049 H   0  0  0  0  0  0
  -23.7242  -37.6510   23.6644 H   0  0  0  0  0  0
  -26.0717  -31.5794   20.6023 H   0  0  0  0  0  0
  -26.8318  -30.8625   21.9936 H   0  0  0  0  0  0
  -28.1097  -29.0373   21.1754 H   0  0  0  0  0  0
  -25.9697  -25.9395   19.0444 H   0  0  0  0  0  0
  -23.9600  -27.3039   19.0417 H   0  0  0  0  0  0
  -23.7380  -30.6057   19.4071 H   0  0  0  0  0  0
  -22.7441  -29.2544   19.8610 H   0  0  0  0  0  0
  -25.1291  -36.1964   25.0827 H   0  0  0  0  0  0
  -20.9970  -28.3254   24.1419 H   0  0  0  0  0  0
  -20.5688  -26.2295   23.3605 H   0  0  0  0  0  0
  -21.6647  -26.7462   22.1195 H   0  0  0  0  0  0
  -19.6917  -25.6299   21.1240 H   0  0  0  0  0  0
  -19.6684  -27.3202   20.6742 H   0  0  0  0  0  0
  -17.4201  -26.6675   21.4026 H   0  0  0  0  0  0
  -18.0332  -26.0068   22.9019 H   0  0  0  0  0  0
  -19.7933  -30.7260   24.2283 H   0  0  0  0  0  0
  -17.5016  -31.6270   24.5164 H   0  0  0  0  0  0
  -15.5351  -30.2992   23.7645 H   0  0  0  0  0  0
  -15.8673  -28.0822   22.7066 H   0  0  0  0  0  0
  -24.5916  -30.7055   25.7789 H   0  0  0  0  0  0
  -24.8920  -32.2875   26.4894 H   0  0  0  0  0  0
  -25.8077  -30.8889   27.0229 H   0  0  0  0  0  0
  -26.2871  -29.6795   24.1167 H   0  0  0  0  0  0
  -27.4058  -29.7265   25.4601 H   0  0  0  0  0  0
  -27.8725  -30.4340   23.9313 H   0  0  0  0  0  0
  -27.2686  -33.3610   26.2088 H   0  0  0  0  0  0
  -28.3864  -32.6876   25.0312 H   0  0  0  0  0  0
  -28.0739  -31.8424   26.5393 H   0  0  0  0  0  0
  -28.2607  -38.0096   24.7507 H   0  0  0  0  0  0
  -28.1068  -36.2629   24.6305 H   0  0  0  0  0  0
  -27.2299  -37.1473   25.8870 H   0  0  0  0  0  0
  -20.9347  -29.8766   21.6914 H   0  0  0  0  0  0
  -26.0186  -38.2870   24.1396 H   0  0  0  0  0  0
  -27.3014  -19.3589   19.4781 H   0  0  0  0  0  0
  -31.1212  -19.8571   21.4107 H   0  0  0  0  0  0
  -27.6858  -16.9586   19.3213 H   0  0  0  0  0  0
  -31.5246  -17.4295   21.2357 H   0  0  0  0  0  0
  -28.2293  -25.6906   18.3188 H   0  0  0  0  0  0
  -28.4353  -23.3978   17.6986 H   0  0  0  0  0  0
  -27.1979  -22.7690   18.7523 H   0  0  0  0  0  0
  -27.6770  -23.4678   21.5811 H   0  0  0  0  0  0
  -29.1677  -24.3470   21.7815 H   0  0  0  0  0  0
  -30.1230  -21.9085   18.6927 H   0  0  0  0  0  0
  -28.7374  -20.9654   18.2087 H   0  0  0  0  0  0
  -29.3159  -21.8139   22.2935 H   0  0  0  0  0  0
  -30.5035  -22.3786   21.1412 H   0  0  0  0  0  0
  -29.0519  -15.3440   17.8726 H   0  0  0  0  0  0
  -30.7979  -15.0343   17.8957 H   0  0  0  0  0  0
  -30.2076  -16.6608   17.9219 H   0  0  0  0  0  0
  1 25  1  0  0  0
  1 30  2  0  0  0
  1 85  1  0  0  0
  2  3  1  0  0  0
  2 25  1  0  0  0
  2 86  1  0  0  0
  2 87  1  0  0  0
  3  4  1  0  0  0
  3 88  1  0  0  0
  3 89  1  0  0  0
  4  5  1  0  0  0
  4 90  1  0  0  0
  4 91  1  0  0  0
  5  6  1  0  0  0
  5 26  1  0  0  0
  5 92  1  0  0  0
  6 25  1  0  0  0
  6 93  1  0  0  0
  6 94  1  0  0  0
  7  8  2  0  0  0
  7 26  1  0  0  0
  7 29  1  0  0  0
  8  9  1  0  0  0
  8 22  1  0  0  0
  9 10  1  0  0  0
  9 27  2  0  0  0
 10 11  2  0  0  0
 10 15  1  0  0  0
 11 12  1  0  0  0
 11 95  1  0  0  0
 12 13  2  0  0  0
 12 96  1  0  0  0
 13 14  1  0  0  0
 13 31  1  0  0  0
 14 15  2  0  0  0
 14 97  1  0  0  0
 15 98  1  0  0  0
 16 17  2  0  0  0
 16 21  1  0  0  0
 16 31  1  0  0  0
 17 18  1  0  0  0
 17 99  1  0  0  0
 18 19  2  0  0  0
 18100  1  0  0  0
 19 20  1  0  0  0
 19 24  1  0  0  0
 20 21  2  0  0  0
 20101  1  0  0  0
 21 23  1  0  0  0
 22 28  1  0  0  0
 22 32  2  0  0  0
 26 27  1  0  0  0
 28102  1  0  0  0
 28103  1  0  0  0
 29104  1  0  0  0
 29105  1  0  0  0
 33 34  1  0  0  0
 33 66  1  0  0  0
 33 70  2  0  0  0
 34 36  1  0  0  0
 34 59  1  0  0  0
 34106  1  0  0  0
 35 44  2  0  0  0
 35 45  1  0  0  0
 35 68  1  0  0  0
 36 56  1  0  0  0
 36107  1  0  0  0
 37 39  1  0  0  0
 37 47  1  0  0  0
 37 66  1  0  0  0
 37108  1  0  0  0
 38 43  2  0  0  0
 38 46  1  0  0  0
 38 47  1  0  0  0
 39 64  1  0  0  0
 39 67  2  0  0  0
 40 52  1  0  0  0
 40 53  2  0  0  0
 40 58  1  0  0  0
 41109  1  0  0  0
 41110  1  0  0  0
 41111  1  0  0  0
 41 48  1  0  0  0
 42 43  1  0  0  0
 42 66  1  0  0  0
 42112  1  0  0  0
 42113  1  0  0  0
 43 44  1  0  0  0
 44114  1  0  0  0
 45 46  2  0  0  0
 45115  1  0  0  0
 46116  1  0  0  0
 47117  1  0  0  0
 47118  1  0  0  0
 48 56  1  0  0  0
 48 65  1  0  0  0
 48119  1  0  0  0
 49 50  1  0  0  0
 49 53  1  0  0  0
 49 64  1  0  0  0
 49120  1  0  0  0
 50 51  1  0  0  0
 50121  1  0  0  0
 50122  1  0  0  0
 51 52  1  0  0  0
 51123  1  0  0  0
 51124  1  0  0  0
 52125  1  0  0  0
 52126  1  0  0  0
 53 54  1  0  0  0
 54 55  2  0  0  0
 54127  1  0  0  0
 55 57  1  0  0  0
 55128  1  0  0  0
 56 69  2  0  0  0
 57 58  2  0  0  0
 57129  1  0  0  0
 58130  1  0  0  0
 59 60  1  0  0  0
 59 61  1  0  0  0
 59 62  1  0  0  0
 60131  1  0  0  0
 60132  1  0  0  0
 60133  1  0  0  0
 61134  1  0  0  0
 61135  1  0  0  0
 61136  1  0  0  0
 62137  1  0  0  0
 62138  1  0  0  0
 62139  1  0  0  0
 63 65  1  0  0  0
 63140  1  0  0  0
 63141  1  0  0  0
 63142  1  0  0  0
 64143  1  0  0  0
 65144  1  0  0  0
 68 78  1  0  0  0
 71 73  2  0  0  0
 71 75  1  0  0  0
 71145  1  0  0  0
 72 74  1  0  0  0
 72 75  2  0  0  0
 72146  1  0  0  0
 73 76  1  0  0  0
 73147  1  0  0  0
 74 76  2  0  0  0
 74148  1  0  0  0
 75 84  1  0  0  0
 76 85  1  0  0  0
 77 78  2  0  0  0
 77 79  1  0  0  0
 77 80  1  0  0  0
 78149  1  0  0  0
 79 81  1  0  0  0
 79150  1  0  0  0
 79151  1  0  0  0
 80 82  1  0  0  0
 80152  1  0  0  0
 80153  1  0  0  0
 81 84  1  0  0  0
 81154  1  0  0  0
 81155  1  0  0  0
 82 84  1  0  0  0
 82156  1  0  0  0
 82157  1  0  0  0
 83 85  1  0  0  0
 83158  1  0  0  0
 83159  1  0  0  0
 83160  1  0  0  0
M  ISO  4   1 100  68 101  78 101  85 100
M  END
> <chiral flag>
0

> <version>
0

> <s_m_source_file>
/data/baiqing/PycharmProjects/Reinvent-master-3.2/result/LINK_invent/BTK/process_docking_weight1_custom_product_contain_oxygen_bond_distance_aromatic_linkinvent_7_9_3/rearranged_h_0098.sdf

> <i_m_source_file_index>
81

> <r_mmod_Potential_Energy-OPLS-2005>
283.66064453125

> <r_mmod_Stretch_Energy-OPLS-2005>
55.6305236816406

> <r_mmod_Bend_Energy-OPLS-2005>
139.499038696289

> <r_mmod_Torsional_Energy-OPLS-2005>
368.322357177734

> <r_mmod_Improper_Torsional_Energy-OPLS-2005>
33.7407264709473

> <r_mmod_Van_der_Waal_Energy-OPLS-2005>
156.943832397461

> <r_mmod_Electrostatic_Energy-OPLS-2005>
-325.28662109375

> <r_mmod_Solvation_Energy-OPLS-2005>
-200.751220703125

> <b_mmod_Minimization_Converged-OPLS-2005>
0

> <r_mmod_RMS_Derivative-OPLS-2005>
0.753320157527924

$$$$
81
                    3D
 Structure written by MMmdl.
164173  0  0  1  0            999 V2000
  -30.6684  -14.6466   20.5902 C   0  0  0  0  0  0
  -30.4214  -12.4222   19.4677 C   0  0  0  0  0  0
  -29.5061  -12.5423   18.2308 C   0  0  0  0  0  0
  -28.0304  -12.3647   18.6294 C   0  0  0  0  0  0
  -27.6462  -13.2313   19.8549 C   0  0  2  0  0  0
  -28.6765  -13.1011   20.9925 C   0  0  0  0  0  0
  -25.2505  -13.8196   20.5672 C   0  0  0  0  0  0
  -24.1805  -13.0427   20.9181 C   0  0  0  0  0  0
  -24.6413  -11.6909   20.8730 C   0  0  0  0  0  0
  -23.9097  -10.4288   21.0418 C   0  0  0  0  0  0
  -24.3646   -9.4200   21.9188 C   0  0  0  0  0  0
  -23.6316   -8.2241   22.0759 C   0  0  0  0  0  0
  -22.4298   -8.0281   21.3544 C   0  0  0  0  0  0
  -21.9940   -9.0263   20.4650 C   0  0  0  0  0  0
  -22.7276  -10.2138   20.3065 C   0  0  0  0  0  0
  -21.6859   -6.0745   22.5286 C   0  0  0  0  0  0
  -21.4026   -6.5650   23.8222 C   0  0  0  0  0  0
  -21.3661   -5.6799   24.9179 C   0  0  0  0  0  0
  -21.6047   -4.3060   24.7236 C   0  0  0  0  0  0
  -21.8823   -3.8151   23.4353 C   0  0  0  0  0  0
  -21.9195   -4.6967   22.3406 C   0  0  0  0  0  0
  -22.7823  -13.5197   21.1857 C   0  0  0  0  0  0
  -22.1660   -4.2150   21.0980 F   0  0  0  0  0  0
  -21.5625   -3.4540   25.7743 F   0  0  0  0  0  0
  -30.0027  -13.4470   20.4533 N   0  0  0  0  0  0
  -26.2936  -12.9414   20.3233 N   0  0  0  0  0  0
  -25.9332  -11.6551   20.5690 N   0  0  0  0  0  0
  -22.0486  -12.8186   22.0424 N   0  0  0  0  0  0
  -25.4188  -15.1927   20.4154 N   0  0  0  0  0  0
  -31.7626  -14.8130   20.0391 O   0  0  0  0  0  0
  -21.6648   -6.8884   21.4249 O   0  0  0  0  0  0
  -22.3491  -14.5497   20.6702 O   0  0  0  0  0  0
  -24.6259  -31.8590   23.2029 C   0  0  0  0  0  0
  -25.9103  -32.4778   23.8358 C   0  0  1  0  0  0
  -27.2252  -27.3258   20.1290 C   0  0  0  0  0  0
  -25.5925  -33.8578   24.2288 N   0  0  0  0  0  0
  -23.4183  -30.4811   21.5447 C   0  0  2  0  0  0
  -24.8653  -28.9287   20.1166 C   0  0  0  0  0  0
  -22.7466  -29.4624   22.4953 C   0  0  0  0  0  0
  -18.0280  -28.1390   22.8484 C   0  0  0  0  0  0
  -24.1486  -36.7290   23.2638 C   0  0  0  0  0  0
  -25.9562  -30.7959   21.3667 C   0  0  0  0  0  0
  -26.0333  -29.4205   20.7135 C   0  0  0  0  0  0
  -27.2201  -28.6323   20.7034 C   0  0  0  0  0  0
  -26.0383  -26.8741   19.5177 C   0  0  0  0  0  0
  -24.8680  -27.6610   19.5097 C   0  0  0  0  0  0
  -23.6323  -29.8092   20.1619 C   0  0  0  0  0  0
  -25.4106  -36.3085   24.0337 C   0  0  1  0  0  0
  -20.5878  -28.3692   23.1290 C   0  0  2  0  0  0
  -20.6774  -26.9418   22.5414 C   0  0  0  0  0  0
  -19.5753  -26.6388   21.5214 C   0  0  0  0  0  0
  -18.1929  -26.7935   22.1621 C   0  0  0  0  0  0
  -19.1531  -28.8855   23.2882 C   0  0  0  0  0  0
  -18.9458  -30.1458   23.8901 C   0  0  0  0  0  0
  -17.6459  -30.6593   24.0565 C   0  0  0  0  0  0
  -25.9048  -34.9452   23.5108 C   0  0  0  0  0  0
  -16.5349  -29.9090   23.6332 C   0  0  0  0  0  0
  -16.7268  -28.6508   23.0358 C   0  0  0  0  0  0
  -26.4504  -31.6584   25.0716 C   0  0  0  0  0  0
  -25.3753  -31.3691   26.1453 C   0  0  0  0  0  0
  -27.0350  -30.3022   24.6139 C   0  0  0  0  0  0
  -27.6074  -32.4311   25.7478 C   0  0  0  0  0  0
  -27.5591  -37.1773   24.8448 C   0  0  0  0  0  0
  -21.4186  -29.3040   22.3684 N   0  0  0  0  0  0
  -26.4271  -37.3794   23.9440 N   0  0  0  0  0  0
  -24.6854  -31.0616   22.0961 N   0  0  0  0  0  0
  -23.4191  -28.8172   23.3036 O   0  0  0  0  0  0
  -28.3546  -26.5036   20.1234 O   0  0  0  0  0  0
  -26.5617  -34.8917   22.4677 O   0  0  0  0  0  0
  -23.5426  -32.1382   23.7367 O   0  0  0  0  0  0
  -29.7274  -19.5296   21.4623 C   0  0  0  0  0  0
  -29.9090  -18.1657   21.8515 C   0  0  0  0  0  0
  -29.3662  -18.7908   19.2171 C   0  0  0  0  0  0
  -29.4909  -19.9006   20.1144 C   0  0  0  0  0  0
  -29.8830  -17.0602   20.9362 C   0  0  0  0  0  0
  -29.5650  -17.4271   19.5992 C   0  0  0  0  0  0
  -30.1785  -21.6516   18.5454 C   0  0  0  0  0  0
  -30.0864  -23.0597   17.9385 C   0  0  0  0  0  0
  -29.8896  -24.1734   18.9659 C   0  0  0  0  0  0
  -28.8642  -22.4456   20.4895 C   0  0  0  0  0  0
  -28.6427  -23.8792   19.7899 C   0  0  1  0  0  0
  -31.6013  -15.7696   23.4083 C   0  0  0  0  0  0
  -28.2538  -25.1390   20.6912 C   0  0  0  0  0  0
  -30.2205  -15.4087   22.8257 C   0  0  0  0  0  0
  -29.4514  -21.3156   19.6546 N   0  0  0  0  0  0
  -30.1208  -15.6535   21.3697 N   0  0  0  0  0  0
  -30.9267  -20.8618   17.9583 O   0  0  0  0  0  0
  -29.4242  -16.4650   18.6553 F   0  0  0  0  0  0
  -31.4677  -12.5308   19.1753 H   0  0  0  0  0  0
  -30.3419  -11.4268   19.9072 H   0  0  0  0  0  0
  -29.7836  -11.8032   17.4784 H   0  0  0  0  0  0
  -29.6437  -13.5211   17.7673 H   0  0  0  0  0  0
  -27.8705  -11.3107   18.8581 H   0  0  0  0  0  0
  -27.3804  -12.5994   17.7861 H   0  0  0  0  0  0
  -27.6624  -14.2679   19.5150 H   0  0  0  0  0  0
  -28.6821  -12.0880   21.3973 H   0  0  0  0  0  0
  -28.3689  -13.7451   21.8128 H   0  0  0  0  0  0
  -25.2807   -9.5658   22.4740 H   0  0  0  0  0  0
  -24.0029   -7.4634   22.7491 H   0  0  0  0  0  0
  -21.0869   -8.8806   19.8953 H   0  0  0  0  0  0
  -22.3767  -10.9683   19.6168 H   0  0  0  0  0  0
  -21.2032   -7.6157   23.9727 H   0  0  0  0  0  0
  -21.1475   -6.0521   25.9081 H   0  0  0  0  0  0
  -22.0601   -2.7610   23.2857 H   0  0  0  0  0  0
  -22.4121  -11.9862   22.4824 H   0  0  0  0  0  0
  -21.1085  -13.1185   22.2620 H   0  0  0  0  0  0
  -24.6552  -15.8469   20.5450 H   0  0  0  0  0  0
  -26.2726  -15.6374   20.1035 H   0  0  0  0  0  0
  -26.7167  -32.5463   23.1109 H   0  0  0  0  0  0
  -25.0086  -33.9727   25.0442 H   0  0  0  0  0  0
  -22.7119  -31.3010   21.3997 H   0  0  0  0  0  0
  -23.3773  -35.9590   23.3235 H   0  0  0  0  0  0
  -24.3597  -36.8987   22.2064 H   0  0  0  0  0  0
  -23.7187  -37.6452   23.6701 H   0  0  0  0  0  0
  -26.0770  -31.5568   20.5940 H   0  0  0  0  0  0
  -26.8414  -30.8538   21.9883 H   0  0  0  0  0  0
  -28.1228  -29.0087   21.1639 H   0  0  0  0  0  0
  -26.0144  -25.9011   19.0479 H   0  0  0  0  0  0
  -23.9704  -27.2784   19.0433 H   0  0  0  0  0  0
  -23.7518  -30.5830   19.4030 H   0  0  0  0  0  0
  -22.7525  -29.2378   19.8628 H   0  0  0  0  0  0
  -25.1272  -36.1930   25.0824 H   0  0  0  0  0  0
  -20.9967  -28.3271   24.1414 H   0  0  0  0  0  0
  -20.5694  -26.2295   23.3609 H   0  0  0  0  0  0
  -21.6644  -26.7460   22.1202 H   0  0  0  0  0  0
  -19.6921  -25.6299   21.1247 H   0  0  0  0  0  0
  -19.6700  -27.3197   20.6744 H   0  0  0  0  0  0
  -17.4203  -26.6688   21.4019 H   0  0  0  0  0  0
  -18.0325  -26.0078   22.9013 H   0  0  0  0  0  0
  -19.7934  -30.7270   24.2284 H   0  0  0  0  0  0
  -17.5015  -31.6280   24.5159 H   0  0  0  0  0  0
  -15.5352  -30.3000   23.7654 H   0  0  0  0  0  0
  -15.8668  -28.0829   22.7080 H   0  0  0  0  0  0
  -24.5939  -30.7029   25.7780 H   0  0  0  0  0  0
  -24.8925  -32.2838   26.4906 H   0  0  0  0  0  0
  -25.8101  -30.8857   27.0211 H   0  0  0  0  0  0
  -26.2907  -29.6753   24.1214 H   0  0  0  0  0  0
  -27.4133  -29.7298   25.4619 H   0  0  0  0  0  0
  -27.8739  -30.4340   23.9300 H   0  0  0  0  0  0
  -27.2714  -33.3625   26.2051 H   0  0  0  0  0  0
  -28.3886  -32.6847   25.0297 H   0  0  0  0  0  0
  -28.0743  -31.8431   26.5398 H   0  0  0  0  0  0
  -28.2526  -38.0153   24.7631 H   0  0  0  0  0  0
  -28.1172  -36.2695   24.6100 H   0  0  0  0  0  0
  -27.2335  -37.1211   25.8850 H   0  0  0  0  0  0
  -20.9365  -29.8731   21.6867 H   0  0  0  0  0  0
  -26.0152  -38.2845   24.1538 H   0  0  0  0  0  0
  -29.8259  -20.2985   22.2170 H   0  0  0  0  0  0
  -30.1013  -18.0037   22.9002 H   0  0  0  0  0  0
  -29.1429  -18.9782   18.1769 H   0  0  0  0  0  0
  -29.2627  -23.0605   17.2245 H   0  0  0  0  0  0
  -30.9884  -23.2588   17.3597 H   0  0  0  0  0  0
  -29.7877  -25.1269   18.4456 H   0  0  0  0  0  0
  -30.7659  -24.2595   19.6091 H   0  0  0  0  0  0
  -27.9205  -22.1049   20.9167 H   0  0  0  0  0  0
  -29.5381  -22.5857   21.3357 H   0  0  0  0  0  0
  -27.8166  -23.7665   19.0864 H   0  0  0  0  0  0
  -31.9364  -16.7675   23.1276 H   0  0  0  0  0  0
  -32.3676  -15.0669   23.0739 H   0  0  0  0  0  0
  -31.5789  -15.7317   24.4973 H   0  0  0  0  0  0
  -28.9226  -25.1429   21.5523 H   0  0  0  0  0  0
  -27.2592  -24.9792   21.1116 H   0  0  0  0  0  0
  -29.4289  -15.9527   23.3424 H   0  0  0  0  0  0
  -30.0320  -14.3633   23.0742 H   0  0  0  0  0  0
  1 25  1  0  0  0
  1 30  2  0  0  0
  1 86  1  0  0  0
  2  3  1  0  0  0
  2 25  1  0  0  0
  2 89  1  0  0  0
  2 90  1  0  0  0
  3  4  1  0  0  0
  3 91  1  0  0  0
  3 92  1  0  0  0
  4  5  1  0  0  0
  4 93  1  0  0  0
  4 94  1  0  0  0
  5  6  1  0  0  0
  5 26  1  0  0  0
  5 95  1  0  0  0
  6 25  1  0  0  0
  6 96  1  0  0  0
  6 97  1  0  0  0
  7  8  2  0  0  0
  7 26  1  0  0  0
  7 29  1  0  0  0
  8  9  1  0  0  0
  8 22  1  0  0  0
  9 10  1  0  0  0
  9 27  2  0  0  0
 10 11  2  0  0  0
 10 15  1  0  0  0
 11 12  1  0  0  0
 11 98  1  0  0  0
 12 13  2  0  0  0
 12 99  1  0  0  0
 13 14  1  0  0  0
 13 31  1  0  0  0
 14 15  2  0  0  0
 14100  1  0  0  0
 15101  1  0  0  0
 16 17  2  0  0  0
 16 21  1  0  0  0
 16 31  1  0  0  0
 17 18  1  0  0  0
 17102  1  0  0  0
 18 19  2  0  0  0
 18103  1  0  0  0
 19 20  1  0  0  0
 19 24  1  0  0  0
 20 21  2  0  0  0
 20104  1  0  0  0
 21 23  1  0  0  0
 22 28  1  0  0  0
 22 32  2  0  0  0
 26 27  1  0  0  0
 28105  1  0  0  0
 28106  1  0  0  0
 29107  1  0  0  0
 29108  1  0  0  0
 33 34  1  0  0  0
 33 66  1  0  0  0
 33 70  2  0  0  0
 34 36  1  0  0  0
 34 59  1  0  0  0
 34109  1  0  0  0
 35 44  2  0  0  0
 35 45  1  0  0  0
 35 68  1  0  0  0
 36 56  1  0  0  0
 36110  1  0  0  0
 37 39  1  0  0  0
 37 47  1  0  0  0
 37 66  1  0  0  0
 37111  1  0  0  0
 38 43  2  0  0  0
 38 46  1  0  0  0
 38 47  1  0  0  0
 39 64  1  0  0  0
 39 67  2  0  0  0
 40 52  1  0  0  0
 40 53  2  0  0  0
 40 58  1  0  0  0
 41112  1  0  0  0
 41113  1  0  0  0
 41114  1  0  0  0
 41 48  1  0  0  0
 42 43  1  0  0  0
 42 66  1  0  0  0
 42115  1  0  0  0
 42116  1  0  0  0
 43 44  1  0  0  0
 44117  1  0  0  0
 45 46  2  0  0  0
 45118  1  0  0  0
 46119  1  0  0  0
 47120  1  0  0  0
 47121  1  0  0  0
 48 56  1  0  0  0
 48 65  1  0  0  0
 48122  1  0  0  0
 49 50  1  0  0  0
 49 53  1  0  0  0
 49 64  1  0  0  0
 49123  1  0  0  0
 50 51  1  0  0  0
 50124  1  0  0  0
 50125  1  0  0  0
 51 52  1  0  0  0
 51126  1  0  0  0
 51127  1  0  0  0
 52128  1  0  0  0
 52129  1  0  0  0
 53 54  1  0  0  0
 54 55  2  0  0  0
 54130  1  0  0  0
 55 57  1  0  0  0
 55131  1  0  0  0
 56 69  2  0  0  0
 57 58  2  0  0  0
 57132  1  0  0  0
 58133  1  0  0  0
 59 60  1  0  0  0
 59 61  1  0  0  0
 59 62  1  0  0  0
 60134  1  0  0  0
 60135  1  0  0  0
 60136  1  0  0  0
 61137  1  0  0  0
 61138  1  0  0  0
 61139  1  0  0  0
 62140  1  0  0  0
 62141  1  0  0  0
 62142  1  0  0  0
 63 65  1  0  0  0
 63143  1  0  0  0
 63144  1  0  0  0
 63145  1  0  0  0
 64146  1  0  0  0
 65147  1  0  0  0
 68 83  1  0  0  0
 71 72  2  0  0  0
 71 74  1  0  0  0
 71148  1  0  0  0
 72 75  1  0  0  0
 72149  1  0  0  0
 73 74  2  0  0  0
 73 76  1  0  0  0
 73150  1  0  0  0
 74 85  1  0  0  0
 75 76  2  0  0  0
 75 86  1  0  0  0
 76 88  1  0  0  0
 77 78  1  0  0  0
 77 85  1  0  0  0
 77 87  2  0  0  0
 78 79  1  0  0  0
 78151  1  0  0  0
 78152  1  0  0  0
 79 81  1  0  0  0
 79153  1  0  0  0
 79154  1  0  0  0
 80 81  1  0  0  0
 80 85  1  0  0  0
 80155  1  0  0  0
 80156  1  0  0  0
 81 83  1  0  0  0
 81157  1  0  0  0
 82 84  1  0  0  0
 82158  1  0  0  0
 82159  1  0  0  0
 82160  1  0  0  0
 83161  1  0  0  0
 83162  1  0  0  0
 84 86  1  0  0  0
 84163  1  0  0  0
 84164  1  0  0  0
M  ISO  4   1 100  68 101  83 101  86 100
M  END
> <chiral flag>
0

> <version>
0

> <s_m_source_file>
/data/baiqing/PycharmProjects/Reinvent-master-3.2/result/LINK_invent/BTK/process_docking_weight1_custom_product_contain_oxygen_bond_distance_aromatic_linkinvent_7_9_3/rearranged_h_0098.sdf

> <i_m_source_file_index>
82

> <r_mmod_Potential_Energy-OPLS-2005>
341.504943847656

> <r_mmod_Stretch_Energy-OPLS-2005>
106.082946777344

> <r_mmod_Bend_Energy-OPLS-2005>
151.067687988281

> <r_mmod_Torsional_Energy-OPLS-2005>
352.356628417969

> <r_mmod_Improper_Torsional_Energy-OPLS-2005>
3.38608932495117

> <r_mmod_Van_der_Waal_Energy-OPLS-2005>
160.608703613281

> <r_mmod_Electrostatic_Energy-OPLS-2005>
-274.903228759766

> <r_mmod_Solvation_Energy-OPLS-2005>
-202.710845947266

> <b_mmod_Minimization_Converged-OPLS-2005>
0

> <r_mmod_RMS_Derivative-OPLS-2005>
1.96071302890778

$$$$
82
                    3D
 Structure written by MMmdl.
153161  0  0  1  0            999 V2000
  -30.7620  -14.4286   20.6078 C   0  0  0  0  0  0
  -30.4102  -12.3070   19.3958 C   0  0  0  0  0  0
  -29.4783  -12.5062   18.1867 C   0  0  0  0  0  0
  -28.0026  -12.3705   18.6081 C   0  0  0  0  0  0
  -27.6588  -13.2099   19.8688 C   0  0  2  0  0  0
  -28.7067  -13.0014   20.9839 C   0  0  0  0  0  0
  -25.2638  -13.8198   20.5744 C   0  0  0  0  0  0
  -24.1865  -13.0473   20.9199 C   0  0  0  0  0  0
  -24.6412  -11.6929   20.8745 C   0  0  0  0  0  0
  -23.9074  -10.4309   21.0421 C   0  0  0  0  0  0
  -24.3625   -9.4228   21.9204 C   0  0  0  0  0  0
  -23.6312   -8.2255   22.0761 C   0  0  0  0  0  0
  -22.4290   -8.0286   21.3561 C   0  0  0  0  0  0
  -21.9934   -9.0252   20.4650 C   0  0  0  0  0  0
  -22.7253  -10.2142   20.3065 C   0  0  0  0  0  0
  -21.6856   -6.0755   22.5288 C   0  0  0  0  0  0
  -21.4013   -6.5658   23.8221 C   0  0  0  0  0  0
  -21.3654   -5.6805   24.9185 C   0  0  0  0  0  0
  -21.6037   -4.3066   24.7228 C   0  0  0  0  0  0
  -21.8819   -3.8164   23.4347 C   0  0  0  0  0  0
  -21.9193   -4.6985   22.3408 C   0  0  0  0  0  0
  -22.7884  -13.5283   21.1819 C   0  0  0  0  0  0
  -22.1662   -4.2168   21.0984 F   0  0  0  0  0  0
  -21.5619   -3.4537   25.7741 F   0  0  0  0  0  0
  -30.0294  -13.2984   20.4135 N   0  0  0  0  0  0
  -26.3036  -12.9348   20.3373 N   0  0  0  0  0  0
  -25.9336  -11.6499   20.5757 N   0  0  0  0  0  0
  -22.0494  -12.8265   22.0342 N   0  0  0  0  0  0
  -25.4474  -15.1916   20.4213 N   0  0  0  0  0  0
  -31.8969  -14.5502   20.1353 O   0  0  0  0  0  0
  -21.6652   -6.8889   21.4250 O   0  0  0  0  0  0
  -22.3581  -14.5595   20.6671 O   0  0  0  0  0  0
  -24.6158  -31.8663   23.2076 C   0  0  0  0  0  0
  -25.9050  -32.4809   23.8383 C   0  0  1  0  0  0
  -27.2446  -27.4391   20.1059 C   0  0  0  0  0  0
  -25.5898  -33.8603   24.2328 N   0  0  0  0  0  0
  -23.4043  -30.4889   21.5470 C   0  0  2  0  0  0
  -24.8524  -28.9470   20.1225 C   0  0  0  0  0  0
  -22.7408  -29.4677   22.4997 C   0  0  0  0  0  0
  -18.0272  -28.1403   22.8496 C   0  0  0  0  0  0
  -24.1482  -36.7305   23.2628 C   0  0  0  0  0  0
  -25.9293  -30.8376   21.3533 C   0  0  0  0  0  0
  -26.0105  -29.4655   20.7156 C   0  0  0  0  0  0
  -27.2106  -28.7199   20.7025 C   0  0  0  0  0  0
  -26.0703  -26.9260   19.5172 C   0  0  0  0  0  0
  -24.8762  -27.6748   19.5229 C   0  0  0  0  0  0
  -23.6120  -29.8130   20.1645 C   0  0  0  0  0  0
  -25.4090  -36.3104   24.0355 C   0  0  1  0  0  0
  -20.5850  -28.3680   23.1323 C   0  0  2  0  0  0
  -20.6770  -26.9411   22.5434 C   0  0  0  0  0  0
  -19.5740  -26.6403   21.5237 C   0  0  0  0  0  0
  -18.1915  -26.7959   22.1631 C   0  0  0  0  0  0
  -19.1520  -28.8858   23.2908 C   0  0  0  0  0  0
  -18.9460  -30.1466   23.8918 C   0  0  0  0  0  0
  -17.6462  -30.6601   24.0577 C   0  0  0  0  0  0
  -25.9021  -34.9471   23.5142 C   0  0  0  0  0  0
  -16.5340  -29.9116   23.6328 C   0  0  0  0  0  0
  -16.7264  -28.6530   23.0340 C   0  0  0  0  0  0
  -26.4467  -31.6568   25.0702 C   0  0  0  0  0  0
  -25.3729  -31.3669   26.1445 C   0  0  0  0  0  0
  -27.0267  -30.3025   24.6026 C   0  0  0  0  0  0
  -27.6075  -32.4228   25.7474 C   0  0  0  0  0  0
  -27.5608  -37.1744   24.8435 C   0  0  0  0  0  0
  -21.4131  -29.3040   22.3723 N   0  0  0  0  0  0
  -26.4252  -37.3818   23.9471 N   0  0  0  0  0  0
  -24.6684  -31.0788   22.0956 N   0  0  0  0  0  0
  -23.4163  -28.8203   23.3045 O   0  0  0  0  0  0
  -28.4194  -26.7266   20.0342 O   0  0  0  0  0  0
  -26.5591  -34.8943   22.4711 O   0  0  0  0  0  0
  -23.5354  -32.1394   23.7502 O   0  0  0  0  0  0
  -30.4618  -19.0488   22.2082 C   0  0  0  0  0  0
  -29.9206  -20.3367   21.9997 C   0  0  0  0  0  0
  -28.3324  -19.3882   20.4329 C   0  0  0  0  0  0
  -29.9683  -17.9098   21.5177 C   0  0  0  0  0  0
  -28.8653  -20.5246   21.0793 C   0  0  0  0  0  0
  -28.8688  -18.0970   20.6426 C   0  0  0  0  0  0
  -30.7157  -16.5942   21.6265 C   0  0  0  0  0  0
  -28.4576  -24.2646   20.3740 C   0  0  0  0  0  0
  -28.9212  -23.0540   21.2164 C   0  0  0  0  0  0
  -28.5819  -25.6733   20.9996 C   0  0  0  0  0  0
  -28.3233  -21.7871   20.7692 N   0  0  0  0  0  0
  -30.1220  -15.4638   21.1874 N   0  0  0  0  0  0
  -31.8495  -16.5994   22.1248 O   0  0  0  0  0  0
  -27.9987  -24.0953   19.2361 O   0  0  0  0  0  0
  -28.3214  -17.0535   19.9662 F   0  0  0  0  0  0
  -31.4515  -12.3940   19.0816 H   0  0  0  0  0  0
  -30.3065  -11.2984   19.7957 H   0  0  0  0  0  0
  -29.7127  -11.7800   17.4074 H   0  0  0  0  0  0
  -29.6454  -13.4896   17.7441 H   0  0  0  0  0  0
  -27.8078  -11.3144   18.7962 H   0  0  0  0  0  0
  -27.3487  -12.6532   17.7819 H   0  0  0  0  0  0
  -27.7015  -14.2564   19.5663 H   0  0  0  0  0  0
  -28.6865  -11.9692   21.3388 H   0  0  0  0  0  0
  -28.4800  -13.6164   21.8556 H   0  0  0  0  0  0
  -25.2768   -9.5706   22.4776 H   0  0  0  0  0  0
  -24.0016   -7.4660   22.7485 H   0  0  0  0  0  0
  -21.0870   -8.8768   19.8951 H   0  0  0  0  0  0
  -22.3720  -10.9677   19.6159 H   0  0  0  0  0  0
  -21.2002   -7.6159   23.9740 H   0  0  0  0  0  0
  -21.1469   -6.0527   25.9091 H   0  0  0  0  0  0
  -22.0598   -2.7618   23.2844 H   0  0  0  0  0  0
  -22.4069  -11.9912   22.4726 H   0  0  0  0  0  0
  -21.1103  -13.1278   22.2476 H   0  0  0  0  0  0
  -24.7123  -15.8680   20.5931 H   0  0  0  0  0  0
  -26.3114  -15.6207   20.1111 H   0  0  0  0  0  0
  -26.7128  -32.5547   23.1161 H   0  0  0  0  0  0
  -25.0079  -33.9763   25.0496 H   0  0  0  0  0  0
  -22.6951  -31.3067   21.4034 H   0  0  0  0  0  0
  -23.3781  -35.9591   23.3202 H   0  0  0  0  0  0
  -24.3617  -36.9000   22.2061 H   0  0  0  0  0  0
  -23.7166  -37.6468   23.6663 H   0  0  0  0  0  0
  -26.0249  -31.5927   20.5711 H   0  0  0  0  0  0
  -26.8239  -30.9098   21.9600 H   0  0  0  0  0  0
  -28.1102  -29.1293   21.1410 H   0  0  0  0  0  0
  -26.0829  -25.9530   19.0468 H   0  0  0  0  0  0
  -23.9840  -27.2665   19.0680 H   0  0  0  0  0  0
  -23.7164  -30.5790   19.3955 H   0  0  0  0  0  0
  -22.7375  -29.2302   19.8714 H   0  0  0  0  0  0
  -25.1238  -36.1950   25.0835 H   0  0  0  0  0  0
  -20.9947  -28.3238   24.1440 H   0  0  0  0  0  0
  -20.5712  -26.2277   23.3620 H   0  0  0  0  0  0
  -21.6631  -26.7480   22.1174 H   0  0  0  0  0  0
  -19.6892  -25.6325   21.1244 H   0  0  0  0  0  0
  -19.6684  -27.3239   20.6785 H   0  0  0  0  0  0
  -17.4192  -26.6719   21.4030 H   0  0  0  0  0  0
  -18.0293  -26.0123   22.9038 H   0  0  0  0  0  0
  -19.7939  -30.7275   24.2286 H   0  0  0  0  0  0
  -17.5028  -31.6289   24.5171 H   0  0  0  0  0  0
  -15.5348  -30.3029   23.7684 H   0  0  0  0  0  0
  -15.8656  -28.0876   22.7034 H   0  0  0  0  0  0
  -24.5959  -30.6936   25.7803 H   0  0  0  0  0  0
  -24.8843  -32.2815   26.4811 H   0  0  0  0  0  0
  -25.8098  -30.8923   27.0241 H   0  0  0  0  0  0
  -26.2773  -29.6818   24.1103 H   0  0  0  0  0  0
  -27.4106  -29.7221   25.4424 H   0  0  0  0  0  0
  -27.8576  -30.4395   23.9103 H   0  0  0  0  0  0
  -27.2745  -33.3556   26.2042 H   0  0  0  0  0  0
  -28.3907  -32.6708   25.0291 H   0  0  0  0  0  0
  -28.0697  -31.8313   26.5394 H   0  0  0  0  0  0
  -28.2454  -38.0203   24.7711 H   0  0  0  0  0  0
  -28.1253  -36.2752   24.5925 H   0  0  0  0  0  0
  -27.2363  -37.0991   25.8827 H   0  0  0  0  0  0
  -20.9295  -29.8743   21.6922 H   0  0  0  0  0  0
  -26.0137  -38.2858   24.1630 H   0  0  0  0  0  0
  -31.3023  -18.9439   22.8806 H   0  0  0  0  0  0
  -30.3501  -21.1718   22.5372 H   0  0  0  0  0  0
  -27.5088  -19.4956   19.7437 H   0  0  0  0  0  0
  -28.6590  -23.2378   22.2597 H   0  0  0  0  0  0
  -30.0088  -22.9947   21.1602 H   0  0  0  0  0  0
  -29.5738  -25.7629   21.4444 H   0  0  0  0  0  0
  -27.8618  -25.7750   21.8100 H   0  0  0  0  0  0
  -27.7245  -21.8719   19.9496 H   0  0  0  0  0  0
  -29.1182  -15.4696   21.1154 H   0  0  0  0  0  0
  1 25  1  0  0  0
  1 30  2  0  0  0
  1 82  1  0  0  0
  2  3  1  0  0  0
  2 25  1  0  0  0
  2 86  1  0  0  0
  2 87  1  0  0  0
  3  4  1  0  0  0
  3 88  1  0  0  0
  3 89  1  0  0  0
  4  5  1  0  0  0
  4 90  1  0  0  0
  4 91  1  0  0  0
  5  6  1  0  0  0
  5 26  1  0  0  0
  5 92  1  0  0  0
  6 25  1  0  0  0
  6 93  1  0  0  0
  6 94  1  0  0  0
  7  8  2  0  0  0
  7 26  1  0  0  0
  7 29  1  0  0  0
  8  9  1  0  0  0
  8 22  1  0  0  0
  9 10  1  0  0  0
  9 27  2  0  0  0
 10 11  2  0  0  0
 10 15  1  0  0  0
 11 12  1  0  0  0
 11 95  1  0  0  0
 12 13  2  0  0  0
 12 96  1  0  0  0
 13 14  1  0  0  0
 13 31  1  0  0  0
 14 15  2  0  0  0
 14 97  1  0  0  0
 15 98  1  0  0  0
 16 17  2  0  0  0
 16 21  1  0  0  0
 16 31  1  0  0  0
 17 18  1  0  0  0
 17 99  1  0  0  0
 18 19  2  0  0  0
 18100  1  0  0  0
 19 20  1  0  0  0
 19 24  1  0  0  0
 20 21  2  0  0  0
 20101  1  0  0  0
 21 23  1  0  0  0
 22 28  1  0  0  0
 22 32  2  0  0  0
 26 27  1  0  0  0
 28102  1  0  0  0
 28103  1  0  0  0
 29104  1  0  0  0
 29105  1  0  0  0
 33 34  1  0  0  0
 33 66  1  0  0  0
 33 70  2  0  0  0
 34 36  1  0  0  0
 34 59  1  0  0  0
 34106  1  0  0  0
 35 44  2  0  0  0
 35 45  1  0  0  0
 35 68  1  0  0  0
 36 56  1  0  0  0
 36107  1  0  0  0
 37 39  1  0  0  0
 37 47  1  0  0  0
 37 66  1  0  0  0
 37108  1  0  0  0
 38 43  2  0  0  0
 38 46  1  0  0  0
 38 47  1  0  0  0
 39 64  1  0  0  0
 39 67  2  0  0  0
 40 52  1  0  0  0
 40 53  2  0  0  0
 40 58  1  0  0  0
 41109  1  0  0  0
 41110  1  0  0  0
 41111  1  0  0  0
 41 48  1  0  0  0
 42 43  1  0  0  0
 42 66  1  0  0  0
 42112  1  0  0  0
 42113  1  0  0  0
 43 44  1  0  0  0
 44114  1  0  0  0
 45 46  2  0  0  0
 45115  1  0  0  0
 46116  1  0  0  0
 47117  1  0  0  0
 47118  1  0  0  0
 48 56  1  0  0  0
 48 65  1  0  0  0
 48119  1  0  0  0
 49 50  1  0  0  0
 49 53  1  0  0  0
 49 64  1  0  0  0
 49120  1  0  0  0
 50 51  1  0  0  0
 50121  1  0  0  0
 50122  1  0  0  0
 51 52  1  0  0  0
 51123  1  0  0  0
 51124  1  0  0  0
 52125  1  0  0  0
 52126  1  0  0  0
 53 54  1  0  0  0
 54 55  2  0  0  0
 54127  1  0  0  0
 55 57  1  0  0  0
 55128  1  0  0  0
 56 69  2  0  0  0
 57 58  2  0  0  0
 57129  1  0  0  0
 58130  1  0  0  0
 59 60  1  0  0  0
 59 61  1  0  0  0
 59 62  1  0  0  0
 60131  1  0  0  0
 60132  1  0  0  0
 60133  1  0  0  0
 61134  1  0  0  0
 61135  1  0  0  0
 61136  1  0  0  0
 62137  1  0  0  0
 62138  1  0  0  0
 62139  1  0  0  0
 63 65  1  0  0  0
 63140  1  0  0  0
 63141  1  0  0  0
 63142  1  0  0  0
 64143  1  0  0  0
 65144  1  0  0  0
 68 80  1  0  0  0
 71 72  2  0  0  0
 71 74  1  0  0  0
 71145  1  0  0  0
 72 75  1  0  0  0
 72146  1  0  0  0
 73 75  2  0  0  0
 73 76  1  0  0  0
 73147  1  0  0  0
 74 76  2  0  0  0
 74 77  1  0  0  0
 75 81  1  0  0  0
 76 85  1  0  0  0
 77 82  1  0  0  0
 77 83  2  0  0  0
 78 79  1  0  0  0
 78 80  1  0  0  0
 78 84  2  0  0  0
 79 81  1  0  0  0
 79148  1  0  0  0
 79149  1  0  0  0
 80150  1  0  0  0
 80151  1  0  0  0
 81152  1  0  0  0
 82153  1  0  0  0
M  ISO  4   1 100  68 101  80 101  82 100
M  END
> <chiral flag>
0

> <version>
0

> <s_m_source_file>
/data/baiqing/PycharmProjects/Reinvent-master-3.2/result/LINK_invent/BTK/process_docking_weight1_custom_product_contain_oxygen_bond_distance_aromatic_linkinvent_7_9_3/rearranged_h_0098.sdf

> <i_m_source_file_index>
83

> <r_mmod_Potential_Energy-OPLS-2005>
-38.5972290039062

> <r_mmod_Stretch_Energy-OPLS-2005>
38.5323753356934

> <r_mmod_Bend_Energy-OPLS-2005>
104.814590454102

> <r_mmod_Torsional_Energy-OPLS-2005>
253.066925048828

> <r_mmod_Improper_Torsional_Energy-OPLS-2005>
5.61951780319214

> <r_mmod_Van_der_Waal_Energy-OPLS-2005>
160.204635620117

> <r_mmod_Electrostatic_Energy-OPLS-2005>
-377.959106445312

> <r_mmod_Solvation_Energy-OPLS-2005>
-235.68571472168

> <b_mmod_Minimization_Converged-OPLS-2005>
0

> <r_mmod_RMS_Derivative-OPLS-2005>
3.41535592079163

$$$$
83
                    3D
 Structure written by MMmdl.
158167  0  0  1  0            999 V2000
  -30.6916  -14.5040   20.5501 C   0  0  0  0  0  0
  -30.4241  -12.3190   19.4395 C   0  0  0  0  0  0
  -29.5002  -12.5120   18.2184 C   0  0  0  0  0  0
  -28.0204  -12.3719   18.6259 C   0  0  0  0  0  0
  -27.6626  -13.2139   19.8813 C   0  0  2  0  0  0
  -28.7049  -13.0084   21.0059 C   0  0  0  0  0  0
  -25.2571  -13.8179   20.5690 C   0  0  0  0  0  0
  -24.1835  -13.0435   20.9184 C   0  0  0  0  0  0
  -24.6401  -11.6903   20.8745 C   0  0  0  0  0  0
  -23.9066  -10.4286   21.0406 C   0  0  0  0  0  0
  -24.3617   -9.4202   21.9188 C   0  0  0  0  0  0
  -23.6281   -8.2244   22.0756 C   0  0  0  0  0  0
  -22.4264   -8.0284   21.3547 C   0  0  0  0  0  0
  -21.9904   -9.0256   20.4648 C   0  0  0  0  0  0
  -22.7238  -10.2131   20.3051 C   0  0  0  0  0  0
  -21.6841   -6.0739   22.5273 C   0  0  0  0  0  0
  -21.4013   -6.5639   23.8208 C   0  0  0  0  0  0
  -21.3664   -5.6791   24.9171 C   0  0  0  0  0  0
  -21.6042   -4.3051   24.7223 C   0  0  0  0  0  0
  -21.8817   -3.8145   23.4344 C   0  0  0  0  0  0
  -21.9186   -4.6965   22.3403 C   0  0  0  0  0  0
  -22.7858  -13.5220   21.1839 C   0  0  0  0  0  0
  -22.1646   -4.2152   21.0973 F   0  0  0  0  0  0
  -21.5645   -3.4532   25.7739 F   0  0  0  0  0  0
  -30.0367  -13.3115   20.4567 N   0  0  0  0  0  0
  -26.3026  -12.9366   20.3399 N   0  0  0  0  0  0
  -25.9331  -11.6511   20.5779 N   0  0  0  0  0  0
  -22.0486  -12.8224   22.0393 N   0  0  0  0  0  0
  -25.4268  -15.1907   20.4103 N   0  0  0  0  0  0
  -31.8168  -14.6823   20.0761 O   0  0  0  0  0  0
  -21.6630   -6.8881   21.4233 O   0  0  0  0  0  0
  -22.3531  -14.5519   20.6679 O   0  0  0  0  0  0
  -24.6194  -31.8663   23.2097 C   0  0  0  0  0  0
  -25.9075  -32.4813   23.8401 C   0  0  1  0  0  0
  -27.2268  -27.3979   20.0927 C   0  0  0  0  0  0
  -25.5919  -33.8614   24.2325 N   0  0  0  0  0  0
  -23.4086  -30.4928   21.5510 C   0  0  2  0  0  0
  -24.8526  -28.9624   20.1097 C   0  0  0  0  0  0
  -22.7439  -29.4656   22.4973 C   0  0  0  0  0  0
  -18.0276  -28.1380   22.8493 C   0  0  0  0  0  0
  -24.1481  -36.7306   23.2639 C   0  0  0  0  0  0
  -25.9432  -30.8213   21.3694 C   0  0  0  0  0  0
  -26.0180  -29.4567   20.7081 C   0  0  0  0  0  0
  -27.2087  -28.6854   20.6909 C   0  0  0  0  0  0
  -26.0374  -26.9380   19.4765 C   0  0  0  0  0  0
  -24.8601  -27.7057   19.4870 C   0  0  0  0  0  0
  -23.6168  -29.8324   20.1636 C   0  0  0  0  0  0
  -25.4103  -36.3104   24.0337 C   0  0  1  0  0  0
  -20.5873  -28.3670   23.1304 C   0  0  2  0  0  0
  -20.6760  -26.9403   22.5410 C   0  0  0  0  0  0
  -19.5737  -26.6389   21.5207 C   0  0  0  0  0  0
  -18.1921  -26.7925   22.1625 C   0  0  0  0  0  0
  -19.1528  -28.8843   23.2895 C   0  0  0  0  0  0
  -18.9452  -30.1445   23.8911 C   0  0  0  0  0  0
  -17.6453  -30.6582   24.0566 C   0  0  0  0  0  0
  -25.9035  -34.9471   23.5121 C   0  0  0  0  0  0
  -16.5343  -29.9084   23.6327 C   0  0  0  0  0  0
  -16.7265  -28.6500   23.0352 C   0  0  0  0  0  0
  -26.4488  -31.6607   25.0747 C   0  0  0  0  0  0
  -25.3739  -31.3719   26.1482 C   0  0  0  0  0  0
  -27.0328  -30.3045   24.6158 C   0  0  0  0  0  0
  -27.6067  -32.4329   25.7501 C   0  0  0  0  0  0
  -27.5576  -37.1809   24.8466 C   0  0  0  0  0  0
  -21.4160  -29.3042   22.3718 N   0  0  0  0  0  0
  -26.4291  -37.3793   23.9406 N   0  0  0  0  0  0
  -24.6757  -31.0746   22.1009 N   0  0  0  0  0  0
  -23.4198  -28.8188   23.3019 O   0  0  0  0  0  0
  -28.3758  -26.6148   20.1313 O   0  0  0  0  0  0
  -26.5600  -34.8928   22.4684 O   0  0  0  0  0  0
  -23.5375  -32.1434   23.7466 O   0  0  0  0  0  0
  -29.8394  -18.5938   18.9136 C   0  0  0  0  0  0
  -30.5569  -19.2778   21.1246 C   0  0  0  0  0  0
  -29.7484  -17.2526   19.3462 C   0  0  0  0  0  0
  -30.4593  -17.9295   21.5651 C   0  0  0  0  0  0
  -30.2609  -19.6290   19.7834 C   0  0  0  0  0  0
  -30.0862  -16.8956   20.6708 C   0  0  0  0  0  0
  -30.5613  -21.0037   19.2044 C   0  0  0  0  0  0
  -30.6515  -24.4961   19.5509 C   0  0  0  0  0  0
  -31.4486  -23.2121   19.7860 C   0  0  0  0  0  0
  -29.1785  -22.7582   20.3064 C   0  0  0  0  0  0
  -29.4032  -24.3001   20.3944 C   0  0  2  0  0  0
  -28.1978  -25.1845   19.9637 C   0  0  0  0  0  0
  -30.4719  -22.1267   19.9680 N   0  0  0  0  0  0
  -29.9963  -15.5285   21.0928 N   0  0  0  0  0  0
  -30.9622  -21.0588   18.0360 O   0  0  0  0  0  0
  -31.4701  -12.4148   19.1412 H   0  0  0  0  0  0
  -30.3227  -11.3093   19.8414 H   0  0  0  0  0  0
  -29.7444  -11.7863   17.4414 H   0  0  0  0  0  0
  -29.6713  -13.4954   17.7788 H   0  0  0  0  0  0
  -27.8319  -11.3160   18.8226 H   0  0  0  0  0  0
  -27.3711  -12.6452   17.7933 H   0  0  0  0  0  0
  -27.7000  -14.2617   19.5822 H   0  0  0  0  0  0
  -28.6845  -11.9767   21.3604 H   0  0  0  0  0  0
  -28.4671  -13.6233   21.8749 H   0  0  0  0  0  0
  -25.2763   -9.5673   22.4761 H   0  0  0  0  0  0
  -23.9985   -7.4635   22.7474 H   0  0  0  0  0  0
  -21.0837   -8.8777   19.8951 H   0  0  0  0  0  0
  -22.3701  -10.9671   19.6166 H   0  0  0  0  0  0
  -21.1996   -7.6143   23.9712 H   0  0  0  0  0  0
  -21.1493   -6.0524   25.9075 H   0  0  0  0  0  0
  -22.0589   -2.7610   23.2838 H   0  0  0  0  0  0
  -22.4065  -11.9879   22.4793 H   0  0  0  0  0  0
  -21.1115  -13.1276   22.2597 H   0  0  0  0  0  0
  -24.6600  -15.8453   20.5237 H   0  0  0  0  0  0
  -26.2820  -15.6340   20.0973 H   0  0  0  0  0  0
  -26.7149  -32.5507   23.1163 H   0  0  0  0  0  0
  -25.0073  -33.9774   25.0477 H   0  0  0  0  0  0
  -22.6987  -31.3112   21.4153 H   0  0  0  0  0  0
  -23.3741  -35.9639   23.3307 H   0  0  0  0  0  0
  -24.3571  -36.8918   22.2052 H   0  0  0  0  0  0
  -23.7232  -37.6511   23.6651 H   0  0  0  0  0  0
  -26.0669  -31.5926   20.6079 H   0  0  0  0  0  0
  -26.8260  -30.8648   21.9953 H   0  0  0  0  0  0
  -28.1073  -29.0650   21.1565 H   0  0  0  0  0  0
  -25.9899  -25.9818   18.9778 H   0  0  0  0  0  0
  -23.9673  -27.3261   19.0092 H   0  0  0  0  0  0
  -23.7269  -30.6117   19.4091 H   0  0  0  0  0  0
  -22.7385  -29.2577   19.8636 H   0  0  0  0  0  0
  -25.1280  -36.1965   25.0831 H   0  0  0  0  0  0
  -20.9963  -28.3226   24.1423 H   0  0  0  0  0  0
  -20.5650  -26.2282   23.3598 H   0  0  0  0  0  0
  -21.6628  -26.7435   22.1205 H   0  0  0  0  0  0
  -19.6893  -25.6302   21.1229 H   0  0  0  0  0  0
  -19.6668  -27.3203   20.6739 H   0  0  0  0  0  0
  -17.4186  -26.6678   21.4033 H   0  0  0  0  0  0
  -18.0324  -26.0064   22.9019 H   0  0  0  0  0  0
  -19.7923  -30.7262   24.2289 H   0  0  0  0  0  0
  -17.5001  -31.6264   24.5166 H   0  0  0  0  0  0
  -15.5340  -30.2986   23.7644 H   0  0  0  0  0  0
  -15.8668  -28.0819   22.7061 H   0  0  0  0  0  0
  -24.5898  -30.7093   25.7797 H   0  0  0  0  0  0
  -24.8950  -32.2877   26.4957 H   0  0  0  0  0  0
  -25.8074  -30.8851   27.0228 H   0  0  0  0  0  0
  -26.2893  -29.6800   24.1194 H   0  0  0  0  0  0
  -27.4059  -29.7292   25.4643 H   0  0  0  0  0  0
  -27.8744  -30.4348   23.9350 H   0  0  0  0  0  0
  -27.2697  -33.3621   26.2105 H   0  0  0  0  0  0
  -28.3860  -32.6904   25.0317 H   0  0  0  0  0  0
  -28.0758  -31.8442   26.5395 H   0  0  0  0  0  0
  -28.2601  -38.0102   24.7510 H   0  0  0  0  0  0
  -28.1068  -36.2635   24.6289 H   0  0  0  0  0  0
  -27.2298  -37.1455   25.8873 H   0  0  0  0  0  0
  -20.9322  -29.8786   21.6956 H   0  0  0  0  0  0
  -26.0175  -38.2869   24.1403 H   0  0  0  0  0  0
  -29.6273  -18.8204   17.8780 H   0  0  0  0  0  0
  -30.9042  -20.0345   21.8152 H   0  0  0  0  0  0
  -29.4404  -16.4936   18.6402 H   0  0  0  0  0  0
  -30.7108  -17.6913   22.5896 H   0  0  0  0  0  0
  -30.3835  -24.5680   18.4959 H   0  0  0  0  0  0
  -31.2047  -25.3979   19.8157 H   0  0  0  0  0  0
  -32.0296  -23.2974   20.7050 H   0  0  0  0  0  0
  -32.1649  -23.0432   18.9785 H   0  0  0  0  0  0
  -28.4491  -22.5293   19.5273 H   0  0  0  0  0  0
  -28.7874  -22.3543   21.2408 H   0  0  0  0  0  0
  -29.6545  -24.5422   21.4282 H   0  0  0  0  0  0
  -27.3382  -24.8604   20.5541 H   0  0  0  0  0  0
  -27.9686  -24.9730   18.9183 H   0  0  0  0  0  0
  -29.1530  -15.2674   21.5816 H   0  0  0  0  0  0
  1 25  1  0  0  0
  1 30  2  0  0  0
  1 84  1  0  0  0
  2  3  1  0  0  0
  2 25  1  0  0  0
  2 86  1  0  0  0
  2 87  1  0  0  0
  3  4  1  0  0  0
  3 88  1  0  0  0
  3 89  1  0  0  0
  4  5  1  0  0  0
  4 90  1  0  0  0
  4 91  1  0  0  0
  5  6  1  0  0  0
  5 26  1  0  0  0
  5 92  1  0  0  0
  6 25  1  0  0  0
  6 93  1  0  0  0
  6 94  1  0  0  0
  7  8  2  0  0  0
  7 26  1  0  0  0
  7 29  1  0  0  0
  8  9  1  0  0  0
  8 22  1  0  0  0
  9 10  1  0  0  0
  9 27  2  0  0  0
 10 11  2  0  0  0
 10 15  1  0  0  0
 11 12  1  0  0  0
 11 95  1  0  0  0
 12 13  2  0  0  0
 12 96  1  0  0  0
 13 14  1  0  0  0
 13 31  1  0  0  0
 14 15  2  0  0  0
 14 97  1  0  0  0
 15 98  1  0  0  0
 16 17  2  0  0  0
 16 21  1  0  0  0
 16 31  1  0  0  0
 17 18  1  0  0  0
 17 99  1  0  0  0
 18 19  2  0  0  0
 18100  1  0  0  0
 19 20  1  0  0  0
 19 24  1  0  0  0
 20 21  2  0  0  0
 20101  1  0  0  0
 21 23  1  0  0  0
 22 28  1  0  0  0
 22 32  2  0  0  0
 26 27  1  0  0  0
 28102  1  0  0  0
 28103  1  0  0  0
 29104  1  0  0  0
 29105  1  0  0  0
 33 34  1  0  0  0
 33 66  1  0  0  0
 33 70  2  0  0  0
 34 36  1  0  0  0
 34 59  1  0  0  0
 34106  1  0  0  0
 35 44  2  0  0  0
 35 45  1  0  0  0
 35 68  1  0  0  0
 36 56  1  0  0  0
 36107  1  0  0  0
 37 39  1  0  0  0
 37 47  1  0  0  0
 37 66  1  0  0  0
 37108  1  0  0  0
 38 43  2  0  0  0
 38 46  1  0  0  0
 38 47  1  0  0  0
 39 64  1  0  0  0
 39 67  2  0  0  0
 40 52  1  0  0  0
 40 53  2  0  0  0
 40 58  1  0  0  0
 41109  1  0  0  0
 41110  1  0  0  0
 41111  1  0  0  0
 41 48  1  0  0  0
 42 43  1  0  0  0
 42 66  1  0  0  0
 42112  1  0  0  0
 42113  1  0  0  0
 43 44  1  0  0  0
 44114  1  0  0  0
 45 46  2  0  0  0
 45115  1  0  0  0
 46116  1  0  0  0
 47117  1  0  0  0
 47118  1  0  0  0
 48 56  1  0  0  0
 48 65  1  0  0  0
 48119  1  0  0  0
 49 50  1  0  0  0
 49 53  1  0  0  0
 49 64  1  0  0  0
 49120  1  0  0  0
 50 51  1  0  0  0
 50121  1  0  0  0
 50122  1  0  0  0
 51 52  1  0  0  0
 51123  1  0  0  0
 51124  1  0  0  0
 52125  1  0  0  0
 52126  1  0  0  0
 53 54  1  0  0  0
 54 55  2  0  0  0
 54127  1  0  0  0
 55 57  1  0  0  0
 55128  1  0  0  0
 56 69  2  0  0  0
 57 58  2  0  0  0
 57129  1  0  0  0
 58130  1  0  0  0
 59 60  1  0  0  0
 59 61  1  0  0  0
 59 62  1  0  0  0
 60131  1  0  0  0
 60132  1  0  0  0
 60133  1  0  0  0
 61134  1  0  0  0
 61135  1  0  0  0
 61136  1  0  0  0
 62137  1  0  0  0
 62138  1  0  0  0
 62139  1  0  0  0
 63 65  1  0  0  0
 63140  1  0  0  0
 63141  1  0  0  0
 63142  1  0  0  0
 64143  1  0  0  0
 65144  1  0  0  0
 68 82  1  0  0  0
 71 73  2  0  0  0
 71 75  1  0  0  0
 71145  1  0  0  0
 72 74  1  0  0  0
 72 75  2  0  0  0
 72146  1  0  0  0
 73 76  1  0  0  0
 73147  1  0  0  0
 74 76  2  0  0  0
 74148  1  0  0  0
 75 77  1  0  0  0
 76 84  1  0  0  0
 77 83  1  0  0  0
 77 85  2  0  0  0
 78 79  1  0  0  0
 78 81  1  0  0  0
 78149  1  0  0  0
 78150  1  0  0  0
 79 83  1  0  0  0
 79151  1  0  0  0
 79152  1  0  0  0
 80 81  1  0  0  0
 80 83  1  0  0  0
 80153  1  0  0  0
 80154  1  0  0  0
 81 82  1  0  0  0
 81155  1  0  0  0
 82156  1  0  0  0
 82157  1  0  0  0
 84158  1  0  0  0
M  ISO  4   1 100  68 101  82 101  84 100
M  END
> <chiral flag>
0

> <version>
0

> <s_m_source_file>
/data/baiqing/PycharmProjects/Reinvent-master-3.2/result/LINK_invent/BTK/process_docking_weight1_custom_product_contain_oxygen_bond_distance_aromatic_linkinvent_7_9_3/rearranged_h_0098.sdf

> <i_m_source_file_index>
84

> <r_mmod_Potential_Energy-OPLS-2005>
169.046356201172

> <r_mmod_Stretch_Energy-OPLS-2005>
46.9154281616211

> <r_mmod_Bend_Energy-OPLS-2005>
123.765090942383

> <r_mmod_Torsional_Energy-OPLS-2005>
369.393096923828

> <r_mmod_Improper_Torsional_Energy-OPLS-2005>
8.84942054748535

> <r_mmod_Van_der_Waal_Energy-OPLS-2005>
151.936553955078

> <r_mmod_Electrostatic_Energy-OPLS-2005>
-320.800689697266

> <r_mmod_Solvation_Energy-OPLS-2005>
-229.641067504883

> <b_mmod_Minimization_Converged-OPLS-2005>
0

> <r_mmod_RMS_Derivative-OPLS-2005>
1.67473006248474

$$$$
84
                    3D
 Structure written by MMmdl.
162170  0  0  1  0            999 V2000
  -30.6815  -14.4944   20.4337 C   0  0  0  0  0  0
  -30.4223  -12.2582   19.4756 C   0  0  0  0  0  0
  -29.5074  -12.3559   18.2368 C   0  0  0  0  0  0
  -28.0166  -12.3056   18.6313 C   0  0  0  0  0  0
  -27.6538  -13.1927   19.8536 C   0  0  2  0  0  0
  -28.6927  -13.0508   20.9905 C   0  0  0  0  0  0
  -25.2574  -13.8136   20.5620 C   0  0  0  0  0  0
  -24.1834  -13.0449   20.9160 C   0  0  0  0  0  0
  -24.6368  -11.6895   20.8769 C   0  0  0  0  0  0
  -23.9025  -10.4301   21.0460 C   0  0  0  0  0  0
  -24.3602   -9.4194   21.9211 C   0  0  0  0  0  0
  -23.6286   -8.2226   22.0767 C   0  0  0  0  0  0
  -22.4262   -8.0282   21.3554 C   0  0  0  0  0  0
  -21.9910   -9.0255   20.4646 C   0  0  0  0  0  0
  -22.7229  -10.2136   20.3069 C   0  0  0  0  0  0
  -21.6832   -6.0745   22.5284 C   0  0  0  0  0  0
  -21.4011   -6.5645   23.8220 C   0  0  0  0  0  0
  -21.3657   -5.6796   24.9183 C   0  0  0  0  0  0
  -21.6040   -4.3056   24.7232 C   0  0  0  0  0  0
  -21.8821   -3.8157   23.4350 C   0  0  0  0  0  0
  -21.9179   -4.6980   22.3407 C   0  0  0  0  0  0
  -22.7854  -13.5252   21.1859 C   0  0  0  0  0  0
  -22.1655   -4.2189   21.0980 F   0  0  0  0  0  0
  -21.5632   -3.4517   25.7728 F   0  0  0  0  0  0
  -30.0222  -13.3079   20.4222 N   0  0  0  0  0  0
  -26.2974  -12.9277   20.3249 N   0  0  0  0  0  0
  -25.9283  -11.6455   20.5799 N   0  0  0  0  0  0
  -22.0501  -12.8226   22.0408 N   0  0  0  0  0  0
  -25.4278  -15.1873   20.3978 N   0  0  0  0  0  0
  -31.8754  -14.6035   20.1513 O   0  0  0  0  0  0
  -21.6612   -6.8891   21.4251 O   0  0  0  0  0  0
  -22.3520  -14.5568   20.6728 O   0  0  0  0  0  0
  -24.6131  -31.8739   23.2102 C   0  0  0  0  0  0
  -25.9037  -32.4854   23.8416 C   0  0  1  0  0  0
  -27.2347  -27.4814   20.0867 C   0  0  0  0  0  0
  -25.5924  -33.8651   24.2386 N   0  0  0  0  0  0
  -23.3964  -30.5040   21.5468 C   0  0  2  0  0  0
  -24.8343  -28.9668   20.1150 C   0  0  0  0  0  0
  -22.7381  -29.4735   22.4939 C   0  0  0  0  0  0
  -18.0291  -28.1395   22.8473 C   0  0  0  0  0  0
  -24.1475  -36.7340   23.2646 C   0  0  0  0  0  0
  -25.9183  -30.8559   21.3458 C   0  0  0  0  0  0
  -25.9906  -29.4892   20.7058 C   0  0  0  0  0  0
  -27.1880  -28.7516   20.6914 C   0  0  0  0  0  0
  -26.0534  -26.9479   19.5194 C   0  0  0  0  0  0
  -24.8584  -27.6910   19.5254 C   0  0  0  0  0  0
  -23.5987  -29.8368   20.1597 C   0  0  0  0  0  0
  -25.4091  -36.3159   24.0369 C   0  0  1  0  0  0
  -20.5875  -28.3719   23.1272 C   0  0  2  0  0  0
  -20.6761  -26.9445   22.5395 C   0  0  0  0  0  0
  -19.5749  -26.6407   21.5185 C   0  0  0  0  0  0
  -18.1930  -26.7941   22.1604 C   0  0  0  0  0  0
  -19.1531  -28.8854   23.2885 C   0  0  0  0  0  0
  -18.9466  -30.1439   23.8926 C   0  0  0  0  0  0
  -17.6476  -30.6580   24.0592 C   0  0  0  0  0  0
  -25.9036  -34.9519   23.5186 C   0  0  0  0  0  0
  -16.5369  -29.9104   23.6310 C   0  0  0  0  0  0
  -16.7288  -28.6527   23.0319 C   0  0  0  0  0  0
  -26.4477  -31.6576   25.0700 C   0  0  0  0  0  0
  -25.3774  -31.3594   26.1458 C   0  0  0  0  0  0
  -27.0300  -30.3057   24.5955 C   0  0  0  0  0  0
  -27.6108  -32.4237   25.7436 C   0  0  0  0  0  0
  -27.5584  -37.1831   24.8487 C   0  0  0  0  0  0
  -21.4109  -29.3093   22.3653 N   0  0  0  0  0  0
  -26.4296  -37.3829   23.9429 N   0  0  0  0  0  0
  -24.6621  -31.0936   22.0935 N   0  0  0  0  0  0
  -23.4158  -28.8267   23.2966 O   0  0  0  0  0  0
  -28.4532  -26.8465   20.0765 O   0  0  0  0  0  0
  -26.5578  -34.8973   22.4733 O   0  0  0  0  0  0
  -23.5333  -32.1407   23.7546 O   0  0  0  0  0  0
  -28.7092  -18.3565   20.7317 C   0  0  0  0  0  0
  -28.3378  -19.7017   20.9518 C   0  0  0  0  0  0
  -30.3603  -19.1196   19.1267 C   0  0  0  0  0  0
  -29.7168  -18.0580   19.7916 C   0  0  0  0  0  0
  -29.9673  -20.4533   19.3017 C   0  0  0  0  0  0
  -28.9310  -20.7674   20.2352 C   0  0  0  0  0  0
  -29.5898  -17.1498   16.8316 C   0  0  0  0  0  0
  -29.3717  -16.2458   18.0532 C   0  0  0  0  0  0
  -28.2257  -24.4422   20.3160 C   0  0  0  0  0  0
  -28.6089  -25.6123   19.4001 C   0  0  0  0  0  0
  -28.8544  -23.1584   19.7927 C   0  0  0  0  0  0
  -30.0921  -16.6395   19.3679 C   0  0  2  0  0  0
  -30.6402  -21.3792   18.5035 N   0  0  0  0  0  0
  -29.8697  -15.5696   20.3619 N   0  0  0  0  0  0
  -28.4301  -22.0243   20.5333 O   0  0  0  0  0  0
  -31.4720  -12.3322   19.1869 H   0  0  0  0  0  0
  -30.3138  -11.2842   19.9544 H   0  0  0  0  0  0
  -29.7302  -11.5258   17.5668 H   0  0  0  0  0  0
  -29.7283  -13.2416   17.6550 H   0  0  0  0  0  0
  -27.7880  -11.2632   18.8552 H   0  0  0  0  0  0
  -27.3910  -12.5699   17.7782 H   0  0  0  0  0  0
  -27.6732  -14.2215   19.4977 H   0  0  0  0  0  0
  -28.6632  -12.0504   21.4226 H   0  0  0  0  0  0
  -28.4724  -13.7405   21.8070 H   0  0  0  0  0  0
  -25.2771   -9.5652   22.4751 H   0  0  0  0  0  0
  -24.0002   -7.4615   22.7460 H   0  0  0  0  0  0
  -21.0855   -8.8764   19.8945 H   0  0  0  0  0  0
  -22.3713  -10.9674   19.6158 H   0  0  0  0  0  0
  -21.2018   -7.6156   23.9740 H   0  0  0  0  0  0
  -21.1471   -6.0521   25.9084 H   0  0  0  0  0  0
  -22.0604   -2.7622   23.2826 H   0  0  0  0  0  0
  -22.4110  -11.9859   22.4763 H   0  0  0  0  0  0
  -21.1146  -13.1269   22.2673 H   0  0  0  0  0  0
  -24.6564  -15.8379   20.5005 H   0  0  0  0  0  0
  -26.2646  -15.6273   20.0425 H   0  0  0  0  0  0
  -26.7134  -32.5584   23.1218 H   0  0  0  0  0  0
  -25.0158  -33.9791   25.0589 H   0  0  0  0  0  0
  -22.6855  -31.3220   21.4108 H   0  0  0  0  0  0
  -23.3748  -35.9666   23.3313 H   0  0  0  0  0  0
  -24.3614  -36.8917   22.2069 H   0  0  0  0  0  0
  -23.7190  -37.6550   23.6609 H   0  0  0  0  0  0
  -26.0132  -31.6079   20.5603 H   0  0  0  0  0  0
  -26.8166  -30.9245   21.9480 H   0  0  0  0  0  0
  -28.0853  -29.1629   21.1295 H   0  0  0  0  0  0
  -26.0305  -25.9686   19.0682 H   0  0  0  0  0  0
  -23.9691  -27.2740   19.0742 H   0  0  0  0  0  0
  -23.7105  -30.6168   19.4051 H   0  0  0  0  0  0
  -22.7171  -29.2637   19.8638 H   0  0  0  0  0  0
  -25.1239  -36.2079   25.0860 H   0  0  0  0  0  0
  -21.0008  -28.3324   24.1382 H   0  0  0  0  0  0
  -20.5609  -26.2367   23.3614 H   0  0  0  0  0  0
  -21.6641  -26.7427   22.1237 H   0  0  0  0  0  0
  -19.6905  -25.6304   21.1234 H   0  0  0  0  0  0
  -19.6687  -27.3205   20.6700 H   0  0  0  0  0  0
  -17.4194  -26.6716   21.4006 H   0  0  0  0  0  0
  -18.0324  -26.0057   22.8978 H   0  0  0  0  0  0
  -19.7944  -30.7232   24.2318 H   0  0  0  0  0  0
  -17.5046  -31.6260   24.5202 H   0  0  0  0  0  0
  -15.5365  -30.3045   23.7572 H   0  0  0  0  0  0
  -15.8704  -28.0874   22.6989 H   0  0  0  0  0  0
  -24.6018  -30.6863   25.7768 H   0  0  0  0  0  0
  -24.8880  -32.2698   26.4934 H   0  0  0  0  0  0
  -25.8189  -30.8762   27.0190 H   0  0  0  0  0  0
  -26.2769  -29.6790   24.1156 H   0  0  0  0  0  0
  -27.4305  -29.7307   25.4321 H   0  0  0  0  0  0
  -27.8494  -30.4449   23.8895 H   0  0  0  0  0  0
  -27.2814  -33.3556   26.2036 H   0  0  0  0  0  0
  -28.3893  -32.6735   25.0216 H   0  0  0  0  0  0
  -28.0785  -31.8315   26.5307 H   0  0  0  0  0  0
  -28.2643  -38.0090   24.7534 H   0  0  0  0  0  0
  -28.1039  -36.2648   24.6294 H   0  0  0  0  0  0
  -27.2341  -37.1461   25.8901 H   0  0  0  0  0  0
  -20.9224  -29.8896   21.6974 H   0  0  0  0  0  0
  -26.0220  -38.2932   24.1387 H   0  0  0  0  0  0
  -28.1970  -17.5710   21.2689 H   0  0  0  0  0  0
  -27.5559  -19.9185   21.6663 H   0  0  0  0  0  0
  -31.1365  -18.9016   18.4068 H   0  0  0  0  0  0
  -29.1760  -16.6782   15.9399 H   0  0  0  0  0  0
  -30.6504  -17.3230   16.6450 H   0  0  0  0  0  0
  -29.0942  -18.1138   16.9457 H   0  0  0  0  0  0
  -29.7361  -15.2731   17.7575 H   0  0  0  0  0  0
  -28.2995  -16.1413   18.2239 H   0  0  0  0  0  0
  -27.1447  -24.3405   20.3975 H   0  0  0  0  0  0
  -28.5989  -24.6262   21.3236 H   0  0  0  0  0  0
  -28.0881  -25.5836   18.4410 H   0  0  0  0  0  0
  -29.6677  -25.5395   19.1496 H   0  0  0  0  0  0
  -29.9333  -23.2862   19.8792 H   0  0  0  0  0  0
  -28.5871  -23.0377   18.7419 H   0  0  0  0  0  0
  -31.1598  -16.6920   19.1423 H   0  0  0  0  0  0
  -30.1797  -22.2536   18.2891 H   0  0  0  0  0  0
  -31.2374  -21.0509   17.7536 H   0  0  0  0  0  0
  -28.9167  -15.4194   20.6508 H   0  0  0  0  0  0
  1 25  1  0  0  0
  1 30  2  0  0  0
  1 84  1  0  0  0
  2  3  1  0  0  0
  2 25  1  0  0  0
  2 86  1  0  0  0
  2 87  1  0  0  0
  3  4  1  0  0  0
  3 88  1  0  0  0
  3 89  1  0  0  0
  4  5  1  0  0  0
  4 90  1  0  0  0
  4 91  1  0  0  0
  5  6  1  0  0  0
  5 26  1  0  0  0
  5 92  1  0  0  0
  6 25  1  0  0  0
  6 93  1  0  0  0
  6 94  1  0  0  0
  7  8  2  0  0  0
  7 26  1  0  0  0
  7 29  1  0  0  0
  8  9  1  0  0  0
  8 22  1  0  0  0
  9 10  1  0  0  0
  9 27  2  0  0  0
 10 11  2  0  0  0
 10 15  1  0  0  0
 11 12  1  0  0  0
 11 95  1  0  0  0
 12 13  2  0  0  0
 12 96  1  0  0  0
 13 14  1  0  0  0
 13 31  1  0  0  0
 14 15  2  0  0  0
 14 97  1  0  0  0
 15 98  1  0  0  0
 16 17  2  0  0  0
 16 21  1  0  0  0
 16 31  1  0  0  0
 17 18  1  0  0  0
 17 99  1  0  0  0
 18 19  2  0  0  0
 18100  1  0  0  0
 19 20  1  0  0  0
 19 24  1  0  0  0
 20 21  2  0  0  0
 20101  1  0  0  0
 21 23  1  0  0  0
 22 28  1  0  0  0
 22 32  2  0  0  0
 26 27  1  0  0  0
 28102  1  0  0  0
 28103  1  0  0  0
 29104  1  0  0  0
 29105  1  0  0  0
 33 34  1  0  0  0
 33 66  1  0  0  0
 33 70  2  0  0  0
 34 36  1  0  0  0
 34 59  1  0  0  0
 34106  1  0  0  0
 35 44  2  0  0  0
 35 45  1  0  0  0
 35 68  1  0  0  0
 36 56  1  0  0  0
 36107  1  0  0  0
 37 39  1  0  0  0
 37 47  1  0  0  0
 37 66  1  0  0  0
 37108  1  0  0  0
 38 43  2  0  0  0
 38 46  1  0  0  0
 38 47  1  0  0  0
 39 64  1  0  0  0
 39 67  2  0  0  0
 40 52  1  0  0  0
 40 53  2  0  0  0
 40 58  1  0  0  0
 41109  1  0  0  0
 41110  1  0  0  0
 41111  1  0  0  0
 41 48  1  0  0  0
 42 43  1  0  0  0
 42 66  1  0  0  0
 42112  1  0  0  0
 42113  1  0  0  0
 43 44  1  0  0  0
 44114  1  0  0  0
 45 46  2  0  0  0
 45115  1  0  0  0
 46116  1  0  0  0
 47117  1  0  0  0
 47118  1  0  0  0
 48 56  1  0  0  0
 48 65  1  0  0  0
 48119  1  0  0  0
 49 50  1  0  0  0
 49 53  1  0  0  0
 49 64  1  0  0  0
 49120  1  0  0  0
 50 51  1  0  0  0
 50121  1  0  0  0
 50122  1  0  0  0
 51 52  1  0  0  0
 51123  1  0  0  0
 51124  1  0  0  0
 52125  1  0  0  0
 52126  1  0  0  0
 53 54  1  0  0  0
 54 55  2  0  0  0
 54127  1  0  0  0
 55 57  1  0  0  0
 55128  1  0  0  0
 56 69  2  0  0  0
 57 58  2  0  0  0
 57129  1  0  0  0
 58130  1  0  0  0
 59 60  1  0  0  0
 59 61  1  0  0  0
 59 62  1  0  0  0
 60131  1  0  0  0
 60132  1  0  0  0
 60133  1  0  0  0
 61134  1  0  0  0
 61135  1  0  0  0
 61136  1  0  0  0
 62137  1  0  0  0
 62138  1  0  0  0
 62139  1  0  0  0
 63 65  1  0  0  0
 63140  1  0  0  0
 63141  1  0  0  0
 63142  1  0  0  0
 64143  1  0  0  0
 65144  1  0  0  0
 68 80  1  0  0  0
 71 72  2  0  0  0
 71 74  1  0  0  0
 71145  1  0  0  0
 72 76  1  0  0  0
 72146  1  0  0  0
 73 74  2  0  0  0
 73 75  1  0  0  0
 73147  1  0  0  0
 74 82  1  0  0  0
 75 76  2  0  0  0
 75 83  1  0  0  0
 76 85  1  0  0  0
 77 78  1  0  0  0
 77148  1  0  0  0
 77149  1  0  0  0
 77150  1  0  0  0
 78151  1  0  0  0
 78152  1  0  0  0
 78 82  1  0  0  0
 79 80  1  0  0  0
 79 81  1  0  0  0
 79153  1  0  0  0
 79154  1  0  0  0
 80155  1  0  0  0
 80156  1  0  0  0
 81 85  1  0  0  0
 81157  1  0  0  0
 81158  1  0  0  0
 82 84  1  0  0  0
 82159  1  0  0  0
 83160  1  0  0  0
 83161  1  0  0  0
 84162  1  0  0  0
M  ISO  4   1 100  68 101  80 101  84 100
M  END
> <chiral flag>
0

> <version>
0

> <s_m_source_file>
/data/baiqing/PycharmProjects/Reinvent-master-3.2/result/LINK_invent/BTK/process_docking_weight1_custom_product_contain_oxygen_bond_distance_aromatic_linkinvent_7_9_3/rearranged_h_0098.sdf

> <i_m_source_file_index>
85

> <r_mmod_Potential_Energy-OPLS-2005>
-79.6124114990234

> <r_mmod_Stretch_Energy-OPLS-2005>
34.8157234191895

> <r_mmod_Bend_Energy-OPLS-2005>
127.189231872559

> <r_mmod_Torsional_Energy-OPLS-2005>
221.766571044922

> <r_mmod_Improper_Torsional_Energy-OPLS-2005>
16.5668334960938

> <r_mmod_Van_der_Waal_Energy-OPLS-2005>
173.100189208984

> <r_mmod_Electrostatic_Energy-OPLS-2005>
-459.211730957031

> <r_mmod_Solvation_Energy-OPLS-2005>
-219.214218139648

> <b_mmod_Minimization_Converged-OPLS-2005>
0

> <r_mmod_RMS_Derivative-OPLS-2005>
3.61896085739136

$$$$
85
                    3D
 Structure written by MMmdl.
160169  0  0  1  0            999 V2000
  -30.5987  -14.7341   20.4674 C   0  0  0  0  0  0
  -30.4368  -12.4530   19.4529 C   0  0  0  0  0  0
  -29.5059  -12.5082   18.2224 C   0  0  0  0  0  0
  -28.0327  -12.3311   18.6416 C   0  0  0  0  0  0
  -27.6408  -13.2260   19.8469 C   0  0  2  0  0  0
  -28.6897  -13.1509   20.9763 C   0  0  0  0  0  0
  -25.2516  -13.8180   20.5686 C   0  0  0  0  0  0
  -24.1806  -13.0428   20.9202 C   0  0  0  0  0  0
  -24.6393  -11.6905   20.8751 C   0  0  0  0  0  0
  -23.9072  -10.4286   21.0414 C   0  0  0  0  0  0
  -24.3622   -9.4203   21.9199 C   0  0  0  0  0  0
  -23.6297   -8.2242   22.0768 C   0  0  0  0  0  0
  -22.4281   -8.0283   21.3549 C   0  0  0  0  0  0
  -21.9919   -9.0255   20.4653 C   0  0  0  0  0  0
  -22.7249  -10.2133   20.3065 C   0  0  0  0  0  0
  -21.6856   -6.0740   22.5283 C   0  0  0  0  0  0
  -21.4013   -6.5642   23.8214 C   0  0  0  0  0  0
  -21.3656   -5.6795   24.9175 C   0  0  0  0  0  0
  -21.6044   -4.3057   24.7225 C   0  0  0  0  0  0
  -21.8817   -3.8151   23.4348 C   0  0  0  0  0  0
  -21.9194   -4.6968   22.3403 C   0  0  0  0  0  0
  -22.7822  -13.5213   21.1862 C   0  0  0  0  0  0
  -22.1659   -4.2153   21.0984 F   0  0  0  0  0  0
  -21.5636   -3.4540   25.7743 F   0  0  0  0  0  0
  -29.9851  -13.5069   20.3847 N   0  0  0  0  0  0
  -26.2940  -12.9376   20.3272 N   0  0  0  0  0  0
  -25.9326  -11.6523   20.5751 N   0  0  0  0  0  0
  -22.0476  -12.8198   22.0416 N   0  0  0  0  0  0
  -25.4179  -15.1906   20.4086 N   0  0  0  0  0  0
  -31.8014  -14.8443   20.2120 O   0  0  0  0  0  0
  -21.6641   -6.8882   21.4248 O   0  0  0  0  0  0
  -22.3507  -14.5518   20.6721 O   0  0  0  0  0  0
  -24.6302  -31.8563   23.1981 C   0  0  0  0  0  0
  -25.9140  -32.4750   23.8325 C   0  0  1  0  0  0
  -27.2262  -27.2830   20.1388 C   0  0  0  0  0  0
  -25.5945  -33.8558   24.2259 N   0  0  0  0  0  0
  -23.4245  -30.4765   21.5413 C   0  0  2  0  0  0
  -24.8722  -28.9148   20.1196 C   0  0  0  0  0  0
  -22.7481  -29.4624   22.4945 C   0  0  0  0  0  0
  -18.0287  -28.1387   22.8487 C   0  0  0  0  0  0
  -24.1488  -36.7270   23.2643 C   0  0  0  0  0  0
  -25.9660  -30.7799   21.3679 C   0  0  0  0  0  0
  -26.0434  -29.4000   20.7168 C   0  0  0  0  0  0
  -27.2275  -28.5994   20.7058 C   0  0  0  0  0  0
  -26.0324  -26.8450   19.5326 C   0  0  0  0  0  0
  -24.8696  -27.6440   19.5179 C   0  0  0  0  0  0
  -23.6404  -29.7994   20.1617 C   0  0  0  0  0  0
  -25.4111  -36.3063   24.0333 C   0  0  1  0  0  0
  -20.5882  -28.3705   23.1273 C   0  0  2  0  0  0
  -20.6775  -26.9430   22.5403 C   0  0  0  0  0  0
  -19.5750  -26.6391   21.5205 C   0  0  0  0  0  0
  -18.1924  -26.7936   22.1612 C   0  0  0  0  0  0
  -19.1538  -28.8864   23.2868 C   0  0  0  0  0  0
  -18.9467  -30.1464   23.8895 C   0  0  0  0  0  0
  -17.6465  -30.6596   24.0561 C   0  0  0  0  0  0
  -25.9052  -34.9441   23.5089 C   0  0  0  0  0  0
  -16.5353  -29.9094   23.6335 C   0  0  0  0  0  0
  -16.7275  -28.6502   23.0370 C   0  0  0  0  0  0
  -26.4522  -31.6578   25.0715 C   0  0  0  0  0  0
  -25.3751  -31.3703   26.1438 C   0  0  0  0  0  0
  -27.0383  -30.3007   24.6183 C   0  0  0  0  0  0
  -27.6079  -32.4319   25.7479 C   0  0  0  0  0  0
  -27.5566  -37.1779   24.8465 C   0  0  0  0  0  0
  -21.4194  -29.3051   22.3671 N   0  0  0  0  0  0
  -26.4279  -37.3766   23.9419 N   0  0  0  0  0  0
  -24.6928  -31.0550   22.0929 N   0  0  0  0  0  0
  -23.4188  -28.8190   23.3056 O   0  0  0  0  0  0
  -28.3477  -26.4380   20.1074 O   0  0  0  0  0  0
  -26.5612  -34.8914   22.4647 O   0  0  0  0  0  0
  -23.5464  -32.1390   23.7298 O   0  0  0  0  0  0
  -30.3070  -19.9555   21.9235 C   0  0  0  0  0  0
  -30.8301  -18.8539   22.6287 C   0  0  0  0  0  0
  -29.4886  -18.4187   20.2378 C   0  0  0  0  0  0
  -29.6342  -19.8056   20.6890 C   0  0  0  0  0  0
  -30.7133  -17.5317   22.1518 C   0  0  0  0  0  0
  -30.0342  -17.2598   20.9365 C   0  0  0  0  0  0
  -29.3006  -21.1421   18.6212 C   0  0  0  0  0  0
  -29.0731  -22.4789   17.8792 C   0  0  0  0  0  0
  -29.2662  -23.7593   18.7103 C   0  0  0  0  0  0
  -28.8983  -22.3631   20.7443 C   0  0  0  0  0  0
  -28.3996  -23.6851   19.9584 C   0  0  1  0  0  0
  -28.3098  -25.0919   20.7581 C   0  0  0  0  0  0
  -29.1940  -21.0600   19.9813 N   0  0  0  0  0  0
  -31.2426  -16.5085   22.9391 N   0  0  0  0  0  0
  -29.7784  -15.8482   20.5542 N   0  0  0  0  0  0
  -29.5614  -20.1706   17.9045 O   0  0  0  0  0  0
  -31.4743  -12.5919   19.1446 H   0  0  0  0  0  0
  -30.3909  -11.4743   19.9322 H   0  0  0  0  0  0
  -29.7846  -11.7402   17.4999 H   0  0  0  0  0  0
  -29.6299  -13.4644   17.7113 H   0  0  0  0  0  0
  -27.8852  -11.2815   18.8978 H   0  0  0  0  0  0
  -27.3745  -12.5307   17.7952 H   0  0  0  0  0  0
  -27.6329  -14.2472   19.4676 H   0  0  0  0  0  0
  -28.7273  -12.1513   21.4117 H   0  0  0  0  0  0
  -28.4304  -13.8311   21.7908 H   0  0  0  0  0  0
  -25.2769   -9.5672   22.4770 H   0  0  0  0  0  0
  -24.0007   -7.4628   22.7479 H   0  0  0  0  0  0
  -21.0861   -8.8766   19.8947 H   0  0  0  0  0  0
  -22.3717  -10.9671   19.6168 H   0  0  0  0  0  0
  -21.2001   -7.6149   23.9716 H   0  0  0  0  0  0
  -21.1484   -6.0529   25.9077 H   0  0  0  0  0  0
  -22.0600   -2.7613   23.2853 H   0  0  0  0  0  0
  -22.4095  -11.9854   22.4785 H   0  0  0  0  0  0
  -21.1099  -13.1227   22.2628 H   0  0  0  0  0  0
  -24.6436  -15.8378   20.5147 H   0  0  0  0  0  0
  -26.2564  -15.6369   20.0628 H   0  0  0  0  0  0
  -26.7210  -32.5415   23.1069 H   0  0  0  0  0  0
  -25.0116  -33.9692   25.0424 H   0  0  0  0  0  0
  -22.7208  -31.2982   21.3908 H   0  0  0  0  0  0
  -23.3758  -35.9587   23.3296 H   0  0  0  0  0  0
  -24.3576  -36.8912   22.2058 H   0  0  0  0  0  0
  -23.7231  -37.6461   23.6681 H   0  0  0  0  0  0
  -26.0936  -31.5410   20.5972 H   0  0  0  0  0  0
  -26.8474  -30.8365   21.9952 H   0  0  0  0  0  0
  -28.1337  -28.9763   21.1589 H   0  0  0  0  0  0
  -25.9977  -25.8672   19.0725 H   0  0  0  0  0  0
  -23.9696  -27.2620   19.0551 H   0  0  0  0  0  0
  -23.7604  -30.5707   19.4001 H   0  0  0  0  0  0
  -22.7598  -29.2280   19.8626 H   0  0  0  0  0  0
  -25.1287  -36.1892   25.0823 H   0  0  0  0  0  0
  -20.9961  -28.3290   24.1398 H   0  0  0  0  0  0
  -20.5678  -26.2322   23.3608 H   0  0  0  0  0  0
  -21.6639  -26.7458   22.1194 H   0  0  0  0  0  0
  -19.6918  -25.6299   21.1248 H   0  0  0  0  0  0
  -19.6688  -27.3191   20.6724 H   0  0  0  0  0  0
  -17.4192  -26.6702   21.4015 H   0  0  0  0  0  0
  -18.0322  -26.0071   22.9000 H   0  0  0  0  0  0
  -19.7939  -30.7275   24.2276 H   0  0  0  0  0  0
  -17.5018  -31.6279   24.5153 H   0  0  0  0  0  0
  -15.5355  -30.2990   23.7669 H   0  0  0  0  0  0
  -15.8671  -28.0811   22.7114 H   0  0  0  0  0  0
  -24.5934  -30.7051   25.7749 H   0  0  0  0  0  0
  -24.8941  -32.2867   26.4868 H   0  0  0  0  0  0
  -25.8083  -30.8870   27.0205 H   0  0  0  0  0  0
  -26.2971  -29.6721   24.1240 H   0  0  0  0  0  0
  -27.4127  -29.7295   25.4684 H   0  0  0  0  0  0
  -27.8810  -30.4302   23.9389 H   0  0  0  0  0  0
  -27.2710  -33.3643   26.2013 H   0  0  0  0  0  0
  -28.3908  -32.6837   25.0313 H   0  0  0  0  0  0
  -28.0726  -31.8472   26.5426 H   0  0  0  0  0  0
  -28.2564  -38.0094   24.7522 H   0  0  0  0  0  0
  -28.1088  -36.2623   24.6278 H   0  0  0  0  0  0
  -27.2286  -37.1401   25.8869 H   0  0  0  0  0  0
  -20.9401  -29.8745   21.6840 H   0  0  0  0  0  0
  -26.0157  -38.2833   24.1440 H   0  0  0  0  0  0
  -30.4672  -20.9317   22.3545 H   0  0  0  0  0  0
  -31.3344  -19.0436   23.5664 H   0  0  0  0  0  0
  -28.9414  -18.2300   19.3262 H   0  0  0  0  0  0
  -28.0631  -22.4597   17.4694 H   0  0  0  0  0  0
  -29.7458  -22.5136   17.0215 H   0  0  0  0  0  0
  -28.9907  -24.6303   18.1142 H   0  0  0  0  0  0
  -30.3154  -23.8866   18.9810 H   0  0  0  0  0  0
  -28.1815  -22.1321   21.5324 H   0  0  0  0  0  0
  -29.8198  -22.6499   21.2500 H   0  0  0  0  0  0
  -27.3821  -23.4871   19.6140 H   0  0  0  0  0  0
  -29.1572  -25.1096   21.4435 H   0  0  0  0  0  0
  -27.4397  -25.0502   21.4154 H   0  0  0  0  0  0
  -31.8807  -16.7892   23.6765 H   0  0  0  0  0  0
  -31.5987  -15.7037   22.4357 H   0  0  0  0  0  0
  -28.8024  -15.6217   20.4644 H   0  0  0  0  0  0
  1 25  1  0  0  0
  1 30  2  0  0  0
  1 85  1  0  0  0
  2  3  1  0  0  0
  2 25  1  0  0  0
  2 87  1  0  0  0
  2 88  1  0  0  0
  3  4  1  0  0  0
  3 89  1  0  0  0
  3 90  1  0  0  0
  4  5  1  0  0  0
  4 91  1  0  0  0
  4 92  1  0  0  0
  5  6  1  0  0  0
  5 26  1  0  0  0
  5 93  1  0  0  0
  6 25  1  0  0  0
  6 94  1  0  0  0
  6 95  1  0  0  0
  7  8  2  0  0  0
  7 26  1  0  0  0
  7 29  1  0  0  0
  8  9  1  0  0  0
  8 22  1  0  0  0
  9 10  1  0  0  0
  9 27  2  0  0  0
 10 11  2  0  0  0
 10 15  1  0  0  0
 11 12  1  0  0  0
 11 96  1  0  0  0
 12 13  2  0  0  0
 12 97  1  0  0  0
 13 14  1  0  0  0
 13 31  1  0  0  0
 14 15  2  0  0  0
 14 98  1  0  0  0
 15 99  1  0  0  0
 16 17  2  0  0  0
 16 21  1  0  0  0
 16 31  1  0  0  0
 17 18  1  0  0  0
 17100  1  0  0  0
 18 19  2  0  0  0
 18101  1  0  0  0
 19 20  1  0  0  0
 19 24  1  0  0  0
 20 21  2  0  0  0
 20102  1  0  0  0
 21 23  1  0  0  0
 22 28  1  0  0  0
 22 32  2  0  0  0
 26 27  1  0  0  0
 28103  1  0  0  0
 28104  1  0  0  0
 29105  1  0  0  0
 29106  1  0  0  0
 33 34  1  0  0  0
 33 66  1  0  0  0
 33 70  2  0  0  0
 34 36  1  0  0  0
 34 59  1  0  0  0
 34107  1  0  0  0
 35 44  2  0  0  0
 35 45  1  0  0  0
 35 68  1  0  0  0
 36 56  1  0  0  0
 36108  1  0  0  0
 37 39  1  0  0  0
 37 47  1  0  0  0
 37 66  1  0  0  0
 37109  1  0  0  0
 38 43  2  0  0  0
 38 46  1  0  0  0
 38 47  1  0  0  0
 39 64  1  0  0  0
 39 67  2  0  0  0
 40 52  1  0  0  0
 40 53  2  0  0  0
 40 58  1  0  0  0
 41110  1  0  0  0
 41111  1  0  0  0
 41112  1  0  0  0
 41 48  1  0  0  0
 42 43  1  0  0  0
 42 66  1  0  0  0
 42113  1  0  0  0
 42114  1  0  0  0
 43 44  1  0  0  0
 44115  1  0  0  0
 45 46  2  0  0  0
 45116  1  0  0  0
 46117  1  0  0  0
 47118  1  0  0  0
 47119  1  0  0  0
 48 56  1  0  0  0
 48 65  1  0  0  0
 48120  1  0  0  0
 49 50  1  0  0  0
 49 53  1  0  0  0
 49 64  1  0  0  0
 49121  1  0  0  0
 50 51  1  0  0  0
 50122  1  0  0  0
 50123  1  0  0  0
 51 52  1  0  0  0
 51124  1  0  0  0
 51125  1  0  0  0
 52126  1  0  0  0
 52127  1  0  0  0
 53 54  1  0  0  0
 54 55  2  0  0  0
 54128  1  0  0  0
 55 57  1  0  0  0
 55129  1  0  0  0
 56 69  2  0  0  0
 57 58  2  0  0  0
 57130  1  0  0  0
 58131  1  0  0  0
 59 60  1  0  0  0
 59 61  1  0  0  0
 59 62  1  0  0  0
 60132  1  0  0  0
 60133  1  0  0  0
 60134  1  0  0  0
 61135  1  0  0  0
 61136  1  0  0  0
 61137  1  0  0  0
 62138  1  0  0  0
 62139  1  0  0  0
 62140  1  0  0  0
 63 65  1  0  0  0
 63141  1  0  0  0
 63142  1  0  0  0
 63143  1  0  0  0
 64144  1  0  0  0
 65145  1  0  0  0
 68 82  1  0  0  0
 71 72  2  0  0  0
 71 74  1  0  0  0
 71146  1  0  0  0
 72 75  1  0  0  0
 72147  1  0  0  0
 73 74  2  0  0  0
 73 76  1  0  0  0
 73148  1  0  0  0
 74 83  1  0  0  0
 75 76  2  0  0  0
 75 84  1  0  0  0
 76 85  1  0  0  0
 77 78  1  0  0  0
 77 83  1  0  0  0
 77 86  2  0  0  0
 78 79  1  0  0  0
 78149  1  0  0  0
 78150  1  0  0  0
 79 81  1  0  0  0
 79151  1  0  0  0
 79152  1  0  0  0
 80 81  1  0  0  0
 80 83  1  0  0  0
 80153  1  0  0  0
 80154  1  0  0  0
 81 82  1  0  0  0
 81155  1  0  0  0
 82156  1  0  0  0
 82157  1  0  0  0
 84158  1  0  0  0
 84159  1  0  0  0
 85160  1  0  0  0
M  ISO  4   1 100  68 101  82 101  85 100
M  END
> <chiral flag>
0

> <version>
0

> <s_m_source_file>
/data/baiqing/PycharmProjects/Reinvent-master-3.2/result/LINK_invent/BTK/process_docking_weight1_custom_product_contain_oxygen_bond_distance_aromatic_linkinvent_7_9_3/rearranged_h_0098.sdf

> <i_m_source_file_index>
86

> <r_mmod_Potential_Energy-OPLS-2005>
167.348815917969

> <r_mmod_Stretch_Energy-OPLS-2005>
129.180999755859

> <r_mmod_Bend_Energy-OPLS-2005>
172.152465820312

> <r_mmod_Torsional_Energy-OPLS-2005>
314.039337158203

> <r_mmod_Improper_Torsional_Energy-OPLS-2005>
12.6702527999878

> <r_mmod_Van_der_Waal_Energy-OPLS-2005>
151.546005249023

> <r_mmod_Electrostatic_Energy-OPLS-2005>
-461.6748046875

> <r_mmod_Solvation_Energy-OPLS-2005>
-225.822601318359

> <b_mmod_Minimization_Converged-OPLS-2005>
0

> <r_mmod_RMS_Derivative-OPLS-2005>
1.69546866416931

$$$$
86
                    3D
 Structure written by MMmdl.
162171  0  0  1  0            999 V2000
  -30.6691  -14.7415   20.4696 C   0  0  0  0  0  0
  -30.4195  -12.4587   19.4846 C   0  0  0  0  0  0
  -29.5061  -12.5123   18.2448 C   0  0  0  0  0  0
  -28.0337  -12.3479   18.6474 C   0  0  0  0  0  0
  -27.6385  -13.2475   19.8532 C   0  0  2  0  0  0
  -28.6867  -13.2097   20.9907 C   0  0  0  0  0  0
  -25.2495  -13.8284   20.5726 C   0  0  0  0  0  0
  -24.1796  -13.0504   20.9244 C   0  0  0  0  0  0
  -24.6394  -11.7004   20.8736 C   0  0  0  0  0  0
  -23.9060  -10.4363   21.0355 C   0  0  0  0  0  0
  -24.3654   -9.4289   21.9122 C   0  0  0  0  0  0
  -23.6372   -8.2297   22.0723 C   0  0  0  0  0  0
  -22.4331   -8.0295   21.3547 C   0  0  0  0  0  0
  -21.9931   -9.0241   20.4608 C   0  0  0  0  0  0
  -22.7233  -10.2155   20.3010 C   0  0  0  0  0  0
  -21.6913   -6.0723   22.5269 C   0  0  0  0  0  0
  -21.4010   -6.5614   23.8195 C   0  0  0  0  0  0
  -21.3663   -5.6772   24.9151 C   0  0  0  0  0  0
  -21.6113   -4.3044   24.7223 C   0  0  0  0  0  0
  -21.8837   -3.8123   23.4335 C   0  0  0  0  0  0
  -21.9235   -4.6947   22.3384 C   0  0  0  0  0  0
  -22.7821  -13.5242   21.1954 C   0  0  0  0  0  0
  -22.1702   -4.2140   21.0963 F   0  0  0  0  0  0
  -21.5641   -3.4505   25.7711 F   0  0  0  0  0  0
  -29.9888  -13.5445   20.4008 N   0  0  0  0  0  0
  -26.2935  -12.9512   20.3334 N   0  0  0  0  0  0
  -25.9350  -11.6650   20.5818 N   0  0  0  0  0  0
  -22.0542  -12.8090   22.0470 N   0  0  0  0  0  0
  -25.4224  -15.2015   20.4070 N   0  0  0  0  0  0
  -31.8497  -14.7664   20.1196 O   0  0  0  0  0  0
  -21.6743   -6.8865   21.4239 O   0  0  0  0  0  0
  -22.3419  -14.5519   20.6802 O   0  0  0  0  0  0
  -24.6290  -31.8505   23.2024 C   0  0  0  0  0  0
  -25.9110  -32.4725   23.8332 C   0  0  1  0  0  0
  -27.2615  -27.2698   20.1278 C   0  0  0  0  0  0
  -25.5928  -33.8542   24.2212 N   0  0  0  0  0  0
  -23.4299  -30.4704   21.5393 C   0  0  2  0  0  0
  -24.8926  -28.9123   20.1012 C   0  0  0  0  0  0
  -22.7456  -29.4584   22.4894 C   0  0  0  0  0  0
  -18.0298  -28.1350   22.8566 C   0  0  0  0  0  0
  -24.1509  -36.7281   23.2663 C   0  0  0  0  0  0
  -25.9735  -30.7581   21.3917 C   0  0  0  0  0  0
  -26.0530  -29.3852   20.7265 C   0  0  0  0  0  0
  -27.2251  -28.5709   20.7427 C   0  0  0  0  0  0
  -26.0863  -26.8700   19.4486 C   0  0  0  0  0  0
  -24.9159  -27.6661   19.4520 C   0  0  0  0  0  0
  -23.6549  -29.7970   20.1547 C   0  0  0  0  0  0
  -25.4134  -36.3048   24.0304 C   0  0  1  0  0  0
  -20.5891  -28.3690   23.1288 C   0  0  2  0  0  0
  -20.6793  -26.9398   22.5418 C   0  0  0  0  0  0
  -19.5761  -26.6344   21.5245 C   0  0  0  0  0  0
  -18.1934  -26.7911   22.1661 C   0  0  0  0  0  0
  -19.1554  -28.8841   23.2937 C   0  0  0  0  0  0
  -18.9454  -30.1444   23.8922 C   0  0  0  0  0  0
  -17.6457  -30.6581   24.0580 C   0  0  0  0  0  0
  -25.9079  -34.9412   23.5071 C   0  0  0  0  0  0
  -16.5358  -29.9051   23.6367 C   0  0  0  0  0  0
  -16.7295  -28.6465   23.0424 C   0  0  0  0  0  0
  -26.4468  -31.6646   25.0757 C   0  0  0  0  0  0
  -25.3683  -31.3750   26.1460 C   0  0  0  0  0  0
  -27.0404  -30.3084   24.6346 C   0  0  0  0  0  0
  -27.6019  -32.4451   25.7478 C   0  0  0  0  0  0
  -27.5573  -37.1803   24.8444 C   0  0  0  0  0  0
  -21.4173  -29.3048   22.3638 N   0  0  0  0  0  0
  -26.4296  -37.3742   23.9387 N   0  0  0  0  0  0
  -24.6945  -31.0431   22.1035 N   0  0  0  0  0  0
  -23.4123  -28.8108   23.3004 O   0  0  0  0  0  0
  -28.3979  -26.4330   20.2440 O   0  0  0  0  0  0
  -26.5662  -34.8894   22.4636 O   0  0  0  0  0  0
  -23.5455  -32.1355   23.7306 O   0  0  0  0  0  0
  -31.3932  -20.0873   20.8586 C   0  0  0  0  0  0
  -29.5332  -18.5098   20.7361 C   0  0  0  0  0  0
  -31.8047  -17.6685   20.8170 C   0  0  0  0  0  0
  -29.9933  -19.8920   20.8126 C   0  0  0  0  0  0
  -32.2862  -18.9918   20.8740 C   0  0  0  0  0  0
  -30.4199  -17.3552   20.7300 C   0  0  0  0  0  0
  -27.0717  -22.2723   18.7553 C   0  0  0  0  0  0
  -26.8403  -23.1542   20.0064 C   0  0  0  0  0  0
  -28.5785  -21.9435   18.7399 C   0  0  0  0  0  0
  -28.2535  -23.6275   20.4160 C   0  0  2  0  0  0
  -29.0770  -21.1802   21.0359 C   0  0  0  0  0  0
  -28.6005  -25.0521   19.6768 C   0  0  0  0  0  0
  -33.6610  -19.2229   20.9875 N   0  0  0  0  0  0
  -29.9653  -15.9272   20.6997 N   0  0  0  0  0  0
  -29.0955  -22.3757   20.0595 N   0  3  1  0  0  0
  -31.4574  -12.5785   19.1756 H   0  0  0  0  0  0
  -30.3541  -11.4858   19.9788 H   0  0  0  0  0  0
  -29.7871  -11.7421   17.5298 H   0  0  0  0  0  0
  -29.6495  -13.4707   17.7422 H   0  0  0  0  0  0
  -27.8811  -11.2985   18.9040 H   0  0  0  0  0  0
  -27.3796  -12.5616   17.7982 H   0  0  0  0  0  0
  -27.6230  -14.2675   19.4745 H   0  0  0  0  0  0
  -28.7257  -12.2270   21.4590 H   0  0  0  0  0  0
  -28.4213  -13.9149   21.7802 H   0  0  0  0  0  0
  -25.2808   -9.5831   22.4672 H   0  0  0  0  0  0
  -24.0176   -7.4686   22.7389 H   0  0  0  0  0  0
  -21.0890   -8.8672   19.8855 H   0  0  0  0  0  0
  -22.3635  -10.9675   19.6095 H   0  0  0  0  0  0
  -21.1944   -7.6122   23.9675 H   0  0  0  0  0  0
  -21.1505   -6.0493   25.9055 H   0  0  0  0  0  0
  -22.0619   -2.7590   23.2830 H   0  0  0  0  0  0
  -22.4285  -11.9721   22.4743 H   0  0  0  0  0  0
  -21.1117  -13.0939   22.2743 H   0  0  0  0  0  0
  -24.6601  -15.8638   20.5056 H   0  0  0  0  0  0
  -26.2684  -15.6321   20.0502 H   0  0  0  0  0  0
  -26.7193  -32.5315   23.1082 H   0  0  0  0  0  0
  -25.0104  -33.9722   25.0387 H   0  0  0  0  0  0
  -22.7365  -31.3000   21.3880 H   0  0  0  0  0  0
  -23.3778  -35.9622   23.3288 H   0  0  0  0  0  0
  -24.3658  -36.8922   22.2099 H   0  0  0  0  0  0
  -23.7239  -37.6447   23.6747 H   0  0  0  0  0  0
  -26.1300  -31.5276   20.6341 H   0  0  0  0  0  0
  -26.8430  -30.7954   22.0345 H   0  0  0  0  0  0
  -28.1030  -28.9217   21.2743 H   0  0  0  0  0  0
  -26.0504  -25.9275   18.9233 H   0  0  0  0  0  0
  -24.0304  -27.3094   18.9409 H   0  0  0  0  0  0
  -23.7600  -30.5753   19.3952 H   0  0  0  0  0  0
  -22.7740  -29.2205   19.8612 H   0  0  0  0  0  0
  -25.1335  -36.1903   25.0795 H   0  0  0  0  0  0
  -21.0084  -28.3286   24.1370 H   0  0  0  0  0  0
  -20.5748  -26.2281   23.3628 H   0  0  0  0  0  0
  -21.6642  -26.7434   22.1154 H   0  0  0  0  0  0
  -19.6909  -25.6252   21.1277 H   0  0  0  0  0  0
  -19.6668  -27.3177   20.6805 H   0  0  0  0  0  0
  -17.4211  -26.6796   21.4011 H   0  0  0  0  0  0
  -18.0281  -25.9953   22.8962 H   0  0  0  0  0  0
  -19.7912  -30.7302   24.2246 H   0  0  0  0  0  0
  -17.4988  -31.6274   24.5154 H   0  0  0  0  0  0
  -15.5367  -30.2968   23.7613 H   0  0  0  0  0  0
  -15.8696  -28.0742   22.7155 H   0  0  0  0  0  0
  -24.5797  -30.7201   25.7707 H   0  0  0  0  0  0
  -24.8962  -32.2920   26.5032 H   0  0  0  0  0  0
  -25.7945  -30.8737   27.0160 H   0  0  0  0  0  0
  -26.3069  -29.6731   24.1372 H   0  0  0  0  0  0
  -27.4079  -29.7416   25.4916 H   0  0  0  0  0  0
  -27.8899  -30.4337   23.9617 H   0  0  0  0  0  0
  -27.2607  -33.3724   26.2070 H   0  0  0  0  0  0
  -28.3754  -32.7079   25.0259 H   0  0  0  0  0  0
  -28.0807  -31.8615   26.5342 H   0  0  0  0  0  0
  -28.2554  -38.0143   24.7563 H   0  0  0  0  0  0
  -28.1077  -36.2666   24.6182 H   0  0  0  0  0  0
  -27.2302  -37.1332   25.8845 H   0  0  0  0  0  0
  -20.9363  -29.8686   21.6746 H   0  0  0  0  0  0
  -26.0131  -38.2780   24.1459 H   0  0  0  0  0  0
  -31.7764  -21.0934   20.9526 H   0  0  0  0  0  0
  -28.4665  -18.3389   20.7288 H   0  0  0  0  0  0
  -32.5398  -16.8804   20.8593 H   0  0  0  0  0  0
  -26.7792  -22.7798   17.8366 H   0  0  0  0  0  0
  -26.4681  -21.3636   18.8128 H   0  0  0  0  0  0
  -26.3954  -22.5465   20.7974 H   0  0  0  0  0  0
  -26.1212  -23.9521   19.8354 H   0  0  0  0  0  0
  -29.0877  -22.5195   17.9642 H   0  0  0  0  0  0
  -28.7769  -20.8946   18.4965 H   0  0  0  0  0  0
  -28.3176  -23.8097   21.4899 H   0  0  0  0  0  0
  -29.3542  -21.5696   22.0191 H   0  0  0  0  0  0
  -28.0526  -20.8367   21.1657 H   0  0  0  0  0  0
  -28.2363  -25.0372   18.6487 H   0  0  0  0  0  0
  -29.6850  -25.0244   19.5478 H   0  0  0  0  0  0
  -33.9873  -20.1615   21.1842 H   0  0  0  0  0  0
  -34.2384  -18.5207   21.4448 H   0  0  0  0  0  0
  -28.9716  -15.7953   20.8368 H   0  0  0  0  0  0
  -30.0704  -22.6320   19.9693 H   0  0  0  0  0  0
  1 25  1  0  0  0
  1 30  2  0  0  0
  1 84  1  0  0  0
  2  3  1  0  0  0
  2 25  1  0  0  0
  2 86  1  0  0  0
  2 87  1  0  0  0
  3  4  1  0  0  0
  3 88  1  0  0  0
  3 89  1  0  0  0
  4  5  1  0  0  0
  4 90  1  0  0  0
  4 91  1  0  0  0
  5  6  1  0  0  0
  5 26  1  0  0  0
  5 92  1  0  0  0
  6 25  1  0  0  0
  6 93  1  0  0  0
  6 94  1  0  0  0
  7  8  2  0  0  0
  7 26  1  0  0  0
  7 29  1  0  0  0
  8  9  1  0  0  0
  8 22  1  0  0  0
  9 10  1  0  0  0
  9 27  2  0  0  0
 10 11  2  0  0  0
 10 15  1  0  0  0
 11 12  1  0  0  0
 11 95  1  0  0  0
 12 13  2  0  0  0
 12 96  1  0  0  0
 13 14  1  0  0  0
 13 31  1  0  0  0
 14 15  2  0  0  0
 14 97  1  0  0  0
 15 98  1  0  0  0
 16 17  2  0  0  0
 16 21  1  0  0  0
 16 31  1  0  0  0
 17 18  1  0  0  0
 17 99  1  0  0  0
 18 19  2  0  0  0
 18100  1  0  0  0
 19 20  1  0  0  0
 19 24  1  0  0  0
 20 21  2  0  0  0
 20101  1  0  0  0
 21 23  1  0  0  0
 22 28  1  0  0  0
 22 32  2  0  0  0
 26 27  1  0  0  0
 28102  1  0  0  0
 28103  1  0  0  0
 29104  1  0  0  0
 29105  1  0  0  0
 33 34  1  0  0  0
 33 66  1  0  0  0
 33 70  2  0  0  0
 34 36  1  0  0  0
 34 59  1  0  0  0
 34106  1  0  0  0
 35 44  2  0  0  0
 35 45  1  0  0  0
 35 68  1  0  0  0
 36 56  1  0  0  0
 36107  1  0  0  0
 37 39  1  0  0  0
 37 47  1  0  0  0
 37 66  1  0  0  0
 37108  1  0  0  0
 38 43  2  0  0  0
 38 46  1  0  0  0
 38 47  1  0  0  0
 39 64  1  0  0  0
 39 67  2  0  0  0
 40 52  1  0  0  0
 40 53  2  0  0  0
 40 58  1  0  0  0
 41109  1  0  0  0
 41110  1  0  0  0
 41111  1  0  0  0
 41 48  1  0  0  0
 42 43  1  0  0  0
 42 66  1  0  0  0
 42112  1  0  0  0
 42113  1  0  0  0
 43 44  1  0  0  0
 44114  1  0  0  0
 45 46  2  0  0  0
 45115  1  0  0  0
 46116  1  0  0  0
 47117  1  0  0  0
 47118  1  0  0  0
 48 56  1  0  0  0
 48 65  1  0  0  0
 48119  1  0  0  0
 49 50  1  0  0  0
 49 53  1  0  0  0
 49 64  1  0  0  0
 49120  1  0  0  0
 50 51  1  0  0  0
 50121  1  0  0  0
 50122  1  0  0  0
 51 52  1  0  0  0
 51123  1  0  0  0
 51124  1  0  0  0
 52125  1  0  0  0
 52126  1  0  0  0
 53 54  1  0  0  0
 54 55  2  0  0  0
 54127  1  0  0  0
 55 57  1  0  0  0
 55128  1  0  0  0
 56 69  2  0  0  0
 57 58  2  0  0  0
 57129  1  0  0  0
 58130  1  0  0  0
 59 60  1  0  0  0
 59 61  1  0  0  0
 59 62  1  0  0  0
 60131  1  0  0  0
 60132  1  0  0  0
 60133  1  0  0  0
 61134  1  0  0  0
 61135  1  0  0  0
 61136  1  0  0  0
 62137  1  0  0  0
 62138  1  0  0  0
 62139  1  0  0  0
 63 65  1  0  0  0
 63140  1  0  0  0
 63141  1  0  0  0
 63142  1  0  0  0
 64143  1  0  0  0
 65144  1  0  0  0
 68 82  1  0  0  0
 71 74  2  0  0  0
 71 75  1  0  0  0
 71145  1  0  0  0
 72 74  1  0  0  0
 72 76  2  0  0  0
 72146  1  0  0  0
 73 75  2  0  0  0
 73 76  1  0  0  0
 73147  1  0  0  0
 74 81  1  0  0  0
 75 83  1  0  0  0
 76 84  1  0  0  0
 77 78  1  0  0  0
 77 79  1  0  0  0
 77148  1  0  0  0
 77149  1  0  0  0
 78 80  1  0  0  0
 78150  1  0  0  0
 78151  1  0  0  0
 79 85  1  0  0  0
 79152  1  0  0  0
 79153  1  0  0  0
 80 82  1  0  0  0
 80 85  1  0  0  0
 80154  1  0  0  0
 81155  1  0  0  0
 81156  1  0  0  0
 81 85  1  0  0  0
 82157  1  0  0  0
 82158  1  0  0  0
 83159  1  0  0  0
 83160  1  0  0  0
 84161  1  0  0  0
 85162  1  0  0  0
M  CHG  1  85   1
M  ISO  4   1 100  68 101  82 101  84 100
M  END
> <chiral flag>
0

> <version>
0

> <s_m_source_file>
/data/baiqing/PycharmProjects/Reinvent-master-3.2/result/LINK_invent/BTK/process_docking_weight1_custom_product_contain_oxygen_bond_distance_aromatic_linkinvent_7_9_3/rearranged_h_0098.sdf

> <i_m_source_file_index>
87

> <r_mmod_Potential_Energy-OPLS-2005>
193.597686767578

> <r_mmod_Stretch_Energy-OPLS-2005>
136.005477905273

> <r_mmod_Bend_Energy-OPLS-2005>
227.838806152344

> <r_mmod_Torsional_Energy-OPLS-2005>
278.655395507812

> <r_mmod_Improper_Torsional_Energy-OPLS-2005>
9.27015972137451

> <r_mmod_Van_der_Waal_Energy-OPLS-2005>
134.668243408203

> <r_mmod_Electrostatic_Energy-OPLS-2005>
-221.426803588867

> <r_mmod_Solvation_Energy-OPLS-2005>
-455.048858642578

> <b_mmod_Minimization_Converged-OPLS-2005>
0

> <r_mmod_RMS_Derivative-OPLS-2005>
8.32446575164795

$$$$
87
                    3D
 Structure written by MMmdl.
160168  0  0  1  0            999 V2000
  -30.7041  -14.4594   20.5338 C   0  0  0  0  0  0
  -30.4151  -12.2842   19.4337 C   0  0  0  0  0  0
  -29.4969  -12.4998   18.2126 C   0  0  0  0  0  0
  -28.0161  -12.3662   18.6190 C   0  0  0  0  0  0
  -27.6611  -13.2070   19.8754 C   0  0  2  0  0  0
  -28.7015  -12.9979   21.0016 C   0  0  0  0  0  0
  -25.2589  -13.8166   20.5682 C   0  0  0  0  0  0
  -24.1840  -13.0447   20.9183 C   0  0  0  0  0  0
  -24.6392  -11.6912   20.8727 C   0  0  0  0  0  0
  -23.9058  -10.4294   21.0396 C   0  0  0  0  0  0
  -24.3616   -9.4213   21.9175 C   0  0  0  0  0  0
  -23.6295   -8.2247   22.0751 C   0  0  0  0  0  0
  -22.4278   -8.0278   21.3543 C   0  0  0  0  0  0
  -21.9906   -9.0245   20.4643 C   0  0  0  0  0  0
  -22.7230  -10.2131   20.3044 C   0  0  0  0  0  0
  -21.6855   -6.0740   22.5285 C   0  0  0  0  0  0
  -21.4013   -6.5643   23.8217 C   0  0  0  0  0  0
  -21.3664   -5.6793   24.9177 C   0  0  0  0  0  0
  -21.6045   -4.3054   24.7226 C   0  0  0  0  0  0
  -21.8821   -3.8149   23.4349 C   0  0  0  0  0  0
  -21.9198   -4.6965   22.3402 C   0  0  0  0  0  0
  -22.7865  -13.5243   21.1850 C   0  0  0  0  0  0
  -22.1661   -4.2153   21.0981 F   0  0  0  0  0  0
  -21.5630   -3.4539   25.7739 F   0  0  0  0  0  0
  -30.0370  -13.2774   20.4501 N   0  0  0  0  0  0
  -26.3019  -12.9331   20.3366 N   0  0  0  0  0  0
  -25.9317  -11.6489   20.5754 N   0  0  0  0  0  0
  -22.0501  -12.8232   22.0401 N   0  0  0  0  0  0
  -25.4311  -15.1882   20.4077 N   0  0  0  0  0  0
  -31.8369  -14.6208   20.0748 O   0  0  0  0  0  0
  -21.6651   -6.8876   21.4242 O   0  0  0  0  0  0
  -22.3553  -14.5551   20.6700 O   0  0  0  0  0  0
  -24.6110  -31.8687   23.2098 C   0  0  0  0  0  0
  -25.9009  -32.4830   23.8393 C   0  0  1  0  0  0
  -27.2437  -27.4496   20.1043 C   0  0  0  0  0  0
  -25.5874  -33.8629   24.2321 N   0  0  0  0  0  0
  -23.4003  -30.4892   21.5491 C   0  0  2  0  0  0
  -24.8526  -28.9558   20.1149 C   0  0  0  0  0  0
  -22.7398  -29.4651   22.4994 C   0  0  0  0  0  0
  -18.0264  -28.1374   22.8490 C   0  0  0  0  0  0
  -24.1482  -36.7319   23.2640 C   0  0  0  0  0  0
  -25.9258  -30.8389   21.3622 C   0  0  0  0  0  0
  -26.0075  -29.4723   20.7160 C   0  0  0  0  0  0
  -27.2064  -28.7255   20.7149 C   0  0  0  0  0  0
  -26.0807  -26.9516   19.4862 C   0  0  0  0  0  0
  -24.8825  -27.6922   19.4973 C   0  0  0  0  0  0
  -23.6100  -29.8160   20.1653 C   0  0  0  0  0  0
  -25.4103  -36.3117   24.0338 C   0  0  1  0  0  0
  -20.5853  -28.3648   23.1324 C   0  0  2  0  0  0
  -20.6750  -26.9386   22.5423 C   0  0  0  0  0  0
  -19.5738  -26.6376   21.5209 C   0  0  0  0  0  0
  -18.1913  -26.7918   22.1618 C   0  0  0  0  0  0
  -19.1514  -28.8828   23.2906 C   0  0  0  0  0  0
  -18.9450  -30.1433   23.8917 C   0  0  0  0  0  0
  -17.6454  -30.6580   24.0564 C   0  0  0  0  0  0
  -25.9024  -34.9483   23.5126 C   0  0  0  0  0  0
  -16.5340  -29.9086   23.6326 C   0  0  0  0  0  0
  -16.7253  -28.6503   23.0344 C   0  0  0  0  0  0
  -26.4449  -31.6611   25.0720 C   0  0  0  0  0  0
  -25.3723  -31.3729   26.1477 C   0  0  0  0  0  0
  -27.0277  -30.3055   24.6086 C   0  0  0  0  0  0
  -27.6019  -32.4342   25.7482 C   0  0  0  0  0  0
  -27.5582  -37.1807   24.8459 C   0  0  0  0  0  0
  -21.4126  -29.3020   22.3733 N   0  0  0  0  0  0
  -26.4290  -37.3798   23.9409 N   0  0  0  0  0  0
  -24.6633  -31.0798   22.0990 N   0  0  0  0  0  0
  -23.4171  -28.8200   23.3037 O   0  0  0  0  0  0
  -28.3775  -26.6687   20.0749 O   0  0  0  0  0  0
  -26.5599  -34.8932   22.4694 O   0  0  0  0  0  0
  -23.5309  -32.1431   23.7506 O   0  0  0  0  0  0
  -31.5936  -19.0649   23.2796 C   0  0  0  0  0  0
  -31.1360  -20.3365   22.8934 C   0  0  0  0  0  0
  -31.2869  -17.9156   22.5214 C   0  0  0  0  0  0
  -30.4740  -18.0402   21.3594 C   0  0  0  0  0  0
  -30.3453  -20.4923   21.7323 C   0  0  0  0  0  0
  -30.0113  -19.3345   20.9891 C   0  0  0  0  0  0
  -31.8886  -16.5972   22.9788 C   0  0  0  0  0  0
  -30.1508  -16.8772   20.4021 C   0  0  0  0  0  0
  -29.0894  -24.8913   21.6372 C   0  0  0  0  0  0
  -30.2159  -24.1550   20.8767 C   0  0  0  0  0  0
  -28.9831  -26.4083   21.3441 C   0  0  0  0  0  0
  -30.7139  -22.8589   21.5605 C   0  0  0  0  0  0
  -29.9661  -15.5119   20.9277 N   0  0  0  0  0  0
  -29.8858  -21.7245   21.2901 O   0  0  0  0  0  0
  -29.2599  -19.4825   19.8705 F   0  0  0  0  0  0
  -31.4635  -12.3604   19.1384 H   0  0  0  0  0  0
  -30.2896  -11.2756   19.8314 H   0  0  0  0  0  0
  -29.7371  -11.7801   17.4289 H   0  0  0  0  0  0
  -29.6758  -13.4881   17.7861 H   0  0  0  0  0  0
  -27.8191  -11.3110   18.8103 H   0  0  0  0  0  0
  -27.3729  -12.6472   17.7843 H   0  0  0  0  0  0
  -27.7009  -14.2541   19.5731 H   0  0  0  0  0  0
  -28.6654  -11.9702   21.3655 H   0  0  0  0  0  0
  -28.4744  -13.6234   21.8663 H   0  0  0  0  0  0
  -25.2758   -9.5700   22.4758 H   0  0  0  0  0  0
  -24.0012   -7.4644   22.7472 H   0  0  0  0  0  0
  -21.0838   -8.8749   19.8947 H   0  0  0  0  0  0
  -22.3669  -10.9669   19.6160 H   0  0  0  0  0  0
  -21.1989   -7.6155   23.9718 H   0  0  0  0  0  0
  -21.1491   -6.0526   25.9081 H   0  0  0  0  0  0
  -22.0592   -2.7614   23.2849 H   0  0  0  0  0  0
  -22.4108  -11.9889   22.4786 H   0  0  0  0  0  0
  -21.1115  -13.1253   22.2588 H   0  0  0  0  0  0
  -24.6643  -15.8439   20.5125 H   0  0  0  0  0  0
  -26.2836  -15.6273   20.0826 H   0  0  0  0  0  0
  -26.7080  -32.5558   23.1167 H   0  0  0  0  0  0
  -25.0017  -33.9793   25.0460 H   0  0  0  0  0  0
  -22.6881  -31.3046   21.4066 H   0  0  0  0  0  0
  -23.3741  -35.9656   23.3311 H   0  0  0  0  0  0
  -24.3574  -36.8924   22.2051 H   0  0  0  0  0  0
  -23.7235  -37.6527   23.6649 H   0  0  0  0  0  0
  -26.0330  -31.6025   20.5906 H   0  0  0  0  0  0
  -26.8148  -30.8986   21.9776 H   0  0  0  0  0  0
  -28.0979  -29.1274   21.1764 H   0  0  0  0  0  0
  -26.1023  -25.9822   19.0092 H   0  0  0  0  0  0
  -23.9965  -27.2876   19.0278 H   0  0  0  0  0  0
  -23.7104  -30.5865   19.4003 H   0  0  0  0  0  0
  -22.7376  -29.2274   19.8748 H   0  0  0  0  0  0
  -25.1281  -36.1983   25.0833 H   0  0  0  0  0  0
  -20.9944  -28.3207   24.1445 H   0  0  0  0  0  0
  -20.5627  -26.2257   23.3606 H   0  0  0  0  0  0
  -21.6624  -26.7417   22.1228 H   0  0  0  0  0  0
  -19.6895  -25.6289   21.1226 H   0  0  0  0  0  0
  -19.6685  -27.3196   20.6748 H   0  0  0  0  0  0
  -17.4184  -26.6666   21.4020 H   0  0  0  0  0  0
  -18.0314  -26.0054   22.9009 H   0  0  0  0  0  0
  -19.7929  -30.7237   24.2298 H   0  0  0  0  0  0
  -17.5014  -31.6265   24.5156 H   0  0  0  0  0  0
  -15.5343  -30.2998   23.7643 H   0  0  0  0  0  0
  -15.8649  -28.0829   22.7053 H   0  0  0  0  0  0
  -24.5877  -30.7093   25.7824 H   0  0  0  0  0  0
  -24.8941  -32.2896   26.4941 H   0  0  0  0  0  0
  -25.8082  -30.8888   27.0225 H   0  0  0  0  0  0
  -26.2817  -29.6830   24.1128 H   0  0  0  0  0  0
  -27.4033  -29.7279   25.4541 H   0  0  0  0  0  0
  -27.8656  -30.4377   23.9237 H   0  0  0  0  0  0
  -27.2617  -33.3620   26.2096 H   0  0  0  0  0  0
  -28.3809  -32.6944   25.0303 H   0  0  0  0  0  0
  -28.0708  -31.8452   26.5375 H   0  0  0  0  0  0
  -28.2599  -38.0107   24.7519 H   0  0  0  0  0  0
  -28.1081  -36.2641   24.6268 H   0  0  0  0  0  0
  -27.2306  -37.1434   25.8864 H   0  0  0  0  0  0
  -20.9277  -29.8751   21.6970 H   0  0  0  0  0  0
  -26.0185  -38.2877   24.1424 H   0  0  0  0  0  0
  -32.2092  -18.9829   24.1651 H   0  0  0  0  0  0
  -31.4106  -21.1776   23.5109 H   0  0  0  0  0  0
  -32.5549  -16.7354   23.8309 H   0  0  0  0  0  0
  -32.4798  -16.1467   22.1821 H   0  0  0  0  0  0
  -31.1109  -15.9002   23.2897 H   0  0  0  0  0  0
  -30.9128  -16.8936   19.6207 H   0  0  0  0  0  0
  -29.2205  -17.1070   19.8815 H   0  0  0  0  0  0
  -29.2793  -24.7907   22.7062 H   0  0  0  0  0  0
  -28.1303  -24.4020   21.4633 H   0  0  0  0  0  0
  -31.0716  -24.8281   20.8140 H   0  0  0  0  0  0
  -29.9204  -23.9574   19.8455 H   0  0  0  0  0  0
  -29.9689  -26.8739   21.3725 H   0  0  0  0  0  0
  -28.4141  -26.8611   22.1589 H   0  0  0  0  0  0
  -30.8037  -23.0385   22.6320 H   0  0  0  0  0  0
  -31.7183  -22.6386   21.1922 H   0  0  0  0  0  0
  -29.0558  -15.2987   21.3051 H   0  0  0  0  0  0
  1 25  1  0  0  0
  1 30  2  0  0  0
  1 83  1  0  0  0
  2  3  1  0  0  0
  2 25  1  0  0  0
  2 86  1  0  0  0
  2 87  1  0  0  0
  3  4  1  0  0  0
  3 88  1  0  0  0
  3 89  1  0  0  0
  4  5  1  0  0  0
  4 90  1  0  0  0
  4 91  1  0  0  0
  5  6  1  0  0  0
  5 26  1  0  0  0
  5 92  1  0  0  0
  6 25  1  0  0  0
  6 93  1  0  0  0
  6 94  1  0  0  0
  7  8  2  0  0  0
  7 26  1  0  0  0
  7 29  1  0  0  0
  8  9  1  0  0  0
  8 22  1  0  0  0
  9 10  1  0  0  0
  9 27  2  0  0  0
 10 11  2  0  0  0
 10 15  1  0  0  0
 11 12  1  0  0  0
 11 95  1  0  0  0
 12 13  2  0  0  0
 12 96  1  0  0  0
 13 14  1  0  0  0
 13 31  1  0  0  0
 14 15  2  0  0  0
 14 97  1  0  0  0
 15 98  1  0  0  0
 16 17  2  0  0  0
 16 21  1  0  0  0
 16 31  1  0  0  0
 17 18  1  0  0  0
 17 99  1  0  0  0
 18 19  2  0  0  0
 18100  1  0  0  0
 19 20  1  0  0  0
 19 24  1  0  0  0
 20 21  2  0  0  0
 20101  1  0  0  0
 21 23  1  0  0  0
 22 28  1  0  0  0
 22 32  2  0  0  0
 26 27  1  0  0  0
 28102  1  0  0  0
 28103  1  0  0  0
 29104  1  0  0  0
 29105  1  0  0  0
 33 34  1  0  0  0
 33 66  1  0  0  0
 33 70  2  0  0  0
 34 36  1  0  0  0
 34 59  1  0  0  0
 34106  1  0  0  0
 35 44  2  0  0  0
 35 45  1  0  0  0
 35 68  1  0  0  0
 36 56  1  0  0  0
 36107  1  0  0  0
 37 39  1  0  0  0
 37 47  1  0  0  0
 37 66  1  0  0  0
 37108  1  0  0  0
 38 43  2  0  0  0
 38 46  1  0  0  0
 38 47  1  0  0  0
 39 64  1  0  0  0
 39 67  2  0  0  0
 40 52  1  0  0  0
 40 53  2  0  0  0
 40 58  1  0  0  0
 41109  1  0  0  0
 41110  1  0  0  0
 41111  1  0  0  0
 41 48  1  0  0  0
 42 43  1  0  0  0
 42 66  1  0  0  0
 42112  1  0  0  0
 42113  1  0  0  0
 43 44  1  0  0  0
 44114  1  0  0  0
 45 46  2  0  0  0
 45115  1  0  0  0
 46116  1  0  0  0
 47117  1  0  0  0
 47118  1  0  0  0
 48 56  1  0  0  0
 48 65  1  0  0  0
 48119  1  0  0  0
 49 50  1  0  0  0
 49 53  1  0  0  0
 49 64  1  0  0  0
 49120  1  0  0  0
 50 51  1  0  0  0
 50121  1  0  0  0
 50122  1  0  0  0
 51 52  1  0  0  0
 51123  1  0  0  0
 51124  1  0  0  0
 52125  1  0  0  0
 52126  1  0  0  0
 53 54  1  0  0  0
 54 55  2  0  0  0
 54127  1  0  0  0
 55 57  1  0  0  0
 55128  1  0  0  0
 56 69  2  0  0  0
 57 58  2  0  0  0
 57129  1  0  0  0
 58130  1  0  0  0
 59 60  1  0  0  0
 59 61  1  0  0  0
 59 62  1  0  0  0
 60131  1  0  0  0
 60132  1  0  0  0
 60133  1  0  0  0
 61134  1  0  0  0
 61135  1  0  0  0
 61136  1  0  0  0
 62137  1  0  0  0
 62138  1  0  0  0
 62139  1  0  0  0
 63 65  1  0  0  0
 63140  1  0  0  0
 63141  1  0  0  0
 63142  1  0  0  0
 64143  1  0  0  0
 65144  1  0  0  0
 68 81  1  0  0  0
 71 72  2  0  0  0
 71 73  1  0  0  0
 71145  1  0  0  0
 72 75  1  0  0  0
 72146  1  0  0  0
 73 74  2  0  0  0
 73 77  1  0  0  0
 74 76  1  0  0  0
 74 78  1  0  0  0
 75 76  2  0  0  0
 75 84  1  0  0  0
 76 85  1  0  0  0
 77147  1  0  0  0
 77148  1  0  0  0
 77149  1  0  0  0
 78 83  1  0  0  0
 78150  1  0  0  0
 78151  1  0  0  0
 79 80  1  0  0  0
 79 81  1  0  0  0
 79152  1  0  0  0
 79153  1  0  0  0
 80 82  1  0  0  0
 80154  1  0  0  0
 80155  1  0  0  0
 81156  1  0  0  0
 81157  1  0  0  0
 82 84  1  0  0  0
 82158  1  0  0  0
 82159  1  0  0  0
 83160  1  0  0  0
M  ISO  4   1 100  68 101  81 101  83 100
M  END
> <chiral flag>
0

> <version>
0

> <s_m_source_file>
/data/baiqing/PycharmProjects/Reinvent-master-3.2/result/LINK_invent/BTK/process_docking_weight1_custom_product_contain_oxygen_bond_distance_aromatic_linkinvent_7_9_3/rearranged_h_0098.sdf

> <i_m_source_file_index>
88

> <r_mmod_Potential_Energy-OPLS-2005>
-25.2948246002197

> <r_mmod_Stretch_Energy-OPLS-2005>
38.1579780578613

> <r_mmod_Bend_Energy-OPLS-2005>
104.867416381836

> <r_mmod_Torsional_Energy-OPLS-2005>
236.992385864258

> <r_mmod_Improper_Torsional_Energy-OPLS-2005>
7.30190706253052

> <r_mmod_Van_der_Waal_Energy-OPLS-2005>
161.038589477539

> <r_mmod_Electrostatic_Energy-OPLS-2005>
-379.916778564453

> <r_mmod_Solvation_Energy-OPLS-2005>
-205.670349121094

> <b_mmod_Minimization_Converged-OPLS-2005>
0

> <r_mmod_RMS_Derivative-OPLS-2005>
1.33102929592133

$$$$
88
                    3D
 Structure written by MMmdl.
151159  0  0  1  0            999 V2000
  -30.7125  -14.6325   20.4999 C   0  0  0  0  0  0
  -30.4103  -12.3979   19.4534 C   0  0  0  0  0  0
  -29.4933  -12.4922   18.2193 C   0  0  0  0  0  0
  -28.0202  -12.3351   18.6388 C   0  0  0  0  0  0
  -27.6405  -13.2331   19.8476 C   0  0  2  0  0  0
  -28.6899  -13.1610   20.9785 C   0  0  0  0  0  0
  -25.2516  -13.8219   20.5717 C   0  0  0  0  0  0
  -24.1802  -13.0455   20.9205 C   0  0  0  0  0  0
  -24.6388  -11.6932   20.8741 C   0  0  0  0  0  0
  -23.9062  -10.4303   21.0400 C   0  0  0  0  0  0
  -24.3619   -9.4217   21.9177 C   0  0  0  0  0  0
  -23.6300   -8.2246   22.0745 C   0  0  0  0  0  0
  -22.4283   -8.0280   21.3537 C   0  0  0  0  0  0
  -21.9915   -9.0247   20.4639 C   0  0  0  0  0  0
  -22.7235  -10.2134   20.3048 C   0  0  0  0  0  0
  -21.6856   -6.0740   22.5279 C   0  0  0  0  0  0
  -21.4015   -6.5642   23.8214 C   0  0  0  0  0  0
  -21.3659   -5.6793   24.9174 C   0  0  0  0  0  0
  -21.6042   -4.3056   24.7226 C   0  0  0  0  0  0
  -21.8820   -3.8149   23.4345 C   0  0  0  0  0  0
  -21.9194   -4.6965   22.3404 C   0  0  0  0  0  0
  -22.7822  -13.5230   21.1865 C   0  0  0  0  0  0
  -22.1664   -4.2152   21.0979 F   0  0  0  0  0  0
  -21.5627   -3.4540   25.7736 F   0  0  0  0  0  0
  -29.9949  -13.4692   20.3842 N   0  0  0  0  0  0
  -26.2940  -12.9427   20.3301 N   0  0  0  0  0  0
  -25.9319  -11.6563   20.5755 N   0  0  0  0  0  0
  -22.0471  -12.8215   22.0421 N   0  0  0  0  0  0
  -25.4210  -15.1950   20.4191 N   0  0  0  0  0  0
  -31.9042  -14.6260   20.1831 O   0  0  0  0  0  0
  -21.6640   -6.8880   21.4241 O   0  0  0  0  0  0
  -22.3500  -14.5528   20.6703 O   0  0  0  0  0  0
  -24.6275  -31.8603   23.2049 C   0  0  0  0  0  0
  -25.9121  -32.4783   23.8369 C   0  0  1  0  0  0
  -27.2079  -27.3106   20.1081 C   0  0  0  0  0  0
  -25.5937  -33.8584   24.2288 N   0  0  0  0  0  0
  -23.4201  -30.4893   21.5470 C   0  0  2  0  0  0
  -24.8631  -28.9529   20.1074 C   0  0  0  0  0  0
  -22.7477  -29.4646   22.4921 C   0  0  0  0  0  0
  -18.0289  -28.1398   22.8479 C   0  0  0  0  0  0
  -24.1492  -36.7296   23.2636 C   0  0  0  0  0  0
  -25.9650  -30.7889   21.3786 C   0  0  0  0  0  0
  -26.0354  -29.4186   20.7161 C   0  0  0  0  0  0
  -27.2120  -28.6084   20.7098 C   0  0  0  0  0  0
  -26.0117  -26.9146   19.4609 C   0  0  0  0  0  0
  -24.8535  -27.7061   19.4723 C   0  0  0  0  0  0
  -23.6335  -29.8336   20.1595 C   0  0  0  0  0  0
  -25.4115  -36.3079   24.0326 C   0  0  1  0  0  0
  -20.5892  -28.3701   23.1271 C   0  0  2  0  0  0
  -20.6787  -26.9424   22.5398 C   0  0  0  0  0  0
  -19.5757  -26.6393   21.5206 C   0  0  0  0  0  0
  -18.1938  -26.7937   22.1624 C   0  0  0  0  0  0
  -19.1542  -28.8864   23.2872 C   0  0  0  0  0  0
  -18.9462  -30.1465   23.8891 C   0  0  0  0  0  0
  -17.6464  -30.6597   24.0565 C   0  0  0  0  0  0
  -25.9049  -34.9452   23.5102 C   0  0  0  0  0  0
  -16.5352  -29.9095   23.6337 C   0  0  0  0  0  0
  -16.7277  -28.6517   23.0349 C   0  0  0  0  0  0
  -26.4500  -31.6590   25.0738 C   0  0  0  0  0  0
  -25.3735  -31.3740   26.1468 C   0  0  0  0  0  0
  -27.0343  -30.3009   24.6210 C   0  0  0  0  0  0
  -27.6063  -32.4317   25.7512 C   0  0  0  0  0  0
  -27.5575  -37.1807   24.8461 C   0  0  0  0  0  0
  -21.4188  -29.3060   22.3665 N   0  0  0  0  0  0
  -26.4287  -37.3776   23.9405 N   0  0  0  0  0  0
  -24.6900  -31.0626   22.0996 N   0  0  0  0  0  0
  -23.4203  -28.8179   23.2993 O   0  0  0  0  0  0
  -28.2989  -26.4215   20.1722 O   0  0  0  0  0  0
  -26.5604  -34.8912   22.4659 O   0  0  0  0  0  0
  -23.5438  -32.1400   23.7379 O   0  0  0  0  0  0
  -30.7840  -19.5985   20.9021 C   0  0  0  0  0  0
  -30.2723  -20.9154   20.7168 C   0  0  0  0  0  0
  -28.1243  -19.9568   20.2359 C   0  0  0  0  0  0
  -29.9956  -18.4141   20.7650 C   0  0  0  0  0  0
  -28.9200  -21.1336   20.3741 C   0  0  0  0  0  0
  -28.6355  -18.6316   20.4248 C   0  0  0  0  0  0
  -30.6549  -17.0315   21.0002 C   0  0  0  0  0  0
  -28.9676  -23.7857   20.3617 C   0  0  0  0  0  0
  -27.9907  -24.9819   19.9692 C   0  0  0  0  0  0
  -28.3488  -22.4330   20.1616 N   0  0  0  0  0  0
  -30.0523  -15.8235   20.7241 N   0  0  0  0  0  0
  -31.8038  -17.0699   21.4619 O   0  0  0  0  0  0
  -27.8026  -17.5713   20.2721 F   0  0  0  0  0  0
  -31.4540  -12.4768   19.1456 H   0  0  0  0  0  0
  -30.3168  -11.4214   19.9311 H   0  0  0  0  0  0
  -29.7583  -11.7250   17.4905 H   0  0  0  0  0  0
  -29.6381  -13.4526   17.7216 H   0  0  0  0  0  0
  -27.8641  -11.2867   18.8945 H   0  0  0  0  0  0
  -27.3617  -12.5404   17.7937 H   0  0  0  0  0  0
  -27.6377  -14.2564   19.4709 H   0  0  0  0  0  0
  -28.7047  -12.1692   21.4333 H   0  0  0  0  0  0
  -28.4453  -13.8628   21.7781 H   0  0  0  0  0  0
  -25.2762   -9.5701   22.4751 H   0  0  0  0  0  0
  -24.0011   -7.4643   22.7466 H   0  0  0  0  0  0
  -21.0845   -8.8761   19.8949 H   0  0  0  0  0  0
  -22.3682  -10.9669   19.6158 H   0  0  0  0  0  0
  -21.2004   -7.6150   23.9717 H   0  0  0  0  0  0
  -21.1485   -6.0523   25.9077 H   0  0  0  0  0  0
  -22.0598   -2.7610   23.2841 H   0  0  0  0  0  0
  -22.4095  -11.9883   22.4818 H   0  0  0  0  0  0
  -21.1077  -13.1219   22.2604 H   0  0  0  0  0  0
  -24.6578  -15.8489   20.5534 H   0  0  0  0  0  0
  -26.2806  -15.6508   20.1392 H   0  0  0  0  0  0
  -26.7193  -32.5446   23.1123 H   0  0  0  0  0  0
  -25.0099  -33.9727   25.0444 H   0  0  0  0  0  0
  -22.7132  -31.3099   21.4090 H   0  0  0  0  0  0
  -23.3742  -35.9640   23.3298 H   0  0  0  0  0  0
  -24.3583  -36.8910   22.2048 H   0  0  0  0  0  0
  -23.7252  -37.6505   23.6657 H   0  0  0  0  0  0
  -26.1011  -31.5544   20.6135 H   0  0  0  0  0  0
  -26.8445  -30.8323   22.0094 H   0  0  0  0  0  0
  -28.1073  -28.9574   21.2051 H   0  0  0  0  0  0
  -25.9246  -25.9699   18.9468 H   0  0  0  0  0  0
  -23.9578  -27.3449   18.9857 H   0  0  0  0  0  0
  -23.7553  -30.6150   19.4082 H   0  0  0  0  0  0
  -22.7530  -29.2660   19.8523 H   0  0  0  0  0  0
  -25.1298  -36.1924   25.0818 H   0  0  0  0  0  0
  -20.9990  -28.3275   24.1387 H   0  0  0  0  0  0
  -20.5698  -26.2307   23.3594 H   0  0  0  0  0  0
  -21.6656  -26.7462   22.1186 H   0  0  0  0  0  0
  -19.6908  -25.6299   21.1242 H   0  0  0  0  0  0
  -19.6694  -27.3197   20.6729 H   0  0  0  0  0  0
  -17.4203  -26.6667   21.4032 H   0  0  0  0  0  0
  -18.0355  -26.0089   22.9035 H   0  0  0  0  0  0
  -19.7935  -30.7288   24.2259 H   0  0  0  0  0  0
  -17.5016  -31.6276   24.5168 H   0  0  0  0  0  0
  -15.5354  -30.2997   23.7672 H   0  0  0  0  0  0
  -15.8675  -28.0843   22.7061 H   0  0  0  0  0  0
  -24.5894  -30.7103   25.7804 H   0  0  0  0  0  0
  -24.8952  -32.2917   26.4900 H   0  0  0  0  0  0
  -25.8062  -30.8907   27.0236 H   0  0  0  0  0  0
  -26.2922  -29.6760   24.1230 H   0  0  0  0  0  0
  -27.4017  -29.7263   25.4724 H   0  0  0  0  0  0
  -27.8810  -30.4282   23.9461 H   0  0  0  0  0  0
  -27.2679  -33.3621   26.2087 H   0  0  0  0  0  0
  -28.3892  -32.6860   25.0354 H   0  0  0  0  0  0
  -28.0718  -31.8436   26.5432 H   0  0  0  0  0  0
  -28.2597  -38.0100   24.7509 H   0  0  0  0  0  0
  -28.1065  -36.2631   24.6295 H   0  0  0  0  0  0
  -27.2293  -37.1469   25.8864 H   0  0  0  0  0  0
  -20.9349  -29.8793   21.6895 H   0  0  0  0  0  0
  -26.0159  -38.2846   24.1405 H   0  0  0  0  0  0
  -31.8295  -19.5107   21.1593 H   0  0  0  0  0  0
  -30.9409  -21.7558   20.8371 H   0  0  0  0  0  0
  -27.0804  -20.0542   19.9769 H   0  0  0  0  0  0
  -29.2566  -23.8852   21.4087 H   0  0  0  0  0  0
  -29.8847  -23.8557   19.7754 H   0  0  0  0  0  0
  -27.0675  -24.7732   20.5131 H   0  0  0  0  0  0
  -27.7677  -24.8529   18.9090 H   0  0  0  0  0  0
  -27.3707  -22.4519   19.8834 H   0  0  0  0  0  0
  -29.0512  -15.8368   20.6154 H   0  0  0  0  0  0
  1 25  1  0  0  0
  1 30  2  0  0  0
  1 81  1  0  0  0
  2  3  1  0  0  0
  2 25  1  0  0  0
  2 84  1  0  0  0
  2 85  1  0  0  0
  3  4  1  0  0  0
  3 86  1  0  0  0
  3 87  1  0  0  0
  4  5  1  0  0  0
  4 88  1  0  0  0
  4 89  1  0  0  0
  5  6  1  0  0  0
  5 26  1  0  0  0
  5 90  1  0  0  0
  6 25  1  0  0  0
  6 91  1  0  0  0
  6 92  1  0  0  0
  7  8  2  0  0  0
  7 26  1  0  0  0
  7 29  1  0  0  0
  8  9  1  0  0  0
  8 22  1  0  0  0
  9 10  1  0  0  0
  9 27  2  0  0  0
 10 11  2  0  0  0
 10 15  1  0  0  0
 11 12  1  0  0  0
 11 93  1  0  0  0
 12 13  2  0  0  0
 12 94  1  0  0  0
 13 14  1  0  0  0
 13 31  1  0  0  0
 14 15  2  0  0  0
 14 95  1  0  0  0
 15 96  1  0  0  0
 16 17  2  0  0  0
 16 21  1  0  0  0
 16 31  1  0  0  0
 17 18  1  0  0  0
 17 97  1  0  0  0
 18 19  2  0  0  0
 18 98  1  0  0  0
 19 20  1  0  0  0
 19 24  1  0  0  0
 20 21  2  0  0  0
 20 99  1  0  0  0
 21 23  1  0  0  0
 22 28  1  0  0  0
 22 32  2  0  0  0
 26 27  1  0  0  0
 28100  1  0  0  0
 28101  1  0  0  0
 29102  1  0  0  0
 29103  1  0  0  0
 33 34  1  0  0  0
 33 66  1  0  0  0
 33 70  2  0  0  0
 34 36  1  0  0  0
 34 59  1  0  0  0
 34104  1  0  0  0
 35 44  2  0  0  0
 35 45  1  0  0  0
 35 68  1  0  0  0
 36 56  1  0  0  0
 36105  1  0  0  0
 37 39  1  0  0  0
 37 47  1  0  0  0
 37 66  1  0  0  0
 37106  1  0  0  0
 38 43  2  0  0  0
 38 46  1  0  0  0
 38 47  1  0  0  0
 39 64  1  0  0  0
 39 67  2  0  0  0
 40 52  1  0  0  0
 40 53  2  0  0  0
 40 58  1  0  0  0
 41107  1  0  0  0
 41108  1  0  0  0
 41109  1  0  0  0
 41 48  1  0  0  0
 42 43  1  0  0  0
 42 66  1  0  0  0
 42110  1  0  0  0
 42111  1  0  0  0
 43 44  1  0  0  0
 44112  1  0  0  0
 45 46  2  0  0  0
 45113  1  0  0  0
 46114  1  0  0  0
 47115  1  0  0  0
 47116  1  0  0  0
 48 56  1  0  0  0
 48 65  1  0  0  0
 48117  1  0  0  0
 49 50  1  0  0  0
 49 53  1  0  0  0
 49 64  1  0  0  0
 49118  1  0  0  0
 50 51  1  0  0  0
 50119  1  0  0  0
 50120  1  0  0  0
 51 52  1  0  0  0
 51121  1  0  0  0
 51122  1  0  0  0
 52123  1  0  0  0
 52124  1  0  0  0
 53 54  1  0  0  0
 54 55  2  0  0  0
 54125  1  0  0  0
 55 57  1  0  0  0
 55126  1  0  0  0
 56 69  2  0  0  0
 57 58  2  0  0  0
 57127  1  0  0  0
 58128  1  0  0  0
 59 60  1  0  0  0
 59 61  1  0  0  0
 59 62  1  0  0  0
 60129  1  0  0  0
 60130  1  0  0  0
 60131  1  0  0  0
 61132  1  0  0  0
 61133  1  0  0  0
 61134  1  0  0  0
 62135  1  0  0  0
 62136  1  0  0  0
 62137  1  0  0  0
 63 65  1  0  0  0
 63138  1  0  0  0
 63139  1  0  0  0
 63140  1  0  0  0
 64141  1  0  0  0
 65142  1  0  0  0
 68 79  1  0  0  0
 71 72  2  0  0  0
 71 74  1  0  0  0
 71143  1  0  0  0
 72 75  1  0  0  0
 72144  1  0  0  0
 73 75  2  0  0  0
 73 76  1  0  0  0
 73145  1  0  0  0
 74 76  2  0  0  0
 74 77  1  0  0  0
 75 80  1  0  0  0
 76 83  1  0  0  0
 77 81  1  0  0  0
 77 82  2  0  0  0
 78 79  1  0  0  0
 78 80  1  0  0  0
 78146  1  0  0  0
 78147  1  0  0  0
 79148  1  0  0  0
 79149  1  0  0  0
 80150  1  0  0  0
 81151  1  0  0  0
M  ISO  4   1 100  68 101  79 101  81 100
M  END
> <chiral flag>
0

> <version>
0

> <s_m_source_file>
/data/baiqing/PycharmProjects/Reinvent-master-3.2/result/LINK_invent/BTK/process_docking_weight1_custom_product_contain_oxygen_bond_distance_aromatic_linkinvent_7_9_3/rearranged_h_0098.sdf

> <i_m_source_file_index>
89

> <r_mmod_Potential_Energy-OPLS-2005>
59.2389030456543

> <r_mmod_Stretch_Energy-OPLS-2005>
80.4775314331055

> <r_mmod_Bend_Energy-OPLS-2005>
162.401992797852

> <r_mmod_Torsional_Energy-OPLS-2005>
212.408294677734

> <r_mmod_Improper_Torsional_Energy-OPLS-2005>
5.27393293380737

> <r_mmod_Van_der_Waal_Energy-OPLS-2005>
164.111450195312

> <r_mmod_Electrostatic_Energy-OPLS-2005>
-401.095977783203

> <r_mmod_Solvation_Energy-OPLS-2005>
-223.799682617188

> <b_mmod_Minimization_Converged-OPLS-2005>
0

> <r_mmod_RMS_Derivative-OPLS-2005>
1.07000434398651

$$$$
89
                    3D
 Structure written by MMmdl.
161170  0  0  1  0            999 V2000
  -30.7262  -14.6097   20.4953 C   0  0  0  0  0  0
  -30.4180  -12.3855   19.4485 C   0  0  0  0  0  0
  -29.4976  -12.4909   18.2183 C   0  0  0  0  0  0
  -28.0237  -12.3404   18.6344 C   0  0  0  0  0  0
  -27.6483  -13.2288   19.8501 C   0  0  2  0  0  0
  -28.6982  -13.1469   20.9801 C   0  0  0  0  0  0
  -25.2555  -13.8197   20.5692 C   0  0  0  0  0  0
  -24.1830  -13.0455   20.9165 C   0  0  0  0  0  0
  -24.6418  -11.6924   20.8704 C   0  0  0  0  0  0
  -23.9091  -10.4308   21.0376 C   0  0  0  0  0  0
  -24.3631   -9.4227   21.9165 C   0  0  0  0  0  0
  -23.6300   -8.2265   22.0755 C   0  0  0  0  0  0
  -22.4284   -8.0292   21.3546 C   0  0  0  0  0  0
  -21.9911   -9.0266   20.4641 C   0  0  0  0  0  0
  -22.7242  -10.2148   20.3032 C   0  0  0  0  0  0
  -21.6862   -6.0733   22.5269 C   0  0  0  0  0  0
  -21.4017   -6.5639   23.8206 C   0  0  0  0  0  0
  -21.3668   -5.6795   24.9164 C   0  0  0  0  0  0
  -21.6036   -4.3059   24.7212 C   0  0  0  0  0  0
  -21.8828   -3.8144   23.4342 C   0  0  0  0  0  0
  -21.9196   -4.6958   22.3388 C   0  0  0  0  0  0
  -22.7854  -13.5237   21.1842 C   0  0  0  0  0  0
  -22.1667   -4.2152   21.0974 F   0  0  0  0  0  0
  -21.5634   -3.4540   25.7732 F   0  0  0  0  0  0
  -30.0128  -13.4449   20.3933 N   0  0  0  0  0  0
  -26.2990  -12.9398   20.3288 N   0  0  0  0  0  0
  -25.9339  -11.6541   20.5719 N   0  0  0  0  0  0
  -22.0502  -12.8202   22.0367 N   0  0  0  0  0  0
  -25.4277  -15.1934   20.4196 N   0  0  0  0  0  0
  -31.9059  -14.6568   20.1436 O   0  0  0  0  0  0
  -21.6648   -6.8882   21.4242 O   0  0  0  0  0  0
  -22.3529  -14.5529   20.6676 O   0  0  0  0  0  0
  -24.6257  -31.8624   23.2070 C   0  0  0  0  0  0
  -25.9107  -32.4788   23.8388 C   0  0  1  0  0  0
  -27.2114  -27.3177   20.1015 C   0  0  0  0  0  0
  -25.5928  -33.8593   24.2319 N   0  0  0  0  0  0
  -23.4182  -30.4895   21.5513 C   0  0  2  0  0  0
  -24.8629  -28.9553   20.1065 C   0  0  0  0  0  0
  -22.7468  -29.4640   22.4956 C   0  0  0  0  0  0
  -18.0282  -28.1379   22.8478 C   0  0  0  0  0  0
  -24.1498  -36.7280   23.2637 C   0  0  0  0  0  0
  -25.9619  -30.7867   21.3853 C   0  0  0  0  0  0
  -26.0331  -29.4176   20.7216 C   0  0  0  0  0  0
  -27.2086  -28.6068   20.7195 C   0  0  0  0  0  0
  -26.0246  -26.9369   19.4256 C   0  0  0  0  0  0
  -24.8602  -27.7190   19.4523 C   0  0  0  0  0  0
  -23.6328  -29.8379   20.1622 C   0  0  0  0  0  0
  -25.4118  -36.3090   24.0339 C   0  0  1  0  0  0
  -20.5888  -28.3695   23.1274 C   0  0  2  0  0  0
  -20.6779  -26.9414   22.5409 C   0  0  0  0  0  0
  -19.5771  -26.6399   21.5202 C   0  0  0  0  0  0
  -18.1949  -26.7919   22.1613 C   0  0  0  0  0  0
  -19.1531  -28.8855   23.2878 C   0  0  0  0  0  0
  -18.9458  -30.1451   23.8918 C   0  0  0  0  0  0
  -17.6457  -30.6596   24.0559 C   0  0  0  0  0  0
  -25.9064  -34.9458   23.5133 C   0  0  0  0  0  0
  -16.5351  -29.9098   23.6307 C   0  0  0  0  0  0
  -16.7262  -28.6498   23.0348 C   0  0  0  0  0  0
  -26.4497  -31.6563   25.0734 C   0  0  0  0  0  0
  -25.3737  -31.3670   26.1457 C   0  0  0  0  0  0
  -27.0327  -30.2986   24.6159 C   0  0  0  0  0  0
  -27.6096  -32.4269   25.7475 C   0  0  0  0  0  0
  -27.5586  -37.1791   24.8463 C   0  0  0  0  0  0
  -21.4183  -29.3046   22.3670 N   0  0  0  0  0  0
  -26.4297  -37.3773   23.9412 N   0  0  0  0  0  0
  -24.6870  -31.0628   22.1042 N   0  0  0  0  0  0
  -23.4174  -28.8176   23.3051 O   0  0  0  0  0  0
  -28.3069  -26.4342   20.1775 O   0  0  0  0  0  0
  -26.5631  -34.8906   22.4701 O   0  0  0  0  0  0
  -23.5424  -32.1439   23.7386 O   0  0  0  0  0  0
  -29.0471  -18.6947   19.9421 C   0  0  0  0  0  0
  -30.6512  -19.6254   21.4690 C   0  0  0  0  0  0
  -28.5245  -20.0056   19.7376 C   0  0  0  0  0  0
  -30.1178  -20.9347   21.2717 C   0  0  0  0  0  0
  -30.1175  -18.4681   20.8352 C   0  0  0  0  0  0
  -29.0044  -21.1633   20.4240 C   0  0  0  0  0  0
  -27.3703  -23.7710   22.6996 C   0  0  0  0  0  0
  -26.6924  -22.4898   22.2127 C   0  0  0  0  0  0
  -28.7768  -24.0363   22.1608 C   0  0  0  0  0  0
  -26.9014  -22.2477   20.7033 C   0  0  0  0  0  0
  -28.8473  -23.8015   20.6346 C   0  0  2  0  0  0
  -30.7823  -17.0723   21.0922 C   0  0  0  0  0  0
  -28.0546  -24.9943   19.9052 C   0  0  0  0  0  0
  -28.3089  -22.4239   20.3032 N   0  0  0  0  0  0
  -30.0815  -15.7675   20.8349 N   0  0  0  0  0  0
  -26.8161  -24.5404   23.4876 O   0  0  0  0  0  0
  -31.4596  -12.4713   19.1406 H   0  0  0  0  0  0
  -30.3287  -11.4047   19.9215 H   0  0  0  0  0  0
  -29.7576  -11.7212   17.4924 H   0  0  0  0  0  0
  -29.6470  -13.4500   17.7166 H   0  0  0  0  0  0
  -27.8547  -11.2901   18.8747 H   0  0  0  0  0  0
  -27.3715  -12.5665   17.7889 H   0  0  0  0  0  0
  -27.6522  -14.2552   19.4843 H   0  0  0  0  0  0
  -28.7032  -12.1564   21.4350 H   0  0  0  0  0  0
  -28.4524  -13.8466   21.7796 H   0  0  0  0  0  0
  -25.2786   -9.5708   22.4725 H   0  0  0  0  0  0
  -24.0003   -7.4664   22.7476 H   0  0  0  0  0  0
  -21.0841   -8.8792   19.8948 H   0  0  0  0  0  0
  -22.3705  -10.9683   19.6132 H   0  0  0  0  0  0
  -21.2011   -7.6153   23.9709 H   0  0  0  0  0  0
  -21.1478   -6.0527   25.9075 H   0  0  0  0  0  0
  -22.0595   -2.7606   23.2835 H   0  0  0  0  0  0
  -22.4132  -11.9876   22.4766 H   0  0  0  0  0  0
  -21.1121  -13.1224   22.2568 H   0  0  0  0  0  0
  -24.6686  -15.8513   20.5565 H   0  0  0  0  0  0
  -26.2879  -15.6394   20.1299 H   0  0  0  0  0  0
  -26.7155  -32.5466   23.1116 H   0  0  0  0  0  0
  -25.0014  -33.9738   25.0419 H   0  0  0  0  0  0
  -22.7124  -31.3122   21.4163 H   0  0  0  0  0  0
  -23.3762  -35.9609   23.3309 H   0  0  0  0  0  0
  -24.3591  -36.8883   22.2050 H   0  0  0  0  0  0
  -23.7249  -37.6485   23.6643 H   0  0  0  0  0  0
  -26.1003  -31.5540   20.6227 H   0  0  0  0  0  0
  -26.8400  -30.8293   22.0181 H   0  0  0  0  0  0
  -28.0974  -28.9488   21.2313 H   0  0  0  0  0  0
  -25.9571  -26.0159   18.8682 H   0  0  0  0  0  0
  -23.9688  -27.3690   18.9490 H   0  0  0  0  0  0
  -23.7557  -30.6245   19.4165 H   0  0  0  0  0  0
  -22.7487  -29.2759   19.8537 H   0  0  0  0  0  0
  -25.1295  -36.1938   25.0827 H   0  0  0  0  0  0
  -20.9968  -28.3276   24.1402 H   0  0  0  0  0  0
  -20.5683  -26.2303   23.3613 H   0  0  0  0  0  0
  -21.6654  -26.7471   22.1212 H   0  0  0  0  0  0
  -19.6948  -25.6325   21.1221 H   0  0  0  0  0  0
  -19.6701  -27.3224   20.6750 H   0  0  0  0  0  0
  -17.4206  -26.6638   21.4034 H   0  0  0  0  0  0
  -18.0373  -26.0079   22.9034 H   0  0  0  0  0  0
  -19.7942  -30.7244   24.2318 H   0  0  0  0  0  0
  -17.5022  -31.6278   24.5161 H   0  0  0  0  0  0
  -15.5355  -30.3005   23.7643 H   0  0  0  0  0  0
  -15.8653  -28.0825   22.7065 H   0  0  0  0  0  0
  -24.5920  -30.7024   25.7744 H   0  0  0  0  0  0
  -24.8923  -32.2828   26.4904 H   0  0  0  0  0  0
  -25.8063  -30.8805   27.0210 H   0  0  0  0  0  0
  -26.2903  -29.6755   24.1156 H   0  0  0  0  0  0
  -27.3996  -29.7202   25.4646 H   0  0  0  0  0  0
  -27.8786  -30.4261   23.9402 H   0  0  0  0  0  0
  -27.2734  -33.3533   26.2125 H   0  0  0  0  0  0
  -28.3840  -32.6870   25.0252 H   0  0  0  0  0  0
  -28.0832  -31.8347   26.5306 H   0  0  0  0  0  0
  -28.2596  -38.0096   24.7522 H   0  0  0  0  0  0
  -28.1093  -36.2629   24.6278 H   0  0  0  0  0  0
  -27.2305  -37.1422   25.8865 H   0  0  0  0  0  0
  -20.9362  -29.8719   21.6837 H   0  0  0  0  0  0
  -26.0181  -38.2844   24.1419 H   0  0  0  0  0  0
  -28.6140  -17.8650   19.3993 H   0  0  0  0  0  0
  -31.4968  -19.5170   22.1376 H   0  0  0  0  0  0
  -27.7066  -20.1099   19.0385 H   0  0  0  0  0  0
  -30.5692  -21.7522   21.8144 H   0  0  0  0  0  0
  -25.6266  -22.5277   22.4405 H   0  0  0  0  0  0
  -27.1090  -21.6573   22.7769 H   0  0  0  0  0  0
  -29.4697  -23.3877   22.6900 H   0  0  0  0  0  0
  -29.0701  -25.0584   22.4004 H   0  0  0  0  0  0
  -26.2528  -22.8989   20.1187 H   0  0  0  0  0  0
  -26.5170  -21.2537   20.4766 H   0  0  0  0  0  0
  -29.8908  -23.8491   20.3204 H   0  0  0  0  0  0
  -31.0899  -17.0433   22.1406 H   0  0  0  0  0  0
  -31.7190  -17.0968   20.5306 H   0  0  0  0  0  0
  -27.0211  -24.8142   20.1782 H   0  0  0  0  0  0
  -28.1143  -24.8470   18.8248 H   0  0  0  0  0  0
  -29.0933  -15.7207   21.0285 H   0  0  0  0  0  0
  1 25  1  0  0  0
  1 30  2  0  0  0
  1 85  1  0  0  0
  2  3  1  0  0  0
  2 25  1  0  0  0
  2 87  1  0  0  0
  2 88  1  0  0  0
  3  4  1  0  0  0
  3 89  1  0  0  0
  3 90  1  0  0  0
  4  5  1  0  0  0
  4 91  1  0  0  0
  4 92  1  0  0  0
  5  6  1  0  0  0
  5 26  1  0  0  0
  5 93  1  0  0  0
  6 25  1  0  0  0
  6 94  1  0  0  0
  6 95  1  0  0  0
  7  8  2  0  0  0
  7 26  1  0  0  0
  7 29  1  0  0  0
  8  9  1  0  0  0
  8 22  1  0  0  0
  9 10  1  0  0  0
  9 27  2  0  0  0
 10 11  2  0  0  0
 10 15  1  0  0  0
 11 12  1  0  0  0
 11 96  1  0  0  0
 12 13  2  0  0  0
 12 97  1  0  0  0
 13 14  1  0  0  0
 13 31  1  0  0  0
 14 15  2  0  0  0
 14 98  1  0  0  0
 15 99  1  0  0  0
 16 17  2  0  0  0
 16 21  1  0  0  0
 16 31  1  0  0  0
 17 18  1  0  0  0
 17100  1  0  0  0
 18 19  2  0  0  0
 18101  1  0  0  0
 19 20  1  0  0  0
 19 24  1  0  0  0
 20 21  2  0  0  0
 20102  1  0  0  0
 21 23  1  0  0  0
 22 28  1  0  0  0
 22 32  2  0  0  0
 26 27  1  0  0  0
 28103  1  0  0  0
 28104  1  0  0  0
 29105  1  0  0  0
 29106  1  0  0  0
 33 34  1  0  0  0
 33 66  1  0  0  0
 33 70  2  0  0  0
 34 36  1  0  0  0
 34 59  1  0  0  0
 34107  1  0  0  0
 35 44  2  0  0  0
 35 45  1  0  0  0
 35 68  1  0  0  0
 36 56  1  0  0  0
 36108  1  0  0  0
 37 39  1  0  0  0
 37 47  1  0  0  0
 37 66  1  0  0  0
 37109  1  0  0  0
 38 43  2  0  0  0
 38 46  1  0  0  0
 38 47  1  0  0  0
 39 64  1  0  0  0
 39 67  2  0  0  0
 40 52  1  0  0  0
 40 53  2  0  0  0
 40 58  1  0  0  0
 41110  1  0  0  0
 41111  1  0  0  0
 41112  1  0  0  0
 41 48  1  0  0  0
 42 43  1  0  0  0
 42 66  1  0  0  0
 42113  1  0  0  0
 42114  1  0  0  0
 43 44  1  0  0  0
 44115  1  0  0  0
 45 46  2  0  0  0
 45116  1  0  0  0
 46117  1  0  0  0
 47118  1  0  0  0
 47119  1  0  0  0
 48 56  1  0  0  0
 48 65  1  0  0  0
 48120  1  0  0  0
 49 50  1  0  0  0
 49 53  1  0  0  0
 49 64  1  0  0  0
 49121  1  0  0  0
 50 51  1  0  0  0
 50122  1  0  0  0
 50123  1  0  0  0
 51 52  1  0  0  0
 51124  1  0  0  0
 51125  1  0  0  0
 52126  1  0  0  0
 52127  1  0  0  0
 53 54  1  0  0  0
 54 55  2  0  0  0
 54128  1  0  0  0
 55 57  1  0  0  0
 55129  1  0  0  0
 56 69  2  0  0  0
 57 58  2  0  0  0
 57130  1  0  0  0
 58131  1  0  0  0
 59 60  1  0  0  0
 59 61  1  0  0  0
 59 62  1  0  0  0
 60132  1  0  0  0
 60133  1  0  0  0
 60134  1  0  0  0
 61135  1  0  0  0
 61136  1  0  0  0
 61137  1  0  0  0
 62138  1  0  0  0
 62139  1  0  0  0
 62140  1  0  0  0
 63 65  1  0  0  0
 63141  1  0  0  0
 63142  1  0  0  0
 63143  1  0  0  0
 64144  1  0  0  0
 65145  1  0  0  0
 68 83  1  0  0  0
 71 73  2  0  0  0
 71 75  1  0  0  0
 71146  1  0  0  0
 72 74  1  0  0  0
 72 75  2  0  0  0
 72147  1  0  0  0
 73 76  1  0  0  0
 73148  1  0  0  0
 74 76  2  0  0  0
 74149  1  0  0  0
 75 82  1  0  0  0
 76 84  1  0  0  0
 77 78  1  0  0  0
 77 79  1  0  0  0
 77 86  2  0  0  0
 78 80  1  0  0  0
 78150  1  0  0  0
 78151  1  0  0  0
 79 81  1  0  0  0
 79152  1  0  0  0
 79153  1  0  0  0
 80 84  1  0  0  0
 80154  1  0  0  0
 80155  1  0  0  0
 81 83  1  0  0  0
 81 84  1  0  0  0
 81156  1  0  0  0
 82 85  1  0  0  0
 82157  1  0  0  0
 82158  1  0  0  0
 83159  1  0  0  0
 83160  1  0  0  0
 85161  1  0  0  0
M  ISO  4   1 100  68 101  83 101  85 100
M  END
> <chiral flag>
0

> <version>
0

> <s_m_source_file>
/data/baiqing/PycharmProjects/Reinvent-master-3.2/result/LINK_invent/BTK/process_docking_weight1_custom_product_contain_oxygen_bond_distance_aromatic_linkinvent_7_9_3/rearranged_h_0098.sdf

> <i_m_source_file_index>
90

> <r_mmod_Potential_Energy-OPLS-2005>
-28.2348861694336

> <r_mmod_Stretch_Energy-OPLS-2005>
84.4166717529297

> <r_mmod_Bend_Energy-OPLS-2005>
157.562957763672

> <r_mmod_Torsional_Energy-OPLS-2005>
187.375106811523

> <r_mmod_Improper_Torsional_Energy-OPLS-2005>
6.81537437438965

> <r_mmod_Van_der_Waal_Energy-OPLS-2005>
171.08430480957

> <r_mmod_Electrostatic_Energy-OPLS-2005>
-449.729187011719

> <r_mmod_Solvation_Energy-OPLS-2005>
-239.561599731445

> <b_mmod_Minimization_Converged-OPLS-2005>
0

> <r_mmod_RMS_Derivative-OPLS-2005>
3.53187847137451

$$$$
90
                    3D
 Structure written by MMmdl.
142149  0  0  1  0            999 V2000
  -30.3089  -15.6282   20.3270 C   0  0  0  0  0  0
  -30.4233  -13.0752   19.5372 C   0  0  0  0  0  0
  -29.5490  -12.6531   18.3222 C   0  0  0  0  0  0
  -28.1223  -12.2982   18.7666 C   0  0  0  0  0  0
  -27.5952  -13.3072   19.8117 C   0  0  2  0  0  0
  -28.6117  -13.6415   20.9290 C   0  0  0  0  0  0
  -25.2322  -13.8284   20.5796 C   0  0  0  0  0  0
  -24.1711  -13.0433   20.9292 C   0  0  0  0  0  0
  -24.6412  -11.6944   20.8767 C   0  0  0  0  0  0
  -23.9115  -10.4292   21.0399 C   0  0  0  0  0  0
  -24.3651   -9.4205   21.9181 C   0  0  0  0  0  0
  -23.6313   -8.2246   22.0753 C   0  0  0  0  0  0
  -22.4293   -8.0287   21.3544 C   0  0  0  0  0  0
  -21.9939   -9.0262   20.4644 C   0  0  0  0  0  0
  -22.7282  -10.2134   20.3050 C   0  0  0  0  0  0
  -21.6858   -6.0741   22.5279 C   0  0  0  0  0  0
  -21.4018   -6.5643   23.8213 C   0  0  0  0  0  0
  -21.3660   -5.6794   24.9174 C   0  0  0  0  0  0
  -21.6044   -4.3057   24.7224 C   0  0  0  0  0  0
  -21.8818   -3.8150   23.4344 C   0  0  0  0  0  0
  -21.9194   -4.6968   22.3401 C   0  0  0  0  0  0
  -22.7723  -13.5164   21.1925 C   0  0  0  0  0  0
  -22.1662   -4.2153   21.0979 F   0  0  0  0  0  0
  -21.5627   -3.4539   25.7736 F   0  0  0  0  0  0
  -29.7858  -14.2612   20.2711 N   0  0  0  0  0  0
  -26.2768  -12.9613   20.3232 N   0  0  0  0  0  0
  -25.9357  -11.6685   20.5701 N   0  0  0  0  0  0
  -22.0388  -12.8139   22.0475 N   0  0  0  0  0  0
  -25.3914  -15.2025   20.4235 N   0  0  0  0  0  0
  -31.5443  -15.5516   20.1821 O   0  0  0  0  0  0
  -21.6648   -6.8888   21.4243 O   0  0  0  0  0  0
  -22.3399  -14.5463   20.6760 O   0  0  0  0  0  0
  -24.6846  -31.7986   23.1503 C   0  0  0  0  0  0
  -25.9422  -32.4460   23.8054 C   0  0  1  0  0  0
  -27.2265  -26.6941   20.2166 C   0  0  0  0  0  0
  -25.5996  -33.8286   24.1941 N   0  0  0  0  0  0
  -23.5109  -30.3998   21.5046 C   0  0  2  0  0  0
  -24.9679  -28.7374   20.1192 C   0  0  0  0  0  0
  -22.7769  -29.4308   22.4710 C   0  0  0  0  0  0
  -18.0339  -28.1422   22.8454 C   0  0  0  0  0  0
  -24.1496  -36.7150   23.2654 C   0  0  0  0  0  0
  -26.0918  -30.5291   21.4153 C   0  0  0  0  0  0
  -26.1574  -29.0927   20.7660 C   0  0  0  0  0  0
  -27.2718  -28.0998   20.7797 C   0  0  0  0  0  0
  -26.0030  -26.5484   19.5144 C   0  0  0  0  0  0
  -24.9301  -27.4910   19.4697 C   0  0  0  0  0  0
  -23.7650  -29.6945   20.1409 C   0  0  0  0  0  0
  -25.4147  -36.2891   24.0281 C   0  0  1  0  0  0
  -20.5975  -28.3781   23.1141 C   0  0  2  0  0  0
  -20.6804  -26.9440   22.5404 C   0  0  0  0  0  0
  -19.5781  -26.6370   21.5216 C   0  0  0  0  0  0
  -18.1963  -26.7949   22.1619 C   0  0  0  0  0  0
  -19.1605  -28.8927   23.2778 C   0  0  0  0  0  0
  -18.9511  -30.1510   23.8824 C   0  0  0  0  0  0
  -17.6500  -30.6604   24.0550 C   0  0  0  0  0  0
  -25.9127  -34.9281   23.4949 C   0  0  0  0  0  0
  -16.5390  -29.9085   23.6350 C   0  0  0  0  0  0
  -16.7319  -28.6508   23.0367 C   0  0  0  0  0  0
  -26.4597  -31.6500   25.0682 C   0  0  0  0  0  0
  -25.3660  -31.3820   26.1295 C   0  0  0  0  0  0
  -27.0533  -30.2837   24.6588 C   0  0  0  0  0  0
  -27.6041  -32.4365   25.7503 C   0  0  0  0  0  0
  -27.5562  -37.1734   24.8467 C   0  0  0  0  0  0
  -21.4416  -29.3026   22.3460 N   0  0  0  0  0  0
  -26.4272  -37.3652   23.9406 N   0  0  0  0  0  0
  -24.7861  -30.9424   22.0760 N   0  0  0  0  0  0
  -23.4209  -28.7913   23.3060 O   0  0  0  0  0  0
  -28.1986  -25.4803   20.2837 O   0  0  0  0  0  0
  -26.5770  -34.8862   22.4568 O   0  0  0  0  0  0
  -23.5864  -32.1063   23.6453 O   0  0  0  0  0  0
  -29.7881  -18.5292   20.3177 C   0  0  0  0  0  0
  -28.7721  -20.1038   20.2903 C   0  0  0  0  0  0
  -29.0017  -22.0426   20.3063 C   0  0  0  0  0  0
  -28.0132  -23.7240   20.2027 C   0  0  0  0  0  0
  -29.5415  -16.9898   20.3559 N   0  0  0  0  0  0
  -30.9864  -18.8185   20.2921 O   0  0  0  0  0  0
  -31.4174  -13.3334   19.1706 H   0  0  0  0  0  0
  -30.5816  -12.2322   20.2121 H   0  0  0  0  0  0
  -30.0020  -11.8106   17.7977 H   0  0  0  0  0  0
  -29.5110  -13.4760   17.6069 H   0  0  0  0  0  0
  -28.1487  -11.3005   19.2065 H   0  0  0  0  0  0
  -27.4525  -12.2401   17.9077 H   0  0  0  0  0  0
  -27.4573  -14.2278   19.2427 H   0  0  0  0  0  0
  -28.8707  -12.7611   21.5194 H   0  0  0  0  0  0
  -28.1793  -14.3617   21.6252 H   0  0  0  0  0  0
  -25.2790   -9.5679   22.4766 H   0  0  0  0  0  0
  -24.0013   -7.4638   22.7478 H   0  0  0  0  0  0
  -21.0869   -8.8790   19.8950 H   0  0  0  0  0  0
  -22.3740  -10.9676   19.6163 H   0  0  0  0  0  0
  -21.2013   -7.6151   23.9718 H   0  0  0  0  0  0
  -21.1482   -6.0524   25.9077 H   0  0  0  0  0  0
  -22.0596   -2.7612   23.2843 H   0  0  0  0  0  0
  -22.4030  -11.9815   22.4870 H   0  0  0  0  0  0
  -21.0994  -13.1133   22.2674 H   0  0  0  0  0  0
  -24.6177  -15.8493   20.5333 H   0  0  0  0  0  0
  -26.2276  -15.6428   20.0642 H   0  0  0  0  0  0
  -26.7506  -32.4930   23.0768 H   0  0  0  0  0  0
  -25.0052  -33.9322   25.0032 H   0  0  0  0  0  0
  -22.8368  -31.2373   21.3135 H   0  0  0  0  0  0
  -23.3774  -35.9463   23.3269 H   0  0  0  0  0  0
  -24.3561  -36.8860   22.2077 H   0  0  0  0  0  0
  -23.7241  -37.6311   23.6762 H   0  0  0  0  0  0
  -26.2956  -31.2535   20.6256 H   0  0  0  0  0  0
  -26.9424  -30.5972   22.0811 H   0  0  0  0  0  0
  -28.1683  -28.3794   21.3147 H   0  0  0  0  0  0
  -25.8362  -25.6052   19.0139 H   0  0  0  0  0  0
  -24.0322  -27.2100   18.9365 H   0  0  0  0  0  0
  -23.9414  -30.4534   19.3778 H   0  0  0  0  0  0
  -22.8695  -29.1616   19.8168 H   0  0  0  0  0  0
  -25.1358  -36.1652   25.0771 H   0  0  0  0  0  0
  -21.0056  -28.3408   24.1267 H   0  0  0  0  0  0
  -20.5666  -26.2406   23.3667 H   0  0  0  0  0  0
  -21.6666  -26.7380   22.1224 H   0  0  0  0  0  0
  -19.6936  -25.6261   21.1294 H   0  0  0  0  0  0
  -19.6724  -27.3140   20.6714 H   0  0  0  0  0  0
  -17.4233  -26.6691   21.4022 H   0  0  0  0  0  0
  -18.0351  -26.0109   22.9032 H   0  0  0  0  0  0
  -19.7986  -30.7345   24.2161 H   0  0  0  0  0  0
  -17.5050  -31.6276   24.5167 H   0  0  0  0  0  0
  -15.5387  -30.2963   23.7716 H   0  0  0  0  0  0
  -15.8720  -28.0801   22.7124 H   0  0  0  0  0  0
  -24.5871  -30.7143   25.7594 H   0  0  0  0  0  0
  -24.8822  -32.3042   26.4519 H   0  0  0  0  0  0
  -25.7835  -30.9114   27.0205 H   0  0  0  0  0  0
  -26.3251  -29.6446   24.1584 H   0  0  0  0  0  0
  -27.3960  -29.7290   25.5333 H   0  0  0  0  0  0
  -27.9231  -30.3961   24.0115 H   0  0  0  0  0  0
  -27.2577  -33.3738   26.1870 H   0  0  0  0  0  0
  -28.3960  -32.6813   25.0411 H   0  0  0  0  0  0
  -28.0591  -31.8637   26.5593 H   0  0  0  0  0  0
  -28.2552  -38.0054   24.7507 H   0  0  0  0  0  0
  -28.1085  -36.2575   24.6307 H   0  0  0  0  0  0
  -27.2275  -37.1383   25.8869 H   0  0  0  0  0  0
  -20.9724  -29.8679   21.6521 H   0  0  0  0  0  0
  -26.0098  -38.2700   24.1414 H   0  0  0  0  0  0
  -28.0794  -19.9259   21.1124 H   0  0  0  0  0  0
  -28.1600  -19.9373   19.4044 H   0  0  0  0  0  0
  -29.7535  -22.1795   19.5291 H   0  0  0  0  0  0
  -29.5714  -22.1815   21.2250 H   0  0  0  0  0  0
  -27.2341  -23.5761   20.9506 H   0  0  0  0  0  0
  -27.4776  -23.6198   19.2590 H   0  0  0  0  0  0
  -28.5503  -16.8131   20.4004 H   0  0  0  0  0  0
  1 25  1  0  0  0
  1 30  2  0  0  0
  1 75  1  0  0  0
  2  3  1  0  0  0
  2 25  1  0  0  0
  2 77  1  0  0  0
  2 78  1  0  0  0
  3  4  1  0  0  0
  3 79  1  0  0  0
  3 80  1  0  0  0
  4  5  1  0  0  0
  4 81  1  0  0  0
  4 82  1  0  0  0
  5  6  1  0  0  0
  5 26  1  0  0  0
  5 83  1  0  0  0
  6 25  1  0  0  0
  6 84  1  0  0  0
  6 85  1  0  0  0
  7  8  2  0  0  0
  7 26  1  0  0  0
  7 29  1  0  0  0
  8  9  1  0  0  0
  8 22  1  0  0  0
  9 10  1  0  0  0
  9 27  2  0  0  0
 10 11  2  0  0  0
 10 15  1  0  0  0
 11 12  1  0  0  0
 11 86  1  0  0  0
 12 13  2  0  0  0
 12 87  1  0  0  0
 13 14  1  0  0  0
 13 31  1  0  0  0
 14 15  2  0  0  0
 14 88  1  0  0  0
 15 89  1  0  0  0
 16 17  2  0  0  0
 16 21  1  0  0  0
 16 31  1  0  0  0
 17 18  1  0  0  0
 17 90  1  0  0  0
 18 19  2  0  0  0
 18 91  1  0  0  0
 19 20  1  0  0  0
 19 24  1  0  0  0
 20 21  2  0  0  0
 20 92  1  0  0  0
 21 23  1  0  0  0
 22 28  1  0  0  0
 22 32  2  0  0  0
 26 27  1  0  0  0
 28 93  1  0  0  0
 28 94  1  0  0  0
 29 95  1  0  0  0
 29 96  1  0  0  0
 33 34  1  0  0  0
 33 66  1  0  0  0
 33 70  2  0  0  0
 34 36  1  0  0  0
 34 59  1  0  0  0
 34 97  1  0  0  0
 35 44  2  0  0  0
 35 45  1  0  0  0
 35 68  1  0  0  0
 36 56  1  0  0  0
 36 98  1  0  0  0
 37 39  1  0  0  0
 37 47  1  0  0  0
 37 66  1  0  0  0
 37 99  1  0  0  0
 38 43  2  0  0  0
 38 46  1  0  0  0
 38 47  1  0  0  0
 39 64  1  0  0  0
 39 67  2  0  0  0
 40 52  1  0  0  0
 40 53  2  0  0  0
 40 58  1  0  0  0
 41100  1  0  0  0
 41101  1  0  0  0
 41102  1  0  0  0
 41 48  1  0  0  0
 42 43  1  0  0  0
 42 66  1  0  0  0
 42103  1  0  0  0
 42104  1  0  0  0
 43 44  1  0  0  0
 44105  1  0  0  0
 45 46  2  0  0  0
 45106  1  0  0  0
 46107  1  0  0  0
 47108  1  0  0  0
 47109  1  0  0  0
 48 56  1  0  0  0
 48 65  1  0  0  0
 48110  1  0  0  0
 49 50  1  0  0  0
 49 53  1  0  0  0
 49 64  1  0  0  0
 49111  1  0  0  0
 50 51  1  0  0  0
 50112  1  0  0  0
 50113  1  0  0  0
 51 52  1  0  0  0
 51114  1  0  0  0
 51115  1  0  0  0
 52116  1  0  0  0
 52117  1  0  0  0
 53 54  1  0  0  0
 54 55  2  0  0  0
 54118  1  0  0  0
 55 57  1  0  0  0
 55119  1  0  0  0
 56 69  2  0  0  0
 57 58  2  0  0  0
 57120  1  0  0  0
 58121  1  0  0  0
 59 60  1  0  0  0
 59 61  1  0  0  0
 59 62  1  0  0  0
 60122  1  0  0  0
 60123  1  0  0  0
 60124  1  0  0  0
 61125  1  0  0  0
 61126  1  0  0  0
 61127  1  0  0  0
 62128  1  0  0  0
 62129  1  0  0  0
 62130  1  0  0  0
 63 65  1  0  0  0
 63131  1  0  0  0
 63132  1  0  0  0
 63133  1  0  0  0
 64134  1  0  0  0
 65135  1  0  0  0
 68 74  1  0  0  0
 71 72  1  0  0  0
 71 75  1  0  0  0
 71 76  2  0  0  0
 72 73  1  0  0  0
 72136  1  0  0  0
 72137  1  0  0  0
 73 74  1  0  0  0
 73138  1  0  0  0
 73139  1  0  0  0
 74140  1  0  0  0
 74141  1  0  0  0
 75142  1  0  0  0
M  ISO  4   1 100  68 101  74 101  75 100
M  END
> <chiral flag>
0

> <version>
0

> <s_m_source_file>
/data/baiqing/PycharmProjects/Reinvent-master-3.2/result/LINK_invent/BTK/process_docking_weight1_custom_product_contain_oxygen_bond_distance_aromatic_linkinvent_7_9_3/rearranged_h_0098.sdf

> <i_m_source_file_index>
91

> <r_mmod_Potential_Energy-OPLS-2005>
2342.64111328125

> <r_mmod_Stretch_Energy-OPLS-2005>
1152.82373046875

> <r_mmod_Bend_Energy-OPLS-2005>
627.247924804688

> <r_mmod_Torsional_Energy-OPLS-2005>
207.022445678711

> <r_mmod_Improper_Torsional_Energy-OPLS-2005>
3.80306768417358

> <r_mmod_Van_der_Waal_Energy-OPLS-2005>
108.830497741699

> <r_mmod_Electrostatic_Energy-OPLS-2005>
-417.143402099609

> <r_mmod_Solvation_Energy-OPLS-2005>
-238.104232788086

> <b_mmod_Minimization_Converged-OPLS-2005>
1

> <r_mmod_RMS_Derivative-OPLS-2005>
0.0440258681774139

$$$$
91
                    3D
 Structure written by MMmdl.
158166  0  0  1  0            999 V2000
  -30.7282  -14.4799   20.5937 C   0  0  0  0  0  0
  -30.4188  -12.3288   19.4152 C   0  0  0  0  0  0
  -29.4877  -12.5050   18.2008 C   0  0  0  0  0  0
  -28.0118  -12.3624   18.6198 C   0  0  0  0  0  0
  -27.6566  -13.2124   19.8683 C   0  0  2  0  0  0
  -28.7019  -13.0192   20.9879 C   0  0  0  0  0  0
  -25.2572  -13.8178   20.5680 C   0  0  0  0  0  0
  -24.1831  -13.0442   20.9176 C   0  0  0  0  0  0
  -24.6396  -11.6912   20.8736 C   0  0  0  0  0  0
  -23.9064  -10.4291   21.0395 C   0  0  0  0  0  0
  -24.3612   -9.4209   21.9174 C   0  0  0  0  0  0
  -23.6285   -8.2248   22.0750 C   0  0  0  0  0  0
  -22.4269   -8.0281   21.3539 C   0  0  0  0  0  0
  -21.9906   -9.0257   20.4643 C   0  0  0  0  0  0
  -22.7234  -10.2135   20.3049 C   0  0  0  0  0  0
  -21.6858   -6.0732   22.5271 C   0  0  0  0  0  0
  -21.4018   -6.5638   23.8203 C   0  0  0  0  0  0
  -21.3658   -5.6792   24.9165 C   0  0  0  0  0  0
  -21.6045   -4.3053   24.7221 C   0  0  0  0  0  0
  -21.8822   -3.8143   23.4341 C   0  0  0  0  0  0
  -21.9194   -4.6958   22.3393 C   0  0  0  0  0  0
  -22.7853  -13.5232   21.1836 C   0  0  0  0  0  0
  -22.1662   -4.2144   21.0971 F   0  0  0  0  0  0
  -21.5628   -3.4533   25.7734 F   0  0  0  0  0  0
  -30.0264  -13.3255   20.4237 N   0  0  0  0  0  0
  -26.3003  -12.9355   20.3349 N   0  0  0  0  0  0
  -25.9324  -11.6509   20.5767 N   0  0  0  0  0  0
  -22.0509  -12.8218   22.0401 N   0  0  0  0  0  0
  -25.4319  -15.1890   20.4091 N   0  0  0  0  0  0
  -31.8509  -14.6498   20.1127 O   0  0  0  0  0  0
  -21.6639   -6.8871   21.4232 O   0  0  0  0  0  0
  -22.3530  -14.5536   20.6686 O   0  0  0  0  0  0
  -24.6161  -31.8671   23.2095 C   0  0  0  0  0  0
  -25.9062  -32.4816   23.8390 C   0  0  1  0  0  0
  -27.2306  -27.4127   20.0947 C   0  0  0  0  0  0
  -25.5914  -33.8612   24.2329 N   0  0  0  0  0  0
  -23.4048  -30.4923   21.5520 C   0  0  2  0  0  0
  -24.8502  -28.9618   20.1129 C   0  0  0  0  0  0
  -22.7429  -29.4648   22.4978 C   0  0  0  0  0  0
  -18.0276  -28.1362   22.8485 C   0  0  0  0  0  0
  -24.1499  -36.7318   23.2632 C   0  0  0  0  0  0
  -25.9374  -30.8258   21.3694 C   0  0  0  0  0  0
  -26.0145  -29.4619   20.7092 C   0  0  0  0  0  0
  -27.2074  -28.6975   20.6930 C   0  0  0  0  0  0
  -26.0410  -26.9388   19.4887 C   0  0  0  0  0  0
  -24.8606  -27.7009   19.4985 C   0  0  0  0  0  0
  -23.6144  -29.8304   20.1652 C   0  0  0  0  0  0
  -25.4116  -36.3104   24.0334 C   0  0  1  0  0  0
  -20.5868  -28.3673   23.1298 C   0  0  2  0  0  0
  -20.6775  -26.9408   22.5401 C   0  0  0  0  0  0
  -19.5756  -26.6377   21.5202 C   0  0  0  0  0  0
  -18.1929  -26.7914   22.1609 C   0  0  0  0  0  0
  -19.1521  -28.8832   23.2894 C   0  0  0  0  0  0
  -18.9455  -30.1432   23.8913 C   0  0  0  0  0  0
  -17.6459  -30.6579   24.0553 C   0  0  0  0  0  0
  -25.9040  -34.9472   23.5128 C   0  0  0  0  0  0
  -16.5352  -29.9074   23.6313 C   0  0  0  0  0  0
  -16.7265  -28.6481   23.0343 C   0  0  0  0  0  0
  -26.4487  -31.6586   25.0719 C   0  0  0  0  0  0
  -25.3746  -31.3681   26.1458 C   0  0  0  0  0  0
  -27.0325  -30.3020   24.6115 C   0  0  0  0  0  0
  -27.6065  -32.4299   25.7471 C   0  0  0  0  0  0
  -27.5598  -37.1812   24.8460 C   0  0  0  0  0  0
  -21.4148  -29.3054   22.3731 N   0  0  0  0  0  0
  -26.4309  -37.3783   23.9402 N   0  0  0  0  0  0
  -24.6706  -31.0751   22.1022 N   0  0  0  0  0  0
  -23.4201  -28.8177   23.3011 O   0  0  0  0  0  0
  -28.3895  -26.6488   20.1236 O   0  0  0  0  0  0
  -26.5598  -34.8930   22.4690 O   0  0  0  0  0  0
  -23.5345  -32.1435   23.7479 O   0  0  0  0  0  0
  -29.5071  -18.5313   20.8970 C   0  0  0  0  0  0
  -29.4104  -19.9201   20.6123 C   0  0  0  0  0  0
  -31.7295  -18.8888   21.7867 C   0  0  0  0  0  0
  -30.6713  -18.0029   21.5009 C   0  0  0  0  0  0
  -30.4712  -20.8129   20.9277 C   0  0  0  0  0  0
  -31.6390  -20.2709   21.5299 C   0  0  0  0  0  0
  -32.4717  -22.2335   22.6030 C   0  0  0  0  0  0
  -30.8218  -16.5488   21.9784 C   0  0  0  0  0  0
  -29.4790  -24.3883   20.3573 C   0  0  0  0  0  0
  -28.2221  -25.2186   20.0044 C   0  0  0  0  0  0
  -29.2384  -22.8491   20.3417 C   0  0  0  0  0  0
  -30.1144  -15.4627   21.2811 N   0  0  0  0  0  0
  -32.7302  -21.0262   21.8952 O   0  0  0  0  0  0
  -30.4581  -22.1745   20.6577 O   0  0  0  0  0  0
  -31.4610  -12.4289   19.1075 H   0  0  0  0  0  0
  -30.3278  -11.3235   19.8298 H   0  0  0  0  0  0
  -29.7309  -11.7712   17.4310 H   0  0  0  0  0  0
  -29.6484  -13.4857   17.7506 H   0  0  0  0  0  0
  -27.8275  -11.3078   18.8258 H   0  0  0  0  0  0
  -27.3584  -12.6267   17.7877 H   0  0  0  0  0  0
  -27.6937  -14.2564   19.5570 H   0  0  0  0  0  0
  -28.6885  -11.9905   21.3509 H   0  0  0  0  0  0
  -28.4576  -13.6346   21.8544 H   0  0  0  0  0  0
  -25.2758   -9.5689   22.4743 H   0  0  0  0  0  0
  -23.9996   -7.4644   22.7470 H   0  0  0  0  0  0
  -21.0837   -8.8770   19.8950 H   0  0  0  0  0  0
  -22.3685  -10.9669   19.6157 H   0  0  0  0  0  0
  -21.2019   -7.6150   23.9702 H   0  0  0  0  0  0
  -21.1477   -6.0523   25.9067 H   0  0  0  0  0  0
  -22.0607   -2.7608   23.2839 H   0  0  0  0  0  0
  -22.4127  -11.9867   22.4764 H   0  0  0  0  0  0
  -21.1136  -13.1241   22.2632 H   0  0  0  0  0  0
  -24.6715  -15.8512   20.5175 H   0  0  0  0  0  0
  -26.2896  -15.6223   20.0916 H   0  0  0  0  0  0
  -26.7148  -32.5519   23.1158 H   0  0  0  0  0  0
  -25.0056  -33.9768   25.0473 H   0  0  0  0  0  0
  -22.6935  -31.3095   21.4165 H   0  0  0  0  0  0
  -23.3752  -35.9657   23.3282 H   0  0  0  0  0  0
  -24.3594  -36.8935   22.2047 H   0  0  0  0  0  0
  -23.7269  -37.6527   23.6658 H   0  0  0  0  0  0
  -26.0606  -31.5976   20.6091 H   0  0  0  0  0  0
  -26.8200  -30.8684   21.9954 H   0  0  0  0  0  0
  -28.1033  -29.0821   21.1605 H   0  0  0  0  0  0
  -25.9970  -25.9783   18.9991 H   0  0  0  0  0  0
  -23.9669  -27.3100   19.0308 H   0  0  0  0  0  0
  -23.7258  -30.6084   19.4094 H   0  0  0  0  0  0
  -22.7377  -29.2540   19.8660 H   0  0  0  0  0  0
  -25.1295  -36.1960   25.0827 H   0  0  0  0  0  0
  -20.9960  -28.3240   24.1419 H   0  0  0  0  0  0
  -20.5681  -26.2279   23.3595 H   0  0  0  0  0  0
  -21.6645  -26.7452   22.1197 H   0  0  0  0  0  0
  -19.6916  -25.6287   21.1228 H   0  0  0  0  0  0
  -19.6679  -27.3195   20.6743 H   0  0  0  0  0  0
  -17.4198  -26.6655   21.4009 H   0  0  0  0  0  0
  -18.0322  -26.0056   22.9000 H   0  0  0  0  0  0
  -19.7939  -30.7227   24.2294 H   0  0  0  0  0  0
  -17.5022  -31.6265   24.5158 H   0  0  0  0  0  0
  -15.5352  -30.2982   23.7639 H   0  0  0  0  0  0
  -15.8659  -28.0812   22.7051 H   0  0  0  0  0  0
  -24.5936  -30.7014   25.7788 H   0  0  0  0  0  0
  -24.8916  -32.2830   26.4900 H   0  0  0  0  0  0
  -25.8099  -30.8856   27.0216 H   0  0  0  0  0  0
  -26.2878  -29.6750   24.1199 H   0  0  0  0  0  0
  -27.4114  -29.7283   25.4578 H   0  0  0  0  0  0
  -27.8707  -30.4312   23.9261 H   0  0  0  0  0  0
  -27.2694  -33.3590   26.2075 H   0  0  0  0  0  0
  -28.3858  -32.6856   25.0288 H   0  0  0  0  0  0
  -28.0756  -31.8397   26.5357 H   0  0  0  0  0  0
  -28.2597  -38.0125   24.7522 H   0  0  0  0  0  0
  -28.1117  -36.2662   24.6268 H   0  0  0  0  0  0
  -27.2314  -37.1416   25.8857 H   0  0  0  0  0  0
  -20.9308  -29.8788   21.6964 H   0  0  0  0  0  0
  -26.0197  -38.2857   24.1404 H   0  0  0  0  0  0
  -28.6724  -17.8820   20.6689 H   0  0  0  0  0  0
  -28.5043  -20.2844   20.1495 H   0  0  0  0  0  0
  -32.6267  -18.5120   22.2593 H   0  0  0  0  0  0
  -32.4812  -23.0852   21.9232 H   0  0  0  0  0  0
  -33.2552  -22.3930   23.3443 H   0  0  0  0  0  0
  -31.5196  -22.2171   23.1371 H   0  0  0  0  0  0
  -30.4812  -16.5268   23.0149 H   0  0  0  0  0  0
  -31.8878  -16.3162   22.0338 H   0  0  0  0  0  0
  -29.8353  -24.6814   21.3450 H   0  0  0  0  0  0
  -30.2773  -24.6400   19.6584 H   0  0  0  0  0  0
  -27.4101  -24.8989   20.6617 H   0  0  0  0  0  0
  -27.9327  -24.9716   18.9830 H   0  0  0  0  0  0
  -28.8847  -22.5309   19.3602 H   0  0  0  0  0  0
  -28.4728  -22.5863   21.0748 H   0  0  0  0  0  0
  -29.1596  -15.2910   21.5566 H   0  0  0  0  0  0
  1 25  1  0  0  0
  1 30  2  0  0  0
  1 82  1  0  0  0
  2  3  1  0  0  0
  2 25  1  0  0  0
  2 85  1  0  0  0
  2 86  1  0  0  0
  3  4  1  0  0  0
  3 87  1  0  0  0
  3 88  1  0  0  0
  4  5  1  0  0  0
  4 89  1  0  0  0
  4 90  1  0  0  0
  5  6  1  0  0  0
  5 26  1  0  0  0
  5 91  1  0  0  0
  6 25  1  0  0  0
  6 92  1  0  0  0
  6 93  1  0  0  0
  7  8  2  0  0  0
  7 26  1  0  0  0
  7 29  1  0  0  0
  8  9  1  0  0  0
  8 22  1  0  0  0
  9 10  1  0  0  0
  9 27  2  0  0  0
 10 11  2  0  0  0
 10 15  1  0  0  0
 11 12  1  0  0  0
 11 94  1  0  0  0
 12 13  2  0  0  0
 12 95  1  0  0  0
 13 14  1  0  0  0
 13 31  1  0  0  0
 14 15  2  0  0  0
 14 96  1  0  0  0
 15 97  1  0  0  0
 16 17  2  0  0  0
 16 21  1  0  0  0
 16 31  1  0  0  0
 17 18  1  0  0  0
 17 98  1  0  0  0
 18 19  2  0  0  0
 18 99  1  0  0  0
 19 20  1  0  0  0
 19 24  1  0  0  0
 20 21  2  0  0  0
 20100  1  0  0  0
 21 23  1  0  0  0
 22 28  1  0  0  0
 22 32  2  0  0  0
 26 27  1  0  0  0
 28101  1  0  0  0
 28102  1  0  0  0
 29103  1  0  0  0
 29104  1  0  0  0
 33 34  1  0  0  0
 33 66  1  0  0  0
 33 70  2  0  0  0
 34 36  1  0  0  0
 34 59  1  0  0  0
 34105  1  0  0  0
 35 44  2  0  0  0
 35 45  1  0  0  0
 35 68  1  0  0  0
 36 56  1  0  0  0
 36106  1  0  0  0
 37 39  1  0  0  0
 37 47  1  0  0  0
 37 66  1  0  0  0
 37107  1  0  0  0
 38 43  2  0  0  0
 38 46  1  0  0  0
 38 47  1  0  0  0
 39 64  1  0  0  0
 39 67  2  0  0  0
 40 52  1  0  0  0
 40 53  2  0  0  0
 40 58  1  0  0  0
 41108  1  0  0  0
 41109  1  0  0  0
 41110  1  0  0  0
 41 48  1  0  0  0
 42 43  1  0  0  0
 42 66  1  0  0  0
 42111  1  0  0  0
 42112  1  0  0  0
 43 44  1  0  0  0
 44113  1  0  0  0
 45 46  2  0  0  0
 45114  1  0  0  0
 46115  1  0  0  0
 47116  1  0  0  0
 47117  1  0  0  0
 48 56  1  0  0  0
 48 65  1  0  0  0
 48118  1  0  0  0
 49 50  1  0  0  0
 49 53  1  0  0  0
 49 64  1  0  0  0
 49119  1  0  0  0
 50 51  1  0  0  0
 50120  1  0  0  0
 50121  1  0  0  0
 51 52  1  0  0  0
 51122  1  0  0  0
 51123  1  0  0  0
 52124  1  0  0  0
 52125  1  0  0  0
 53 54  1  0  0  0
 54 55  2  0  0  0
 54126  1  0  0  0
 55 57  1  0  0  0
 55127  1  0  0  0
 56 69  2  0  0  0
 57 58  2  0  0  0
 57128  1  0  0  0
 58129  1  0  0  0
 59 60  1  0  0  0
 59 61  1  0  0  0
 59 62  1  0  0  0
 60130  1  0  0  0
 60131  1  0  0  0
 60132  1  0  0  0
 61133  1  0  0  0
 61134  1  0  0  0
 61135  1  0  0  0
 62136  1  0  0  0
 62137  1  0  0  0
 62138  1  0  0  0
 63 65  1  0  0  0
 63139  1  0  0  0
 63140  1  0  0  0
 63141  1  0  0  0
 64142  1  0  0  0
 65143  1  0  0  0
 68 80  1  0  0  0
 71 72  2  0  0  0
 71 74  1  0  0  0
 71144  1  0  0  0
 72 75  1  0  0  0
 72145  1  0  0  0
 73 74  2  0  0  0
 73 76  1  0  0  0
 73146  1  0  0  0
 74 78  1  0  0  0
 75 76  2  0  0  0
 75 84  1  0  0  0
 76 83  1  0  0  0
 77 83  1  0  0  0
 77147  1  0  0  0
 77148  1  0  0  0
 77149  1  0  0  0
 78 82  1  0  0  0
 78150  1  0  0  0
 78151  1  0  0  0
 79 80  1  0  0  0
 79 81  1  0  0  0
 79152  1  0  0  0
 79153  1  0  0  0
 80154  1  0  0  0
 80155  1  0  0  0
 81 84  1  0  0  0
 81156  1  0  0  0
 81157  1  0  0  0
 82158  1  0  0  0
M  ISO  4   1 100  68 101  80 101  82 100
M  END
> <chiral flag>
0

> <version>
0

> <s_m_source_file>
/data/baiqing/PycharmProjects/Reinvent-master-3.2/result/LINK_invent/BTK/process_docking_weight1_custom_product_contain_oxygen_bond_distance_aromatic_linkinvent_7_9_3/rearranged_h_0098.sdf

> <i_m_source_file_index>
92

> <r_mmod_Potential_Energy-OPLS-2005>
-86.2657318115234

> <r_mmod_Stretch_Energy-OPLS-2005>
41.1810531616211

> <r_mmod_Bend_Energy-OPLS-2005>
115.606201171875

> <r_mmod_Torsional_Energy-OPLS-2005>
215.113265991211

> <r_mmod_Improper_Torsional_Energy-OPLS-2005>
2.89698338508606

> <r_mmod_Van_der_Waal_Energy-OPLS-2005>
162.091827392578

> <r_mmod_Electrostatic_Energy-OPLS-2005>
-414.357543945312

> <r_mmod_Solvation_Energy-OPLS-2005>
-224.765731811523

> <b_mmod_Minimization_Converged-OPLS-2005>
0

> <r_mmod_RMS_Derivative-OPLS-2005>
1.98839890956879

$$$$
92
                    3D
 Structure written by MMmdl.
159168  0  0  1  0            999 V2000
  -30.6554  -14.6528   20.5890 C   0  0  0  0  0  0
  -30.4294  -12.4274   19.4586 C   0  0  0  0  0  0
  -29.5051  -12.5307   18.2259 C   0  0  0  0  0  0
  -28.0304  -12.3503   18.6332 C   0  0  0  0  0  0
  -27.6470  -13.2229   19.8548 C   0  0  2  0  0  0
  -28.6803  -13.0863   20.9885 C   0  0  0  0  0  0
  -25.2531  -13.8187   20.5679 C   0  0  0  0  0  0
  -24.1806  -13.0443   20.9178 C   0  0  0  0  0  0
  -24.6385  -11.6916   20.8717 C   0  0  0  0  0  0
  -23.9059  -10.4299   21.0393 C   0  0  0  0  0  0
  -24.3614   -9.4219   21.9171 C   0  0  0  0  0  0
  -23.6289   -8.2253   22.0749 C   0  0  0  0  0  0
  -22.4269   -8.0287   21.3542 C   0  0  0  0  0  0
  -21.9901   -9.0260   20.4643 C   0  0  0  0  0  0
  -22.7232  -10.2137   20.3046 C   0  0  0  0  0  0
  -21.6858   -6.0729   22.5273 C   0  0  0  0  0  0
  -21.4023   -6.5635   23.8207 C   0  0  0  0  0  0
  -21.3671   -5.6789   24.9170 C   0  0  0  0  0  0
  -21.6049   -4.3051   24.7224 C   0  0  0  0  0  0
  -21.8821   -3.8140   23.4346 C   0  0  0  0  0  0
  -21.9195   -4.6956   22.3398 C   0  0  0  0  0  0
  -22.7831  -13.5233   21.1862 C   0  0  0  0  0  0
  -22.1658   -4.2139   21.0977 F   0  0  0  0  0  0
  -21.5631   -3.4538   25.7738 F   0  0  0  0  0  0
  -30.0026  -13.4460   20.4471 N   0  0  0  0  0  0
  -26.2945  -12.9377   20.3248 N   0  0  0  0  0  0
  -25.9306  -11.6524   20.5695 N   0  0  0  0  0  0
  -22.0479  -12.8218   22.0418 N   0  0  0  0  0  0
  -25.4258  -15.1913   20.4167 N   0  0  0  0  0  0
  -31.7406  -14.8410   20.0282 O   0  0  0  0  0  0
  -21.6641   -6.8877   21.4237 O   0  0  0  0  0  0
  -22.3517  -14.5545   20.6721 O   0  0  0  0  0  0
  -24.6287  -31.8568   23.1983 C   0  0  0  0  0  0
  -25.9126  -32.4759   23.8319 C   0  0  1  0  0  0
  -27.2242  -27.2886   20.1128 C   0  0  0  0  0  0
  -25.5930  -33.8561   24.2249 N   0  0  0  0  0  0
  -23.4233  -30.4796   21.5414 C   0  0  2  0  0  0
  -24.8682  -28.9277   20.1076 C   0  0  0  0  0  0
  -22.7487  -29.4619   22.4922 C   0  0  0  0  0  0
  -18.0291  -28.1384   22.8493 C   0  0  0  0  0  0
  -24.1492  -36.7286   23.2639 C   0  0  0  0  0  0
  -25.9657  -30.7779   21.3722 C   0  0  0  0  0  0
  -26.0375  -29.4023   20.7135 C   0  0  0  0  0  0
  -27.2145  -28.5934   20.7065 C   0  0  0  0  0  0
  -26.0258  -26.8677   19.4923 C   0  0  0  0  0  0
  -24.8658  -27.6676   19.4898 C   0  0  0  0  0  0
  -23.6381  -29.8120   20.1570 C   0  0  0  0  0  0
  -25.4118  -36.3073   24.0325 C   0  0  1  0  0  0
  -20.5892  -28.3697   23.1276 C   0  0  2  0  0  0
  -20.6774  -26.9417   22.5411 C   0  0  0  0  0  0
  -19.5750  -26.6385   21.5212 C   0  0  0  0  0  0
  -18.1933  -26.7926   22.1629 C   0  0  0  0  0  0
  -19.1542  -28.8858   23.2879 C   0  0  0  0  0  0
  -18.9466  -30.1458   23.8897 C   0  0  0  0  0  0
  -17.6463  -30.6586   24.0567 C   0  0  0  0  0  0
  -25.9058  -34.9444   23.5090 C   0  0  0  0  0  0
  -16.5355  -29.9087   23.6329 C   0  0  0  0  0  0
  -16.7277  -28.6505   23.0352 C   0  0  0  0  0  0
  -26.4495  -31.6579   25.0705 C   0  0  0  0  0  0
  -25.3724  -31.3727   26.1429 C   0  0  0  0  0  0
  -27.0329  -30.2997   24.6172 C   0  0  0  0  0  0
  -27.6048  -32.4312   25.7487 C   0  0  0  0  0  0
  -27.5575  -37.1803   24.8465 C   0  0  0  0  0  0
  -21.4197  -29.3043   22.3665 N   0  0  0  0  0  0
  -26.4289  -37.3774   23.9406 N   0  0  0  0  0  0
  -24.6917  -31.0558   22.0941 N   0  0  0  0  0  0
  -23.4199  -28.8180   23.3026 O   0  0  0  0  0  0
  -28.3537  -26.4481   20.1904 O   0  0  0  0  0  0
  -26.5631  -34.8922   22.4659 O   0  0  0  0  0  0
  -23.5447  -32.1374   23.7303 O   0  0  0  0  0  0
  -28.8275  -18.9858   19.8668 C   0  0  0  0  0  0
  -29.1797  -17.5920   19.9848 C   0  0  0  0  0  0
  -30.3145  -18.0769   22.0316 C   0  0  0  0  0  0
  -29.1837  -19.9632   20.8452 C   0  0  0  0  0  0
  -29.9047  -17.0755   21.1011 C   0  0  0  0  0  0
  -29.9691  -19.4544   21.9171 C   0  0  0  0  0  0
  -28.8004  -22.5013   20.1786 C   0  0  0  0  0  0
  -28.2850  -23.7596   20.4773 C   0  0  0  0  0  0
  -27.5003  -23.8634   21.7336 C   0  0  0  0  0  0
  -27.5805  -22.6901   22.7136 C   0  0  0  0  0  0
  -27.5837  -21.3375   21.9822 C   0  0  0  0  0  0
  -30.2326  -15.3005   22.8354 C   0  0  0  0  0  0
  -28.4237  -25.0752   19.5965 C   0  0  0  0  0  0
  -28.6057  -21.2939   20.9326 N   0  0  0  0  0  0
  -30.1056  -15.6289   21.4037 N   0  0  0  0  0  0
  -26.7929  -24.8262   22.0373 O   0  0  0  0  0  0
  -30.3530  -20.2961   22.9089 F   0  0  0  0  0  0
  -31.4703  -12.5524   19.1568 H   0  0  0  0  0  0
  -30.3705  -11.4307   19.8995 H   0  0  0  0  0  0
  -29.7823  -11.7828   17.4814 H   0  0  0  0  0  0
  -29.6379  -13.5034   17.7494 H   0  0  0  0  0  0
  -27.8788  -11.2962   18.8688 H   0  0  0  0  0  0
  -27.3738  -12.5719   17.7912 H   0  0  0  0  0  0
  -27.6657  -14.2595   19.5166 H   0  0  0  0  0  0
  -28.6977  -12.0663   21.3757 H   0  0  0  0  0  0
  -28.3732  -13.7164   21.8217 H   0  0  0  0  0  0
  -25.2760   -9.5701   22.4743 H   0  0  0  0  0  0
  -24.0005   -7.4647   22.7468 H   0  0  0  0  0  0
  -21.0832   -8.8780   19.8946 H   0  0  0  0  0  0
  -22.3689  -10.9676   19.6159 H   0  0  0  0  0  0
  -21.2014   -7.6142   23.9708 H   0  0  0  0  0  0
  -21.1490   -6.0515   25.9072 H   0  0  0  0  0  0
  -22.0591   -2.7600   23.2846 H   0  0  0  0  0  0
  -22.4103  -11.9894   22.4821 H   0  0  0  0  0  0
  -21.1097  -13.1244   22.2626 H   0  0  0  0  0  0
  -24.6660  -15.8501   20.5480 H   0  0  0  0  0  0
  -26.2922  -15.6346   20.1396 H   0  0  0  0  0  0
  -26.7197  -32.5416   23.1064 H   0  0  0  0  0  0
  -25.0067  -33.9697   25.0388 H   0  0  0  0  0  0
  -22.7182  -31.3010   21.3969 H   0  0  0  0  0  0
  -23.3749  -35.9622   23.3305 H   0  0  0  0  0  0
  -24.3579  -36.8907   22.2052 H   0  0  0  0  0  0
  -23.7252  -37.6493   23.6662 H   0  0  0  0  0  0
  -26.0993  -31.5405   20.6034 H   0  0  0  0  0  0
  -26.8454  -30.8266   22.0026 H   0  0  0  0  0  0
  -28.1117  -28.9534   21.1907 H   0  0  0  0  0  0
  -25.9400  -25.8964   19.0328 H   0  0  0  0  0  0
  -23.9661  -27.2949   19.0197 H   0  0  0  0  0  0
  -23.7593  -30.5877   19.3996 H   0  0  0  0  0  0
  -22.7570  -29.2435   19.8541 H   0  0  0  0  0  0
  -25.1302  -36.1917   25.0817 H   0  0  0  0  0  0
  -20.9983  -28.3271   24.1396 H   0  0  0  0  0  0
  -20.5667  -26.2310   23.3616 H   0  0  0  0  0  0
  -21.6645  -26.7435   22.1211 H   0  0  0  0  0  0
  -19.6907  -25.6294   21.1247 H   0  0  0  0  0  0
  -19.6680  -27.3192   20.6740 H   0  0  0  0  0  0
  -17.4199  -26.6674   21.4037 H   0  0  0  0  0  0
  -18.0340  -26.0063   22.9023 H   0  0  0  0  0  0
  -19.7942  -30.7278   24.2261 H   0  0  0  0  0  0
  -17.5019  -31.6269   24.5167 H   0  0  0  0  0  0
  -15.5357  -30.2991   23.7647 H   0  0  0  0  0  0
  -15.8680  -28.0827   22.7056 H   0  0  0  0  0  0
  -24.5918  -30.7051   25.7767 H   0  0  0  0  0  0
  -24.8894  -32.2895   26.4821 H   0  0  0  0  0  0
  -25.8048  -30.8943   27.0225 H   0  0  0  0  0  0
  -26.2906  -29.6763   24.1173 H   0  0  0  0  0  0
  -27.3989  -29.7241   25.4683 H   0  0  0  0  0  0
  -27.8793  -30.4266   23.9417 H   0  0  0  0  0  0
  -27.2651  -33.3614   26.2049 H   0  0  0  0  0  0
  -28.3869  -32.6862   25.0325 H   0  0  0  0  0  0
  -28.0697  -31.8444   26.5417 H   0  0  0  0  0  0
  -28.2597  -38.0095   24.7499 H   0  0  0  0  0  0
  -28.1065  -36.2625   24.6304 H   0  0  0  0  0  0
  -27.2290  -37.1468   25.8867 H   0  0  0  0  0  0
  -20.9378  -29.8767   21.6876 H   0  0  0  0  0  0
  -26.0165  -38.2849   24.1399 H   0  0  0  0  0  0
  -28.2018  -19.2885   19.0397 H   0  0  0  0  0  0
  -28.8127  -16.9066   19.2341 H   0  0  0  0  0  0
  -30.8792  -17.8034   22.9086 H   0  0  0  0  0  0
  -29.3734  -22.3475   19.2740 H   0  0  0  0  0  0
  -26.7496  -22.7380   23.4174 H   0  0  0  0  0  0
  -28.4970  -22.7976   23.2931 H   0  0  0  0  0  0
  -26.6093  -21.1711   21.5201 H   0  0  0  0  0  0
  -27.7063  -20.5390   22.7153 H   0  0  0  0  0  0
  -29.4514  -15.7934   23.4157 H   0  0  0  0  0  0
  -31.2016  -15.6208   23.2191 H   0  0  0  0  0  0
  -30.1590  -14.2342   23.0562 H   0  0  0  0  0  0
  -29.4233  -25.0149   19.1661 H   0  0  0  0  0  0
  -27.7764  -24.9775   18.7277 H   0  0  0  0  0  0
  1 25  1  0  0  0
  1 30  2  0  0  0
  1 85  1  0  0  0
  2  3  1  0  0  0
  2 25  1  0  0  0
  2 88  1  0  0  0
  2 89  1  0  0  0
  3  4  1  0  0  0
  3 90  1  0  0  0
  3 91  1  0  0  0
  4  5  1  0  0  0
  4 92  1  0  0  0
  4 93  1  0  0  0
  5  6  1  0  0  0
  5 26  1  0  0  0
  5 94  1  0  0  0
  6 25  1  0  0  0
  6 95  1  0  0  0
  6 96  1  0  0  0
  7  8  2  0  0  0
  7 26  1  0  0  0
  7 29  1  0  0  0
  8  9  1  0  0  0
  8 22  1  0  0  0
  9 10  1  0  0  0
  9 27  2  0  0  0
 10 11  2  0  0  0
 10 15  1  0  0  0
 11 12  1  0  0  0
 11 97  1  0  0  0
 12 13  2  0  0  0
 12 98  1  0  0  0
 13 14  1  0  0  0
 13 31  1  0  0  0
 14 15  2  0  0  0
 14 99  1  0  0  0
 15100  1  0  0  0
 16 17  2  0  0  0
 16 21  1  0  0  0
 16 31  1  0  0  0
 17 18  1  0  0  0
 17101  1  0  0  0
 18 19  2  0  0  0
 18102  1  0  0  0
 19 20  1  0  0  0
 19 24  1  0  0  0
 20 21  2  0  0  0
 20103  1  0  0  0
 21 23  1  0  0  0
 22 28  1  0  0  0
 22 32  2  0  0  0
 26 27  1  0  0  0
 28104  1  0  0  0
 28105  1  0  0  0
 29106  1  0  0  0
 29107  1  0  0  0
 33 34  1  0  0  0
 33 66  1  0  0  0
 33 70  2  0  0  0
 34 36  1  0  0  0
 34 59  1  0  0  0
 34108  1  0  0  0
 35 44  2  0  0  0
 35 45  1  0  0  0
 35 68  1  0  0  0
 36 56  1  0  0  0
 36109  1  0  0  0
 37 39  1  0  0  0
 37 47  1  0  0  0
 37 66  1  0  0  0
 37110  1  0  0  0
 38 43  2  0  0  0
 38 46  1  0  0  0
 38 47  1  0  0  0
 39 64  1  0  0  0
 39 67  2  0  0  0
 40 52  1  0  0  0
 40 53  2  0  0  0
 40 58  1  0  0  0
 41111  1  0  0  0
 41112  1  0  0  0
 41113  1  0  0  0
 41 48  1  0  0  0
 42 43  1  0  0  0
 42 66  1  0  0  0
 42114  1  0  0  0
 42115  1  0  0  0
 43 44  1  0  0  0
 44116  1  0  0  0
 45 46  2  0  0  0
 45117  1  0  0  0
 46118  1  0  0  0
 47119  1  0  0  0
 47120  1  0  0  0
 48 56  1  0  0  0
 48 65  1  0  0  0
 48121  1  0  0  0
 49 50  1  0  0  0
 49 53  1  0  0  0
 49 64  1  0  0  0
 49122  1  0  0  0
 50 51  1  0  0  0
 50123  1  0  0  0
 50124  1  0  0  0
 51 52  1  0  0  0
 51125  1  0  0  0
 51126  1  0  0  0
 52127  1  0  0  0
 52128  1  0  0  0
 53 54  1  0  0  0
 54 55  2  0  0  0
 54129  1  0  0  0
 55 57  1  0  0  0
 55130  1  0  0  0
 56 69  2  0  0  0
 57 58  2  0  0  0
 57131  1  0  0  0
 58132  1  0  0  0
 59 60  1  0  0  0
 59 61  1  0  0  0
 59 62  1  0  0  0
 60133  1  0  0  0
 60134  1  0  0  0
 60135  1  0  0  0
 61136  1  0  0  0
 61137  1  0  0  0
 61138  1  0  0  0
 62139  1  0  0  0
 62140  1  0  0  0
 62141  1  0  0  0
 63 65  1  0  0  0
 63142  1  0  0  0
 63143  1  0  0  0
 63144  1  0  0  0
 64145  1  0  0  0
 65146  1  0  0  0
 68 83  1  0  0  0
 71 72  2  0  0  0
 71 74  1  0  0  0
 71147  1  0  0  0
 72 75  1  0  0  0
 72148  1  0  0  0
 73 75  2  0  0  0
 73 76  1  0  0  0
 73149  1  0  0  0
 74 76  2  0  0  0
 74 84  1  0  0  0
 75 85  1  0  0  0
 76 87  1  0  0  0
 77 78  2  0  0  0
 77 84  1  0  0  0
 77150  1  0  0  0
 78 79  1  0  0  0
 78 83  1  0  0  0
 79 80  1  0  0  0
 79 86  2  0  0  0
 80 81  1  0  0  0
 80151  1  0  0  0
 80152  1  0  0  0
 81 84  1  0  0  0
 81153  1  0  0  0
 81154  1  0  0  0
 82 85  1  0  0  0
 82155  1  0  0  0
 82156  1  0  0  0
 82157  1  0  0  0
 83158  1  0  0  0
 83159  1  0  0  0
M  ISO  4   1 100  68 101  83 101  85 100
M  END
> <chiral flag>
0

> <version>
0

> <s_m_source_file>
/data/baiqing/PycharmProjects/Reinvent-master-3.2/result/LINK_invent/BTK/process_docking_weight1_custom_product_contain_oxygen_bond_distance_aromatic_linkinvent_7_9_3/rearranged_h_0098.sdf

> <i_m_source_file_index>
93

> <r_mmod_Potential_Energy-OPLS-2005>
334.941802978516

> <r_mmod_Stretch_Energy-OPLS-2005>
108.866439819336

> <r_mmod_Bend_Energy-OPLS-2005>
167.902801513672

> <r_mmod_Torsional_Energy-OPLS-2005>
296.380096435547

> <r_mmod_Improper_Torsional_Energy-OPLS-2005>
5.77314758300781

> <r_mmod_Van_der_Waal_Energy-OPLS-2005>
158.052978515625

> <r_mmod_Electrostatic_Energy-OPLS-2005>
-243.512847900391

> <r_mmod_Solvation_Energy-OPLS-2005>
-214.583618164062

> <b_mmod_Minimization_Converged-OPLS-2005>
0

> <r_mmod_RMS_Derivative-OPLS-2005>
0.86333829164505

$$$$
93
                    3D
 Structure written by MMmdl.
155163  0  0  1  0            999 V2000
  -30.6401  -14.6123   20.4997 C   0  0  0  0  0  0
  -30.4424  -12.3746   19.4435 C   0  0  0  0  0  0
  -29.5118  -12.5081   18.2161 C   0  0  0  0  0  0
  -28.0300  -12.3578   18.6242 C   0  0  0  0  0  0
  -27.6577  -13.2149   19.8639 C   0  0  2  0  0  0
  -28.7054  -13.0454   20.9882 C   0  0  0  0  0  0
  -25.2573  -13.8144   20.5654 C   0  0  0  0  0  0
  -24.1840  -13.0435   20.9179 C   0  0  0  0  0  0
  -24.6408  -11.6901   20.8740 C   0  0  0  0  0  0
  -23.9056  -10.4301   21.0415 C   0  0  0  0  0  0
  -24.3615   -9.4212   21.9181 C   0  0  0  0  0  0
  -23.6301   -8.2241   22.0752 C   0  0  0  0  0  0
  -22.4273   -8.0281   21.3543 C   0  0  0  0  0  0
  -21.9909   -9.0251   20.4638 C   0  0  0  0  0  0
  -22.7239  -10.2134   20.3056 C   0  0  0  0  0  0
  -21.6840   -6.0741   22.5298 C   0  0  0  0  0  0
  -21.4003   -6.5647   23.8226 C   0  0  0  0  0  0
  -21.3659   -5.6790   24.9178 C   0  0  0  0  0  0
  -21.6048   -4.3051   24.7225 C   0  0  0  0  0  0
  -21.8817   -3.8150   23.4338 C   0  0  0  0  0  0
  -21.9187   -4.6970   22.3404 C   0  0  0  0  0  0
  -22.7867  -13.5243   21.1855 C   0  0  0  0  0  0
  -22.1660   -4.2153   21.0983 F   0  0  0  0  0  0
  -21.5632   -3.4524   25.7747 F   0  0  0  0  0  0
  -30.0261  -13.3888   20.4315 N   0  0  0  0  0  0
  -26.3017  -12.9340   20.3306 N   0  0  0  0  0  0
  -25.9333  -11.6494   20.5741 N   0  0  0  0  0  0
  -22.0481  -12.8248   22.0409 N   0  0  0  0  0  0
  -25.4242  -15.1868   20.4054 N   0  0  0  0  0  0
  -31.7982  -14.7761   20.1081 O   0  0  0  0  0  0
  -21.6640   -6.8875   21.4257 O   0  0  0  0  0  0
  -22.3571  -14.5547   20.6699 O   0  0  0  0  0  0
  -24.6251  -31.8612   23.2038 C   0  0  0  0  0  0
  -25.9097  -32.4795   23.8391 C   0  0  1  0  0  0
  -27.2236  -27.3206   20.1194 C   0  0  0  0  0  0
  -25.5923  -33.8585   24.2343 N   0  0  0  0  0  0
  -23.4199  -30.4876   21.5451 C   0  0  2  0  0  0
  -24.8663  -28.9434   20.1108 C   0  0  0  0  0  0
  -22.7479  -29.4664   22.4926 C   0  0  0  0  0  0
  -18.0295  -28.1367   22.8489 C   0  0  0  0  0  0
  -24.1474  -36.7250   23.2649 C   0  0  0  0  0  0
  -25.9619  -30.7928   21.3729 C   0  0  0  0  0  0
  -26.0364  -29.4192   20.7176 C   0  0  0  0  0  0
  -27.2172  -28.6197   20.7128 C   0  0  0  0  0  0
  -26.0269  -26.8978   19.4916 C   0  0  0  0  0  0
  -24.8639  -27.6865   19.4896 C   0  0  0  0  0  0
  -23.6335  -29.8208   20.1602 C   0  0  0  0  0  0
  -25.4101  -36.3080   24.0360 C   0  0  1  0  0  0
  -20.5906  -28.3688   23.1254 C   0  0  2  0  0  0
  -20.6798  -26.9408   22.5395 C   0  0  0  0  0  0
  -19.5762  -26.6373   21.5202 C   0  0  0  0  0  0
  -18.1942  -26.7922   22.1615 C   0  0  0  0  0  0
  -19.1548  -28.8843   23.2876 C   0  0  0  0  0  0
  -18.9472  -30.1444   23.8894 C   0  0  0  0  0  0
  -17.6481  -30.6586   24.0561 C   0  0  0  0  0  0
  -25.9037  -34.9453   23.5150 C   0  0  0  0  0  0
  -16.5368  -29.9090   23.6334 C   0  0  0  0  0  0
  -16.7288  -28.6497   23.0366 C   0  0  0  0  0  0
  -26.4482  -31.6567   25.0737 C   0  0  0  0  0  0
  -25.3730  -31.3736   26.1494 C   0  0  0  0  0  0
  -27.0295  -30.3000   24.6145 C   0  0  0  0  0  0
  -27.6120  -32.4227   25.7460 C   0  0  0  0  0  0
  -27.5567  -37.1790   24.8489 C   0  0  0  0  0  0
  -21.4194  -29.3043   22.3645 N   0  0  0  0  0  0
  -26.4283  -37.3768   23.9426 N   0  0  0  0  0  0
  -24.6879  -31.0650   22.0970 N   0  0  0  0  0  0
  -23.4210  -28.8215   23.3006 O   0  0  0  0  0  0
  -28.3416  -26.4692   20.1684 O   0  0  0  0  0  0
  -26.5585  -34.8918   22.4706 O   0  0  0  0  0  0
  -23.5416  -32.1398   23.7364 O   0  0  0  0  0  0
  -28.8079  -17.8812   21.1369 C   0  0  0  0  0  0
  -28.7677  -19.2958   21.0058 C   0  0  0  0  0  0
  -30.9991  -17.8322   20.1448 C   0  0  0  0  0  0
  -29.9165  -17.1048   20.7114 C   0  0  0  0  0  0
  -29.8455  -20.0265   20.4420 C   0  0  0  0  0  0
  -30.9777  -19.2669   20.0214 C   0  0  0  0  0  0
  -28.8938  -22.4387   20.4028 C   0  0  0  0  0  0
  -33.2719  -19.3385   19.2739 C   0  0  0  0  0  0
  -29.2733  -23.9740   20.3599 C   0  0  0  0  0  0
  -28.0892  -25.0082   20.1195 C   0  0  0  0  0  0
  -29.8803  -21.4880   20.3250 N   0  0  0  0  0  0
  -29.8357  -15.6519   20.8760 N   0  0  0  0  0  0
  -27.7033  -22.1275   20.4899 O   0  0  0  0  0  0
  -32.0241  -19.9933   19.4859 O   0  0  0  0  0  0
  -31.4851  -12.4924   19.1424 H   0  0  0  0  0  0
  -30.3713  -11.3718   19.8711 H   0  0  0  0  0  0
  -29.7726  -11.7584   17.4661 H   0  0  0  0  0  0
  -29.6617  -13.4781   17.7418 H   0  0  0  0  0  0
  -27.8544  -11.3024   18.8380 H   0  0  0  0  0  0
  -27.3784  -12.6021   17.7833 H   0  0  0  0  0  0
  -27.6834  -14.2552   19.5408 H   0  0  0  0  0  0
  -28.7073  -12.0148   21.3468 H   0  0  0  0  0  0
  -28.4555  -13.6550   21.8576 H   0  0  0  0  0  0
  -25.2760   -9.5691   22.4757 H   0  0  0  0  0  0
  -24.0017   -7.4624   22.7469 H   0  0  0  0  0  0
  -21.0830   -8.8747   19.8954 H   0  0  0  0  0  0
  -22.3682  -10.9654   19.6169 H   0  0  0  0  0  0
  -21.1987   -7.6149   23.9736 H   0  0  0  0  0  0
  -21.1489   -6.0514   25.9089 H   0  0  0  0  0  0
  -22.0596   -2.7613   23.2836 H   0  0  0  0  0  0
  -22.4074  -11.9915   22.4818 H   0  0  0  0  0  0
  -21.1103  -13.1305   22.2582 H   0  0  0  0  0  0
  -24.6445  -15.8279   20.5012 H   0  0  0  0  0  0
  -26.2539  -15.6258   20.0295 H   0  0  0  0  0  0
  -26.7180  -32.5476   23.1155 H   0  0  0  0  0  0
  -25.0138  -33.9737   25.0544 H   0  0  0  0  0  0
  -22.7137  -31.3089   21.4028 H   0  0  0  0  0  0
  -23.3765  -35.9542   23.3280 H   0  0  0  0  0  0
  -24.3596  -36.8882   22.2070 H   0  0  0  0  0  0
  -23.7160  -37.6434   23.6651 H   0  0  0  0  0  0
  -26.0964  -31.5534   20.6024 H   0  0  0  0  0  0
  -26.8429  -30.8451   22.0012 H   0  0  0  0  0  0
  -28.1146  -28.9807   21.1967 H   0  0  0  0  0  0
  -25.9534  -25.9422   18.9949 H   0  0  0  0  0  0
  -23.9703  -27.3181   19.0063 H   0  0  0  0  0  0
  -23.7508  -30.5954   19.4012 H   0  0  0  0  0  0
  -22.7540  -29.2475   19.8626 H   0  0  0  0  0  0
  -25.1279  -36.1943   25.0849 H   0  0  0  0  0  0
  -21.0016  -28.3253   24.1369 H   0  0  0  0  0  0
  -20.5686  -26.2305   23.3600 H   0  0  0  0  0  0
  -21.6662  -26.7438   22.1178 H   0  0  0  0  0  0
  -19.6934  -25.6281   21.1225 H   0  0  0  0  0  0
  -19.6698  -27.3194   20.6733 H   0  0  0  0  0  0
  -17.4222  -26.6643   21.4011 H   0  0  0  0  0  0
  -18.0366  -26.0078   22.9017 H   0  0  0  0  0  0
  -19.7959  -30.7239   24.2262 H   0  0  0  0  0  0
  -17.5051  -31.6274   24.5138 H   0  0  0  0  0  0
  -15.5371  -30.2995   23.7663 H   0  0  0  0  0  0
  -15.8676  -28.0808   22.7094 H   0  0  0  0  0  0
  -24.5850  -30.7155   25.7814 H   0  0  0  0  0  0
  -24.8992  -32.2924   26.4956 H   0  0  0  0  0  0
  -25.8051  -30.8854   27.0240 H   0  0  0  0  0  0
  -26.2847  -29.6754   24.1202 H   0  0  0  0  0  0
  -27.4082  -29.7245   25.4601 H   0  0  0  0  0  0
  -27.8680  -30.4333   23.9310 H   0  0  0  0  0  0
  -27.2881  -33.3618   26.1942 H   0  0  0  0  0  0
  -28.3959  -32.6582   25.0250 H   0  0  0  0  0  0
  -28.0714  -31.8350   26.5423 H   0  0  0  0  0  0
  -28.2618  -38.0052   24.7499 H   0  0  0  0  0  0
  -28.1029  -36.2594   24.6349 H   0  0  0  0  0  0
  -27.2299  -37.1464   25.8899 H   0  0  0  0  0  0
  -20.9358  -29.8747   21.6836 H   0  0  0  0  0  0
  -26.0173  -38.2847   24.1415 H   0  0  0  0  0  0
  -27.9526  -17.3878   21.5786 H   0  0  0  0  0  0
  -27.8911  -19.8123   21.3630 H   0  0  0  0  0  0
  -31.8523  -17.2734   19.7969 H   0  0  0  0  0  0
  -33.9785  -20.0363   18.8238 H   0  0  0  0  0  0
  -33.1863  -18.4929   18.5909 H   0  0  0  0  0  0
  -33.7037  -19.0023   20.2181 H   0  0  0  0  0  0
  -30.0278  -24.1165   19.5864 H   0  0  0  0  0  0
  -29.7594  -24.2155   21.3068 H   0  0  0  0  0  0
  -27.3068  -24.7916   20.8497 H   0  0  0  0  0  0
  -27.6804  -24.7531   19.1417 H   0  0  0  0  0  0
  -30.8053  -21.8568   20.1370 H   0  0  0  0  0  0
  -28.9509  -15.3248   21.2329 H   0  0  0  0  0  0
  1 25  1  0  0  0
  1 30  2  0  0  0
  1 82  1  0  0  0
  2  3  1  0  0  0
  2 25  1  0  0  0
  2 85  1  0  0  0
  2 86  1  0  0  0
  3  4  1  0  0  0
  3 87  1  0  0  0
  3 88  1  0  0  0
  4  5  1  0  0  0
  4 89  1  0  0  0
  4 90  1  0  0  0
  5  6  1  0  0  0
  5 26  1  0  0  0
  5 91  1  0  0  0
  6 25  1  0  0  0
  6 92  1  0  0  0
  6 93  1  0  0  0
  7  8  2  0  0  0
  7 26  1  0  0  0
  7 29  1  0  0  0
  8  9  1  0  0  0
  8 22  1  0  0  0
  9 10  1  0  0  0
  9 27  2  0  0  0
 10 11  2  0  0  0
 10 15  1  0  0  0
 11 12  1  0  0  0
 11 94  1  0  0  0
 12 13  2  0  0  0
 12 95  1  0  0  0
 13 14  1  0  0  0
 13 31  1  0  0  0
 14 15  2  0  0  0
 14 96  1  0  0  0
 15 97  1  0  0  0
 16 17  2  0  0  0
 16 21  1  0  0  0
 16 31  1  0  0  0
 17 18  1  0  0  0
 17 98  1  0  0  0
 18 19  2  0  0  0
 18 99  1  0  0  0
 19 20  1  0  0  0
 19 24  1  0  0  0
 20 21  2  0  0  0
 20100  1  0  0  0
 21 23  1  0  0  0
 22 28  1  0  0  0
 22 32  2  0  0  0
 26 27  1  0  0  0
 28101  1  0  0  0
 28102  1  0  0  0
 29103  1  0  0  0
 29104  1  0  0  0
 33 34  1  0  0  0
 33 66  1  0  0  0
 33 70  2  0  0  0
 34 36  1  0  0  0
 34 59  1  0  0  0
 34105  1  0  0  0
 35 44  2  0  0  0
 35 45  1  0  0  0
 35 68  1  0  0  0
 36 56  1  0  0  0
 36106  1  0  0  0
 37 39  1  0  0  0
 37 47  1  0  0  0
 37 66  1  0  0  0
 37107  1  0  0  0
 38 43  2  0  0  0
 38 46  1  0  0  0
 38 47  1  0  0  0
 39 64  1  0  0  0
 39 67  2  0  0  0
 40 52  1  0  0  0
 40 53  2  0  0  0
 40 58  1  0  0  0
 41108  1  0  0  0
 41109  1  0  0  0
 41110  1  0  0  0
 41 48  1  0  0  0
 42 43  1  0  0  0
 42 66  1  0  0  0
 42111  1  0  0  0
 42112  1  0  0  0
 43 44  1  0  0  0
 44113  1  0  0  0
 45 46  2  0  0  0
 45114  1  0  0  0
 46115  1  0  0  0
 47116  1  0  0  0
 47117  1  0  0  0
 48 56  1  0  0  0
 48 65  1  0  0  0
 48118  1  0  0  0
 49 50  1  0  0  0
 49 53  1  0  0  0
 49 64  1  0  0  0
 49119  1  0  0  0
 50 51  1  0  0  0
 50120  1  0  0  0
 50121  1  0  0  0
 51 52  1  0  0  0
 51122  1  0  0  0
 51123  1  0  0  0
 52124  1  0  0  0
 52125  1  0  0  0
 53 54  1  0  0  0
 54 55  2  0  0  0
 54126  1  0  0  0
 55 57  1  0  0  0
 55127  1  0  0  0
 56 69  2  0  0  0
 57 58  2  0  0  0
 57128  1  0  0  0
 58129  1  0  0  0
 59 60  1  0  0  0
 59 61  1  0  0  0
 59 62  1  0  0  0
 60130  1  0  0  0
 60131  1  0  0  0
 60132  1  0  0  0
 61133  1  0  0  0
 61134  1  0  0  0
 61135  1  0  0  0
 62136  1  0  0  0
 62137  1  0  0  0
 62138  1  0  0  0
 63 65  1  0  0  0
 63139  1  0  0  0
 63140  1  0  0  0
 63141  1  0  0  0
 64142  1  0  0  0
 65143  1  0  0  0
 68 80  1  0  0  0
 71 72  2  0  0  0
 71 74  1  0  0  0
 71144  1  0  0  0
 72 75  1  0  0  0
 72145  1  0  0  0
 73 74  2  0  0  0
 73 76  1  0  0  0
 73146  1  0  0  0
 74 82  1  0  0  0
 75 76  2  0  0  0
 75 81  1  0  0  0
 76 84  1  0  0  0
 77 79  1  0  0  0
 77 81  1  0  0  0
 77 83  2  0  0  0
 78 84  1  0  0  0
 78147  1  0  0  0
 78148  1  0  0  0
 78149  1  0  0  0
 79 80  1  0  0  0
 79150  1  0  0  0
 79151  1  0  0  0
 80152  1  0  0  0
 80153  1  0  0  0
 81154  1  0  0  0
 82155  1  0  0  0
M  ISO  4   1 100  68 101  80 101  82 100
M  END
> <chiral flag>
0

> <version>
0

> <s_m_source_file>
/data/baiqing/PycharmProjects/Reinvent-master-3.2/result/LINK_invent/BTK/process_docking_weight1_custom_product_contain_oxygen_bond_distance_aromatic_linkinvent_7_9_3/rearranged_h_0098.sdf

> <i_m_source_file_index>
94

> <r_mmod_Potential_Energy-OPLS-2005>
-25.9284553527832

> <r_mmod_Stretch_Energy-OPLS-2005>
79.4208450317383

> <r_mmod_Bend_Energy-OPLS-2005>
145.451324462891

> <r_mmod_Torsional_Energy-OPLS-2005>
220.200073242188

> <r_mmod_Improper_Torsional_Energy-OPLS-2005>
4.12980985641479

> <r_mmod_Van_der_Waal_Energy-OPLS-2005>
155.122482299805

> <r_mmod_Electrostatic_Energy-OPLS-2005>
-447.077758789062

> <r_mmod_Solvation_Energy-OPLS-2005>
-226.884292602539

> <b_mmod_Minimization_Converged-OPLS-2005>
0

> <r_mmod_RMS_Derivative-OPLS-2005>
3.60782170295715

$$$$
94
                    3D
 Structure written by MMmdl.
158167  0  0  1  0            999 V2000
  -30.5701  -14.7103   20.4478 C   0  0  0  0  0  0
  -30.4311  -12.4277   19.4666 C   0  0  0  0  0  0
  -29.5089  -12.5212   18.2312 C   0  0  0  0  0  0
  -28.0305  -12.3520   18.6336 C   0  0  0  0  0  0
  -27.6443  -13.2244   19.8597 C   0  0  2  0  0  0
  -28.6839  -13.1023   20.9929 C   0  0  0  0  0  0
  -25.2489  -13.8176   20.5670 C   0  0  0  0  0  0
  -24.1769  -13.0442   20.9201 C   0  0  0  0  0  0
  -24.6343  -11.6923   20.8715 C   0  0  0  0  0  0
  -23.9022  -10.4308   21.0387 C   0  0  0  0  0  0
  -24.3588   -9.4227   21.9169 C   0  0  0  0  0  0
  -23.6303   -8.2226   22.0727 C   0  0  0  0  0  0
  -22.4289   -8.0259   21.3529 C   0  0  0  0  0  0
  -21.9897   -9.0215   20.4629 C   0  0  0  0  0  0
  -22.7187  -10.2130   20.3040 C   0  0  0  0  0  0
  -21.6838   -6.0736   22.5298 C   0  0  0  0  0  0
  -21.3988   -6.5625   23.8234 C   0  0  0  0  0  0
  -21.3669   -5.6779   24.9201 C   0  0  0  0  0  0
  -21.6048   -4.3040   24.7238 C   0  0  0  0  0  0
  -21.8824   -3.8137   23.4342 C   0  0  0  0  0  0
  -21.9179   -4.6949   22.3423 C   0  0  0  0  0  0
  -22.7798  -13.5228   21.1908 C   0  0  0  0  0  0
  -22.1656   -4.2128   21.0990 F   0  0  0  0  0  0
  -21.5652   -3.4542   25.7750 F   0  0  0  0  0  0
  -29.9911  -13.4635   20.4296 N   0  0  0  0  0  0
  -26.2913  -12.9379   20.3276 N   0  0  0  0  0  0
  -25.9273  -11.6523   20.5712 N   0  0  0  0  0  0
  -22.0423  -12.8216   22.0454 N   0  0  0  0  0  0
  -25.4227  -15.1875   20.4055 N   0  0  0  0  0  0
  -31.7407  -14.8560   20.0759 O   0  0  0  0  0  0
  -21.6631   -6.8864   21.4260 O   0  0  0  0  0  0
  -22.3488  -14.5539   20.6750 O   0  0  0  0  0  0
  -24.6330  -31.8572   23.2015 C   0  0  0  0  0  0
  -25.9154  -32.4767   23.8367 C   0  0  1  0  0  0
  -27.2161  -27.2777   20.0867 C   0  0  0  0  0  0
  -25.5952  -33.8561   24.2280 N   0  0  0  0  0  0
  -23.4265  -30.4834   21.5478 C   0  0  2  0  0  0
  -24.8676  -28.9336   20.1145 C   0  0  0  0  0  0
  -22.7511  -29.4643   22.4960 C   0  0  0  0  0  0
  -18.0289  -28.1427   22.8474 C   0  0  0  0  0  0
  -24.1506  -36.7280   23.2638 C   0  0  0  0  0  0
  -25.9757  -30.7691   21.3833 C   0  0  0  0  0  0
  -26.0447  -29.3962   20.7164 C   0  0  0  0  0  0
  -27.2213  -28.5788   20.6969 C   0  0  0  0  0  0
  -26.0102  -26.8881   19.4566 C   0  0  0  0  0  0
  -24.8522  -27.6842   19.4831 C   0  0  0  0  0  0
  -23.6401  -29.8192   20.1646 C   0  0  0  0  0  0
  -25.4121  -36.3074   24.0334 C   0  0  1  0  0  0
  -20.5892  -28.3749   23.1270 C   0  0  2  0  0  0
  -20.6794  -26.9475   22.5401 C   0  0  0  0  0  0
  -19.5765  -26.6411   21.5226 C   0  0  0  0  0  0
  -18.1942  -26.7957   22.1627 C   0  0  0  0  0  0
  -19.1535  -28.8902   23.2847 C   0  0  0  0  0  0
  -18.9451  -30.1505   23.8856 C   0  0  0  0  0  0
  -17.6438  -30.6606   24.0574 C   0  0  0  0  0  0
  -25.9074  -34.9445   23.5110 C   0  0  0  0  0  0
  -16.5327  -29.9093   23.6360 C   0  0  0  0  0  0
  -16.7264  -28.6532   23.0335 C   0  0  0  0  0  0
  -26.4466  -31.6592   25.0772 C   0  0  0  0  0  0
  -25.3676  -31.3736   26.1499 C   0  0  0  0  0  0
  -27.0290  -30.2993   24.6297 C   0  0  0  0  0  0
  -27.6038  -32.4337   25.7509 C   0  0  0  0  0  0
  -27.5588  -37.1793   24.8444 C   0  0  0  0  0  0
  -21.4227  -29.3087   22.3678 N   0  0  0  0  0  0
  -26.4280  -37.3782   23.9418 N   0  0  0  0  0  0
  -24.6971  -31.0547   22.0991 N   0  0  0  0  0  0
  -23.4204  -28.8217   23.3079 O   0  0  0  0  0  0
  -28.3127  -26.3832   20.1144 O   0  0  0  0  0  0
  -26.5636  -34.8912   22.4681 O   0  0  0  0  0  0
  -23.5480  -32.1398   23.7318 O   0  0  0  0  0  0
  -29.2116  -18.1759   17.8687 C   0  0  0  0  0  0
  -29.1682  -19.4538   18.4636 C   0  0  0  0  0  0
  -29.4774  -17.0179   18.6225 C   0  0  0  0  0  0
  -29.3681  -19.6373   19.8547 C   0  0  0  0  0  0
  -29.6469  -17.0835   20.0215 C   0  0  0  0  0  0
  -29.5364  -18.4013   20.6272 C   0  0  0  0  0  0
  -30.4185  -21.3405   21.3011 C   0  0  0  0  0  0
  -30.5551  -22.7550   21.9053 C   0  0  0  0  0  0
  -29.4284  -23.7576   21.6093 C   0  0  0  0  0  0
  -28.6371  -22.2183   19.8117 C   0  0  0  0  0  0
  -29.0842  -23.7407   20.1322 C   0  0  1  0  0  0
  -28.0697  -24.9406   19.7678 C   0  0  0  0  0  0
  -29.4553  -21.0443   20.3799 N   0  0  0  0  0  0
  -29.7766  -15.8034   20.7506 N   0  0  0  0  0  0
  -31.2731  -20.5251   21.6646 O   0  0  0  0  0  0
  -29.5643  -18.4666   21.9794 F   0  0  0  0  0  0
  -31.4727  -12.5615   19.1648 H   0  0  0  0  0  0
  -30.3758  -11.4325   19.9118 H   0  0  0  0  0  0
  -29.7915  -11.7704   17.4928 H   0  0  0  0  0  0
  -29.6457  -13.4883   17.7458 H   0  0  0  0  0  0
  -27.8699  -11.3012   18.8715 H   0  0  0  0  0  0
  -27.3749  -12.5798   17.7907 H   0  0  0  0  0  0
  -27.6559  -14.2567   19.5103 H   0  0  0  0  0  0
  -28.7109  -12.0828   21.3757 H   0  0  0  0  0  0
  -28.4186  -13.7376   21.8377 H   0  0  0  0  0  0
  -25.2721   -9.5731   22.4763 H   0  0  0  0  0  0
  -24.0045   -7.4607   22.7414 H   0  0  0  0  0  0
  -21.0824   -8.8686   19.8929 H   0  0  0  0  0  0
  -22.3594  -10.9650   19.6159 H   0  0  0  0  0  0
  -21.1957   -7.6129   23.9731 H   0  0  0  0  0  0
  -21.1501   -6.0507   25.9111 H   0  0  0  0  0  0
  -22.0585   -2.7594   23.2834 H   0  0  0  0  0  0
  -22.4017  -11.9873   22.4878 H   0  0  0  0  0  0
  -21.1034  -13.1228   22.2631 H   0  0  0  0  0  0
  -24.6573  -15.8446   20.5042 H   0  0  0  0  0  0
  -26.2709  -15.6203   20.0617 H   0  0  0  0  0  0
  -26.7232  -32.5397   23.1118 H   0  0  0  0  0  0
  -25.0145  -33.9703   25.0458 H   0  0  0  0  0  0
  -22.7215  -31.3037   21.4025 H   0  0  0  0  0  0
  -23.3789  -35.9593   23.3256 H   0  0  0  0  0  0
  -24.3613  -36.8940   22.2061 H   0  0  0  0  0  0
  -23.7231  -37.6453   23.6678 H   0  0  0  0  0  0
  -26.1219  -31.5359   20.6195 H   0  0  0  0  0  0
  -26.8505  -30.8065   22.0230 H   0  0  0  0  0  0
  -28.1223  -28.9294   21.1811 H   0  0  0  0  0  0
  -25.9238  -25.9453   18.9369 H   0  0  0  0  0  0
  -23.9492  -27.3220   19.0122 H   0  0  0  0  0  0
  -23.7616  -30.5913   19.4048 H   0  0  0  0  0  0
  -22.7587  -29.2462   19.8712 H   0  0  0  0  0  0
  -25.1309  -36.1907   25.0826 H   0  0  0  0  0  0
  -20.9948  -28.3328   24.1401 H   0  0  0  0  0  0
  -20.5756  -26.2365   23.3614 H   0  0  0  0  0  0
  -21.6656  -26.7554   22.1154 H   0  0  0  0  0  0
  -19.6941  -25.6311   21.1288 H   0  0  0  0  0  0
  -19.6710  -27.3201   20.6741 H   0  0  0  0  0  0
  -17.4231  -26.6709   21.4008 H   0  0  0  0  0  0
  -18.0316  -26.0095   22.9025 H   0  0  0  0  0  0
  -19.7916  -30.7360   24.2178 H   0  0  0  0  0  0
  -17.4984  -31.6277   24.5206 H   0  0  0  0  0  0
  -15.5323  -30.2972   23.7734 H   0  0  0  0  0  0
  -15.8668  -28.0872   22.7022 H   0  0  0  0  0  0
  -24.5891  -30.7028   25.7829 H   0  0  0  0  0  0
  -24.8806  -32.2882   26.4883 H   0  0  0  0  0  0
  -25.7999  -30.8952   27.0304 H   0  0  0  0  0  0
  -26.2867  -29.6759   24.1295 H   0  0  0  0  0  0
  -27.3875  -29.7255   25.4851 H   0  0  0  0  0  0
  -27.8806  -30.4221   23.9609 H   0  0  0  0  0  0
  -27.2673  -33.3685   26.2002 H   0  0  0  0  0  0
  -28.3850  -32.6817   25.0311 H   0  0  0  0  0  0
  -28.0697  -31.8514   26.5465 H   0  0  0  0  0  0
  -28.2561  -38.0133   24.7561 H   0  0  0  0  0  0
  -28.1125  -36.2669   24.6177 H   0  0  0  0  0  0
  -27.2323  -37.1340   25.8845 H   0  0  0  0  0  0
  -20.9448  -29.8771   21.6837 H   0  0  0  0  0  0
  -26.0159  -38.2858   24.1402 H   0  0  0  0  0  0
  -29.0547  -18.0825   16.8020 H   0  0  0  0  0  0
  -29.0071  -20.2925   17.8051 H   0  0  0  0  0  0
  -29.5050  -16.0631   18.1130 H   0  0  0  0  0  0
  -31.4928  -23.1608   21.5232 H   0  0  0  0  0  0
  -30.6906  -22.6666   22.9823 H   0  0  0  0  0  0
  -29.7425  -24.7613   21.9052 H   0  0  0  0  0  0
  -28.5358  -23.5281   22.1939 H   0  0  0  0  0  0
  -28.5374  -22.1278   18.7312 H   0  0  0  0  0  0
  -27.6253  -22.0854   20.1955 H   0  0  0  0  0  0
  -30.0030  -23.9300   19.5723 H   0  0  0  0  0  0
  -27.1199  -24.6448   20.2112 H   0  0  0  0  0  0
  -27.9262  -24.9016   18.6876 H   0  0  0  0  0  0
  -28.9635  -15.5758   21.3045 H   0  0  0  0  0  0
  1 25  1  0  0  0
  1 30  2  0  0  0
  1 84  1  0  0  0
  2  3  1  0  0  0
  2 25  1  0  0  0
  2 87  1  0  0  0
  2 88  1  0  0  0
  3  4  1  0  0  0
  3 89  1  0  0  0
  3 90  1  0  0  0
  4  5  1  0  0  0
  4 91  1  0  0  0
  4 92  1  0  0  0
  5  6  1  0  0  0
  5 26  1  0  0  0
  5 93  1  0  0  0
  6 25  1  0  0  0
  6 94  1  0  0  0
  6 95  1  0  0  0
  7  8  2  0  0  0
  7 26  1  0  0  0
  7 29  1  0  0  0
  8  9  1  0  0  0
  8 22  1  0  0  0
  9 10  1  0  0  0
  9 27  2  0  0  0
 10 11  2  0  0  0
 10 15  1  0  0  0
 11 12  1  0  0  0
 11 96  1  0  0  0
 12 13  2  0  0  0
 12 97  1  0  0  0
 13 14  1  0  0  0
 13 31  1  0  0  0
 14 15  2  0  0  0
 14 98  1  0  0  0
 15 99  1  0  0  0
 16 17  2  0  0  0
 16 21  1  0  0  0
 16 31  1  0  0  0
 17 18  1  0  0  0
 17100  1  0  0  0
 18 19  2  0  0  0
 18101  1  0  0  0
 19 20  1  0  0  0
 19 24  1  0  0  0
 20 21  2  0  0  0
 20102  1  0  0  0
 21 23  1  0  0  0
 22 28  1  0  0  0
 22 32  2  0  0  0
 26 27  1  0  0  0
 28103  1  0  0  0
 28104  1  0  0  0
 29105  1  0  0  0
 29106  1  0  0  0
 33 34  1  0  0  0
 33 66  1  0  0  0
 33 70  2  0  0  0
 34 36  1  0  0  0
 34 59  1  0  0  0
 34107  1  0  0  0
 35 44  2  0  0  0
 35 45  1  0  0  0
 35 68  1  0  0  0
 36 56  1  0  0  0
 36108  1  0  0  0
 37 39  1  0  0  0
 37 47  1  0  0  0
 37 66  1  0  0  0
 37109  1  0  0  0
 38 43  2  0  0  0
 38 46  1  0  0  0
 38 47  1  0  0  0
 39 64  1  0  0  0
 39 67  2  0  0  0
 40 52  1  0  0  0
 40 53  2  0  0  0
 40 58  1  0  0  0
 41110  1  0  0  0
 41111  1  0  0  0
 41112  1  0  0  0
 41 48  1  0  0  0
 42 43  1  0  0  0
 42 66  1  0  0  0
 42113  1  0  0  0
 42114  1  0  0  0
 43 44  1  0  0  0
 44115  1  0  0  0
 45 46  2  0  0  0
 45116  1  0  0  0
 46117  1  0  0  0
 47118  1  0  0  0
 47119  1  0  0  0
 48 56  1  0  0  0
 48 65  1  0  0  0
 48120  1  0  0  0
 49 50  1  0  0  0
 49 53  1  0  0  0
 49 64  1  0  0  0
 49121  1  0  0  0
 50 51  1  0  0  0
 50122  1  0  0  0
 50123  1  0  0  0
 51 52  1  0  0  0
 51124  1  0  0  0
 51125  1  0  0  0
 52126  1  0  0  0
 52127  1  0  0  0
 53 54  1  0  0  0
 54 55  2  0  0  0
 54128  1  0  0  0
 55 57  1  0  0  0
 55129  1  0  0  0
 56 69  2  0  0  0
 57 58  2  0  0  0
 57130  1  0  0  0
 58131  1  0  0  0
 59 60  1  0  0  0
 59 61  1  0  0  0
 59 62  1  0  0  0
 60132  1  0  0  0
 60133  1  0  0  0
 60134  1  0  0  0
 61135  1  0  0  0
 61136  1  0  0  0
 61137  1  0  0  0
 62138  1  0  0  0
 62139  1  0  0  0
 62140  1  0  0  0
 63 65  1  0  0  0
 63141  1  0  0  0
 63142  1  0  0  0
 63143  1  0  0  0
 64144  1  0  0  0
 65145  1  0  0  0
 68 82  1  0  0  0
 71 72  2  0  0  0
 71 73  1  0  0  0
 71146  1  0  0  0
 72 74  1  0  0  0
 72147  1  0  0  0
 73 75  2  0  0  0
 73148  1  0  0  0
 74 76  2  0  0  0
 74 83  1  0  0  0
 75 76  1  0  0  0
 75 84  1  0  0  0
 76 86  1  0  0  0
 77 78  1  0  0  0
 77 83  1  0  0  0
 77 85  2  0  0  0
 78 79  1  0  0  0
 78149  1  0  0  0
 78150  1  0  0  0
 79 81  1  0  0  0
 79151  1  0  0  0
 79152  1  0  0  0
 80 81  1  0  0  0
 80 83  1  0  0  0
 80153  1  0  0  0
 80154  1  0  0  0
 81 82  1  0  0  0
 81155  1  0  0  0
 82156  1  0  0  0
 82157  1  0  0  0
 84158  1  0  0  0
M  ISO  4   1 100  68 101  82 101  84 100
M  END
> <chiral flag>
0

> <version>
0

> <s_m_source_file>
/data/baiqing/PycharmProjects/Reinvent-master-3.2/result/LINK_invent/BTK/process_docking_weight1_custom_product_contain_oxygen_bond_distance_aromatic_linkinvent_7_9_3/rearranged_h_0098.sdf

> <i_m_source_file_index>
95

> <r_mmod_Potential_Energy-OPLS-2005>
225.998947143555

> <r_mmod_Stretch_Energy-OPLS-2005>
129.867416381836

> <r_mmod_Bend_Energy-OPLS-2005>
162.121383666992

> <r_mmod_Torsional_Energy-OPLS-2005>
299.222076416016

> <r_mmod_Improper_Torsional_Energy-OPLS-2005>
6.00471544265747

> <r_mmod_Van_der_Waal_Energy-OPLS-2005>
157.143951416016

> <r_mmod_Electrostatic_Energy-OPLS-2005>
-371.454132080078

> <r_mmod_Solvation_Energy-OPLS-2005>
-230.575073242188

> <b_mmod_Minimization_Converged-OPLS-2005>
0

> <r_mmod_RMS_Derivative-OPLS-2005>
4.56352138519287

$$$$
